AV-unprocessed.smi:753|AV-procd|sdf|3603|dock5
  -GOLD-   22720 0593D 1   1.00000     0.00000
 Structure written by MMmdl.
 44 46  0  0  0  0  0  0  0  0  2 V2000
  150.9045  142.2080  157.0944 C   0  0  0  0  0  0  0  0  0  0  0  0
  150.1237  141.5392  155.9831 C   0  0  0  0  0  0  0  0  0  0  0  0
  150.4622  140.2628  155.4843 C   0  0  0  0  0  0  0  0  0  0  0  0
  149.6912  139.7037  154.4437 C   0  0  0  0  0  0  0  0  0  0  0  0
  148.5975  140.4308  153.9246 C   0  0  0  0  0  0  0  0  0  0  0  0
  147.7563  139.8607  152.7997 C   0  0  0  0  0  0  0  0  0  0  0  0
  146.6108  138.9812  153.3259 C   0  0  0  0  0  0  0  0  0  0  0  0
  146.7603  137.5973  152.8944 N   0  0  0  0  0  0  0  0  0  0  0  0
  145.7493  136.7254  152.7409 C   0  0  0  0  0  0  0  0  0  0  0  0
  144.5726  137.0088  152.9585 O   0  0  0  0  0  0  0  0  0  0  0  0
  146.1209  135.5033  152.3210 N   0  0  0  0  0  0  0  0  0  0  0  0
  145.2655  134.3432  152.0608 C   0  0  2  0  0  0  0  0  0  0  0  0
  145.7635  133.0540  152.7567 C   0  0  0  0  0  0  0  0  0  0  0  0
  145.9565  132.0809  151.5790 C   0  0  1  0  0  0  0  0  0  0  0  0
  144.5826  131.6976  150.9953 C   0  0  0  0  0  0  0  0  0  0  0  0
  144.1458  132.9876  150.2732 C   0  0  0  0  0  0  0  0  0  0  0  0
  145.3124  133.9489  150.5685 C   0  0  2  0  0  0  0  0  0  0  0  0
  146.5096  133.0048  150.5028 C   0  0  0  0  0  0  0  0  0  0  0  0
  148.3057  141.7019  154.4634 C   0  0  0  0  0  0  0  0  0  0  0  0
  149.0691  142.2033  155.4589 N   0  3  0  0  0  0  0  0  0  0  0  0
  151.6919  141.5541  157.4707 H   0  0  0  0  0  0  0  0  0  0  0  0
  150.2452  142.4598  157.9255 H   0  0  0  0  0  0  0  0  0  0  0  0
  151.3681  143.1261  156.7324 H   0  0  0  0  0  0  0  0  0  0  0  0
  151.3017  139.7173  155.8900 H   0  0  0  0  0  0  0  0  0  0  0  0
  149.9398  138.7294  154.0481 H   0  0  0  0  0  0  0  0  0  0  0  0
  147.3595  140.6829  152.2024 H   0  0  0  0  0  0  0  0  0  0  0  0
  148.3985  139.2809  152.1350 H   0  0  0  0  0  0  0  0  0  0  0  0
  146.5982  138.9968  154.4160 H   0  0  0  0  0  0  0  0  0  0  0  0
  145.6455  139.3715  152.9982 H   0  0  0  0  0  0  0  0  0  0  0  0
  147.6968  137.2779  152.6925 H   0  0  0  0  0  0  0  0  0  0  0  0
  147.1089  135.3610  152.1680 H   0  0  0  0  0  0  0  0  0  0  0  0
  144.2406  134.5818  152.3515 H   0  0  0  0  0  0  0  0  0  0  0  0
  146.7115  133.2160  153.2725 H   0  0  0  0  0  0  0  0  0  0  0  0
  145.0493  132.6782  153.4902 H   0  0  0  0  0  0  0  0  0  0  0  0
  146.5859  131.2235  151.8188 H   0  0  0  0  0  0  0  0  0  0  0  0
  144.6762  130.8742  150.2859 H   0  0  0  0  0  0  0  0  0  0  0  0
  143.8767  131.3941  151.7693 H   0  0  0  0  0  0  0  0  0  0  0  0
  144.0506  132.8121  149.2007 H   0  0  0  0  0  0  0  0  0  0  0  0
  143.1889  133.3658  150.6347 H   0  0  0  0  0  0  0  0  0  0  0  0
  145.3543  134.7976  149.8846 H   0  0  0  0  0  0  0  0  0  0  0  0
  147.4530  133.4778  150.7808 H   0  0  0  0  0  0  0  0  0  0  0  0
  146.6257  132.5191  149.5322 H   0  0  0  0  0  0  0  0  0  0  0  0
  147.4933  142.3304  154.1284 H   0  0  0  0  0  0  0  0  0  0  0  0
  148.8403  143.1254  155.8309 H   0  0  0  0  0  0  0  0  0  0  0  0
  1  2  1  0  0  0  0
  1 21  1  0  0  0  0
  1 22  1  0  0  0  0
  1 23  1  0  0  0  0
  2 20  1  0  0  0  0
  2  3  2  0  0  0  0
  3  4  1  0  0  0  0
  3 24  1  0  0  0  0
  4  5  2  0  0  0  0
  4 25  1  0  0  0  0
  5  6  1  0  0  0  0
  5 19  1  0  0  0  0
  6  7  1  0  0  0  0
  6 26  1  0  0  0  0
  6 27  1  0  0  0  0
  7  8  1  0  0  0  0
  7 28  1  0  0  0  0
  7 29  1  0  0  0  0
  8  9  1  0  0  0  0
  8 30  1  0  0  0  0
  9 10  2  0  0  0  0
  9 11  1  0  0  0  0
 11 12  1  0  0  0  0
 11 31  1  0  0  0  0
 12 17  1  0  0  0  0
 12 13  1  0  0  0  0
 12 32  1  0  0  0  0
 13 14  1  0  0  0  0
 13 33  1  0  0  0  0
 13 34  1  0  0  0  0
 14 18  1  0  0  0  0
 14 15  1  0  0  0  0
 14 35  1  0  0  0  0
 15 16  1  0  0  0  0
 15 36  1  0  0  0  0
 15 37  1  0  0  0  0
 16 17  1  0  0  0  0
 16 38  1  0  0  0  0
 16 39  1  0  0  0  0
 17 18  1  0  0  0  0
 17 40  1  0  0  0  0
 18 41  1  0  0  0  0
 18 42  1  0  0  0  0
 19 20  2  0  0  0  0
 19 43  1  0  0  0  0
 20 44  1  0  0  0  0
M  CHG  1  20   1
M  END
> <s_m_source_file>
AV-unprocessed.smi

> <i_m_source_file_index>
753

> <i_lp_mmshare_version>
43012

> <i_f3d_flags>
0

> <s_epik_input>
W0NIM11jMVtjSF1bY0hdYyhbY0hdbjEpW0NIMl1bQ0gyXVtOSF1DKD1PKVtOSF1bQ0BIXShbQ0gyXVtDQEBIXTIzKVtDQEBIXShbQ0gyXTMpW0NIMl1bQ0gyXTI=

> <s_epik_cmdline>
J2VwaWtfcHl0aG9uJywgJy1waCcsICc3LjAnLCAnLXRuJywgJzgnLCAnLW1hJywgJzIwMCcsICctbWV0YWxfYmluZGluZycsICctaW1hZScsICc8aW5maWxlLm1hZT4nLCAnLW9tYWUnLCAnPG91dGZpbGUubWFlPic=

> <r_epik_Ionization_Penalty>
1.41708

> <r_epik_Ionization_Penalty_Charging>
1.41702

> <r_epik_Ionization_Penalty_Neutral>
5.73163e-05

> <r_epik_State_Penalty>
1.50048

> <r_epik_Charging_Adjusted_Penalty>
2.9175

> <i_epik_Tot_Q>
1

> <i_epik_Tot_abs_Q>
1

> <r_epik_Metal_State_Penalty>
1.55295

> <b_epik_Metal_Only>
0

> <s_lp_Force_Field>
OPLS_2005

> <r_lp_Energy>
57.028

> <b_lp_Chiralities_Consistent>
1

> <s_lp_Variant>
AV-unprocessed.smi:753-5

> <Gold.Version>
5.8.1

> <Gold.Id.Protein>
6NUR|6NUR_protein|mol2

> <Gold.PLP.Fitness>
46.8361

> <Gold.PLP.PLP>
-36.9295

> <Gold.PLP.part.hbond>
-3.0000

> <Gold.PLP.part.metal>
0.0000

> <Gold.PLP.part.buried>
2.4513

> <Gold.PLP.part.nonpolar>
-36.2355

> <Gold.PLP.part.repulsive>
0.3913

> <Gold.PLP.ligand.clash>
0.0000

> <Gold.PLP.ligand.torsion>
0.9744

> <Gold.PLP.Chemscore.Hbond>
3.9440

> <Gold.PLP.Chemscore.CHOScore>
0.0000

> <Gold.PLP.Chemscore.Metal>
0.0000

> <Gold.Chemscore.Hbonds>
donor molecule, donor type, donor heavy atom, donor atom, acceptor molecule, acceptor atom, score
      L1  H     8    30       P1  7948  1.00
      L1  H    11    31       P1  7948  0.95
      L1  H    20    44       P1  8028  1.95

> <Gold.PLP.Chemscore.Internal.Correction>
0.0234

> <Gold.Rescore>
     Score         DG    S(hbond)    S(metal)    S(lipo)     H(rot)  DE(clash)    DE(int)     intcor
     20.37     -23.59       2.83        0.00     106.82       1.50       2.29       0.93       ----

> <Gold.Chemscore.Fitness>
20.3706

> <Gold.Chemscore.DG>
-23.5888

> <Gold.Chemscore.ZeroCoef>
-5.4800

> <Gold.Chemscore.Hbond>
2.8315

> <Gold.Chemscore.Metal>
0.0000

> <Gold.Chemscore.Lipo>
106.8236

> <Gold.Chemscore.Internal_Hbond>
0.0000

> <Gold.Chemscore.DEClash>
2.2887

> <Gold.Chemscore.DEInternal>
0.9295

> <Gold.Chemscore.Rot>
1.5027

> <Gold.Chemscore.Internal.Correction>
   9.000000E+99

> <Gold.Chemscore.Hbonds>
donor molecule, donor type, donor heavy atom, donor atom, acceptor molecule, acceptor atom, score
      L1  H     8    30       P1  7948  0.98
      L1  H    11    31       P1  7948  0.85
      L1  H    20    44       P1  8028  0.92

> <Gold.Chemscore.Hbond.Weighted>
-9.4573

> <Gold.Chemscore.Metal.Weighted>
-0.0000

> <Gold.Chemscore.Lipo.Weighted>
-12.4984

> <Gold.Chemscore.Internal_Hbond.Weighted>
0.0000

> <Gold.Chemscore.DEClash.Weighted>
2.2887

> <Gold.Chemscore.DEInternal.Weighted>
0.9295

> <Gold.Chemscore.Rot.Weighted>
3.8468

> <Gold.Chemscore.Internal.Correction.Weighted>
   9.000000E+99

> <Gold.Protein.RotatedTorsions>
[ 6907 6896 6895 6894 ] final -159.27 input  -60.11 | X-H torsion
[ 7974 7965 7964 7962 ] final  -31.02 input  175.53 | X-H torsion
[ 8008 7997 7996 7995 ] final   40.78 input   59.86 | X-H torsion
[ 10167 10162 10161 10158 ] final  111.52 input  -65.29 | X-H torsion
[ 10718 10713 10712 10709 ] final   27.15 input   66.30 | X-H torsion
[ 10763 10752 10751 10750 ] final  142.77 input  -60.55 | X-H torsion
[ 11005 11000 10999 10996 ] final   55.11 input  -57.11 | X-H torsion

> <Gold.Protein.ActiveResidues>
 VAL166  LYS551  ARG553  GLY616  TRP617  ASP618  TYR619  PRO620  LYS621  CYS622 
 ASP623  PHE694  ASN695  SER759  ASP760  ASP761  ALA762  ILE779  LEU786  VAL792 
 PHE793  MET794  SER795  GLU796  ALA797  LYS798  CYS799  TRP800  GLU811  SER814 

> <Gold.Protein.RotatedAtoms>
  151.3309  133.4001  159.2662 H   0  0  0  0  0  0  0  0  0  0  0  0  # atno 6907 bound_to 6896
  150.9956  134.9281  159.7935 H   0  0  0  0  0  0  0  0  0  0  0  0  # atno 6908 bound_to 6896
  152.5260  134.3274  159.9223 H   0  0  0  0  0  0  0  0  0  0  0  0  # atno 6909 bound_to 6896
  146.1099  140.5614  142.8782 H   0  0  0  0  0  0  0  0  0  0  0  0  # atno 7974 bound_to 7965
  155.2588  140.3358  155.4275 H   0  0  0  0  0  0  0  0  0  0  0  0  # atno 8008 bound_to 7997
  156.2184  140.1798  156.7578 H   0  0  0  0  0  0  0  0  0  0  0  0  # atno 8009 bound_to 7997
  154.5788  140.0657  156.9058 H   0  0  0  0  0  0  0  0  0  0  0  0  # atno 8010 bound_to 7997
  139.6605  144.7129  151.1874 H   0  0  0  0  0  0  0  0  0  0  0  0  # atno 10167 bound_to 10162
  157.2164  130.6958  149.6251 H   0  0  0  0  0  0  0  0  0  0  0  0  # atno 10718 bound_to 10713
  153.9612  135.2960  155.3433 H   0  0  0  0  0  0  0  0  0  0  0  0  # atno 10763 bound_to 10752
  154.7373  135.5040  153.9067 H   0  0  0  0  0  0  0  0  0  0  0  0  # atno 10764 bound_to 10752
  153.0945  135.6717  153.9899 H   0  0  0  0  0  0  0  0  0  0  0  0  # atno 10765 bound_to 10752
  140.0633  134.5571  155.9127 H   0  0  0  0  0  0  0  0  0  0  0  0  # atno 11005 bound_to 11000
  144.7502  140.5173  143.6807 LP  0  0  0  0  0  0  0  0  0  0  0  0  # atno 17320 bound_to 7965
  145.5685  139.1482  143.3302 LP  0  0  0  0  0  0  0  0  0  0  0  0  # atno 17321 bound_to 7965
  140.7578  143.6002  150.8707 LP  0  0  0  0  0  0  0  0  0  0  0  0  # atno 17342 bound_to 10162
  139.9659  143.6111  152.2988 LP  0  0  0  0  0  0  0  0  0  0  0  0  # atno 17343 bound_to 10162
  155.9686  130.4534  150.5811 LP  0  0  0  0  0  0  0  0  0  0  0  0  # atno 17370 bound_to 10713
  157.3620  131.0751  151.1628 LP  0  0  0  0  0  0  0  0  0  0  0  0  # atno 17371 bound_to 10713
  141.1982  133.6600  156.5781 LP  0  0  0  0  0  0  0  0  0  0  0  0  # atno 17394 bound_to 11000
  140.3737  134.7584  157.4615 LP  0  0  0  0  0  0  0  0  0  0  0  0  # atno 17395 bound_to 11000

$$$$
