AV-unprocessed.smi:3168|AV-procd|sdf|12099|dock3
  -GOLD-   2272017533D 1   1.00000     0.00000
 Structure written by MMmdl.
 33 34  0  0  0  0  0  0  0  0  1 V2000
  150.5716  138.9906  154.4157 C   0  0  0  0  0  0  0  0  0  0  0  0
  150.0889  140.3481  154.9675 C   0  0  2  0  0  0  0  0  0  0  0  0
  150.1840  140.4434  156.5003 C   0  0  0  0  0  0  0  0  0  0  0  0
  149.4936  139.7211  157.2204 O   0  0  0  0  0  0  0  0  0  0  0  0
  151.0598  141.3382  156.9859 N   0  0  0  0  0  0  0  0  0  0  0  0
  151.3153  141.5969  158.3992 C   0  0  0  0  0  0  0  0  0  0  0  0
  151.0700  143.0707  158.7635 C   0  0  2  0  0  0  0  0  0  0  0  0
  151.9205  144.0814  157.9914 C   0  0  0  0  0  0  0  0  0  0  0  0
  151.9589  145.2460  158.9531 C   0  0  0  0  0  0  0  0  0  0  0  0
  152.0754  144.5289  160.2940 C   0  0  0  0  0  0  0  0  0  0  0  0
  151.3790  143.2951  160.1372 O   0  0  0  0  0  0  0  0  0  0  0  0
  148.7406  140.6727  154.5142 N   0  0  0  0  0  0  0  0  0  0  0  0
  148.0546  141.8596  154.6746 C   0  0  0  0  0  0  0  0  0  0  0  0
  146.8163  141.6969  154.1233 C   0  0  0  0  0  0  0  0  0  0  0  0
  146.8306  140.3551  153.6519 C   0  0  0  0  0  0  0  0  0  0  0  0
  147.9783  139.7429  153.8924 N   0  0  0  0  0  0  0  0  0  0  0  0
  151.6050  138.7934  154.7030 H   0  0  0  0  0  0  0  0  0  0  0  0
  150.5287  138.9769  153.3264 H   0  0  0  0  0  0  0  0  0  0  0  0
  149.9639  138.1611  154.7795 H   0  0  0  0  0  0  0  0  0  0  0  0
  150.7551  141.1125  154.5638 H   0  0  0  0  0  0  0  0  0  0  0  0
  151.5866  141.8892  156.3239 H   0  0  0  0  0  0  0  0  0  0  0  0
  150.6404  140.9647  158.9766 H   0  0  0  0  0  0  0  0  0  0  0  0
  152.3260  141.2959  158.6798 H   0  0  0  0  0  0  0  0  0  0  0  0
  150.0151  143.3153  158.6275 H   0  0  0  0  0  0  0  0  0  0  0  0
  152.9299  143.6974  157.8349 H   0  0  0  0  0  0  0  0  0  0  0  0
  151.4987  144.3410  157.0200 H   0  0  0  0  0  0  0  0  0  0  0  0
  152.7825  145.9347  158.7637 H   0  0  0  0  0  0  0  0  0  0  0  0
  151.0238  145.8052  158.9035 H   0  0  0  0  0  0  0  0  0  0  0  0
  153.1202  144.3091  160.5168 H   0  0  0  0  0  0  0  0  0  0  0  0
  151.6694  145.1163  161.1177 H   0  0  0  0  0  0  0  0  0  0  0  0
  148.5006  142.7130  155.1637 H   0  0  0  0  0  0  0  0  0  0  0  0
  146.0202  142.4242  154.0689 H   0  0  0  0  0  0  0  0  0  0  0  0
  146.0451  139.8104  153.1493 H   0  0  0  0  0  0  0  0  0  0  0  0
  1  2  1  0  0  0  0
  1 17  1  0  0  0  0
  1 18  1  0  0  0  0
  1 19  1  0  0  0  0
  2  3  1  0  0  0  0
  2 12  1  0  0  0  0
  2 20  1  0  0  0  0
  3  4  2  0  0  0  0
  3  5  1  0  0  0  0
  5  6  1  0  0  0  0
  5 21  1  0  0  0  0
  6  7  1  0  0  0  0
  6 22  1  0  0  0  0
  6 23  1  0  0  0  0
  7 11  1  0  0  0  0
  7  8  1  0  0  0  0
  7 24  1  0  0  0  0
  8  9  1  0  0  0  0
  8 25  1  0  0  0  0
  8 26  1  0  0  0  0
  9 10  1  0  0  0  0
  9 27  1  0  0  0  0
  9 28  1  0  0  0  0
 10 11  1  0  0  0  0
 10 29  1  0  0  0  0
 10 30  1  0  0  0  0
 12 16  1  0  0  0  0
 12 13  1  0  0  0  0
 13 14  2  0  0  0  0
 13 31  1  0  0  0  0
 14 15  1  0  0  0  0
 14 32  1  0  0  0  0
 15 16  2  0  0  0  0
 15 33  1  0  0  0  0
M  END
> <s_m_source_file>
AV-unprocessed.smi

> <i_m_source_file_index>
3168

> <i_lp_mmshare_version>
43012

> <i_f3d_flags>
0

> <s_epik_input>
bjFbY0hdW2NIXVtjSF1uMVtDQEhdKFtDSDNdKUMoPU8pW05IXVtDSDJdW0NAQEhdMltDSDJdW0NIMl1bQ0gyXU8y

> <s_epik_cmdline>
J2VwaWtfcHl0aG9uJywgJy1waCcsICc3LjAnLCAnLXRuJywgJzgnLCAnLW1hJywgJzIwMCcsICctbWV0YWxfYmluZGluZycsICctaW1hZScsICc8aW5maWxlLm1hZT4nLCAnLW9tYWUnLCAnPG91dGZpbGUubWFlPic=

> <r_lp_tautomer_probability>
1

> <r_epik_Ionization_Penalty>
4.14877e-05

> <r_epik_Ionization_Penalty_Charging>
0

> <r_epik_Ionization_Penalty_Neutral>
4.14877e-05

> <r_epik_State_Penalty>
-0

> <r_epik_Charging_Adjusted_Penalty>
0

> <i_epik_Tot_Q>
0

> <i_epik_Tot_abs_Q>
0

> <r_epik_Metal_State_Penalty>
-0

> <b_epik_Metal_Only>
0

> <s_lp_Force_Field>
OPLS_2005

> <r_lp_Energy>
21.6016

> <b_lp_Chiralities_Consistent>
1

> <s_lp_Variant>
AV-unprocessed.smi:3168-1

> <Gold.Version>
5.8.1

> <Gold.Id.Protein>
6NUR|6NUR_protein|mol2

> <Gold.PLP.Fitness>
41.2464

> <Gold.PLP.PLP>
-35.4302

> <Gold.PLP.part.hbond>
-0.3789

> <Gold.PLP.part.metal>
0.0000

> <Gold.PLP.part.buried>
-3.6037

> <Gold.PLP.part.nonpolar>
-32.7413

> <Gold.PLP.part.repulsive>
0.6974

> <Gold.PLP.ligand.clash>
0.0000

> <Gold.PLP.ligand.torsion>
0.1311

> <Gold.PLP.Chemscore.Hbond>
0.0000

> <Gold.PLP.Chemscore.CHOScore>
1.9889

> <Gold.PLP.Chemscore.Metal>
0.0000

> <Gold.Chemscore.Hbonds>
donor molecule, donor type, donor heavy atom, donor atom, acceptor molecule, acceptor atom, score
      L1  C    13    31       P1  8028  1.00
      L1  C    15    33       P1 10175  0.96

> <Gold.PLP.Chemscore.Internal.Correction>
0.1115

> <Gold.Rescore>
     Score         DG    S(hbond)    S(metal)    S(lipo)     H(rot)  DE(clash)    DE(int)     intcor
     11.77     -11.93       0.00        0.00      90.31       1.61       0.03       0.12       ----

> <Gold.Chemscore.Fitness>
11.7717

> <Gold.Chemscore.DG>
-11.9262

> <Gold.Chemscore.ZeroCoef>
-5.4800

> <Gold.Chemscore.Hbond>
0.0000

> <Gold.Chemscore.Metal>
0.0000

> <Gold.Chemscore.Lipo>
90.3095

> <Gold.Chemscore.Internal_Hbond>
0.0000

> <Gold.Chemscore.DEClash>
0.0320

> <Gold.Chemscore.DEInternal>
0.1224

> <Gold.Chemscore.Rot>
1.6094

> <Gold.Chemscore.Internal.Correction>
   9.000000E+99

> <Gold.Chemscore.Hbond.Weighted>
-0.0000

> <Gold.Chemscore.Metal.Weighted>
-0.0000

> <Gold.Chemscore.Lipo.Weighted>
-10.5662

> <Gold.Chemscore.Internal_Hbond.Weighted>
0.0000

> <Gold.Chemscore.DEClash.Weighted>
0.0320

> <Gold.Chemscore.DEInternal.Weighted>
0.1224

> <Gold.Chemscore.Rot.Weighted>
4.1201

> <Gold.Chemscore.Internal.Correction.Weighted>
   9.000000E+99

> <Gold.Protein.RotatedTorsions>
[ 6907 6896 6895 6894 ] final   62.26 input  -60.11 | X-H torsion
[ 7974 7965 7964 7962 ] final -145.51 input  175.53 | X-H torsion
[ 8008 7997 7996 7995 ] final  -21.53 input   59.86 | X-H torsion
[ 10167 10162 10161 10158 ] final -170.95 input  -65.29 | X-H torsion
[ 10718 10713 10712 10709 ] final -133.25 input   66.30 | X-H torsion
[ 10763 10752 10751 10750 ] final   -6.72 input  -60.55 | X-H torsion
[ 11005 11000 10999 10996 ] final  -92.78 input  -57.11 | X-H torsion

> <Gold.Protein.ActiveResidues>
 VAL166  LYS551  ARG553  GLY616  TRP617  ASP618  TYR619  PRO620  LYS621  CYS622 
 ASP623  PHE694  ASN695  SER759  ASP760  ASP761  ALA762  ILE779  LEU786  VAL792 
 PHE793  MET794  SER795  GLU796  ALA797  LYS798  CYS799  TRP800  GLU811  SER814 

> <Gold.Protein.RotatedAtoms>
  152.4157  134.6045  160.0008 H   0  0  0  0  0  0  0  0  0  0  0  0  # atno 6907 bound_to 6896
  151.6209  133.3333  159.3096 H   0  0  0  0  0  0  0  0  0  0  0  0  # atno 6908 bound_to 6896
  150.8046  134.7202  159.6698 H   0  0  0  0  0  0  0  0  0  0  0  0  # atno 6909 bound_to 6896
  144.8223  140.5575  143.5570 H   0  0  0  0  0  0  0  0  0  0  0  0  # atno 7974 bound_to 7965
  154.4700  140.2032  156.0020 H   0  0  0  0  0  0  0  0  0  0  0  0  # atno 8008 bound_to 7997
  156.0994  140.3246  155.7892 H   0  0  0  0  0  0  0  0  0  0  0  0  # atno 8009 bound_to 7997
  155.4824  140.0539  157.2956 H   0  0  0  0  0  0  0  0  0  0  0  0  # atno 8010 bound_to 7997
  139.5831  144.1379  152.1541 H   0  0  0  0  0  0  0  0  0  0  0  0  # atno 10167 bound_to 10162
  156.2430  130.7107  151.0976 H   0  0  0  0  0  0  0  0  0  0  0  0  # atno 10718 bound_to 10713
  153.4163  135.7009  153.6325 H   0  0  0  0  0  0  0  0  0  0  0  0  # atno 10763 bound_to 10752
  153.4798  135.3696  155.2436 H   0  0  0  0  0  0  0  0  0  0  0  0  # atno 10764 bound_to 10752
  154.8720  135.4063  154.3523 H   0  0  0  0  0  0  0  0  0  0  0  0  # atno 10765 bound_to 10752
  141.1513  133.7843  157.0067 H   0  0  0  0  0  0  0  0  0  0  0  0  # atno 11005 bound_to 11000
  145.5078  139.1480  143.3621 LP  0  0  0  0  0  0  0  0  0  0  0  0  # atno 17320 bound_to 7965
  146.2528  140.5218  142.8886 LP  0  0  0  0  0  0  0  0  0  0  0  0  # atno 17321 bound_to 7965
  140.0936  144.5599  150.7037 LP  0  0  0  0  0  0  0  0  0  0  0  0  # atno 17342 bound_to 10162
  140.7107  143.2502  151.4591 LP  0  0  0  0  0  0  0  0  0  0  0  0  # atno 17343 bound_to 10162
  157.7183  131.0697  150.6239 LP  0  0  0  0  0  0  0  0  0  0  0  0  # atno 17370 bound_to 10713
  156.6313  130.4433  149.5785 LP  0  0  0  0  0  0  0  0  0  0  0  0  # atno 17371 bound_to 10713
  140.0904  134.9596  157.1767 LP  0  0  0  0  0  0  0  0  0  0  0  0  # atno 17394 bound_to 11000
  140.3453  134.2658  155.7206 LP  0  0  0  0  0  0  0  0  0  0  0  0  # atno 17395 bound_to 11000

$$$$
