AV-unprocessed.smi:246|AV-procd|sdf|1881|dock8
  -GOLD-   2262020523D 1   1.00000     0.00000
 Structure written by MMmdl.
 57 60  0  0  0  0  0  0  0  0  1 V2000
  151.7958  143.9992  158.0089 C   0  0  0  0  0  0  0  0  0  0  0  0
  152.0192  145.1406  159.0103 C   0  0  0  0  0  0  0  0  0  0  0  0
  150.7942  145.6025  159.5620 O   0  0  0  0  0  0  0  0  0  0  0  0
  150.0860  144.6266  160.3125 C   0  0  0  0  0  0  0  0  0  0  0  0
  148.8023  145.2594  160.8570 C   0  0  0  0  0  0  0  0  0  0  0  0
  147.9080  144.2275  161.2451 O   0  0  0  0  0  0  0  0  0  0  0  0
  146.5501  144.6394  161.2891 C   0  0  2  0  0  0  0  0  0  0  0  0
  145.6229  143.4348  161.4536 C   0  0  0  0  0  0  0  0  0  0  0  0
  144.2929  143.9039  160.8534 C   0  0  0  0  0  0  0  0  0  0  0  0
  144.6341  144.9921  159.9483 N   0  0  0  0  0  0  0  0  0  0  0  0
  143.8541  145.3320  158.8899 C   0  0  0  0  0  0  0  0  0  0  0  0
  144.4131  146.0410  157.8734 N   0  0  0  0  0  0  0  0  0  0  0  0
  143.6835  146.4020  156.8144 C   0  0  0  0  0  0  0  0  0  0  0  0
  142.3922  146.1717  156.5748 N   0  0  0  0  0  0  0  0  0  0  0  0
  141.8179  145.4716  157.5942 C   0  0  0  0  0  0  0  0  0  0  0  0
  142.4681  145.0130  158.7766 C   0  0  0  0  0  0  0  0  0  0  0  0
  141.5518  144.3426  159.5805 N   0  0  0  0  0  0  0  0  0  0  0  0
  140.4328  144.3961  158.9121 C   0  0  0  0  0  0  0  0  0  0  0  0
  140.4973  145.0753  157.7171 N   0  0  0  0  0  0  0  0  0  0  0  0
  139.4073  145.2889  156.7802 C   0  0  0  0  0  0  0  0  0  0  0  0
  139.0525  146.7787  156.5681 C   0  0  2  0  0  0  0  0  0  0  0  0
  138.6298  147.2558  157.8290 O   0  0  0  0  0  0  0  0  0  0  0  0
  137.9008  147.0539  155.5741 C   0  0  2  0  0  0  0  0  0  0  0  0
  137.8009  148.4828  155.0319 C   0  0  0  0  0  0  0  0  0  0  0  0
  136.3295  148.6468  154.6875 C   0  0  0  0  0  0  0  0  0  0  0  0
  135.6508  147.4858  155.4145 C   0  0  0  0  0  0  0  0  0  0  0  0
  136.6591  146.9461  156.2562 O   0  0  0  0  0  0  0  0  0  0  0  0
  146.0659  145.2523  159.9720 C   0  0  0  0  0  0  0  0  0  0  0  0
  146.3764  145.3326  162.1145 H   0  0  0  0  0  0  0  0  0  0  0  0
  152.7324  143.7241  157.5241 H   0  0  0  0  0  0  0  0  0  0  0  0
  151.0934  144.2963  157.2298 H   0  0  0  0  0  0  0  0  0  0  0  0
  151.4036  143.1049  158.4920 H   0  0  0  0  0  0  0  0  0  0  0  0
  152.7168  144.8451  159.7954 H   0  0  0  0  0  0  0  0  0  0  0  0
  152.4791  145.9797  158.4882 H   0  0  0  0  0  0  0  0  0  0  0  0
  149.8474  143.7475  159.7137 H   0  0  0  0  0  0  0  0  0  0  0  0
  150.7085  144.2970  161.1456 H   0  0  0  0  0  0  0  0  0  0  0  0
  149.0388  145.8707  161.7291 H   0  0  0  0  0  0  0  0  0  0  0  0
  148.3579  145.9157  160.1076 H   0  0  0  0  0  0  0  0  0  0  0  0
  146.0048  142.5959  160.8701 H   0  0  0  0  0  0  0  0  0  0  0  0
  145.5301  143.1064  162.4892 H   0  0  0  0  0  0  0  0  0  0  0  0
  143.7867  143.0850  160.3408 H   0  0  0  0  0  0  0  0  0  0  0  0
  143.6315  144.2860  161.6317 H   0  0  0  0  0  0  0  0  0  0  0  0
  144.2092  146.9574  156.0518 H   0  0  0  0  0  0  0  0  0  0  0  0
  139.5216  143.9475  159.2804 H   0  0  0  0  0  0  0  0  0  0  0  0
  139.6517  144.8186  155.8269 H   0  0  0  0  0  0  0  0  0  0  0  0
  138.5426  144.7526  157.1739 H   0  0  0  0  0  0  0  0  0  0  0  0
  139.9424  147.3367  156.2748 H   0  0  0  0  0  0  0  0  0  0  0  0
  139.3370  147.1336  158.4442 H   0  0  0  0  0  0  0  0  0  0  0  0
  137.9259  146.3465  154.7424 H   0  0  0  0  0  0  0  0  0  0  0  0
  138.0710  149.2016  155.8065 H   0  0  0  0  0  0  0  0  0  0  0  0
  138.4455  148.6524  154.1699 H   0  0  0  0  0  0  0  0  0  0  0  0
  135.9554  149.6130  155.0281 H   0  0  0  0  0  0  0  0  0  0  0  0
  136.1595  148.5787  153.6125 H   0  0  0  0  0  0  0  0  0  0  0  0
  134.7830  147.8026  155.9937 H   0  0  0  0  0  0  0  0  0  0  0  0
  135.3280  146.7231  154.7044 H   0  0  0  0  0  0  0  0  0  0  0  0
  146.2847  146.3193  159.9171 H   0  0  0  0  0  0  0  0  0  0  0  0
  146.5364  144.7571  159.1213 H   0  0  0  0  0  0  0  0  0  0  0  0
  1  2  1  0  0  0  0
  1 30  1  0  0  0  0
  1 31  1  0  0  0  0
  1 32  1  0  0  0  0
  2  3  1  0  0  0  0
  2 33  1  0  0  0  0
  2 34  1  0  0  0  0
  3  4  1  0  0  0  0
  4  5  1  0  0  0  0
  4 35  1  0  0  0  0
  4 36  1  0  0  0  0
  5  6  1  0  0  0  0
  5 37  1  0  0  0  0
  5 38  1  0  0  0  0
  6  7  1  0  0  0  0
  7 29  1  0  0  0  0
  7 28  1  0  0  0  0
  7  8  1  0  0  0  0
  8  9  1  0  0  0  0
  8 39  1  0  0  0  0
  8 40  1  0  0  0  0
  9 10  1  0  0  0  0
  9 41  1  0  0  0  0
  9 42  1  0  0  0  0
 10 11  1  0  0  0  0
 10 28  1  0  0  0  0
 11 16  1  0  0  0  0
 11 12  2  0  0  0  0
 12 13  1  0  0  0  0
 13 14  2  0  0  0  0
 13 43  1  0  0  0  0
 14 15  1  0  0  0  0
 15 19  1  0  0  0  0
 15 16  2  0  0  0  0
 16 17  1  0  0  0  0
 17 18  2  0  0  0  0
 18 19  1  0  0  0  0
 18 44  1  0  0  0  0
 19 20  1  0  0  0  0
 20 21  1  0  0  0  0
 20 45  1  0  0  0  0
 20 46  1  0  0  0  0
 21 22  1  0  0  0  0
 21 23  1  0  0  0  0
 21 47  1  0  0  0  0
 22 48  1  0  0  0  0
 23 27  1  0  0  0  0
 23 24  1  0  0  0  0
 23 49  1  0  0  0  0
 24 25  1  0  0  0  0
 24 50  1  0  0  0  0
 24 51  1  0  0  0  0
 25 26  1  0  0  0  0
 25 52  1  0  0  0  0
 25 53  1  0  0  0  0
 26 27  1  0  0  0  0
 26 54  1  0  0  0  0
 26 55  1  0  0  0  0
 28 56  1  0  0  0  0
 28 57  1  0  0  0  0
M  END
> <s_m_source_file>
AV-unprocessed.smi

> <i_m_source_file_index>
246

> <i_lp_mmshare_version>
43012

> <i_f3d_flags>
0

> <s_epik_input>
W0NIM11bQ0gyXU9bQ0gyXVtDSDJdT1tDQEhdMVtDSDJdW0NIMl1OKFtDSDJdMSljKG5bY0hdbjIpYyhjMjMpbltjSF1uM1tDSDJdW0NASF0oW09IXSlbQ0BASF00W0NIMl1bQ0gyXVtDSDJdTzQ=

> <s_epik_cmdline>
J2VwaWtfcHl0aG9uJywgJy1waCcsICc3LjAnLCAnLXRuJywgJzgnLCAnLW1hJywgJzIwMCcsICctbWV0YWxfYmluZGluZycsICctaW1hZScsICc8aW5maWxlLm1hZT4nLCAnLW9tYWUnLCAnPG91dGZpbGUubWFlPic=

> <r_lp_tautomer_probability>
1

> <r_epik_Ionization_Penalty>
0.0024631

> <r_epik_Ionization_Penalty_Charging>
0

> <r_epik_Ionization_Penalty_Neutral>
0.0024631

> <r_epik_State_Penalty>
0.00162428

> <r_epik_Charging_Adjusted_Penalty>
0.00162428

> <i_epik_Tot_Q>
0

> <i_epik_Tot_abs_Q>
0

> <r_epik_Metal_State_Penalty>
-0

> <b_epik_Metal_Only>
0

> <s_lp_Force_Field>
OPLS_2005

> <r_lp_Energy>
52.7106

> <b_lp_Chiralities_Consistent>
1

> <s_lp_Variant>
AV-unprocessed.smi:246-2

> <Gold.Version>
5.8.1

> <Gold.Id.Protein>
6NUR|6NUR_protein|mol2

> <Gold.PLP.Fitness>
48.7029

> <Gold.PLP.PLP>
-46.9072

> <Gold.PLP.part.hbond>
-3.7873

> <Gold.PLP.part.metal>
0.0000

> <Gold.PLP.part.buried>
-7.4338

> <Gold.PLP.part.nonpolar>
-36.5573

> <Gold.PLP.part.repulsive>
0.5015

> <Gold.PLP.ligand.clash>
0.0000

> <Gold.PLP.ligand.torsion>
0.7998

> <Gold.PLP.Chemscore.Hbond>
1.0000

> <Gold.PLP.Chemscore.CHOScore>
0.0000

> <Gold.PLP.Chemscore.Metal>
0.0000

> <Gold.Chemscore.Hbonds>
donor molecule, donor type, donor heavy atom, donor atom, acceptor molecule, acceptor atom, score
      P1  H  6933  6944       L1     6  1.00

> <Gold.PLP.Chemscore.Internal.Correction>
0.3954

> <Gold.Rescore>
     Score         DG    S(hbond)    S(metal)    S(lipo)     H(rot)  DE(clash)    DE(int)     intcor
     10.45     -12.23       0.98        0.00      97.63       3.10       0.05       1.73       ----

> <Gold.Chemscore.Fitness>
10.4541

> <Gold.Chemscore.DG>
-12.2259

> <Gold.Chemscore.ZeroCoef>
-5.4800

> <Gold.Chemscore.Hbond>
0.9778

> <Gold.Chemscore.Metal>
0.0000

> <Gold.Chemscore.Lipo>
97.6305

> <Gold.Chemscore.Internal_Hbond>
0.0000

> <Gold.Chemscore.DEClash>
0.0460

> <Gold.Chemscore.DEInternal>
1.7257

> <Gold.Chemscore.Rot>
3.1026

> <Gold.Chemscore.Internal.Correction>
   9.000000E+99

> <Gold.Chemscore.Hbonds>
donor molecule, donor type, donor heavy atom, donor atom, acceptor molecule, acceptor atom, score
      P1  H  6933  6944       L1     6  0.96

> <Gold.Chemscore.Hbond.Weighted>
-3.2657

> <Gold.Chemscore.Metal.Weighted>
-0.0000

> <Gold.Chemscore.Lipo.Weighted>
-11.4228

> <Gold.Chemscore.Internal_Hbond.Weighted>
0.0000

> <Gold.Chemscore.DEClash.Weighted>
0.0460

> <Gold.Chemscore.DEInternal.Weighted>
1.7257

> <Gold.Chemscore.Rot.Weighted>
7.9426

> <Gold.Chemscore.Internal.Correction.Weighted>
   9.000000E+99

> <Gold.Protein.RotatedTorsions>
[ 6907 6896 6895 6894 ] final   12.10 input  -60.11 | X-H torsion
[ 7974 7965 7964 7962 ] final  165.22 input  175.53 | X-H torsion
[ 8008 7997 7996 7995 ] final  179.68 input   59.86 | X-H torsion
[ 10167 10162 10161 10158 ] final  171.16 input  -65.29 | X-H torsion
[ 10718 10713 10712 10709 ] final   52.17 input   66.30 | X-H torsion
[ 10763 10752 10751 10750 ] final   94.51 input  -60.55 | X-H torsion
[ 11005 11000 10999 10996 ] final   20.01 input  -57.11 | X-H torsion

> <Gold.Protein.ActiveResidues>
 VAL166  LYS551  ARG553  GLY616  TRP617  ASP618  TYR619  PRO620  LYS621  CYS622 
 ASP623  PHE694  ASN695  SER759  ASP760  ASP761  ALA762  ILE779  LEU786  VAL792 
 PHE793  MET794  SER795  GLU796  ALA797  LYS798  CYS799  TRP800  GLU811  SER814 

> <Gold.Protein.RotatedAtoms>
  151.7650  135.0801  160.0351 H   0  0  0  0  0  0  0  0  0  0  0  0  # atno 6907 bound_to 6896
  152.3327  133.5973  159.5830 H   0  0  0  0  0  0  0  0  0  0  0  0  # atno 6908 bound_to 6896
  150.7432  133.9758  159.3602 H   0  0  0  0  0  0  0  0  0  0  0  0  # atno 6909 bound_to 6896
  144.7512  139.8439  143.6365 H   0  0  0  0  0  0  0  0  0  0  0  0  # atno 7974 bound_to 7965
  156.0406  140.1302  157.0160 H   0  0  0  0  0  0  0  0  0  0  0  0  # atno 8008 bound_to 7997
  154.4389  140.1031  156.6302 H   0  0  0  0  0  0  0  0  0  0  0  0  # atno 8009 bound_to 7997
  155.5672  140.3466  155.4508 H   0  0  0  0  0  0  0  0  0  0  0  0  # atno 8010 bound_to 7997
  139.5039  144.3516  151.9917 H   0  0  0  0  0  0  0  0  0  0  0  0  # atno 10167 bound_to 10162
  157.5049  130.8462  149.8362 H   0  0  0  0  0  0  0  0  0  0  0  0  # atno 10718 bound_to 10713
  153.2424  135.4287  155.0712 H   0  0  0  0  0  0  0  0  0  0  0  0  # atno 10763 bound_to 10752
  154.8346  135.3406  154.6630 H   0  0  0  0  0  0  0  0  0  0  0  0  # atno 10764 bound_to 10752
  153.7053  135.7026  153.5108 H   0  0  0  0  0  0  0  0  0  0  0  0  # atno 10765 bound_to 10752
  140.4073  134.1655  155.7666 H   0  0  0  0  0  0  0  0  0  0  0  0  # atno 11005 bound_to 11000
  146.1463  139.4534  143.0077 LP  0  0  0  0  0  0  0  0  0  0  0  0  # atno 17320 bound_to 7965
  145.6939  141.0156  143.1540 LP  0  0  0  0  0  0  0  0  0  0  0  0  # atno 17321 bound_to 7965
  140.2953  144.3708  150.6076 LP  0  0  0  0  0  0  0  0  0  0  0  0  # atno 17342 bound_to 10162
  140.5915  143.2168  151.7243 LP  0  0  0  0  0  0  0  0  0  0  0  0  # atno 17343 bound_to 10162
  156.0252  130.3782  150.1844 LP  0  0  0  0  0  0  0  0  0  0  0  0  # atno 17370 bound_to 10713
  157.0033  130.9929  151.3385 LP  0  0  0  0  0  0  0  0  0  0  0  0  # atno 17371 bound_to 10713
  141.1834  133.8365  157.1175 LP  0  0  0  0  0  0  0  0  0  0  0  0  # atno 17394 bound_to 11000
  140.0293  134.9909  157.0748 LP  0  0  0  0  0  0  0  0  0  0  0  0  # atno 17395 bound_to 11000

$$$$
