AV-unprocessed.smi:1808|AV-procd|sdf|7307|dock3
  -GOLD-   22720 8563D 1   1.00000     0.00000
 Structure written by MMmdl.
 27 28  0  0  0  0  0  0  0  0  2 V2000
  151.9138  138.8241  158.5673 O   0  0  0  0  0  0  0  0  0  0  0  0
  152.4665  139.7624  157.9882 C   0  0  0  0  0  0  0  0  0  0  0  0
  153.0174  140.7559  158.7001 N   0  0  0  0  0  0  0  0  0  0  0  0
  153.0466  140.8488  160.1558 C   0  0  0  0  0  0  0  0  0  0  0  0
  153.1822  142.3060  160.6271 C   0  0  2  0  0  0  0  0  0  0  0  0
  152.8685  142.5079  162.1056 C   0  0  0  0  0  0  0  0  0  0  0  0
  152.5665  143.9932  162.1745 C   0  0  0  0  0  0  0  0  0  0  0  0
  152.0809  144.3309  160.7610 C   0  0  0  0  0  0  0  0  0  0  0  0
  152.2134  143.1340  160.0019 O   0  0  0  0  0  0  0  0  0  0  0  0
  152.5933  139.9153  156.6504 N   0  5  0  0  0  0  0  0  0  0  0  0
  151.7879  139.2363  155.8173 C   0  0  0  0  0  0  0  0  0  0  0  0
  151.0804  139.8241  154.8455 N   0  0  0  0  0  0  0  0  0  0  0  0
  150.3160  138.9283  154.0957 C   0  0  0  0  0  0  0  0  0  0  0  0
  150.4508  137.6267  154.5003 C   0  0  0  0  0  0  0  0  0  0  0  0
  151.5486  137.4867  155.8436 S   0  0  0  0  0  0  0  0  0  0  0  0
  153.4625  141.5025  158.1868 H   0  0  0  0  0  0  0  0  0  0  0  0
  152.1288  140.4103  160.5481 H   0  0  0  0  0  0  0  0  0  0  0  0
  153.8684  140.2465  160.5463 H   0  0  0  0  0  0  0  0  0  0  0  0
  154.1789  142.6949  160.4099 H   0  0  0  0  0  0  0  0  0  0  0  0
  151.9823  141.9369  162.3861 H   0  0  0  0  0  0  0  0  0  0  0  0
  153.6885  142.2081  162.7586 H   0  0  0  0  0  0  0  0  0  0  0  0
  151.8269  144.2275  162.9404 H   0  0  0  0  0  0  0  0  0  0  0  0
  153.4746  144.5537  162.3997 H   0  0  0  0  0  0  0  0  0  0  0  0
  151.0426  144.6630  160.7523 H   0  0  0  0  0  0  0  0  0  0  0  0
  152.6928  145.1184  160.3196 H   0  0  0  0  0  0  0  0  0  0  0  0
  149.7049  139.3053  153.2894 H   0  0  0  0  0  0  0  0  0  0  0  0
  149.9762  136.7469  154.0930 H   0  0  0  0  0  0  0  0  0  0  0  0
  1  2  2  0  0  0  0
  2  3  1  0  0  0  0
  2 10  1  0  0  0  0
  3  4  1  0  0  0  0
  3 16  1  0  0  0  0
  4  5  1  0  0  0  0
  4 17  1  0  0  0  0
  4 18  1  0  0  0  0
  5  9  1  0  0  0  0
  5  6  1  0  0  0  0
  5 19  1  0  0  0  0
  6  7  1  0  0  0  0
  6 20  1  0  0  0  0
  6 21  1  0  0  0  0
  7  8  1  0  0  0  0
  7 22  1  0  0  0  0
  7 23  1  0  0  0  0
  8  9  1  0  0  0  0
  8 24  1  0  0  0  0
  8 25  1  0  0  0  0
 10 11  1  0  0  0  0
 11 15  1  0  0  0  0
 11 12  2  0  0  0  0
 12 13  1  0  0  0  0
 13 14  2  0  0  0  0
 13 26  1  0  0  0  0
 14 15  1  0  0  0  0
 14 27  1  0  0  0  0
M  CHG  1  10  -1
M  END
> <s_m_source_file>
AV-unprocessed.smi

> <i_m_source_file_index>
1808

> <i_lp_mmshare_version>
43012

> <i_f3d_flags>
0

> <s_epik_input>
czFbY0hdW2NIXW5jMVtOSF1DKD1PKVtOSF1bQ0gyXVtDQEBIXTJbQ0gyXVtDSDJdW0NIMl1PMg==

> <s_epik_cmdline>
J2VwaWtfcHl0aG9uJywgJy1waCcsICc3LjAnLCAnLXRuJywgJzgnLCAnLW1hJywgJzIwMCcsICctbWV0YWxfYmluZGluZycsICctaW1hZScsICc8aW5maWxlLm1hZT4nLCAnLW9tYWUnLCAnPG91dGZpbGUubWFlPic=

> <r_lp_tautomer_probability>
0.999

> <r_epik_Ionization_Penalty>
8.26346

> <r_epik_Ionization_Penalty_Charging>
6.6559

> <r_epik_Ionization_Penalty_Neutral>
1.60756

> <r_epik_State_Penalty>
6.65607

> <r_epik_Charging_Adjusted_Penalty>
13.312

> <i_epik_Tot_Q>
-1

> <i_epik_Tot_abs_Q>
1

> <r_epik_Metal_State_Penalty>
2.5789

> <b_epik_Metal_Only>
1

> <s_lp_Force_Field>
OPLS_2005

> <r_lp_Energy>
12.338

> <b_lp_Chiralities_Consistent>
1

> <s_lp_Variant>
AV-unprocessed.smi:1808-3

> <Gold.Version>
5.8.1

> <Gold.Id.Protein>
6NUR|6NUR_protein|mol2

> <Gold.PLP.Fitness>
45.6263

> <Gold.PLP.PLP>
-32.1398

> <Gold.PLP.part.hbond>
-2.0000

> <Gold.PLP.part.metal>
0.0000

> <Gold.PLP.part.buried>
-2.7233

> <Gold.PLP.part.nonpolar>
-26.9428

> <Gold.PLP.part.repulsive>
0.1602

> <Gold.PLP.ligand.clash>
0.0000

> <Gold.PLP.ligand.torsion>
0.8006

> <Gold.PLP.Chemscore.Hbond>
3.0000

> <Gold.PLP.Chemscore.CHOScore>
2.0190

> <Gold.PLP.Chemscore.Metal>
0.0000

> <Gold.Chemscore.Hbonds>
donor molecule, donor type, donor heavy atom, donor atom, acceptor molecule, acceptor atom, score
      P1  H  7989  7998       L1    12  0.90
      P1  H  7997  8009       L1    10  2.00
      L1  C    13    26       P1  7957  1.00
      L1  C    14    27       P1  7948  1.00

> <Gold.PLP.Chemscore.Internal.Correction>
0.0309

> <Gold.Rescore>
     Score         DG    S(hbond)    S(metal)    S(lipo)     H(rot)  DE(clash)    DE(int)     intcor
     13.60     -15.21       1.20        0.00      77.27       1.30       0.08       1.54       ----

> <Gold.Chemscore.Fitness>
13.5978

> <Gold.Chemscore.DG>
-15.2146

> <Gold.Chemscore.ZeroCoef>
-5.4800

> <Gold.Chemscore.Hbond>
1.2042

> <Gold.Chemscore.Metal>
0.0000

> <Gold.Chemscore.Lipo>
77.2692

> <Gold.Chemscore.Internal_Hbond>
0.0000

> <Gold.Chemscore.DEClash>
0.0807

> <Gold.Chemscore.DEInternal>
1.5360

> <Gold.Chemscore.Rot>
1.3000

> <Gold.Chemscore.Internal.Correction>
   9.000000E+99

> <Gold.Chemscore.Hbonds>
donor molecule, donor type, donor heavy atom, donor atom, acceptor molecule, acceptor atom, score
      P1  H  7989  7998       L1    12  0.18
      P1  H  7997  8009       L1    10  0.44

> <Gold.Chemscore.Hbond.Weighted>
-4.0221

> <Gold.Chemscore.Metal.Weighted>
-0.0000

> <Gold.Chemscore.Lipo.Weighted>
-9.0405

> <Gold.Chemscore.Internal_Hbond.Weighted>
0.0000

> <Gold.Chemscore.DEClash.Weighted>
0.0807

> <Gold.Chemscore.DEInternal.Weighted>
1.5360

> <Gold.Chemscore.Rot.Weighted>
3.3280

> <Gold.Chemscore.Internal.Correction.Weighted>
   9.000000E+99

> <Gold.Protein.RotatedTorsions>
[ 6907 6896 6895 6894 ] final -148.13 input  -60.11 | X-H torsion
[ 7974 7965 7964 7962 ] final -153.97 input  175.53 | X-H torsion
[ 8008 7997 7996 7995 ] final -164.99 input   59.86 | X-H torsion
[ 10167 10162 10161 10158 ] final  -74.46 input  -65.29 | X-H torsion
[ 10718 10713 10712 10709 ] final   93.20 input   66.30 | X-H torsion
[ 10763 10752 10751 10750 ] final  176.14 input  -60.55 | X-H torsion
[ 11005 11000 10999 10996 ] final  125.48 input  -57.11 | X-H torsion

> <Gold.Protein.ActiveResidues>
 VAL166  LYS551  ARG553  GLY616  TRP617  ASP618  TYR619  PRO620  LYS621  CYS622 
 ASP623  PHE694  ASN695  SER759  ASP760  ASP761  ALA762  ILE779  LEU786  VAL792 
 PHE793  MET794  SER795  GLU796  ALA797  LYS798  CYS799  TRP800  GLU811  SER814 

> <Gold.Protein.RotatedAtoms>
  151.1655  133.4818  159.2593 H   0  0  0  0  0  0  0  0  0  0  0  0  # atno 6907 bound_to 6896
  151.1410  135.0179  159.8636 H   0  0  0  0  0  0  0  0  0  0  0  0  # atno 6908 bound_to 6896
  152.5462  134.1548  159.8586 H   0  0  0  0  0  0  0  0  0  0  0  0  # atno 6909 bound_to 6896
  144.7713  140.4453  143.5905 H   0  0  0  0  0  0  0  0  0  0  0  0  # atno 7974 bound_to 7965
  155.8435  140.0952  157.1720 H   0  0  0  0  0  0  0  0  0  0  0  0  # atno 8008 bound_to 7997
  154.3982  140.1396  156.3818 H   0  0  0  0  0  0  0  0  0  0  0  0  # atno 8009 bound_to 7997
  155.8039  140.3452  155.5421 H   0  0  0  0  0  0  0  0  0  0  0  0  # atno 8010 bound_to 7997
  140.5025  143.2358  151.7729 H   0  0  0  0  0  0  0  0  0  0  0  0  # atno 10167 bound_to 10162
  157.6955  131.0470  150.3997 H   0  0  0  0  0  0  0  0  0  0  0  0  # atno 10718 bound_to 10713
  154.4771  135.2773  155.1599 H   0  0  0  0  0  0  0  0  0  0  0  0  # atno 10763 bound_to 10752
  154.3325  135.6187  153.5561 H   0  0  0  0  0  0  0  0  0  0  0  0  # atno 10764 bound_to 10752
  152.9871  135.5769  154.5163 H   0  0  0  0  0  0  0  0  0  0  0  0  # atno 10765 bound_to 10752
  139.9409  134.9635  156.8565 H   0  0  0  0  0  0  0  0  0  0  0  0  # atno 11005 bound_to 11000
  145.6315  139.1537  143.2966 LP  0  0  0  0  0  0  0  0  0  0  0  0  # atno 17320 bound_to 7965
  146.1862  140.6418  142.9166 LP  0  0  0  0  0  0  0  0  0  0  0  0  # atno 17321 bound_to 7965
  139.4875  144.4503  151.9662 LP  0  0  0  0  0  0  0  0  0  0  0  0  # atno 17342 bound_to 10162
  140.3592  144.2994  150.5936 LP  0  0  0  0  0  0  0  0  0  0  0  0  # atno 17343 bound_to 10162
  156.4392  130.3988  149.6709 LP  0  0  0  0  0  0  0  0  0  0  0  0  # atno 17370 bound_to 10713
  156.3898  130.7621  151.2621 LP  0  0  0  0  0  0  0  0  0  0  0  0  # atno 17371 bound_to 10713
  140.5955  134.0221  155.7516 LP  0  0  0  0  0  0  0  0  0  0  0  0  # atno 17394 bound_to 11000
  141.1042  133.9720  157.3026 LP  0  0  0  0  0  0  0  0  0  0  0  0  # atno 17395 bound_to 11000

$$$$
