AV-unprocessed.smi:50|AV-procd|sdf|496|dock2
  -GOLD-   2262016363D 1   1.00000     0.00000
 Structure written by MMmdl.
 43 44  0  0  0  0  0  0  0  0  3 V2000
  143.7764  132.3372  150.3677 C   0  0  0  0  0  0  0  0  0  0  0  0
  144.6681  132.3564  151.6250 C   0  0  0  0  0  0  0  0  0  0  0  0
  145.4745  133.6682  151.6581 C   0  0  0  0  0  0  0  0  0  0  0  0
  145.5863  131.1063  151.7130 C   0  0  1  0  0  0  0  0  0  0  0  0
  146.4959  131.0103  150.5559 N   0  3  0  0  0  0  0  0  0  0  0  0
  146.4926  131.0822  152.9541 C   0  0  0  0  0  0  0  0  0  0  0  0
  146.3992  130.2658  153.8721 O   0  0  0  0  0  0  0  0  0  0  0  0
  147.3678  132.1009  152.9099 O   0  0  0  0  0  0  0  0  0  0  0  0
  148.4327  132.1530  153.8458 C   0  0  0  0  0  0  0  0  0  0  0  0
  148.1080  133.1773  154.9367 C   0  0  0  0  0  0  0  0  0  0  0  0
  148.6993  134.4180  154.5882 O   0  0  0  0  0  0  0  0  0  0  0  0
  148.6363  135.3547  155.6132 C   0  0  0  0  0  0  0  0  0  0  0  0
  149.9049  136.0596  155.6764 N   0  0  0  0  0  0  0  0  0  0  0  0
  151.0765  135.6077  156.1685 C   0  0  0  0  0  0  0  0  0  0  0  0
  152.0911  136.4693  156.1124 N   0  0  0  0  0  0  0  0  0  0  0  0
  151.4945  137.5832  155.5330 C   0  0  0  0  0  0  0  0  0  0  0  0
  152.0318  138.9205  155.1829 C   0  0  0  0  0  0  0  0  0  0  0  0
  153.2166  139.1664  155.4020 O   0  0  0  0  0  0  0  0  0  0  0  0
  151.1313  139.7898  154.6309 N   0  5  0  0  0  0  0  0  0  0  0  0
  149.8004  139.3990  154.4263 C   0  0  0  0  0  0  0  0  0  0  0  0
  149.0306  140.3974  153.8704 N   0  0  0  0  0  0  0  0  0  0  0  0
  149.2607  138.2375  154.7041 N   0  0  0  0  0  0  0  0  0  0  0  0
  150.1712  137.3598  155.2636 C   0  0  0  0  0  0  0  0  0  0  0  0
  144.9606  130.2129  151.7129 H   0  0  0  0  0  0  0  0  0  0  0  0
  144.3777  132.3089  149.4585 H   0  0  0  0  0  0  0  0  0  0  0  0
  143.1481  133.2271  150.3193 H   0  0  0  0  0  0  0  0  0  0  0  0
  143.1078  131.4767  150.3491 H   0  0  0  0  0  0  0  0  0  0  0  0
  144.0092  132.3658  152.4951 H   0  0  0  0  0  0  0  0  0  0  0  0
  146.1895  133.7135  150.8358 H   0  0  0  0  0  0  0  0  0  0  0  0
  146.0279  133.7836  152.5899 H   0  0  0  0  0  0  0  0  0  0  0  0
  144.8169  134.5340  151.5714 H   0  0  0  0  0  0  0  0  0  0  0  0
  146.4618  131.8736  150.0326 H   0  0  0  0  0  0  0  0  0  0  0  0
  146.2046  130.2458  149.9637 H   0  0  0  0  0  0  0  0  0  0  0  0
  148.5580  131.1657  154.2920 H   0  0  0  0  0  0  0  0  0  0  0  0
  149.3707  132.4113  153.3517 H   0  0  0  0  0  0  0  0  0  0  0  0
  147.0293  133.2794  155.0653 H   0  0  0  0  0  0  0  0  0  0  0  0
  148.5211  132.8312  155.8852 H   0  0  0  0  0  0  0  0  0  0  0  0
  147.8426  136.0778  155.4179 H   0  0  0  0  0  0  0  0  0  0  0  0
  148.4631  134.8677  156.5736 H   0  0  0  0  0  0  0  0  0  0  0  0
  151.1906  134.6159  156.5802 H   0  0  0  0  0  0  0  0  0  0  0  0
  149.3871  141.3119  153.6358 H   0  0  0  0  0  0  0  0  0  0  0  0
  148.0523  140.2804  153.6508 H   0  0  0  0  0  0  0  0  0  0  0  0
  147.4385  130.8474  150.8797 H   0  0  0  0  0  0  0  0  0  0  0  0
  1  2  1  0  0  0  0
  1 25  1  0  0  0  0
  1 26  1  0  0  0  0
  1 27  1  0  0  0  0
  2  3  1  0  0  0  0
  2  4  1  0  0  0  0
  2 28  1  0  0  0  0
  3 29  1  0  0  0  0
  3 30  1  0  0  0  0
  3 31  1  0  0  0  0
  4 24  1  0  0  0  0
  4  5  1  0  0  0  0
  4  6  1  0  0  0  0
  5 32  1  0  0  0  0
  5 33  1  0  0  0  0
  5 43  1  0  0  0  0
  6  7  2  0  0  0  0
  6  8  1  0  0  0  0
  8  9  1  0  0  0  0
  9 10  1  0  0  0  0
  9 34  1  0  0  0  0
  9 35  1  0  0  0  0
 10 11  1  0  0  0  0
 10 36  1  0  0  0  0
 10 37  1  0  0  0  0
 11 12  1  0  0  0  0
 12 13  1  0  0  0  0
 12 38  1  0  0  0  0
 12 39  1  0  0  0  0
 13 23  1  0  0  0  0
 13 14  1  0  0  0  0
 14 15  2  0  0  0  0
 14 40  1  0  0  0  0
 15 16  1  0  0  0  0
 16 23  2  0  0  0  0
 16 17  1  0  0  0  0
 17 18  2  0  0  0  0
 17 19  1  0  0  0  0
 19 20  1  0  0  0  0
 20 21  1  0  0  0  0
 20 22  2  0  0  0  0
 21 41  1  0  0  0  0
 21 42  1  0  0  0  0
 22 23  1  0  0  0  0
M  CHG  1   5   1
M  CHG  1  19  -1
M  END
> <s_m_source_file>
AV-unprocessed.smi

> <i_m_source_file_index>
50

> <i_lp_mmshare_version>
43012

> <i_f3d_flags>
0

> <s_epik_input>
W0NIM11bQ0hdKFtDSDNdKVtDQEhdKFtOSDJdKUMoPU8pT1tDSDJdW0NIMl1PW0NIMl1uKFtjSF1uMSljKGMxMiluYyhbTkgyXSlbbkhdYzI9Tw==

> <s_epik_cmdline>
J2VwaWtfcHl0aG9uJywgJy1waCcsICc3LjAnLCAnLXRuJywgJzgnLCAnLW1hJywgJzIwMCcsICctbWV0YWxfYmluZGluZycsICctaW1hZScsICc8aW5maWxlLm1hZT4nLCAnLW9tYWUnLCAnPG91dGZpbGUubWFlPic=

> <r_lp_tautomer_probability>
0.99994

> <r_epik_Ionization_Penalty>
3.77459

> <r_epik_Ionization_Penalty_Charging>
0.215994

> <r_epik_Ionization_Penalty_Neutral>
3.5586

> <r_epik_State_Penalty>
3.75449

> <r_epik_Charging_Adjusted_Penalty>
3.97048

> <i_epik_Tot_Q>
0

> <i_epik_Tot_abs_Q>
2

> <r_epik_Metal_State_Penalty>
0.723824

> <b_epik_Metal_Only>
1

> <s_epik_Chemistry_Notes>
This compound has an ester and may undergo hydrolysis at high or low pH. This compound contains an acetal/aminal-like group ( X-CH(R)-Y where X, Y are N, S, or O) that may be acid/base labile, releasing an aldehyde.

> <s_lp_Force_Field>
OPLS_2005

> <r_lp_Energy>
22.4326

> <b_lp_Chiralities_Consistent>
1

> <s_lp_Variant>
AV-unprocessed.smi:50-6

> <Gold.Version>
5.8.1

> <Gold.Id.Protein>
6NUR|6NUR_protein|mol2

> <Gold.PLP.Fitness>
46.4037

> <Gold.PLP.PLP>
-36.5563

> <Gold.PLP.part.hbond>
-4.8596

> <Gold.PLP.part.metal>
0.0000

> <Gold.PLP.part.buried>
-9.1718

> <Gold.PLP.part.nonpolar>
-24.9518

> <Gold.PLP.part.repulsive>
1.6233

> <Gold.PLP.ligand.clash>
0.0000

> <Gold.PLP.ligand.torsion>
1.1814

> <Gold.PLP.Chemscore.Hbond>
4.0000

> <Gold.PLP.Chemscore.CHOScore>
0.0000

> <Gold.PLP.Chemscore.Metal>
0.0000

> <Gold.Chemscore.Hbonds>
donor molecule, donor type, donor heavy atom, donor atom, acceptor molecule, acceptor atom, score
      L1  H     5    43       P1 10747  0.77
      P1  H  7989  7998       L1    19  1.00
      P1  H  7997  8008       L1    18  1.00
      P1  H 10752 10763       L1    15  0.95

> <Gold.PLP.Chemscore.Internal.Correction>
0.2101

> <Gold.Rescore>
     Score         DG    S(hbond)    S(metal)    S(lipo)     H(rot)  DE(clash)    DE(int)     intcor
      5.66      -8.59       2.94        0.00      48.43       4.83       0.36       2.57       ----

> <Gold.Chemscore.Fitness>
5.6593

> <Gold.Chemscore.DG>
-8.5905

> <Gold.Chemscore.ZeroCoef>
-5.4800

> <Gold.Chemscore.Hbond>
2.9379

> <Gold.Chemscore.Metal>
0.0000

> <Gold.Chemscore.Lipo>
48.4258

> <Gold.Chemscore.Internal_Hbond>
0.0000

> <Gold.Chemscore.DEClash>
0.3585

> <Gold.Chemscore.DEInternal>
2.5727

> <Gold.Chemscore.Rot>
4.8312

> <Gold.Chemscore.Internal.Correction>
   9.000000E+99

> <Gold.Chemscore.Hbonds>
donor molecule, donor type, donor heavy atom, donor atom, acceptor molecule, acceptor atom, score
      L1  H     5    43       P1 10747  0.76
      P1  H  7989  7998       L1    19  0.79
      P1  H  7997  8008       L1    18  1.00
      P1  H 10752 10763       L1    15  0.21

> <Gold.Chemscore.Hbond.Weighted>
-9.8126

> <Gold.Chemscore.Metal.Weighted>
-0.0000

> <Gold.Chemscore.Lipo.Weighted>
-5.6658

> <Gold.Chemscore.Internal_Hbond.Weighted>
0.0000

> <Gold.Chemscore.DEClash.Weighted>
0.3585

> <Gold.Chemscore.DEInternal.Weighted>
2.5727

> <Gold.Chemscore.Rot.Weighted>
12.3678

> <Gold.Chemscore.Internal.Correction.Weighted>
   9.000000E+99

> <Gold.Protein.RotatedTorsions>
[ 6907 6896 6895 6894 ] final -153.19 input  -60.11 | X-H torsion
[ 7974 7965 7964 7962 ] final   84.20 input  175.53 | X-H torsion
[ 8008 7997 7996 7995 ] final  -20.16 input   59.86 | X-H torsion
[ 10167 10162 10161 10158 ] final   30.15 input  -65.29 | X-H torsion
[ 10718 10713 10712 10709 ] final   88.27 input   66.30 | X-H torsion
[ 10763 10752 10751 10750 ] final  103.96 input  -60.55 | X-H torsion
[ 11005 11000 10999 10996 ] final  126.65 input  -57.11 | X-H torsion

> <Gold.Protein.ActiveResidues>
 VAL166  LYS551  ARG553  GLY616  TRP617  ASP618  TYR619  PRO620  LYS621  CYS622 
 ASP623  PHE694  ASN695  SER759  ASP760  ASP761  ALA762  ILE779  LEU786  VAL792 
 PHE793  MET794  SER795  GLU796  ALA797  LYS798  CYS799  TRP800  GLU811  SER814 

> <Gold.Protein.RotatedAtoms>
  151.2389  133.4410  159.2606 H   0  0  0  0  0  0  0  0  0  0  0  0  # atno 6907 bound_to 6896
  151.0724  134.9807  159.8325 H   0  0  0  0  0  0  0  0  0  0  0  0  # atno 6908 bound_to 6896
  152.5414  134.2334  159.8886 H   0  0  0  0  0  0  0  0  0  0  0  0  # atno 6909 bound_to 6896
  145.6019  139.2354  143.2241 H   0  0  0  0  0  0  0  0  0  0  0  0  # atno 7974 bound_to 7965
  154.4788  140.2069  155.9813 H   0  0  0  0  0  0  0  0  0  0  0  0  # atno 8008 bound_to 7997
  156.1132  140.3225  155.8072 H   0  0  0  0  0  0  0  0  0  0  0  0  # atno 8009 bound_to 7997
  155.4598  140.0523  157.2983 H   0  0  0  0  0  0  0  0  0  0  0  0  # atno 8010 bound_to 7997
  140.4703  144.0772  150.6235 H   0  0  0  0  0  0  0  0  0  0  0  0  # atno 10167 bound_to 10162
  157.6947  131.0288  150.3248 H   0  0  0  0  0  0  0  0  0  0  0  0  # atno 10718 bound_to 10713
  153.3596  135.3959  155.1708 H   0  0  0  0  0  0  0  0  0  0  0  0  # atno 10763 bound_to 10752
  154.8677  135.3676  154.5116 H   0  0  0  0  0  0  0  0  0  0  0  0  # atno 10764 bound_to 10752
  153.5574  135.7082  153.5623 H   0  0  0  0  0  0  0  0  0  0  0  0  # atno 10765 bound_to 10752
  139.9467  134.9628  156.8737 H   0  0  0  0  0  0  0  0  0  0  0  0  # atno 11005 bound_to 11000
  146.1569  140.6844  142.9295 LP  0  0  0  0  0  0  0  0  0  0  0  0  # atno 17320 bound_to 7965
  144.7306  140.4660  143.6940 LP  0  0  0  0  0  0  0  0  0  0  0  0  # atno 17321 bound_to 7965
  140.3985  143.2716  151.9976 LP  0  0  0  0  0  0  0  0  0  0  0  0  # atno 17342 bound_to 10162
  139.4817  144.6017  151.7593 LP  0  0  0  0  0  0  0  0  0  0  0  0  # atno 17343 bound_to 10162
  156.3731  130.3867  149.7160 LP  0  0  0  0  0  0  0  0  0  0  0  0  # atno 17370 bound_to 10713
  156.4568  130.7933  151.2953 LP  0  0  0  0  0  0  0  0  0  0  0  0  # atno 17371 bound_to 10713
  140.5818  134.0345  155.7467 LP  0  0  0  0  0  0  0  0  0  0  0  0  # atno 17394 bound_to 11000
  141.1119  133.9603  157.2895 LP  0  0  0  0  0  0  0  0  0  0  0  0  # atno 17395 bound_to 11000

$$$$
