AV-unprocessed.smi:2790|AV-procd|sdf|10769|dock2
  -GOLD-   2272015203D 1   1.00000     0.00000
 Structure written by MMmdl.
 45 46  0  0  0  0  0  0  0  0  3 V2000
  146.4285  134.4470  152.9864 C   0  0  0  0  0  0  0  0  0  0  0  0
  147.7101  134.6203  153.7022 N   0  3  0  0  0  0  0  0  0  0  0  0
  148.5623  133.4116  153.6132 C   0  0  0  0  0  0  0  0  0  0  0  0
  147.5214  135.1069  155.0928 C   0  0  0  0  0  0  0  0  0  0  0  0
  147.1123  136.5835  155.0903 C   0  0  0  0  0  0  0  0  0  0  0  0
  146.0029  136.8846  154.6400 O   0  0  0  0  0  0  0  0  0  0  0  0
  148.0914  137.3581  155.6332 N   0  5  0  0  0  0  0  0  0  0  0  0
  147.9005  138.7531  156.0383 C   0  0  0  0  0  0  0  0  0  0  0  0
  148.7559  139.7396  155.1483 C   0  0  0  0  0  0  0  0  0  0  0  0
  150.2700  139.4858  155.4109 C   0  0  0  0  0  0  0  0  0  0  0  0
  150.8522  139.7298  156.6833 C   0  0  0  0  0  0  0  0  0  0  0  0
  152.2226  139.4743  156.8825 C   0  0  0  0  0  0  0  0  0  0  0  0
  153.0383  139.0045  155.9175 N   0  0  0  0  0  0  0  0  0  0  0  0
  152.4987  138.7735  154.7046 C   0  0  0  0  0  0  0  0  0  0  0  0
  151.1397  138.9881  154.4041 C   0  0  0  0  0  0  0  0  0  0  0  0
  148.4285  139.5809  153.6168 C   0  0  0  0  0  0  0  0  0  0  0  0
  147.0642  140.1323  153.1480 C   0  0  0  0  0  0  0  0  0  0  0  0
  146.9021  141.6066  153.5256 C   0  0  0  0  0  0  0  0  0  0  0  0
  147.0886  141.7947  155.0331 C   0  0  0  0  0  0  0  0  0  0  0  0
  148.4483  141.2370  155.5118 C   0  0  0  0  0  0  0  0  0  0  0  0
  145.8131  133.6840  153.4649 H   0  0  0  0  0  0  0  0  0  0  0  0
  146.6027  134.1499  151.9518 H   0  0  0  0  0  0  0  0  0  0  0  0
  145.8679  135.3824  152.9702 H   0  0  0  0  0  0  0  0  0  0  0  0
  148.1087  132.5728  154.1422 H   0  0  0  0  0  0  0  0  0  0  0  0
  149.5498  133.5924  154.0388 H   0  0  0  0  0  0  0  0  0  0  0  0
  148.7058  133.1202  152.5726 H   0  0  0  0  0  0  0  0  0  0  0  0
  146.7356  134.5370  155.5920 H   0  0  0  0  0  0  0  0  0  0  0  0
  148.4318  134.9577  155.6757 H   0  0  0  0  0  0  0  0  0  0  0  0
  146.8486  139.0303  155.9748 H   0  0  0  0  0  0  0  0  0  0  0  0
  148.1685  138.9164  157.0833 H   0  0  0  0  0  0  0  0  0  0  0  0
  150.2633  140.0902  157.5127 H   0  0  0  0  0  0  0  0  0  0  0  0
  152.6746  139.6484  157.8477 H   0  0  0  0  0  0  0  0  0  0  0  0
  153.1690  138.3912  153.9492 H   0  0  0  0  0  0  0  0  0  0  0  0
  150.7928  138.7560  153.4098 H   0  0  0  0  0  0  0  0  0  0  0  0
  149.1826  140.1284  153.0491 H   0  0  0  0  0  0  0  0  0  0  0  0
  148.5153  138.5451  153.2831 H   0  0  0  0  0  0  0  0  0  0  0  0
  146.9800  140.0229  152.0664 H   0  0  0  0  0  0  0  0  0  0  0  0
  146.2466  139.5479  153.5711 H   0  0  0  0  0  0  0  0  0  0  0  0
  147.6351  142.2078  152.9861 H   0  0  0  0  0  0  0  0  0  0  0  0
  145.9189  141.9662  153.2214 H   0  0  0  0  0  0  0  0  0  0  0  0
  147.0246  142.8554  155.2773 H   0  0  0  0  0  0  0  0  0  0  0  0
  146.2687  141.3154  155.5689 H   0  0  0  0  0  0  0  0  0  0  0  0
  148.5348  141.4274  156.5828 H   0  0  0  0  0  0  0  0  0  0  0  0
  149.2181  141.8597  155.0525 H   0  0  0  0  0  0  0  0  0  0  0  0
  148.2040  135.3625  153.2257 H   0  0  0  0  0  0  0  0  0  0  0  0
  1  2  1  0  0  0  0
  1 21  1  0  0  0  0
  1 22  1  0  0  0  0
  1 23  1  0  0  0  0
  2  3  1  0  0  0  0
  2  4  1  0  0  0  0
  2 45  1  0  0  0  0
  3 24  1  0  0  0  0
  3 25  1  0  0  0  0
  3 26  1  0  0  0  0
  4  5  1  0  0  0  0
  4 27  1  0  0  0  0
  4 28  1  0  0  0  0
  5  6  2  0  0  0  0
  5  7  1  0  0  0  0
  7  8  1  0  0  0  0
  8  9  1  0  0  0  0
  8 29  1  0  0  0  0
  8 30  1  0  0  0  0
  9 20  1  0  0  0  0
  9 10  1  0  0  0  0
  9 16  1  0  0  0  0
 10 15  1  0  0  0  0
 10 11  2  0  0  0  0
 11 12  1  0  0  0  0
 11 31  1  0  0  0  0
 12 13  2  0  0  0  0
 12 32  1  0  0  0  0
 13 14  1  0  0  0  0
 14 15  2  0  0  0  0
 14 33  1  0  0  0  0
 15 34  1  0  0  0  0
 16 17  1  0  0  0  0
 16 35  1  0  0  0  0
 16 36  1  0  0  0  0
 17 18  1  0  0  0  0
 17 37  1  0  0  0  0
 17 38  1  0  0  0  0
 18 19  1  0  0  0  0
 18 39  1  0  0  0  0
 18 40  1  0  0  0  0
 19 20  1  0  0  0  0
 19 41  1  0  0  0  0
 19 42  1  0  0  0  0
 20 43  1  0  0  0  0
 20 44  1  0  0  0  0
M  CHG  1   2   1
M  CHG  1   7  -1
M  END
> <s_m_source_file>
AV-unprocessed.smi

> <i_m_source_file_index>
2790

> <i_lp_mmshare_version>
43012

> <i_f3d_flags>
0

> <s_epik_input>
W0NIM11OKFtDSDNdKVtDSDJdQyg9TylbTkhdW0NIMl1DMShbQ0gyXVtDSDJdW0NIMl1bQ0gyXVtDSDJdMSljMltjSF1bY0hdbltjSF1bY0hdMg==

> <s_epik_cmdline>
J2VwaWtfcHl0aG9uJywgJy1waCcsICc3LjAnLCAnLXRuJywgJzgnLCAnLW1hJywgJzIwMCcsICctbWV0YWxfYmluZGluZycsICctaW1hZScsICc8aW5maWxlLm1hZT4nLCAnLW9tYWUnLCAnPG91dGZpbGUubWFlPic=

> <r_epik_Ionization_Penalty>
6.38592

> <r_epik_Ionization_Penalty_Charging>
6.21784

> <r_epik_Ionization_Penalty_Neutral>
0.168075

> <r_epik_State_Penalty>
6.29446

> <r_epik_Charging_Adjusted_Penalty>
12.5123

> <i_epik_Tot_Q>
0

> <i_epik_Tot_abs_Q>
2

> <r_epik_Metal_State_Penalty>
2.27801

> <b_epik_Metal_Only>
1

> <s_lp_Force_Field>
OPLS_2005

> <r_lp_Energy>
25.1562

> <b_lp_Chiralities_Consistent>
1

> <s_lp_Variant>
AV-unprocessed.smi:2790-4

> <Gold.Version>
5.8.1

> <Gold.Id.Protein>
6NUR|6NUR_protein|mol2

> <Gold.PLP.Fitness>
35.4428

> <Gold.PLP.PLP>
-27.0867

> <Gold.PLP.part.hbond>
-2.0000

> <Gold.PLP.part.metal>
0.0000

> <Gold.PLP.part.buried>
0.1381

> <Gold.PLP.part.nonpolar>
-24.7095

> <Gold.PLP.part.repulsive>
0.1035

> <Gold.PLP.ligand.clash>
0.0000

> <Gold.PLP.ligand.torsion>
0.3813

> <Gold.PLP.Chemscore.Hbond>
3.0000

> <Gold.PLP.Chemscore.CHOScore>
0.0000

> <Gold.PLP.Chemscore.Metal>
0.0000

> <Gold.Chemscore.Hbonds>
donor molecule, donor type, donor heavy atom, donor atom, acceptor molecule, acceptor atom, score
      L1  H     2    45       P1  7948  2.00
      P1  H  7997  8008       L1    13  0.95

> <Gold.PLP.Chemscore.Internal.Correction>
0.1188

> <Gold.Rescore>
     Score         DG    S(hbond)    S(metal)    S(lipo)     H(rot)  DE(clash)    DE(int)     intcor
     14.93     -16.66       1.77        0.00      79.84       1.59       1.27       0.46       ----

> <Gold.Chemscore.Fitness>
14.9333

> <Gold.Chemscore.DG>
-16.6578

> <Gold.Chemscore.ZeroCoef>
-5.4800

> <Gold.Chemscore.Hbond>
1.7714

> <Gold.Chemscore.Metal>
0.0000

> <Gold.Chemscore.Lipo>
79.8413

> <Gold.Chemscore.Internal_Hbond>
0.0000

> <Gold.Chemscore.DEClash>
1.2650

> <Gold.Chemscore.DEInternal>
0.4594

> <Gold.Chemscore.Rot>
1.5938

> <Gold.Chemscore.Internal.Correction>
   9.000000E+99

> <Gold.Chemscore.Hbonds>
donor molecule, donor type, donor heavy atom, donor atom, acceptor molecule, acceptor atom, score
      L1  H     2    45       P1  7948  0.98
      P1  H  7997  8008       L1    13  0.21

> <Gold.Chemscore.Hbond.Weighted>
-5.9166

> <Gold.Chemscore.Metal.Weighted>
-0.0000

> <Gold.Chemscore.Lipo.Weighted>
-9.3414

> <Gold.Chemscore.Internal_Hbond.Weighted>
0.0000

> <Gold.Chemscore.DEClash.Weighted>
1.2650

> <Gold.Chemscore.DEInternal.Weighted>
0.4594

> <Gold.Chemscore.Rot.Weighted>
4.0802

> <Gold.Chemscore.Internal.Correction.Weighted>
   9.000000E+99

> <Gold.Protein.RotatedTorsions>
[ 6907 6896 6895 6894 ] final  176.32 input  -60.11 | X-H torsion
[ 7974 7965 7964 7962 ] final   43.60 input  175.53 | X-H torsion
[ 8008 7997 7996 7995 ] final  -30.16 input   59.86 | X-H torsion
[ 10167 10162 10161 10158 ] final  128.82 input  -65.29 | X-H torsion
[ 10718 10713 10712 10709 ] final   62.25 input   66.30 | X-H torsion
[ 10763 10752 10751 10750 ] final   70.41 input  -60.55 | X-H torsion
[ 11005 11000 10999 10996 ] final  141.69 input  -57.11 | X-H torsion

> <Gold.Protein.ActiveResidues>
 VAL166  LYS551  ARG553  GLY616  TRP617  ASP618  TYR619  PRO620  LYS621  CYS622 
 ASP623  PHE694  ASN695  SER759  ASP760  ASP761  ALA762  ILE779  LEU786  VAL792 
 PHE793  MET794  SER795  GLU796  ALA797  LYS798  CYS799  TRP800  GLU811  SER814 

> <Gold.Protein.RotatedAtoms>
  151.7221  133.3315  159.3317 H   0  0  0  0  0  0  0  0  0  0  0  0  # atno 6907 bound_to 6896
  150.7648  134.6439  159.6261 H   0  0  0  0  0  0  0  0  0  0  0  0  # atno 6908 bound_to 6896
  152.3645  134.6826  160.0248 H   0  0  0  0  0  0  0  0  0  0  0  0  # atno 6909 bound_to 6896
  146.0641  139.5168  142.9639 H   0  0  0  0  0  0  0  0  0  0  0  0  # atno 7974 bound_to 7965
  154.4261  140.1799  156.1363 H   0  0  0  0  0  0  0  0  0  0  0  0  # atno 8008 bound_to 7997
  156.0027  140.3358  155.6837 H   0  0  0  0  0  0  0  0  0  0  0  0  # atno 8009 bound_to 7997
  155.6220  140.0661  157.2666 H   0  0  0  0  0  0  0  0  0  0  0  0  # atno 8010 bound_to 7997
  139.5508  144.6811  151.4329 H   0  0  0  0  0  0  0  0  0  0  0  0  # atno 10167 bound_to 10162
  157.5887  130.9039  149.9563 H   0  0  0  0  0  0  0  0  0  0  0  0  # atno 10718 bound_to 10713
  153.0340  135.5175  154.7436 H   0  0  0  0  0  0  0  0  0  0  0  0  # atno 10763 bound_to 10752
  154.6428  135.2914  155.0085 H   0  0  0  0  0  0  0  0  0  0  0  0  # atno 10764 bound_to 10752
  154.0997  135.6638  153.4918 H   0  0  0  0  0  0  0  0  0  0  0  0  # atno 10765 bound_to 10752
  140.0420  134.9300  157.0860 H   0  0  0  0  0  0  0  0  0  0  0  0  # atno 11005 bound_to 11000
  145.6508  141.0263  143.1761 LP  0  0  0  0  0  0  0  0  0  0  0  0  # atno 17320 bound_to 7965
  144.7192  139.8089  143.7388 LP  0  0  0  0  0  0  0  0  0  0  0  0  # atno 17321 bound_to 7965
  140.6770  143.8167  150.7071 LP  0  0  0  0  0  0  0  0  0  0  0  0  # atno 17342 bound_to 10162
  140.1609  143.4276  152.2067 LP  0  0  0  0  0  0  0  0  0  0  0  0  # atno 17343 bound_to 10162
  156.0939  130.3661  150.0343 LP  0  0  0  0  0  0  0  0  0  0  0  0  # atno 17370 bound_to 10713
  156.8470  130.9445  151.3628 LP  0  0  0  0  0  0  0  0  0  0  0  0  # atno 17371 bound_to 10713
  140.4054  134.2038  155.7163 LP  0  0  0  0  0  0  0  0  0  0  0  0  # atno 17394 bound_to 11000
  141.1888  133.8253  157.0982 LP  0  0  0  0  0  0  0  0  0  0  0  0  # atno 17395 bound_to 11000

$$$$
