AV-unprocessed.smi:2445|AV-procd|sdf|9633|dock9
  -GOLD-   2272013263D 1   1.00000     0.00000
 Structure written by MMmdl.
 40 41  0  0  0  0  0  0  0  0  1 V2000
  149.5604  139.5826  154.3849 C   0  0  0  0  0  0  0  0  0  0  0  0
  150.0210  138.1876  154.6394 C   0  0  0  0  0  0  0  0  0  0  0  0
  151.2535  137.6471  154.3685 C   0  0  0  0  0  0  0  0  0  0  0  0
  151.3721  136.3027  154.7279 N   0  0  0  0  0  0  0  0  0  0  0  0
  150.2512  135.8160  155.2671 C   0  0  0  0  0  0  0  0  0  0  0  0
  150.1083  134.3990  155.7366 C   0  0  2  0  0  0  0  0  0  0  0  0
  151.2936  133.9720  156.6137 C   0  0  0  0  0  0  0  0  0  0  0  0
  149.8517  133.4105  154.5821 C   0  0  0  0  0  0  0  0  0  0  0  0
  148.8622  133.9256  153.6421 N   0  0  0  0  0  0  0  0  0  0  0  0
  147.7054  133.3193  153.3483 C   0  0  0  0  0  0  0  0  0  0  0  0
  147.3305  132.2641  153.8597 O   0  0  0  0  0  0  0  0  0  0  0  0
  147.0095  133.9987  152.4273 N   0  0  0  0  0  0  0  0  0  0  0  0
  145.7153  133.5929  151.8879 C   0  0  2  0  0  0  0  0  0  0  0  0
  145.8115  132.2823  151.1349 C   0  0  0  0  0  0  0  0  0  0  0  0
  144.6045  132.3654  150.2087 C   0  0  0  0  0  0  0  0  0  0  0  0
  144.4638  133.7439  149.8856 O   0  0  0  0  0  0  0  0  0  0  0  0
  145.2135  134.5472  150.7941 C   0  0  1  0  0  0  0  0  0  0  0  0
  144.3467  135.7010  151.3128 C   0  0  0  0  0  0  0  0  0  0  0  0
  148.9571  137.0084  155.3594 S   0  0  0  0  0  0  0  0  0  0  0  0
  150.3660  140.1948  153.9787 H   0  0  0  0  0  0  0  0  0  0  0  0
  149.2147  140.0505  155.3069 H   0  0  0  0  0  0  0  0  0  0  0  0
  148.7369  139.5935  153.6708 H   0  0  0  0  0  0  0  0  0  0  0  0
  152.1017  138.1450  153.9220 H   0  0  0  0  0  0  0  0  0  0  0  0
  149.2239  134.3686  156.3753 H   0  0  0  0  0  0  0  0  0  0  0  0
  151.4083  134.6383  157.4693 H   0  0  0  0  0  0  0  0  0  0  0  0
  152.2286  133.9868  156.0525 H   0  0  0  0  0  0  0  0  0  0  0  0
  151.1534  132.9616  156.9985 H   0  0  0  0  0  0  0  0  0  0  0  0
  150.7880  133.2180  154.0548 H   0  0  0  0  0  0  0  0  0  0  0  0
  149.5068  132.4522  154.9727 H   0  0  0  0  0  0  0  0  0  0  0  0
  149.0844  134.7907  153.1711 H   0  0  0  0  0  0  0  0  0  0  0  0
  147.4030  134.8569  152.0696 H   0  0  0  0  0  0  0  0  0  0  0  0
  144.9685  133.4890  152.6779 H   0  0  0  0  0  0  0  0  0  0  0  0
  146.7275  132.2431  150.5429 H   0  0  0  0  0  0  0  0  0  0  0  0
  145.7878  131.4089  151.7876 H   0  0  0  0  0  0  0  0  0  0  0  0
  144.7190  131.7536  149.3138 H   0  0  0  0  0  0  0  0  0  0  0  0
  143.7041  132.0383  150.7302 H   0  0  0  0  0  0  0  0  0  0  0  0
  146.0600  134.9486  150.2347 H   0  0  0  0  0  0  0  0  0  0  0  0
  144.9134  136.3490  151.9812 H   0  0  0  0  0  0  0  0  0  0  0  0
  143.4804  135.3293  151.8603 H   0  0  0  0  0  0  0  0  0  0  0  0
  143.9820  136.3138  150.4882 H   0  0  0  0  0  0  0  0  0  0  0  0
  1  2  1  0  0  0  0
  1 20  1  0  0  0  0
  1 21  1  0  0  0  0
  1 22  1  0  0  0  0
  2 19  1  0  0  0  0
  2  3  2  0  0  0  0
  3  4  1  0  0  0  0
  3 23  1  0  0  0  0
  4  5  2  0  0  0  0
  5  6  1  0  0  0  0
  5 19  1  0  0  0  0
  6  7  1  0  0  0  0
  6  8  1  0  0  0  0
  6 24  1  0  0  0  0
  7 25  1  0  0  0  0
  7 26  1  0  0  0  0
  7 27  1  0  0  0  0
  8  9  1  0  0  0  0
  8 28  1  0  0  0  0
  8 29  1  0  0  0  0
  9 10  1  0  0  0  0
  9 30  1  0  0  0  0
 10 11  2  0  0  0  0
 10 12  1  0  0  0  0
 12 13  1  0  0  0  0
 12 31  1  0  0  0  0
 13 17  1  0  0  0  0
 13 14  1  0  0  0  0
 13 32  1  0  0  0  0
 14 15  1  0  0  0  0
 14 33  1  0  0  0  0
 14 34  1  0  0  0  0
 15 16  1  0  0  0  0
 15 35  1  0  0  0  0
 15 36  1  0  0  0  0
 16 17  1  0  0  0  0
 17 18  1  0  0  0  0
 17 37  1  0  0  0  0
 18 38  1  0  0  0  0
 18 39  1  0  0  0  0
 18 40  1  0  0  0  0
M  END
> <s_m_source_file>
AV-unprocessed.smi

> <i_m_source_file_index>
2445

> <i_lp_mmshare_version>
43012

> <i_f3d_flags>
0

> <s_epik_input>
W0NIM11jMVtjSF1uYyhzMSlbQ0BIXShbQ0gzXSlbQ0gyXVtOSF1DKD1PKVtOSF1bQ0BASF0yW0NIMl1bQ0gyXU9bQ0BIXTJbQ0gzXQ==

> <s_epik_cmdline>
J2VwaWtfcHl0aG9uJywgJy1waCcsICc3LjAnLCAnLXRuJywgJzgnLCAnLW1hJywgJzIwMCcsICctbWV0YWxfYmluZGluZycsICctaW1hZScsICc8aW5maWxlLm1hZT4nLCAnLW9tYWUnLCAnPG91dGZpbGUubWFlPic=

> <r_epik_Ionization_Penalty>
0.000649483

> <r_epik_Ionization_Penalty_Charging>
0

> <r_epik_Ionization_Penalty_Neutral>
0.000649483

> <r_epik_State_Penalty>
0.000379895

> <r_epik_Charging_Adjusted_Penalty>
0.000379895

> <i_epik_Tot_Q>
0

> <i_epik_Tot_abs_Q>
0

> <r_epik_Metal_State_Penalty>
-0

> <b_epik_Metal_Only>
0

> <s_lp_Force_Field>
OPLS_2005

> <r_lp_Energy>
5.96994

> <b_lp_Chiralities_Consistent>
1

> <s_lp_Variant>
AV-unprocessed.smi:2445-1

> <Gold.Version>
5.8.1

> <Gold.Id.Protein>
6NUR|6NUR_protein|mol2

> <Gold.PLP.Fitness>
40.5919

> <Gold.PLP.PLP>
-33.5526

> <Gold.PLP.part.hbond>
-3.0000

> <Gold.PLP.part.metal>
0.0000

> <Gold.PLP.part.buried>
-6.1711

> <Gold.PLP.part.nonpolar>
-26.1321

> <Gold.PLP.part.repulsive>
1.2032

> <Gold.PLP.ligand.clash>
0.0000

> <Gold.PLP.ligand.torsion>
0.4934

> <Gold.PLP.Chemscore.Hbond>
2.6413

> <Gold.PLP.Chemscore.CHOScore>
0.0000

> <Gold.PLP.Chemscore.Metal>
0.0000

> <Gold.Chemscore.Hbonds>
donor molecule, donor type, donor heavy atom, donor atom, acceptor molecule, acceptor atom, score
      L1  H     9    30       P1  7948  0.65
      L1  H    12    31       P1  7948  0.98
      P1  H 10752 10764       L1     4  1.00

> <Gold.PLP.Chemscore.Internal.Correction>
0.1023

> <Gold.Rescore>
     Score         DG    S(hbond)    S(metal)    S(lipo)     H(rot)  DE(clash)    DE(int)     intcor
     16.92     -17.28       1.97        0.00      78.08       1.53       0.24       0.11       ----

> <Gold.Chemscore.Fitness>
16.9229

> <Gold.Chemscore.DG>
-17.2753

> <Gold.Chemscore.ZeroCoef>
-5.4800

> <Gold.Chemscore.Hbond>
1.9710

> <Gold.Chemscore.Metal>
0.0000

> <Gold.Chemscore.Lipo>
78.0825

> <Gold.Chemscore.Internal_Hbond>
0.0000

> <Gold.Chemscore.DEClash>
0.2442

> <Gold.Chemscore.DEInternal>
0.1082

> <Gold.Chemscore.Rot>
1.5325

> <Gold.Chemscore.Internal.Correction>
   9.000000E+99

> <Gold.Chemscore.Hbonds>
donor molecule, donor type, donor heavy atom, donor atom, acceptor molecule, acceptor atom, score
      L1  H     9    30       P1  7948  0.06
      L1  H    12    31       P1  7948  0.77
      P1  H 10752 10764       L1     4  0.82

> <Gold.Chemscore.Hbond.Weighted>
-6.5830

> <Gold.Chemscore.Metal.Weighted>
-0.0000

> <Gold.Chemscore.Lipo.Weighted>
-9.1357

> <Gold.Chemscore.Internal_Hbond.Weighted>
0.0000

> <Gold.Chemscore.DEClash.Weighted>
0.2442

> <Gold.Chemscore.DEInternal.Weighted>
0.1082

> <Gold.Chemscore.Rot.Weighted>
3.9233

> <Gold.Chemscore.Internal.Correction.Weighted>
   9.000000E+99

> <Gold.Protein.RotatedTorsions>
[ 6907 6896 6895 6894 ] final  -37.90 input  -60.11 | X-H torsion
[ 7974 7965 7964 7962 ] final  -66.49 input  175.53 | X-H torsion
[ 8008 7997 7996 7995 ] final -105.81 input   59.86 | X-H torsion
[ 10167 10162 10161 10158 ] final  -45.05 input  -65.29 | X-H torsion
[ 10718 10713 10712 10709 ] final  -30.05 input   66.30 | X-H torsion
[ 10763 10752 10751 10750 ] final  -77.89 input  -60.55 | X-H torsion
[ 11005 11000 10999 10996 ] final  -17.44 input  -57.11 | X-H torsion

> <Gold.Protein.ActiveResidues>
 VAL166  LYS551  ARG553  GLY616  TRP617  ASP618  TYR619  PRO620  LYS621  CYS622 
 ASP623  PHE694  ASN695  SER759  ASP760  ASP761  ALA762  ILE779  LEU786  VAL792 
 PHE793  MET794  SER795  GLU796  ALA797  LYS798  CYS799  TRP800  GLU811  SER814 

> <Gold.Protein.RotatedAtoms>
  151.0091  134.9382  159.7996 H   0  0  0  0  0  0  0  0  0  0  0  0  # atno 6907 bound_to 6896
  152.5298  134.3052  159.9103 H   0  0  0  0  0  0  0  0  0  0  0  0  # atno 6908 bound_to 6896
  151.3058  133.4060  159.2677 H   0  0  0  0  0  0  0  0  0  0  0  0  # atno 6909 bound_to 6896
  145.7410  140.8953  143.0530 H   0  0  0  0  0  0  0  0  0  0  0  0  # atno 7974 bound_to 7965
  154.9053  140.0411  157.1916 H   0  0  0  0  0  0  0  0  0  0  0  0  # atno 8008 bound_to 7997
  154.8402  140.2913  155.5643 H   0  0  0  0  0  0  0  0  0  0  0  0  # atno 8009 bound_to 7997
  156.2992  140.2484  156.3343 H   0  0  0  0  0  0  0  0  0  0  0  0  # atno 8010 bound_to 7997
  140.6873  143.2899  151.3583 H   0  0  0  0  0  0  0  0  0  0  0  0  # atno 10167 bound_to 10162
  156.4047  130.4397  149.7296 H   0  0  0  0  0  0  0  0  0  0  0  0  # atno 10718 bound_to 10713
  154.5189  135.5748  153.6664 H   0  0  0  0  0  0  0  0  0  0  0  0  # atno 10763 bound_to 10752
  152.9913  135.6177  154.2781 H   0  0  0  0  0  0  0  0  0  0  0  0  # atno 10764 bound_to 10752
  154.2700  135.2853  155.2721 H   0  0  0  0  0  0  0  0  0  0  0  0  # atno 10765 bound_to 10752
  140.8168  133.8099  155.9619 H   0  0  0  0  0  0  0  0  0  0  0  0  # atno 11005 bound_to 11000
  144.6870  139.9461  143.7476 LP  0  0  0  0  0  0  0  0  0  0  0  0  # atno 17320 bound_to 7965
  146.0447  139.3455  143.0676 LP  0  0  0  0  0  0  0  0  0  0  0  0  # atno 17321 bound_to 7965
  139.6243  144.0845  152.2420 LP  0  0  0  0  0  0  0  0  0  0  0  0  # atno 17342 bound_to 10162
  140.0299  144.6088  150.7496 LP  0  0  0  0  0  0  0  0  0  0  0  0  # atno 17343 bound_to 10162
  156.4298  130.7809  151.2829 LP  0  0  0  0  0  0  0  0  0  0  0  0  # atno 17370 bound_to 10713
  157.7505  131.0157  150.3516 LP  0  0  0  0  0  0  0  0  0  0  0  0  # atno 17371 bound_to 10713
  140.9141  134.2224  157.4968 LP  0  0  0  0  0  0  0  0  0  0  0  0  # atno 17394 bound_to 11000
  139.8710  134.9763  156.4916 LP  0  0  0  0  0  0  0  0  0  0  0  0  # atno 17395 bound_to 11000

$$$$
