AV-unprocessed.smi:3265|AV-procd|sdf|12498|dock4
  -GOLD-   2272018403D 1   1.00000     0.00000
 Structure written by MMmdl.
 41 42  0  0  0  0  0  0  0  0  2 V2000
  147.7163  133.4122  152.8461 C   0  0  0  0  0  0  0  0  0  0  0  0
  146.2207  133.6869  153.0732 C   0  0  2  0  0  0  0  0  0  0  0  0
  145.3672  133.4219  151.8182 C   0  0  0  0  0  0  0  0  0  0  0  0
  145.5541  134.5280  150.7695 C   0  0  0  0  0  0  0  0  0  0  0  0
  145.3012  135.9149  151.3803 C   0  0  0  0  0  0  0  0  0  0  0  0
  146.1766  136.1414  152.5574 N   0  3  1  0  0  0  0  0  0  0  0  0
  146.0902  137.5276  153.0834 C   0  0  0  0  0  0  0  0  0  0  0  0
  146.6146  138.5724  152.0762 C   0  0  0  0  0  0  0  0  0  0  0  0
  147.4419  139.5935  152.7132 N   0  0  0  0  0  0  0  0  0  0  0  0
  147.0451  140.3838  153.7229 C   0  0  0  0  0  0  0  0  0  0  0  0
  145.9405  140.2969  154.2577 O   0  0  0  0  0  0  0  0  0  0  0  0
  148.0342  141.4543  154.1816 C   0  0  0  0  0  0  0  0  0  0  0  0
  149.1602  140.8513  154.8732 N   0  0  0  0  0  0  0  0  0  0  0  0
  149.8637  139.7131  154.5368 C   0  0  0  0  0  0  0  0  0  0  0  0
  150.8312  139.5378  155.4841 C   0  0  0  0  0  0  0  0  0  0  0  0
  150.6414  140.6361  156.3682 C   0  0  0  0  0  0  0  0  0  0  0  0
  149.6363  141.4163  156.0041 N   0  0  0  0  0  0  0  0  0  0  0  0
  145.9691  135.1110  153.6092 C   0  0  0  0  0  0  0  0  0  0  0  0
  148.1423  134.0939  152.1123 H   0  0  0  0  0  0  0  0  0  0  0  0
  147.8804  132.3947  152.4905 H   0  0  0  0  0  0  0  0  0  0  0  0
  148.2816  133.5316  153.7707 H   0  0  0  0  0  0  0  0  0  0  0  0
  145.8938  132.9851  153.8418 H   0  0  0  0  0  0  0  0  0  0  0  0
  145.6069  132.4484  151.3892 H   0  0  0  0  0  0  0  0  0  0  0  0
  144.3151  133.3784  152.1035 H   0  0  0  0  0  0  0  0  0  0  0  0
  146.5632  134.4860  150.3586 H   0  0  0  0  0  0  0  0  0  0  0  0
  144.8766  134.3627  149.9315 H   0  0  0  0  0  0  0  0  0  0  0  0
  145.4957  136.6756  150.6233 H   0  0  0  0  0  0  0  0  0  0  0  0
  144.2555  136.0162  151.6756 H   0  0  0  0  0  0  0  0  0  0  0  0
  145.0487  137.7659  153.3025 H   0  0  0  0  0  0  0  0  0  0  0  0
  146.6184  137.6065  154.0347 H   0  0  0  0  0  0  0  0  0  0  0  0
  147.1771  138.0807  151.2812 H   0  0  0  0  0  0  0  0  0  0  0  0
  145.7803  139.0767  151.5891 H   0  0  0  0  0  0  0  0  0  0  0  0
  148.3729  139.7280  152.3445 H   0  0  0  0  0  0  0  0  0  0  0  0
  148.4088  142.0107  153.3215 H   0  0  0  0  0  0  0  0  0  0  0  0
  147.5375  142.1716  154.8374 H   0  0  0  0  0  0  0  0  0  0  0  0
  149.6185  139.1294  153.6615 H   0  0  0  0  0  0  0  0  0  0  0  0
  151.5653  138.7475  155.5362 H   0  0  0  0  0  0  0  0  0  0  0  0
  151.1953  140.8844  157.2615 H   0  0  0  0  0  0  0  0  0  0  0  0
  144.9467  135.1875  153.9831 H   0  0  0  0  0  0  0  0  0  0  0  0
  146.6247  135.3027  154.4590 H   0  0  0  0  0  0  0  0  0  0  0  0
  147.1225  136.0306  152.2200 H   0  0  0  0  0  0  0  0  0  0  0  0
  1  2  1  0  0  0  0
  1 19  1  0  0  0  0
  1 20  1  0  0  0  0
  1 21  1  0  0  0  0
  2 18  1  0  0  0  0
  2  3  1  0  0  0  0
  2 22  1  0  0  0  0
  3  4  1  0  0  0  0
  3 23  1  0  0  0  0
  3 24  1  0  0  0  0
  4  5  1  0  0  0  0
  4 25  1  0  0  0  0
  4 26  1  0  0  0  0
  5  6  1  0  0  0  0
  5 27  1  0  0  0  0
  5 28  1  0  0  0  0
  6  7  1  0  0  0  0
  6 18  1  0  0  0  0
  6 41  1  0  0  0  0
  7  8  1  0  0  0  0
  7 29  1  0  0  0  0
  7 30  1  0  0  0  0
  8  9  1  0  0  0  0
  8 31  1  0  0  0  0
  8 32  1  0  0  0  0
  9 10  1  0  0  0  0
  9 33  1  0  0  0  0
 10 11  2  0  0  0  0
 10 12  1  0  0  0  0
 12 13  1  0  0  0  0
 12 34  1  0  0  0  0
 12 35  1  0  0  0  0
 13 17  1  0  0  0  0
 13 14  1  0  0  0  0
 14 15  2  0  0  0  0
 14 36  1  0  0  0  0
 15 16  1  0  0  0  0
 15 37  1  0  0  0  0
 16 17  2  0  0  0  0
 16 38  1  0  0  0  0
 18 39  1  0  0  0  0
 18 40  1  0  0  0  0
M  CHG  1   6   1
M  END
> <s_m_source_file>
AV-unprocessed.smi

> <i_m_source_file_index>
3265

> <i_lp_mmshare_version>
43012

> <i_f3d_flags>
0

> <s_epik_input>
W0NIM11bQ0BASF0xW0NIMl1bQ0gyXVtDSDJdTihbQ0gyXTEpW0NIMl1bQ0gyXVtOSF1DKD1PKVtDSDJdbjJbY0hdW2NIXVtjSF1uMg==

> <s_epik_cmdline>
J2VwaWtfcHl0aG9uJywgJy1waCcsICc3LjAnLCAnLXRuJywgJzgnLCAnLW1hJywgJzIwMCcsICctbWV0YWxfYmluZGluZycsICctaW1hZScsICc8aW5maWxlLm1hZT4nLCAnLW9tYWUnLCAnPG91dGZpbGUubWFlPic=

> <r_lp_tautomer_probability>
1

> <r_epik_Ionization_Penalty>
0.00231455

> <r_epik_Ionization_Penalty_Charging>
0.00230623

> <r_epik_Ionization_Penalty_Neutral>
8.31727e-06

> <r_epik_State_Penalty>
0.00159065

> <r_epik_Charging_Adjusted_Penalty>
0.00389688

> <i_epik_Tot_Q>
1

> <i_epik_Tot_abs_Q>
1

> <r_epik_Metal_State_Penalty>
-0

> <b_epik_Metal_Only>
0

> <s_lp_Force_Field>
OPLS_2005

> <r_lp_Energy>
23.6627

> <b_lp_Chiralities_Consistent>
1

> <s_lp_Variant>
AV-unprocessed.smi:3265-3

> <Gold.Version>
5.8.1

> <Gold.Id.Protein>
6NUR|6NUR_protein|mol2

> <Gold.PLP.Fitness>
44.7567

> <Gold.PLP.PLP>
-34.4505

> <Gold.PLP.part.hbond>
-2.0000

> <Gold.PLP.part.metal>
0.0000

> <Gold.PLP.part.buried>
-1.9600

> <Gold.PLP.part.nonpolar>
-31.1636

> <Gold.PLP.part.repulsive>
0.2864

> <Gold.PLP.ligand.clash>
0.0000

> <Gold.PLP.ligand.torsion>
0.6876

> <Gold.PLP.Chemscore.Hbond>
3.0000

> <Gold.PLP.Chemscore.CHOScore>
0.8822

> <Gold.PLP.Chemscore.Metal>
0.0000

> <Gold.Chemscore.Hbonds>
donor molecule, donor type, donor heavy atom, donor atom, acceptor molecule, acceptor atom, score
      L1  H     6    41       P1  7948  2.00
      L1  H     9    33       P1  7957  1.00
      L1  C    14    36       P1  7957  0.62

> <Gold.PLP.Chemscore.Internal.Correction>
0.0348

> <Gold.Rescore>
     Score         DG    S(hbond)    S(metal)    S(lipo)     H(rot)  DE(clash)    DE(int)     intcor
     13.53     -15.24       1.98        0.00      67.13       1.84       0.25       1.47       ----

> <Gold.Chemscore.Fitness>
13.5257

> <Gold.Chemscore.DG>
-15.2410

> <Gold.Chemscore.ZeroCoef>
-5.4800

> <Gold.Chemscore.Hbond>
1.9801

> <Gold.Chemscore.Metal>
0.0000

> <Gold.Chemscore.Lipo>
67.1328

> <Gold.Chemscore.Internal_Hbond>
0.0000

> <Gold.Chemscore.DEClash>
0.2467

> <Gold.Chemscore.DEInternal>
1.4686

> <Gold.Chemscore.Rot>
1.8386

> <Gold.Chemscore.Internal.Correction>
   9.000000E+99

> <Gold.Chemscore.Hbonds>
donor molecule, donor type, donor heavy atom, donor atom, acceptor molecule, acceptor atom, score
      L1  H     6    41       P1  7948  1.00
      L1  H     9    33       P1  7957  0.99

> <Gold.Chemscore.Hbond.Weighted>
-6.6134

> <Gold.Chemscore.Metal.Weighted>
-0.0000

> <Gold.Chemscore.Lipo.Weighted>
-7.8545

> <Gold.Chemscore.Internal_Hbond.Weighted>
0.0000

> <Gold.Chemscore.DEClash.Weighted>
0.2467

> <Gold.Chemscore.DEInternal.Weighted>
1.4686

> <Gold.Chemscore.Rot.Weighted>
4.7069

> <Gold.Chemscore.Internal.Correction.Weighted>
   9.000000E+99

> <Gold.Protein.RotatedTorsions>
[ 6907 6896 6895 6894 ] final  -98.09 input  -60.11 | X-H torsion
[ 7974 7965 7964 7962 ] final    3.84 input  175.53 | X-H torsion
[ 8008 7997 7996 7995 ] final   39.56 input   59.86 | X-H torsion
[ 10167 10162 10161 10158 ] final  -51.96 input  -65.29 | X-H torsion
[ 10718 10713 10712 10709 ] final  -95.60 input   66.30 | X-H torsion
[ 10763 10752 10751 10750 ] final  100.15 input  -60.55 | X-H torsion
[ 11005 11000 10999 10996 ] final   68.69 input  -57.11 | X-H torsion

> <Gold.Protein.ActiveResidues>
 VAL166  LYS551  ARG553  GLY616  TRP617  ASP618  TYR619  PRO620  LYS621  CYS622 
 ASP623  PHE694  ASN695  SER759  ASP760  ASP761  ALA762  ILE779  LEU786  VAL792 
 PHE793  MET794  SER795  GLU796  ALA797  LYS798  CYS799  TRP800  GLU811  SER814 

> <Gold.Protein.RotatedAtoms>
  150.7036  134.1248  159.4047 H   0  0  0  0  0  0  0  0  0  0  0  0  # atno 6907 bound_to 6896
  151.9234  135.0286  160.0533 H   0  0  0  0  0  0  0  0  0  0  0  0  # atno 6908 bound_to 6896
  152.2237  133.4968  159.5213 H   0  0  0  0  0  0  0  0  0  0  0  0  # atno 6909 bound_to 6896
  146.2445  140.0625  142.8367 H   0  0  0  0  0  0  0  0  0  0  0  0  # atno 7974 bound_to 7965
  155.2387  140.3344  155.4295 H   0  0  0  0  0  0  0  0  0  0  0  0  # atno 8008 bound_to 7997
  156.2265  140.1831  156.7396 H   0  0  0  0  0  0  0  0  0  0  0  0  # atno 8009 bound_to 7997
  154.5907  140.0638  156.9219 H   0  0  0  0  0  0  0  0  0  0  0  0  # atno 8010 bound_to 7997
  140.6562  143.2600  151.4579 H   0  0  0  0  0  0  0  0  0  0  0  0  # atno 10167 bound_to 10162
  156.0046  130.5116  150.6101 H   0  0  0  0  0  0  0  0  0  0  0  0  # atno 10718 bound_to 10713
  153.3104  135.4089  155.1330 H   0  0  0  0  0  0  0  0  0  0  0  0  # atno 10763 bound_to 10752
  154.8574  135.3563  154.5732 H   0  0  0  0  0  0  0  0  0  0  0  0  # atno 10764 bound_to 10752
  153.6160  135.7066  153.5387 H   0  0  0  0  0  0  0  0  0  0  0  0  # atno 10765 bound_to 10752
  139.9696  134.6922  156.0473 H   0  0  0  0  0  0  0  0  0  0  0  0  # atno 11005 bound_to 11000
  145.0887  140.9270  143.4782 LP  0  0  0  0  0  0  0  0  0  0  0  0  # atno 17320 bound_to 7965
  145.0793  139.2972  143.5792 LP  0  0  0  0  0  0  0  0  0  0  0  0  # atno 17321 bound_to 7965
  139.5785  144.1764  152.1936 LP  0  0  0  0  0  0  0  0  0  0  0  0  # atno 17342 bound_to 10162
  140.1082  144.5480  150.6942 LP  0  0  0  0  0  0  0  0  0  0  0  0  # atno 17343 bound_to 10162
  157.3935  131.0799  151.1373 LP  0  0  0  0  0  0  0  0  0  0  0  0  # atno 17370 bound_to 10713
  157.2057  130.6415  149.5755 LP  0  0  0  0  0  0  0  0  0  0  0  0  # atno 17371 bound_to 10713
  141.1376  133.6571  156.3638 LP  0  0  0  0  0  0  0  0  0  0  0  0  # atno 17394 bound_to 11000
  140.5321  134.6202  157.5353 LP  0  0  0  0  0  0  0  0  0  0  0  0  # atno 17395 bound_to 11000

$$$$
