AV-unprocessed.smi:1815|AV-procd|sdf|7362|dock8
  -GOLD-   22720 9 23D 1   1.00000     0.00000
 Structure written by MMmdl.
 39 40  0  0  0  0  0  0  0  0  3 V2000
  144.8435  132.7942  149.9017 C   0  0  0  0  0  0  0  0  0  0  0  0
  145.6210  133.7053  150.8582 C   0  0  2  0  0  0  0  0  0  0  0  0
  146.7721  132.9614  151.5613 C   0  0  0  0  0  0  0  0  0  0  0  0
  147.4501  133.8481  152.5365 N   0  3  2  0  0  0  0  0  0  0  0  0
  148.6033  133.1834  153.1927 C   0  0  0  0  0  0  0  0  0  0  0  0
  149.0168  133.8753  154.5008 C   0  0  0  0  0  0  0  0  0  0  0  0
  149.9485  134.9592  154.2235 N   0  0  0  0  0  0  0  0  0  0  0  0
  150.5855  135.6870  155.1497 C   0  0  0  0  0  0  0  0  0  0  0  0
  150.3962  135.4593  156.3467 O   0  0  0  0  0  0  0  0  0  0  0  0
  151.4010  136.6310  154.6288 N   0  5  0  0  0  0  0  0  0  0  0  0
  151.2204  137.9246  154.9413 C   0  0  0  0  0  0  0  0  0  0  0  0
  150.0111  138.4907  155.0240 N   0  0  0  0  0  0  0  0  0  0  0  0
  150.0529  139.8418  155.3734 C   0  0  0  0  0  0  0  0  0  0  0  0
  151.3238  140.3131  155.5705 C   0  0  0  0  0  0  0  0  0  0  0  0
  152.5132  139.0673  155.3188 S   0  0  0  0  0  0  0  0  0  0  0  0
  146.4643  134.4124  153.4912 C   0  0  0  0  0  0  0  0  0  0  0  0
  145.3234  135.1187  152.7346 C   0  0  2  0  0  0  0  0  0  0  0  0
  144.2430  135.6498  153.6833 C   0  0  0  0  0  0  0  0  0  0  0  0
  144.7144  134.1937  151.8406 O   0  0  0  0  0  0  0  0  0  0  0  0
  145.4916  132.4005  149.1185 H   0  0  0  0  0  0  0  0  0  0  0  0
  144.0325  133.3390  149.4176 H   0  0  0  0  0  0  0  0  0  0  0  0
  144.4052  131.9472  150.4305 H   0  0  0  0  0  0  0  0  0  0  0  0
  146.0201  134.5460  150.2879 H   0  0  0  0  0  0  0  0  0  0  0  0
  146.3921  132.0779  152.0777 H   0  0  0  0  0  0  0  0  0  0  0  0
  147.4910  132.6143  150.8179 H   0  0  0  0  0  0  0  0  0  0  0  0
  148.3728  132.1313  153.3679 H   0  0  0  0  0  0  0  0  0  0  0  0
  149.4572  133.2043  152.5136 H   0  0  0  0  0  0  0  0  0  0  0  0
  148.1406  134.2779  155.0111 H   0  0  0  0  0  0  0  0  0  0  0  0
  149.4942  133.1683  155.1797 H   0  0  0  0  0  0  0  0  0  0  0  0
  150.1309  135.1778  153.2549 H   0  0  0  0  0  0  0  0  0  0  0  0
  149.1274  140.3910  155.4618 H   0  0  0  0  0  0  0  0  0  0  0  0
  151.6316  141.3100  155.8477 H   0  0  0  0  0  0  0  0  0  0  0  0
  146.0641  133.6127  154.1167 H   0  0  0  0  0  0  0  0  0  0  0  0
  146.9462  135.1272  154.1572 H   0  0  0  0  0  0  0  0  0  0  0  0
  145.7250  135.9580  152.1640 H   0  0  0  0  0  0  0  0  0  0  0  0
  144.6589  136.3707  154.3877 H   0  0  0  0  0  0  0  0  0  0  0  0
  143.7904  134.8419  154.2589 H   0  0  0  0  0  0  0  0  0  0  0  0
  143.4481  136.1489  153.1284 H   0  0  0  0  0  0  0  0  0  0  0  0
  147.8272  134.6207  152.0062 H   0  0  0  0  0  0  0  0  0  0  0  0
  1  2  1  0  0  0  0
  1 20  1  0  0  0  0
  1 21  1  0  0  0  0
  1 22  1  0  0  0  0
  2 19  1  0  0  0  0
  2  3  1  0  0  0  0
  2 23  1  0  0  0  0
  3  4  1  0  0  0  0
  3 24  1  0  0  0  0
  3 25  1  0  0  0  0
  4  5  1  0  0  0  0
  4 16  1  0  0  0  0
  4 39  1  0  0  0  0
  5  6  1  0  0  0  0
  5 26  1  0  0  0  0
  5 27  1  0  0  0  0
  6  7  1  0  0  0  0
  6 28  1  0  0  0  0
  6 29  1  0  0  0  0
  7  8  1  0  0  0  0
  7 30  1  0  0  0  0
  8  9  2  0  0  0  0
  8 10  1  0  0  0  0
 10 11  1  0  0  0  0
 11 15  1  0  0  0  0
 11 12  2  0  0  0  0
 12 13  1  0  0  0  0
 13 14  2  0  0  0  0
 13 31  1  0  0  0  0
 14 15  1  0  0  0  0
 14 32  1  0  0  0  0
 16 17  1  0  0  0  0
 16 33  1  0  0  0  0
 16 34  1  0  0  0  0
 17 18  1  0  0  0  0
 17 19  1  0  0  0  0
 17 35  1  0  0  0  0
 18 36  1  0  0  0  0
 18 37  1  0  0  0  0
 18 38  1  0  0  0  0
M  CHG  1   4   1
M  CHG  1  10  -1
M  END
> <s_m_source_file>
AV-unprocessed.smi

> <i_m_source_file_index>
1815

> <i_lp_mmshare_version>
43012

> <i_f3d_flags>
0

> <s_epik_input>
W0NIM11bQ0BASF0xW0NIMl1OKFtDSDJdW0NASF0oTzEpW0NIM10pW0NIMl1bQ0gyXVtOSF1DKD1PKVtOSF1jMm5bY0hdW2NIXXMy

> <s_epik_cmdline>
J2VwaWtfcHl0aG9uJywgJy1waCcsICc3LjAnLCAnLXRuJywgJzgnLCAnLW1hJywgJzIwMCcsICctbWV0YWxfYmluZGluZycsICctaW1hZScsICc8aW5maWxlLm1hZT4nLCAnLW9tYWUnLCAnPG91dGZpbGUubWFlPic=

> <r_lp_tautomer_probability>
0.999

> <r_epik_Ionization_Penalty>
6.71699

> <r_epik_Ionization_Penalty_Charging>
5.88592

> <r_epik_Ionization_Penalty_Neutral>
0.831074

> <r_epik_State_Penalty>
6.08365

> <r_epik_Charging_Adjusted_Penalty>
11.9696

> <i_epik_Tot_Q>
0

> <i_epik_Tot_abs_Q>
2

> <r_epik_Metal_State_Penalty>
2.0947

> <b_epik_Metal_Only>
1

> <s_lp_Force_Field>
OPLS_2005

> <r_lp_Energy>
4.96906

> <b_lp_Chiralities_Consistent>
1

> <s_lp_Variant>
AV-unprocessed.smi:1815-13

> <Gold.Version>
5.8.1

> <Gold.Id.Protein>
6NUR|6NUR_protein|mol2

> <Gold.PLP.Fitness>
40.0769

> <Gold.PLP.PLP>
-30.5508

> <Gold.PLP.part.hbond>
-3.5866

> <Gold.PLP.part.metal>
0.0000

> <Gold.PLP.part.buried>
-2.8034

> <Gold.PLP.part.nonpolar>
-24.7985

> <Gold.PLP.part.repulsive>
0.4665

> <Gold.PLP.ligand.clash>
0.0000

> <Gold.PLP.ligand.torsion>
1.2721

> <Gold.PLP.Chemscore.Hbond>
4.0000

> <Gold.PLP.Chemscore.CHOScore>
0.0000

> <Gold.PLP.Chemscore.Metal>
0.0000

> <Gold.Chemscore.Hbonds>
donor molecule, donor type, donor heavy atom, donor atom, acceptor molecule, acceptor atom, score
      L1  H     4    39       P1  7948  2.00
      P1  H 10752 10763       L1    10  2.00

> <Gold.PLP.Chemscore.Internal.Correction>
0.0703

> <Gold.Rescore>
     Score         DG    S(hbond)    S(metal)    S(lipo)     H(rot)  DE(clash)    DE(int)     intcor
     12.96     -14.28       1.88        0.00      56.81       1.61       0.08       1.24       ----

> <Gold.Chemscore.Fitness>
12.9611

> <Gold.Chemscore.DG>
-14.2795

> <Gold.Chemscore.ZeroCoef>
-5.4800

> <Gold.Chemscore.Hbond>
1.8754

> <Gold.Chemscore.Metal>
0.0000

> <Gold.Chemscore.Lipo>
56.8119

> <Gold.Chemscore.Internal_Hbond>
0.0000

> <Gold.Chemscore.DEClash>
0.0761

> <Gold.Chemscore.DEInternal>
1.2423

> <Gold.Chemscore.Rot>
1.6060

> <Gold.Chemscore.Internal.Correction>
   9.000000E+99

> <Gold.Chemscore.Hbonds>
donor molecule, donor type, donor heavy atom, donor atom, acceptor molecule, acceptor atom, score
      L1  H     4    39       P1  7948  0.33
      P1  H 10752 10763       L1    10  0.35

> <Gold.Chemscore.Hbond.Weighted>
-6.2637

> <Gold.Chemscore.Metal.Weighted>
-0.0000

> <Gold.Chemscore.Lipo.Weighted>
-6.6470

> <Gold.Chemscore.Internal_Hbond.Weighted>
0.0000

> <Gold.Chemscore.DEClash.Weighted>
0.0761

> <Gold.Chemscore.DEInternal.Weighted>
1.2423

> <Gold.Chemscore.Rot.Weighted>
4.1112

> <Gold.Chemscore.Internal.Correction.Weighted>
   9.000000E+99

> <Gold.Protein.RotatedTorsions>
[ 6907 6896 6895 6894 ] final  -37.86 input  -60.11 | X-H torsion
[ 7974 7965 7964 7962 ] final  -10.82 input  175.53 | X-H torsion
[ 8008 7997 7996 7995 ] final  138.20 input   59.86 | X-H torsion
[ 10167 10162 10161 10158 ] final  159.40 input  -65.29 | X-H torsion
[ 10718 10713 10712 10709 ] final -107.50 input   66.30 | X-H torsion
[ 10763 10752 10751 10750 ] final   41.22 input  -60.55 | X-H torsion
[ 11005 11000 10999 10996 ] final  124.93 input  -57.11 | X-H torsion

> <Gold.Protein.ActiveResidues>
 VAL166  LYS551  ARG553  GLY616  TRP617  ASP618  TYR619  PRO620  LYS621  CYS622 
 ASP623  PHE694  ASN695  SER759  ASP760  ASP761  ALA762  ILE779  LEU786  VAL792 
 PHE793  MET794  SER795  GLU796  ALA797  LYS798  CYS799  TRP800  GLU811  SER814 

> <Gold.Protein.RotatedAtoms>
  151.0095  134.9385  159.7998 H   0  0  0  0  0  0  0  0  0  0  0  0  # atno 6907 bound_to 6896
  152.5299  134.3047  159.9101 H   0  0  0  0  0  0  0  0  0  0  0  0  # atno 6908 bound_to 6896
  151.3053  133.4062  159.2677 H   0  0  0  0  0  0  0  0  0  0  0  0  # atno 6909 bound_to 6896
  146.2208  140.2820  142.8363 H   0  0  0  0  0  0  0  0  0  0  0  0  # atno 7974 bound_to 7965
  156.2998  140.2399  156.4035 H   0  0  0  0  0  0  0  0  0  0  0  0  # atno 8008 bound_to 7997
  154.8506  140.0424  157.1621 H   0  0  0  0  0  0  0  0  0  0  0  0  # atno 8009 bound_to 7997
  154.9003  140.2976  155.5325 H   0  0  0  0  0  0  0  0  0  0  0  0  # atno 8010 bound_to 7997
  139.4832  144.4734  151.8545 H   0  0  0  0  0  0  0  0  0  0  0  0  # atno 10167 bound_to 10162
  156.0439  130.5665  150.7830 H   0  0  0  0  0  0  0  0  0  0  0  0  # atno 10718 bound_to 10713
  152.9914  135.6168  154.2752 H   0  0  0  0  0  0  0  0  0  0  0  0  # atno 10763 bound_to 10752
  154.2483  135.2786  155.2828 H   0  0  0  0  0  0  0  0  0  0  0  0  # atno 10764 bound_to 10752
  154.5310  135.5788  153.6816 H   0  0  0  0  0  0  0  0  0  0  0  0  # atno 10765 bound_to 10752
  139.9382  134.9638  156.8482 H   0  0  0  0  0  0  0  0  0  0  0  0  # atno 11005 bound_to 11000
  144.9190  140.7845  143.5760 LP  0  0  0  0  0  0  0  0  0  0  0  0  # atno 17320 bound_to 7965
  145.2756  139.1938  143.4818 LP  0  0  0  0  0  0  0  0  0  0  0  0  # atno 17321 bound_to 7965
  140.4204  144.2250  150.5887 LP  0  0  0  0  0  0  0  0  0  0  0  0  # atno 17342 bound_to 10162
  140.4879  143.2357  151.8861 LP  0  0  0  0  0  0  0  0  0  0  0  0  # atno 17343 bound_to 10162
  157.5292  131.0935  150.9977 LP  0  0  0  0  0  0  0  0  0  0  0  0  # atno 17370 bound_to 10713
  157.0288  130.5703  149.5340 LP  0  0  0  0  0  0  0  0  0  0  0  0  # atno 17371 bound_to 10713
  140.6020  134.0162  155.7541 LP  0  0  0  0  0  0  0  0  0  0  0  0  # atno 17394 bound_to 11000
  141.1005  133.9775  157.3087 LP  0  0  0  0  0  0  0  0  0  0  0  0  # atno 17395 bound_to 11000

$$$$
