AV-unprocessed.smi:1300|AV-procd|sdf|5419|dock3
  -GOLD-   22720 4573D 1   1.00000     0.00000
 Structure written by MMmdl.
 35 36  0  0  0  0  0  0  0  0  1 V2000
  152.4346  143.6365  160.1874 C   0  0  0  0  0  0  0  0  0  0  0  0
  152.3801  142.3180  159.4642 C   0  0  0  0  0  0  0  0  0  0  0  0
  152.8158  141.2852  160.1072 N   0  0  0  0  0  0  0  0  0  0  0  0
  152.7955  140.0241  159.5418 N   0  0  0  0  0  0  0  0  0  0  0  0
  153.2637  138.9501  160.4316 C   0  0  0  0  0  0  0  0  0  0  0  0
  154.7261  139.1198  160.9259 C   0  0  2  0  0  0  0  0  0  0  0  0
  155.5992  138.4315  160.0514 O   0  0  0  0  0  0  0  0  0  0  0  0
  154.9467  138.7852  162.4006 C   0  0  0  0  0  0  0  0  0  0  0  0
  155.4967  139.7387  163.2882 C   0  0  0  0  0  0  0  0  0  0  0  0
  155.7236  139.4082  164.6378 C   0  0  0  0  0  0  0  0  0  0  0  0
  155.4020  138.1228  165.1120 C   0  0  0  0  0  0  0  0  0  0  0  0
  154.8538  137.1680  164.2350 C   0  0  0  0  0  0  0  0  0  0  0  0
  154.6274  137.4961  162.8840 C   0  0  0  0  0  0  0  0  0  0  0  0
  154.1128  136.5616  162.0493 F   0  0  0  0  0  0  0  0  0  0  0  0
  152.3705  139.7478  158.2764 C   0  0  0  0  0  0  0  0  0  0  0  0
  152.3932  138.6111  157.8030 O   0  0  0  0  0  0  0  0  0  0  0  0
  151.8775  140.9225  157.5540 C   0  0  0  0  0  0  0  0  0  0  0  0
  151.4011  140.6735  156.2318 C   0  0  0  0  0  0  0  0  0  0  0  0
  150.9952  140.4693  155.1671 N   0  0  0  0  0  0  0  0  0  0  0  0
  151.8686  142.1613  158.1067 C   0  0  0  0  0  0  0  0  0  0  0  0
  151.3643  143.4120  157.4000 C   0  0  0  0  0  0  0  0  0  0  0  0
  153.0193  144.3639  159.6241 H   0  0  0  0  0  0  0  0  0  0  0  0
  152.8909  143.5411  161.1739 H   0  0  0  0  0  0  0  0  0  0  0  0
  151.4321  144.0414  160.3267 H   0  0  0  0  0  0  0  0  0  0  0  0
  152.5758  138.7917  161.2645 H   0  0  0  0  0  0  0  0  0  0  0  0
  153.2168  138.0165  159.8673 H   0  0  0  0  0  0  0  0  0  0  0  0
  154.9952  140.1683  160.7923 H   0  0  0  0  0  0  0  0  0  0  0  0
  155.6951  137.5438  160.3604 H   0  0  0  0  0  0  0  0  0  0  0  0
  155.7617  140.7252  162.9371 H   0  0  0  0  0  0  0  0  0  0  0  0
  156.1476  140.1408  165.3085 H   0  0  0  0  0  0  0  0  0  0  0  0
  155.5773  137.8689  166.1470 H   0  0  0  0  0  0  0  0  0  0  0  0
  154.6096  136.1808  164.5982 H   0  0  0  0  0  0  0  0  0  0  0  0
  150.9639  143.1941  156.4105 H   0  0  0  0  0  0  0  0  0  0  0  0
  152.1734  144.1325  157.2751 H   0  0  0  0  0  0  0  0  0  0  0  0
  150.5682  143.8842  157.9763 H   0  0  0  0  0  0  0  0  0  0  0  0
  1  2  1  0  0  0  0
  1 22  1  0  0  0  0
  1 23  1  0  0  0  0
  1 24  1  0  0  0  0
  2 20  1  0  0  0  0
  2  3  2  0  0  0  0
  3  4  1  0  0  0  0
  4  5  1  0  0  0  0
  4 15  1  0  0  0  0
  5  6  1  0  0  0  0
  5 25  1  0  0  0  0
  5 26  1  0  0  0  0
  6  7  1  0  0  0  0
  6  8  1  0  0  0  0
  6 27  1  0  0  0  0
  7 28  1  0  0  0  0
  8 13  1  0  0  0  0
  8  9  2  0  0  0  0
  9 10  1  0  0  0  0
  9 29  1  0  0  0  0
 10 11  2  0  0  0  0
 10 30  1  0  0  0  0
 11 12  1  0  0  0  0
 11 31  1  0  0  0  0
 12 13  2  0  0  0  0
 12 32  1  0  0  0  0
 13 14  1  0  0  0  0
 15 16  2  0  0  0  0
 15 17  1  0  0  0  0
 17 18  1  0  0  0  0
 17 20  2  0  0  0  0
 18 19  3  0  0  0  0
 20 21  1  0  0  0  0
 21 33  1  0  0  0  0
 21 34  1  0  0  0  0
 21 35  1  0  0  0  0
M  END
> <s_m_source_file>
AV-unprocessed.smi

> <i_m_source_file_index>
1300

> <i_lp_mmshare_version>
43012

> <i_f3d_flags>
0

> <s_epik_input>
TiNDYyhjMVtDSDNdKWMoPU8pbihuYzFbQ0gzXSlbQ0gyXVtDQEhdKFtPSF0pYzJbY0hdW2NIXVtjSF1bY0hdYzJG

> <s_epik_cmdline>
J2VwaWtfcHl0aG9uJywgJy1waCcsICc3LjAnLCAnLXRuJywgJzgnLCAnLW1hJywgJzIwMCcsICctbWV0YWxfYmluZGluZycsICctaW1hZScsICc8aW5maWxlLm1hZT4nLCAnLW9tYWUnLCAnPG91dGZpbGUubWFlPic=

> <r_lp_tautomer_probability>
1

> <r_epik_Ionization_Penalty>
7.1854e-08

> <r_epik_Ionization_Penalty_Charging>
1.40848e-10

> <r_epik_Ionization_Penalty_Neutral>
7.17131e-08

> <r_epik_State_Penalty>
-0

> <r_epik_Charging_Adjusted_Penalty>
1.40848e-10

> <i_epik_Tot_Q>
0

> <i_epik_Tot_abs_Q>
0

> <r_epik_Metal_State_Penalty>
-0

> <b_epik_Metal_Only>
0

> <s_lp_Force_Field>
OPLS_2005

> <r_lp_Energy>
27.5545

> <b_lp_Chiralities_Consistent>
1

> <s_lp_Variant>
AV-unprocessed.smi:1300-1

> <Gold.Version>
5.8.1

> <Gold.Id.Protein>
6NUR|6NUR_protein|mol2

> <Gold.PLP.Fitness>
40.5430

> <Gold.PLP.PLP>
-38.6653

> <Gold.PLP.part.hbond>
-1.0000

> <Gold.PLP.part.metal>
0.0000

> <Gold.PLP.part.buried>
-5.0192

> <Gold.PLP.part.nonpolar>
-32.4966

> <Gold.PLP.part.repulsive>
0.0471

> <Gold.PLP.ligand.clash>
0.0000

> <Gold.PLP.ligand.torsion>
0.5987

> <Gold.PLP.Chemscore.Hbond>
1.0000

> <Gold.PLP.Chemscore.CHOScore>
0.0000

> <Gold.PLP.Chemscore.Metal>
0.0000

> <Gold.Chemscore.Hbonds>
donor molecule, donor type, donor heavy atom, donor atom, acceptor molecule, acceptor atom, score
      P1  H  7989  7998       L1    19  1.00

> <Gold.PLP.Chemscore.Internal.Correction>
0.0750

> <Gold.Rescore>
     Score         DG    S(hbond)    S(metal)    S(lipo)     H(rot)  DE(clash)    DE(int)     intcor
     14.01     -15.60       0.99        0.00     102.05       2.00       0.11       1.48       ----

> <Gold.Chemscore.Fitness>
14.0123

> <Gold.Chemscore.DG>
-15.6007

> <Gold.Chemscore.ZeroCoef>
-5.4800

> <Gold.Chemscore.Hbond>
0.9850

> <Gold.Chemscore.Metal>
0.0000

> <Gold.Chemscore.Lipo>
102.0541

> <Gold.Chemscore.Internal_Hbond>
0.0000

> <Gold.Chemscore.DEClash>
0.1083

> <Gold.Chemscore.DEInternal>
1.4800

> <Gold.Chemscore.Rot>
1.9960

> <Gold.Chemscore.Internal.Correction>
   9.000000E+99

> <Gold.Chemscore.Hbonds>
donor molecule, donor type, donor heavy atom, donor atom, acceptor molecule, acceptor atom, score
      P1  H  7989  7998       L1    19  0.94

> <Gold.Chemscore.Hbond.Weighted>
-3.2901

> <Gold.Chemscore.Metal.Weighted>
-0.0000

> <Gold.Chemscore.Lipo.Weighted>
-11.9403

> <Gold.Chemscore.Internal_Hbond.Weighted>
0.0000

> <Gold.Chemscore.DEClash.Weighted>
0.1083

> <Gold.Chemscore.DEInternal.Weighted>
1.4800

> <Gold.Chemscore.Rot.Weighted>
5.1097

> <Gold.Chemscore.Internal.Correction.Weighted>
   9.000000E+99

> <Gold.Protein.RotatedTorsions>
[ 6907 6896 6895 6894 ] final  -74.83 input  -60.11 | X-H torsion
[ 7974 7965 7964 7962 ] final -151.58 input  175.53 | X-H torsion
[ 8008 7997 7996 7995 ] final -121.15 input   59.86 | X-H torsion
[ 10167 10162 10161 10158 ] final   93.76 input  -65.29 | X-H torsion
[ 10718 10713 10712 10709 ] final -168.59 input   66.30 | X-H torsion
[ 10763 10752 10751 10750 ] final   40.61 input  -60.55 | X-H torsion
[ 11005 11000 10999 10996 ] final   43.38 input  -57.11 | X-H torsion

> <Gold.Protein.ActiveResidues>
 VAL166  LYS551  ARG553  GLY616  TRP617  ASP618  TYR619  PRO620  LYS621  CYS622 
 ASP623  PHE694  ASN695  SER759  ASP760  ASP761  ALA762  ILE779  LEU786  VAL792 
 PHE793  MET794  SER795  GLU796  ALA797  LYS798  CYS799  TRP800  GLU811  SER814 

> <Gold.Protein.RotatedAtoms>
  150.7079  134.4811  159.5470 H   0  0  0  0  0  0  0  0  0  0  0  0  # atno 6907 bound_to 6896
  152.2448  134.8189  160.0464 H   0  0  0  0  0  0  0  0  0  0  0  0  # atno 6908 bound_to 6896
  151.8958  133.3491  159.3850 H   0  0  0  0  0  0  0  0  0  0  0  0  # atno 6909 bound_to 6896
  144.7842  140.4778  143.5818 H   0  0  0  0  0  0  0  0  0  0  0  0  # atno 7974 bound_to 7965
  155.1434  140.0402  157.2804 H   0  0  0  0  0  0  0  0  0  0  0  0  # atno 8008 bound_to 7997
  154.6456  140.2557  155.7245 H   0  0  0  0  0  0  0  0  0  0  0  0  # atno 8009 bound_to 7997
  156.2553  140.2846  156.0869 H   0  0  0  0  0  0  0  0  0  0  0  0  # atno 8010 bound_to 7997
  139.8149  144.6757  150.9593 H   0  0  0  0  0  0  0  0  0  0  0  0  # atno 10167 bound_to 10162
  156.6992  130.9190  151.3078 H   0  0  0  0  0  0  0  0  0  0  0  0  # atno 10718 bound_to 10713
  152.9931  135.6186  154.2653 H   0  0  0  0  0  0  0  0  0  0  0  0  # atno 10763 bound_to 10752
  154.2388  135.2789  155.2863 H   0  0  0  0  0  0  0  0  0  0  0  0  # atno 10764 bound_to 10752
  154.5387  135.5767  153.6878 H   0  0  0  0  0  0  0  0  0  0  0  0  # atno 10765 bound_to 10752
  140.1650  134.4293  155.8293 H   0  0  0  0  0  0  0  0  0  0  0  0  # atno 11005 bound_to 11000
  145.5968  139.1500  143.3151 LP  0  0  0  0  0  0  0  0  0  0  0  0  # atno 17320 bound_to 7965
  146.2065  140.6091  142.9079 LP  0  0  0  0  0  0  0  0  0  0  0  0  # atno 17321 bound_to 7965
  140.7816  143.4148  151.0934 LP  0  0  0  0  0  0  0  0  0  0  0  0  # atno 17342 bound_to 10162
  139.7813  143.8352  152.3138 LP  0  0  0  0  0  0  0  0  0  0  0  0  # atno 17343 bound_to 10162
  157.6980  130.9302  150.0700 LP  0  0  0  0  0  0  0  0  0  0  0  0  # atno 17370 bound_to 10713
  156.1741  130.3647  149.9124 LP  0  0  0  0  0  0  0  0  0  0  0  0  # atno 17371 bound_to 10713
  141.2213  133.6930  156.7662 LP  0  0  0  0  0  0  0  0  0  0  0  0  # atno 17394 bound_to 11000
  140.2444  134.8589  157.3606 LP  0  0  0  0  0  0  0  0  0  0  0  0  # atno 17395 bound_to 11000

$$$$
