AV-unprocessed.smi:3085|AV-procd|sdf|11754|dock4
  -GOLD-   2272017143D 1   1.00000     0.00000
 Structure written by MMmdl.
 27 28  0  0  0  0  0  0  0  0  1 V2000
  152.9941  142.4916  161.7521 C   0  0  0  0  0  0  0  0  0  0  0  0
  152.2337  142.9198  160.4925 C   0  0  0  0  0  0  0  0  0  0  0  0
  152.3613  141.9321  159.3794 C   0  0  0  0  0  0  0  0  0  0  0  0
  151.7206  142.0012  158.2177 N   0  0  0  0  0  0  0  0  0  0  0  0
  152.2016  140.8747  157.6057 C   0  0  0  0  0  0  0  0  0  0  0  0
  151.8214  140.4671  156.2157 C   0  0  2  0  0  0  0  0  0  0  0  0
  150.4573  141.0452  155.7914 C   0  0  0  0  0  0  0  0  0  0  0  0
  150.0855  140.5443  154.4688 N   0  0  0  0  0  0  0  0  0  0  0  0
  150.0977  139.0825  154.4350 C   0  0  0  0  0  0  0  0  0  0  0  0
  151.4637  138.5459  154.9008 C   0  0  0  0  0  0  0  0  0  0  0  0
  151.7540  139.0426  156.2031 O   0  0  0  0  0  0  0  0  0  0  0  0
  153.0971  140.1741  158.3011 N   0  0  0  0  0  0  0  0  0  0  0  0
  153.1754  140.8771  159.4506 N   0  0  0  0  0  0  0  0  0  0  0  0
  153.7749  140.6133  160.2194 H   0  0  0  0  0  0  0  0  0  0  0  0
  152.8844  143.2336  162.5431 H   0  0  0  0  0  0  0  0  0  0  0  0
  154.0591  142.3767  161.5483 H   0  0  0  0  0  0  0  0  0  0  0  0
  152.6203  141.5406  162.1327 H   0  0  0  0  0  0  0  0  0  0  0  0
  151.1775  143.0604  160.7253 H   0  0  0  0  0  0  0  0  0  0  0  0
  152.6060  143.8846  160.1463 H   0  0  0  0  0  0  0  0  0  0  0  0
  152.6023  140.7981  155.5279 H   0  0  0  0  0  0  0  0  0  0  0  0
  149.6955  140.7639  156.5197 H   0  0  0  0  0  0  0  0  0  0  0  0
  150.4961  142.1347  155.7814 H   0  0  0  0  0  0  0  0  0  0  0  0
  149.1599  140.8824  154.2249 H   0  0  0  0  0  0  0  0  0  0  0  0
  149.3113  138.6901  155.0808 H   0  0  0  0  0  0  0  0  0  0  0  0
  149.8805  138.7295  153.4268 H   0  0  0  0  0  0  0  0  0  0  0  0
  151.4459  137.4565  154.9356 H   0  0  0  0  0  0  0  0  0  0  0  0
  152.2542  138.8287  154.2037 H   0  0  0  0  0  0  0  0  0  0  0  0
  1  2  1  0  0  0  0
  1 15  1  0  0  0  0
  1 16  1  0  0  0  0
  1 17  1  0  0  0  0
  2  3  1  0  0  0  0
  2 18  1  0  0  0  0
  2 19  1  0  0  0  0
  3 13  1  0  0  0  0
  3  4  2  0  0  0  0
  4  5  1  0  0  0  0
  5  6  1  0  0  0  0
  5 12  2  0  0  0  0
  6 11  1  0  0  0  0
  6  7  1  0  0  0  0
  6 20  1  0  0  0  0
  7  8  1  0  0  0  0
  7 21  1  0  0  0  0
  7 22  1  0  0  0  0
  8  9  1  0  0  0  0
  8 23  1  0  0  0  0
  9 10  1  0  0  0  0
  9 24  1  0  0  0  0
  9 25  1  0  0  0  0
 10 11  1  0  0  0  0
 10 26  1  0  0  0  0
 10 27  1  0  0  0  0
 12 13  1  0  0  0  0
 13 14  1  0  0  0  0
M  END
> <s_m_source_file>
AV-unprocessed.smi

> <i_m_source_file_index>
3085

> <i_lp_mmshare_version>
43012

> <i_f3d_flags>
0

> <s_epik_input>
W0NIM11bQ0gyXWMxbmMobltuSF0xKVtDQEBIXTJbQ0gyXVtOSF1bQ0gyXVtDSDJdTzI=

> <s_epik_cmdline>
J2VwaWtfcHl0aG9uJywgJy1waCcsICc3LjAnLCAnLXRuJywgJzgnLCAnLW1hJywgJzIwMCcsICctbWV0YWxfYmluZGluZycsICctaW1hZScsICc8aW5maWxlLm1hZT4nLCAnLW9tYWUnLCAnPG91dGZpbGUubWFlPic=

> <r_lp_tautomer_probability>
0.948284

> <r_epik_Ionization_Penalty>
1.10101

> <r_epik_Ionization_Penalty_Charging>
0

> <r_epik_Ionization_Penalty_Neutral>
1.10101

> <r_epik_State_Penalty>
1.49451

> <r_epik_Charging_Adjusted_Penalty>
1.49451

> <i_epik_Tot_Q>
0

> <i_epik_Tot_abs_Q>
0

> <r_epik_Metal_State_Penalty>
1.71443

> <b_epik_Metal_Only>
0

> <s_lp_Force_Field>
OPLS_2005

> <r_lp_Energy>
11.1302

> <b_lp_Chiralities_Consistent>
1

> <s_lp_Variant>
AV-unprocessed.smi:3085-5

> <Gold.Version>
5.8.1

> <Gold.Id.Protein>
6NUR|6NUR_protein|mol2

> <Gold.PLP.Fitness>
30.6912

> <Gold.PLP.PLP>
-26.5148

> <Gold.PLP.part.hbond>
-2.0000

> <Gold.PLP.part.metal>
0.0000

> <Gold.PLP.part.buried>
-4.0662

> <Gold.PLP.part.nonpolar>
-19.1472

> <Gold.PLP.part.repulsive>
0.1090

> <Gold.PLP.ligand.clash>
0.0000

> <Gold.PLP.ligand.torsion>
0.6780

> <Gold.PLP.Chemscore.Hbond>
1.8400

> <Gold.PLP.Chemscore.CHOScore>
0.0000

> <Gold.PLP.Chemscore.Metal>
0.0000

> <Gold.Chemscore.Hbonds>
donor molecule, donor type, donor heavy atom, donor atom, acceptor molecule, acceptor atom, score
      P1  H  7989  7998       L1     8  0.86
      P1  H  7997  8009       L1    12  0.98

> <Gold.PLP.Chemscore.Internal.Correction>
0.0123

> <Gold.Rescore>
     Score         DG    S(hbond)    S(metal)    S(lipo)     H(rot)  DE(clash)    DE(int)     intcor
     10.50     -10.87       0.80        0.00      51.12       1.28       0.01       0.36       ----

> <Gold.Chemscore.Fitness>
10.4999

> <Gold.Chemscore.DG>
-10.8676

> <Gold.Chemscore.ZeroCoef>
-5.4800

> <Gold.Chemscore.Hbond>
0.8044

> <Gold.Chemscore.Metal>
0.0000

> <Gold.Chemscore.Lipo>
51.1237

> <Gold.Chemscore.Internal_Hbond>
0.0000

> <Gold.Chemscore.DEClash>
0.0075

> <Gold.Chemscore.DEInternal>
0.3603

> <Gold.Chemscore.Rot>
1.2815

> <Gold.Chemscore.Internal.Correction>
   9.000000E+99

> <Gold.Chemscore.Hbonds>
donor molecule, donor type, donor heavy atom, donor atom, acceptor molecule, acceptor atom, score
      P1  H  7989  7998       L1     8  0.08
      P1  H  7997  8009       L1    12  0.35

> <Gold.Chemscore.Hbond.Weighted>
-2.6866

> <Gold.Chemscore.Metal.Weighted>
-0.0000

> <Gold.Chemscore.Lipo.Weighted>
-5.9815

> <Gold.Chemscore.Internal_Hbond.Weighted>
0.0000

> <Gold.Chemscore.DEClash.Weighted>
0.0075

> <Gold.Chemscore.DEInternal.Weighted>
0.3603

> <Gold.Chemscore.Rot.Weighted>
3.2805

> <Gold.Chemscore.Internal.Correction.Weighted>
   9.000000E+99

> <Gold.Protein.RotatedTorsions>
[ 6907 6896 6895 6894 ] final   45.01 input  -60.11 | X-H torsion
[ 7974 7965 7964 7962 ] final   58.22 input  175.53 | X-H torsion
[ 8008 7997 7996 7995 ] final  151.11 input   59.86 | X-H torsion
[ 10167 10162 10161 10158 ] final  118.58 input  -65.29 | X-H torsion
[ 10718 10713 10712 10709 ] final   -9.77 input   66.30 | X-H torsion
[ 10763 10752 10751 10750 ] final -106.34 input  -60.55 | X-H torsion
[ 11005 11000 10999 10996 ] final -141.91 input  -57.11 | X-H torsion

> <Gold.Protein.ActiveResidues>
 VAL166  LYS551  ARG553  GLY616  TRP617  ASP618  TYR619  PRO620  LYS621  CYS622 
 ASP623  PHE694  ASN695  SER759  ASP760  ASP761  ALA762  ILE779  LEU786  VAL792 
 PHE793  MET794  SER795  GLU796  ALA797  LYS798  CYS799  TRP800  GLU811  SER814 

> <Gold.Protein.RotatedAtoms>
  152.2394  134.8243  160.0462 H   0  0  0  0  0  0  0  0  0  0  0  0  # atno 6907 bound_to 6896
  151.8963  133.3522  159.3823 H   0  0  0  0  0  0  0  0  0  0  0  0  # atno 6908 bound_to 6896
  150.7049  134.4799  159.5509 H   0  0  0  0  0  0  0  0  0  0  0  0  # atno 6909 bound_to 6896
  145.9206  139.3726  143.0481 H   0  0  0  0  0  0  0  0  0  0  0  0  # atno 7974 bound_to 7965
  156.2688  140.2056  156.6123 H   0  0  0  0  0  0  0  0  0  0  0  0  # atno 8008 bound_to 7997
  154.6821  140.0539  157.0301 H   0  0  0  0  0  0  0  0  0  0  0  0  # atno 8009 bound_to 7997
  155.0985  140.3203  155.4556 H   0  0  0  0  0  0  0  0  0  0  0  0  # atno 8010 bound_to 7997
  139.6102  144.7080  151.2861 H   0  0  0  0  0  0  0  0  0  0  0  0  # atno 10167 bound_to 10162
  156.6833  130.5043  149.5965 H   0  0  0  0  0  0  0  0  0  0  0  0  # atno 10718 bound_to 10713
  154.8006  135.4715  154.0267 H   0  0  0  0  0  0  0  0  0  0  0  0  # atno 10763 bound_to 10752
  153.1775  135.6835  153.8530 H   0  0  0  0  0  0  0  0  0  0  0  0  # atno 10764 bound_to 10752
  153.8091  135.3219  155.3376 H   0  0  0  0  0  0  0  0  0  0  0  0  # atno 10765 bound_to 10752
  140.8278  134.2554  157.4871 H   0  0  0  0  0  0  0  0  0  0  0  0  # atno 11005 bound_to 11000
  145.8555  140.9505  143.0727 LP  0  0  0  0  0  0  0  0  0  0  0  0  # atno 17320 bound_to 7965
  144.6752  140.0463  143.7480 LP  0  0  0  0  0  0  0  0  0  0  0  0  # atno 17321 bound_to 7965
  140.7313  143.6854  150.7966 LP  0  0  0  0  0  0  0  0  0  0  0  0  # atno 17342 bound_to 10162
  140.0447  143.5310  152.2701 LP  0  0  0  0  0  0  0  0  0  0  0  0  # atno 17343 bound_to 10162
  156.1852  130.6524  151.0997 LP  0  0  0  0  0  0  0  0  0  0  0  0  # atno 17370 bound_to 10713
  157.7036  131.0766  150.6741 LP  0  0  0  0  0  0  0  0  0  0  0  0  # atno 17371 bound_to 10713
  139.8706  134.9570  156.4254 LP  0  0  0  0  0  0  0  0  0  0  0  0  # atno 17394 bound_to 11000
  140.9031  133.7765  155.9703 LP  0  0  0  0  0  0  0  0  0  0  0  0  # atno 17395 bound_to 11000

$$$$
