AV-unprocessed.smi:2838|AV-procd|sdf|10929|dock6
  -GOLD-   2272015373D 1   1.00000     0.00000
 Structure written by MMmdl.
 48 49  0  0  0  0  0  0  0  0  1 V2000
  146.3149  142.1580  153.8308 C   0  0  0  0  0  0  0  0  0  0  0  0
  146.9316  140.7670  154.0585 C   0  0  1  0  0  0  0  0  0  0  0  0
  146.4103  139.8673  153.0281 N   0  0  0  0  0  0  0  0  0  0  0  0
  146.3303  138.5309  153.1150 C   0  0  0  0  0  0  0  0  0  0  0  0
  146.6938  137.8877  154.0989 O   0  0  0  0  0  0  0  0  0  0  0  0
  145.7959  138.0060  151.9992 N   0  0  0  0  0  0  0  0  0  0  0  0
  145.5598  136.6393  151.6900 C   0  0  0  0  0  0  0  0  0  0  0  0
  146.0231  135.6487  152.5786 C   0  0  0  0  0  0  0  0  0  0  0  0
  145.8214  134.3337  152.3528 N   0  0  0  0  0  0  0  0  0  0  0  0
  145.1215  133.9902  151.2636 C   0  0  0  0  0  0  0  0  0  0  0  0
  145.0236  132.4903  150.9337 C   0  0  0  0  0  0  0  0  0  0  0  0
  145.7704  132.1603  149.6198 C   0  0  0  0  0  0  0  0  0  0  0  0
  143.5541  132.0627  150.7085 C   0  0  0  0  0  0  0  0  0  0  0  0
  145.6243  131.6700  152.0901 C   0  0  0  0  0  0  0  0  0  0  0  0
  144.6634  134.8478  150.3420 N   0  0  0  0  0  0  0  0  0  0  0  0
  144.8601  136.1665  150.5542 C   0  0  0  0  0  0  0  0  0  0  0  0
  148.4839  140.7743  154.0464 C   0  0  0  0  0  0  0  0  0  0  0  0
  149.0871  139.3538  153.9893 C   0  0  0  0  0  0  0  0  0  0  0  0
  150.6219  139.3926  154.0619 C   0  0  0  0  0  0  0  0  0  0  0  0
  151.0355  140.0631  155.2454 O   0  0  0  0  0  0  0  0  0  0  0  0
  150.6133  141.4204  155.2802 C   0  0  0  0  0  0  0  0  0  0  0  0
  149.0780  141.4968  155.2727 C   0  0  0  0  0  0  0  0  0  0  0  0
  146.5556  142.8456  154.6412 H   0  0  0  0  0  0  0  0  0  0  0  0
  145.2269  142.0991  153.7813 H   0  0  0  0  0  0  0  0  0  0  0  0
  146.6658  142.6017  152.8986 H   0  0  0  0  0  0  0  0  0  0  0  0
  146.6047  140.4259  155.0421 H   0  0  0  0  0  0  0  0  0  0  0  0
  146.0842  140.3018  152.1774 H   0  0  0  0  0  0  0  0  0  0  0  0
  145.4840  138.6669  151.3029 H   0  0  0  0  0  0  0  0  0  0  0  0
  146.5683  135.9099  153.4740 H   0  0  0  0  0  0  0  0  0  0  0  0
  145.6659  131.1070  149.3576 H   0  0  0  0  0  0  0  0  0  0  0  0
  146.8399  132.3600  149.6956 H   0  0  0  0  0  0  0  0  0  0  0  0
  145.3830  132.7456  148.7849 H   0  0  0  0  0  0  0  0  0  0  0  0
  143.0884  132.6430  149.9109 H   0  0  0  0  0  0  0  0  0  0  0  0
  142.9491  132.1898  151.6069 H   0  0  0  0  0  0  0  0  0  0  0  0
  143.4853  131.0103  150.4307 H   0  0  0  0  0  0  0  0  0  0  0  0
  145.5733  130.5998  151.8875 H   0  0  0  0  0  0  0  0  0  0  0  0
  145.0918  131.8543  153.0238 H   0  0  0  0  0  0  0  0  0  0  0  0
  146.6721  131.9245  152.2537 H   0  0  0  0  0  0  0  0  0  0  0  0
  144.4384  136.8227  149.8096 H   0  0  0  0  0  0  0  0  0  0  0  0
  148.8120  141.3079  153.1528 H   0  0  0  0  0  0  0  0  0  0  0  0
  148.7009  138.7563  154.8163 H   0  0  0  0  0  0  0  0  0  0  0  0
  148.7925  138.8427  153.0727 H   0  0  0  0  0  0  0  0  0  0  0  0
  151.0205  138.3782  154.0753 H   0  0  0  0  0  0  0  0  0  0  0  0
  151.0415  139.8865  153.1842 H   0  0  0  0  0  0  0  0  0  0  0  0
  151.0054  141.8858  156.1847 H   0  0  0  0  0  0  0  0  0  0  0  0
  151.0340  141.9661  154.4342 H   0  0  0  0  0  0  0  0  0  0  0  0
  148.7814  142.5450  155.2865 H   0  0  0  0  0  0  0  0  0  0  0  0
  148.6897  141.0497  156.1889 H   0  0  0  0  0  0  0  0  0  0  0  0
  1  2  1  0  0  0  0
  1 23  1  0  0  0  0
  1 24  1  0  0  0  0
  1 25  1  0  0  0  0
  2  3  1  0  0  0  0
  2 17  1  0  0  0  0
  2 26  1  0  0  0  0
  3  4  1  0  0  0  0
  3 27  1  0  0  0  0
  4  5  2  0  0  0  0
  4  6  1  0  0  0  0
  6  7  1  0  0  0  0
  6 28  1  0  0  0  0
  7 16  1  0  0  0  0
  7  8  2  0  0  0  0
  8  9  1  0  0  0  0
  8 29  1  0  0  0  0
  9 10  2  0  0  0  0
 10 11  1  0  0  0  0
 10 15  1  0  0  0  0
 11 12  1  0  0  0  0
 11 13  1  0  0  0  0
 11 14  1  0  0  0  0
 12 30  1  0  0  0  0
 12 31  1  0  0  0  0
 12 32  1  0  0  0  0
 13 33  1  0  0  0  0
 13 34  1  0  0  0  0
 13 35  1  0  0  0  0
 14 36  1  0  0  0  0
 14 37  1  0  0  0  0
 14 38  1  0  0  0  0
 15 16  2  0  0  0  0
 16 39  1  0  0  0  0
 17 22  1  0  0  0  0
 17 18  1  0  0  0  0
 17 40  1  0  0  0  0
 18 19  1  0  0  0  0
 18 41  1  0  0  0  0
 18 42  1  0  0  0  0
 19 20  1  0  0  0  0
 19 43  1  0  0  0  0
 19 44  1  0  0  0  0
 20 21  1  0  0  0  0
 21 22  1  0  0  0  0
 21 45  1  0  0  0  0
 21 46  1  0  0  0  0
 22 47  1  0  0  0  0
 22 48  1  0  0  0  0
M  END
> <s_m_source_file>
AV-unprocessed.smi

> <i_m_source_file_index>
2838

> <i_lp_mmshare_version>
43012

> <i_f3d_flags>
0

> <s_epik_input>
W0NIMl0xW0NIMl1PW0NIMl1bQ0gyXVtDSF0xW0NASF0oW0NIM10pW05IXUMoPU8pW05IXWMyW2NIXW5jKEMoW0NIM10pKFtDSDNdKVtDSDNdKW5bY0hdMg==

> <s_epik_cmdline>
J2VwaWtfcHl0aG9uJywgJy1waCcsICc3LjAnLCAnLXRuJywgJzgnLCAnLW1hJywgJzIwMCcsICctbWV0YWxfYmluZGluZycsICctaW1hZScsICc8aW5maWxlLm1hZT4nLCAnLW9tYWUnLCAnPG91dGZpbGUubWFlPic=

> <r_lp_tautomer_probability>
1

> <r_epik_Ionization_Penalty>
2.74753e-05

> <r_epik_Ionization_Penalty_Charging>
0

> <r_epik_Ionization_Penalty_Neutral>
2.74753e-05

> <r_epik_State_Penalty>
-0

> <r_epik_Charging_Adjusted_Penalty>
0

> <i_epik_Tot_Q>
0

> <i_epik_Tot_abs_Q>
0

> <r_epik_Metal_State_Penalty>
-0

> <b_epik_Metal_Only>
0

> <s_lp_Force_Field>
OPLS_2005

> <r_lp_Energy>
9.11835

> <b_lp_Chiralities_Consistent>
1

> <s_lp_Variant>
AV-unprocessed.smi:2838-2

> <Gold.Version>
5.8.1

> <Gold.Id.Protein>
6NUR|6NUR_protein|mol2

> <Gold.PLP.Fitness>
40.9763

> <Gold.PLP.PLP>
-38.5427

> <Gold.PLP.part.hbond>
-2.0000

> <Gold.PLP.part.metal>
0.0000

> <Gold.PLP.part.buried>
-2.6516

> <Gold.PLP.part.nonpolar>
-35.3036

> <Gold.PLP.part.repulsive>
1.6559

> <Gold.PLP.ligand.clash>
0.0000

> <Gold.PLP.ligand.torsion>
0.5282

> <Gold.PLP.Chemscore.Hbond>
0.1716

> <Gold.PLP.Chemscore.CHOScore>
0.9415

> <Gold.PLP.Chemscore.Metal>
0.0000

> <Gold.Chemscore.Hbonds>
donor molecule, donor type, donor heavy atom, donor atom, acceptor molecule, acceptor atom, score
      L1  H     3    27       P1 10175  0.01
      L1  H     6    28       P1 10171  0.41
      L1  C     8    29       P1  7948  0.02
      L1  C    16    39       P1 10171  0.50

> <Gold.PLP.Chemscore.Internal.Correction>
0.1508

> <Gold.Rescore>
     Score         DG    S(hbond)    S(metal)    S(lipo)     H(rot)  DE(clash)    DE(int)     intcor
     10.77     -13.96       0.06        0.00      99.84       1.34       1.20       1.99       ----

> <Gold.Chemscore.Fitness>
10.7660

> <Gold.Chemscore.DG>
-13.9553

> <Gold.Chemscore.ZeroCoef>
-5.4800

> <Gold.Chemscore.Hbond>
0.0636

> <Gold.Chemscore.Metal>
0.0000

> <Gold.Chemscore.Lipo>
99.8415

> <Gold.Chemscore.Internal_Hbond>
0.0000

> <Gold.Chemscore.DEClash>
1.2005

> <Gold.Chemscore.DEInternal>
1.9887

> <Gold.Chemscore.Rot>
1.3354

> <Gold.Chemscore.Internal.Correction>
   9.000000E+99

> <Gold.Chemscore.Hbonds>
donor molecule, donor type, donor heavy atom, donor atom, acceptor molecule, acceptor atom, score
      L1  H     3    27       P1 10175  0.01
      L1  H     6    28       P1 10171  0.40

> <Gold.Chemscore.Hbond.Weighted>
-0.2123

> <Gold.Chemscore.Metal.Weighted>
-0.0000

> <Gold.Chemscore.Lipo.Weighted>
-11.6815

> <Gold.Chemscore.Internal_Hbond.Weighted>
0.0000

> <Gold.Chemscore.DEClash.Weighted>
1.2005

> <Gold.Chemscore.DEInternal.Weighted>
1.9887

> <Gold.Chemscore.Rot.Weighted>
3.4185

> <Gold.Chemscore.Internal.Correction.Weighted>
   9.000000E+99

> <Gold.Protein.RotatedTorsions>
[ 6907 6896 6895 6894 ] final   41.06 input  -60.11 | X-H torsion
[ 7974 7965 7964 7962 ] final   33.94 input  175.53 | X-H torsion
[ 8008 7997 7996 7995 ] final  137.86 input   59.86 | X-H torsion
[ 10167 10162 10161 10158 ] final  -72.38 input  -65.29 | X-H torsion
[ 10718 10713 10712 10709 ] final  -40.04 input   66.30 | X-H torsion
[ 10763 10752 10751 10750 ] final  -35.48 input  -60.55 | X-H torsion
[ 11005 11000 10999 10996 ] final  130.11 input  -57.11 | X-H torsion

> <Gold.Protein.ActiveResidues>
 VAL166  LYS551  ARG553  GLY616  TRP617  ASP618  TYR619  PRO620  LYS621  CYS622 
 ASP623  PHE694  ASN695  SER759  ASP760  ASP761  ALA762  ILE779  LEU786  VAL792 
 PHE793  MET794  SER795  GLU796  ALA797  LYS798  CYS799  TRP800  GLU811  SER814 

> <Gold.Protein.RotatedAtoms>
  152.1905  134.8676  160.0517 H   0  0  0  0  0  0  0  0  0  0  0  0  # atno 6907 bound_to 6896
  151.9567  133.3677  159.4028 H   0  0  0  0  0  0  0  0  0  0  0  0  # atno 6908 bound_to 6896
  150.6934  134.4207  159.5247 H   0  0  0  0  0  0  0  0  0  0  0  0  # atno 6909 bound_to 6896
  146.1387  139.6333  142.9178 H   0  0  0  0  0  0  0  0  0  0  0  0  # atno 7974 bound_to 7965
  156.3000  140.2408  156.3978 H   0  0  0  0  0  0  0  0  0  0  0  0  # atno 8008 bound_to 7997
  154.8555  140.0422  157.1651 H   0  0  0  0  0  0  0  0  0  0  0  0  # atno 8009 bound_to 7997
  154.8953  140.2969  155.5351 H   0  0  0  0  0  0  0  0  0  0  0  0  # atno 8010 bound_to 7997
  140.5197  143.2333  151.7451 H   0  0  0  0  0  0  0  0  0  0  0  0  # atno 10167 bound_to 10162
  156.2857  130.4222  149.8290 H   0  0  0  0  0  0  0  0  0  0  0  0  # atno 10718 bound_to 10713
  153.8639  135.6837  153.4780 H   0  0  0  0  0  0  0  0  0  0  0  0  # atno 10763 bound_to 10752
  153.1326  135.4691  154.9370 H   0  0  0  0  0  0  0  0  0  0  0  0  # atno 10764 bound_to 10752
  154.7746  135.3249  154.8069 H   0  0  0  0  0  0  0  0  0  0  0  0  # atno 10765 bound_to 10752
  139.9653  134.9592  156.9245 H   0  0  0  0  0  0  0  0  0  0  0  0  # atno 11005 bound_to 11000
  145.5097  141.0436  143.2494 LP  0  0  0  0  0  0  0  0  0  0  0  0  # atno 17320 bound_to 7965
  144.7768  139.6613  143.7171 LP  0  0  0  0  0  0  0  0  0  0  0  0  # atno 17321 bound_to 7965
  139.4920  144.4272  151.9912 LP  0  0  0  0  0  0  0  0  0  0  0  0  # atno 17342 bound_to 10162
  140.3368  144.3251  150.5975 LP  0  0  0  0  0  0  0  0  0  0  0  0  # atno 17343 bound_to 10162
  156.5721  130.8429  151.3359 LP  0  0  0  0  0  0  0  0  0  0  0  0  # atno 17370 bound_to 10713
  157.7328  130.9720  150.1945 LP  0  0  0  0  0  0  0  0  0  0  0  0  # atno 17371 bound_to 10713
  140.5410  134.0720  155.7341 LP  0  0  0  0  0  0  0  0  0  0  0  0  # atno 17394 bound_to 11000
  141.1332  133.9266  157.2490 LP  0  0  0  0  0  0  0  0  0  0  0  0  # atno 17395 bound_to 11000

$$$$
