AV-unprocessed.smi:1334|AV-procd|sdf|5493|dock10
  -GOLD-   22720 5 73D 1   1.00000     0.00000
 Structure written by MMmdl.
 38 39  0  0  0  0  0  0  0  0  1 V2000
  147.5491  142.3441  154.4823 C   0  0  0  0  0  0  0  0  0  0  0  0
  148.4651  141.1725  154.0726 C   0  0  1  0  0  0  0  0  0  0  0  0
  149.7134  141.0591  154.9598 C   0  0  0  0  0  0  0  0  0  0  0  0
  150.5205  140.1447  154.7907 O   0  0  0  0  0  0  0  0  0  0  0  0
  149.8609  142.0106  155.8960 N   0  0  0  0  0  0  0  0  0  0  0  0
  151.0017  142.1536  156.7962 C   0  0  0  0  0  0  0  0  0  0  0  0
  151.1413  143.6001  157.3049 C   0  0  0  0  0  0  0  0  0  0  0  0
  151.7022  143.7064  158.7156 C   0  0  0  0  0  0  0  0  0  0  0  0
  152.3584  142.6853  159.3010 C   0  0  0  0  0  0  0  0  0  0  0  0
  152.9217  142.7324  160.7096 C   0  0  0  0  0  0  0  0  0  0  0  0
  152.3367  143.8939  161.5284 C   0  0  0  0  0  0  0  0  0  0  0  0
  152.3212  145.1882  160.7063 C   0  0  0  0  0  0  0  0  0  0  0  0
  151.4743  145.0344  159.4299 C   0  0  0  0  0  0  0  0  0  0  0  0
  147.7559  139.8990  154.0441 N   0  0  0  0  0  0  0  0  0  0  0  0
  146.6397  139.5550  153.3983 C   0  0  0  0  0  0  0  0  0  0  0  0
  146.2897  138.2872  153.5636 N   0  0  0  0  0  0  0  0  0  0  0  0
  147.3133  137.8715  154.3670 C   0  0  0  0  0  0  0  0  0  0  0  0
  148.2262  138.7928  154.6733 N   0  0  0  0  0  0  0  0  0  0  0  0
  148.0857  143.2926  154.4440 H   0  0  0  0  0  0  0  0  0  0  0  0
  147.1581  142.2273  155.4941 H   0  0  0  0  0  0  0  0  0  0  0  0
  146.6967  142.4241  153.8072 H   0  0  0  0  0  0  0  0  0  0  0  0
  148.8041  141.3715  153.0545 H   0  0  0  0  0  0  0  0  0  0  0  0
  149.1422  142.7161  155.9650 H   0  0  0  0  0  0  0  0  0  0  0  0
  150.8462  141.4857  157.6436 H   0  0  0  0  0  0  0  0  0  0  0  0
  151.9301  141.8275  156.3249 H   0  0  0  0  0  0  0  0  0  0  0  0
  151.7797  144.1602  156.6201 H   0  0  0  0  0  0  0  0  0  0  0  0
  150.1692  144.0934  157.2807 H   0  0  0  0  0  0  0  0  0  0  0  0
  152.5159  141.7644  158.7588 H   0  0  0  0  0  0  0  0  0  0  0  0
  152.7235  141.7861  161.2113 H   0  0  0  0  0  0  0  0  0  0  0  0
  154.0052  142.8292  160.6366 H   0  0  0  0  0  0  0  0  0  0  0  0
  151.3180  143.6499  161.8329 H   0  0  0  0  0  0  0  0  0  0  0  0
  152.9106  144.0309  162.4454 H   0  0  0  0  0  0  0  0  0  0  0  0
  151.9413  146.0154  161.3065 H   0  0  0  0  0  0  0  0  0  0  0  0
  153.3444  145.4496  160.4337 H   0  0  0  0  0  0  0  0  0  0  0  0
  151.6912  145.8572  158.7483 H   0  0  0  0  0  0  0  0  0  0  0  0
  150.4176  145.1085  159.6844 H   0  0  0  0  0  0  0  0  0  0  0  0
  146.0715  140.2464  152.7936 H   0  0  0  0  0  0  0  0  0  0  0  0
  147.3945  136.8566  154.7268 H   0  0  0  0  0  0  0  0  0  0  0  0
  1  2  1  0  0  0  0
  1 19  1  0  0  0  0
  1 20  1  0  0  0  0
  1 21  1  0  0  0  0
  2  3  1  0  0  0  0
  2 14  1  0  0  0  0
  2 22  1  0  0  0  0
  3  4  2  0  0  0  0
  3  5  1  0  0  0  0
  5  6  1  0  0  0  0
  5 23  1  0  0  0  0
  6  7  1  0  0  0  0
  6 24  1  0  0  0  0
  6 25  1  0  0  0  0
  7  8  1  0  0  0  0
  7 26  1  0  0  0  0
  7 27  1  0  0  0  0
  8 13  1  0  0  0  0
  8  9  2  0  0  0  0
  9 10  1  0  0  0  0
  9 28  1  0  0  0  0
 10 11  1  0  0  0  0
 10 29  1  0  0  0  0
 10 30  1  0  0  0  0
 11 12  1  0  0  0  0
 11 31  1  0  0  0  0
 11 32  1  0  0  0  0
 12 13  1  0  0  0  0
 12 33  1  0  0  0  0
 12 34  1  0  0  0  0
 13 35  1  0  0  0  0
 13 36  1  0  0  0  0
 14 18  1  0  0  0  0
 14 15  1  0  0  0  0
 15 16  2  0  0  0  0
 15 37  1  0  0  0  0
 16 17  1  0  0  0  0
 17 18  2  0  0  0  0
 17 38  1  0  0  0  0
M  END
> <s_m_source_file>
AV-unprocessed.smi

> <i_m_source_file_index>
1334

> <i_lp_mmshare_version>
43012

> <i_f3d_flags>
0

> <s_epik_input>
bjFbY0hdbltjSF1uMVtDQEhdKFtDSDNdKUMoPU8pW05IXVtDSDJdW0NIMl1DMj1bQ0hdW0NIMl1bQ0gyXVtDSDJdW0NIMl0y

> <s_epik_cmdline>
J2VwaWtfcHl0aG9uJywgJy1waCcsICc3LjAnLCAnLXRuJywgJzgnLCAnLW1hJywgJzIwMCcsICctbWV0YWxfYmluZGluZycsICctaW1hZScsICc8aW5maWxlLm1hZT4nLCAnLW9tYWUnLCAnPG91dGZpbGUubWFlPic=

> <r_lp_tautomer_probability>
1

> <r_epik_Ionization_Penalty>
1.26383e-05

> <r_epik_Ionization_Penalty_Charging>
0

> <r_epik_Ionization_Penalty_Neutral>
1.26383e-05

> <r_epik_State_Penalty>
-0

> <r_epik_Charging_Adjusted_Penalty>
0

> <i_epik_Tot_Q>
0

> <i_epik_Tot_abs_Q>
0

> <r_epik_Metal_State_Penalty>
-0

> <b_epik_Metal_Only>
0

> <s_lp_Force_Field>
OPLS_2005

> <r_lp_Energy>
11.5149

> <b_lp_Chiralities_Consistent>
1

> <s_lp_Variant>
AV-unprocessed.smi:1334-2

> <Gold.Version>
5.8.1

> <Gold.Id.Protein>
6NUR|6NUR_protein|mol2

> <Gold.PLP.Fitness>
45.8700

> <Gold.PLP.PLP>
-39.6064

> <Gold.PLP.part.hbond>
-2.0000

> <Gold.PLP.part.metal>
0.0000

> <Gold.PLP.part.buried>
-0.2956

> <Gold.PLP.part.nonpolar>
-37.8660

> <Gold.PLP.part.repulsive>
0.5172

> <Gold.PLP.ligand.clash>
0.7171

> <Gold.PLP.ligand.torsion>
0.7746

> <Gold.PLP.Chemscore.Hbond>
1.8160

> <Gold.PLP.Chemscore.CHOScore>
0.9914

> <Gold.PLP.Chemscore.Metal>
0.0000

> <Gold.Chemscore.Hbonds>
donor molecule, donor type, donor heavy atom, donor atom, acceptor molecule, acceptor atom, score
      L1  H     5    23       P1  8028  0.78
      P1  H  7989  7998       L1     4  1.00
      L1  C    15    37       P1 10175  1.00

> <Gold.PLP.Chemscore.Internal.Correction>
0.1079

> <Gold.Rescore>
     Score         DG    S(hbond)    S(metal)    S(lipo)     H(rot)  DE(clash)    DE(int)     intcor
     12.40     -15.95       1.38        0.00     102.62       2.40       1.62       1.93       ----

> <Gold.Chemscore.Fitness>
12.4035

> <Gold.Chemscore.DG>
-15.9538

> <Gold.Chemscore.ZeroCoef>
-5.4800

> <Gold.Chemscore.Hbond>
1.3816

> <Gold.Chemscore.Metal>
0.0000

> <Gold.Chemscore.Lipo>
102.6171

> <Gold.Chemscore.Internal_Hbond>
0.0000

> <Gold.Chemscore.DEClash>
1.6168

> <Gold.Chemscore.DEInternal>
1.9336

> <Gold.Chemscore.Rot>
2.4011

> <Gold.Chemscore.Internal.Correction>
   9.000000E+99

> <Gold.Chemscore.Hbonds>
donor molecule, donor type, donor heavy atom, donor atom, acceptor molecule, acceptor atom, score
      L1  H     5    23       P1  8028  0.73
      P1  H  7989  7998       L1     4  0.30

> <Gold.Chemscore.Hbond.Weighted>
-4.6145

> <Gold.Chemscore.Metal.Weighted>
-0.0000

> <Gold.Chemscore.Lipo.Weighted>
-12.0062

> <Gold.Chemscore.Internal_Hbond.Weighted>
0.0000

> <Gold.Chemscore.DEClash.Weighted>
1.6168

> <Gold.Chemscore.DEInternal.Weighted>
1.9336

> <Gold.Chemscore.Rot.Weighted>
6.1469

> <Gold.Chemscore.Internal.Correction.Weighted>
   9.000000E+99

> <Gold.Protein.RotatedTorsions>
[ 6907 6896 6895 6894 ] final  -86.85 input  -60.11 | X-H torsion
[ 7974 7965 7964 7962 ] final   51.26 input  175.53 | X-H torsion
[ 8008 7997 7996 7995 ] final -126.21 input   59.86 | X-H torsion
[ 10167 10162 10161 10158 ] final   64.89 input  -65.29 | X-H torsion
[ 10718 10713 10712 10709 ] final   88.96 input   66.30 | X-H torsion
[ 10763 10752 10751 10750 ] final  -62.47 input  -60.55 | X-H torsion
[ 11005 11000 10999 10996 ] final   25.25 input  -57.11 | X-H torsion

> <Gold.Protein.ActiveResidues>
 VAL166  LYS551  ARG553  GLY616  TRP617  ASP618  TYR619  PRO620  LYS621  CYS622 
 ASP623  PHE694  ASN695  SER759  ASP760  ASP761  ALA762  ILE779  LEU786  VAL792 
 PHE793  MET794  SER795  GLU796  ALA797  LYS798  CYS799  TRP800  GLU811  SER814 

> <Gold.Protein.RotatedAtoms>
  150.6866  134.2987  159.4696 H   0  0  0  0  0  0  0  0  0  0  0  0  # atno 6907 bound_to 6896
  152.0885  134.9421  160.0581 H   0  0  0  0  0  0  0  0  0  0  0  0  # atno 6908 bound_to 6896
  152.0746  133.4088  159.4511 H   0  0  0  0  0  0  0  0  0  0  0  0  # atno 6909 bound_to 6896
  145.9931  139.4359  143.0061 H   0  0  0  0  0  0  0  0  0  0  0  0  # atno 7974 bound_to 7965
  155.2259  140.0423  157.2955 H   0  0  0  0  0  0  0  0  0  0  0  0  # atno 8008 bound_to 7997
  154.5919  140.2429  155.7879 H   0  0  0  0  0  0  0  0  0  0  0  0  # atno 8009 bound_to 7997
  156.2265  140.2953  156.0088 H   0  0  0  0  0  0  0  0  0  0  0  0  # atno 8010 bound_to 7997
  140.1173  144.4764  150.6942 H   0  0  0  0  0  0  0  0  0  0  0  0  # atno 10167 bound_to 10162
  157.6952  131.0315  150.3353 H   0  0  0  0  0  0  0  0  0  0  0  0  # atno 10718 bound_to 10713
  154.3003  135.6236  153.5422 H   0  0  0  0  0  0  0  0  0  0  0  0  # atno 10763 bound_to 10752
  152.9841  135.5677  154.5291 H   0  0  0  0  0  0  0  0  0  0  0  0  # atno 10764 bound_to 10752
  154.4920  135.2868  155.1465 H   0  0  0  0  0  0  0  0  0  0  0  0  # atno 10765 bound_to 10752
  140.3499  134.2240  155.7681 H   0  0  0  0  0  0  0  0  0  0  0  0  # atno 11005 bound_to 11000
  145.7600  140.9939  143.1205 LP  0  0  0  0  0  0  0  0  0  0  0  0  # atno 17320 bound_to 7965
  144.6895  139.9319  143.7472 LP  0  0  0  0  0  0  0  0  0  0  0  0  # atno 17321 bound_to 7965
  140.6892  143.2366  151.5177 LP  0  0  0  0  0  0  0  0  0  0  0  0  # atno 17342 bound_to 10162
  139.5587  144.2210  152.1656 LP  0  0  0  0  0  0  0  0  0  0  0  0  # atno 17343 bound_to 10162
  156.3821  130.3882  149.7093 LP  0  0  0  0  0  0  0  0  0  0  0  0  # atno 17370 bound_to 10713
  156.4472  130.7889  151.2911 LP  0  0  0  0  0  0  0  0  0  0  0  0  # atno 17371 bound_to 10713
  141.2015  133.7961  157.0437 LP  0  0  0  0  0  0  0  0  0  0  0  0  # atno 17394 bound_to 11000
  140.0712  134.9701  157.1469 LP  0  0  0  0  0  0  0  0  0  0  0  0  # atno 17395 bound_to 11000

$$$$
