AV-unprocessed.smi:2063|AV-procd|sdf|8414|dock2
  -GOLD-   2272011103D 1   1.00000     0.00000
 Structure written by MMmdl.
 38 39  0  0  0  0  0  0  0  0  2 V2000
  145.5040  132.2369  161.7828 C   0  0  0  0  0  0  0  0  0  0  0  0
  145.6796  133.6372  162.3882 C   0  0  0  0  0  0  0  0  0  0  0  0
  144.3458  134.3349  162.6909 C   0  0  0  0  0  0  0  0  0  0  0  0
  146.5916  134.4961  161.5690 C   0  0  0  0  0  0  0  0  0  0  0  0
  147.0150  134.1554  160.3477 N   0  0  0  0  0  0  0  0  0  0  0  0
  147.8482  135.1164  159.7941 N   0  0  0  0  0  0  0  0  0  0  0  0
  148.0370  136.1733  160.5960 C   0  0  0  0  0  0  0  0  0  0  0  0
  148.8135  137.2124  160.2471 N   0  5  0  0  0  0  0  0  0  0  0  0
  149.6959  137.0860  159.2299 C   0  0  0  0  0  0  0  0  0  0  0  0
  149.8778  136.0791  158.5415 O   0  0  0  0  0  0  0  0  0  0  0  0
  150.4115  138.1959  158.9969 N   0  0  0  0  0  0  0  0  0  0  0  0
  151.4282  138.3689  157.9615 C   0  0  2  0  0  0  0  0  0  0  0  0
  152.4087  137.1826  157.9934 C   0  0  0  0  0  0  0  0  0  0  0  0
  152.1407  139.7177  158.1787 C   0  0  1  0  0  0  0  0  0  0  0  0
  151.2112  140.9303  158.2658 C   0  0  0  0  0  0  0  0  0  0  0  0
  151.9865  141.9257  159.1162 C   0  0  0  0  0  0  0  0  0  0  0  0
  153.1334  141.1013  159.7055 C   0  0  0  0  0  0  0  0  0  0  0  0
  152.7821  139.7509  159.4451 O   0  0  0  0  0  0  0  0  0  0  0  0
  147.1951  136.0435  162.1398 S   0  0  0  0  0  0  0  0  0  0  0  0
  146.4669  131.7403  161.6595 H   0  0  0  0  0  0  0  0  0  0  0  0
  145.0259  132.2850  160.8039 H   0  0  0  0  0  0  0  0  0  0  0  0
  144.8866  131.6068  162.4233 H   0  0  0  0  0  0  0  0  0  0  0  0
  146.1746  133.4940  163.3496 H   0  0  0  0  0  0  0  0  0  0  0  0
  144.5078  135.2873  163.1964 H   0  0  0  0  0  0  0  0  0  0  0  0
  143.7186  133.7200  163.3370 H   0  0  0  0  0  0  0  0  0  0  0  0
  143.7862  134.5341  161.7765 H   0  0  0  0  0  0  0  0  0  0  0  0
  150.2232  138.9953  159.5835 H   0  0  0  0  0  0  0  0  0  0  0  0
  150.9409  138.3944  156.9852 H   0  0  0  0  0  0  0  0  0  0  0  0
  153.1556  137.2625  157.2039 H   0  0  0  0  0  0  0  0  0  0  0  0
  151.8883  136.2353  157.8490 H   0  0  0  0  0  0  0  0  0  0  0  0
  152.9353  137.1299  158.9470 H   0  0  0  0  0  0  0  0  0  0  0  0
  152.8900  139.8820  157.4016 H   0  0  0  0  0  0  0  0  0  0  0  0
  150.9504  141.3282  157.2848 H   0  0  0  0  0  0  0  0  0  0  0  0
  150.2853  140.6612  158.7759 H   0  0  0  0  0  0  0  0  0  0  0  0
  152.3712  142.7540  158.5202 H   0  0  0  0  0  0  0  0  0  0  0  0
  151.3500  142.3409  159.8981 H   0  0  0  0  0  0  0  0  0  0  0  0
  154.0715  141.3308  159.1982 H   0  0  0  0  0  0  0  0  0  0  0  0
  153.2718  141.2751  160.7727 H   0  0  0  0  0  0  0  0  0  0  0  0
  1  2  1  0  0  0  0
  1 20  1  0  0  0  0
  1 21  1  0  0  0  0
  1 22  1  0  0  0  0
  2  3  1  0  0  0  0
  2  4  1  0  0  0  0
  2 23  1  0  0  0  0
  3 24  1  0  0  0  0
  3 25  1  0  0  0  0
  3 26  1  0  0  0  0
  4 19  1  0  0  0  0
  4  5  2  0  0  0  0
  5  6  1  0  0  0  0
  6  7  2  0  0  0  0
  7  8  1  0  0  0  0
  7 19  1  0  0  0  0
  8  9  1  0  0  0  0
  9 10  2  0  0  0  0
  9 11  1  0  0  0  0
 11 12  1  0  0  0  0
 11 27  1  0  0  0  0
 12 13  1  0  0  0  0
 12 14  1  0  0  0  0
 12 28  1  0  0  0  0
 13 29  1  0  0  0  0
 13 30  1  0  0  0  0
 13 31  1  0  0  0  0
 14 18  1  0  0  0  0
 14 15  1  0  0  0  0
 14 32  1  0  0  0  0
 15 16  1  0  0  0  0
 15 33  1  0  0  0  0
 15 34  1  0  0  0  0
 16 17  1  0  0  0  0
 16 35  1  0  0  0  0
 16 36  1  0  0  0  0
 17 18  1  0  0  0  0
 17 37  1  0  0  0  0
 17 38  1  0  0  0  0
M  CHG  1   8  -1
M  END
> <s_m_source_file>
AV-unprocessed.smi

> <i_m_source_file_index>
2063

> <i_lp_mmshare_version>
43012

> <i_f3d_flags>
0

> <s_epik_input>
W0NIM11bQ0hdKFtDSDNdKWMxbm5jKHMxKVtOSF1DKD1PKVtOSF1bQ0BIXShbQ0gzXSlbQ0BASF0yW0NIMl1bQ0gyXVtDSDJdTzI=

> <s_epik_cmdline>
J2VwaWtfcHl0aG9uJywgJy1waCcsICc3LjAnLCAnLXRuJywgJzgnLCAnLW1hJywgJzIwMCcsICctbWV0YWxfYmluZGluZycsICctaW1hZScsICc8aW5maWxlLm1hZT4nLCAnLW9tYWUnLCAnPG91dGZpbGUubWFlPic=

> <r_lp_tautomer_probability>
1

> <r_epik_Ionization_Penalty>
4.37022

> <r_epik_Ionization_Penalty_Charging>
4.21437

> <r_epik_Ionization_Penalty_Neutral>
0.15585

> <r_epik_State_Penalty>
4.21389

> <r_epik_Charging_Adjusted_Penalty>
8.42826

> <i_epik_Tot_Q>
-1

> <i_epik_Tot_abs_Q>
1

> <r_epik_Metal_State_Penalty>
0.693772

> <b_epik_Metal_Only>
1

> <s_lp_Force_Field>
OPLS_2005

> <r_lp_Energy>
10.221

> <b_lp_Chiralities_Consistent>
1

> <s_lp_Variant>
AV-unprocessed.smi:2063-7

> <Gold.Version>
5.8.1

> <Gold.Id.Protein>
6NUR|6NUR_protein|mol2

> <Gold.PLP.Fitness>
39.0910

> <Gold.PLP.PLP>
-32.9320

> <Gold.PLP.part.hbond>
-2.3790

> <Gold.PLP.part.metal>
0.0000

> <Gold.PLP.part.buried>
-5.2603

> <Gold.PLP.part.nonpolar>
-26.4640

> <Gold.PLP.part.repulsive>
0.2173

> <Gold.PLP.ligand.clash>
0.0000

> <Gold.PLP.ligand.torsion>
0.2774

> <Gold.PLP.Chemscore.Hbond>
2.1840

> <Gold.PLP.Chemscore.CHOScore>
0.0000

> <Gold.PLP.Chemscore.Metal>
0.0000

> <Gold.Chemscore.Hbonds>
donor molecule, donor type, donor heavy atom, donor atom, acceptor molecule, acceptor atom, score
      P1  H  6896  6908       L1    10  1.00
      P1  H  6931  6943       L1     8  1.15

> <Gold.PLP.Chemscore.Internal.Correction>
0.1618

> <Gold.Rescore>
     Score         DG    S(hbond)    S(metal)    S(lipo)     H(rot)  DE(clash)    DE(int)     intcor
     12.07     -15.26       1.34        0.00      75.63       1.39       0.06       3.13       ----

> <Gold.Chemscore.Fitness>
12.0675

> <Gold.Chemscore.DG>
-15.2577

> <Gold.Chemscore.ZeroCoef>
-5.4800

> <Gold.Chemscore.Hbond>
1.3430

> <Gold.Chemscore.Metal>
0.0000

> <Gold.Chemscore.Lipo>
75.6301

> <Gold.Chemscore.Internal_Hbond>
0.0000

> <Gold.Chemscore.DEClash>
0.0562

> <Gold.Chemscore.DEInternal>
3.1340

> <Gold.Chemscore.Rot>
1.3893

> <Gold.Chemscore.Internal.Correction>
   9.000000E+99

> <Gold.Chemscore.Hbonds>
donor molecule, donor type, donor heavy atom, donor atom, acceptor molecule, acceptor atom, score
      P1  H  6896  6908       L1    10  0.69
      P1  H  6931  6943       L1     8  0.32

> <Gold.Chemscore.Hbond.Weighted>
-4.4857

> <Gold.Chemscore.Metal.Weighted>
-0.0000

> <Gold.Chemscore.Lipo.Weighted>
-8.8487

> <Gold.Chemscore.Internal_Hbond.Weighted>
0.0000

> <Gold.Chemscore.DEClash.Weighted>
0.0562

> <Gold.Chemscore.DEInternal.Weighted>
3.1340

> <Gold.Chemscore.Rot.Weighted>
3.5567

> <Gold.Chemscore.Internal.Correction.Weighted>
   9.000000E+99

> <Gold.Protein.RotatedTorsions>
[ 6907 6896 6895 6894 ] final  179.63 input  -60.11 | X-H torsion
[ 7974 7965 7964 7962 ] final -135.48 input  175.53 | X-H torsion
[ 8008 7997 7996 7995 ] final  -74.63 input   59.86 | X-H torsion
[ 10167 10162 10161 10158 ] final  -68.55 input  -65.29 | X-H torsion
[ 10718 10713 10712 10709 ] final -163.63 input   66.30 | X-H torsion
[ 10763 10752 10751 10750 ] final -108.77 input  -60.55 | X-H torsion
[ 11005 11000 10999 10996 ] final -122.22 input  -57.11 | X-H torsion

> <Gold.Protein.ActiveResidues>
 VAL166  LYS551  ARG553  GLY616  TRP617  ASP618  TYR619  PRO620  LYS621  CYS622 
 ASP623  PHE694  ASN695  SER759  ASP760  ASP761  ALA762  ILE779  LEU786  VAL792 
 PHE793  MET794  SER795  GLU796  ALA797  LYS798  CYS799  TRP800  GLU811  SER814 

> <Gold.Protein.RotatedAtoms>
  151.6685  133.3314  159.3190 H   0  0  0  0  0  0  0  0  0  0  0  0  # atno 6907 bound_to 6896
  150.7879  134.6882  159.6491 H   0  0  0  0  0  0  0  0  0  0  0  0  # atno 6908 bound_to 6896
  152.3952  134.6380  160.0144 H   0  0  0  0  0  0  0  0  0  0  0  0  # atno 6909 bound_to 6896
  144.9010  140.6771  143.5085 H   0  0  0  0  0  0  0  0  0  0  0  0  # atno 7974 bound_to 7965
  154.5347  140.0758  156.8407 H   0  0  0  0  0  0  0  0  0  0  0  0  # atno 8008 bound_to 7997
  155.3302  140.3401  155.4221 H   0  0  0  0  0  0  0  0  0  0  0  0  # atno 8009 bound_to 7997
  156.1816  140.1654  156.8249 H   0  0  0  0  0  0  0  0  0  0  0  0  # atno 8010 bound_to 7997
  140.5498  143.2312  151.6932 H   0  0  0  0  0  0  0  0  0  0  0  0  # atno 10167 bound_to 10162
  156.6275  130.8916  151.2970 H   0  0  0  0  0  0  0  0  0  0  0  0  # atno 10718 bound_to 10713
  154.8155  135.4625  154.0631 H   0  0  0  0  0  0  0  0  0  0  0  0  # atno 10763 bound_to 10752
  153.2028  135.6871  153.8217 H   0  0  0  0  0  0  0  0  0  0  0  0  # atno 10764 bound_to 10752
  153.7696  135.3272  155.3327 H   0  0  0  0  0  0  0  0  0  0  0  0  # atno 10765 bound_to 10752
  141.0012  134.0400  157.3535 H   0  0  0  0  0  0  0  0  0  0  0  0  # atno 11005 bound_to 11000
  145.3616  139.1680  143.4380 LP  0  0  0  0  0  0  0  0  0  0  0  0  # atno 17320 bound_to 7965
  146.3108  140.3679  142.8671 LP  0  0  0  0  0  0  0  0  0  0  0  0  # atno 17321 bound_to 7965
  139.5023  144.3836  152.0351 LP  0  0  0  0  0  0  0  0  0  0  0  0  # atno 17342 bound_to 10162
  140.2952  144.3709  150.6076 LP  0  0  0  0  0  0  0  0  0  0  0  0  # atno 17343 bound_to 10162
  157.7210  130.9558  150.1438 LP  0  0  0  0  0  0  0  0  0  0  0  0  # atno 17370 bound_to 10713
  156.2262  130.3678  149.8498 LP  0  0  0  0  0  0  0  0  0  0  0  0  # atno 17371 bound_to 10713
  139.9039  135.0174  156.7399 LP  0  0  0  0  0  0  0  0  0  0  0  0  # atno 17394 bound_to 11000
  140.6886  133.9410  155.7953 LP  0  0  0  0  0  0  0  0  0  0  0  0  # atno 17395 bound_to 11000

$$$$
