AV-unprocessed.smi:1419|AV-procd|sdf|5785|dock9
  -GOLD-   22720 5433D 1   1.00000     0.00000
 Structure written by MMmdl.
 41 42  0  0  0  0  0  0  0  0  1 V2000
  151.3066  140.3397  158.0630 C   0  0  0  0  0  0  0  0  0  0  0  0
  150.6266  141.7113  157.9214 C   0  0  1  0  0  0  0  0  0  0  0  0
  151.6285  142.8657  157.6982 C   0  0  0  0  0  0  0  0  0  0  0  0
  151.4881  143.9281  158.6759 N   0  0  0  0  0  0  0  0  0  0  0  0
  152.4611  144.4045  159.5449 C   0  0  0  0  0  0  0  0  0  0  0  0
  151.8740  145.4111  160.2778 C   0  0  0  0  0  0  0  0  0  0  0  0
  150.5502  145.5731  159.8758 N   0  0  0  0  0  0  0  0  0  0  0  0
  150.3951  144.6631  158.9229 C   0  0  0  0  0  0  0  0  0  0  0  0
  149.6699  141.6548  156.8206 N   0  0  0  0  0  0  0  0  0  0  0  0
  149.9090  141.1501  155.5982 C   0  0  0  0  0  0  0  0  0  0  0  0
  151.0028  140.6767  155.2868 O   0  0  0  0  0  0  0  0  0  0  0  0
  148.8535  141.2009  154.7481 N   0  0  0  0  0  0  0  0  0  0  0  0
  147.5991  141.9417  154.9367 C   0  0  0  0  0  0  0  0  0  0  0  0
  146.4689  140.9220  155.1748 C   0  0  1  0  0  0  0  0  0  0  0  0
  145.1015  141.5998  155.3142 C   0  0  0  0  0  0  0  0  0  0  0  0
  146.4018  140.0172  154.0693 O   0  0  0  0  0  0  0  0  0  0  0  0
  147.6183  139.3329  153.7510 C   0  0  2  0  0  0  0  0  0  0  0  0
  147.9329  138.2367  154.7855 C   0  0  0  0  0  0  0  0  0  0  0  0
  148.7576  140.3562  153.5554 C   0  0  0  0  0  0  0  0  0  0  0  0
  151.9618  140.3051  158.9336 H   0  0  0  0  0  0  0  0  0  0  0  0
  151.9072  140.1030  157.1842 H   0  0  0  0  0  0  0  0  0  0  0  0
  150.5677  139.5469  158.1847 H   0  0  0  0  0  0  0  0  0  0  0  0
  150.0769  141.8992  158.8457 H   0  0  0  0  0  0  0  0  0  0  0  0
  152.6524  142.4913  157.7396 H   0  0  0  0  0  0  0  0  0  0  0  0
  151.4968  143.3025  156.7071 H   0  0  0  0  0  0  0  0  0  0  0  0
  153.4612  143.9976  159.5715 H   0  0  0  0  0  0  0  0  0  0  0  0
  152.2994  146.0270  161.0563 H   0  0  0  0  0  0  0  0  0  0  0  0
  149.4636  144.5253  158.3934 H   0  0  0  0  0  0  0  0  0  0  0  0
  148.7486  142.0259  157.0020 H   0  0  0  0  0  0  0  0  0  0  0  0
  147.6297  142.6617  155.7543 H   0  0  0  0  0  0  0  0  0  0  0  0
  147.3926  142.5286  154.0402 H   0  0  0  0  0  0  0  0  0  0  0  0
  146.6665  140.3648  156.0911 H   0  0  0  0  0  0  0  0  0  0  0  0
  145.0910  142.2947  156.1541 H   0  0  0  0  0  0  0  0  0  0  0  0
  144.3176  140.8615  155.4840 H   0  0  0  0  0  0  0  0  0  0  0  0
  144.8437  142.1583  154.4138 H   0  0  0  0  0  0  0  0  0  0  0  0
  147.4489  138.8338  152.7964 H   0  0  0  0  0  0  0  0  0  0  0  0
  148.8095  137.6623  154.4848 H   0  0  0  0  0  0  0  0  0  0  0  0
  147.0989  137.5409  154.8782 H   0  0  0  0  0  0  0  0  0  0  0  0
  148.1371  138.6437  155.7754 H   0  0  0  0  0  0  0  0  0  0  0  0
  148.5453  140.9862  152.6905 H   0  0  0  0  0  0  0  0  0  0  0  0
  149.6901  139.8403  153.3217 H   0  0  0  0  0  0  0  0  0  0  0  0
  1  2  1  0  0  0  0
  1 20  1  0  0  0  0
  1 21  1  0  0  0  0
  1 22  1  0  0  0  0
  2  3  1  0  0  0  0
  2  9  1  0  0  0  0
  2 23  1  0  0  0  0
  3  4  1  0  0  0  0
  3 24  1  0  0  0  0
  3 25  1  0  0  0  0
  4  8  1  0  0  0  0
  4  5  1  0  0  0  0
  5  6  2  0  0  0  0
  5 26  1  0  0  0  0
  6  7  1  0  0  0  0
  6 27  1  0  0  0  0
  7  8  2  0  0  0  0
  8 28  1  0  0  0  0
  9 10  1  0  0  0  0
  9 29  1  0  0  0  0
 10 11  2  0  0  0  0
 10 12  1  0  0  0  0
 12 19  1  0  0  0  0
 12 13  1  0  0  0  0
 13 14  1  0  0  0  0
 13 30  1  0  0  0  0
 13 31  1  0  0  0  0
 14 15  1  0  0  0  0
 14 16  1  0  0  0  0
 14 32  1  0  0  0  0
 15 33  1  0  0  0  0
 15 34  1  0  0  0  0
 15 35  1  0  0  0  0
 16 17  1  0  0  0  0
 17 18  1  0  0  0  0
 17 19  1  0  0  0  0
 17 36  1  0  0  0  0
 18 37  1  0  0  0  0
 18 38  1  0  0  0  0
 18 39  1  0  0  0  0
 19 40  1  0  0  0  0
 19 41  1  0  0  0  0
M  END
> <s_m_source_file>
AV-unprocessed.smi

> <i_m_source_file_index>
1419

> <i_lp_mmshare_version>
43012

> <i_f3d_flags>
0

> <s_epik_input>
W2NIXTFuW2NIXVtjSF1uMVtDSDJdW0NAQEhdKFtDSDNdKVtOSF1DKD1PKU4yW0NIMl1bQ0BASF0oW0NIM10pT1tDQEBIXShbQ0gzXSlbQ0gyXTI=

> <s_epik_cmdline>
J2VwaWtfcHl0aG9uJywgJy1waCcsICc3LjAnLCAnLXRuJywgJzgnLCAnLW1hJywgJzIwMCcsICctbWV0YWxfYmluZGluZycsICctaW1hZScsICc8aW5maWxlLm1hZT4nLCAnLW9tYWUnLCAnPG91dGZpbGUubWFlPic=

> <r_lp_tautomer_probability>
1

> <r_epik_Ionization_Penalty>
0.625124

> <r_epik_Ionization_Penalty_Charging>
0.625093

> <r_epik_Ionization_Penalty_Neutral>
3.17415e-05

> <r_epik_State_Penalty>
0.641455

> <r_epik_Charging_Adjusted_Penalty>
1.26655

> <i_epik_Tot_Q>
0

> <i_epik_Tot_abs_Q>
0

> <r_epik_Metal_State_Penalty>
0.307717

> <b_epik_Metal_Only>
0

> <s_lp_Force_Field>
OPLS_2005

> <r_lp_Energy>
31.3243

> <b_lp_Chiralities_Consistent>
1

> <s_lp_Variant>
AV-unprocessed.smi:1419-12

> <Gold.Version>
5.8.1

> <Gold.Id.Protein>
6NUR|6NUR_protein|mol2

> <Gold.PLP.Fitness>
36.7429

> <Gold.PLP.PLP>
-32.7248

> <Gold.PLP.part.hbond>
-2.2185

> <Gold.PLP.part.metal>
0.0000

> <Gold.PLP.part.buried>
-0.3277

> <Gold.PLP.part.nonpolar>
-30.9864

> <Gold.PLP.part.repulsive>
0.4266

> <Gold.PLP.ligand.clash>
0.0000

> <Gold.PLP.ligand.torsion>
1.0346

> <Gold.PLP.Chemscore.Hbond>
0.8960

> <Gold.PLP.Chemscore.CHOScore>
1.1214

> <Gold.PLP.Chemscore.Metal>
0.0000

> <Gold.Chemscore.Hbonds>
donor molecule, donor type, donor heavy atom, donor atom, acceptor molecule, acceptor atom, score
      P1  H  7989  7998       L1    11  0.86
      L1  C     8    28       P1  8028  0.09
      L1  C     8    28       P1  8029  1.00

> <Gold.PLP.Chemscore.Internal.Correction>
0.0350

> <Gold.Rescore>
     Score         DG    S(hbond)    S(metal)    S(lipo)     H(rot)  DE(clash)    DE(int)     intcor
      8.96     -12.97       0.90        0.00      72.88       1.58       1.59       2.42       ----

> <Gold.Chemscore.Fitness>
8.9568

> <Gold.Chemscore.DG>
-12.9742

> <Gold.Chemscore.ZeroCoef>
-5.4800

> <Gold.Chemscore.Hbond>
0.8994

> <Gold.Chemscore.Metal>
0.0000

> <Gold.Chemscore.Lipo>
72.8812

> <Gold.Chemscore.Internal_Hbond>
0.0000

> <Gold.Chemscore.DEClash>
1.5929

> <Gold.Chemscore.DEInternal>
2.4245

> <Gold.Chemscore.Rot>
1.5769

> <Gold.Chemscore.Internal.Correction>
   9.000000E+99

> <Gold.Chemscore.Hbonds>
donor molecule, donor type, donor heavy atom, donor atom, acceptor molecule, acceptor atom, score
      P1  H  7989  7998       L1    11  0.84

> <Gold.Chemscore.Hbond.Weighted>
-3.0040

> <Gold.Chemscore.Metal.Weighted>
-0.0000

> <Gold.Chemscore.Lipo.Weighted>
-8.5271

> <Gold.Chemscore.Internal_Hbond.Weighted>
0.0000

> <Gold.Chemscore.DEClash.Weighted>
1.5929

> <Gold.Chemscore.DEInternal.Weighted>
2.4245

> <Gold.Chemscore.Rot.Weighted>
4.0369

> <Gold.Chemscore.Internal.Correction.Weighted>
   9.000000E+99

> <Gold.Protein.RotatedTorsions>
[ 6907 6896 6895 6894 ] final -177.79 input  -60.11 | X-H torsion
[ 7974 7965 7964 7962 ] final   71.75 input  175.53 | X-H torsion
[ 8008 7997 7996 7995 ] final -173.76 input   59.86 | X-H torsion
[ 10167 10162 10161 10158 ] final  114.16 input  -65.29 | X-H torsion
[ 10718 10713 10712 10709 ] final  -79.48 input   66.30 | X-H torsion
[ 10763 10752 10751 10750 ] final  -89.25 input  -60.55 | X-H torsion
[ 11005 11000 10999 10996 ] final    7.49 input  -57.11 | X-H torsion

> <Gold.Protein.ActiveResidues>
 VAL166  LYS551  ARG553  GLY616  TRP617  ASP618  TYR619  PRO620  LYS621  CYS622 
 ASP623  PHE694  ASN695  SER759  ASP760  ASP761  ALA762  ILE779  LEU786  VAL792 
 PHE793  MET794  SER795  GLU796  ALA797  LYS798  CYS799  TRP800  GLU811  SER814 

> <Gold.Protein.RotatedAtoms>
  151.6267  133.3335  159.3099 H   0  0  0  0  0  0  0  0  0  0  0  0  # atno 6907 bound_to 6896
  150.8077  134.7217  159.6671 H   0  0  0  0  0  0  0  0  0  0  0  0  # atno 6908 bound_to 6896
  152.4173  134.6022  160.0055 H   0  0  0  0  0  0  0  0  0  0  0  0  # atno 6909 bound_to 6896
  145.7619  139.2804  143.1371 H   0  0  0  0  0  0  0  0  0  0  0  0  # atno 7974 bound_to 7965
  155.9615  140.1145  157.0891 H   0  0  0  0  0  0  0  0  0  0  0  0  # atno 8008 bound_to 7997
  154.4133  140.1181  156.5252 H   0  0  0  0  0  0  0  0  0  0  0  0  # atno 8009 bound_to 7997
  155.6714  140.3473  155.4822 H   0  0  0  0  0  0  0  0  0  0  0  0  # atno 8010 bound_to 7997
  139.6408  144.7123  151.2240 H   0  0  0  0  0  0  0  0  0  0  0  0  # atno 10167 bound_to 10162
  156.0091  130.4547  150.3655 H   0  0  0  0  0  0  0  0  0  0  0  0  # atno 10718 bound_to 10713
  154.6532  135.5348  153.7927 H   0  0  0  0  0  0  0  0  0  0  0  0  # atno 10763 bound_to 10752
  153.0398  135.6487  154.0984 H   0  0  0  0  0  0  0  0  0  0  0  0  # atno 10764 bound_to 10752
  154.0900  135.2941  155.3253 H   0  0  0  0  0  0  0  0  0  0  0  0  # atno 10765 bound_to 10752
  140.5476  134.0314  155.7925 H   0  0  0  0  0  0  0  0  0  0  0  0  # atno 11005 bound_to 11000
  146.0256  140.8307  142.9902 LP  0  0  0  0  0  0  0  0  0  0  0  0  # atno 17320 bound_to 7965
  144.6829  140.2692  143.7308 LP  0  0  0  0  0  0  0  0  0  0  0  0  # atno 17321 bound_to 7965
  140.7490  143.6315  150.8419 LP  0  0  0  0  0  0  0  0  0  0  0  0  # atno 17342 bound_to 10162
  139.9952  143.5804  152.2896 LP  0  0  0  0  0  0  0  0  0  0  0  0  # atno 17343 bound_to 10162
  157.1742  131.0376  151.2780 LP  0  0  0  0  0  0  0  0  0  0  0  0  # atno 17370 bound_to 10713
  157.4203  130.7433  149.6908 LP  0  0  0  0  0  0  0  0  0  0  0  0  # atno 17371 bound_to 10713
  141.1190  133.9492  157.2766 LP  0  0  0  0  0  0  0  0  0  0  0  0  # atno 17394 bound_to 11000
  139.9471  135.0182  156.8886 LP  0  0  0  0  0  0  0  0  0  0  0  0  # atno 17395 bound_to 11000

$$$$
