AV-unprocessed.smi:1682|AV-procd|sdf|6743|dock7
  -GOLD-   22720 7493D 1   1.00000     0.00000
 Structure written by MMmdl.
 38 39  0  0  0  0  0  0  0  0  1 V2000
  149.2457  137.1685  156.2337 O   0  0  0  0  0  0  0  0  0  0  0  0
  149.3221  137.0722  155.0081 C   0  0  0  0  0  0  0  0  0  0  0  0
  148.7103  136.1050  154.3078 N   0  0  0  0  0  0  0  0  0  0  0  0
  147.9060  135.0364  154.8892 C   0  0  0  0  0  0  0  0  0  0  0  0
  147.5731  133.9532  153.8494 C   0  0  0  0  0  0  0  0  0  0  0  0
  146.3653  134.3152  153.0066 C   0  0  0  0  0  0  0  0  0  0  0  0
  145.1866  134.8015  153.6112 C   0  0  0  0  0  0  0  0  0  0  0  0
  144.0937  135.1262  152.7846 C   0  0  0  0  0  0  0  0  0  0  0  0
  144.2212  134.9542  151.3930 C   0  0  0  0  0  0  0  0  0  0  0  0
  145.4418  134.4638  150.8875 C   0  0  0  0  0  0  0  0  0  0  0  0
  146.4962  134.1498  151.6711 N   0  0  0  0  0  0  0  0  0  0  0  0
  150.1541  138.0833  154.2036 C   0  0  2  0  0  0  0  0  0  0  0  0
  151.6477  138.0031  154.5777 C   0  0  0  0  0  0  0  0  0  0  0  0
  151.9072  139.2993  155.3277 C   0  0  0  0  0  0  0  0  0  0  0  0
  152.9779  139.5464  155.8798 O   0  0  0  0  0  0  0  0  0  0  0  0
  150.8298  140.0908  155.3028 N   0  0  0  0  0  0  0  0  0  0  0  0
  150.7006  141.4038  155.9308 C   0  0  0  0  0  0  0  0  0  0  0  0
  150.7600  141.3240  157.4669 C   0  0  0  0  0  0  0  0  0  0  0  0
  150.5697  142.5418  157.9723 F   0  0  0  0  0  0  0  0  0  0  0  0
  149.8015  140.5193  157.9261 F   0  0  0  0  0  0  0  0  0  0  0  0
  151.9444  140.8748  157.8808 F   0  0  0  0  0  0  0  0  0  0  0  0
  149.7498  139.5436  154.4983 C   0  0  0  0  0  0  0  0  0  0  0  0
  148.8208  136.0999  153.3042 H   0  0  0  0  0  0  0  0  0  0  0  0
  148.4261  134.5992  155.7434 H   0  0  0  0  0  0  0  0  0  0  0  0
  146.9869  135.4764  155.2776 H   0  0  0  0  0  0  0  0  0  0  0  0
  148.4284  133.7910  153.1917 H   0  0  0  0  0  0  0  0  0  0  0  0
  147.3843  132.9999  154.3446 H   0  0  0  0  0  0  0  0  0  0  0  0
  145.1201  134.9240  154.6823 H   0  0  0  0  0  0  0  0  0  0  0  0
  143.1745  135.5004  153.2105 H   0  0  0  0  0  0  0  0  0  0  0  0
  143.4037  135.1921  150.7289 H   0  0  0  0  0  0  0  0  0  0  0  0
  145.5745  134.3205  149.8254 H   0  0  0  0  0  0  0  0  0  0  0  0
  150.0278  137.8791  153.1389 H   0  0  0  0  0  0  0  0  0  0  0  0
  151.8998  137.1431  155.2007 H   0  0  0  0  0  0  0  0  0  0  0  0
  152.2751  137.9683  153.6866 H   0  0  0  0  0  0  0  0  0  0  0  0
  151.4851  142.0658  155.5606 H   0  0  0  0  0  0  0  0  0  0  0  0
  149.7551  141.8524  155.6228 H   0  0  0  0  0  0  0  0  0  0  0  0
  149.6657  140.1146  153.5728 H   0  0  0  0  0  0  0  0  0  0  0  0
  148.7964  139.6264  155.0229 H   0  0  0  0  0  0  0  0  0  0  0  0
  1  2  2  0  0  0  0
  2  3  1  0  0  0  0
  2 12  1  0  0  0  0
  3  4  1  0  0  0  0
  3 23  1  0  0  0  0
  4  5  1  0  0  0  0
  4 24  1  0  0  0  0
  4 25  1  0  0  0  0
  5  6  1  0  0  0  0
  5 26  1  0  0  0  0
  5 27  1  0  0  0  0
  6 11  1  0  0  0  0
  6  7  2  0  0  0  0
  7  8  1  0  0  0  0
  7 28  1  0  0  0  0
  8  9  2  0  0  0  0
  8 29  1  0  0  0  0
  9 10  1  0  0  0  0
  9 30  1  0  0  0  0
 10 11  2  0  0  0  0
 10 31  1  0  0  0  0
 12 22  1  0  0  0  0
 12 13  1  0  0  0  0
 12 32  1  0  0  0  0
 13 14  1  0  0  0  0
 13 33  1  0  0  0  0
 13 34  1  0  0  0  0
 14 15  2  0  0  0  0
 14 16  1  0  0  0  0
 16 17  1  0  0  0  0
 16 22  1  0  0  0  0
 17 18  1  0  0  0  0
 17 35  1  0  0  0  0
 17 36  1  0  0  0  0
 18 19  1  0  0  0  0
 18 20  1  0  0  0  0
 18 21  1  0  0  0  0
 22 37  1  0  0  0  0
 22 38  1  0  0  0  0
M  END
> <s_m_source_file>
AV-unprocessed.smi

> <i_m_source_file_index>
1682

> <i_lp_mmshare_version>
43012

> <i_f3d_flags>
0

> <s_epik_input>
RkMoRikoRilbQ0gyXU4oW0NIMl0xKUMoPU8pW0NIMl1bQ0BIXTFDKD1PKVtOSF1bQ0gyXVtDSDJdYzJbY0hdW2NIXVtjSF1bY0hdbjI=

> <s_epik_cmdline>
J2VwaWtfcHl0aG9uJywgJy1waCcsICc3LjAnLCAnLXRuJywgJzgnLCAnLW1hJywgJzIwMCcsICctbWV0YWxfYmluZGluZycsICctaW1hZScsICc8aW5maWxlLm1hZT4nLCAnLW9tYWUnLCAnPG91dGZpbGUubWFlPic=

> <r_epik_Ionization_Penalty>
0.0252359

> <r_epik_Ionization_Penalty_Charging>
0

> <r_epik_Ionization_Penalty_Neutral>
0.0252359

> <r_epik_State_Penalty>
0.020532

> <r_epik_Charging_Adjusted_Penalty>
0.020532

> <i_epik_Tot_Q>
0

> <i_epik_Tot_abs_Q>
0

> <r_epik_Metal_State_Penalty>
0.0196899

> <b_epik_Metal_Only>
0

> <s_lp_Force_Field>
OPLS_2005

> <r_lp_Energy>
9.5977

> <b_lp_Chiralities_Consistent>
1

> <s_lp_Variant>
AV-unprocessed.smi:1682-1

> <Gold.Version>
5.8.1

> <Gold.Id.Protein>
6NUR|6NUR_protein|mol2

> <Gold.PLP.Fitness>
44.0630

> <Gold.PLP.PLP>
-35.7720

> <Gold.PLP.part.hbond>
-2.0000

> <Gold.PLP.part.metal>
0.0000

> <Gold.PLP.part.buried>
-4.2340

> <Gold.PLP.part.nonpolar>
-29.7367

> <Gold.PLP.part.repulsive>
0.1690

> <Gold.PLP.ligand.clash>
0.0000

> <Gold.PLP.ligand.torsion>
0.4061

> <Gold.PLP.Chemscore.Hbond>
2.0000

> <Gold.PLP.Chemscore.CHOScore>
1.0000

> <Gold.PLP.Chemscore.Metal>
0.0000

> <Gold.Chemscore.Hbonds>
donor molecule, donor type, donor heavy atom, donor atom, acceptor molecule, acceptor atom, score
      L1  H     3    23       P1  7948  0.78
      P1  H  7997  8010       L1    15  1.00
      L1  C    10    31       P1  7921  1.00

> <Gold.PLP.Chemscore.Internal.Correction>
0.1031

> <Gold.Rescore>
     Score         DG    S(hbond)    S(metal)    S(lipo)     H(rot)  DE(clash)    DE(int)     intcor
     11.96     -14.06       1.99        0.00      62.20       2.09       0.00       2.10       ----

> <Gold.Chemscore.Fitness>
11.9586

> <Gold.Chemscore.DG>
-14.0644

> <Gold.Chemscore.ZeroCoef>
-5.4800

> <Gold.Chemscore.Hbond>
1.9919

> <Gold.Chemscore.Metal>
0.0000

> <Gold.Chemscore.Lipo>
62.2042

> <Gold.Chemscore.Internal_Hbond>
0.0000

> <Gold.Chemscore.DEClash>
0.0013

> <Gold.Chemscore.DEInternal>
2.1044

> <Gold.Chemscore.Rot>
2.0884

> <Gold.Chemscore.Internal.Correction>
   9.000000E+99

> <Gold.Chemscore.Hbonds>
donor molecule, donor type, donor heavy atom, donor atom, acceptor molecule, acceptor atom, score
      L1  H     3    23       P1  7948  0.77
      P1  H  7997  8010       L1    15  0.93

> <Gold.Chemscore.Hbond.Weighted>
-6.6528

> <Gold.Chemscore.Metal.Weighted>
-0.0000

> <Gold.Chemscore.Lipo.Weighted>
-7.2779

> <Gold.Chemscore.Internal_Hbond.Weighted>
0.0000

> <Gold.Chemscore.DEClash.Weighted>
0.0013

> <Gold.Chemscore.DEInternal.Weighted>
2.1044

> <Gold.Chemscore.Rot.Weighted>
5.3464

> <Gold.Chemscore.Internal.Correction.Weighted>
   9.000000E+99

> <Gold.Protein.RotatedTorsions>
[ 6907 6896 6895 6894 ] final -155.72 input  -60.11 | X-H torsion
[ 7974 7965 7964 7962 ] final  115.95 input  175.53 | X-H torsion
[ 8008 7997 7996 7995 ] final   91.43 input   59.86 | X-H torsion
[ 10167 10162 10161 10158 ] final   42.02 input  -65.29 | X-H torsion
[ 10718 10713 10712 10709 ] final -121.36 input   66.30 | X-H torsion
[ 10763 10752 10751 10750 ] final  103.67 input  -60.55 | X-H torsion
[ 11005 11000 10999 10996 ] final  -18.70 input  -57.11 | X-H torsion

> <Gold.Protein.ActiveResidues>
 VAL166  LYS551  ARG553  GLY616  TRP617  ASP618  TYR619  PRO620  LYS621  CYS622 
 ASP623  PHE694  ASN695  SER759  ASP760  ASP761  ALA762  ILE779  LEU786  VAL792 
 PHE793  MET794  SER795  GLU796  ALA797  LYS798  CYS799  TRP800  GLU811  SER814 

> <Gold.Protein.RotatedAtoms>
  151.2768  133.4229  159.2624 H   0  0  0  0  0  0  0  0  0  0  0  0  # atno 6907 bound_to 6896
  151.0396  134.9598  159.8165 H   0  0  0  0  0  0  0  0  0  0  0  0  # atno 6908 bound_to 6896
  152.5362  134.2726  159.9030 H   0  0  0  0  0  0  0  0  0  0  0  0  # atno 6909 bound_to 6896
  145.1856  139.3027  143.4395 H   0  0  0  0  0  0  0  0  0  0  0  0  # atno 7974 bound_to 7965
  156.0236  140.3338  155.7065 H   0  0  0  0  0  0  0  0  0  0  0  0  # atno 8008 bound_to 7997
  155.5986  140.0653  157.2757 H   0  0  0  0  0  0  0  0  0  0  0  0  # atno 8009 bound_to 7997
  154.4325  140.1814  156.1138 H   0  0  0  0  0  0  0  0  0  0  0  0  # atno 8010 bound_to 7997
  140.3585  144.2259  150.6140 H   0  0  0  0  0  0  0  0  0  0  0  0  # atno 10167 bound_to 10162
  156.1331  130.6410  150.9653 H   0  0  0  0  0  0  0  0  0  0  0  0  # atno 10718 bound_to 10713
  153.3558  135.3969  155.1681 H   0  0  0  0  0  0  0  0  0  0  0  0  # atno 10763 bound_to 10752
  154.8670  135.3667  154.5163 H   0  0  0  0  0  0  0  0  0  0  0  0  # atno 10764 bound_to 10752
  153.5618  135.7081  153.5604 H   0  0  0  0  0  0  0  0  0  0  0  0  # atno 10765 bound_to 10752
  140.8294  133.8008  155.9742 H   0  0  0  0  0  0  0  0  0  0  0  0  # atno 11005 bound_to 11000
  146.3445  140.2051  142.8589 LP  0  0  0  0  0  0  0  0  0  0  0  0  # atno 17320 bound_to 7965
  145.0092  140.8700  143.5234 LP  0  0  0  0  0  0  0  0  0  0  0  0  # atno 17321 bound_to 7965
  140.5150  143.2280  151.8477 LP  0  0  0  0  0  0  0  0  0  0  0  0  # atno 17342 bound_to 10162
  139.4817  144.4905  151.9191 LP  0  0  0  0  0  0  0  0  0  0  0  0  # atno 17343 bound_to 10162
  157.6507  131.0897  150.8057 LP  0  0  0  0  0  0  0  0  0  0  0  0  # atno 17370 bound_to 10713
  156.8140  130.4962  149.5352 LP  0  0  0  0  0  0  0  0  0  0  0  0  # atno 17371 bound_to 10713
  140.9015  134.2373  157.5039 LP  0  0  0  0  0  0  0  0  0  0  0  0  # atno 17394 bound_to 11000
  139.8705  134.9708  156.4716 LP  0  0  0  0  0  0  0  0  0  0  0  0  # atno 17395 bound_to 11000

$$$$
