AV-unprocessed.smi:196|AV-procd|sdf|1531|dock6
  -GOLD-   2262019383D 1   1.00000     0.00000
 Structure written by MMmdl.
 47 50  0  0  0  0  0  0  0  0  1 V2000
  153.3321  141.4799  159.7944 C   0  0  0  0  0  0  0  0  0  0  0  0
  152.1261  142.4327  159.7991 C   0  0  1  0  0  0  0  0  0  0  0  0
  152.5857  143.7030  160.2554 O   0  0  0  0  0  0  0  0  0  0  0  0
  151.8329  144.7233  159.6237 C   0  0  0  0  0  0  0  0  0  0  0  0
  151.6779  144.1892  158.2082 C   0  0  0  0  0  0  0  0  0  0  0  0
  151.4389  142.6985  158.4298 C   0  0  2  0  0  0  0  0  0  0  0  0
  150.0450  142.5038  158.6057 O   0  0  0  0  0  0  0  0  0  0  0  0
  151.8971  141.8110  157.2426 C   0  0  0  0  0  0  0  0  0  0  0  0
  151.2943  140.4863  157.2444 N   0  0  0  0  0  0  0  0  0  0  0  0
  151.1624  139.6440  158.3245 C   0  0  0  0  0  0  0  0  0  0  0  0
  150.5787  138.5045  158.0730 N   0  0  0  0  0  0  0  0  0  0  0  0
  150.2992  138.5553  156.7117 C   0  0  0  0  0  0  0  0  0  0  0  0
  149.6780  137.6633  155.7892 C   0  0  0  0  0  0  0  0  0  0  0  0
  149.1966  136.4392  156.1397 N   0  0  0  0  0  0  0  0  0  0  0  0
  149.8813  135.6907  157.1889 C   0  0  0  0  0  0  0  0  0  0  0  0
  149.8253  134.2255  156.7587 C   0  0  2  0  0  0  0  0  0  0  0  0
  150.9045  133.9354  156.0302 F   0  0  0  0  0  0  0  0  0  0  0  0
  148.5836  134.1680  155.8764 C   0  0  0  0  0  0  0  0  0  0  0  0
  148.5702  135.5322  155.1669 C   0  0  1  0  0  0  0  0  0  0  0  0
  147.1385  135.9178  154.7449 C   0  0  0  0  0  0  0  0  0  0  0  0
  146.8738  136.0945  153.4461 N   0  0  0  0  0  0  0  0  0  0  0  0
  146.2679  136.0522  155.6018 O   0  0  0  0  0  0  0  0  0  0  0  0
  149.5582  138.0869  154.5028 N   0  0  0  0  0  0  0  0  0  0  0  0
  150.0235  139.2837  154.1348 C   0  0  0  0  0  0  0  0  0  0  0  0
  150.6290  140.2079  154.8814 N   0  0  0  0  0  0  0  0  0  0  0  0
  150.7421  139.7992  156.1773 C   0  0  0  0  0  0  0  0  0  0  0  0
  149.7968  133.5291  157.5970 H   0  0  0  0  0  0  0  0  0  0  0  0
  149.1978  135.4671  154.2763 H   0  0  0  0  0  0  0  0  0  0  0  0
  153.0491  140.4797  159.4660 H   0  0  0  0  0  0  0  0  0  0  0  0
  153.7507  141.3863  160.7966 H   0  0  0  0  0  0  0  0  0  0  0  0
  154.1270  141.8431  159.1424 H   0  0  0  0  0  0  0  0  0  0  0  0
  151.3998  142.0620  160.5251 H   0  0  0  0  0  0  0  0  0  0  0  0
  150.8644  144.8279  160.1151 H   0  0  0  0  0  0  0  0  0  0  0  0
  152.3467  145.6840  159.6598 H   0  0  0  0  0  0  0  0  0  0  0  0
  150.8878  144.6857  157.6431 H   0  0  0  0  0  0  0  0  0  0  0  0
  152.6158  144.3434  157.6737 H   0  0  0  0  0  0  0  0  0  0  0  0
  149.6286  143.3508  158.6523 H   0  0  0  0  0  0  0  0  0  0  0  0
  151.6507  142.2850  156.2923 H   0  0  0  0  0  0  0  0  0  0  0  0
  152.9811  141.6893  157.2550 H   0  0  0  0  0  0  0  0  0  0  0  0
  151.5082  139.9076  159.3136 H   0  0  0  0  0  0  0  0  0  0  0  0
  150.9121  136.0128  157.3459 H   0  0  0  0  0  0  0  0  0  0  0  0
  149.3369  135.8338  158.1229 H   0  0  0  0  0  0  0  0  0  0  0  0
  148.6036  133.3303  155.1782 H   0  0  0  0  0  0  0  0  0  0  0  0
  147.7016  134.0508  156.5089 H   0  0  0  0  0  0  0  0  0  0  0  0
  145.9418  136.3502  153.1536 H   0  0  0  0  0  0  0  0  0  0  0  0
  147.6081  135.9743  152.7639 H   0  0  0  0  0  0  0  0  0  0  0  0
  149.8909  139.5365  153.0932 H   0  0  0  0  0  0  0  0  0  0  0  0
  1  2  1  0  0  0  0
  1 29  1  0  0  0  0
  1 30  1  0  0  0  0
  1 31  1  0  0  0  0
  2  6  1  0  0  0  0
  2  3  1  0  0  0  0
  2 32  1  0  0  0  0
  3  4  1  0  0  0  0
  4  5  1  0  0  0  0
  4 33  1  0  0  0  0
  4 34  1  0  0  0  0
  5  6  1  0  0  0  0
  5 35  1  0  0  0  0
  5 36  1  0  0  0  0
  6  7  1  0  0  0  0
  6  8  1  0  0  0  0
  7 37  1  0  0  0  0
  8  9  1  0  0  0  0
  8 38  1  0  0  0  0
  8 39  1  0  0  0  0
  9 26  1  0  0  0  0
  9 10  1  0  0  0  0
 10 11  2  0  0  0  0
 10 40  1  0  0  0  0
 11 12  1  0  0  0  0
 12 26  2  0  0  0  0
 12 13  1  0  0  0  0
 13 14  1  0  0  0  0
 13 23  2  0  0  0  0
 14 19  1  0  0  0  0
 14 15  1  0  0  0  0
 15 16  1  0  0  0  0
 15 41  1  0  0  0  0
 15 42  1  0  0  0  0
 16 27  1  0  0  0  0
 16 17  1  0  0  0  0
 16 18  1  0  0  0  0
 18 19  1  0  0  0  0
 18 43  1  0  0  0  0
 18 44  1  0  0  0  0
 19 28  1  0  0  0  0
 19 20  1  0  0  0  0
 20 21  1  0  0  0  0
 20 22  2  0  0  0  0
 21 45  1  0  0  0  0
 21 46  1  0  0  0  0
 23 24  1  0  0  0  0
 24 25  2  0  0  0  0
 24 47  1  0  0  0  0
 25 26  1  0  0  0  0
M  END
> <s_m_source_file>
AV-unprocessed.smi

> <i_m_source_file_index>
196

> <i_lp_mmshare_version>
43012

> <i_f3d_flags>
0

> <s_epik_input>
W0NIMl0xW0NIMl1PW0NAQEhdKFtDSDNdKVtDQEBdMShbT0hdKVtDSDJdbihbY0hdbjIpYyhjMjMpbltjSF1uYzNONFtDSDJdW0NASF0oRilbQ0gyXVtDQEhdNEMoPU8pW05IMl0=

> <s_epik_cmdline>
J2VwaWtfcHl0aG9uJywgJy1waCcsICc3LjAnLCAnLXRuJywgJzgnLCAnLW1hJywgJzIwMCcsICctbWV0YWxfYmluZGluZycsICctaW1hZScsICc8aW5maWxlLm1hZT4nLCAnLW9tYWUnLCAnPG91dGZpbGUubWFlPic=

> <r_lp_tautomer_probability>
1

> <r_epik_Ionization_Penalty>
0.000857933

> <r_epik_Ionization_Penalty_Charging>
0

> <r_epik_Ionization_Penalty_Neutral>
0.000857933

> <r_epik_State_Penalty>
0.000462053

> <r_epik_Charging_Adjusted_Penalty>
0.000462053

> <i_epik_Tot_Q>
0

> <i_epik_Tot_abs_Q>
0

> <r_epik_Metal_State_Penalty>
-0

> <b_epik_Metal_Only>
0

> <s_lp_Force_Field>
OPLS_2005

> <r_lp_Energy>
43.6884

> <b_lp_Chiralities_Consistent>
1

> <s_lp_Variant>
AV-unprocessed.smi:196-4

> <Gold.Version>
5.8.1

> <Gold.Id.Protein>
6NUR|6NUR_protein|mol2

> <Gold.PLP.Fitness>
40.3227

> <Gold.PLP.PLP>
-33.0121

> <Gold.PLP.part.hbond>
-2.0000

> <Gold.PLP.part.metal>
0.0000

> <Gold.PLP.part.buried>
-6.2199

> <Gold.PLP.part.nonpolar>
-25.4497

> <Gold.PLP.part.repulsive>
0.3062

> <Gold.PLP.ligand.clash>
0.0000

> <Gold.PLP.ligand.torsion>
0.6764

> <Gold.PLP.Chemscore.Hbond>
1.8000

> <Gold.PLP.Chemscore.CHOScore>
0.9979

> <Gold.PLP.Chemscore.Metal>
0.0000

> <Gold.Chemscore.Hbonds>
donor molecule, donor type, donor heavy atom, donor atom, acceptor molecule, acceptor atom, score
      L1  H    21    46       P1  7948  1.00
      P1  H  7989  7998       L1    25  0.75
      L1  C    24    47       P1  7957  0.95

> <Gold.PLP.Chemscore.Internal.Correction>
0.2699

> <Gold.Rescore>
     Score         DG    S(hbond)    S(metal)    S(lipo)     H(rot)  DE(clash)    DE(int)     intcor
     11.07     -14.10       1.74        0.00      80.93       2.60       1.59       1.44       ----

> <Gold.Chemscore.Fitness>
11.0735

> <Gold.Chemscore.DG>
-14.1027

> <Gold.Chemscore.ZeroCoef>
-5.4800

> <Gold.Chemscore.Hbond>
1.7372

> <Gold.Chemscore.Metal>
0.0000

> <Gold.Chemscore.Lipo>
80.9258

> <Gold.Chemscore.Internal_Hbond>
0.0000

> <Gold.Chemscore.DEClash>
1.5924

> <Gold.Chemscore.DEInternal>
1.4368

> <Gold.Chemscore.Rot>
2.5968

> <Gold.Chemscore.Internal.Correction>
   9.000000E+99

> <Gold.Chemscore.Hbonds>
donor molecule, donor type, donor heavy atom, donor atom, acceptor molecule, acceptor atom, score
      L1  H    21    46       P1  7948  0.99
      P1  H  7989  7998       L1    25  0.09

> <Gold.Chemscore.Hbond.Weighted>
-5.8021

> <Gold.Chemscore.Metal.Weighted>
-0.0000

> <Gold.Chemscore.Lipo.Weighted>
-9.4683

> <Gold.Chemscore.Internal_Hbond.Weighted>
0.0000

> <Gold.Chemscore.DEClash.Weighted>
1.5924

> <Gold.Chemscore.DEInternal.Weighted>
1.4368

> <Gold.Chemscore.Rot.Weighted>
6.6477

> <Gold.Chemscore.Internal.Correction.Weighted>
   9.000000E+99

> <Gold.Protein.RotatedTorsions>
[ 6907 6896 6895 6894 ] final  -27.87 input  -60.11 | X-H torsion
[ 7974 7965 7964 7962 ] final -157.75 input  175.53 | X-H torsion
[ 8008 7997 7996 7995 ] final -113.97 input   59.86 | X-H torsion
[ 10167 10162 10161 10158 ] final  114.12 input  -65.29 | X-H torsion
[ 10718 10713 10712 10709 ] final  -31.65 input   66.30 | X-H torsion
[ 10763 10752 10751 10750 ] final   40.41 input  -60.55 | X-H torsion
[ 11005 11000 10999 10996 ] final  166.92 input  -57.11 | X-H torsion

> <Gold.Protein.ActiveResidues>
 VAL166  LYS551  ARG553  GLY616  TRP617  ASP618  TYR619  PRO620  LYS621  CYS622 
 ASP623  PHE694  ASN695  SER759  ASP760  ASP761  ALA762  ILE779  LEU786  VAL792 
 PHE793  MET794  SER795  GLU796  ALA797  LYS798  CYS799  TRP800  GLU811  SER814 

> <Gold.Protein.RotatedAtoms>
  151.1409  135.0179  159.8624 H   0  0  0  0  0  0  0  0  0  0  0  0  # atno 6907 bound_to 6896
  152.5452  134.1500  159.8524 H   0  0  0  0  0  0  0  0  0  0  0  0  # atno 6908 bound_to 6896
  151.1575  133.4821  159.2627 H   0  0  0  0  0  0  0  0  0  0  0  0  # atno 6909 bound_to 6896
  144.7535  140.3925  143.6030 H   0  0  0  0  0  0  0  0  0  0  0  0  # atno 7974 bound_to 7965
  155.0290  140.0393  157.2467 H   0  0  0  0  0  0  0  0  0  0  0  0  # atno 8008 bound_to 7997
  154.7313  140.2731  155.6430 H   0  0  0  0  0  0  0  0  0  0  0  0  # atno 8009 bound_to 7997
  156.2842  140.2683  156.2013 H   0  0  0  0  0  0  0  0  0  0  0  0  # atno 8010 bound_to 7997
  139.6411  144.7124  151.2235 H   0  0  0  0  0  0  0  0  0  0  0  0  # atno 10167 bound_to 10162
  156.3846  130.4362  149.7442 H   0  0  0  0  0  0  0  0  0  0  0  0  # atno 10718 bound_to 10713
  152.9937  135.6192  154.2621 H   0  0  0  0  0  0  0  0  0  0  0  0  # atno 10763 bound_to 10752
  154.2357  135.2790  155.2875 H   0  0  0  0  0  0  0  0  0  0  0  0  # atno 10764 bound_to 10752
  154.5412  135.5760  153.6899 H   0  0  0  0  0  0  0  0  0  0  0  0  # atno 10765 bound_to 10752
  140.2714  134.7823  157.3679 H   0  0  0  0  0  0  0  0  0  0  0  0  # atno 11005 bound_to 11000
  145.6861  139.1629  143.2673 LP  0  0  0  0  0  0  0  0  0  0  0  0  # atno 17320 bound_to 7965
  146.1516  140.6917  142.9319 LP  0  0  0  0  0  0  0  0  0  0  0  0  # atno 17321 bound_to 7965
  140.7491  143.6310  150.8423 LP  0  0  0  0  0  0  0  0  0  0  0  0  # atno 17342 bound_to 10162
  139.9947  143.5808  152.2897 LP  0  0  0  0  0  0  0  0  0  0  0  0  # atno 17343 bound_to 10162
  156.4519  130.7911  151.2932 LP  0  0  0  0  0  0  0  0  0  0  0  0  # atno 17370 bound_to 10713
  157.7495  131.0093  150.3261 LP  0  0  0  0  0  0  0  0  0  0  0  0  # atno 17371 bound_to 10713
  140.1369  134.5022  155.8061 LP  0  0  0  0  0  0  0  0  0  0  0  0  # atno 17394 bound_to 11000
  141.2177  133.6811  156.7141 LP  0  0  0  0  0  0  0  0  0  0  0  0  # atno 17395 bound_to 11000

$$$$
