AV-unprocessed.smi:2895|AV-procd|sdf|11130|dock5
  -GOLD-   2272016 03D 1   1.00000     0.00000
 Structure written by MMmdl.
 53 56  0  0  0  0  0  0  0  0  2 V2000
  144.5275  137.8604  153.7891 O   0  0  0  0  0  0  0  0  0  0  0  0
  145.7297  137.8582  153.5224 C   0  0  0  0  0  0  0  0  0  0  0  0
  146.2476  137.0492  152.5821 N   0  0  0  0  0  0  0  0  0  0  0  0
  145.4882  136.1008  151.7751 C   0  0  0  0  0  0  0  0  0  0  0  0
  145.7450  134.6468  152.2068 C   0  0  0  0  0  0  0  0  0  0  0  0
  145.2015  133.6479  151.2035 C   0  0  0  0  0  0  0  0  0  0  0  0
  143.8122  133.5183  151.0003 C   0  0  0  0  0  0  0  0  0  0  0  0
  143.3561  132.5793  150.0534 C   0  0  0  0  0  0  0  0  0  0  0  0
  144.1832  131.7939  149.3301 N   0  0  0  0  0  0  0  0  0  0  0  0
  145.5124  131.9229  149.5312 C   0  0  0  0  0  0  0  0  0  0  0  0
  146.0718  132.8318  150.4517 C   0  0  0  0  0  0  0  0  0  0  0  0
  146.6277  138.6704  154.1373 N   0  0  0  0  0  0  0  0  0  0  0  0
  148.0079  138.9385  153.7016 C   0  0  0  0  0  0  0  0  0  0  0  0
  148.9952  138.3745  154.7450 C   0  0  0  0  0  0  0  0  0  0  0  0
  148.7429  138.9141  156.1150 N   0  3  0  0  0  0  0  0  0  0  0  0
  149.2596  140.3064  156.3173 C   0  0  2  0  0  0  0  0  0  0  0  0
  150.6632  140.5274  155.6889 C   0  0  0  0  0  0  0  0  0  0  0  0
  151.4918  141.1181  156.8401 C   0  0  1  0  0  0  0  0  0  0  0  0
  150.9823  142.5287  157.1817 C   0  0  0  0  0  0  0  0  0  0  0  0
  149.6432  142.2389  157.8818 C   0  0  0  0  0  0  0  0  0  0  0  0
  149.5351  140.7038  157.7971 C   0  0  2  0  0  0  0  0  0  0  0  0
  150.9871  140.2928  158.0141 C   0  0  0  0  0  0  0  0  0  0  0  0
  147.3128  138.7141  156.4926 C   0  0  0  0  0  0  0  0  0  0  0  0
  146.3493  139.2918  155.4372 C   0  0  0  0  0  0  0  0  0  0  0  0
  147.2400  137.1024  152.4049 H   0  0  0  0  0  0  0  0  0  0  0  0
  144.4241  136.3365  151.8301 H   0  0  0  0  0  0  0  0  0  0  0  0
  145.7825  136.2341  150.7336 H   0  0  0  0  0  0  0  0  0  0  0  0
  146.8148  134.4800  152.3392 H   0  0  0  0  0  0  0  0  0  0  0  0
  145.2811  134.4492  153.1738 H   0  0  0  0  0  0  0  0  0  0  0  0
  143.1102  134.1251  151.5537 H   0  0  0  0  0  0  0  0  0  0  0  0
  142.2985  132.4561  149.8722 H   0  0  0  0  0  0  0  0  0  0  0  0
  146.1501  131.2830  148.9395 H   0  0  0  0  0  0  0  0  0  0  0  0
  147.1429  132.8976  150.5739 H   0  0  0  0  0  0  0  0  0  0  0  0
  148.2536  138.5248  152.7239 H   0  0  0  0  0  0  0  0  0  0  0  0
  148.1402  140.0157  153.5943 H   0  0  0  0  0  0  0  0  0  0  0  0
  148.8811  137.2904  154.7878 H   0  0  0  0  0  0  0  0  0  0  0  0
  150.0182  138.5436  154.4145 H   0  0  0  0  0  0  0  0  0  0  0  0
  148.5454  141.0051  155.8808 H   0  0  0  0  0  0  0  0  0  0  0  0
  151.1292  139.5908  155.3810 H   0  0  0  0  0  0  0  0  0  0  0  0
  150.6297  141.1836  154.8185 H   0  0  0  0  0  0  0  0  0  0  0  0
  152.5681  141.0700  156.6724 H   0  0  0  0  0  0  0  0  0  0  0  0
  151.6675  143.0391  157.8600 H   0  0  0  0  0  0  0  0  0  0  0  0
  150.8629  143.1505  156.2936 H   0  0  0  0  0  0  0  0  0  0  0  0
  149.6804  142.5649  158.9221 H   0  0  0  0  0  0  0  0  0  0  0  0
  148.8033  142.7469  157.4065 H   0  0  0  0  0  0  0  0  0  0  0  0
  148.8474  140.3150  158.5436 H   0  0  0  0  0  0  0  0  0  0  0  0
  151.1566  139.2207  157.8985 H   0  0  0  0  0  0  0  0  0  0  0  0
  151.3908  140.6175  158.9748 H   0  0  0  0  0  0  0  0  0  0  0  0
  147.1404  137.6395  156.5709 H   0  0  0  0  0  0  0  0  0  0  0  0
  147.0755  139.1048  157.4778 H   0  0  0  0  0  0  0  0  0  0  0  0
  146.4701  140.3723  155.3540 H   0  0  0  0  0  0  0  0  0  0  0  0
  145.3210  139.1398  155.7681 H   0  0  0  0  0  0  0  0  0  0  0  0
  149.2829  138.3414  156.7479 H   0  0  0  0  0  0  0  0  0  0  0  0
  1  2  2  0  0  0  0
  2  3  1  0  0  0  0
  2 12  1  0  0  0  0
  3  4  1  0  0  0  0
  3 25  1  0  0  0  0
  4  5  1  0  0  0  0
  4 26  1  0  0  0  0
  4 27  1  0  0  0  0
  5  6  1  0  0  0  0
  5 28  1  0  0  0  0
  5 29  1  0  0  0  0
  6 11  1  0  0  0  0
  6  7  2  0  0  0  0
  7  8  1  0  0  0  0
  7 30  1  0  0  0  0
  8  9  2  0  0  0  0
  8 31  1  0  0  0  0
  9 10  1  0  0  0  0
 10 11  2  0  0  0  0
 10 32  1  0  0  0  0
 11 33  1  0  0  0  0
 12 24  1  0  0  0  0
 12 13  1  0  0  0  0
 13 14  1  0  0  0  0
 13 34  1  0  0  0  0
 13 35  1  0  0  0  0
 14 15  1  0  0  0  0
 14 36  1  0  0  0  0
 14 37  1  0  0  0  0
 15 16  1  0  0  0  0
 15 23  1  0  0  0  0
 15 53  1  0  0  0  0
 16 21  1  0  0  0  0
 16 17  1  0  0  0  0
 16 38  1  0  0  0  0
 17 18  1  0  0  0  0
 17 39  1  0  0  0  0
 17 40  1  0  0  0  0
 18 22  1  0  0  0  0
 18 19  1  0  0  0  0
 18 41  1  0  0  0  0
 19 20  1  0  0  0  0
 19 42  1  0  0  0  0
 19 43  1  0  0  0  0
 20 21  1  0  0  0  0
 20 44  1  0  0  0  0
 20 45  1  0  0  0  0
 21 22  1  0  0  0  0
 21 46  1  0  0  0  0
 22 47  1  0  0  0  0
 22 48  1  0  0  0  0
 23 24  1  0  0  0  0
 23 49  1  0  0  0  0
 23 50  1  0  0  0  0
 24 51  1  0  0  0  0
 24 52  1  0  0  0  0
M  CHG  1  15   1
M  END
> <s_m_source_file>
AV-unprocessed.smi

> <i_m_source_file_index>
2895

> <i_lp_mmshare_version>
43012

> <i_f3d_flags>
0

> <s_epik_input>
W0NIMl0xW0NIMl1bQ0BASF0oW0NIMl0yKVtDQEBIXShbQ0gyXVtDQEhdMTIpTihbQ0gyXVtDSDJdMylbQ0gyXVtDSDJdTjNDKD1PKVtOSF1bQ0gyXVtDSDJdYzRbY0hdW2NIXW5bY0hdW2NIXTQ=

> <s_epik_cmdline>
J2VwaWtfcHl0aG9uJywgJy1waCcsICc3LjAnLCAnLXRuJywgJzgnLCAnLW1hJywgJzIwMCcsICctbWV0YWxfYmluZGluZycsICctaW1hZScsICc8aW5maWxlLm1hZT4nLCAnLW9tYWUnLCAnPG91dGZpbGUubWFlPic=

> <r_epik_Ionization_Penalty>
0.0566172

> <r_epik_Ionization_Penalty_Charging>
0.00262064

> <r_epik_Ionization_Penalty_Neutral>
0.0539965

> <r_epik_State_Penalty>
0.0463959

> <r_epik_Charging_Adjusted_Penalty>
0.0490165

> <i_epik_Tot_Q>
1

> <i_epik_Tot_abs_Q>
1

> <r_epik_Metal_State_Penalty>
0.0424856

> <b_epik_Metal_Only>
0

> <s_lp_Force_Field>
OPLS_2005

> <r_lp_Energy>
100.404

> <b_lp_Chiralities_Consistent>
1

> <s_lp_Variant>
AV-unprocessed.smi:2895-3

> <Gold.Version>
5.8.1

> <Gold.Id.Protein>
6NUR|6NUR_protein|mol2

> <Gold.PLP.Fitness>
43.6334

> <Gold.PLP.PLP>
-35.3153

> <Gold.PLP.part.hbond>
-2.0000

> <Gold.PLP.part.metal>
0.0000

> <Gold.PLP.part.buried>
-4.7617

> <Gold.PLP.part.nonpolar>
-29.5560

> <Gold.PLP.part.repulsive>
0.3407

> <Gold.PLP.ligand.clash>
0.0000

> <Gold.PLP.ligand.torsion>
0.5634

> <Gold.PLP.Chemscore.Hbond>
1.4832

> <Gold.PLP.Chemscore.CHOScore>
1.6409

> <Gold.PLP.Chemscore.Metal>
0.0000

> <Gold.Chemscore.Hbonds>
donor molecule, donor type, donor heavy atom, donor atom, acceptor molecule, acceptor atom, score
      L1  H     3    25       P1  7948  1.00
      P1  H 10785 10796       L1     9  0.61
      L1  C     8    31       P1 10186  0.77
      L1  C     8    31       P1 10952  0.87

> <Gold.PLP.Chemscore.Internal.Correction>
0.0727

> <Gold.Rescore>
     Score         DG    S(hbond)    S(metal)    S(lipo)     H(rot)  DE(clash)    DE(int)     intcor
     18.19     -18.90       1.60        0.00      99.17       1.37       0.30       0.41       ----

> <Gold.Chemscore.Fitness>
18.1901

> <Gold.Chemscore.DG>
-18.9037

> <Gold.Chemscore.ZeroCoef>
-5.4800

> <Gold.Chemscore.Hbond>
1.5976

> <Gold.Chemscore.Metal>
0.0000

> <Gold.Chemscore.Lipo>
99.1702

> <Gold.Chemscore.Internal_Hbond>
0.0000

> <Gold.Chemscore.DEClash>
0.2997

> <Gold.Chemscore.DEInternal>
0.4140

> <Gold.Chemscore.Rot>
1.3731

> <Gold.Chemscore.Internal.Correction>
   9.000000E+99

> <Gold.Chemscore.Hbonds>
donor molecule, donor type, donor heavy atom, donor atom, acceptor molecule, acceptor atom, score
      L1  H     3    25       P1  7948  0.92
      P1  H 10785 10796       L1     9  0.43

> <Gold.Chemscore.Hbond.Weighted>
-5.3360

> <Gold.Chemscore.Metal.Weighted>
-0.0000

> <Gold.Chemscore.Lipo.Weighted>
-11.6029

> <Gold.Chemscore.Internal_Hbond.Weighted>
0.0000

> <Gold.Chemscore.DEClash.Weighted>
0.2997

> <Gold.Chemscore.DEInternal.Weighted>
0.4140

> <Gold.Chemscore.Rot.Weighted>
3.5152

> <Gold.Chemscore.Internal.Correction.Weighted>
   9.000000E+99

> <Gold.Protein.RotatedTorsions>
[ 6907 6896 6895 6894 ] final  133.73 input  -60.11 | X-H torsion
[ 7974 7965 7964 7962 ] final   91.38 input  175.53 | X-H torsion
[ 8008 7997 7996 7995 ] final  -14.70 input   59.86 | X-H torsion
[ 10167 10162 10161 10158 ] final  -23.35 input  -65.29 | X-H torsion
[ 10718 10713 10712 10709 ] final  -57.49 input   66.30 | X-H torsion
[ 10763 10752 10751 10750 ] final -137.01 input  -60.55 | X-H torsion
[ 11005 11000 10999 10996 ] final   80.40 input  -57.11 | X-H torsion

> <Gold.Protein.ActiveResidues>
 VAL166  LYS551  ARG553  GLY616  TRP617  ASP618  TYR619  PRO620  LYS621  CYS622 
 ASP623  PHE694  ASN695  SER759  ASP760  ASP761  ALA762  ILE779  LEU786  VAL792 
 PHE793  MET794  SER795  GLU796  ALA797  LYS798  CYS799  TRP800  GLU811  SER814 

> <Gold.Protein.RotatedAtoms>
  152.3188  133.5831  159.5730 H   0  0  0  0  0  0  0  0  0  0  0  0  # atno 6907 bound_to 6896
  150.7360  134.0042  159.3657 H   0  0  0  0  0  0  0  0  0  0  0  0  # atno 6908 bound_to 6896
  151.7928  135.0731  160.0440 H   0  0  0  0  0  0  0  0  0  0  0  0  # atno 6909 bound_to 6896
  145.5064  139.2276  143.2748 H   0  0  0  0  0  0  0  0  0  0  0  0  # atno 7974 bound_to 7965
  154.5189  140.2216  155.9013 H   0  0  0  0  0  0  0  0  0  0  0  0  # atno 8008 bound_to 7997
  156.1639  140.3136  155.8820 H   0  0  0  0  0  0  0  0  0  0  0  0  # atno 8009 bound_to 7997
  155.3695  140.0466  157.3036 H   0  0  0  0  0  0  0  0  0  0  0  0  # atno 8010 bound_to 7997
  140.7288  143.4451  151.0599 H   0  0  0  0  0  0  0  0  0  0  0  0  # atno 10167 bound_to 10162
  156.1206  130.4166  150.0448 H   0  0  0  0  0  0  0  0  0  0  0  0  # atno 10718 bound_to 10713
  154.8671  135.3655  154.5153 H   0  0  0  0  0  0  0  0  0  0  0  0  # atno 10763 bound_to 10752
  153.5786  135.7019  153.5478 H   0  0  0  0  0  0  0  0  0  0  0  0  # atno 10764 bound_to 10752
  153.3477  135.4080  155.1584 H   0  0  0  0  0  0  0  0  0  0  0  0  # atno 10765 bound_to 10752
  139.9136  134.7917  156.1904 H   0  0  0  0  0  0  0  0  0  0  0  0  # atno 11005 bound_to 11000
  146.2194  140.5868  142.9024 LP  0  0  0  0  0  0  0  0  0  0  0  0  # atno 17320 bound_to 7965
  144.7751  140.5722  143.6643 LP  0  0  0  0  0  0  0  0  0  0  0  0  # atno 17321 bound_to 7965
  139.8122  143.7935  152.3172 LP  0  0  0  0  0  0  0  0  0  0  0  0  # atno 17342 bound_to 10162
  139.7989  144.7382  150.9852 LP  0  0  0  0  0  0  0  0  0  0  0  0  # atno 17343 bound_to 10162
  156.8387  130.9418  151.3633 LP  0  0  0  0  0  0  0  0  0  0  0  0  # atno 17370 bound_to 10713
  157.6390  130.8790  149.9412 LP  0  0  0  0  0  0  0  0  0  0  0  0  # atno 17371 bound_to 10713
  141.0587  133.6852  156.1910 LP  0  0  0  0  0  0  0  0  0  0  0  0  # atno 17394 bound_to 11000
  140.6696  134.4882  157.5586 LP  0  0  0  0  0  0  0  0  0  0  0  0  # atno 17395 bound_to 11000

$$$$
