AV-unprocessed.smi:66|AV-procd|sdf|619|dock8
  -GOLD-   2262016513D 1   1.00000     0.00000
 Structure written by MMmdl.
 28 30  0  0  0  0  0  0  0  0  2 V2000
  149.4451  137.6543  159.3837 O   0  0  0  0  0  0  0  0  0  0  0  0
  150.4559  137.4556  158.6750 C   0  0  0  0  0  0  0  0  0  0  0  0
  151.4416  136.7548  158.9964 O   0  5  0  0  0  0  0  0  0  0  0  0
  150.4805  138.1367  157.3009 C   0  0  2  0  0  0  0  0  0  0  0  0
  150.4287  137.1299  156.1360 C   0  0  0  0  0  0  0  0  0  0  0  0
  151.2186  137.8295  155.0373 C   0  0  2  0  0  0  0  0  0  0  0  0
  151.7169  136.9333  154.0666 O   0  0  0  0  0  0  0  0  0  0  0  0
  152.3293  138.5055  155.8346 C   0  0  0  0  0  0  0  0  0  0  0  0
  151.7094  138.9129  157.0938 N   0  0  0  0  0  0  0  0  0  0  0  0
  151.5553  140.2391  157.3261 C   0  0  0  0  0  0  0  0  0  0  0  0
  150.6196  140.9508  156.6408 N   0  0  0  0  0  0  0  0  0  0  0  0
  150.4491  142.2528  156.8929 C   0  0  0  0  0  0  0  0  0  0  0  0
  151.0891  143.0254  157.7745 N   0  0  0  0  0  0  0  0  0  0  0  0
  152.0214  142.3102  158.4644 C   0  0  0  0  0  0  0  0  0  0  0  0
  152.8736  142.7506  159.4547 N   0  0  0  0  0  0  0  0  0  0  0  0
  153.6149  141.6565  159.8305 C   0  0  0  0  0  0  0  0  0  0  0  0
  153.3335  140.5576  159.1838 N   0  0  0  0  0  0  0  0  0  0  0  0
  152.3188  140.9277  158.3071 C   0  0  0  0  0  0  0  0  0  0  0  0
  152.8990  143.7005  159.7956 H   0  0  0  0  0  0  0  0  0  0  0  0
  149.6165  138.8004  157.2228 H   0  0  0  0  0  0  0  0  0  0  0  0
  150.9185  136.1917  156.4044 H   0  0  0  0  0  0  0  0  0  0  0  0
  149.4081  136.8962  155.8317 H   0  0  0  0  0  0  0  0  0  0  0  0
  150.5950  138.5832  154.5542 H   0  0  0  0  0  0  0  0  0  0  0  0
  150.9921  136.6260  153.5444 H   0  0  0  0  0  0  0  0  0  0  0  0
  153.1164  137.7899  156.0776 H   0  0  0  0  0  0  0  0  0  0  0  0
  152.8006  139.3169  155.2782 H   0  0  0  0  0  0  0  0  0  0  0  0
  149.6883  142.7455  156.3059 H   0  0  0  0  0  0  0  0  0  0  0  0
  154.3726  141.6996  160.5990 H   0  0  0  0  0  0  0  0  0  0  0  0
  1  2  2  0  0  0  0
  2  3  1  0  0  0  0
  2  4  1  0  0  0  0
  4  5  1  0  0  0  0
  4 20  1  0  0  0  0
  4  9  1  0  0  0  0
  5  6  1  0  0  0  0
  5 21  1  0  0  0  0
  5 22  1  0  0  0  0
  6  7  1  0  0  0  0
  6  8  1  0  0  0  0
  6 23  1  0  0  0  0
  7 24  1  0  0  0  0
  8 25  1  0  0  0  0
  8 26  1  0  0  0  0
  8  9  1  0  0  0  0
  9 10  1  0  0  0  0
 10 11  1  0  0  0  0
 10 18  2  0  0  0  0
 11 12  2  0  0  0  0
 12 27  1  0  0  0  0
 12 13  1  0  0  0  0
 13 14  2  0  0  0  0
 14 15  1  0  0  0  0
 14 18  1  0  0  0  0
 15 16  1  0  0  0  0
 15 19  1  0  0  0  0
 16 17  2  0  0  0  0
 16 28  1  0  0  0  0
 17 18  1  0  0  0  0
M  CHG  1   3  -1
M  END
> <s_m_source_file>
AV-unprocessed.smi

> <i_m_source_file_index>
66

> <i_lp_mmshare_version>
43012

> <i_f3d_flags>
0

> <s_epik_input>
Tz1DKFtPSF0pW0NAQEhdMVtDSDJdW0NAQEhdKFtPSF0pW0NIMl1OMWMobltjSF1uMiljKGMyMylbbkhdW2NIXW4z

> <s_epik_cmdline>
J2VwaWtfcHl0aG9uJywgJy1waCcsICc3LjAnLCAnLXRuJywgJzgnLCAnLW1hJywgJzIwMCcsICctbWV0YWxfYmluZGluZycsICctaW1hZScsICc8aW5maWxlLm1hZT4nLCAnLW9tYWUnLCAnPG91dGZpbGUubWFlPic=

> <r_lp_tautomer_probability>
0.955585

> <r_epik_Ionization_Penalty>
0.00455415

> <r_epik_Ionization_Penalty_Charging>
0.000248217

> <r_epik_Ionization_Penalty_Neutral>
0.00430593

> <r_epik_State_Penalty>
0.0207074

> <r_epik_Charging_Adjusted_Penalty>
0.0209557

> <i_epik_Tot_Q>
-1

> <i_epik_Tot_abs_Q>
1

> <r_epik_Metal_State_Penalty>
0.337372

> <b_epik_Metal_Only>
0

> <s_lp_Force_Field>
OPLS_2005

> <r_lp_Energy>
28.2566

> <b_lp_Chiralities_Consistent>
1

> <s_lp_Variant>
AV-unprocessed.smi:66-3

> <Gold.Version>
5.8.1

> <Gold.Id.Protein>
6NUR|6NUR_protein|mol2

> <Gold.PLP.Fitness>
38.5537

> <Gold.PLP.PLP>
-26.1527

> <Gold.PLP.part.hbond>
-4.0559

> <Gold.PLP.part.metal>
0.0000

> <Gold.PLP.part.buried>
-5.5864

> <Gold.PLP.part.nonpolar>
-16.1053

> <Gold.PLP.part.repulsive>
0.1850

> <Gold.PLP.ligand.clash>
0.0000

> <Gold.PLP.ligand.torsion>
0.2164

> <Gold.PLP.Chemscore.Hbond>
3.2457

> <Gold.PLP.Chemscore.CHOScore>
1.0000

> <Gold.PLP.Chemscore.Metal>
0.0000

> <Gold.Chemscore.Hbonds>
donor molecule, donor type, donor heavy atom, donor atom, acceptor molecule, acceptor atom, score
      L1  H     7    24       P1  7949  0.33
      P1  H  6896  6907       L1     3  1.82
      P1  H 10752 10765       L1     7  1.00
      L1  C    12    27       P1  8028  1.00

> <Gold.PLP.Chemscore.Internal.Correction>
0.0966

> <Gold.Rescore>
     Score         DG    S(hbond)    S(metal)    S(lipo)     H(rot)  DE(clash)    DE(int)     intcor
      8.24      -8.68       2.03        0.00      23.64       2.48       0.03       0.41       ----

> <Gold.Chemscore.Fitness>
8.2384

> <Gold.Chemscore.DG>
-8.6786

> <Gold.Chemscore.ZeroCoef>
-5.4800

> <Gold.Chemscore.Hbond>
2.0274

> <Gold.Chemscore.Metal>
0.0000

> <Gold.Chemscore.Lipo>
23.6417

> <Gold.Chemscore.Internal_Hbond>
0.0000

> <Gold.Chemscore.DEClash>
0.0291

> <Gold.Chemscore.DEInternal>
0.4110

> <Gold.Chemscore.Rot>
2.4762

> <Gold.Chemscore.Internal.Correction>
   9.000000E+99

> <Gold.Chemscore.Hbonds>
donor molecule, donor type, donor heavy atom, donor atom, acceptor molecule, acceptor atom, score
      L1  H     7    24       P1  7949  0.08
      P1  H  6896  6907       L1     3  0.90
      P1  H 10752 10765       L1     7  0.69

> <Gold.Chemscore.Hbond.Weighted>
-6.7716

> <Gold.Chemscore.Metal.Weighted>
-0.0000

> <Gold.Chemscore.Lipo.Weighted>
-2.7661

> <Gold.Chemscore.Internal_Hbond.Weighted>
0.0000

> <Gold.Chemscore.DEClash.Weighted>
0.0291

> <Gold.Chemscore.DEInternal.Weighted>
0.4110

> <Gold.Chemscore.Rot.Weighted>
6.3391

> <Gold.Chemscore.Internal.Correction.Weighted>
   9.000000E+99

> <Gold.Protein.RotatedTorsions>
[ 6907 6896 6895 6894 ] final    1.02 input  -60.11 | X-H torsion
[ 7974 7965 7964 7962 ] final   61.72 input  175.53 | X-H torsion
[ 8008 7997 7996 7995 ] final   10.20 input   59.86 | X-H torsion
[ 10167 10162 10161 10158 ] final -174.55 input  -65.29 | X-H torsion
[ 10718 10713 10712 10709 ] final  156.84 input   66.30 | X-H torsion
[ 10763 10752 10751 10750 ] final  144.69 input  -60.55 | X-H torsion
[ 11005 11000 10999 10996 ] final   83.10 input  -57.11 | X-H torsion

> <Gold.Protein.ActiveResidues>
 VAL166  LYS551  ARG553  GLY616  TRP617  ASP618  TYR619  PRO620  LYS621  CYS622 
 ASP623  PHE694  ASN695  SER759  ASP760  ASP761  ALA762  ILE779  LEU786  VAL792 
 PHE793  MET794  SER795  GLU796  ALA797  LYS798  CYS799  TRP800  GLU811  SER814 

> <Gold.Protein.RotatedAtoms>
  151.5859  135.1056  160.0027 H   0  0  0  0  0  0  0  0  0  0  0  0  # atno 6907 bound_to 6896
  152.4331  133.7308  159.6597 H   0  0  0  0  0  0  0  0  0  0  0  0  # atno 6908 bound_to 6896
  150.8225  133.8157  159.3155 H   0  0  0  0  0  0  0  0  0  0  0  0  # atno 6909 bound_to 6896
  145.8815  139.3446  143.0703 H   0  0  0  0  0  0  0  0  0  0  0  0  # atno 7974 bound_to 7965
  154.7902  140.2834  155.5997 H   0  0  0  0  0  0  0  0  0  0  0  0  # atno 8008 bound_to 7997
  156.2963  140.2606  156.2676 H   0  0  0  0  0  0  0  0  0  0  0  0  # atno 8009 bound_to 7997
  154.9680  140.0376  157.2210 H   0  0  0  0  0  0  0  0  0  0  0  0  # atno 8010 bound_to 7997
  139.5628  144.1829  152.1265 H   0  0  0  0  0  0  0  0  0  0  0  0  # atno 10167 bound_to 10162
  157.1996  131.0673  151.2033 H   0  0  0  0  0  0  0  0  0  0  0  0  # atno 10718 bound_to 10713
  153.9931  135.2930  155.3410 H   0  0  0  0  0  0  0  0  0  0  0  0  # atno 10763 bound_to 10752
  154.7203  135.5112  153.8805 H   0  0  0  0  0  0  0  0  0  0  0  0  # atno 10764 bound_to 10752
  153.0801  135.6676  154.0181 H   0  0  0  0  0  0  0  0  0  0  0  0  # atno 10765 bound_to 10752
  139.9042  134.8120  156.2263 H   0  0  0  0  0  0  0  0  0  0  0  0  # atno 11005 bound_to 11000
  145.9018  140.9238  143.0499 LP  0  0  0  0  0  0  0  0  0  0  0  0  # atno 17320 bound_to 7965
  144.6727  140.1042  143.7459 LP  0  0  0  0  0  0  0  0  0  0  0  0  # atno 17321 bound_to 7965
  140.1346  144.5258  150.6781 LP  0  0  0  0  0  0  0  0  0  0  0  0  # atno 17342 bound_to 10162
  140.6909  143.2375  151.5134 LP  0  0  0  0  0  0  0  0  0  0  0  0  # atno 17343 bound_to 10162
  157.3780  130.7216  149.6610 LP  0  0  0  0  0  0  0  0  0  0  0  0  # atno 17370 bound_to 10713
  155.9702  130.4180  150.4307 LP  0  0  0  0  0  0  0  0  0  0  0  0  # atno 17371 bound_to 10713
  141.0373  133.6956  156.1536 LP  0  0  0  0  0  0  0  0  0  0  0  0  # atno 17394 bound_to 11000
  140.7007  134.4567  157.5586 LP  0  0  0  0  0  0  0  0  0  0  0  0  # atno 17395 bound_to 11000

$$$$
