AV-unprocessed.smi:1644|AV-procd|sdf|6591|dock7
  -GOLD-   22720 7283D 1   1.00000     0.00000
 Structure written by MMmdl.
 50 52  0  0  0  0  0  0  0  0  2 V2000
  150.8654  134.3147  156.1576 C   0  0  0  0  0  0  0  0  0  0  0  0
  150.1256  135.3766  155.3372 C   0  0  0  0  0  0  0  0  0  0  0  0
  150.6915  136.7938  155.5620 C   0  0  0  0  0  0  0  0  0  0  0  0
  149.9600  137.9359  154.8198 C   0  0  1  0  0  0  0  0  0  0  0  0
  148.7136  138.3244  155.4497 N   0  0  0  0  0  0  0  0  0  0  0  0
  148.6883  139.6223  155.7815 C   0  0  0  0  0  0  0  0  0  0  0  0
  147.7393  140.2007  156.3080 O   0  0  0  0  0  0  0  0  0  0  0  0
  149.8671  140.1711  155.4367 N   0  0  0  0  0  0  0  0  0  0  0  0
  150.2142  141.5812  155.6363 C   0  0  0  0  0  0  0  0  0  0  0  0
  150.3660  141.9218  157.1328 C   0  0  1  0  0  0  0  0  0  0  0  0
  150.5622  140.7242  157.8587 O   0  0  0  0  0  0  0  0  0  0  0  0
  151.5732  142.8444  157.3910 C   0  0  0  0  0  0  0  0  0  0  0  0
  151.4862  143.5394  158.6810 N   0  0  0  0  0  0  0  0  0  0  0  0
  150.7645  144.6345  159.0426 C   0  0  0  0  0  0  0  0  0  0  0  0
  151.0327  144.8864  160.3544 N   0  3  0  0  0  0  0  0  0  0  0  0
  151.9400  143.9392  160.8351 C   0  0  0  0  0  0  0  0  0  0  0  0
  152.5125  143.7791  162.0915 C   0  0  0  0  0  0  0  0  0  0  0  0
  153.4127  142.7020  162.2578 C   0  0  0  0  0  0  0  0  0  0  0  0
  154.0570  142.4991  163.6187 C   0  0  0  0  0  0  0  0  0  0  0  0
  153.7125  141.8273  161.1811 C   0  0  0  0  0  0  0  0  0  0  0  0
  154.6853  140.6755  161.3689 C   0  0  0  0  0  0  0  0  0  0  0  0
  153.1171  142.0048  159.9120 C   0  0  0  0  0  0  0  0  0  0  0  0
  152.2337  143.0714  159.7660 C   0  0  0  0  0  0  0  0  0  0  0  0
  150.6787  139.2718  154.8640 C   0  0  0  0  0  0  0  0  0  0  0  0
  151.8136  139.4621  154.4262 O   0  0  0  0  0  0  0  0  0  0  0  0
  150.4412  133.3253  155.9848 H   0  0  0  0  0  0  0  0  0  0  0  0
  150.7969  134.5232  157.2258 H   0  0  0  0  0  0  0  0  0  0  0  0
  151.9216  134.2752  155.8898 H   0  0  0  0  0  0  0  0  0  0  0  0
  150.1885  135.1128  154.2812 H   0  0  0  0  0  0  0  0  0  0  0  0
  149.0678  135.3481  155.6001 H   0  0  0  0  0  0  0  0  0  0  0  0
  150.6935  137.0125  156.6309 H   0  0  0  0  0  0  0  0  0  0  0  0
  151.7392  136.8043  155.2592 H   0  0  0  0  0  0  0  0  0  0  0  0
  149.7721  137.6605  153.7813 H   0  0  0  0  0  0  0  0  0  0  0  0
  147.9498  137.6811  155.6004 H   0  0  0  0  0  0  0  0  0  0  0  0
  151.1091  141.8590  155.0756 H   0  0  0  0  0  0  0  0  0  0  0  0
  149.4135  142.1820  155.2015 H   0  0  0  0  0  0  0  0  0  0  0  0
  149.4621  142.4069  157.5030 H   0  0  0  0  0  0  0  0  0  0  0  0
  149.9577  140.0733  157.5349 H   0  0  0  0  0  0  0  0  0  0  0  0
  152.5029  142.2734  157.3806 H   0  0  0  0  0  0  0  0  0  0  0  0
  151.6632  143.5984  156.6080 H   0  0  0  0  0  0  0  0  0  0  0  0
  150.1032  145.2019  158.4037 H   0  0  0  0  0  0  0  0  0  0  0  0
  152.2806  144.4497  162.9060 H   0  0  0  0  0  0  0  0  0  0  0  0
  153.8266  141.5073  164.0086 H   0  0  0  0  0  0  0  0  0  0  0  0
  153.7002  143.2321  164.3429 H   0  0  0  0  0  0  0  0  0  0  0  0
  155.1403  142.6007  163.5475 H   0  0  0  0  0  0  0  0  0  0  0  0
  154.8269  140.1179  160.4426 H   0  0  0  0  0  0  0  0  0  0  0  0
  154.3145  139.9807  162.1229 H   0  0  0  0  0  0  0  0  0  0  0  0
  155.6607  141.0449  161.6868 H   0  0  0  0  0  0  0  0  0  0  0  0
  153.3440  141.3400  159.0912 H   0  0  0  0  0  0  0  0  0  0  0  0
  150.6262  145.6504  160.8791 H   0  0  0  0  0  0  0  0  0  0  0  0
  1  2  1  0  0  0  0
  1 26  1  0  0  0  0
  1 27  1  0  0  0  0
  1 28  1  0  0  0  0
  2  3  1  0  0  0  0
  2 29  1  0  0  0  0
  2 30  1  0  0  0  0
  3  4  1  0  0  0  0
  3 31  1  0  0  0  0
  3 32  1  0  0  0  0
  4 24  1  0  0  0  0
  4  5  1  0  0  0  0
  4 33  1  0  0  0  0
  5  6  1  0  0  0  0
  5 34  1  0  0  0  0
  6  7  2  0  0  0  0
  6  8  1  0  0  0  0
  8  9  1  0  0  0  0
  8 24  1  0  0  0  0
  9 10  1  0  0  0  0
  9 35  1  0  0  0  0
  9 36  1  0  0  0  0
 10 11  1  0  0  0  0
 10 12  1  0  0  0  0
 10 37  1  0  0  0  0
 11 38  1  0  0  0  0
 12 13  1  0  0  0  0
 12 39  1  0  0  0  0
 12 40  1  0  0  0  0
 13 23  1  0  0  0  0
 13 14  1  0  0  0  0
 14 15  2  0  0  0  0
 14 41  1  0  0  0  0
 15 16  1  0  0  0  0
 15 50  1  0  0  0  0
 16 23  2  0  0  0  0
 16 17  1  0  0  0  0
 17 18  2  0  0  0  0
 17 42  1  0  0  0  0
 18 19  1  0  0  0  0
 18 20  1  0  0  0  0
 19 43  1  0  0  0  0
 19 44  1  0  0  0  0
 19 45  1  0  0  0  0
 20 21  1  0  0  0  0
 20 22  2  0  0  0  0
 21 46  1  0  0  0  0
 21 47  1  0  0  0  0
 21 48  1  0  0  0  0
 22 23  1  0  0  0  0
 22 49  1  0  0  0  0
 24 25  2  0  0  0  0
M  CHG  1  15   1
M  END
> <s_m_source_file>
AV-unprocessed.smi

> <i_m_source_file_index>
1644

> <i_lp_mmshare_version>
43012

> <i_f3d_flags>
0

> <s_epik_input>
W0NIM11bQ0gyXVtDSDJdW0NAQEhdMVtOSF1DKD1PKU4oQzE9TylbQ0gyXVtDQEhdKFtPSF0pW0NIMl1uKFtjSF1uMiljKGMyMylbY0hdYyhbQ0gzXSljKFtjSF0zKVtDSDNd

> <s_epik_cmdline>
J2VwaWtfcHl0aG9uJywgJy1waCcsICc3LjAnLCAnLXRuJywgJzgnLCAnLW1hJywgJzIwMCcsICctbWV0YWxfYmluZGluZycsICctaW1hZScsICc8aW5maWxlLm1hZT4nLCAnLW9tYWUnLCAnPG91dGZpbGUubWFlPic=

> <r_lp_tautomer_probability>
1

> <r_epik_Ionization_Penalty>
1.06742

> <r_epik_Ionization_Penalty_Charging>
1.06736

> <r_epik_Ionization_Penalty_Neutral>
5.56132e-05

> <r_epik_State_Penalty>
1.12163

> <r_epik_Charging_Adjusted_Penalty>
2.18899

> <i_epik_Tot_Q>
1

> <i_epik_Tot_abs_Q>
1

> <r_epik_Metal_State_Penalty>
1.26636

> <b_epik_Metal_Only>
0

> <s_lp_Force_Field>
OPLS_2005

> <r_lp_Energy>
28.3475

> <b_lp_Chiralities_Consistent>
1

> <s_lp_Variant>
AV-unprocessed.smi:1644-8

> <Gold.Version>
5.8.1

> <Gold.Id.Protein>
6NUR|6NUR_protein|mol2

> <Gold.PLP.Fitness>
56.6250

> <Gold.PLP.PLP>
-52.9124

> <Gold.PLP.part.hbond>
-1.0000

> <Gold.PLP.part.metal>
0.0000

> <Gold.PLP.part.buried>
-6.1450

> <Gold.PLP.part.nonpolar>
-45.3195

> <Gold.PLP.part.repulsive>
0.2649

> <Gold.PLP.ligand.clash>
0.0000

> <Gold.PLP.ligand.torsion>
1.1809

> <Gold.PLP.Chemscore.Hbond>
0.9920

> <Gold.PLP.Chemscore.CHOScore>
0.9995

> <Gold.PLP.Chemscore.Metal>
0.0000

> <Gold.Chemscore.Hbonds>
donor molecule, donor type, donor heavy atom, donor atom, acceptor molecule, acceptor atom, score
      P1  H  7989  7998       L1    25  0.99
      L1  C    14    41       P1  8029  0.90

> <Gold.PLP.Chemscore.Internal.Correction>
0.0997

> <Gold.Rescore>
     Score         DG    S(hbond)    S(metal)    S(lipo)     H(rot)  DE(clash)    DE(int)     intcor
     15.02     -16.18       0.92        0.00     126.27       2.80       0.21       0.95       ----

> <Gold.Chemscore.Fitness>
15.0203

> <Gold.Chemscore.DG>
-16.1813

> <Gold.Chemscore.ZeroCoef>
-5.4800

> <Gold.Chemscore.Hbond>
0.9238

> <Gold.Chemscore.Metal>
0.0000

> <Gold.Chemscore.Lipo>
126.2706

> <Gold.Chemscore.Internal_Hbond>
0.0000

> <Gold.Chemscore.DEClash>
0.2120

> <Gold.Chemscore.DEInternal>
0.9489

> <Gold.Chemscore.Rot>
2.7961

> <Gold.Chemscore.Internal.Correction>
   9.000000E+99

> <Gold.Chemscore.Hbonds>
donor molecule, donor type, donor heavy atom, donor atom, acceptor molecule, acceptor atom, score
      P1  H  7989  7998       L1    25  0.42

> <Gold.Chemscore.Hbond.Weighted>
-3.0856

> <Gold.Chemscore.Metal.Weighted>
-0.0000

> <Gold.Chemscore.Lipo.Weighted>
-14.7737

> <Gold.Chemscore.Internal_Hbond.Weighted>
0.0000

> <Gold.Chemscore.DEClash.Weighted>
0.2120

> <Gold.Chemscore.DEInternal.Weighted>
0.9489

> <Gold.Chemscore.Rot.Weighted>
7.1580

> <Gold.Chemscore.Internal.Correction.Weighted>
   9.000000E+99

> <Gold.Protein.RotatedTorsions>
[ 6907 6896 6895 6894 ] final -111.13 input  -60.11 | X-H torsion
[ 7974 7965 7964 7962 ] final   85.89 input  175.53 | X-H torsion
[ 8008 7997 7996 7995 ] final   34.57 input   59.86 | X-H torsion
[ 10167 10162 10161 10158 ] final  -68.37 input  -65.29 | X-H torsion
[ 10718 10713 10712 10709 ] final   48.05 input   66.30 | X-H torsion
[ 10763 10752 10751 10750 ] final -114.01 input  -60.55 | X-H torsion
[ 11005 11000 10999 10996 ] final -131.72 input  -57.11 | X-H torsion

> <Gold.Protein.ActiveResidues>
 VAL166  LYS551  ARG553  GLY616  TRP617  ASP618  TYR619  PRO620  LYS621  CYS622 
 ASP623  PHE694  ASN695  SER759  ASP760  ASP761  ALA762  ILE779  LEU786  VAL792 
 PHE793  MET794  SER795  GLU796  ALA797  LYS798  CYS799  TRP800  GLU811  SER814 

> <Gold.Protein.RotatedAtoms>
  150.7670  133.9281  159.3418 H   0  0  0  0  0  0  0  0  0  0  0  0  # atno 6907 bound_to 6896
  151.7176  135.0898  160.0288 H   0  0  0  0  0  0  0  0  0  0  0  0  # atno 6908 bound_to 6896
  152.3670  133.6332  159.6094 H   0  0  0  0  0  0  0  0  0  0  0  0  # atno 6909 bound_to 6896
  145.5796  139.2323  143.2360 H   0  0  0  0  0  0  0  0  0  0  0  0  # atno 7974 bound_to 7965
  155.1569  140.3280  155.4419 H   0  0  0  0  0  0  0  0  0  0  0  0  # atno 8008 bound_to 7997
  156.2555  140.1967  156.6629 H   0  0  0  0  0  0  0  0  0  0  0  0  # atno 8009 bound_to 7997
  154.6433  140.0567  156.9857 H   0  0  0  0  0  0  0  0  0  0  0  0  # atno 8010 bound_to 7997
  140.5512  143.2312  151.6907 H   0  0  0  0  0  0  0  0  0  0  0  0  # atno 10167 bound_to 10162
  157.4647  130.8218  149.7923 H   0  0  0  0  0  0  0  0  0  0  0  0  # atno 10718 bound_to 10713
  154.8421  135.4433  154.1438 H   0  0  0  0  0  0  0  0  0  0  0  0  # atno 10763 bound_to 10752
  153.2617  135.6936  153.7578 H   0  0  0  0  0  0  0  0  0  0  0  0  # atno 10764 bound_to 10752
  153.6852  135.3396  155.3164 H   0  0  0  0  0  0  0  0  0  0  0  0  # atno 10765 bound_to 10752
  140.9234  134.1414  157.4295 H   0  0  0  0  0  0  0  0  0  0  0  0  # atno 11005 bound_to 11000
  146.1726  140.6622  142.9226 LP  0  0  0  0  0  0  0  0  0  0  0  0  # atno 17320 bound_to 7965
  144.7400  140.4916  143.6876 LP  0  0  0  0  0  0  0  0  0  0  0  0  # atno 17321 bound_to 7965
  139.5028  144.3814  152.0372 LP  0  0  0  0  0  0  0  0  0  0  0  0  # atno 17342 bound_to 10162
  140.2931  144.3731  150.6082 LP  0  0  0  0  0  0  0  0  0  0  0  0  # atno 17343 bound_to 10162
  156.0045  130.3863  150.2483 LP  0  0  0  0  0  0  0  0  0  0  0  0  # atno 17370 bound_to 10713
  157.0662  131.0104  151.3206 LP  0  0  0  0  0  0  0  0  0  0  0  0  # atno 17371 bound_to 10713
  139.8780  134.9979  156.5874 LP  0  0  0  0  0  0  0  0  0  0  0  0  # atno 17394 bound_to 11000
  140.7958  133.8545  155.8684 LP  0  0  0  0  0  0  0  0  0  0  0  0  # atno 17395 bound_to 11000

$$$$
