AV-unprocessed.smi:1240|AV-procd|sdf|5197|dock3
  -GOLD-   22720 4283D 1   1.00000     0.00000
 Structure written by MMmdl.
 47 49  0  0  0  0  0  0  0  0  1 V2000
  145.2543  135.3116  154.0544 O   0  0  0  0  0  0  0  0  0  0  0  0
  146.3465  135.4182  153.4970 C   0  0  0  0  0  0  0  0  0  0  0  0
  147.3366  136.1951  153.9589 N   0  0  0  0  0  0  0  0  0  0  0  0
  147.2612  137.0233  155.1597 C   0  0  0  0  0  0  0  0  0  0  0  0
  148.4502  136.8006  156.1473 C   0  0  2  0  0  0  0  0  0  0  0  0
  147.8914  136.7261  157.6099 C   0  0  1  0  0  0  0  0  0  0  0  0
  148.8496  136.6670  158.7874 C   0  0  0  0  0  0  0  0  0  0  0  0
  147.9056  136.9187  159.9565 C   0  0  0  0  0  0  0  0  0  0  0  0
  146.9589  137.8620  159.4664 O   0  0  0  0  0  0  0  0  0  0  0  0
  147.0009  137.8981  158.0415 C   0  0  0  0  0  0  0  0  0  0  0  0
  149.5856  137.7452  155.9900 N   0  0  0  0  0  0  0  0  0  0  0  0
  150.2514  137.5839  154.6904 C   0  0  0  0  0  0  0  0  0  0  0  0
  151.4929  138.4806  154.5568 C   0  0  0  0  0  0  0  0  0  0  0  0
  151.1091  139.8404  154.7205 O   0  0  0  0  0  0  0  0  0  0  0  0
  150.4712  140.0784  155.9694 C   0  0  0  0  0  0  0  0  0  0  0  0
  149.2400  139.1651  156.1117 C   0  0  0  0  0  0  0  0  0  0  0  0
  146.7031  134.8076  152.3537 N   0  0  0  0  0  0  0  0  0  0  0  0
  145.9385  133.9291  151.5388 C   0  0  0  0  0  0  0  0  0  0  0  0
  144.5337  134.0376  151.5974 C   0  0  0  0  0  0  0  0  0  0  0  0
  143.7522  133.1877  150.7896 C   0  0  0  0  0  0  0  0  0  0  0  0
  144.2792  132.2736  149.9484 N   0  0  0  0  0  0  0  0  0  0  0  0
  145.6242  132.1808  149.8826 C   0  0  0  0  0  0  0  0  0  0  0  0
  146.4963  132.9815  150.6469 C   0  0  0  0  0  0  0  0  0  0  0  0
  148.2011  136.2266  153.4385 H   0  0  0  0  0  0  0  0  0  0  0  0
  147.2142  138.0609  154.8269 H   0  0  0  0  0  0  0  0  0  0  0  0
  146.3100  136.8173  155.6508 H   0  0  0  0  0  0  0  0  0  0  0  0
  148.8321  135.8060  155.9125 H   0  0  0  0  0  0  0  0  0  0  0  0
  147.2869  135.8206  157.6819 H   0  0  0  0  0  0  0  0  0  0  0  0
  149.3851  135.7207  158.8682 H   0  0  0  0  0  0  0  0  0  0  0  0
  149.5688  137.4854  158.7580 H   0  0  0  0  0  0  0  0  0  0  0  0
  147.3812  136.0023  160.2296 H   0  0  0  0  0  0  0  0  0  0  0  0
  148.4221  137.2922  160.8410 H   0  0  0  0  0  0  0  0  0  0  0  0
  147.4349  138.8497  157.7315 H   0  0  0  0  0  0  0  0  0  0  0  0
  145.9947  137.8349  157.6266 H   0  0  0  0  0  0  0  0  0  0  0  0
  150.5418  136.5556  154.5013 H   0  0  0  0  0  0  0  0  0  0  0  0
  149.5521  137.8360  153.8914 H   0  0  0  0  0  0  0  0  0  0  0  0
  152.2476  138.2112  155.2972 H   0  0  0  0  0  0  0  0  0  0  0  0
  151.9471  138.3562  153.5737 H   0  0  0  0  0  0  0  0  0  0  0  0
  151.1764  139.9024  156.7833 H   0  0  0  0  0  0  0  0  0  0  0  0
  150.1750  141.1259  156.0237 H   0  0  0  0  0  0  0  0  0  0  0  0
  148.4975  139.4362  155.3594 H   0  0  0  0  0  0  0  0  0  0  0  0
  148.7983  139.3663  157.0873 H   0  0  0  0  0  0  0  0  0  0  0  0
  147.6106  135.0535  151.9871 H   0  0  0  0  0  0  0  0  0  0  0  0
  144.0584  134.7530  152.2526 H   0  0  0  0  0  0  0  0  0  0  0  0
  142.6741  133.2456  150.8193 H   0  0  0  0  0  0  0  0  0  0  0  0
  146.0194  131.4494  149.1933 H   0  0  0  0  0  0  0  0  0  0  0  0
  147.5614  132.8605  150.5241 H   0  0  0  0  0  0  0  0  0  0  0  0
  1  2  2  0  0  0  0
  2  3  1  0  0  0  0
  2 17  1  0  0  0  0
  3  4  1  0  0  0  0
  3 24  1  0  0  0  0
  4  5  1  0  0  0  0
  4 25  1  0  0  0  0
  4 26  1  0  0  0  0
  5  6  1  0  0  0  0
  5 11  1  0  0  0  0
  5 27  1  0  0  0  0
  6 10  1  0  0  0  0
  6  7  1  0  0  0  0
  6 28  1  0  0  0  0
  7  8  1  0  0  0  0
  7 29  1  0  0  0  0
  7 30  1  0  0  0  0
  8  9  1  0  0  0  0
  8 31  1  0  0  0  0
  8 32  1  0  0  0  0
  9 10  1  0  0  0  0
 10 33  1  0  0  0  0
 10 34  1  0  0  0  0
 11 16  1  0  0  0  0
 11 12  1  0  0  0  0
 12 13  1  0  0  0  0
 12 35  1  0  0  0  0
 12 36  1  0  0  0  0
 13 14  1  0  0  0  0
 13 37  1  0  0  0  0
 13 38  1  0  0  0  0
 14 15  1  0  0  0  0
 15 16  1  0  0  0  0
 15 39  1  0  0  0  0
 15 40  1  0  0  0  0
 16 41  1  0  0  0  0
 16 42  1  0  0  0  0
 17 18  1  0  0  0  0
 17 43  1  0  0  0  0
 18 23  1  0  0  0  0
 18 19  2  0  0  0  0
 19 20  1  0  0  0  0
 19 44  1  0  0  0  0
 20 21  2  0  0  0  0
 20 45  1  0  0  0  0
 21 22  1  0  0  0  0
 22 23  2  0  0  0  0
 22 46  1  0  0  0  0
 23 47  1  0  0  0  0
M  END
> <s_m_source_file>
AV-unprocessed.smi

> <i_m_source_file_index>
1240

> <i_lp_mmshare_version>
43012

> <i_f3d_flags>
0

> <s_epik_input>
W2NIXTFbY0hdbltjSF1bY0hdYzFbTkhdQyg9TylbTkhdW0NIMl1bQ0BIXShbQ0BASF0yW0NIMl1bQ0gyXU9bQ0gyXTIpTjNbQ0gyXVtDSDJdT1tDSDJdW0NIMl0z

> <s_epik_cmdline>
J2VwaWtfcHl0aG9uJywgJy1waCcsICc3LjAnLCAnLXRuJywgJzgnLCAnLW1hJywgJzIwMCcsICctbWV0YWxfYmluZGluZycsICctaW1hZScsICc8aW5maWxlLm1hZT4nLCAnLW9tYWUnLCAnPG91dGZpbGUubWFlPic=

> <r_epik_Ionization_Penalty>
0.238664

> <r_epik_Ionization_Penalty_Charging>
0

> <r_epik_Ionization_Penalty_Neutral>
0.238664

> <r_epik_State_Penalty>
0.217087

> <r_epik_Charging_Adjusted_Penalty>
0.217087

> <i_epik_Tot_Q>
0

> <i_epik_Tot_abs_Q>
0

> <r_epik_Metal_State_Penalty>
0.199194

> <b_epik_Metal_Only>
0

> <s_lp_Force_Field>
OPLS_2005

> <r_lp_Energy>
60.4564

> <b_lp_Chiralities_Consistent>
1

> <s_lp_Variant>
AV-unprocessed.smi:1240-3

> <Gold.Version>
5.8.1

> <Gold.Id.Protein>
6NUR|6NUR_protein|mol2

> <Gold.PLP.Fitness>
43.4179

> <Gold.PLP.PLP>
-30.4840

> <Gold.PLP.part.hbond>
-4.0000

> <Gold.PLP.part.metal>
0.0000

> <Gold.PLP.part.buried>
-5.9597

> <Gold.PLP.part.nonpolar>
-21.9686

> <Gold.PLP.part.repulsive>
0.3332

> <Gold.PLP.ligand.clash>
0.0000

> <Gold.PLP.ligand.torsion>
0.9290

> <Gold.PLP.Chemscore.Hbond>
3.8560

> <Gold.PLP.Chemscore.CHOScore>
1.0000

> <Gold.PLP.Chemscore.Metal>
0.0000

> <Gold.Chemscore.Hbonds>
donor molecule, donor type, donor heavy atom, donor atom, acceptor molecule, acceptor atom, score
      L1  H     3    24       P1  7948  0.94
      L1  H    17    43       P1  7948  1.00
      P1  H  6934  6947       L1     9  0.56
      P1  H  7989  7998       L1    14  1.00
      L1  C    20    45       P1 10186  1.00

> <Gold.PLP.Chemscore.Internal.Correction>
0.2239

> <Gold.Rescore>
     Score         DG    S(hbond)    S(metal)    S(lipo)     H(rot)  DE(clash)    DE(int)     intcor
     19.76     -22.04       3.76        0.00      70.28       1.65       0.00       2.28       ----

> <Gold.Chemscore.Fitness>
19.7566

> <Gold.Chemscore.DG>
-22.0397

> <Gold.Chemscore.ZeroCoef>
-5.4800

> <Gold.Chemscore.Hbond>
3.7615

> <Gold.Chemscore.Metal>
0.0000

> <Gold.Chemscore.Lipo>
70.2783

> <Gold.Chemscore.Internal_Hbond>
0.0000

> <Gold.Chemscore.DEClash>
0.0009

> <Gold.Chemscore.DEInternal>
2.2822

> <Gold.Chemscore.Rot>
1.6508

> <Gold.Chemscore.Internal.Correction>
   9.000000E+99

> <Gold.Chemscore.Hbonds>
donor molecule, donor type, donor heavy atom, donor atom, acceptor molecule, acceptor atom, score
      L1  H     3    24       P1  7948  0.91
      L1  H    17    43       P1  7948  0.84
      P1  H  6934  6947       L1     9  0.07
      P1  H  7989  7998       L1    14  0.88

> <Gold.Chemscore.Hbond.Weighted>
-12.5634

> <Gold.Chemscore.Metal.Weighted>
-0.0000

> <Gold.Chemscore.Lipo.Weighted>
-8.2226

> <Gold.Chemscore.Internal_Hbond.Weighted>
0.0000

> <Gold.Chemscore.DEClash.Weighted>
0.0009

> <Gold.Chemscore.DEInternal.Weighted>
2.2822

> <Gold.Chemscore.Rot.Weighted>
4.2262

> <Gold.Chemscore.Internal.Correction.Weighted>
   9.000000E+99

> <Gold.Protein.RotatedTorsions>
[ 6907 6896 6895 6894 ] final -100.48 input  -60.11 | X-H torsion
[ 7974 7965 7964 7962 ] final  103.05 input  175.53 | X-H torsion
[ 8008 7997 7996 7995 ] final   33.21 input   59.86 | X-H torsion
[ 10167 10162 10161 10158 ] final  171.05 input  -65.29 | X-H torsion
[ 10718 10713 10712 10709 ] final   72.34 input   66.30 | X-H torsion
[ 10763 10752 10751 10750 ] final -105.10 input  -60.55 | X-H torsion
[ 11005 11000 10999 10996 ] final   45.08 input  -57.11 | X-H torsion

> <Gold.Protein.ActiveResidues>
 VAL166  LYS551  ARG553  GLY616  TRP617  ASP618  TYR619  PRO620  LYS621  CYS622 
 ASP623  PHE694  ASN695  SER759  ASP760  ASP761  ALA762  ILE779  LEU786  VAL792 
 PHE793  MET794  SER795  GLU796  ALA797  LYS798  CYS799  TRP800  GLU811  SER814 

> <Gold.Protein.RotatedAtoms>
  150.7117  134.0881  159.3921 H   0  0  0  0  0  0  0  0  0  0  0  0  # atno 6907 bound_to 6896
  151.8866  135.0431  160.0503 H   0  0  0  0  0  0  0  0  0  0  0  0  # atno 6908 bound_to 6896
  152.2525  133.5192  159.5370 H   0  0  0  0  0  0  0  0  0  0  0  0  # atno 6909 bound_to 6896
  145.3510  139.2439  143.3558 H   0  0  0  0  0  0  0  0  0  0  0  0  # atno 7974 bound_to 7965
  155.1350  140.3261  155.4465 H   0  0  0  0  0  0  0  0  0  0  0  0  # atno 8008 bound_to 7997
  156.2622  140.2004  156.6417 H   0  0  0  0  0  0  0  0  0  0  0  0  # atno 8009 bound_to 7997
  154.6584  140.0550  157.0022 H   0  0  0  0  0  0  0  0  0  0  0  0  # atno 8010 bound_to 7997
  139.5035  144.3529  151.9904 H   0  0  0  0  0  0  0  0  0  0  0  0  # atno 10167 bound_to 10162
  157.6496  130.9573  150.0914 H   0  0  0  0  0  0  0  0  0  0  0  0  # atno 10718 bound_to 10713
  154.7924  135.4761  154.0082 H   0  0  0  0  0  0  0  0  0  0  0  0  # atno 10763 bound_to 10752
  153.1650  135.6815  153.8694 H   0  0  0  0  0  0  0  0  0  0  0  0  # atno 10764 bound_to 10752
  153.8296  135.3193  155.3395 H   0  0  0  0  0  0  0  0  0  0  0  0  # atno 10765 bound_to 10752
  140.1492  134.4483  155.8394 H   0  0  0  0  0  0  0  0  0  0  0  0  # atno 11005 bound_to 11000
  146.2968  140.4127  142.8719 LP  0  0  0  0  0  0  0  0  0  0  0  0  # atno 17320 bound_to 7965
  144.8717  140.7282  143.6042 LP  0  0  0  0  0  0  0  0  0  0  0  0  # atno 17321 bound_to 7965
  140.2966  144.3694  150.6072 LP  0  0  0  0  0  0  0  0  0  0  0  0  # atno 17342 bound_to 10162
  140.5906  143.2168  151.7260 LP  0  0  0  0  0  0  0  0  0  0  0  0  # atno 17343 bound_to 10162
  156.1862  130.3652  149.8969 LP  0  0  0  0  0  0  0  0  0  0  0  0  # atno 17370 bound_to 10713
  156.6909  130.8895  151.3588 LP  0  0  0  0  0  0  0  0  0  0  0  0  # atno 17371 bound_to 10713
  141.2197  133.6865  156.7390 LP  0  0  0  0  0  0  0  0  0  0  0  0  # atno 17394 bound_to 11000
  140.2625  134.8455  157.3772 LP  0  0  0  0  0  0  0  0  0  0  0  0  # atno 17395 bound_to 11000

$$$$
