AV-unprocessed.smi:2095|AV-procd|sdf|8556|dock3
  -GOLD-   2272011283D 1   1.00000     0.00000
 Structure written by MMmdl.
 42 43  0  0  0  0  0  0  0  0  2 V2000
  152.8233  144.7336  158.1283 C   0  0  0  0  0  0  0  0  0  0  0  0
  151.8001  144.1726  159.1314 C   0  0  2  0  0  0  0  0  0  0  0  0
  152.4446  143.7347  160.4607 C   0  0  0  0  0  0  0  0  0  0  0  0
  153.2248  142.4211  160.3000 C   0  0  0  0  0  0  0  0  0  0  0  0
  152.3456  141.3282  159.6718 C   0  0  0  0  0  0  0  0  0  0  0  0
  151.7832  141.7859  158.3742 N   0  3  1  0  0  0  0  0  0  0  0  0
  151.1456  140.6929  157.5844 C   0  0  2  0  0  0  0  0  0  0  0  0
  152.0367  139.4353  157.5747 C   0  0  0  0  0  0  0  0  0  0  0  0
  150.7181  141.1372  156.1620 C   0  0  0  0  0  0  0  0  0  0  0  0
  149.3515  140.7351  155.8518 N   0  0  0  0  0  0  0  0  0  0  0  0
  148.7001  141.0384  154.7186 C   0  0  0  0  0  0  0  0  0  0  0  0
  149.2189  141.6398  153.7786 O   0  0  0  0  0  0  0  0  0  0  0  0
  147.2303  140.6262  154.6484 C   0  0  0  0  0  0  0  0  0  0  0  0
  146.3778  141.7991  154.6061 N   0  0  0  0  0  0  0  0  0  0  0  0
  146.3043  142.7980  153.7241 C   0  0  0  0  0  0  0  0  0  0  0  0
  145.4016  143.6990  154.0810 N   0  0  0  0  0  0  0  0  0  0  0  0
  144.9003  143.1902  155.2677 N   0  0  0  0  0  0  0  0  0  0  0  0
  145.4758  142.0631  155.5847 N   0  0  0  0  0  0  0  0  0  0  0  0
  150.9665  143.0215  158.5319 C   0  0  0  0  0  0  0  0  0  0  0  0
  153.5505  143.9813  157.8226 H   0  0  0  0  0  0  0  0  0  0  0  0
  153.3738  145.5709  158.5583 H   0  0  0  0  0  0  0  0  0  0  0  0
  152.3280  145.0967  157.2272 H   0  0  0  0  0  0  0  0  0  0  0  0
  151.1134  144.9894  159.3577 H   0  0  0  0  0  0  0  0  0  0  0  0
  153.0972  144.5182  160.8478 H   0  0  0  0  0  0  0  0  0  0  0  0
  151.6627  143.5931  161.2079 H   0  0  0  0  0  0  0  0  0  0  0  0
  154.1067  142.5848  159.6801 H   0  0  0  0  0  0  0  0  0  0  0  0
  153.5930  142.0881  161.2709 H   0  0  0  0  0  0  0  0  0  0  0  0
  152.9469  140.4304  159.5247 H   0  0  0  0  0  0  0  0  0  0  0  0
  151.5382  141.0610  160.3546 H   0  0  0  0  0  0  0  0  0  0  0  0
  150.2453  140.4053  158.1293 H   0  0  0  0  0  0  0  0  0  0  0  0
  151.5045  138.5753  157.1668 H   0  0  0  0  0  0  0  0  0  0  0  0
  152.3483  139.1680  158.5849 H   0  0  0  0  0  0  0  0  0  0  0  0
  152.9353  139.5745  156.9741 H   0  0  0  0  0  0  0  0  0  0  0  0
  150.8132  142.2172  156.0412 H   0  0  0  0  0  0  0  0  0  0  0  0
  151.3620  140.6835  155.4087 H   0  0  0  0  0  0  0  0  0  0  0  0
  148.8466  140.2359  156.5703 H   0  0  0  0  0  0  0  0  0  0  0  0
  147.0495  140.0266  153.7551 H   0  0  0  0  0  0  0  0  0  0  0  0
  146.9648  140.0129  155.5111 H   0  0  0  0  0  0  0  0  0  0  0  0
  146.9133  142.8691  152.8349 H   0  0  0  0  0  0  0  0  0  0  0  0
  150.1196  142.8166  159.1881 H   0  0  0  0  0  0  0  0  0  0  0  0
  150.5502  143.3346  157.5748 H   0  0  0  0  0  0  0  0  0  0  0  0
  152.5867  142.0606  157.8273 H   0  0  0  0  0  0  0  0  0  0  0  0
  1  2  1  0  0  0  0
  1 20  1  0  0  0  0
  1 21  1  0  0  0  0
  1 22  1  0  0  0  0
  2 19  1  0  0  0  0
  2  3  1  0  0  0  0
  2 23  1  0  0  0  0
  3  4  1  0  0  0  0
  3 24  1  0  0  0  0
  3 25  1  0  0  0  0
  4  5  1  0  0  0  0
  4 26  1  0  0  0  0
  4 27  1  0  0  0  0
  5  6  1  0  0  0  0
  5 28  1  0  0  0  0
  5 29  1  0  0  0  0
  6  7  1  0  0  0  0
  6 19  1  0  0  0  0
  6 42  1  0  0  0  0
  7  8  1  0  0  0  0
  7  9  1  0  0  0  0
  7 30  1  0  0  0  0
  8 31  1  0  0  0  0
  8 32  1  0  0  0  0
  8 33  1  0  0  0  0
  9 10  1  0  0  0  0
  9 34  1  0  0  0  0
  9 35  1  0  0  0  0
 10 11  1  0  0  0  0
 10 36  1  0  0  0  0
 11 12  2  0  0  0  0
 11 13  1  0  0  0  0
 13 14  1  0  0  0  0
 13 37  1  0  0  0  0
 13 38  1  0  0  0  0
 14 18  1  0  0  0  0
 14 15  1  0  0  0  0
 15 16  2  0  0  0  0
 15 39  1  0  0  0  0
 16 17  1  0  0  0  0
 17 18  2  0  0  0  0
 19 40  1  0  0  0  0
 19 41  1  0  0  0  0
M  CHG  1   6   1
M  END
> <s_m_source_file>
AV-unprocessed.smi

> <i_m_source_file_index>
2095

> <i_lp_mmshare_version>
43012

> <i_f3d_flags>
0

> <s_epik_input>
W0NIM11bQ0BASF0xW0NIMl1bQ0gyXVtDSDJdTihbQ0gyXTEpW0NASF0oW0NIM10pW0NIMl1bTkhdQyg9TylbQ0gyXW4yW2NIXW5ubjI=

> <s_epik_cmdline>
J2VwaWtfcHl0aG9uJywgJy1waCcsICc3LjAnLCAnLXRuJywgJzgnLCAnLW1hJywgJzIwMCcsICctbWV0YWxfYmluZGluZycsICctaW1hZScsICc8aW5maWxlLm1hZT4nLCAnLW9tYWUnLCAnPG91dGZpbGUubWFlPic=

> <r_lp_tautomer_probability>
1

> <r_epik_Ionization_Penalty>
0.00268321

> <r_epik_Ionization_Penalty_Charging>
0.00267875

> <r_epik_Ionization_Penalty_Neutral>
4.46125e-06

> <r_epik_State_Penalty>
0.00186642

> <r_epik_Charging_Adjusted_Penalty>
0.00454517

> <i_epik_Tot_Q>
1

> <i_epik_Tot_abs_Q>
1

> <r_epik_Metal_State_Penalty>
-0

> <b_epik_Metal_Only>
0

> <s_lp_Force_Field>
OPLS_2005

> <r_lp_Energy>
23.935

> <b_lp_Chiralities_Consistent>
1

> <s_lp_Variant>
AV-unprocessed.smi:2095-3

> <Gold.Version>
5.8.1

> <Gold.Id.Protein>
6NUR|6NUR_protein|mol2

> <Gold.PLP.Fitness>
40.5746

> <Gold.PLP.PLP>
-40.0386

> <Gold.PLP.part.hbond>
-1.9963

> <Gold.PLP.part.metal>
0.0000

> <Gold.PLP.part.buried>
-6.0972

> <Gold.PLP.part.nonpolar>
-32.3261

> <Gold.PLP.part.repulsive>
0.8553

> <Gold.PLP.ligand.clash>
0.0000

> <Gold.PLP.ligand.torsion>
0.7488

> <Gold.PLP.Chemscore.Hbond>
0.6400

> <Gold.PLP.Chemscore.CHOScore>
0.0000

> <Gold.PLP.Chemscore.Metal>
0.0000

> <Gold.Chemscore.Hbonds>
donor molecule, donor type, donor heavy atom, donor atom, acceptor molecule, acceptor atom, score
      P1  H  8011  8017       L1    12  0.67

> <Gold.PLP.Chemscore.Internal.Correction>
0.1136

> <Gold.Rescore>
     Score         DG    S(hbond)    S(metal)    S(lipo)     H(rot)  DE(clash)    DE(int)     intcor
     11.21     -12.17       0.77        0.00      93.18       2.64       0.23       0.72       ----

> <Gold.Chemscore.Fitness>
11.2147

> <Gold.Chemscore.DG>
-12.1700

> <Gold.Chemscore.ZeroCoef>
-5.4800

> <Gold.Chemscore.Hbond>
0.7652

> <Gold.Chemscore.Metal>
0.0000

> <Gold.Chemscore.Lipo>
93.1849

> <Gold.Chemscore.Internal_Hbond>
0.0000

> <Gold.Chemscore.DEClash>
0.2311

> <Gold.Chemscore.DEInternal>
0.7241

> <Gold.Chemscore.Rot>
2.6439

> <Gold.Chemscore.Internal.Correction>
   9.000000E+99

> <Gold.Chemscore.Hbonds>
donor molecule, donor type, donor heavy atom, donor atom, acceptor molecule, acceptor atom, score
      P1  H  8011  8017       L1    12  0.68

> <Gold.Chemscore.Hbond.Weighted>
-2.5558

> <Gold.Chemscore.Metal.Weighted>
-0.0000

> <Gold.Chemscore.Lipo.Weighted>
-10.9026

> <Gold.Chemscore.Internal_Hbond.Weighted>
0.0000

> <Gold.Chemscore.DEClash.Weighted>
0.2311

> <Gold.Chemscore.DEInternal.Weighted>
0.7241

> <Gold.Chemscore.Rot.Weighted>
6.7685

> <Gold.Chemscore.Internal.Correction.Weighted>
   9.000000E+99

> <Gold.Protein.RotatedTorsions>
[ 6907 6896 6895 6894 ] final  -44.82 input  -60.11 | X-H torsion
[ 7974 7965 7964 7962 ] final  -12.10 input  175.53 | X-H torsion
[ 8008 7997 7996 7995 ] final -147.39 input   59.86 | X-H torsion
[ 10167 10162 10161 10158 ] final -141.71 input  -65.29 | X-H torsion
[ 10718 10713 10712 10709 ] final   25.91 input   66.30 | X-H torsion
[ 10763 10752 10751 10750 ] final  170.59 input  -60.55 | X-H torsion
[ 11005 11000 10999 10996 ] final   10.62 input  -57.11 | X-H torsion

> <Gold.Protein.ActiveResidues>
 VAL166  LYS551  ARG553  GLY616  TRP617  ASP618  TYR619  PRO620  LYS621  CYS622 
 ASP623  PHE694  ASN695  SER759  ASP760  ASP761  ALA762  ILE779  LEU786  VAL792 
 PHE793  MET794  SER795  GLU796  ALA797  LYS798  CYS799  TRP800  GLU811  SER814 

> <Gold.Protein.RotatedAtoms>
  150.9287  134.8702  159.7536 H   0  0  0  0  0  0  0  0  0  0  0  0  # atno 6907 bound_to 6896
  152.5027  134.4111  159.9459 H   0  0  0  0  0  0  0  0  0  0  0  0  # atno 6908 bound_to 6896
  151.4140  133.3679  159.2782 H   0  0  0  0  0  0  0  0  0  0  0  0  # atno 6909 bound_to 6896
  146.2164  140.3007  142.8375 H   0  0  0  0  0  0  0  0  0  0  0  0  # atno 7974 bound_to 7965
  155.5747  140.0637  157.2798 H   0  0  0  0  0  0  0  0  0  0  0  0  # atno 8008 bound_to 7997
  154.4350  140.1862  156.0961 H   0  0  0  0  0  0  0  0  0  0  0  0  # atno 8009 bound_to 7997
  156.0350  140.3302  155.7184 H   0  0  0  0  0  0  0  0  0  0  0  0  # atno 8010 bound_to 7997
  139.8158  143.7641  152.2665 H   0  0  0  0  0  0  0  0  0  0  0  0  # atno 10167 bound_to 10162
  157.1997  130.6884  149.6183 H   0  0  0  0  0  0  0  0  0  0  0  0  # atno 10718 bound_to 10713
  154.3998  135.2755  155.2103 H   0  0  0  0  0  0  0  0  0  0  0  0  # atno 10763 bound_to 10752
  154.4134  135.6017  153.5970 H   0  0  0  0  0  0  0  0  0  0  0  0  # atno 10764 bound_to 10752
  152.9831  135.5955  154.4264 H   0  0  0  0  0  0  0  0  0  0  0  0  # atno 10765 bound_to 10752
  140.5124  134.0639  155.7822 H   0  0  0  0  0  0  0  0  0  0  0  0  # atno 11005 bound_to 11000
  144.9059  140.7699  143.5838 LP  0  0  0  0  0  0  0  0  0  0  0  0  # atno 17320 bound_to 7965
  145.2936  139.1875  143.4727 LP  0  0  0  0  0  0  0  0  0  0  0  0  # atno 17321 bound_to 7965
  139.7804  144.7446  151.0097 LP  0  0  0  0  0  0  0  0  0  0  0  0  # atno 17342 bound_to 10162
  140.7816  143.4548  151.0360 LP  0  0  0  0  0  0  0  0  0  0  0  0  # atno 17343 bound_to 10162
  155.9702  130.4587  150.6009 LP  0  0  0  0  0  0  0  0  0  0  0  0  # atno 17370 bound_to 10713
  157.3779  131.0776  151.1502 LP  0  0  0  0  0  0  0  0  0  0  0  0  # atno 17371 bound_to 10713
  141.1378  133.9191  157.2394 LP  0  0  0  0  0  0  0  0  0  0  0  0  # atno 17394 bound_to 11000
  139.9651  135.0144  156.9366 LP  0  0  0  0  0  0  0  0  0  0  0  0  # atno 17395 bound_to 11000

$$$$
