AV-unprocessed.smi:575|AV-procd|sdf|2977|dock4
  -GOLD-   2262023483D 1   1.00000     0.00000
 Structure written by MMmdl.
 33 34  0  0  0  0  0  0  0  0  1 V2000
  147.1054  138.9660  152.8790 C   0  0  0  0  0  0  0  0  0  0  0  0
  148.0945  139.7203  153.6995 C   0  0  0  0  0  0  0  0  0  0  0  0
  148.0310  140.9067  154.3749 C   0  0  0  0  0  0  0  0  0  0  0  0
  149.3303  141.0250  154.9363 C   0  0  0  0  0  0  0  0  0  0  0  0
  149.6823  142.1481  155.7283 N   0  0  0  0  0  0  0  0  0  0  0  0
  150.6237  142.2118  156.6855 C   0  0  0  0  0  0  0  0  0  0  0  0
  151.3344  141.2723  157.0444 O   0  0  0  0  0  0  0  0  0  0  0  0
  150.6971  143.4412  157.2165 N   0  0  0  0  0  0  0  0  0  0  0  0
  151.6174  143.8469  158.2750 C   0  0  0  0  0  0  0  0  0  0  0  0
  151.7563  142.7344  159.3349 C   0  0  0  0  0  0  0  0  0  0  0  0
  152.6701  143.1724  160.4909 C   0  0  0  0  0  0  0  0  0  0  0  0
  152.1774  144.4815  161.1281 C   0  0  0  0  0  0  0  0  0  0  0  0
  152.0379  145.5927  160.0756 C   0  0  0  0  0  0  0  0  0  0  0  0
  151.1229  145.1555  158.9200 C   0  0  0  0  0  0  0  0  0  0  0  0
  150.1159  140.0037  154.6303 N   0  0  0  0  0  0  0  0  0  0  0  0
  149.3280  139.1624  153.8359 O   0  0  0  0  0  0  0  0  0  0  0  0
  146.1015  139.3703  153.0096 H   0  0  0  0  0  0  0  0  0  0  0  0
  147.0855  137.9143  153.1648 H   0  0  0  0  0  0  0  0  0  0  0  0
  147.3591  139.0249  151.8206 H   0  0  0  0  0  0  0  0  0  0  0  0
  147.1892  141.5788  154.4525 H   0  0  0  0  0  0  0  0  0  0  0  0
  149.1649  142.9944  155.5426 H   0  0  0  0  0  0  0  0  0  0  0  0
  150.0749  144.1516  156.8600 H   0  0  0  0  0  0  0  0  0  0  0  0
  152.5988  144.0384  157.8362 H   0  0  0  0  0  0  0  0  0  0  0  0
  150.7731  142.4745  159.7299 H   0  0  0  0  0  0  0  0  0  0  0  0
  152.1556  141.8270  158.8803 H   0  0  0  0  0  0  0  0  0  0  0  0
  152.7176  142.3866  161.2452 H   0  0  0  0  0  0  0  0  0  0  0  0
  153.6867  143.3067  160.1195 H   0  0  0  0  0  0  0  0  0  0  0  0
  151.2145  144.3129  161.6118 H   0  0  0  0  0  0  0  0  0  0  0  0
  152.8666  144.7962  161.9123 H   0  0  0  0  0  0  0  0  0  0  0  0
  151.6439  146.4973  160.5397 H   0  0  0  0  0  0  0  0  0  0  0  0
  153.0227  145.8506  159.6835 H   0  0  0  0  0  0  0  0  0  0  0  0
  151.0761  145.9470  158.1709 H   0  0  0  0  0  0  0  0  0  0  0  0
  150.1068  145.0237  159.2948 H   0  0  0  0  0  0  0  0  0  0  0  0
  1  2  1  0  0  0  0
  1 17  1  0  0  0  0
  1 18  1  0  0  0  0
  1 19  1  0  0  0  0
  2 16  1  0  0  0  0
  2  3  2  0  0  0  0
  3  4  1  0  0  0  0
  3 20  1  0  0  0  0
  4  5  1  0  0  0  0
  4 15  2  0  0  0  0
  5  6  1  0  0  0  0
  5 21  1  0  0  0  0
  6  7  2  0  0  0  0
  6  8  1  0  0  0  0
  8  9  1  0  0  0  0
  8 22  1  0  0  0  0
  9 14  1  0  0  0  0
  9 10  1  0  0  0  0
  9 23  1  0  0  0  0
 10 11  1  0  0  0  0
 10 24  1  0  0  0  0
 10 25  1  0  0  0  0
 11 12  1  0  0  0  0
 11 26  1  0  0  0  0
 11 27  1  0  0  0  0
 12 13  1  0  0  0  0
 12 28  1  0  0  0  0
 12 29  1  0  0  0  0
 13 14  1  0  0  0  0
 13 30  1  0  0  0  0
 13 31  1  0  0  0  0
 14 32  1  0  0  0  0
 14 33  1  0  0  0  0
 15 16  1  0  0  0  0
M  END
> <s_m_source_file>
AV-unprocessed.smi

> <i_m_source_file_index>
575

> <i_lp_mmshare_version>
43012

> <i_f3d_flags>
0

> <s_epik_input>
W0NIM11jMVtjSF1jKG5vMSlbTkhdQyg9TylbTkhdW0NIXTJbQ0gyXVtDSDJdW0NIMl1bQ0gyXVtDSDJdMg==

> <s_epik_cmdline>
J2VwaWtfcHl0aG9uJywgJy1waCcsICc3LjAnLCAnLXRuJywgJzgnLCAnLW1hJywgJzIwMCcsICctbWV0YWxfYmluZGluZycsICctaW1hZScsICc8aW5maWxlLm1hZT4nLCAnLW9tYWUnLCAnPG91dGZpbGUubWFlPic=

> <r_lp_tautomer_probability>
1

> <r_epik_Ionization_Penalty>
2.357e-05

> <r_epik_Ionization_Penalty_Charging>
0

> <r_epik_Ionization_Penalty_Neutral>
2.357e-05

> <r_epik_State_Penalty>
-0

> <r_epik_Charging_Adjusted_Penalty>
0

> <i_epik_Tot_Q>
0

> <i_epik_Tot_abs_Q>
0

> <r_epik_Metal_State_Penalty>
-0

> <b_epik_Metal_Only>
0

> <s_lp_Force_Field>
OPLS_2005

> <r_lp_Energy>
6.74104

> <b_lp_Chiralities_Consistent>
1

> <s_lp_Variant>
AV-unprocessed.smi:575-1

> <Gold.Version>
5.8.1

> <Gold.Id.Protein>
6NUR|6NUR_protein|mol2

> <Gold.PLP.Fitness>
43.5995

> <Gold.PLP.PLP>
-35.4292

> <Gold.PLP.part.hbond>
-3.0000

> <Gold.PLP.part.metal>
0.0000

> <Gold.PLP.part.buried>
-4.2941

> <Gold.PLP.part.nonpolar>
-30.6405

> <Gold.PLP.part.repulsive>
2.7203

> <Gold.PLP.ligand.clash>
0.0001

> <Gold.PLP.ligand.torsion>
0.4035

> <Gold.PLP.Chemscore.Hbond>
2.9913

> <Gold.PLP.Chemscore.CHOScore>
0.0000

> <Gold.PLP.Chemscore.Metal>
0.0000

> <Gold.Chemscore.Hbonds>
donor molecule, donor type, donor heavy atom, donor atom, acceptor molecule, acceptor atom, score
      L1  H     5    21       P1  8028  1.00
      L1  H     8    22       P1  8028  1.00
      P1  H  7989  7998       L1    15  0.88

> <Gold.PLP.Chemscore.Internal.Correction>
0.0036

> <Gold.Rescore>
     Score         DG    S(hbond)    S(metal)    S(lipo)     H(rot)  DE(clash)    DE(int)     intcor
     18.38     -21.85       2.71        0.00      84.39       1.00       1.49       1.98       ----

> <Gold.Chemscore.Fitness>
18.3767

> <Gold.Chemscore.DG>
-21.8515

> <Gold.Chemscore.ZeroCoef>
-5.4800

> <Gold.Chemscore.Hbond>
2.7118

> <Gold.Chemscore.Metal>
0.0000

> <Gold.Chemscore.Lipo>
84.3943

> <Gold.Chemscore.Internal_Hbond>
0.0000

> <Gold.Chemscore.DEClash>
1.4942

> <Gold.Chemscore.DEInternal>
1.9807

> <Gold.Chemscore.Rot>
1.0000

> <Gold.Chemscore.Internal.Correction>
   9.000000E+99

> <Gold.Chemscore.Hbonds>
donor molecule, donor type, donor heavy atom, donor atom, acceptor molecule, acceptor atom, score
      L1  H     5    21       P1  8028  0.98
      L1  H     8    22       P1  8028  0.91
      P1  H  7989  7998       L1    15  0.25

> <Gold.Chemscore.Hbond.Weighted>
-9.0574

> <Gold.Chemscore.Metal.Weighted>
-0.0000

> <Gold.Chemscore.Lipo.Weighted>
-9.8741

> <Gold.Chemscore.Internal_Hbond.Weighted>
0.0000

> <Gold.Chemscore.DEClash.Weighted>
1.4942

> <Gold.Chemscore.DEInternal.Weighted>
1.9807

> <Gold.Chemscore.Rot.Weighted>
2.5600

> <Gold.Chemscore.Internal.Correction.Weighted>
   9.000000E+99

> <Gold.Protein.RotatedTorsions>
[ 6907 6896 6895 6894 ] final   -8.72 input  -60.11 | X-H torsion
[ 7974 7965 7964 7962 ] final -134.84 input  175.53 | X-H torsion
[ 8008 7997 7996 7995 ] final  -46.59 input   59.86 | X-H torsion
[ 10167 10162 10161 10158 ] final  -76.98 input  -65.29 | X-H torsion
[ 10718 10713 10712 10709 ] final   59.12 input   66.30 | X-H torsion
[ 10763 10752 10751 10750 ] final   13.06 input  -60.55 | X-H torsion
[ 11005 11000 10999 10996 ] final  113.73 input  -57.11 | X-H torsion

> <Gold.Protein.ActiveResidues>
 VAL166  LYS551  ARG553  GLY616  TRP617  ASP618  TYR619  PRO620  LYS621  CYS622 
 ASP623  PHE694  ASN695  SER759  ASP760  ASP761  ALA762  ILE779  LEU786  VAL792 
 PHE793  MET794  SER795  GLU796  ALA797  LYS798  CYS799  TRP800  GLU811  SER814 

> <Gold.Protein.RotatedAtoms>
  151.4292  135.1007  159.9636 H   0  0  0  0  0  0  0  0  0  0  0  0  # atno 6907 bound_to 6896
  152.4962  133.8634  159.7272 H   0  0  0  0  0  0  0  0  0  0  0  0  # atno 6908 bound_to 6896
  150.9167  133.6872  159.2869 H   0  0  0  0  0  0  0  0  0  0  0  0  # atno 6909 bound_to 6896
  144.9067  140.6842  143.5051 H   0  0  0  0  0  0  0  0  0  0  0  0  # atno 7974 bound_to 7965
  154.4008  140.1368  156.4035 H   0  0  0  0  0  0  0  0  0  0  0  0  # atno 8008 bound_to 7997
  155.7801  140.3481  155.5272 H   0  0  0  0  0  0  0  0  0  0  0  0  # atno 8009 bound_to 7997
  155.8682  140.0967  157.1558 H   0  0  0  0  0  0  0  0  0  0  0  0  # atno 8010 bound_to 7997
  140.4810  143.2402  151.8058 H   0  0  0  0  0  0  0  0  0  0  0  0  # atno 10167 bound_to 10162
  157.5650  130.8864  149.9173 H   0  0  0  0  0  0  0  0  0  0  0  0  # atno 10718 bound_to 10713
  153.1759  135.6820  153.8544 H   0  0  0  0  0  0  0  0  0  0  0  0  # atno 10763 bound_to 10752
  153.7892  135.3171  155.3377 H   0  0  0  0  0  0  0  0  0  0  0  0  # atno 10764 bound_to 10752
  154.8028  135.4767  154.0412 H   0  0  0  0  0  0  0  0  0  0  0  0  # atno 10765 bound_to 10752
  139.8961  134.9555  156.6783 H   0  0  0  0  0  0  0  0  0  0  0  0  # atno 11005 bound_to 11000
  145.3523  139.1703  143.4428 LP  0  0  0  0  0  0  0  0  0  0  0  0  # atno 17320 bound_to 7965
  146.3137  140.3577  142.8662 LP  0  0  0  0  0  0  0  0  0  0  0  0  # atno 17321 bound_to 7965
  139.4833  144.4773  151.9351 LP  0  0  0  0  0  0  0  0  0  0  0  0  # atno 17342 bound_to 10162
  140.3858  144.2678  150.5904 LP  0  0  0  0  0  0  0  0  0  0  0  0  # atno 17343 bound_to 10162
  156.0699  130.3686  150.0798 LP  0  0  0  0  0  0  0  0  0  0  0  0  # atno 17370 bound_to 10713
  156.8957  130.9603  151.3583 LP  0  0  0  0  0  0  0  0  0  0  0  0  # atno 17371 bound_to 10713
  140.7319  133.9052  155.8217 LP  0  0  0  0  0  0  0  0  0  0  0  0  # atno 17394 bound_to 11000
  141.0146  134.0973  157.4185 LP  0  0  0  0  0  0  0  0  0  0  0  0  # atno 17395 bound_to 11000

$$$$
