AV-unprocessed.smi:528|AV-procd|sdf|2834|dock1
  -GOLD-   2262023323D 1   1.00000     0.00000
 Structure written by MMmdl.
 45 47  0  0  0  0  0  0  0  0  1 V2000
  150.6641  140.7219  155.8715 C   0  0  0  0  0  0  0  0  0  0  0  0
  150.5471  141.0429  157.3707 C   0  0  1  0  0  0  0  0  0  0  0  0
  150.7528  139.8049  158.1206 N   0  0  0  0  0  0  0  0  0  0  0  0
  149.9092  138.7618  158.1685 C   0  0  0  0  0  0  0  0  0  0  0  0
  148.8524  138.7112  157.5377 O   0  0  0  0  0  0  0  0  0  0  0  0
  150.3339  137.5934  159.0678 C   0  0  0  0  0  0  0  0  0  0  0  0
  149.2622  136.6008  159.2519 N   0  0  0  0  0  0  0  0  0  0  0  0
  148.5948  136.5945  160.4926 C   0  0  0  0  0  0  0  0  0  0  0  0
  147.6103  135.7251  160.7906 C   0  0  0  0  0  0  0  0  0  0  0  0
  146.8715  135.7767  162.1191 C   0  0  0  0  0  0  0  0  0  0  0  0
  146.0085  134.7663  162.2272 F   0  0  0  0  0  0  0  0  0  0  0  0
  147.7411  135.6889  163.1243 F   0  0  0  0  0  0  0  0  0  0  0  0
  146.1974  136.9195  162.2520 F   0  0  0  0  0  0  0  0  0  0  0  0
  147.2329  134.7943  159.7452 C   0  0  0  0  0  0  0  0  0  0  0  0
  147.8560  134.7915  158.5507 C   0  0  0  0  0  0  0  0  0  0  0  0
  148.9408  135.7283  158.2495 C   0  0  0  0  0  0  0  0  0  0  0  0
  149.5232  135.7298  157.1642 O   0  0  0  0  0  0  0  0  0  0  0  0
  151.5649  142.1212  157.8223 C   0  0  1  0  0  0  0  0  0  0  0  0
  151.4526  143.4448  157.0260 C   0  0  0  0  0  0  0  0  0  0  0  0
  151.2944  144.5102  158.1251 C   0  0  2  0  0  0  0  0  0  0  0  0
  152.6186  144.6558  158.8958 C   0  0  0  0  0  0  0  0  0  0  0  0
  152.6742  143.3550  159.7176 C   0  0  0  0  0  0  0  0  0  0  0  0
  151.3916  142.6213  159.2813 C   0  0  1  0  0  0  0  0  0  0  0  0
  150.4146  143.7824  159.1327 C   0  0  0  0  0  0  0  0  0  0  0  0
  150.4672  141.5989  155.2553 H   0  0  0  0  0  0  0  0  0  0  0  0
  149.9463  139.9548  155.5794 H   0  0  0  0  0  0  0  0  0  0  0  0
  151.6604  140.3566  155.6197 H   0  0  0  0  0  0  0  0  0  0  0  0
  149.5383  141.4195  157.5462 H   0  0  0  0  0  0  0  0  0  0  0  0
  151.5969  139.7494  158.6721 H   0  0  0  0  0  0  0  0  0  0  0  0
  151.2202  137.1333  158.6291 H   0  0  0  0  0  0  0  0  0  0  0  0
  150.6590  137.9716  160.0393 H   0  0  0  0  0  0  0  0  0  0  0  0
  148.9382  137.3428  161.1921 H   0  0  0  0  0  0  0  0  0  0  0  0
  146.4406  134.0824  159.9244 H   0  0  0  0  0  0  0  0  0  0  0  0
  147.5510  134.0809  157.7965 H   0  0  0  0  0  0  0  0  0  0  0  0
  152.5670  141.7053  157.7046 H   0  0  0  0  0  0  0  0  0  0  0  0
  152.3239  143.6243  156.3952 H   0  0  0  0  0  0  0  0  0  0  0  0
  150.5730  143.4516  156.3813 H   0  0  0  0  0  0  0  0  0  0  0  0
  150.8933  145.4566  157.7612 H   0  0  0  0  0  0  0  0  0  0  0  0
  153.4743  144.7639  158.2284 H   0  0  0  0  0  0  0  0  0  0  0  0
  152.5938  145.5247  159.5544 H   0  0  0  0  0  0  0  0  0  0  0  0
  153.5763  142.7744  159.5222 H   0  0  0  0  0  0  0  0  0  0  0  0
  152.6469  143.5765  160.7853 H   0  0  0  0  0  0  0  0  0  0  0  0
  151.0862  141.8591  159.9973 H   0  0  0  0  0  0  0  0  0  0  0  0
  150.2623  144.3411  160.0578 H   0  0  0  0  0  0  0  0  0  0  0  0
  149.4442  143.4873  158.7309 H   0  0  0  0  0  0  0  0  0  0  0  0
  1  2  1  0  0  0  0
  1 25  1  0  0  0  0
  1 26  1  0  0  0  0
  1 27  1  0  0  0  0
  2  3  1  0  0  0  0
  2 18  1  0  0  0  0
  2 28  1  0  0  0  0
  3  4  1  0  0  0  0
  3 29  1  0  0  0  0
  4  5  2  0  0  0  0
  4  6  1  0  0  0  0
  6  7  1  0  0  0  0
  6 30  1  0  0  0  0
  6 31  1  0  0  0  0
  7 16  1  0  0  0  0
  7  8  1  0  0  0  0
  8  9  2  0  0  0  0
  8 32  1  0  0  0  0
  9 10  1  0  0  0  0
  9 14  1  0  0  0  0
 10 11  1  0  0  0  0
 10 12  1  0  0  0  0
 10 13  1  0  0  0  0
 14 15  2  0  0  0  0
 14 33  1  0  0  0  0
 15 16  1  0  0  0  0
 15 34  1  0  0  0  0
 16 17  2  0  0  0  0
 18 23  1  0  0  0  0
 18 19  1  0  0  0  0
 18 35  1  0  0  0  0
 19 20  1  0  0  0  0
 19 36  1  0  0  0  0
 19 37  1  0  0  0  0
 20 24  1  0  0  0  0
 20 21  1  0  0  0  0
 20 38  1  0  0  0  0
 21 22  1  0  0  0  0
 21 39  1  0  0  0  0
 21 40  1  0  0  0  0
 22 23  1  0  0  0  0
 22 41  1  0  0  0  0
 22 42  1  0  0  0  0
 23 24  1  0  0  0  0
 23 43  1  0  0  0  0
 24 44  1  0  0  0  0
 24 45  1  0  0  0  0
M  END
> <s_m_source_file>
AV-unprocessed.smi

> <i_m_source_file_index>
528

> <i_lp_mmshare_version>
43012

> <i_f3d_flags>
0

> <s_epik_input>
W0NIMl0xW0NIMl1bQ0BASF0oW0NIMl0yKVtDQEBIXShbQ0gyXVtDQEhdMTIpW0NASF0oW0NIM10pW05IXUMoPU8pW0NIMl1uM1tjSF1jKEMoRikoRilGKVtjSF1bY0hdYzM9Tw==

> <s_epik_cmdline>
J2VwaWtfcHl0aG9uJywgJy1waCcsICc3LjAnLCAnLXRuJywgJzgnLCAnLW1hJywgJzIwMCcsICctbWV0YWxfYmluZGluZycsICctaW1hZScsICc8aW5maWxlLm1hZT4nLCAnLW9tYWUnLCAnPG91dGZpbGUubWFlPic=

> <r_lp_tautomer_probability>
1

> <r_epik_Ionization_Penalty>
4.09479e-08

> <r_epik_Ionization_Penalty_Charging>
1.9321e-08

> <r_epik_Ionization_Penalty_Neutral>
2.16269e-08

> <r_epik_State_Penalty>
-0

> <r_epik_Charging_Adjusted_Penalty>
1.9321e-08

> <i_epik_Tot_Q>
0

> <i_epik_Tot_abs_Q>
0

> <r_epik_Metal_State_Penalty>
-0

> <b_epik_Metal_Only>
0

> <s_lp_Force_Field>
OPLS_2005

> <r_lp_Energy>
62.5946

> <b_lp_Chiralities_Consistent>
1

> <s_lp_Variant>
AV-unprocessed.smi:528-4

> <Gold.Version>
5.8.1

> <Gold.Id.Protein>
6NUR|6NUR_protein|mol2

> <Gold.PLP.Fitness>
45.3143

> <Gold.PLP.PLP>
-46.3278

> <Gold.PLP.part.hbond>
0.0000

> <Gold.PLP.part.metal>
0.0000

> <Gold.PLP.part.buried>
-4.7555

> <Gold.PLP.part.nonpolar>
-41.5969

> <Gold.PLP.part.repulsive>
0.1166

> <Gold.PLP.ligand.clash>
0.0000

> <Gold.PLP.ligand.torsion>
0.5500

> <Gold.PLP.Chemscore.Hbond>
0.0000

> <Gold.PLP.Chemscore.CHOScore>
0.0000

> <Gold.PLP.Chemscore.Metal>
0.0000

> <Gold.PLP.Chemscore.Internal.Correction>
0.0866

> <Gold.Rescore>
     Score         DG    S(hbond)    S(metal)    S(lipo)     H(rot)  DE(clash)    DE(int)     intcor
     14.35     -14.97       0.00        0.00     118.60       1.71       0.12       0.50       ----

> <Gold.Chemscore.Fitness>
14.3474

> <Gold.Chemscore.DG>
-14.9724

> <Gold.Chemscore.ZeroCoef>
-5.4800

> <Gold.Chemscore.Hbond>
0.0000

> <Gold.Chemscore.Metal>
0.0000

> <Gold.Chemscore.Lipo>
118.6015

> <Gold.Chemscore.Internal_Hbond>
0.0000

> <Gold.Chemscore.DEClash>
0.1245

> <Gold.Chemscore.DEInternal>
0.5005

> <Gold.Chemscore.Rot>
1.7125

> <Gold.Chemscore.Internal.Correction>
   9.000000E+99

> <Gold.Chemscore.Hbond.Weighted>
-0.0000

> <Gold.Chemscore.Metal.Weighted>
-0.0000

> <Gold.Chemscore.Lipo.Weighted>
-13.8764

> <Gold.Chemscore.Internal_Hbond.Weighted>
0.0000

> <Gold.Chemscore.DEClash.Weighted>
0.1245

> <Gold.Chemscore.DEInternal.Weighted>
0.5005

> <Gold.Chemscore.Rot.Weighted>
4.3840

> <Gold.Chemscore.Internal.Correction.Weighted>
   9.000000E+99

> <Gold.Protein.RotatedTorsions>
[ 6907 6896 6895 6894 ] final  -53.67 input  -60.11 | X-H torsion
[ 7974 7965 7964 7962 ] final  -32.08 input  175.53 | X-H torsion
[ 8008 7997 7996 7995 ] final  109.80 input   59.86 | X-H torsion
[ 10167 10162 10161 10158 ] final   59.16 input  -65.29 | X-H torsion
[ 10718 10713 10712 10709 ] final   21.70 input   66.30 | X-H torsion
[ 10763 10752 10751 10750 ] final -178.91 input  -60.55 | X-H torsion
[ 11005 11000 10999 10996 ] final  -47.47 input  -57.11 | X-H torsion

> <Gold.Protein.ActiveResidues>
 VAL166  LYS551  ARG553  GLY616  TRP617  ASP618  TYR619  PRO620  LYS621  CYS622 
 ASP623  PHE694  ASN695  SER759  ASP760  ASP761  ALA762  ILE779  LEU786  VAL792 
 PHE793  MET794  SER795  GLU796  ALA797  LYS798  CYS799  TRP800  GLU811  SER814 

> <Gold.Protein.RotatedAtoms>
  150.8406  134.7697  159.6929 H   0  0  0  0  0  0  0  0  0  0  0  0  # atno 6907 bound_to 6896
  152.4494  134.5422  159.9852 H   0  0  0  0  0  0  0  0  0  0  0  0  # atno 6908 bound_to 6896
  151.5563  133.3372  159.2998 H   0  0  0  0  0  0  0  0  0  0  0  0  # atno 6909 bound_to 6896
  146.1018  140.5747  142.8817 H   0  0  0  0  0  0  0  0  0  0  0  0  # atno 7974 bound_to 7965
  156.2006  140.3051  155.9519 H   0  0  0  0  0  0  0  0  0  0  0  0  # atno 8008 bound_to 7997
  155.2962  140.0444  157.3043 H   0  0  0  0  0  0  0  0  0  0  0  0  # atno 8009 bound_to 7997
  154.5566  140.2307  155.8409 H   0  0  0  0  0  0  0  0  0  0  0  0  # atno 8010 bound_to 7997
  140.1795  144.4196  150.6622 H   0  0  0  0  0  0  0  0  0  0  0  0  # atno 10167 bound_to 10162
  157.1421  130.6637  149.5984 H   0  0  0  0  0  0  0  0  0  0  0  0  # atno 10718 bound_to 10713
  154.5417  135.2806  155.1089 H   0  0  0  0  0  0  0  0  0  0  0  0  # atno 10763 bound_to 10752
  154.2569  135.6329  153.5264 H   0  0  0  0  0  0  0  0  0  0  0  0  # atno 10764 bound_to 10752
  152.9980  135.5596  154.5959 H   0  0  0  0  0  0  0  0  0  0  0  0  # atno 10765 bound_to 10752
  141.0642  133.6699  156.3302 H   0  0  0  0  0  0  0  0  0  0  0  0  # atno 11005 bound_to 11000
  144.7439  140.5015  143.6850 LP  0  0  0  0  0  0  0  0  0  0  0  0  # atno 17320 bound_to 7965
  145.5840  139.1491  143.3219 LP  0  0  0  0  0  0  0  0  0  0  0  0  # atno 17321 bound_to 7965
  140.6529  143.2230  151.6035 LP  0  0  0  0  0  0  0  0  0  0  0  0  # atno 17342 bound_to 10162
  139.5302  144.2937  152.1131 LP  0  0  0  0  0  0  0  0  0  0  0  0  # atno 17343 bound_to 10162
  155.9786  130.4774  150.6668 LP  0  0  0  0  0  0  0  0  0  0  0  0  # atno 17370 bound_to 10713
  157.4298  131.0848  151.1050 LP  0  0  0  0  0  0  0  0  0  0  0  0  # atno 17371 bound_to 10713
  140.5806  134.5749  157.5478 LP  0  0  0  0  0  0  0  0  0  0  0  0  # atno 17394 bound_to 11000
  139.9461  134.7700  156.0559 LP  0  0  0  0  0  0  0  0  0  0  0  0  # atno 17395 bound_to 11000

$$$$
