AV-unprocessed.smi:414|AV-procd|sdf|2515|dock3
  -GOLD-   2262022463D 1   1.00000     0.00000
 Structure written by MMmdl.
 38 39  0  0  0  0  0  0  0  0  1 V2000
  152.4219  142.9756  162.8387 C   0  0  0  0  0  0  0  0  0  0  0  0
  152.7959  143.3225  161.3907 C   0  0  2  0  0  0  0  0  0  0  0  0
  151.6049  143.9429  160.6357 C   0  0  0  0  0  0  0  0  0  0  0  0
  151.9726  144.2863  159.1816 C   0  0  0  0  0  0  0  0  0  0  0  0
  152.5196  143.0632  158.4141 C   0  0  2  0  0  0  0  0  0  0  0  0
  151.4770  142.0667  158.1741 N   0  0  0  0  0  0  0  0  0  0  0  0
  151.6824  140.7923  157.8085 C   0  0  0  0  0  0  0  0  0  0  0  0
  152.8043  140.3145  157.6329 O   0  0  0  0  0  0  0  0  0  0  0  0
  150.4169  139.9467  157.6030 C   0  0  0  0  0  0  0  0  0  0  0  0
  149.5774  140.4091  156.4877 N   0  0  0  0  0  0  0  0  0  0  0  0
  148.3489  141.0031  156.7398 C   0  0  0  0  0  0  0  0  0  0  0  0
  147.5283  141.4622  155.7655 C   0  0  0  0  0  0  0  0  0  0  0  0
  147.9127  141.3499  154.3627 C   0  0  0  0  0  0  0  0  0  0  0  0
  147.2383  141.7339  153.4097 O   0  0  0  0  0  0  0  0  0  0  0  0
  149.1567  140.7496  154.1498 N   0  0  0  0  0  0  0  0  0  0  0  0
  150.0079  140.2759  155.1495 C   0  0  0  0  0  0  0  0  0  0  0  0
  151.0882  139.7676  154.8519 O   0  0  0  0  0  0  0  0  0  0  0  0
  153.6957  142.4260  159.1789 C   0  0  0  0  0  0  0  0  0  0  0  0
  153.3303  142.0898  160.6364 C   0  0  0  0  0  0  0  0  0  0  0  0
  149.4669  140.6533  153.1938 H   0  0  0  0  0  0  0  0  0  0  0  0
  151.6256  142.2315  162.8754 H   0  0  0  0  0  0  0  0  0  0  0  0
  152.0775  143.8587  163.3777 H   0  0  0  0  0  0  0  0  0  0  0  0
  153.2786  142.5731  163.3798 H   0  0  0  0  0  0  0  0  0  0  0  0
  153.5937  144.0657  161.4270 H   0  0  0  0  0  0  0  0  0  0  0  0
  150.7593  143.2541  160.6469 H   0  0  0  0  0  0  0  0  0  0  0  0
  151.2702  144.8460  161.1472 H   0  0  0  0  0  0  0  0  0  0  0  0
  151.1082  144.7086  158.6684 H   0  0  0  0  0  0  0  0  0  0  0  0
  152.7303  145.0707  159.1842 H   0  0  0  0  0  0  0  0  0  0  0  0
  152.8925  143.3972  157.4441 H   0  0  0  0  0  0  0  0  0  0  0  0
  150.5229  142.3744  158.2931 H   0  0  0  0  0  0  0  0  0  0  0  0
  150.7049  138.9036  157.4587 H   0  0  0  0  0  0  0  0  0  0  0  0
  149.8414  139.9591  158.5300 H   0  0  0  0  0  0  0  0  0  0  0  0
  148.0252  141.1110  157.7654 H   0  0  0  0  0  0  0  0  0  0  0  0
  146.5830  141.9162  156.0257 H   0  0  0  0  0  0  0  0  0  0  0  0
  154.0398  141.5286  158.6634 H   0  0  0  0  0  0  0  0  0  0  0  0
  154.5392  143.1175  159.1756 H   0  0  0  0  0  0  0  0  0  0  0  0
  154.2082  141.6937  161.1480 H   0  0  0  0  0  0  0  0  0  0  0  0
  152.5836  141.2948  160.6533 H   0  0  0  0  0  0  0  0  0  0  0  0
  1  2  1  0  0  0  0
  1 21  1  0  0  0  0
  1 22  1  0  0  0  0
  1 23  1  0  0  0  0
  2 19  1  0  0  0  0
  2  3  1  0  0  0  0
  2 24  1  0  0  0  0
  3  4  1  0  0  0  0
  3 25  1  0  0  0  0
  3 26  1  0  0  0  0
  4  5  1  0  0  0  0
  4 27  1  0  0  0  0
  4 28  1  0  0  0  0
  5  6  1  0  0  0  0
  5 18  1  0  0  0  0
  5 29  1  0  0  0  0
  6  7  1  0  0  0  0
  6 30  1  0  0  0  0
  7  8  2  0  0  0  0
  7  9  1  0  0  0  0
  9 10  1  0  0  0  0
  9 31  1  0  0  0  0
  9 32  1  0  0  0  0
 10 16  1  0  0  0  0
 10 11  1  0  0  0  0
 11 12  2  0  0  0  0
 11 33  1  0  0  0  0
 12 13  1  0  0  0  0
 12 34  1  0  0  0  0
 13 14  2  0  0  0  0
 13 15  1  0  0  0  0
 15 20  1  0  0  0  0
 15 16  1  0  0  0  0
 16 17  2  0  0  0  0
 18 19  1  0  0  0  0
 18 35  1  0  0  0  0
 18 36  1  0  0  0  0
 19 37  1  0  0  0  0
 19 38  1  0  0  0  0
M  END
> <s_m_source_file>
AV-unprocessed.smi

> <i_m_source_file_index>
414

> <i_lp_mmshare_version>
43012

> <i_f3d_flags>
0

> <s_epik_input>
W0NIM11bQ0BASF0xW0NIMl1bQ0gyXVtDQEhdKFtDSDJdW0NIMl0xKVtOSF1DKD1PKVtDSDJdbjJbY0hdW2NIXWMoPU8pW25IXWMyPU8=

> <s_epik_cmdline>
J2VwaWtfcHl0aG9uJywgJy1waCcsICc3LjAnLCAnLXRuJywgJzgnLCAnLW1hJywgJzIwMCcsICctbWV0YWxfYmluZGluZycsICctaW1hZScsICc8aW5maWxlLm1hZT4nLCAnLW9tYWUnLCAnPG91dGZpbGUubWFlPic=

> <r_lp_tautomer_probability>
0.999537

> <r_epik_Ionization_Penalty>
0.00309124

> <r_epik_Ionization_Penalty_Charging>
0.00309122

> <r_epik_Ionization_Penalty_Neutral>
1.90469e-08

> <r_epik_State_Penalty>
0.00217484

> <r_epik_Charging_Adjusted_Penalty>
0.00526606

> <i_epik_Tot_Q>
0

> <i_epik_Tot_abs_Q>
0

> <r_epik_Metal_State_Penalty>
0.362537

> <b_epik_Metal_Only>
0

> <s_lp_Force_Field>
OPLS_2005

> <r_lp_Energy>
7.68142

> <b_lp_Chiralities_Consistent>
1

> <s_lp_Variant>
AV-unprocessed.smi:414-2

> <Gold.Version>
5.8.1

> <Gold.Id.Protein>
6NUR|6NUR_protein|mol2

> <Gold.PLP.Fitness>
41.1664

> <Gold.PLP.PLP>
-33.3854

> <Gold.PLP.part.hbond>
-2.9655

> <Gold.PLP.part.metal>
0.0000

> <Gold.PLP.part.buried>
1.0293

> <Gold.PLP.part.nonpolar>
-30.8693

> <Gold.PLP.part.repulsive>
0.4920

> <Gold.PLP.ligand.clash>
0.0000

> <Gold.PLP.ligand.torsion>
0.3456

> <Gold.PLP.Chemscore.Hbond>
2.8215

> <Gold.PLP.Chemscore.CHOScore>
0.0000

> <Gold.PLP.Chemscore.Metal>
0.0000

> <Gold.Chemscore.Hbonds>
donor molecule, donor type, donor heavy atom, donor atom, acceptor molecule, acceptor atom, score
      L1  H    15    20       P1  7957  0.76
      P1  H  7989  7998       L1    17  1.00
      P1  H  7997  8009       L1     8  0.94

> <Gold.PLP.Chemscore.Internal.Correction>
0.0075

> <Gold.Rescore>
     Score         DG    S(hbond)    S(metal)    S(lipo)     H(rot)  DE(clash)    DE(int)     intcor
     15.99     -20.08       2.41        0.00      92.88       1.69       2.35       1.74       ----

> <Gold.Chemscore.Fitness>
15.9878

> <Gold.Chemscore.DG>
-20.0757

> <Gold.Chemscore.ZeroCoef>
-5.4800

> <Gold.Chemscore.Hbond>
2.4098

> <Gold.Chemscore.Metal>
0.0000

> <Gold.Chemscore.Lipo>
92.8784

> <Gold.Chemscore.Internal_Hbond>
0.0000

> <Gold.Chemscore.DEClash>
2.3454

> <Gold.Chemscore.DEInternal>
1.7425

> <Gold.Chemscore.Rot>
1.6874

> <Gold.Chemscore.Internal.Correction>
   9.000000E+99

> <Gold.Chemscore.Hbonds>
donor molecule, donor type, donor heavy atom, donor atom, acceptor molecule, acceptor atom, score
      L1  H    15    20       P1  7957  0.75
      P1  H  7989  7998       L1    17  0.30
      P1  H  7997  8009       L1     8  0.91

> <Gold.Chemscore.Hbond.Weighted>
-8.0488

> <Gold.Chemscore.Metal.Weighted>
-0.0000

> <Gold.Chemscore.Lipo.Weighted>
-10.8668

> <Gold.Chemscore.Internal_Hbond.Weighted>
0.0000

> <Gold.Chemscore.DEClash.Weighted>
2.3454

> <Gold.Chemscore.DEInternal.Weighted>
1.7425

> <Gold.Chemscore.Rot.Weighted>
4.3198

> <Gold.Chemscore.Internal.Correction.Weighted>
   9.000000E+99

> <Gold.Protein.RotatedTorsions>
[ 6907 6896 6895 6894 ] final   12.74 input  -60.11 | X-H torsion
[ 7974 7965 7964 7962 ] final -160.43 input  175.53 | X-H torsion
[ 8008 7997 7996 7995 ] final  169.75 input   59.86 | X-H torsion
[ 10167 10162 10161 10158 ] final -146.15 input  -65.29 | X-H torsion
[ 10718 10713 10712 10709 ] final -140.05 input   66.30 | X-H torsion
[ 10763 10752 10751 10750 ] final   37.93 input  -60.55 | X-H torsion
[ 11005 11000 10999 10996 ] final   78.65 input  -57.11 | X-H torsion

> <Gold.Protein.ActiveResidues>
 VAL166  LYS551  ARG553  GLY616  TRP617  ASP618  TYR619  PRO620  LYS621  CYS622 
 ASP623  PHE694  ASN695  SER759  ASP760  ASP761  ALA762  ILE779  LEU786  VAL792 
 PHE793  MET794  SER795  GLU796  ALA797  LYS798  CYS799  TRP800  GLU811  SER814 

> <Gold.Protein.RotatedAtoms>
  151.7751  135.0776  160.0365 H   0  0  0  0  0  0  0  0  0  0  0  0  # atno 6907 bound_to 6896
  152.3262  133.5903  159.5786 H   0  0  0  0  0  0  0  0  0  0  0  0  # atno 6908 bound_to 6896
  150.7396  133.9853  159.3631 H   0  0  0  0  0  0  0  0  0  0  0  0  # atno 6909 bound_to 6896
  144.7427  140.3543  143.6109 H   0  0  0  0  0  0  0  0  0  0  0  0  # atno 7974 bound_to 7965
  156.1429  140.1556  156.8893 H   0  0  0  0  0  0  0  0  0  0  0  0  # atno 8008 bound_to 7997
  154.5003  140.0827  156.7821 H   0  0  0  0  0  0  0  0  0  0  0  0  # atno 8009 bound_to 7997
  155.4045  140.3416  155.4261 H   0  0  0  0  0  0  0  0  0  0  0  0  # atno 8010 bound_to 7997
  139.7740  143.8197  152.2629 H   0  0  0  0  0  0  0  0  0  0  0  0  # atno 10167 bound_to 10162
  156.3178  130.7517  151.1608 H   0  0  0  0  0  0  0  0  0  0  0  0  # atno 10718 bound_to 10713
  153.0019  135.6264  154.2224 H   0  0  0  0  0  0  0  0  0  0  0  0  # atno 10763 bound_to 10752
  154.1967  135.2806  155.3006 H   0  0  0  0  0  0  0  0  0  0  0  0  # atno 10764 bound_to 10752
  154.5716  135.5674  153.7160 H   0  0  0  0  0  0  0  0  0  0  0  0  # atno 10765 bound_to 10752
  139.9204  134.7780  156.1677 H   0  0  0  0  0  0  0  0  0  0  0  0  # atno 11005 bound_to 11000
  145.7244  139.1718  143.2466 LP  0  0  0  0  0  0  0  0  0  0  0  0  # atno 17320 bound_to 7965
  146.1253  140.7256  142.9438 LP  0  0  0  0  0  0  0  0  0  0  0  0  # atno 17321 bound_to 7965
  139.8239  144.7283  150.9536 LP  0  0  0  0  0  0  0  0  0  0  0  0  # atno 17342 bound_to 10162
  140.7815  143.4133  151.0958 LP  0  0  0  0  0  0  0  0  0  0  0  0  # atno 17343 bound_to 10162
  157.7405  131.0516  150.5159 LP  0  0  0  0  0  0  0  0  0  0  0  0  # atno 17370 bound_to 10713
  156.5308  130.4184  149.6203 LP  0  0  0  0  0  0  0  0  0  0  0  0  # atno 17371 bound_to 10713
  141.0719  133.6793  156.2158 LP  0  0  0  0  0  0  0  0  0  0  0  0  # atno 17394 bound_to 11000
  140.6492  134.5085  157.5576 LP  0  0  0  0  0  0  0  0  0  0  0  0  # atno 17395 bound_to 11000

$$$$
