AV-unprocessed.smi:826|AV-procd|sdf|3853|dock9
  -GOLD-   22720 1303D 1   1.00000     0.00000
 Structure written by MMmdl.
 39 40  0  0  0  0  0  0  0  0  1 V2000
  143.4654  143.9578  162.2153 C   0  0  0  0  0  0  0  0  0  0  0  0
  144.5744  143.5932  161.2888 C   0  0  0  0  0  0  0  0  0  0  0  0
  145.6758  142.9547  161.7017 N   0  0  0  0  0  0  0  0  0  0  0  0
  146.5700  142.7246  160.6656 N   0  0  0  0  0  0  0  0  0  0  0  0
  146.1144  143.1982  159.4975 C   0  0  0  0  0  0  0  0  0  0  0  0
  146.8315  143.1065  158.2754 N   0  0  0  0  0  0  0  0  0  0  0  0
  147.4575  142.0360  157.7563 C   0  0  0  0  0  0  0  0  0  0  0  0
  147.4739  140.9093  158.2533 O   0  0  0  0  0  0  0  0  0  0  0  0
  148.0792  142.3452  156.6078 N   0  0  0  0  0  0  0  0  0  0  0  0
  148.8854  141.4195  155.8131 C   0  0  1  0  0  0  0  0  0  0  0  0
  148.6781  141.7551  154.3269 C   0  0  0  0  0  0  0  0  0  0  0  0
  150.3764  141.5847  156.1480 C   0  0  0  0  0  0  0  0  0  0  0  0
  151.2310  140.9466  155.5311 O   0  0  0  0  0  0  0  0  0  0  0  0
  150.6697  142.4476  157.1322 N   0  0  0  0  0  0  0  0  0  0  0  0
  152.0177  142.7779  157.5854 C   0  0  0  0  0  0  0  0  0  0  0  0
  152.3473  142.0481  158.9018 C   0  0  0  0  0  0  0  0  0  0  0  0
  152.9260  143.1078  159.8409 C   0  0  0  0  0  0  0  0  0  0  0  0
  152.2519  144.4048  159.4063 C   0  0  0  0  0  0  0  0  0  0  0  0
  152.1576  144.2846  157.8851 C   0  0  0  0  0  0  0  0  0  0  0  0
  144.5395  143.9699  159.5702 S   0  0  0  0  0  0  0  0  0  0  0  0
  143.0840  143.0657  162.7128 H   0  0  0  0  0  0  0  0  0  0  0  0
  142.6494  144.4273  161.6658 H   0  0  0  0  0  0  0  0  0  0  0  0
  143.8246  144.6562  162.9716 H   0  0  0  0  0  0  0  0  0  0  0  0
  146.8928  143.9626  157.7442 H   0  0  0  0  0  0  0  0  0  0  0  0
  148.0176  143.2952  156.2723 H   0  0  0  0  0  0  0  0  0  0  0  0
  148.5642  140.3933  156.0031 H   0  0  0  0  0  0  0  0  0  0  0  0
  149.2605  141.0911  153.6870 H   0  0  0  0  0  0  0  0  0  0  0  0
  148.9708  142.7807  154.0960 H   0  0  0  0  0  0  0  0  0  0  0  0
  147.6310  141.6405  154.0445 H   0  0  0  0  0  0  0  0  0  0  0  0
  149.9056  142.9290  157.5836 H   0  0  0  0  0  0  0  0  0  0  0  0
  152.7416  142.4901  156.8208 H   0  0  0  0  0  0  0  0  0  0  0  0
  151.4425  141.6348  159.3500 H   0  0  0  0  0  0  0  0  0  0  0  0
  153.0379  141.2181  158.7502 H   0  0  0  0  0  0  0  0  0  0  0  0
  152.7545  142.8759  160.8924 H   0  0  0  0  0  0  0  0  0  0  0  0
  154.0030  143.1865  159.6880 H   0  0  0  0  0  0  0  0  0  0  0  0
  151.2496  144.4592  159.8332 H   0  0  0  0  0  0  0  0  0  0  0  0
  152.7998  145.2917  159.7252 H   0  0  0  0  0  0  0  0  0  0  0  0
  153.0811  144.6541  157.4375 H   0  0  0  0  0  0  0  0  0  0  0  0
  151.3441  144.8882  157.4796 H   0  0  0  0  0  0  0  0  0  0  0  0
  1  2  1  0  0  0  0
  1 21  1  0  0  0  0
  1 22  1  0  0  0  0
  1 23  1  0  0  0  0
  2 20  1  0  0  0  0
  2  3  2  0  0  0  0
  3  4  1  0  0  0  0
  4  5  2  0  0  0  0
  5  6  1  0  0  0  0
  5 20  1  0  0  0  0
  6  7  1  0  0  0  0
  6 24  1  0  0  0  0
  7  8  2  0  0  0  0
  7  9  1  0  0  0  0
  9 10  1  0  0  0  0
  9 25  1  0  0  0  0
 10 11  1  0  0  0  0
 10 12  1  0  0  0  0
 10 26  1  0  0  0  0
 11 27  1  0  0  0  0
 11 28  1  0  0  0  0
 11 29  1  0  0  0  0
 12 13  2  0  0  0  0
 12 14  1  0  0  0  0
 14 15  1  0  0  0  0
 14 30  1  0  0  0  0
 15 19  1  0  0  0  0
 15 16  1  0  0  0  0
 15 31  1  0  0  0  0
 16 17  1  0  0  0  0
 16 32  1  0  0  0  0
 16 33  1  0  0  0  0
 17 18  1  0  0  0  0
 17 34  1  0  0  0  0
 17 35  1  0  0  0  0
 18 19  1  0  0  0  0
 18 36  1  0  0  0  0
 18 37  1  0  0  0  0
 19 38  1  0  0  0  0
 19 39  1  0  0  0  0
M  END
> <s_m_source_file>
AV-unprocessed.smi

> <i_m_source_file_index>
826

> <i_lp_mmshare_version>
43012

> <i_f3d_flags>
0

> <s_epik_input>
W0NIM11jMW5uYyhzMSlbTkhdQyg9TylbTkhdW0NASF0oW0NIM10pQyg9TylbTkhdW0NIXTJbQ0gyXVtDSDJdW0NIMl1bQ0gyXTI=

> <s_epik_cmdline>
J2VwaWtfcHl0aG9uJywgJy1waCcsICc3LjAnLCAnLXRuJywgJzgnLCAnLW1hJywgJzIwMCcsICctbWV0YWxfYmluZGluZycsICctaW1hZScsICc8aW5maWxlLm1hZT4nLCAnLW9tYWUnLCAnPG91dGZpbGUubWFlPic=

> <r_lp_tautomer_probability>
1

> <r_epik_Ionization_Penalty>
0.00368568

> <r_epik_Ionization_Penalty_Charging>
0

> <r_epik_Ionization_Penalty_Neutral>
0.00368568

> <r_epik_State_Penalty>
-0

> <r_epik_Charging_Adjusted_Penalty>
0

> <i_epik_Tot_Q>
0

> <i_epik_Tot_abs_Q>
0

> <r_epik_Metal_State_Penalty>
0.369753

> <b_epik_Metal_Only>
0

> <s_lp_Force_Field>
OPLS_2005

> <r_lp_Energy>
15.8717

> <b_lp_Chiralities_Consistent>
1

> <s_lp_Variant>
AV-unprocessed.smi:826-2

> <Gold.Version>
5.8.1

> <Gold.Id.Protein>
6NUR|6NUR_protein|mol2

> <Gold.PLP.Fitness>
47.2622

> <Gold.PLP.PLP>
-38.5175

> <Gold.PLP.part.hbond>
-6.0190

> <Gold.PLP.part.metal>
0.0000

> <Gold.PLP.part.buried>
-3.6914

> <Gold.PLP.part.nonpolar>
-28.4894

> <Gold.PLP.part.repulsive>
0.1795

> <Gold.PLP.ligand.clash>
0.0000

> <Gold.PLP.ligand.torsion>
1.0171

> <Gold.PLP.Chemscore.Hbond>
3.5910

> <Gold.PLP.Chemscore.CHOScore>
0.0000

> <Gold.PLP.Chemscore.Metal>
0.0000

> <Gold.Chemscore.Hbonds>
donor molecule, donor type, donor heavy atom, donor atom, acceptor molecule, acceptor atom, score
      L1  H     6    24       P1  8029  0.31
      L1  H     9    25       P1  8028  0.98
      P1  H  6933  6944       L1     4  0.68
      P1  H  6934  6946       L1     4  0.99
      P1  H  7989  7998       L1    13  0.62

> <Gold.PLP.Chemscore.Internal.Correction>
0.0058

> <Gold.Rescore>
     Score         DG    S(hbond)    S(metal)    S(lipo)     H(rot)  DE(clash)    DE(int)     intcor
     16.63     -19.03       2.24        0.00      87.80       1.65       1.31       1.10       ----

> <Gold.Chemscore.Fitness>
16.6293

> <Gold.Chemscore.DG>
-19.0329

> <Gold.Chemscore.ZeroCoef>
-5.4800

> <Gold.Chemscore.Hbond>
2.2435

> <Gold.Chemscore.Metal>
0.0000

> <Gold.Chemscore.Lipo>
87.8029

> <Gold.Chemscore.Internal_Hbond>
0.0000

> <Gold.Chemscore.DEClash>
1.3073

> <Gold.Chemscore.DEInternal>
1.0963

> <Gold.Chemscore.Rot>
1.6458

> <Gold.Chemscore.Internal.Correction>
   9.000000E+99

> <Gold.Chemscore.Hbonds>
donor molecule, donor type, donor heavy atom, donor atom, acceptor molecule, acceptor atom, score
      L1  H     6    24       P1  8029  0.03
      L1  H     9    25       P1  8028  0.24
      P1  H  6933  6944       L1     4  0.50
      P1  H  6934  6946       L1     4  0.44
      P1  H  7989  7998       L1    13  0.60

> <Gold.Chemscore.Hbond.Weighted>
-7.4933

> <Gold.Chemscore.Metal.Weighted>
-0.0000

> <Gold.Chemscore.Lipo.Weighted>
-10.2729

> <Gold.Chemscore.Internal_Hbond.Weighted>
0.0000

> <Gold.Chemscore.DEClash.Weighted>
1.3073

> <Gold.Chemscore.DEInternal.Weighted>
1.0963

> <Gold.Chemscore.Rot.Weighted>
4.2133

> <Gold.Chemscore.Internal.Correction.Weighted>
   9.000000E+99

> <Gold.Protein.RotatedTorsions>
[ 6907 6896 6895 6894 ] final  -81.92 input  -60.11 | X-H torsion
[ 7974 7965 7964 7962 ] final  135.36 input  175.53 | X-H torsion
[ 8008 7997 7996 7995 ] final  169.70 input   59.86 | X-H torsion
[ 10167 10162 10161 10158 ] final    6.50 input  -65.29 | X-H torsion
[ 10718 10713 10712 10709 ] final -121.91 input   66.30 | X-H torsion
[ 10763 10752 10751 10750 ] final   56.84 input  -60.55 | X-H torsion
[ 11005 11000 10999 10996 ] final   11.85 input  -57.11 | X-H torsion

> <Gold.Protein.ActiveResidues>
 VAL166  LYS551  ARG553  GLY616  TRP617  ASP618  TYR619  PRO620  LYS621  CYS622 
 ASP623  PHE694  ASN695  SER759  ASP760  ASP761  ALA762  ILE779  LEU786  VAL792 
 PHE793  MET794  SER795  GLU796  ALA797  LYS798  CYS799  TRP800  GLU811  SER814 

> <Gold.Protein.RotatedAtoms>
  150.6904  134.3743  159.5005 H   0  0  0  0  0  0  0  0  0  0  0  0  # atno 6907 bound_to 6896
  152.1555  134.8952  160.0554 H   0  0  0  0  0  0  0  0  0  0  0  0  # atno 6908 bound_to 6896
  152.0033  133.3799  159.4227 H   0  0  0  0  0  0  0  0  0  0  0  0  # atno 6909 bound_to 6896
  144.9671  139.4646  143.5451 H   0  0  0  0  0  0  0  0  0  0  0  0  # atno 7974 bound_to 7965
  156.1433  140.1557  156.8886 H   0  0  0  0  0  0  0  0  0  0  0  0  # atno 8008 bound_to 7997
  154.5006  140.0826  156.7828 H   0  0  0  0  0  0  0  0  0  0  0  0  # atno 8009 bound_to 7997
  155.4037  140.3415  155.4261 H   0  0  0  0  0  0  0  0  0  0  0  0  # atno 8010 bound_to 7997
  140.6424  143.7743  150.7448 H   0  0  0  0  0  0  0  0  0  0  0  0  # atno 10167 bound_to 10162
  156.1376  130.6442  150.9720 H   0  0  0  0  0  0  0  0  0  0  0  0  # atno 10718 bound_to 10713
  152.9839  135.5662  154.5294 H   0  0  0  0  0  0  0  0  0  0  0  0  # atno 10763 bound_to 10752
  154.4768  135.2787  155.1603 H   0  0  0  0  0  0  0  0  0  0  0  0  # atno 10764 bound_to 10752
  154.3128  135.6285  153.5526 H   0  0  0  0  0  0  0  0  0  0  0  0  # atno 10765 bound_to 10752
  140.4986  134.0768  155.7788 H   0  0  0  0  0  0  0  0  0  0  0  0  # atno 11005 bound_to 11000
  146.3371  139.8859  142.8817 LP  0  0  0  0  0  0  0  0  0  0  0  0  # atno 17320 bound_to 7965
  145.2613  141.0078  143.3824 LP  0  0  0  0  0  0  0  0  0  0  0  0  # atno 17321 bound_to 7965
  140.1377  143.4469  152.2214 LP  0  0  0  0  0  0  0  0  0  0  0  0  # atno 17342 bound_to 10162
  139.5633  144.7420  151.4092 LP  0  0  0  0  0  0  0  0  0  0  0  0  # atno 17343 bound_to 10162
  157.6546  131.0891  150.7976 LP  0  0  0  0  0  0  0  0  0  0  0  0  # atno 17370 bound_to 10713
  156.8054  130.4935  149.5363 LP  0  0  0  0  0  0  0  0  0  0  0  0  # atno 17371 bound_to 10713
  141.1447  133.9076  157.2243 LP  0  0  0  0  0  0  0  0  0  0  0  0  # atno 17394 bound_to 11000
  139.9727  135.0123  156.9552 LP  0  0  0  0  0  0  0  0  0  0  0  0  # atno 17395 bound_to 11000

$$$$
