AV-unprocessed.smi:198|AV-procd|sdf|1552|dock9
  -GOLD-   2262019423D 1   1.00000     0.00000
 Structure written by MMmdl.
 59 63  0  0  0  0  0  0  0  0  2 V2000
  146.4364  129.0110  151.8924 C   0  0  0  0  0  0  0  0  0  0  0  0
  147.3630  130.0561  152.3777 N   0  3  1  0  0  0  0  0  0  0  0  0
  146.6696  131.3328  152.6759 C   0  0  0  0  0  0  0  0  0  0  0  0
  147.6720  132.4299  153.0697 C   0  0  0  0  0  0  0  0  0  0  0  0
  148.5319  131.9920  154.2793 C   0  0  1  0  0  0  0  0  0  0  0  0
  149.2302  130.6601  153.9110 C   0  0  1  0  0  0  0  0  0  0  0  0
  150.1389  130.1831  155.0555 C   0  0  0  0  0  0  0  0  0  0  0  0
  151.1554  131.2774  155.4029 C   0  0  0  0  0  0  0  0  0  0  0  0
  150.4391  132.5911  155.7465 C   0  0  0  0  0  0  0  0  0  0  0  0
  149.5269  133.0005  154.6781 N   0  0  0  0  0  0  0  0  0  0  0  0
  149.0752  134.2558  154.9128 C   0  0  0  0  0  0  0  0  0  0  0  0
  147.7543  134.5469  154.7753 N   0  0  0  0  0  0  0  0  0  0  0  0
  147.3154  135.7856  155.0181 C   0  0  0  0  0  0  0  0  0  0  0  0
  148.0116  136.8562  155.4061 N   0  0  0  0  0  0  0  0  0  0  0  0
  149.3357  136.5635  155.5596 C   0  0  0  0  0  0  0  0  0  0  0  0
  149.9430  135.2959  155.3382 C   0  0  0  0  0  0  0  0  0  0  0  0
  151.3059  135.3661  155.5923 N   0  0  0  0  0  0  0  0  0  0  0  0
  151.4967  136.6087  155.9429 C   0  0  0  0  0  0  0  0  0  0  0  0
  150.3690  137.4007  155.9506 N   0  0  0  0  0  0  0  0  0  0  0  0
  150.3122  138.7960  156.2872 C   0  0  0  0  0  0  0  0  0  0  0  0
  149.0113  139.5957  156.1884 C   0  0  0  0  0  0  0  0  0  0  0  0
  149.8262  140.8563  155.8153 C   0  0  0  0  0  0  0  0  0  0  0  0
  149.1993  141.7105  154.6996 C   0  0  0  0  0  0  0  0  0  0  0  0
  149.2601  141.0687  153.4424 O   0  0  0  0  0  0  0  0  0  0  0  0
  150.1606  141.7580  157.0228 C   0  0  0  0  0  0  0  0  0  0  0  0
  150.8144  142.9501  156.6387 O   0  0  0  0  0  0  0  0  0  0  0  0
  150.9231  139.8588  155.3739 C   0  0  0  0  0  0  0  0  0  0  0  0
  148.1913  129.5934  153.5180 C   0  0  0  0  0  0  0  0  0  0  0  0
  145.7067  128.7476  152.6590 H   0  0  0  0  0  0  0  0  0  0  0  0
  146.9835  128.1089  151.6161 H   0  0  0  0  0  0  0  0  0  0  0  0
  145.8971  129.3549  151.0093 H   0  0  0  0  0  0  0  0  0  0  0  0
  146.1050  131.6540  151.7997 H   0  0  0  0  0  0  0  0  0  0  0  0
  145.9478  131.1787  153.4798 H   0  0  0  0  0  0  0  0  0  0  0  0
  148.3166  132.6603  152.2202 H   0  0  0  0  0  0  0  0  0  0  0  0
  147.1163  133.3417  153.2872 H   0  0  0  0  0  0  0  0  0  0  0  0
  147.8748  131.8131  155.1323 H   0  0  0  0  0  0  0  0  0  0  0  0
  149.8672  130.8377  153.0423 H   0  0  0  0  0  0  0  0  0  0  0  0
  149.5400  129.9418  155.9347 H   0  0  0  0  0  0  0  0  0  0  0  0
  150.6613  129.2695  154.7701 H   0  0  0  0  0  0  0  0  0  0  0  0
  151.7773  130.9607  156.2405 H   0  0  0  0  0  0  0  0  0  0  0  0
  151.8280  131.4373  154.5591 H   0  0  0  0  0  0  0  0  0  0  0  0
  149.8749  132.4719  156.6729 H   0  0  0  0  0  0  0  0  0  0  0  0
  151.1823  133.3694  155.9272 H   0  0  0  0  0  0  0  0  0  0  0  0
  146.2554  135.9422  154.8818 H   0  0  0  0  0  0  0  0  0  0  0  0
  152.4754  136.9836  156.2053 H   0  0  0  0  0  0  0  0  0  0  0  0
  150.7294  138.8890  157.2916 H   0  0  0  0  0  0  0  0  0  0  0  0
  148.3601  139.2520  155.3835 H   0  0  0  0  0  0  0  0  0  0  0  0
  148.4576  139.6677  157.1251 H   0  0  0  0  0  0  0  0  0  0  0  0
  148.1477  141.9084  154.9100 H   0  0  0  0  0  0  0  0  0  0  0  0
  149.6848  142.6839  154.6251 H   0  0  0  0  0  0  0  0  0  0  0  0
  148.7442  140.2781  153.4819 H   0  0  0  0  0  0  0  0  0  0  0  0
  149.2602  142.0178  157.5803 H   0  0  0  0  0  0  0  0  0  0  0  0
  150.8126  141.2430  157.7287 H   0  0  0  0  0  0  0  0  0  0  0  0
  150.1662  143.6298  156.5362 H   0  0  0  0  0  0  0  0  0  0  0  0
  151.9416  140.1452  155.6368 H   0  0  0  0  0  0  0  0  0  0  0  0
  150.8562  139.6003  154.3160 H   0  0  0  0  0  0  0  0  0  0  0  0
  147.5485  129.3558  154.3675 H   0  0  0  0  0  0  0  0  0  0  0  0
  148.7022  128.6711  153.2381 H   0  0  0  0  0  0  0  0  0  0  0  0
  148.0018  130.2475  151.6189 H   0  0  0  0  0  0  0  0  0  0  0  0
  1  2  1  0  0  0  0
  1 29  1  0  0  0  0
  1 30  1  0  0  0  0
  1 31  1  0  0  0  0
  2 28  1  0  0  0  0
  2  3  1  0  0  0  0
  2 59  1  0  0  0  0
  3  4  1  0  0  0  0
  3 32  1  0  0  0  0
  3 33  1  0  0  0  0
  4  5  1  0  0  0  0
  4 34  1  0  0  0  0
  4 35  1  0  0  0  0
  5 10  1  0  0  0  0
  5  6  1  0  0  0  0
  5 36  1  0  0  0  0
  6  7  1  0  0  0  0
  6 28  1  0  0  0  0
  6 37  1  0  0  0  0
  7  8  1  0  0  0  0
  7 38  1  0  0  0  0
  7 39  1  0  0  0  0
  8  9  1  0  0  0  0
  8 40  1  0  0  0  0
  8 41  1  0  0  0  0
  9 10  1  0  0  0  0
  9 42  1  0  0  0  0
  9 43  1  0  0  0  0
 10 11  1  0  0  0  0
 11 16  1  0  0  0  0
 11 12  2  0  0  0  0
 12 13  1  0  0  0  0
 13 14  2  0  0  0  0
 13 44  1  0  0  0  0
 14 15  1  0  0  0  0
 15 19  1  0  0  0  0
 15 16  2  0  0  0  0
 16 17  1  0  0  0  0
 17 18  2  0  0  0  0
 18 19  1  0  0  0  0
 18 45  1  0  0  0  0
 19 20  1  0  0  0  0
 20 27  1  0  0  0  0
 20 21  1  0  0  0  0
 20 46  1  0  0  0  0
 21 22  1  0  0  0  0
 21 47  1  0  0  0  0
 21 48  1  0  0  0  0
 22 23  1  0  0  0  0
 22 25  1  0  0  0  0
 22 27  1  0  0  0  0
 23 24  1  0  0  0  0
 23 49  1  0  0  0  0
 23 50  1  0  0  0  0
 24 51  1  0  0  0  0
 25 26  1  0  0  0  0
 25 52  1  0  0  0  0
 25 53  1  0  0  0  0
 26 54  1  0  0  0  0
 27 55  1  0  0  0  0
 27 56  1  0  0  0  0
 28 57  1  0  0  0  0
 28 58  1  0  0  0  0
M  CHG  1   2   1
M  END
> <s_m_source_file>
AV-unprocessed.smi

> <i_m_source_file_index>
198

> <i_lp_mmshare_version>
43012

> <i_f3d_flags>
0

> <s_epik_input>
W0NIMl0xW0NIMl1OKFtDSDNdKVtDSDJdW0NAQEhdKFtDQEhdMTIpW0NIMl1bQ0gyXVtDSDJdTjJjKG5bY0hdbjMpYyhjMzQpbltjSF1uNFtDSF0oW0NIMl01KVtDSDJdQzUoW0NIMl1bT0hdKVtDSDJdW09IXQ==

> <s_epik_cmdline>
J2VwaWtfcHl0aG9uJywgJy1waCcsICc3LjAnLCAnLXRuJywgJzgnLCAnLW1hJywgJzIwMCcsICctbWV0YWxfYmluZGluZycsICctaW1hZScsICc8aW5maWxlLm1hZT4nLCAnLW9tYWUnLCAnPG91dGZpbGUubWFlPic=

> <r_lp_tautomer_probability>
1

> <r_epik_Ionization_Penalty>
0.00239938

> <r_epik_Ionization_Penalty_Charging>
0.00138697

> <r_epik_Ionization_Penalty_Neutral>
0.00101241

> <r_epik_State_Penalty>
-0

> <r_epik_Charging_Adjusted_Penalty>
0.00138697

> <i_epik_Tot_Q>
1

> <i_epik_Tot_abs_Q>
1

> <r_epik_Metal_State_Penalty>
-0

> <b_epik_Metal_Only>
0

> <s_lp_Force_Field>
OPLS_2005

> <r_lp_Energy>
56.2866

> <b_lp_Chiralities_Consistent>
1

> <s_lp_Variant>
AV-unprocessed.smi:198-1

> <Gold.Version>
5.8.1

> <Gold.Id.Protein>
6NUR|6NUR_protein|mol2

> <Gold.PLP.Fitness>
50.1132

> <Gold.PLP.PLP>
-42.1828

> <Gold.PLP.part.hbond>
-5.9743

> <Gold.PLP.part.metal>
0.0000

> <Gold.PLP.part.buried>
-3.7849

> <Gold.PLP.part.nonpolar>
-32.1249

> <Gold.PLP.part.repulsive>
0.3150

> <Gold.PLP.ligand.clash>
1.0911

> <Gold.PLP.ligand.torsion>
0.8400

> <Gold.PLP.Chemscore.Hbond>
3.3514

> <Gold.PLP.Chemscore.CHOScore>
0.0000

> <Gold.PLP.Chemscore.Metal>
0.0000

> <Gold.Chemscore.Hbonds>
donor molecule, donor type, donor heavy atom, donor atom, acceptor molecule, acceptor atom, score
      L1  H     2    59       P1 10747  1.00
      L1  H    26    54       P1  8028  1.00
      P1  H  7989  7998       L1    24  0.04
      P1  H  8011  8017       L1    24  1.00
      P1  H 10752 10765       L1    17  0.20

> <Gold.PLP.Chemscore.Internal.Correction>
0.6473

> <Gold.Rescore>
     Score         DG    S(hbond)    S(metal)    S(lipo)     H(rot)  DE(clash)    DE(int)     intcor
     12.91     -17.97       2.92        0.00      90.78       3.08       0.07       4.99       ----

> <Gold.Chemscore.Fitness>
12.9107

> <Gold.Chemscore.DG>
-17.9694

> <Gold.Chemscore.ZeroCoef>
-5.4800

> <Gold.Chemscore.Hbond>
2.9187

> <Gold.Chemscore.Metal>
0.0000

> <Gold.Chemscore.Lipo>
90.7780

> <Gold.Chemscore.Internal_Hbond>
0.0000

> <Gold.Chemscore.DEClash>
0.0728

> <Gold.Chemscore.DEInternal>
4.9859

> <Gold.Chemscore.Rot>
3.0781

> <Gold.Chemscore.Internal.Correction>
   9.000000E+99

> <Gold.Chemscore.Hbonds>
donor molecule, donor type, donor heavy atom, donor atom, acceptor molecule, acceptor atom, score
      L1  H     2    59       P1 10747  0.99
      L1  H    26    54       P1  8028  0.99
      P1  H  8011  8017       L1    24  0.39

> <Gold.Chemscore.Hbond.Weighted>
-9.7484

> <Gold.Chemscore.Metal.Weighted>
-0.0000

> <Gold.Chemscore.Lipo.Weighted>
-10.6210

> <Gold.Chemscore.Internal_Hbond.Weighted>
0.0000

> <Gold.Chemscore.DEClash.Weighted>
0.0728

> <Gold.Chemscore.DEInternal.Weighted>
4.9859

> <Gold.Chemscore.Rot.Weighted>
7.8800

> <Gold.Chemscore.Internal.Correction.Weighted>
   9.000000E+99

> <Gold.Protein.RotatedTorsions>
[ 6907 6896 6895 6894 ] final   -1.47 input  -60.11 | X-H torsion
[ 7974 7965 7964 7962 ] final   84.40 input  175.53 | X-H torsion
[ 8008 7997 7996 7995 ] final  -38.83 input   59.86 | X-H torsion
[ 10167 10162 10161 10158 ] final  107.98 input  -65.29 | X-H torsion
[ 10718 10713 10712 10709 ] final  114.18 input   66.30 | X-H torsion
[ 10763 10752 10751 10750 ] final -160.65 input  -60.55 | X-H torsion
[ 11005 11000 10999 10996 ] final  133.53 input  -57.11 | X-H torsion

> <Gold.Protein.ActiveResidues>
 VAL166  LYS551  ARG553  GLY616  TRP617  ASP618  TYR619  PRO620  LYS621  CYS622 
 ASP623  PHE694  ASN695  SER759  ASP760  ASP761  ALA762  ILE779  LEU786  VAL792 
 PHE793  MET794  SER795  GLU796  ALA797  LYS798  CYS799  TRP800  GLU811  SER814 

> <Gold.Protein.RotatedAtoms>
  151.5455  135.1068  159.9936 H   0  0  0  0  0  0  0  0  0  0  0  0  # atno 6907 bound_to 6896
  152.4515  133.7635  159.6770 H   0  0  0  0  0  0  0  0  0  0  0  0  # atno 6908 bound_to 6896
  150.8445  133.7816  159.3072 H   0  0  0  0  0  0  0  0  0  0  0  0  # atno 6909 bound_to 6896
  145.5993  139.2350  143.2255 H   0  0  0  0  0  0  0  0  0  0  0  0  # atno 7974 bound_to 7965
  154.4031  140.1567  156.2763 H   0  0  0  0  0  0  0  0  0  0  0  0  # atno 8008 bound_to 7997
  155.8909  140.3438  155.5933 H   0  0  0  0  0  0  0  0  0  0  0  0  # atno 8009 bound_to 7997
  155.7560  140.0811  157.2169 H   0  0  0  0  0  0  0  0  0  0  0  0  # atno 8010 bound_to 7997
  139.6883  144.7111  151.1394 H   0  0  0  0  0  0  0  0  0  0  0  0  # atno 10167 bound_to 10162
  157.6296  131.0995  150.7148 H   0  0  0  0  0  0  0  0  0  0  0  0  # atno 10718 bound_to 10713
  154.7372  135.3060  154.8791 H   0  0  0  0  0  0  0  0  0  0  0  0  # atno 10763 bound_to 10752
  153.9616  135.6752  153.4749 H   0  0  0  0  0  0  0  0  0  0  0  0  # atno 10764 bound_to 10752
  153.0974  135.4929  154.8726 H   0  0  0  0  0  0  0  0  0  0  0  0  # atno 10765 bound_to 10752
  139.9858  134.9533  156.9738 H   0  0  0  0  0  0  0  0  0  0  0  0  # atno 11005 bound_to 11000
  146.1588  140.6818  142.9287 LP  0  0  0  0  0  0  0  0  0  0  0  0  # atno 17320 bound_to 7965
  144.7317  140.4690  143.6933 LP  0  0  0  0  0  0  0  0  0  0  0  0  # atno 17321 bound_to 7965
  140.7674  143.5597  150.9112 LP  0  0  0  0  0  0  0  0  0  0  0  0  # atno 17342 bound_to 10162
  139.9273  143.6535  152.3084 LP  0  0  0  0  0  0  0  0  0  0  0  0  # atno 17343 bound_to 10162
  156.7490  130.4762  149.5461 LP  0  0  0  0  0  0  0  0  0  0  0  0  # atno 17370 bound_to 10713
  156.1491  130.6297  151.0571 LP  0  0  0  0  0  0  0  0  0  0  0  0  # atno 17371 bound_to 10713
  140.5006  134.1101  155.7250 LP  0  0  0  0  0  0  0  0  0  0  0  0  # atno 17394 bound_to 11000
  141.1523  133.8947  157.2067 LP  0  0  0  0  0  0  0  0  0  0  0  0  # atno 17395 bound_to 11000

$$$$
