AV-unprocessed.smi:2647|AV-procd|sdf|10284|dock1
  -GOLD-   2272014293D 1   1.00000     0.00000
 Structure written by MMmdl.
 31 32  0  0  0  0  0  0  0  0  2 V2000
  150.9263  139.9808  154.8363 O   0  0  0  0  0  0  0  0  0  0  0  0
  151.8750  139.9427  155.6233 C   0  0  0  0  0  0  0  0  0  0  0  0
  151.8783  140.7332  156.7062 N   0  0  0  0  0  0  0  0  0  0  0  0
  150.8373  141.6870  157.0739 C   0  0  0  0  0  0  0  0  0  0  0  0
  151.0083  142.1812  158.5191 C   0  0  0  0  0  0  0  0  0  0  0  0
  152.3982  142.7896  158.7705 C   0  0  0  0  0  0  0  0  0  0  0  0
  152.9440  142.3638  160.0634 N   0  0  0  0  0  0  0  0  0  0  0  0
  153.7661  141.3170  160.2229 C   0  0  0  0  0  0  0  0  0  0  0  0
  154.1659  140.5617  159.3371 O   0  0  0  0  0  0  0  0  0  0  0  0
  154.1750  141.1600  161.6811 C   0  0  0  0  0  0  0  0  0  0  0  0
  153.4395  142.3120  162.3728 C   0  0  0  0  0  0  0  0  0  0  0  0
  152.7082  142.9929  161.2237 C   0  0  0  0  0  0  0  0  0  0  0  0
  152.0054  143.9902  161.3839 O   0  0  0  0  0  0  0  0  0  0  0  0
  152.9733  139.1604  155.5170 N   0  5  0  0  0  0  0  0  0  0  0  0
  153.0790  138.0462  156.2599 C   0  0  0  0  0  0  0  0  0  0  0  0
  154.2656  137.5034  156.5766 N   0  0  0  0  0  0  0  0  0  0  0  0
  154.1524  136.3534  157.3461 N   0  0  0  0  0  0  0  0  0  0  0  0
  152.8760  136.0516  157.5837 C   0  0  0  0  0  0  0  0  0  0  0  0
  151.6972  137.1431  156.8876 S   0  0  0  0  0  0  0  0  0  0  0  0
  152.6744  140.6675  157.3234 H   0  0  0  0  0  0  0  0  0  0  0  0
  150.8339  142.5276  156.3779 H   0  0  0  0  0  0  0  0  0  0  0  0
  149.8737  141.1893  156.9639 H   0  0  0  0  0  0  0  0  0  0  0  0
  150.2392  142.9227  158.7404 H   0  0  0  0  0  0  0  0  0  0  0  0
  150.8459  141.3531  159.2103 H   0  0  0  0  0  0  0  0  0  0  0  0
  153.0771  142.5054  157.9646 H   0  0  0  0  0  0  0  0  0  0  0  0
  152.3393  143.8787  158.7339 H   0  0  0  0  0  0  0  0  0  0  0  0
  153.8625  140.1883  162.0646 H   0  0  0  0  0  0  0  0  0  0  0  0
  155.2569  141.2490  161.7849 H   0  0  0  0  0  0  0  0  0  0  0  0
  152.7288  141.9520  163.1174 H   0  0  0  0  0  0  0  0  0  0  0  0
  154.1304  143.0068  162.8517 H   0  0  0  0  0  0  0  0  0  0  0  0
  152.6270  135.1799  158.1701 H   0  0  0  0  0  0  0  0  0  0  0  0
  1  2  2  0  0  0  0
  2  3  1  0  0  0  0
  2 14  1  0  0  0  0
  3  4  1  0  0  0  0
  3 20  1  0  0  0  0
  4  5  1  0  0  0  0
  4 21  1  0  0  0  0
  4 22  1  0  0  0  0
  5  6  1  0  0  0  0
  5 23  1  0  0  0  0
  5 24  1  0  0  0  0
  6  7  1  0  0  0  0
  6 25  1  0  0  0  0
  6 26  1  0  0  0  0
  7 12  1  0  0  0  0
  7  8  1  0  0  0  0
  8  9  2  0  0  0  0
  8 10  1  0  0  0  0
 10 11  1  0  0  0  0
 10 27  1  0  0  0  0
 10 28  1  0  0  0  0
 11 12  1  0  0  0  0
 11 29  1  0  0  0  0
 11 30  1  0  0  0  0
 12 13  2  0  0  0  0
 14 15  1  0  0  0  0
 15 19  1  0  0  0  0
 15 16  2  0  0  0  0
 16 17  1  0  0  0  0
 17 18  2  0  0  0  0
 18 19  1  0  0  0  0
 18 31  1  0  0  0  0
M  CHG  1  14  -1
M  END
> <s_m_source_file>
AV-unprocessed.smi

> <i_m_source_file_index>
2647

> <i_lp_mmshare_version>
43012

> <i_f3d_flags>
0

> <s_epik_input>
czFbY0hdbm5jMVtOSF1DKD1PKVtOSF1bQ0gyXVtDSDJdW0NIMl1OMkMoPU8pW0NIMl1bQ0gyXUMyPU8=

> <s_epik_cmdline>
J2VwaWtfcHl0aG9uJywgJy1waCcsICc3LjAnLCAnLXRuJywgJzgnLCAnLW1hJywgJzIwMCcsICctbWV0YWxfYmluZGluZycsICctaW1hZScsICc8aW5maWxlLm1hZT4nLCAnLW9tYWUnLCAnPG91dGZpbGUubWFlPic=

> <r_lp_tautomer_probability>
1

> <r_epik_Ionization_Penalty>
3.50019

> <r_epik_Ionization_Penalty_Charging>
3.45871

> <r_epik_Ionization_Penalty_Neutral>
0.0414811

> <r_epik_State_Penalty>
3.45698

> <r_epik_Charging_Adjusted_Penalty>
6.91569

> <i_epik_Tot_Q>
-1

> <i_epik_Tot_abs_Q>
1

> <r_epik_Metal_State_Penalty>
0.503209

> <b_epik_Metal_Only>
1

> <s_lp_Force_Field>
OPLS_2005

> <r_lp_Energy>
9.35786

> <b_lp_Chiralities_Consistent>
1

> <s_lp_Variant>
AV-unprocessed.smi:2647-2

> <Gold.Version>
5.8.1

> <Gold.Id.Protein>
6NUR|6NUR_protein|mol2

> <Gold.PLP.Fitness>
44.7657

> <Gold.PLP.PLP>
-37.6096

> <Gold.PLP.part.hbond>
-5.5785

> <Gold.PLP.part.metal>
0.0000

> <Gold.PLP.part.buried>
-1.1612

> <Gold.PLP.part.nonpolar>
-29.6463

> <Gold.PLP.part.repulsive>
0.3667

> <Gold.PLP.ligand.clash>
0.0000

> <Gold.PLP.ligand.torsion>
1.5927

> <Gold.PLP.Chemscore.Hbond>
3.4137

> <Gold.PLP.Chemscore.CHOScore>
0.0000

> <Gold.PLP.Chemscore.Metal>
0.0000

> <Gold.Chemscore.Hbonds>
donor molecule, donor type, donor heavy atom, donor atom, acceptor molecule, acceptor atom, score
      P1  H  7989  7998       L1     1  1.00
      P1  H  7997  8009       L1     9  0.25
      P1  H  7997  8010       L1    14  1.89

> <Gold.PLP.Chemscore.Internal.Correction>
0.1005

> <Gold.Rescore>
     Score         DG    S(hbond)    S(metal)    S(lipo)     H(rot)  DE(clash)    DE(int)     intcor
      8.12      -9.94       1.23        0.00      53.78       2.32       0.15       1.67       ----

> <Gold.Chemscore.Fitness>
8.1164

> <Gold.Chemscore.DG>
-9.9358

> <Gold.Chemscore.ZeroCoef>
-5.4800

> <Gold.Chemscore.Hbond>
1.2297

> <Gold.Chemscore.Metal>
0.0000

> <Gold.Chemscore.Lipo>
53.7834

> <Gold.Chemscore.Internal_Hbond>
0.0000

> <Gold.Chemscore.DEClash>
0.1539

> <Gold.Chemscore.DEInternal>
1.6654

> <Gold.Chemscore.Rot>
2.3219

> <Gold.Chemscore.Internal.Correction>
   9.000000E+99

> <Gold.Chemscore.Hbonds>
donor molecule, donor type, donor heavy atom, donor atom, acceptor molecule, acceptor atom, score
      P1  H  7989  7998       L1     1  0.30
      P1  H  7997  8009       L1     9  0.24
      P1  H  7997  8010       L1    14  0.44

> <Gold.Chemscore.Hbond.Weighted>
-4.1072

> <Gold.Chemscore.Metal.Weighted>
-0.0000

> <Gold.Chemscore.Lipo.Weighted>
-6.2927

> <Gold.Chemscore.Internal_Hbond.Weighted>
0.0000

> <Gold.Chemscore.DEClash.Weighted>
0.1539

> <Gold.Chemscore.DEInternal.Weighted>
1.6654

> <Gold.Chemscore.Rot.Weighted>
5.9441

> <Gold.Chemscore.Internal.Correction.Weighted>
   9.000000E+99

> <Gold.Protein.RotatedTorsions>
[ 6907 6896 6895 6894 ] final -120.65 input  -60.11 | X-H torsion
[ 7974 7965 7964 7962 ] final  119.17 input  175.53 | X-H torsion
[ 8008 7997 7996 7995 ] final  114.03 input   59.86 | X-H torsion
[ 10167 10162 10161 10158 ] final -126.17 input  -65.29 | X-H torsion
[ 10718 10713 10712 10709 ] final  116.68 input   66.30 | X-H torsion
[ 10763 10752 10751 10750 ] final   -1.95 input  -60.55 | X-H torsion
[ 11005 11000 10999 10996 ] final  -99.18 input  -57.11 | X-H torsion

> <Gold.Protein.ActiveResidues>
 VAL166  LYS551  ARG553  GLY616  TRP617  ASP618  TYR619  PRO620  LYS621  CYS622 
 ASP623  PHE694  ASN695  SER759  ASP760  ASP761  ALA762  ILE779  LEU786  VAL792 
 PHE793  MET794  SER795  GLU796  ALA797  LYS798  CYS799  TRP800  GLU811  SER814 

> <Gold.Protein.RotatedAtoms>
  150.8412  133.7933  159.3059 H   0  0  0  0  0  0  0  0  0  0  0  0  # atno 6907 bound_to 6896
  151.5634  135.1063  159.9987 H   0  0  0  0  0  0  0  0  0  0  0  0  # atno 6908 bound_to 6896
  152.4475  133.7522  159.6757 H   0  0  0  0  0  0  0  0  0  0  0  0  # atno 6909 bound_to 6896
  145.1463  139.3237  143.4590 H   0  0  0  0  0  0  0  0  0  0  0  0  # atno 7974 bound_to 7965
  156.2295  140.2967  156.0153 H   0  0  0  0  0  0  0  0  0  0  0  0  # atno 8008 bound_to 7997
  155.2263  140.0417  157.2973 H   0  0  0  0  0  0  0  0  0  0  0  0  # atno 8009 bound_to 7997
  154.5972  140.2417  155.7848 H   0  0  0  0  0  0  0  0  0  0  0  0  # atno 8010 bound_to 7997
  139.9744  143.5811  152.2401 H   0  0  0  0  0  0  0  0  0  0  0  0  # atno 10167 bound_to 10162
  157.6145  131.1028  150.7507 H   0  0  0  0  0  0  0  0  0  0  0  0  # atno 10718 bound_to 10713
  153.3516  135.6986  153.6784 H   0  0  0  0  0  0  0  0  0  0  0  0  # atno 10763 bound_to 10752
  153.5509  135.3554  155.2759 H   0  0  0  0  0  0  0  0  0  0  0  0  # atno 10764 bound_to 10752
  154.8654  135.4226  154.2752 H   0  0  0  0  0  0  0  0  0  0  0  0  # atno 10765 bound_to 10752
  141.1318  133.8302  157.0938 H   0  0  0  0  0  0  0  0  0  0  0  0  # atno 11005 bound_to 11000
  146.3499  140.1520  142.8592 LP  0  0  0  0  0  0  0  0  0  0  0  0  # atno 17320 bound_to 7965
  145.0478  140.8995  143.5013 LP  0  0  0  0  0  0  0  0  0  0  0  0  # atno 17321 bound_to 7965
  139.6457  144.7658  151.2249 LP  0  0  0  0  0  0  0  0  0  0  0  0  # atno 17342 bound_to 10162
  140.7511  143.6243  150.8483 LP  0  0  0  0  0  0  0  0  0  0  0  0  # atno 17343 bound_to 10162
  156.7877  130.4880  149.5390 LP  0  0  0  0  0  0  0  0  0  0  0  0  # atno 17370 bound_to 10713
  156.1261  130.6145  151.0266 LP  0  0  0  0  0  0  0  0  0  0  0  0  # atno 17371 bound_to 10713
  140.0376  134.9870  157.0900 LP  0  0  0  0  0  0  0  0  0  0  0  0  # atno 17394 bound_to 11000
  140.4186  134.1905  155.7164 LP  0  0  0  0  0  0  0  0  0  0  0  0  # atno 17395 bound_to 11000

$$$$
