AV-unprocessed.smi:158|AV-procd|sdf|1323|dock9
  -GOLD-   2262019 13D 1   1.00000     0.00000
 Structure written by MMmdl.
 31 33  0  0  0  0  0  0  0  0  1 V2000
  147.5969  132.9836  160.5944 N   0  0  0  0  0  0  0  0  0  0  0  0
  147.6606  134.3196  160.5041 C   0  0  0  0  0  0  0  0  0  0  0  0
  147.0213  135.0603  161.4393 N   0  0  0  0  0  0  0  0  0  0  0  0
  147.0611  136.3972  161.3849 C   0  0  0  0  0  0  0  0  0  0  0  0
  146.2136  137.2439  162.6248 Cl  0  0  0  0  0  0  0  0  0  0  0  0
  147.6850  137.1528  160.4756 N   0  0  0  0  0  0  0  0  0  0  0  0
  148.3308  136.4111  159.5302 C   0  0  0  0  0  0  0  0  0  0  0  0
  148.3660  134.9920  159.4763 C   0  0  0  0  0  0  0  0  0  0  0  0
  149.1152  134.5774  158.3839 N   0  0  0  0  0  0  0  0  0  0  0  0
  149.5001  135.6942  157.8263 C   0  0  0  0  0  0  0  0  0  0  0  0
  149.0711  136.8464  158.4489 N   0  0  0  0  0  0  0  0  0  0  0  0
  149.3500  138.2602  158.0397 C   0  0  2  0  0  0  0  0  0  0  0  0
  149.2134  138.3396  156.6530 O   0  0  0  0  0  0  0  0  0  0  0  0
  150.3344  139.0108  156.0876 C   0  0  2  0  0  0  0  0  0  0  0  0
  150.5495  138.5243  154.6452 C   0  0  0  0  0  0  0  0  0  0  0  0
  149.4988  138.9652  153.8110 O   0  0  0  0  0  0  0  0  0  0  0  0
  151.4850  138.6987  157.0494 C   0  0  1  0  0  0  0  0  0  0  0  0
  152.4819  139.6999  157.0113 O   0  0  0  0  0  0  0  0  0  0  0  0
  150.7832  138.6932  158.3956 C   0  0  2  0  0  0  0  0  0  0  0  0
  151.3580  137.8605  159.2670 F   0  0  0  0  0  0  0  0  0  0  0  0
  148.5850  138.8508  158.5449 H   0  0  0  0  0  0  0  0  0  0  0  0
  150.1074  140.0788  156.1017 H   0  0  0  0  0  0  0  0  0  0  0  0
  151.9202  137.7221  156.8364 H   0  0  0  0  0  0  0  0  0  0  0  0
  150.7443  139.6892  158.8394 H   0  0  0  0  0  0  0  0  0  0  0  0
  148.0670  132.4118  159.9075 H   0  0  0  0  0  0  0  0  0  0  0  0
  147.0800  132.5516  161.3467 H   0  0  0  0  0  0  0  0  0  0  0  0
  150.1105  135.7084  156.9349 H   0  0  0  0  0  0  0  0  0  0  0  0
  151.5035  138.8732  154.2494 H   0  0  0  0  0  0  0  0  0  0  0  0
  150.5697  137.4346  154.6189 H   0  0  0  0  0  0  0  0  0  0  0  0
  149.8717  139.4482  153.0892 H   0  0  0  0  0  0  0  0  0  0  0  0
  152.1513  140.4650  157.4581 H   0  0  0  0  0  0  0  0  0  0  0  0
  1  2  1  0  0  0  0
  1 25  1  0  0  0  0
  1 26  1  0  0  0  0
  2  8  1  0  0  0  0
  2  3  2  0  0  0  0
  3  4  1  0  0  0  0
  4  5  1  0  0  0  0
  4  6  2  0  0  0  0
  6  7  1  0  0  0  0
  7 11  1  0  0  0  0
  7  8  2  0  0  0  0
  8  9  1  0  0  0  0
  9 10  2  0  0  0  0
 10 11  1  0  0  0  0
 10 27  1  0  0  0  0
 11 12  1  0  0  0  0
 12 21  1  0  0  0  0
 12 19  1  0  0  0  0
 12 13  1  0  0  0  0
 13 14  1  0  0  0  0
 14 22  1  0  0  0  0
 14 15  1  0  0  0  0
 14 17  1  0  0  0  0
 15 16  1  0  0  0  0
 15 28  1  0  0  0  0
 15 29  1  0  0  0  0
 16 30  1  0  0  0  0
 17 23  1  0  0  0  0
 17 18  1  0  0  0  0
 17 19  1  0  0  0  0
 18 31  1  0  0  0  0
 19 24  1  0  0  0  0
 19 20  1  0  0  0  0
M  END
> <s_m_source_file>
AV-unprocessed.smi

> <i_m_source_file_index>
158

> <i_lp_mmshare_version>
43012

> <i_f3d_flags>
0

> <s_epik_input>
Q2xjKG4xKW5jKFtOSDJdKWMoYzEyKW5bY0hdbjJbQ0BASF0zT1tDQEhdKFtDSDJdW09IXSlbQ0BASF0oW09IXSlbQ0BASF0zRg==

> <s_epik_cmdline>
J2VwaWtfcHl0aG9uJywgJy1waCcsICc3LjAnLCAnLXRuJywgJzgnLCAnLW1hJywgJzIwMCcsICctbWV0YWxfYmluZGluZycsICctaW1hZScsICc8aW5maWxlLm1hZT4nLCAnLW9tYWUnLCAnPG91dGZpbGUubWFlPic=

> <r_lp_tautomer_probability>
1

> <r_epik_Ionization_Penalty>
6.51543e-05

> <r_epik_Ionization_Penalty_Charging>
0

> <r_epik_Ionization_Penalty_Neutral>
6.51543e-05

> <r_epik_State_Penalty>
-0

> <r_epik_Charging_Adjusted_Penalty>
0

> <i_epik_Tot_Q>
0

> <i_epik_Tot_abs_Q>
0

> <r_epik_Metal_State_Penalty>
-0

> <b_epik_Metal_Only>
0

> <s_epik_Chemistry_Notes>
This compound contains an acetal/aminal-like group ( X-CH(R)-Y where X, Y are N, S, or O) that may be acid/base labile, releasing an aldehyde.

> <s_lp_Force_Field>
OPLS_2005

> <r_lp_Energy>
34.2201

> <b_lp_Chiralities_Consistent>
1

> <s_lp_Variant>
AV-unprocessed.smi:158-1

> <Gold.Version>
5.8.1

> <Gold.Id.Protein>
6NUR|6NUR_protein|mol2

> <Gold.PLP.Fitness>
37.3730

> <Gold.PLP.PLP>
-25.0446

> <Gold.PLP.part.hbond>
-5.0000

> <Gold.PLP.part.metal>
0.0000

> <Gold.PLP.part.buried>
-4.1553

> <Gold.PLP.part.nonpolar>
-16.8510

> <Gold.PLP.part.repulsive>
0.0472

> <Gold.PLP.ligand.clash>
0.0000

> <Gold.PLP.ligand.torsion>
0.4678

> <Gold.PLP.Chemscore.Hbond>
4.4112

> <Gold.PLP.Chemscore.CHOScore>
0.0000

> <Gold.PLP.Chemscore.Metal>
0.0000

> <Gold.Chemscore.Hbonds>
donor molecule, donor type, donor heavy atom, donor atom, acceptor molecule, acceptor atom, score
      L1  H    16    30       P1  7957  0.91
      P1  H  6896  6908       L1     9  0.90
      P1  H  6931  6943       L1     6  0.32
      P1  H  6934  6947       L1     6  0.93
      P1  H  7997  8009       L1    18  1.00

> <Gold.PLP.Chemscore.Internal.Correction>
0.0306

> <Gold.Rescore>
     Score         DG    S(hbond)    S(metal)    S(lipo)     H(rot)  DE(clash)    DE(int)     intcor
      9.30      -9.59       2.54        0.00      30.84       3.12       0.00       0.28       ----

> <Gold.Chemscore.Fitness>
9.3041

> <Gold.Chemscore.DG>
-9.5873

> <Gold.Chemscore.ZeroCoef>
-5.4800

> <Gold.Chemscore.Hbond>
2.5431

> <Gold.Chemscore.Metal>
0.0000

> <Gold.Chemscore.Lipo>
30.8393

> <Gold.Chemscore.Internal_Hbond>
0.0000

> <Gold.Chemscore.DEClash>
0.0000

> <Gold.Chemscore.DEInternal>
0.2832

> <Gold.Chemscore.Rot>
3.1230

> <Gold.Chemscore.Internal.Correction>
   9.000000E+99

> <Gold.Chemscore.Hbonds>
donor molecule, donor type, donor heavy atom, donor atom, acceptor molecule, acceptor atom, score
      L1  H    16    30       P1  7957  0.83
      P1  H  6896  6908       L1     9  0.07
      P1  H  6931  6943       L1     6  0.06
      P1  H  6934  6947       L1     6  0.49
      P1  H  7997  8009       L1    18  0.49

> <Gold.Chemscore.Hbond.Weighted>
-8.4941

> <Gold.Chemscore.Metal.Weighted>
-0.0000

> <Gold.Chemscore.Lipo.Weighted>
-3.6082

> <Gold.Chemscore.Internal_Hbond.Weighted>
0.0000

> <Gold.Chemscore.DEClash.Weighted>
0.0000

> <Gold.Chemscore.DEInternal.Weighted>
0.2832

> <Gold.Chemscore.Rot.Weighted>
7.9950

> <Gold.Chemscore.Internal.Correction.Weighted>
   9.000000E+99

> <Gold.Protein.RotatedTorsions>
[ 6907 6896 6895 6894 ] final  133.99 input  -60.11 | X-H torsion
[ 7974 7965 7964 7962 ] final   98.04 input  175.53 | X-H torsion
[ 8008 7997 7996 7995 ] final  178.88 input   59.86 | X-H torsion
[ 10167 10162 10161 10158 ] final  -57.81 input  -65.29 | X-H torsion
[ 10718 10713 10712 10709 ] final -151.54 input   66.30 | X-H torsion
[ 10763 10752 10751 10750 ] final  178.75 input  -60.55 | X-H torsion
[ 11005 11000 10999 10996 ] final  119.06 input  -57.11 | X-H torsion

> <Gold.Protein.ActiveResidues>
 VAL166  LYS551  ARG553  GLY616  TRP617  ASP618  TYR619  PRO620  LYS621  CYS622 
 ASP623  PHE694  ASN695  SER759  ASP760  ASP761  ALA762  ILE779  LEU786  VAL792 
 PHE793  MET794  SER795  GLU796  ALA797  LYS798  CYS799  TRP800  GLU811  SER814 

> <Gold.Protein.RotatedAtoms>
  152.3161  133.5803  159.5712 H   0  0  0  0  0  0  0  0  0  0  0  0  # atno 6907 bound_to 6896
  150.7347  134.0081  159.3669 H   0  0  0  0  0  0  0  0  0  0  0  0  # atno 6908 bound_to 6896
  151.7970  135.0720  160.0446 H   0  0  0  0  0  0  0  0  0  0  0  0  # atno 6909 bound_to 6896
  145.4175  139.2325  143.3214 H   0  0  0  0  0  0  0  0  0  0  0  0  # atno 7974 bound_to 7965
  156.0496  140.1322  157.0065 H   0  0  0  0  0  0  0  0  0  0  0  0  # atno 8008 bound_to 7997
  154.4429  140.1013  156.6428 H   0  0  0  0  0  0  0  0  0  0  0  0  # atno 8009 bound_to 7997
  155.5543  140.3463  155.4478 H   0  0  0  0  0  0  0  0  0  0  0  0  # atno 8010 bound_to 7997
  140.6236  143.2429  151.5420 H   0  0  0  0  0  0  0  0  0  0  0  0  # atno 10167 bound_to 10162
  156.4606  130.8211  151.2442 H   0  0  0  0  0  0  0  0  0  0  0  0  # atno 10718 bound_to 10713
  154.5117  135.2789  155.1337 H   0  0  0  0  0  0  0  0  0  0  0  0  # atno 10763 bound_to 10752
  154.2929  135.6263  153.5396 H   0  0  0  0  0  0  0  0  0  0  0  0  # atno 10764 bound_to 10752
  152.9920  135.5678  154.5584 H   0  0  0  0  0  0  0  0  0  0  0  0  # atno 10765 bound_to 10752
  139.9132  134.9625  156.7598 H   0  0  0  0  0  0  0  0  0  0  0  0  # atno 11005 bound_to 11000
  146.2673  140.4895  142.8828 LP  0  0  0  0  0  0  0  0  0  0  0  0  # atno 17320 bound_to 7965
  144.8267  140.6640  143.6317 LP  0  0  0  0  0  0  0  0  0  0  0  0  # atno 17321 bound_to 7965
  139.5460  144.2521  152.1442 LP  0  0  0  0  0  0  0  0  0  0  0  0  # atno 17342 bound_to 10162
  140.1747  144.4902  150.6560 LP  0  0  0  0  0  0  0  0  0  0  0  0  # atno 17343 bound_to 10162
  157.7498  131.0108  150.3321 LP  0  0  0  0  0  0  0  0  0  0  0  0  # atno 17370 bound_to 10713
  156.3720  130.3865  149.7168 LP  0  0  0  0  0  0  0  0  0  0  0  0  # atno 17371 bound_to 10713
  140.6707  133.9562  155.7855 LP  0  0  0  0  0  0  0  0  0  0  0  0  # atno 17394 bound_to 11000
  141.0580  134.0388  157.3697 LP  0  0  0  0  0  0  0  0  0  0  0  0  # atno 17395 bound_to 11000

$$$$
