AV-unprocessed.smi:1912|AV-procd|sdf|7749|dock10
  -GOLD-   22720 9493D 1   1.00000     0.00000
 Structure written by MMmdl.
 43 45  0  0  0  0  0  0  0  0  1 V2000
  147.3039  136.2478  161.9330 C   0  0  0  0  0  0  0  0  0  0  0  0
  148.2289  136.8175  161.0187 O   0  0  0  0  0  0  0  0  0  0  0  0
  148.4569  136.1576  159.8302 C   0  0  0  0  0  0  0  0  0  0  0  0
  147.7978  134.9685  159.4400 C   0  0  0  0  0  0  0  0  0  0  0  0
  148.1017  134.3559  158.2104 C   0  0  0  0  0  0  0  0  0  0  0  0
  149.0691  134.9148  157.3394 C   0  0  0  0  0  0  0  0  0  0  0  0
  149.4224  134.3408  156.1352 O   0  0  0  0  0  0  0  0  0  0  0  0
  148.7856  133.1314  155.7524 C   0  0  0  0  0  0  0  0  0  0  0  0
  149.7242  136.1111  157.7226 C   0  0  0  0  0  0  0  0  0  0  0  0
  150.8033  136.7250  156.8309 C   0  0  1  0  0  0  0  0  0  0  0  0
  151.9174  135.8718  156.6594 O   0  0  0  0  0  0  0  0  0  0  0  0
  150.2666  137.0946  155.4316 C   0  0  0  0  0  0  0  0  0  0  0  0
  150.1592  138.5343  155.2358 N   0  0  0  0  0  0  0  0  0  0  0  0
  151.1114  139.4770  155.4417 C   0  0  0  0  0  0  0  0  0  0  0  0
  152.4874  139.1209  155.9072 C   0  0  0  0  0  0  0  0  0  0  0  0
  150.7432  140.7370  155.2097 N   0  0  0  0  0  0  0  0  0  0  0  0
  149.4267  140.5994  154.8139 C   0  0  0  0  0  0  0  0  0  0  0  0
  148.4746  141.5739  154.4380 C   0  0  0  0  0  0  0  0  0  0  0  0
  147.1675  141.1910  154.0722 C   0  0  0  0  0  0  0  0  0  0  0  0
  146.7946  139.8314  154.0758 C   0  0  0  0  0  0  0  0  0  0  0  0
  147.7283  138.8446  154.4447 C   0  0  0  0  0  0  0  0  0  0  0  0
  149.0313  139.2317  154.8118 C   0  0  0  0  0  0  0  0  0  0  0  0
  149.4138  136.7149  158.9616 C   0  0  0  0  0  0  0  0  0  0  0  0
  147.2453  136.8759  162.8218 H   0  0  0  0  0  0  0  0  0  0  0  0
  147.6203  135.2539  162.2522 H   0  0  0  0  0  0  0  0  0  0  0  0
  146.3024  136.1890  161.5047 H   0  0  0  0  0  0  0  0  0  0  0  0
  147.0553  134.5015  160.0690 H   0  0  0  0  0  0  0  0  0  0  0  0
  147.5754  133.4480  157.9587 H   0  0  0  0  0  0  0  0  0  0  0  0
  149.2482  132.7571  154.8393 H   0  0  0  0  0  0  0  0  0  0  0  0
  147.7259  133.2867  155.5468 H   0  0  0  0  0  0  0  0  0  0  0  0
  148.8994  132.3618  156.5172 H   0  0  0  0  0  0  0  0  0  0  0  0
  151.1997  137.6190  157.3115 H   0  0  0  0  0  0  0  0  0  0  0  0
  152.0374  135.3735  157.4534 H   0  0  0  0  0  0  0  0  0  0  0  0
  150.9189  136.6902  154.6568 H   0  0  0  0  0  0  0  0  0  0  0  0
  149.2875  136.6431  155.2665 H   0  0  0  0  0  0  0  0  0  0  0  0
  153.0913  140.0197  156.0361 H   0  0  0  0  0  0  0  0  0  0  0  0
  152.9796  138.4798  155.1757 H   0  0  0  0  0  0  0  0  0  0  0  0
  152.4432  138.5994  156.8631 H   0  0  0  0  0  0  0  0  0  0  0  0
  148.7501  142.6179  154.4327 H   0  0  0  0  0  0  0  0  0  0  0  0
  146.4475  141.9443  153.7880 H   0  0  0  0  0  0  0  0  0  0  0  0
  145.7907  139.5467  153.7968 H   0  0  0  0  0  0  0  0  0  0  0  0
  147.4427  137.8031  154.4544 H   0  0  0  0  0  0  0  0  0  0  0  0
  149.9271  137.6159  159.2642 H   0  0  0  0  0  0  0  0  0  0  0  0
  1  2  1  0  0  0  0
  1 24  1  0  0  0  0
  1 25  1  0  0  0  0
  1 26  1  0  0  0  0
  2  3  1  0  0  0  0
  3 23  1  0  0  0  0
  3  4  2  0  0  0  0
  4  5  1  0  0  0  0
  4 27  1  0  0  0  0
  5  6  2  0  0  0  0
  5 28  1  0  0  0  0
  6  7  1  0  0  0  0
  6  9  1  0  0  0  0
  7  8  1  0  0  0  0
  8 29  1  0  0  0  0
  8 30  1  0  0  0  0
  8 31  1  0  0  0  0
  9 10  1  0  0  0  0
  9 23  2  0  0  0  0
 10 11  1  0  0  0  0
 10 12  1  0  0  0  0
 10 32  1  0  0  0  0
 11 33  1  0  0  0  0
 12 13  1  0  0  0  0
 12 34  1  0  0  0  0
 12 35  1  0  0  0  0
 13 22  1  0  0  0  0
 13 14  1  0  0  0  0
 14 15  1  0  0  0  0
 14 16  2  0  0  0  0
 15 36  1  0  0  0  0
 15 37  1  0  0  0  0
 15 38  1  0  0  0  0
 16 17  1  0  0  0  0
 17 22  2  0  0  0  0
 17 18  1  0  0  0  0
 18 19  2  0  0  0  0
 18 39  1  0  0  0  0
 19 20  1  0  0  0  0
 19 40  1  0  0  0  0
 20 21  2  0  0  0  0
 20 41  1  0  0  0  0
 21 22  1  0  0  0  0
 21 42  1  0  0  0  0
 23 43  1  0  0  0  0
M  END
> <s_m_source_file>
AV-unprocessed.smi

> <i_m_source_file_index>
1912

> <i_lp_mmshare_version>
43012

> <i_f3d_flags>
0

> <s_epik_input>
W0NIM11PYzFbY0hdW2NIXWMoT1tDSDNdKWMoW2NIXTEpW0NASF0oW09IXSlbQ0gyXW4oYyhuMilbQ0gzXSljKGMyMylbY0hdW2NIXVtjSF1bY0hdMw==

> <s_epik_cmdline>
J2VwaWtfcHl0aG9uJywgJy1waCcsICc3LjAnLCAnLXRuJywgJzgnLCAnLW1hJywgJzIwMCcsICctbWV0YWxfYmluZGluZycsICctaW1hZScsICc8aW5maWxlLm1hZT4nLCAnLW9tYWUnLCAnPG91dGZpbGUubWFlPic=

> <r_lp_tautomer_probability>
1

> <r_epik_Ionization_Penalty>
0.129663

> <r_epik_Ionization_Penalty_Charging>
0

> <r_epik_Ionization_Penalty_Neutral>
0.129663

> <r_epik_State_Penalty>
0.119073

> <r_epik_Charging_Adjusted_Penalty>
0.119073

> <i_epik_Tot_Q>
0

> <i_epik_Tot_abs_Q>
0

> <r_epik_Metal_State_Penalty>
0.000131867

> <b_epik_Metal_Only>
0

> <s_lp_Force_Field>
OPLS_2005

> <r_lp_Energy>
18.0714

> <b_lp_Chiralities_Consistent>
1

> <s_lp_Variant>
AV-unprocessed.smi:1912-2

> <Gold.Version>
5.8.1

> <Gold.Id.Protein>
6NUR|6NUR_protein|mol2

> <Gold.PLP.Fitness>
43.5593

> <Gold.PLP.PLP>
-35.8481

> <Gold.PLP.part.hbond>
-3.6278

> <Gold.PLP.part.metal>
0.0000

> <Gold.PLP.part.buried>
-2.9153

> <Gold.PLP.part.nonpolar>
-29.9351

> <Gold.PLP.part.repulsive>
0.1027

> <Gold.PLP.ligand.clash>
0.0000

> <Gold.PLP.ligand.torsion>
0.7884

> <Gold.PLP.Chemscore.Hbond>
3.0738

> <Gold.PLP.Chemscore.CHOScore>
0.0000

> <Gold.PLP.Chemscore.Metal>
0.0000

> <Gold.Chemscore.Hbonds>
donor molecule, donor type, donor heavy atom, donor atom, acceptor molecule, acceptor atom, score
      P1  H  6931  6943       L1     2  1.00
      P1  H  7989  7998       L1    16  0.69
      P1  H 10752 10763       L1    11  0.84

> <Gold.PLP.Chemscore.Internal.Correction>
0.0664

> <Gold.Rescore>
     Score         DG    S(hbond)    S(metal)    S(lipo)     H(rot)  DE(clash)    DE(int)     intcor
     14.72     -16.25       2.10        0.00      79.63       2.17       0.02       1.51       ----

> <Gold.Chemscore.Fitness>
14.7244

> <Gold.Chemscore.DG>
-16.2502

> <Gold.Chemscore.ZeroCoef>
-5.4800

> <Gold.Chemscore.Hbond>
2.0975

> <Gold.Chemscore.Metal>
0.0000

> <Gold.Chemscore.Lipo>
79.6334

> <Gold.Chemscore.Internal_Hbond>
0.0000

> <Gold.Chemscore.DEClash>
0.0153

> <Gold.Chemscore.DEInternal>
1.5105

> <Gold.Chemscore.Rot>
2.1690

> <Gold.Chemscore.Internal.Correction>
   9.000000E+99

> <Gold.Chemscore.Hbonds>
donor molecule, donor type, donor heavy atom, donor atom, acceptor molecule, acceptor atom, score
      P1  H  6931  6943       L1     2  0.59
      P1  H  6934  6947       L1     2  0.01
      P1  H  7989  7998       L1    16  0.03
      P1  H 10752 10763       L1    11  0.61

> <Gold.Chemscore.Hbond.Weighted>
-7.0057

> <Gold.Chemscore.Metal.Weighted>
-0.0000

> <Gold.Chemscore.Lipo.Weighted>
-9.3171

> <Gold.Chemscore.Internal_Hbond.Weighted>
0.0000

> <Gold.Chemscore.DEClash.Weighted>
0.0153

> <Gold.Chemscore.DEInternal.Weighted>
1.5105

> <Gold.Chemscore.Rot.Weighted>
5.5526

> <Gold.Chemscore.Internal.Correction.Weighted>
   9.000000E+99

> <Gold.Protein.RotatedTorsions>
[ 6907 6896 6895 6894 ] final   40.00 input  -60.11 | X-H torsion
[ 7974 7965 7964 7962 ] final -145.79 input  175.53 | X-H torsion
[ 8008 7997 7996 7995 ] final -149.38 input   59.86 | X-H torsion
[ 10167 10162 10161 10158 ] final  172.50 input  -65.29 | X-H torsion
[ 10718 10713 10712 10709 ] final   71.76 input   66.30 | X-H torsion
[ 10763 10752 10751 10750 ] final  111.44 input  -60.55 | X-H torsion
[ 11005 11000 10999 10996 ] final -115.22 input  -57.11 | X-H torsion

> <Gold.Protein.ActiveResidues>
 VAL166  LYS551  ARG553  GLY616  TRP617  ASP618  TYR619  PRO620  LYS621  CYS622 
 ASP623  PHE694  ASN695  SER759  ASP760  ASP761  ALA762  ILE779  LEU786  VAL792 
 PHE793  MET794  SER795  GLU796  ALA797  LYS798  CYS799  TRP800  GLU811  SER814 

> <Gold.Protein.RotatedAtoms>
  152.1768  134.8788  160.0529 H   0  0  0  0  0  0  0  0  0  0  0  0  # atno 6907 bound_to 6896
  151.9727  133.3726  159.4085 H   0  0  0  0  0  0  0  0  0  0  0  0  # atno 6908 bound_to 6896
  150.6911  134.4046  159.5178 H   0  0  0  0  0  0  0  0  0  0  0  0  # atno 6909 bound_to 6896
  144.8203  140.5539  143.5583 H   0  0  0  0  0  0  0  0  0  0  0  0  # atno 7974 bound_to 7965
  155.6068  140.0667  157.2717 H   0  0  0  0  0  0  0  0  0  0  0  0  # atno 8008 bound_to 7997
  154.4264  140.1808  156.1278 H   0  0  0  0  0  0  0  0  0  0  0  0  # atno 8009 bound_to 7997
  156.0116  140.3326  155.6950 H   0  0  0  0  0  0  0  0  0  0  0  0  # atno 8010 bound_to 7997
  139.5078  144.3366  152.0059 H   0  0  0  0  0  0  0  0  0  0  0  0  # atno 10167 bound_to 10162
  157.6468  130.9544  150.0834 H   0  0  0  0  0  0  0  0  0  0  0  0  # atno 10718 bound_to 10713
  153.4634  135.3717  155.2351 H   0  0  0  0  0  0  0  0  0  0  0  0  # atno 10763 bound_to 10752
  154.8757  135.3914  154.3898 H   0  0  0  0  0  0  0  0  0  0  0  0  # atno 10764 bound_to 10752
  153.4475  135.7085  153.6194 H   0  0  0  0  0  0  0  0  0  0  0  0  # atno 10765 bound_to 10752
  141.0502  133.9700  157.2850 H   0  0  0  0  0  0  0  0  0  0  0  0  # atno 11005 bound_to 11000
  145.5119  139.1479  143.3600 LP  0  0  0  0  0  0  0  0  0  0  0  0  # atno 17320 bound_to 7965
  146.2508  140.5260  142.8894 LP  0  0  0  0  0  0  0  0  0  0  0  0  # atno 17321 bound_to 7965
  140.2805  144.3865  150.6120 LP  0  0  0  0  0  0  0  0  0  0  0  0  # atno 17342 bound_to 10162
  140.6022  143.2167  151.7051 LP  0  0  0  0  0  0  0  0  0  0  0  0  # atno 17343 bound_to 10162
  156.1804  130.3650  149.9043 LP  0  0  0  0  0  0  0  0  0  0  0  0  # atno 17370 bound_to 10713
  156.6997  130.8928  151.3598 LP  0  0  0  0  0  0  0  0  0  0  0  0  # atno 17371 bound_to 10713
  139.9344  135.0197  156.8507 LP  0  0  0  0  0  0  0  0  0  0  0  0  # atno 17394 bound_to 11000
  140.6070  134.0118  155.7561 LP  0  0  0  0  0  0  0  0  0  0  0  0  # atno 17395 bound_to 11000

$$$$
