AV-unprocessed.smi:3303|AV-procd|sdf|12691|dock2
  -GOLD-   2272019 23D 1   1.00000     0.00000
 Structure written by MMmdl.
 44 45  0  0  0  0  0  0  0  0  2 V2000
  150.8111  138.9484  154.4151 C   0  0  0  0  0  0  0  0  0  0  0  0
  149.5643  139.2850  155.2599 C   0  0  2  0  0  0  0  0  0  0  0  0
  148.2701  138.8692  154.5307 C   0  0  0  0  0  0  0  0  0  0  0  0
  147.9757  139.7661  153.3829 N   0  3  1  0  0  0  0  0  0  0  0  0
  146.8714  139.2670  152.5328 C   0  0  0  0  0  0  0  0  0  0  0  0
  147.8527  141.2028  153.7636 C   0  0  1  0  0  0  0  0  0  0  0  0
  146.5714  141.5241  154.5634 C   0  0  0  0  0  0  0  0  0  0  0  0
  149.1294  141.6700  154.4914 C   0  0  0  0  0  0  0  0  0  0  0  0
  149.4705  140.7715  155.6953 C   0  0  2  0  0  0  0  0  0  0  0  0
  150.6955  141.2660  156.3152 N   0  0  0  0  0  0  0  0  0  0  0  0
  150.8081  140.8624  157.7096 C   0  0  0  0  0  0  0  0  0  0  0  0
  152.1704  141.3006  158.2634 C   0  0  0  0  0  0  0  0  0  0  0  0
  152.1039  142.6655  158.9215 C   0  0  0  0  0  0  0  0  0  0  0  0
  152.1482  143.8427  158.1439 C   0  0  0  0  0  0  0  0  0  0  0  0
  152.0936  145.0853  158.8041 C   0  0  0  0  0  0  0  0  0  0  0  0
  151.9989  145.1033  160.2089 C   0  0  0  0  0  0  0  0  0  0  0  0
  151.9626  143.8724  160.8941 C   0  0  0  0  0  0  0  0  0  0  0  0
  152.0148  142.6751  160.2709 N   0  0  0  0  0  0  0  0  0  0  0  0
  150.8379  139.5101  153.4819 H   0  0  0  0  0  0  0  0  0  0  0  0
  150.8321  137.8889  154.1593 H   0  0  0  0  0  0  0  0  0  0  0  0
  151.7326  139.1624  154.9572 H   0  0  0  0  0  0  0  0  0  0  0  0
  149.6215  138.6694  156.1576 H   0  0  0  0  0  0  0  0  0  0  0  0
  148.3647  137.8421  154.1753 H   0  0  0  0  0  0  0  0  0  0  0  0
  147.4298  138.8716  155.2252 H   0  0  0  0  0  0  0  0  0  0  0  0
  145.9450  139.1653  153.0986 H   0  0  0  0  0  0  0  0  0  0  0  0
  147.1227  138.2880  152.1238 H   0  0  0  0  0  0  0  0  0  0  0  0
  146.6929  139.9397  151.6934 H   0  0  0  0  0  0  0  0  0  0  0  0
  147.7943  141.7716  152.8345 H   0  0  0  0  0  0  0  0  0  0  0  0
  146.5350  142.5833  154.8195 H   0  0  0  0  0  0  0  0  0  0  0  0
  146.5112  140.9651  155.4966 H   0  0  0  0  0  0  0  0  0  0  0  0
  145.6708  141.3097  153.9882 H   0  0  0  0  0  0  0  0  0  0  0  0
  149.9612  141.6746  153.7859 H   0  0  0  0  0  0  0  0  0  0  0  0
  149.0112  142.7048  154.8161 H   0  0  0  0  0  0  0  0  0  0  0  0
  148.6651  140.8738  156.4241 H   0  0  0  0  0  0  0  0  0  0  0  0
  150.7084  142.2752  156.2692 H   0  0  0  0  0  0  0  0  0  0  0  0
  150.0053  141.3176  158.2913 H   0  0  0  0  0  0  0  0  0  0  0  0
  150.7098  139.7809  157.8011 H   0  0  0  0  0  0  0  0  0  0  0  0
  152.5313  140.5712  158.9903 H   0  0  0  0  0  0  0  0  0  0  0  0
  152.9119  141.3298  157.4633 H   0  0  0  0  0  0  0  0  0  0  0  0
  152.2245  143.7968  157.0674 H   0  0  0  0  0  0  0  0  0  0  0  0
  152.1251  146.0075  158.2429 H   0  0  0  0  0  0  0  0  0  0  0  0
  151.9555  146.0376  160.7487 H   0  0  0  0  0  0  0  0  0  0  0  0
  151.8911  143.8485  161.9714 H   0  0  0  0  0  0  0  0  0  0  0  0
  148.7980  139.7224  152.7977 H   0  0  0  0  0  0  0  0  0  0  0  0
  1  2  1  0  0  0  0
  1 19  1  0  0  0  0
  1 20  1  0  0  0  0
  1 21  1  0  0  0  0
  2  9  1  0  0  0  0
  2  3  1  0  0  0  0
  2 22  1  0  0  0  0
  3  4  1  0  0  0  0
  3 23  1  0  0  0  0
  3 24  1  0  0  0  0
  4  5  1  0  0  0  0
  4  6  1  0  0  0  0
  4 44  1  0  0  0  0
  5 25  1  0  0  0  0
  5 26  1  0  0  0  0
  5 27  1  0  0  0  0
  6  7  1  0  0  0  0
  6  8  1  0  0  0  0
  6 28  1  0  0  0  0
  7 29  1  0  0  0  0
  7 30  1  0  0  0  0
  7 31  1  0  0  0  0
  8  9  1  0  0  0  0
  8 32  1  0  0  0  0
  8 33  1  0  0  0  0
  9 10  1  0  0  0  0
  9 34  1  0  0  0  0
 10 11  1  0  0  0  0
 10 35  1  0  0  0  0
 11 12  1  0  0  0  0
 11 36  1  0  0  0  0
 11 37  1  0  0  0  0
 12 13  1  0  0  0  0
 12 38  1  0  0  0  0
 12 39  1  0  0  0  0
 13 18  1  0  0  0  0
 13 14  2  0  0  0  0
 14 15  1  0  0  0  0
 14 40  1  0  0  0  0
 15 16  2  0  0  0  0
 15 41  1  0  0  0  0
 16 17  1  0  0  0  0
 16 42  1  0  0  0  0
 17 18  2  0  0  0  0
 17 43  1  0  0  0  0
M  CHG  1   4   1
M  END
> <s_m_source_file>
AV-unprocessed.smi

> <i_m_source_file_index>
3303

> <i_lp_mmshare_version>
43012

> <i_f3d_flags>
0

> <s_epik_input>
W0NIM11bQ0BASF0xW0NIMl1OKFtDSDNdKVtDQEBIXShbQ0gzXSlbQ0gyXVtDQEhdMVtOSF1bQ0gyXVtDSDJdYzJbY0hdW2NIXVtjSF1bY0hdbjI=

> <s_epik_cmdline>
J2VwaWtfcHl0aG9uJywgJy1waCcsICc3LjAnLCAnLXRuJywgJzgnLCAnLW1hJywgJzIwMCcsICctbWV0YWxfYmluZGluZycsICctaW1hZScsICc8aW5maWxlLm1hZT4nLCAnLW9tYWUnLCAnPG91dGZpbGUubWFlPic=

> <r_epik_Ionization_Penalty>
2.31085

> <r_epik_Ionization_Penalty_Charging>
0.000313057

> <r_epik_Ionization_Penalty_Neutral>
2.31054

> <r_epik_State_Penalty>
2.4087

> <r_epik_Charging_Adjusted_Penalty>
2.40902

> <i_epik_Tot_Q>
1

> <i_epik_Tot_abs_Q>
1

> <r_epik_Metal_State_Penalty>
2.30979

> <b_epik_Metal_Only>
0

> <s_lp_Force_Field>
OPLS_2005

> <r_lp_Energy>
26.3276

> <b_lp_Chiralities_Consistent>
1

> <s_lp_Variant>
AV-unprocessed.smi:3303-35

> <Gold.Version>
5.8.1

> <Gold.Id.Protein>
6NUR|6NUR_protein|mol2

> <Gold.PLP.Fitness>
44.8564

> <Gold.PLP.PLP>
-43.3127

> <Gold.PLP.part.hbond>
-1.0281

> <Gold.PLP.part.metal>
0.0000

> <Gold.PLP.part.buried>
-3.7391

> <Gold.PLP.part.nonpolar>
-38.0343

> <Gold.PLP.part.repulsive>
0.0998

> <Gold.PLP.ligand.clash>
0.0000

> <Gold.PLP.ligand.torsion>
0.7278

> <Gold.PLP.Chemscore.Hbond>
0.9920

> <Gold.PLP.Chemscore.CHOScore>
0.0000

> <Gold.PLP.Chemscore.Metal>
0.0000

> <Gold.Chemscore.Hbonds>
donor molecule, donor type, donor heavy atom, donor atom, acceptor molecule, acceptor atom, score
      L1  H     4    44       P1  7957  0.98

> <Gold.PLP.Chemscore.Internal.Correction>
0.0233

> <Gold.Rescore>
     Score         DG    S(hbond)    S(metal)    S(lipo)     H(rot)  DE(clash)    DE(int)     intcor
     19.49     -20.03       0.97        0.00     125.61       1.33       0.00       0.54       ----

> <Gold.Chemscore.Fitness>
19.4860

> <Gold.Chemscore.DG>
-20.0332

> <Gold.Chemscore.ZeroCoef>
-5.4800

> <Gold.Chemscore.Hbond>
0.9743

> <Gold.Chemscore.Metal>
0.0000

> <Gold.Chemscore.Lipo>
125.6119

> <Gold.Chemscore.Internal_Hbond>
0.0000

> <Gold.Chemscore.DEClash>
0.0033

> <Gold.Chemscore.DEInternal>
0.5439

> <Gold.Chemscore.Rot>
1.3272

> <Gold.Chemscore.Internal.Correction>
   9.000000E+99

> <Gold.Chemscore.Hbonds>
donor molecule, donor type, donor heavy atom, donor atom, acceptor molecule, acceptor atom, score
      L1  H     4    44       P1  7957  0.93

> <Gold.Chemscore.Hbond.Weighted>
-3.2543

> <Gold.Chemscore.Metal.Weighted>
-0.0000

> <Gold.Chemscore.Lipo.Weighted>
-14.6966

> <Gold.Chemscore.Internal_Hbond.Weighted>
0.0000

> <Gold.Chemscore.DEClash.Weighted>
0.0033

> <Gold.Chemscore.DEInternal.Weighted>
0.5439

> <Gold.Chemscore.Rot.Weighted>
3.3976

> <Gold.Chemscore.Internal.Correction.Weighted>
   9.000000E+99

> <Gold.Protein.RotatedTorsions>
[ 6907 6896 6895 6894 ] final -159.14 input  -60.11 | X-H torsion
[ 7974 7965 7964 7962 ] final    1.58 input  175.53 | X-H torsion
[ 8008 7997 7996 7995 ] final   88.86 input   59.86 | X-H torsion
[ 10167 10162 10161 10158 ] final  -94.70 input  -65.29 | X-H torsion
[ 10718 10713 10712 10709 ] final -102.48 input   66.30 | X-H torsion
[ 10763 10752 10751 10750 ] final  111.37 input  -60.55 | X-H torsion
[ 11005 11000 10999 10996 ] final  171.55 input  -57.11 | X-H torsion

> <Gold.Protein.ActiveResidues>
 VAL166  LYS551  ARG553  GLY616  TRP617  ASP618  TYR619  PRO620  LYS621  CYS622 
 ASP623  PHE694  ASN695  SER759  ASP760  ASP761  ALA762  ILE779  LEU786  VAL792 
 PHE793  MET794  SER795  GLU796  ALA797  LYS798  CYS799  TRP800  GLU811  SER814 

> <Gold.Protein.RotatedAtoms>
  151.3290  133.4008  159.2660 H   0  0  0  0  0  0  0  0  0  0  0  0  # atno 6907 bound_to 6896
  150.9971  134.9293  159.7943 H   0  0  0  0  0  0  0  0  0  0  0  0  # atno 6908 bound_to 6896
  152.5264  134.3255  159.9216 H   0  0  0  0  0  0  0  0  0  0  0  0  # atno 6909 bound_to 6896
  146.2441  140.0965  142.8349 H   0  0  0  0  0  0  0  0  0  0  0  0  # atno 7974 bound_to 7965
  155.9929  140.3367  155.6770 H   0  0  0  0  0  0  0  0  0  0  0  0  # atno 8008 bound_to 7997
  155.6396  140.0694  157.2641 H   0  0  0  0  0  0  0  0  0  0  0  0  # atno 8009 bound_to 7997
  154.4225  140.1745  156.1546 H   0  0  0  0  0  0  0  0  0  0  0  0  # atno 8010 bound_to 7997
  140.3117  143.3101  152.0141 H   0  0  0  0  0  0  0  0  0  0  0  0  # atno 10167 bound_to 10162
  156.0230  130.5422  150.7115 H   0  0  0  0  0  0  0  0  0  0  0  0  # atno 10718 bound_to 10713
  153.4624  135.3719  155.2345 H   0  0  0  0  0  0  0  0  0  0  0  0  # atno 10763 bound_to 10752
  154.8757  135.3912  154.3909 H   0  0  0  0  0  0  0  0  0  0  0  0  # atno 10764 bound_to 10752
  153.4485  135.7085  153.6188 H   0  0  0  0  0  0  0  0  0  0  0  0  # atno 10765 bound_to 10752
  140.3202  134.7444  157.4058 H   0  0  0  0  0  0  0  0  0  0  0  0  # atno 11005 bound_to 11000
  145.0605  140.9084  143.4941 LP  0  0  0  0  0  0  0  0  0  0  0  0  # atno 17320 bound_to 7965
  145.1080  139.2777  143.5652 LP  0  0  0  0  0  0  0  0  0  0  0  0  # atno 17321 bound_to 7965
  139.4892  144.6379  151.6937 LP  0  0  0  0  0  0  0  0  0  0  0  0  # atno 17342 bound_to 10162
  140.5562  144.0344  150.6149 LP  0  0  0  0  0  0  0  0  0  0  0  0  # atno 17343 bound_to 10162
  157.4752  131.0897  151.0598 LP  0  0  0  0  0  0  0  0  0  0  0  0  # atno 17370 bound_to 10713
  157.1047  130.5996  149.5468 LP  0  0  0  0  0  0  0  0  0  0  0  0  # atno 17371 bound_to 10713
  140.0949  134.5551  155.8408 LP  0  0  0  0  0  0  0  0  0  0  0  0  # atno 17394 bound_to 11000
  141.2088  133.6677  156.6398 LP  0  0  0  0  0  0  0  0  0  0  0  0  # atno 17395 bound_to 11000

$$$$
