AV-unprocessed.smi:845|AV-procd|sdf|3931|dock10
  -GOLD-   22720 1393D 1   1.00000     0.00000
 Structure written by MMmdl.
 42 43  0  0  0  0  0  0  0  0  3 V2000
  146.9836  138.8708  154.8943 C   0  0  0  0  0  0  0  0  0  0  0  0
  146.8828  137.4521  154.3071 C   0  0  0  0  0  0  0  0  0  0  0  0
  145.4198  137.0999  153.9857 C   0  0  0  0  0  0  0  0  0  0  0  0
  147.6240  136.4065  155.1904 C   0  0  2  0  0  0  0  0  0  0  0  0
  148.7659  136.9788  156.0726 C   0  0  0  0  0  0  0  0  0  0  0  0
  148.9380  136.2227  157.3105 N   0  0  0  0  0  0  0  0  0  0  0  0
  148.8130  136.6932  158.5599 C   0  0  0  0  0  0  0  0  0  0  0  0
  148.5489  137.8825  158.7505 O   0  0  0  0  0  0  0  0  0  0  0  0
  148.9938  135.7506  159.5115 N   0  5  0  0  0  0  0  0  0  0  0  0
  148.2635  135.7861  160.6379 C   0  0  0  0  0  0  0  0  0  0  0  0
  148.1621  136.8763  161.4073 N   0  0  0  0  0  0  0  0  0  0  0  0
  147.3485  136.6917  162.5266 C   0  0  0  0  0  0  0  0  0  0  0  0
  146.8113  135.4342  162.6067 C   0  0  0  0  0  0  0  0  0  0  0  0
  147.3139  134.4385  161.2706 S   0  0  0  0  0  0  0  0  0  0  0  0
  148.0316  135.2139  154.3832 N   0  3  0  0  0  0  0  0  0  0  0  0
  148.9589  134.2517  155.0353 C   0  0  0  0  0  0  0  0  0  0  0  0
  149.4132  133.1906  154.0210 C   0  0  0  0  0  0  0  0  0  0  0  0
  148.2728  132.5164  153.5027 O   0  0  0  0  0  0  0  0  0  0  0  0
  147.3953  133.4008  152.8161 C   0  0  0  0  0  0  0  0  0  0  0  0
  146.8878  134.4896  153.7776 C   0  0  0  0  0  0  0  0  0  0  0  0
  146.4574  138.9522  155.8456 H   0  0  0  0  0  0  0  0  0  0  0  0
  146.5504  139.6054  154.2149 H   0  0  0  0  0  0  0  0  0  0  0  0
  148.0227  139.1563  155.0618 H   0  0  0  0  0  0  0  0  0  0  0  0
  147.4042  137.4993  153.3512 H   0  0  0  0  0  0  0  0  0  0  0  0
  144.7853  137.1703  154.8689 H   0  0  0  0  0  0  0  0  0  0  0  0
  145.3244  136.0940  153.5793 H   0  0  0  0  0  0  0  0  0  0  0  0
  145.0135  137.7863  153.2424 H   0  0  0  0  0  0  0  0  0  0  0  0
  146.8680  136.0647  155.8995 H   0  0  0  0  0  0  0  0  0  0  0  0
  149.7105  136.9172  155.5315 H   0  0  0  0  0  0  0  0  0  0  0  0
  148.6122  138.0361  156.2902 H   0  0  0  0  0  0  0  0  0  0  0  0
  149.1593  135.2422  157.2147 H   0  0  0  0  0  0  0  0  0  0  0  0
  147.2061  137.5116  163.2149 H   0  0  0  0  0  0  0  0  0  0  0  0
  146.1540  135.0351  163.3642 H   0  0  0  0  0  0  0  0  0  0  0  0
  149.8293  134.7638  155.4419 H   0  0  0  0  0  0  0  0  0  0  0  0
  148.4625  133.7535  155.8691 H   0  0  0  0  0  0  0  0  0  0  0  0
  149.9868  133.6437  153.2108 H   0  0  0  0  0  0  0  0  0  0  0  0
  150.0641  132.4624  154.5051 H   0  0  0  0  0  0  0  0  0  0  0  0
  147.9077  133.8461  151.9620 H   0  0  0  0  0  0  0  0  0  0  0  0
  146.5561  132.8288  152.4201 H   0  0  0  0  0  0  0  0  0  0  0  0
  146.2760  134.0461  154.5647 H   0  0  0  0  0  0  0  0  0  0  0  0
  146.2521  135.1841  153.2268 H   0  0  0  0  0  0  0  0  0  0  0  0
  148.5396  135.5993  153.6000 H   0  0  0  0  0  0  0  0  0  0  0  0
  1  2  1  0  0  0  0
  1 21  1  0  0  0  0
  1 22  1  0  0  0  0
  1 23  1  0  0  0  0
  2  3  1  0  0  0  0
  2  4  1  0  0  0  0
  2 24  1  0  0  0  0
  3 25  1  0  0  0  0
  3 26  1  0  0  0  0
  3 27  1  0  0  0  0
  4  5  1  0  0  0  0
  4 15  1  0  0  0  0
  4 28  1  0  0  0  0
  5  6  1  0  0  0  0
  5 29  1  0  0  0  0
  5 30  1  0  0  0  0
  6  7  1  0  0  0  0
  6 31  1  0  0  0  0
  7  8  2  0  0  0  0
  7  9  1  0  0  0  0
  9 10  1  0  0  0  0
 10 14  1  0  0  0  0
 10 11  2  0  0  0  0
 11 12  1  0  0  0  0
 12 13  2  0  0  0  0
 12 32  1  0  0  0  0
 13 14  1  0  0  0  0
 13 33  1  0  0  0  0
 15 20  1  0  0  0  0
 15 16  1  0  0  0  0
 15 42  1  0  0  0  0
 16 17  1  0  0  0  0
 16 34  1  0  0  0  0
 16 35  1  0  0  0  0
 17 18  1  0  0  0  0
 17 36  1  0  0  0  0
 17 37  1  0  0  0  0
 18 19  1  0  0  0  0
 19 20  1  0  0  0  0
 19 38  1  0  0  0  0
 19 39  1  0  0  0  0
 20 40  1  0  0  0  0
 20 41  1  0  0  0  0
M  CHG  1   9  -1
M  CHG  1  15   1
M  END
> <s_m_source_file>
AV-unprocessed.smi

> <i_m_source_file_index>
845

> <i_lp_mmshare_version>
43012

> <i_f3d_flags>
0

> <s_epik_input>
W0NIMl0xW0NIMl1PW0NIMl1bQ0gyXU4xW0NASF0oW0NIXShbQ0gzXSlbQ0gzXSlbQ0gyXVtOSF1DKD1PKVtOSF1jMm5bY0hdW2NIXXMy

> <s_epik_cmdline>
J2VwaWtfcHl0aG9uJywgJy1waCcsICc3LjAnLCAnLXRuJywgJzgnLCAnLW1hJywgJzIwMCcsICctbWV0YWxfYmluZGluZycsICctaW1hZScsICc8aW5maWxlLm1hZT4nLCAnLW9tYWUnLCAnPG91dGZpbGUubWFlPic=

> <r_lp_tautomer_probability>
0.999

> <r_epik_Ionization_Penalty>
7.97104

> <r_epik_Ionization_Penalty_Charging>
6.58021

> <r_epik_Ionization_Penalty_Neutral>
1.39083

> <r_epik_State_Penalty>
6.69807

> <r_epik_Charging_Adjusted_Penalty>
13.2783

> <i_epik_Tot_Q>
0

> <i_epik_Tot_abs_Q>
2

> <r_epik_Metal_State_Penalty>
2.62985

> <b_epik_Metal_Only>
1

> <s_lp_Force_Field>
OPLS_2005

> <r_lp_Energy>
16.3382

> <b_lp_Chiralities_Consistent>
1

> <s_lp_Variant>
AV-unprocessed.smi:845-5

> <Gold.Version>
5.8.1

> <Gold.Id.Protein>
6NUR|6NUR_protein|mol2

> <Gold.PLP.Fitness>
40.7468

> <Gold.PLP.PLP>
-28.4434

> <Gold.PLP.part.hbond>
-4.0608

> <Gold.PLP.part.metal>
0.0000

> <Gold.PLP.part.buried>
-5.4429

> <Gold.PLP.part.nonpolar>
-19.1548

> <Gold.PLP.part.repulsive>
0.1666

> <Gold.PLP.ligand.clash>
0.0000

> <Gold.PLP.ligand.torsion>
1.8192

> <Gold.PLP.Chemscore.Hbond>
5.1556

> <Gold.PLP.Chemscore.CHOScore>
0.0000

> <Gold.PLP.Chemscore.Metal>
0.0000

> <Gold.Chemscore.Hbonds>
donor molecule, donor type, donor heavy atom, donor atom, acceptor molecule, acceptor atom, score
      L1  H    15    42       P1  7948  2.00
      P1  H  6896  6908       L1     9  2.00
      P1  H  6931  6943       L1    11  1.00
      P1  H  6934  6947       L1    11  0.03

> <Gold.PLP.Chemscore.Internal.Correction>
0.4751

> <Gold.Rescore>
     Score         DG    S(hbond)    S(metal)    S(lipo)     H(rot)  DE(clash)    DE(int)     intcor
     11.38     -16.47       2.83        0.00      51.81       1.76       0.01       5.08       ----

> <Gold.Chemscore.Fitness>
11.3799

> <Gold.Chemscore.DG>
-16.4671

> <Gold.Chemscore.ZeroCoef>
-5.4800

> <Gold.Chemscore.Hbond>
2.8255

> <Gold.Chemscore.Metal>
0.0000

> <Gold.Chemscore.Lipo>
51.8084

> <Gold.Chemscore.Internal_Hbond>
0.0000

> <Gold.Chemscore.DEClash>
0.0110

> <Gold.Chemscore.DEInternal>
5.0763

> <Gold.Chemscore.Rot>
1.7623

> <Gold.Chemscore.Internal.Correction>
   9.000000E+99

> <Gold.Chemscore.Hbonds>
donor molecule, donor type, donor heavy atom, donor atom, acceptor molecule, acceptor atom, score
      L1  H    15    42       P1  7948  0.99
      P1  H  6896  6908       L1     9  0.84
      P1  H  6931  6943       L1    11  0.26

> <Gold.Chemscore.Hbond.Weighted>
-9.4371

> <Gold.Chemscore.Metal.Weighted>
-0.0000

> <Gold.Chemscore.Lipo.Weighted>
-6.0616

> <Gold.Chemscore.Internal_Hbond.Weighted>
0.0000

> <Gold.Chemscore.DEClash.Weighted>
0.0110

> <Gold.Chemscore.DEInternal.Weighted>
5.0763

> <Gold.Chemscore.Rot.Weighted>
4.5116

> <Gold.Chemscore.Internal.Correction.Weighted>
   9.000000E+99

> <Gold.Protein.RotatedTorsions>
[ 6907 6896 6895 6894 ] final -178.04 input  -60.11 | X-H torsion
[ 7974 7965 7964 7962 ] final -163.70 input  175.53 | X-H torsion
[ 8008 7997 7996 7995 ] final  120.37 input   59.86 | X-H torsion
[ 10167 10162 10161 10158 ] final  158.18 input  -65.29 | X-H torsion
[ 10718 10713 10712 10709 ] final  -58.95 input   66.30 | X-H torsion
[ 10763 10752 10751 10750 ] final  171.51 input  -60.55 | X-H torsion
[ 11005 11000 10999 10996 ] final   64.69 input  -57.11 | X-H torsion

> <Gold.Protein.ActiveResidues>
 VAL166  LYS551  ARG553  GLY616  TRP617  ASP618  TYR619  PRO620  LYS621  CYS622 
 ASP623  PHE694  ASN695  SER759  ASP760  ASP761  ALA762  ILE779  LEU786  VAL792 
 PHE793  MET794  SER795  GLU796  ALA797  LYS798  CYS799  TRP800  GLU811  SER814 

> <Gold.Protein.RotatedAtoms>
  151.6308  133.3332  159.3108 H   0  0  0  0  0  0  0  0  0  0  0  0  # atno 6907 bound_to 6896
  150.8057  134.7184  159.6653 H   0  0  0  0  0  0  0  0  0  0  0  0  # atno 6908 bound_to 6896
  152.4152  134.6058  160.0064 H   0  0  0  0  0  0  0  0  0  0  0  0  # atno 6909 bound_to 6896
  144.7318  140.3068  143.6195 H   0  0  0  0  0  0  0  0  0  0  0  0  # atno 7974 bound_to 7965
  156.2639  140.2832  156.1139 H   0  0  0  0  0  0  0  0  0  0  0  0  # atno 8008 bound_to 7997
  155.1228  140.0392  157.2772 H   0  0  0  0  0  0  0  0  0  0  0  0  # atno 8009 bound_to 7997
  154.6658  140.2577  155.7066 H   0  0  0  0  0  0  0  0  0  0  0  0  # atno 8010 bound_to 7997
  139.4826  144.4848  151.8393 H   0  0  0  0  0  0  0  0  0  0  0  0  # atno 10167 bound_to 10162
  156.1098  130.4176  150.0647 H   0  0  0  0  0  0  0  0  0  0  0  0  # atno 10718 bound_to 10713
  154.4130  135.2756  155.2025 H   0  0  0  0  0  0  0  0  0  0  0  0  # atno 10763 bound_to 10752
  154.4003  135.6046  153.5897 H   0  0  0  0  0  0  0  0  0  0  0  0  # atno 10764 bound_to 10752
  152.9831  135.5924  154.4414 H   0  0  0  0  0  0  0  0  0  0  0  0  # atno 10765 bound_to 10752
  139.9942  134.6543  156.0038 H   0  0  0  0  0  0  0  0  0  0  0  0  # atno 11005 bound_to 11000
  145.7705  139.1855  143.2215 LP  0  0  0  0  0  0  0  0  0  0  0  0  # atno 17320 bound_to 7965
  146.0915  140.7650  142.9593 LP  0  0  0  0  0  0  0  0  0  0  0  0  # atno 17321 bound_to 7965
  140.4327  144.2094  150.5888 LP  0  0  0  0  0  0  0  0  0  0  0  0  # atno 17342 bound_to 10162
  140.4763  143.2395  151.9019 LP  0  0  0  0  0  0  0  0  0  0  0  0  # atno 17343 bound_to 10162
  156.8613  130.9493  151.3617 LP  0  0  0  0  0  0  0  0  0  0  0  0  # atno 17370 bound_to 10713
  157.6278  130.8705  149.9219 LP  0  0  0  0  0  0  0  0  0  0  0  0  # atno 17371 bound_to 10713
  141.1591  133.6540  156.4259 LP  0  0  0  0  0  0  0  0  0  0  0  0  # atno 17394 bound_to 11000
  140.4849  134.6630  157.5187 LP  0  0  0  0  0  0  0  0  0  0  0  0  # atno 17395 bound_to 11000

$$$$
