AV-unprocessed.smi:227|AV-procd|sdf|1732|dock1
  -GOLD-   2262020223D 1   1.00000     0.00000
 Structure written by MMmdl.
 54 58  0  0  0  0  0  0  0  0  1 V2000
  147.9943  137.2846  162.8512 O   0  0  0  0  0  0  0  0  0  0  0  0
  146.9710  136.3286  163.0379 C   0  0  0  0  0  0  0  0  0  0  0  0
  146.3061  135.9408  161.6944 C   0  0  1  0  0  0  0  0  0  0  0  0
  147.3366  135.4972  160.6266 C   0  0  0  0  0  0  0  0  0  0  0  0
  147.5501  136.4955  159.5933 N   0  0  0  0  0  0  0  0  0  0  0  0
  146.5774  137.2104  158.9343 C   0  0  0  0  0  0  0  0  0  0  0  0
  147.0177  138.0605  158.0482 N   0  0  0  0  0  0  0  0  0  0  0  0
  148.3999  137.9144  158.0894 C   0  0  0  0  0  0  0  0  0  0  0  0
  149.4871  138.5202  157.3964 C   0  0  0  0  0  0  0  0  0  0  0  0
  149.3264  139.4709  156.4400 N   0  0  0  0  0  0  0  0  0  0  0  0
  150.2243  140.6050  156.3071 C   0  0  2  0  0  0  0  0  0  0  0  0
  149.4487  141.5017  155.3236 C   0  0  0  0  0  0  0  0  0  0  0  0
  148.7457  140.4521  154.4401 C   0  0  0  0  0  0  0  0  0  0  0  0
  149.3090  139.1423  155.0221 C   0  0  1  0  0  0  0  0  0  0  0  0
  150.8000  139.0424  154.6021 C   0  0  2  0  0  0  0  0  0  0  0  0
  151.4141  137.6279  154.5107 C   0  0  0  0  0  0  0  0  0  0  0  0
  150.5405  136.6547  153.9818 O   0  0  0  0  0  0  0  0  0  0  0  0
  151.4619  140.0128  155.6000 C   0  0  0  0  0  0  0  0  0  0  0  0
  150.7429  138.1334  157.7448 N   0  0  0  0  0  0  0  0  0  0  0  0
  150.9273  137.1949  158.6773 C   0  0  0  0  0  0  0  0  0  0  0  0
  150.0121  136.5325  159.3861 N   0  0  0  0  0  0  0  0  0  0  0  0
  148.7503  136.9331  159.0604 C   0  0  0  0  0  0  0  0  0  0  0  0
  145.1820  134.8897  161.8775 C   0  0  2  0  0  0  0  0  0  0  0  0
  145.6667  133.4714  162.1231 C   0  0  0  0  0  0  0  0  0  0  0  0
  144.4257  132.6488  161.7970 C   0  0  0  0  0  0  0  0  0  0  0  0
  143.7574  133.3593  160.7613 O   0  0  0  0  0  0  0  0  0  0  0  0
  144.3006  134.6708  160.6429 C   0  0  0  0  0  0  0  0  0  0  0  0
  148.3655  137.4971  163.6939 H   0  0  0  0  0  0  0  0  0  0  0  0
  147.3977  135.4535  163.5274 H   0  0  0  0  0  0  0  0  0  0  0  0
  146.2381  136.7319  163.7366 H   0  0  0  0  0  0  0  0  0  0  0  0
  145.8344  136.8488  161.3158 H   0  0  0  0  0  0  0  0  0  0  0  0
  148.2941  135.2662  161.0948 H   0  0  0  0  0  0  0  0  0  0  0  0
  147.0087  134.5823  160.1332 H   0  0  0  0  0  0  0  0  0  0  0  0
  145.5240  137.0844  159.1383 H   0  0  0  0  0  0  0  0  0  0  0  0
  150.4608  141.1143  157.2422 H   0  0  0  0  0  0  0  0  0  0  0  0
  148.7139  142.1148  155.8468 H   0  0  0  0  0  0  0  0  0  0  0  0
  150.1039  142.1639  154.7566 H   0  0  0  0  0  0  0  0  0  0  0  0
  147.6647  140.5001  154.5787 H   0  0  0  0  0  0  0  0  0  0  0  0
  148.9514  140.5791  153.3766 H   0  0  0  0  0  0  0  0  0  0  0  0
  148.7161  138.2742  154.7388 H   0  0  0  0  0  0  0  0  0  0  0  0
  150.9023  139.4587  153.5988 H   0  0  0  0  0  0  0  0  0  0  0  0
  152.3155  137.6535  153.8977 H   0  0  0  0  0  0  0  0  0  0  0  0
  151.7198  137.2977  155.5037 H   0  0  0  0  0  0  0  0  0  0  0  0
  150.8179  136.4456  153.1029 H   0  0  0  0  0  0  0  0  0  0  0  0
  152.0713  140.7725  155.1095 H   0  0  0  0  0  0  0  0  0  0  0  0
  152.0983  139.4877  156.3127 H   0  0  0  0  0  0  0  0  0  0  0  0
  151.9555  136.9384  158.8849 H   0  0  0  0  0  0  0  0  0  0  0  0
  144.5424  135.1803  162.7128 H   0  0  0  0  0  0  0  0  0  0  0  0
  146.4748  133.2179  161.4354 H   0  0  0  0  0  0  0  0  0  0  0  0
  146.0184  133.3044  163.1415 H   0  0  0  0  0  0  0  0  0  0  0  0
  144.6665  131.6298  161.4937 H   0  0  0  0  0  0  0  0  0  0  0  0
  143.7659  132.5975  162.6640 H   0  0  0  0  0  0  0  0  0  0  0  0
  143.5086  135.4154  160.5602 H   0  0  0  0  0  0  0  0  0  0  0  0
  144.8960  134.7093  159.7297 H   0  0  0  0  0  0  0  0  0  0  0  0
  1  2  1  0  0  0  0
  1 28  1  0  0  0  0
  2  3  1  0  0  0  0
  2 29  1  0  0  0  0
  2 30  1  0  0  0  0
  3  4  1  0  0  0  0
  3 23  1  0  0  0  0
  3 31  1  0  0  0  0
  4  5  1  0  0  0  0
  4 32  1  0  0  0  0
  4 33  1  0  0  0  0
  5 22  1  0  0  0  0
  5  6  1  0  0  0  0
  6  7  2  0  0  0  0
  6 34  1  0  0  0  0
  7  8  1  0  0  0  0
  8 22  2  0  0  0  0
  8  9  1  0  0  0  0
  9 10  1  0  0  0  0
  9 19  2  0  0  0  0
 10 14  1  0  0  0  0
 10 11  1  0  0  0  0
 11 18  1  0  0  0  0
 11 12  1  0  0  0  0
 11 35  1  0  0  0  0
 12 13  1  0  0  0  0
 12 36  1  0  0  0  0
 12 37  1  0  0  0  0
 13 14  1  0  0  0  0
 13 38  1  0  0  0  0
 13 39  1  0  0  0  0
 14 15  1  0  0  0  0
 14 40  1  0  0  0  0
 15 16  1  0  0  0  0
 15 18  1  0  0  0  0
 15 41  1  0  0  0  0
 16 17  1  0  0  0  0
 16 42  1  0  0  0  0
 16 43  1  0  0  0  0
 17 44  1  0  0  0  0
 18 45  1  0  0  0  0
 18 46  1  0  0  0  0
 19 20  1  0  0  0  0
 20 21  2  0  0  0  0
 20 47  1  0  0  0  0
 21 22  1  0  0  0  0
 23 27  1  0  0  0  0
 23 24  1  0  0  0  0
 23 48  1  0  0  0  0
 24 25  1  0  0  0  0
 24 49  1  0  0  0  0
 24 50  1  0  0  0  0
 25 26  1  0  0  0  0
 25 51  1  0  0  0  0
 25 52  1  0  0  0  0
 26 27  1  0  0  0  0
 27 53  1  0  0  0  0
 27 54  1  0  0  0  0
M  END
> <s_m_source_file>
AV-unprocessed.smi

> <i_m_source_file_index>
227

> <i_lp_mmshare_version>
43012

> <i_f3d_flags>
0

> <s_epik_input>
W0NIMl0xT1tDSDJdW0NIMl1bQ0BIXTFbQ0BIXShbQ0gyXVtPSF0pW0NIMl1uKFtjSF1uMiljKGMyMyluW2NIXW5jM04oW0NASF00NSlbQ0BASF0oW0NIMl1bQ0gyXTQpW0NASF0oW0NIMl01KVtDSDJdW09IXQ==

> <s_epik_cmdline>
J2VwaWtfcHl0aG9uJywgJy1waCcsICc3LjAnLCAnLXRuJywgJzgnLCAnLW1hJywgJzIwMCcsICctbWV0YWxfYmluZGluZycsICctaW1hZScsICc8aW5maWxlLm1hZT4nLCAnLW9tYWUnLCAnPG91dGZpbGUubWFlPic=

> <r_lp_tautomer_probability>
1

> <r_epik_Ionization_Penalty>
0.0055791

> <r_epik_Ionization_Penalty_Charging>
0

> <r_epik_Ionization_Penalty_Neutral>
0.0055791

> <r_epik_State_Penalty>
0.00401299

> <r_epik_Charging_Adjusted_Penalty>
0.00401299

> <i_epik_Tot_Q>
0

> <i_epik_Tot_abs_Q>
0

> <r_epik_Metal_State_Penalty>
-0

> <b_epik_Metal_Only>
0

> <s_lp_Force_Field>
OPLS_2005

> <r_lp_Energy>
91.5057

> <b_lp_Chiralities_Consistent>
1

> <s_lp_Variant>
AV-unprocessed.smi:227-6

> <Gold.Version>
5.8.1

> <Gold.Id.Protein>
6NUR|6NUR_protein|mol2

> <Gold.PLP.Fitness>
47.5258

> <Gold.PLP.PLP>
-42.9011

> <Gold.PLP.part.hbond>
-3.7216

> <Gold.PLP.part.metal>
0.0000

> <Gold.PLP.part.buried>
-3.8717

> <Gold.PLP.part.nonpolar>
-36.3983

> <Gold.PLP.part.repulsive>
0.0439

> <Gold.PLP.ligand.clash>
0.0000

> <Gold.PLP.ligand.torsion>
1.8795

> <Gold.PLP.Chemscore.Hbond>
2.7280

> <Gold.PLP.Chemscore.CHOScore>
0.0000

> <Gold.PLP.Chemscore.Metal>
0.0000

> <Gold.Chemscore.Hbonds>
donor molecule, donor type, donor heavy atom, donor atom, acceptor molecule, acceptor atom, score
      L1  H    17    44       P1  7949  0.65
      P1  H  6896  6907       L1    21  0.90
      P1  H  6931  6943       L1     1  0.58

> <Gold.PLP.Chemscore.Internal.Correction>
0.1997

> <Gold.Rescore>
     Score         DG    S(hbond)    S(metal)    S(lipo)     H(rot)  DE(clash)    DE(int)     intcor
     12.10     -15.07       2.14        0.00      99.77       3.61       0.08       2.89       ----

> <Gold.Chemscore.Fitness>
12.0951

> <Gold.Chemscore.DG>
-15.0673

> <Gold.Chemscore.ZeroCoef>
-5.4800

> <Gold.Chemscore.Hbond>
2.1404

> <Gold.Chemscore.Metal>
0.0000

> <Gold.Chemscore.Lipo>
99.7667

> <Gold.Chemscore.Internal_Hbond>
0.0000

> <Gold.Chemscore.DEClash>
0.0842

> <Gold.Chemscore.DEInternal>
2.8880

> <Gold.Chemscore.Rot>
3.6071

> <Gold.Chemscore.Internal.Correction>
   9.000000E+99

> <Gold.Chemscore.Hbonds>
donor molecule, donor type, donor heavy atom, donor atom, acceptor molecule, acceptor atom, score
      L1  H    17    44       P1  7949  0.06
      P1  H  6896  6907       L1    21  0.18
      P1  H  6931  6943       L1     1  0.08

> <Gold.Chemscore.Hbond.Weighted>
-7.1488

> <Gold.Chemscore.Metal.Weighted>
-0.0000

> <Gold.Chemscore.Lipo.Weighted>
-11.6727

> <Gold.Chemscore.Internal_Hbond.Weighted>
0.0000

> <Gold.Chemscore.DEClash.Weighted>
0.0842

> <Gold.Chemscore.DEInternal.Weighted>
2.8880

> <Gold.Chemscore.Rot.Weighted>
9.2342

> <Gold.Chemscore.Internal.Correction.Weighted>
   9.000000E+99

> <Gold.Protein.RotatedTorsions>
[ 6907 6896 6895 6894 ] final  -33.05 input  -60.11 | X-H torsion
[ 7974 7965 7964 7962 ] final -134.50 input  175.53 | X-H torsion
[ 8008 7997 7996 7995 ] final  131.98 input   59.86 | X-H torsion
[ 10167 10162 10161 10158 ] final -178.09 input  -65.29 | X-H torsion
[ 10718 10713 10712 10709 ] final  -78.06 input   66.30 | X-H torsion
[ 10763 10752 10751 10750 ] final -120.69 input  -60.55 | X-H torsion
[ 11005 11000 10999 10996 ] final  -30.54 input  -57.11 | X-H torsion

> <Gold.Protein.ActiveResidues>
 VAL166  LYS551  ARG553  GLY616  TRP617  ASP618  TYR619  PRO620  LYS621  CYS622 
 ASP623  PHE694  ASN695  SER759  ASP760  ASP761  ALA762  ILE779  LEU786  VAL792 
 PHE793  MET794  SER795  GLU796  ALA797  LYS798  CYS799  TRP800  GLU811  SER814 

> <Gold.Protein.RotatedAtoms>
  151.0707  134.9797  159.8307 H   0  0  0  0  0  0  0  0  0  0  0  0  # atno 6907 bound_to 6896
  152.5408  134.2302  159.8832 H   0  0  0  0  0  0  0  0  0  0  0  0  # atno 6908 bound_to 6896
  151.2327  133.4398  159.2638 H   0  0  0  0  0  0  0  0  0  0  0  0  # atno 6909 bound_to 6896
  144.9097  140.6879  143.5032 H   0  0  0  0  0  0  0  0  0  0  0  0  # atno 7974 bound_to 7965
  156.2977  140.2558  156.3015 H   0  0  0  0  0  0  0  0  0  0  0  0  # atno 8008 bound_to 7997
  154.9413  140.0396  157.2117 H   0  0  0  0  0  0  0  0  0  0  0  0  # atno 8009 bound_to 7997
  154.8123  140.2846  155.5848 H   0  0  0  0  0  0  0  0  0  0  0  0  # atno 8010 bound_to 7997
  139.5449  144.2263  152.0968 H   0  0  0  0  0  0  0  0  0  0  0  0  # atno 10167 bound_to 10162
  156.0127  130.4508  150.3440 H   0  0  0  0  0  0  0  0  0  0  0  0  # atno 10718 bound_to 10713
  154.8650  135.4194  154.2500 H   0  0  0  0  0  0  0  0  0  0  0  0  # atno 10763 bound_to 10752
  153.3449  135.6995  153.6842 H   0  0  0  0  0  0  0  0  0  0  0  0  # atno 10764 bound_to 10752
  153.5806  135.3573  155.2846 H   0  0  0  0  0  0  0  0  0  0  0  0  # atno 10765 bound_to 10752
  140.9392  133.7289  156.1050 H   0  0  0  0  0  0  0  0  0  0  0  0  # atno 11005 bound_to 11000
  145.3475  139.1715  143.4453 LP  0  0  0  0  0  0  0  0  0  0  0  0  # atno 17320 bound_to 7965
  146.3152  140.3523  142.8657 LP  0  0  0  0  0  0  0  0  0  0  0  0  # atno 17321 bound_to 7965
  140.1748  144.4901  150.6560 LP  0  0  0  0  0  0  0  0  0  0  0  0  # atno 17342 bound_to 10162
  140.6693  143.2280  151.5664 LP  0  0  0  0  0  0  0  0  0  0  0  0  # atno 17343 bound_to 10162
  157.1534  131.0327  151.2874 LP  0  0  0  0  0  0  0  0  0  0  0  0  # atno 17370 bound_to 10713
  157.4373  130.7524  149.7039 LP  0  0  0  0  0  0  0  0  0  0  0  0  # atno 17371 bound_to 10713
  140.7757  134.3782  157.5498 LP  0  0  0  0  0  0  0  0  0  0  0  0  # atno 17394 bound_to 11000
  139.8816  134.9050  156.2891 LP  0  0  0  0  0  0  0  0  0  0  0  0  # atno 17395 bound_to 11000

$$$$
