AV-unprocessed.smi:49|AV-procd|sdf|467|dock1
  -GOLD-   2262016333D 1   1.00000     0.00000
 Structure written by MMmdl.
 28 29  0  0  0  0  0  0  0  0  2 V2000
  146.7620  139.4312  152.8273 C   0  0  0  0  0  0  0  0  0  0  0  0
  145.8420  138.2504  153.1576 C   0  0  0  0  0  0  0  0  0  0  0  0
  145.6093  137.3677  151.9764 C   0  0  0  0  0  0  0  0  0  0  0  0
  144.8527  136.2307  152.0405 N   0  0  0  0  0  0  0  0  0  0  0  0
  144.9821  135.7878  150.7914 C   0  0  0  0  0  0  0  0  0  0  0  0
  144.3490  134.5527  150.2240 C   0  0  2  0  0  0  0  0  0  0  0  0
  143.5919  133.6905  151.2349 C   0  0  0  0  0  0  0  0  0  0  0  0
  143.7625  132.2778  150.6785 C   0  0  1  0  0  0  0  0  0  0  0  0
  142.7598  132.0101  149.7182 O   0  0  0  0  0  0  0  0  0  0  0  0
  145.1412  132.3038  149.9988 C   0  0  0  0  0  0  0  0  0  0  0  0
  145.4698  133.7216  149.7431 N   0  3  0  0  0  0  0  0  0  0  0  0
  145.7520  136.5870  150.0490 N   0  0  0  0  0  0  0  0  0  0  0  0
  146.1852  137.6195  150.8022 N   0  0  0  0  0  0  0  0  0  0  0  0
  143.7086  134.8033  149.3767 H   0  0  0  0  0  0  0  0  0  0  0  0
  143.7070  131.5192  151.4600 H   0  0  0  0  0  0  0  0  0  0  0  0
  146.0029  136.4725  149.0771 H   0  0  0  0  0  0  0  0  0  0  0  0
  146.9169  140.0599  153.7044 H   0  0  0  0  0  0  0  0  0  0  0  0
  146.3346  140.0552  152.0417 H   0  0  0  0  0  0  0  0  0  0  0  0
  147.7392  139.0862  152.4879 H   0  0  0  0  0  0  0  0  0  0  0  0
  146.2752  137.6582  153.9645 H   0  0  0  0  0  0  0  0  0  0  0  0
  144.8836  138.6194  153.5252 H   0  0  0  0  0  0  0  0  0  0  0  0
  144.0839  133.7410  152.2078 H   0  0  0  0  0  0  0  0  0  0  0  0
  142.5543  133.9967  151.3743 H   0  0  0  0  0  0  0  0  0  0  0  0
  142.1921  132.7637  149.6540 H   0  0  0  0  0  0  0  0  0  0  0  0
  145.9001  131.9019  150.6707 H   0  0  0  0  0  0  0  0  0  0  0  0
  145.1719  131.7165  149.0799 H   0  0  0  0  0  0  0  0  0  0  0  0
  145.6358  133.8873  148.7610 H   0  0  0  0  0  0  0  0  0  0  0  0
  146.2960  133.9604  150.2737 H   0  0  0  0  0  0  0  0  0  0  0  0
  1  2  1  0  0  0  0
  1 17  1  0  0  0  0
  1 18  1  0  0  0  0
  1 19  1  0  0  0  0
  2 20  1  0  0  0  0
  2 21  1  0  0  0  0
  2  3  1  0  0  0  0
  3  4  1  0  0  0  0
  3 13  2  0  0  0  0
  4  5  2  0  0  0  0
  5  6  1  0  0  0  0
  5 12  1  0  0  0  0
  6 14  1  0  0  0  0
  6 11  1  0  0  0  0
  6  7  1  0  0  0  0
  7  8  1  0  0  0  0
  7 22  1  0  0  0  0
  7 23  1  0  0  0  0
  8 15  1  0  0  0  0
  8  9  1  0  0  0  0
  8 10  1  0  0  0  0
  9 24  1  0  0  0  0
 10 11  1  0  0  0  0
 10 25  1  0  0  0  0
 10 26  1  0  0  0  0
 11 27  1  0  0  0  0
 11 28  1  0  0  0  0
 12 13  1  0  0  0  0
 12 16  1  0  0  0  0
M  CHG  1  11   1
M  END
> <s_m_source_file>
AV-unprocessed.smi

> <i_m_source_file_index>
49

> <i_lp_mmshare_version>
43012

> <i_f3d_flags>
0

> <s_epik_input>
W0NIM11bQ0gyXWMxbmMobltuSF0xKVtDQEBIXTJbQ0gyXVtDQEBIXShbT0hdKVtDSDJdW05IXTI=

> <s_epik_cmdline>
J2VwaWtfcHl0aG9uJywgJy1waCcsICc3LjAnLCAnLXRuJywgJzgnLCAnLW1hJywgJzIwMCcsICctbWV0YWxfYmluZGluZycsICctaW1hZScsICc8aW5maWxlLm1hZT4nLCAnLW9tYWUnLCAnPG91dGZpbGUubWFlPic=

> <r_epik_Ionization_Penalty>
0.372103

> <r_epik_Ionization_Penalty_Charging>
0.0688988

> <r_epik_Ionization_Penalty_Neutral>
0.303204

> <r_epik_State_Penalty>
0.737493

> <r_epik_Charging_Adjusted_Penalty>
0.806392

> <i_epik_Tot_Q>
1

> <i_epik_Tot_abs_Q>
1

> <r_epik_Metal_State_Penalty>
1.01235

> <b_epik_Metal_Only>
0

> <s_lp_Force_Field>
OPLS_2005

> <r_lp_Energy>
18.9462

> <b_lp_Chiralities_Consistent>
1

> <s_lp_Variant>
AV-unprocessed.smi:49-5

> <Gold.Version>
5.8.1

> <Gold.Id.Protein>
6NUR|6NUR_protein|mol2

> <Gold.PLP.Fitness>
36.4207

> <Gold.PLP.PLP>
-23.0617

> <Gold.PLP.part.hbond>
-6.4674

> <Gold.PLP.part.metal>
0.0000

> <Gold.PLP.part.buried>
0.0471

> <Gold.PLP.part.nonpolar>
-19.4192

> <Gold.PLP.part.repulsive>
2.9701

> <Gold.PLP.ligand.clash>
0.0000

> <Gold.PLP.ligand.torsion>
0.0295

> <Gold.PLP.Chemscore.Hbond>
4.4660

> <Gold.PLP.Chemscore.CHOScore>
0.0000

> <Gold.PLP.Chemscore.Metal>
0.0000

> <Gold.Chemscore.Hbonds>
donor molecule, donor type, donor heavy atom, donor atom, acceptor molecule, acceptor atom, score
      L1  H     9    24       P1 10186  0.99
      L1  H    11    27       P1  7921  1.00
      L1  H    12    16       P1  7921  0.51
      P1  H  7954  7966       L1    13  0.56
      P1  H 10785 10796       L1     9  0.70

> <Gold.PLP.Chemscore.Internal.Correction>
0.0199

> <Gold.Rescore>
     Score         DG    S(hbond)    S(metal)    S(lipo)     H(rot)  DE(clash)    DE(int)     intcor
     14.16     -16.78       3.15        0.00      47.88       1.89       2.35       0.27       ----

> <Gold.Chemscore.Fitness>
14.1612

> <Gold.Chemscore.DG>
-16.7806

> <Gold.Chemscore.ZeroCoef>
-5.4800

> <Gold.Chemscore.Hbond>
3.1533

> <Gold.Chemscore.Metal>
0.0000

> <Gold.Chemscore.Lipo>
47.8847

> <Gold.Chemscore.Internal_Hbond>
0.0000

> <Gold.Chemscore.DEClash>
2.3455

> <Gold.Chemscore.DEInternal>
0.2740

> <Gold.Chemscore.Rot>
1.8883

> <Gold.Chemscore.Internal.Correction>
   9.000000E+99

> <Gold.Chemscore.Hbonds>
donor molecule, donor type, donor heavy atom, donor atom, acceptor molecule, acceptor atom, score
      L1  H     9    24       P1 10186  0.92
      L1  H    11    27       P1  7921  0.40
      L1  H    12    16       P1  7921  0.50
      P1  H  7954  7966       L1    13  0.10
      P1  H 10785 10796       L1     9  0.48

> <Gold.Chemscore.Hbond.Weighted>
-10.5321

> <Gold.Chemscore.Metal.Weighted>
-0.0000

> <Gold.Chemscore.Lipo.Weighted>
-5.6025

> <Gold.Chemscore.Internal_Hbond.Weighted>
0.0000

> <Gold.Chemscore.DEClash.Weighted>
2.3455

> <Gold.Chemscore.DEInternal.Weighted>
0.2740

> <Gold.Chemscore.Rot.Weighted>
4.8340

> <Gold.Chemscore.Internal.Correction.Weighted>
   9.000000E+99

> <Gold.Protein.RotatedTorsions>
[ 6907 6896 6895 6894 ] final   36.03 input  -60.11 | X-H torsion
[ 7974 7965 7964 7962 ] final -109.16 input  175.53 | X-H torsion
[ 8008 7997 7996 7995 ] final   79.12 input   59.86 | X-H torsion
[ 10167 10162 10161 10158 ] final   34.80 input  -65.29 | X-H torsion
[ 10718 10713 10712 10709 ] final  -58.54 input   66.30 | X-H torsion
[ 10763 10752 10751 10750 ] final   -8.64 input  -60.55 | X-H torsion
[ 11005 11000 10999 10996 ] final   49.80 input  -57.11 | X-H torsion

> <Gold.Protein.ActiveResidues>
 VAL166  LYS551  ARG553  GLY616  TRP617  ASP618  TYR619  PRO620  LYS621  CYS622 
 ASP623  PHE694  ASN695  SER759  ASP760  ASP761  ALA762  ILE779  LEU786  VAL792 
 PHE793  MET794  SER795  GLU796  ALA797  LYS798  CYS799  TRP800  GLU811  SER814 

> <Gold.Protein.RotatedAtoms>
  152.1241  134.9183  160.0561 H   0  0  0  0  0  0  0  0  0  0  0  0  # atno 6907 bound_to 6896
  152.0313  133.3933  159.4306 H   0  0  0  0  0  0  0  0  0  0  0  0  # atno 6908 bound_to 6896
  150.6851  134.3439  159.4923 H   0  0  0  0  0  0  0  0  0  0  0  0  # atno 6909 bound_to 6896
  145.1840  140.8984  143.3463 H   0  0  0  0  0  0  0  0  0  0  0  0  # atno 7974 bound_to 7965
  155.8653  140.3451  155.5784 H   0  0  0  0  0  0  0  0  0  0  0  0  # atno 8008 bound_to 7997
  155.7888  140.0868  157.2039 H   0  0  0  0  0  0  0  0  0  0  0  0  # atno 8009 bound_to 7997
  154.4014  140.1487  156.3125 H   0  0  0  0  0  0  0  0  0  0  0  0  # atno 8010 bound_to 7997
  140.4281  144.1364  150.6156 H   0  0  0  0  0  0  0  0  0  0  0  0  # atno 10167 bound_to 10162
  156.1127  130.4173  150.0592 H   0  0  0  0  0  0  0  0  0  0  0  0  # atno 10718 bound_to 10713
  153.4434  135.7014  153.6154 H   0  0  0  0  0  0  0  0  0  0  0  0  # atno 10763 bound_to 10752
  153.4519  135.3756  155.2289 H   0  0  0  0  0  0  0  0  0  0  0  0  # atno 10764 bound_to 10752
  154.8728  135.3999  154.3836 H   0  0  0  0  0  0  0  0  0  0  0  0  # atno 10765 bound_to 10752
  140.1072  134.5002  155.8709 H   0  0  0  0  0  0  0  0  0  0  0  0  # atno 11005 bound_to 11000
  145.0108  139.3512  143.6121 LP  0  0  0  0  0  0  0  0  0  0  0  0  # atno 17320 bound_to 7965
  146.3448  139.9369  142.8746 LP  0  0  0  0  0  0  0  0  0  0  0  0  # atno 17321 bound_to 7965
  140.4458  143.2507  151.9413 LP  0  0  0  0  0  0  0  0  0  0  0  0  # atno 17342 bound_to 10162
  139.4784  144.5610  151.8239 LP  0  0  0  0  0  0  0  0  0  0  0  0  # atno 17343 bound_to 10162
  156.8551  130.9472  151.3622 LP  0  0  0  0  0  0  0  0  0  0  0  0  # atno 17370 bound_to 10713
  157.6309  130.8728  149.9272 LP  0  0  0  0  0  0  0  0  0  0  0  0  # atno 17371 bound_to 10713
  141.2121  133.6715  156.6635 LP  0  0  0  0  0  0  0  0  0  0  0  0  # atno 17394 bound_to 11000
  140.3139  134.8063  157.4198 LP  0  0  0  0  0  0  0  0  0  0  0  0  # atno 17395 bound_to 11000

$$$$
