AV-unprocessed.smi:1554|AV-procd|sdf|6262|dock3
  -GOLD-   22720 6453D 1   1.00000     0.00000
 Structure written by MMmdl.
 49 51  0  0  0  0  0  0  0  0  3 V2000
  153.3239  142.5051  161.1337 C   0  0  0  0  0  0  0  0  0  0  0  0
  152.4844  142.2158  159.9009 C   0  0  0  0  0  0  0  0  0  0  0  0
  152.3025  140.8705  159.5092 C   0  0  0  0  0  0  0  0  0  0  0  0
  151.5281  140.6379  158.3789 C   0  0  0  0  0  0  0  0  0  0  0  0
  151.1658  139.4452  157.7498 N   0  3  0  0  0  0  0  0  0  0  0  0
  150.3910  139.7206  156.6647 C   0  0  0  0  0  0  0  0  0  0  0  0
  150.2486  141.0725  156.5931 N   0  0  0  0  0  0  0  0  0  0  0  0
  149.5178  141.8835  155.6088 C   0  0  0  0  0  0  0  0  0  0  0  0
  148.8319  141.0349  154.5199 C   0  0  2  0  0  0  0  0  0  0  0  0
  149.7725  140.8274  153.4860 O   0  0  0  0  0  0  0  0  0  0  0  0
  147.5683  141.6904  153.9201 C   0  0  0  0  0  0  0  0  0  0  0  0
  146.8626  142.5671  154.8893 N   0  3  2  0  0  0  0  0  0  0  0  0
  146.5298  141.8635  156.1505 C   0  0  0  0  0  0  0  0  0  0  0  0
  145.8557  142.8264  157.1417 C   0  0  0  0  0  0  0  0  0  0  0  0
  144.6970  143.3918  156.5416 O   0  0  0  0  0  0  0  0  0  0  0  0
  145.0075  144.1497  155.3777 C   0  0  2  0  0  0  0  0  0  0  0  0
  143.7133  144.7894  154.8627 C   0  0  0  0  0  0  0  0  0  0  0  0
  145.6540  143.2226  154.3300 C   0  0  0  0  0  0  0  0  0  0  0  0
  150.9447  141.6875  157.6418 C   0  0  0  0  0  0  0  0  0  0  0  0
  151.1152  143.0192  158.0148 C   0  0  0  0  0  0  0  0  0  0  0  0
  151.8974  143.2762  159.1634 C   0  0  0  0  0  0  0  0  0  0  0  0
  152.0978  144.7192  159.5948 C   0  0  0  0  0  0  0  0  0  0  0  0
  153.7189  141.5881  161.5719 H   0  0  0  0  0  0  0  0  0  0  0  0
  152.7260  143.0072  161.8944 H   0  0  0  0  0  0  0  0  0  0  0  0
  154.1706  143.1437  160.8807 H   0  0  0  0  0  0  0  0  0  0  0  0
  152.7466  140.0579  160.0659 H   0  0  0  0  0  0  0  0  0  0  0  0
  149.9678  138.9964  155.9833 H   0  0  0  0  0  0  0  0  0  0  0  0
  148.8008  142.5228  156.1237 H   0  0  0  0  0  0  0  0  0  0  0  0
  150.2462  142.5547  155.1509 H   0  0  0  0  0  0  0  0  0  0  0  0
  148.5881  140.0636  154.9492 H   0  0  0  0  0  0  0  0  0  0  0  0
  149.4285  140.1832  152.8855 H   0  0  0  0  0  0  0  0  0  0  0  0
  147.8126  142.2784  153.0348 H   0  0  0  0  0  0  0  0  0  0  0  0
  146.8954  140.8995  153.5841 H   0  0  0  0  0  0  0  0  0  0  0  0
  145.8677  141.0225  155.9378 H   0  0  0  0  0  0  0  0  0  0  0  0
  147.4360  141.4544  156.5988 H   0  0  0  0  0  0  0  0  0  0  0  0
  145.5609  142.2911  158.0443 H   0  0  0  0  0  0  0  0  0  0  0  0
  146.5441  143.6151  157.4496 H   0  0  0  0  0  0  0  0  0  0  0  0
  145.7054  144.9459  155.6438 H   0  0  0  0  0  0  0  0  0  0  0  0
  143.8992  145.3908  153.9725 H   0  0  0  0  0  0  0  0  0  0  0  0
  143.2739  145.4420  155.6175 H   0  0  0  0  0  0  0  0  0  0  0  0
  142.9719  144.0318  154.6061 H   0  0  0  0  0  0  0  0  0  0  0  0
  145.9123  143.8053  153.4467 H   0  0  0  0  0  0  0  0  0  0  0  0
  144.9404  142.4606  154.0117 H   0  0  0  0  0  0  0  0  0  0  0  0
  150.6709  143.8304  157.4581 H   0  0  0  0  0  0  0  0  0  0  0  0
  151.5869  145.4115  158.9248 H   0  0  0  0  0  0  0  0  0  0  0  0
  153.1573  144.9763  159.5929 H   0  0  0  0  0  0  0  0  0  0  0  0
  151.7041  144.8768  160.5992 H   0  0  0  0  0  0  0  0  0  0  0  0
  147.5118  143.3010  155.1362 H   0  0  0  0  0  0  0  0  0  0  0  0
  151.4301  138.5109  158.0358 H   0  0  0  0  0  0  0  0  0  0  0  0
  1  2  1  0  0  0  0
  1 23  1  0  0  0  0
  1 24  1  0  0  0  0
  1 25  1  0  0  0  0
  2 21  1  0  0  0  0
  2  3  2  0  0  0  0
  3  4  1  0  0  0  0
  3 26  1  0  0  0  0
  4 19  2  0  0  0  0
  4  5  1  0  0  0  0
  5  6  2  0  0  0  0
  5 49  1  0  0  0  0
  6  7  1  0  0  0  0
  6 27  1  0  0  0  0
  7  8  1  0  0  0  0
  7 19  1  0  0  0  0
  8  9  1  0  0  0  0
  8 28  1  0  0  0  0
  8 29  1  0  0  0  0
  9 10  1  0  0  0  0
  9 11  1  0  0  0  0
  9 30  1  0  0  0  0
 10 31  1  0  0  0  0
 11 12  1  0  0  0  0
 11 32  1  0  0  0  0
 11 33  1  0  0  0  0
 12 18  1  0  0  0  0
 12 13  1  0  0  0  0
 12 48  1  0  0  0  0
 13 14  1  0  0  0  0
 13 34  1  0  0  0  0
 13 35  1  0  0  0  0
 14 15  1  0  0  0  0
 14 36  1  0  0  0  0
 14 37  1  0  0  0  0
 15 16  1  0  0  0  0
 16 17  1  0  0  0  0
 16 18  1  0  0  0  0
 16 38  1  0  0  0  0
 17 39  1  0  0  0  0
 17 40  1  0  0  0  0
 17 41  1  0  0  0  0
 18 42  1  0  0  0  0
 18 43  1  0  0  0  0
 19 20  1  0  0  0  0
 20 21  2  0  0  0  0
 20 44  1  0  0  0  0
 21 22  1  0  0  0  0
 22 45  1  0  0  0  0
 22 46  1  0  0  0  0
 22 47  1  0  0  0  0
M  CHG  1   5   1
M  CHG  1  12   1
M  END
> <s_m_source_file>
AV-unprocessed.smi

> <i_m_source_file_index>
1554

> <i_lp_mmshare_version>
43012

> <i_f3d_flags>
0

> <s_epik_input>
W0NIM11jKFtjSF0xKWMoW0NIM10pW2NIXWMoYzEyKW4oW2NIXW4yKVtDSDJdW0NASF0oW09IXSlbQ0gyXU4zW0NIMl1bQ0gyXU9bQ0BASF0oW0NIM10pW0NIMl0z

> <s_epik_cmdline>
J2VwaWtfcHl0aG9uJywgJy1waCcsICc3LjAnLCAnLXRuJywgJzgnLCAnLW1hJywgJzIwMCcsICctbWV0YWxfYmluZGluZycsICctaW1hZScsICc8aW5maWxlLm1hZT4nLCAnLW9tYWUnLCAnPG91dGZpbGUubWFlPic=

> <r_epik_Ionization_Penalty>
1.8848

> <r_epik_Ionization_Penalty_Charging>
1.88479

> <r_epik_Ionization_Penalty_Neutral>
1.42224e-05

> <r_epik_State_Penalty>
1.94551

> <r_epik_Charging_Adjusted_Penalty>
3.8303

> <i_epik_Tot_Q>
2

> <i_epik_Tot_abs_Q>
2

> <r_epik_Metal_State_Penalty>
5.95849

> <b_epik_Metal_Only>
0

> <s_lp_Force_Field>
OPLS_2005

> <r_lp_Energy>
32.1421

> <b_lp_Chiralities_Consistent>
1

> <s_lp_Variant>
AV-unprocessed.smi:1554-23

> <Gold.Version>
5.8.1

> <Gold.Id.Protein>
6NUR|6NUR_protein|mol2

> <Gold.PLP.Fitness>
56.3288

> <Gold.PLP.PLP>
-45.8407

> <Gold.PLP.part.hbond>
-3.1915

> <Gold.PLP.part.metal>
0.0000

> <Gold.PLP.part.buried>
-4.1488

> <Gold.PLP.part.nonpolar>
-37.4252

> <Gold.PLP.part.repulsive>
0.2179

> <Gold.PLP.ligand.clash>
0.0000

> <Gold.PLP.ligand.torsion>
0.7120

> <Gold.PLP.Chemscore.Hbond>
3.9440

> <Gold.PLP.Chemscore.CHOScore>
0.0000

> <Gold.PLP.Chemscore.Metal>
0.0000

> <Gold.Chemscore.Hbonds>
donor molecule, donor type, donor heavy atom, donor atom, acceptor molecule, acceptor atom, score
      L1  H    10    31       P1  7957  0.61
      L1  H    12    48       P1  8028  1.90
      P1  H  7989  7998       L1    10  0.34
      P1  H  8011  8017       L1    10  1.00

> <Gold.PLP.Chemscore.Internal.Correction>
0.0802

> <Gold.Rescore>
     Score         DG    S(hbond)    S(metal)    S(lipo)     H(rot)  DE(clash)    DE(int)     intcor
     17.68     -19.25       1.46        0.00     122.27       2.11       0.80       0.77       ----

> <Gold.Chemscore.Fitness>
17.6826

> <Gold.Chemscore.DG>
-19.2472

> <Gold.Chemscore.ZeroCoef>
-5.4800

> <Gold.Chemscore.Hbond>
1.4576

> <Gold.Chemscore.Metal>
0.0000

> <Gold.Chemscore.Lipo>
122.2739

> <Gold.Chemscore.Internal_Hbond>
0.0000

> <Gold.Chemscore.DEClash>
0.7964

> <Gold.Chemscore.DEInternal>
0.7682

> <Gold.Chemscore.Rot>
2.1122

> <Gold.Chemscore.Internal.Correction>
   9.000000E+99

> <Gold.Chemscore.Hbonds>
donor molecule, donor type, donor heavy atom, donor atom, acceptor molecule, acceptor atom, score
      L1  H    10    31       P1  7957  0.60
      L1  H    12    48       P1  8028  0.21
      P1  H  7989  7998       L1    10  0.28
      P1  H  8011  8017       L1    10  0.17

> <Gold.Chemscore.Hbond.Weighted>
-4.8684

> <Gold.Chemscore.Metal.Weighted>
-0.0000

> <Gold.Chemscore.Lipo.Weighted>
-14.3061

> <Gold.Chemscore.Internal_Hbond.Weighted>
0.0000

> <Gold.Chemscore.DEClash.Weighted>
0.7964

> <Gold.Chemscore.DEInternal.Weighted>
0.7682

> <Gold.Chemscore.Rot.Weighted>
5.4073

> <Gold.Chemscore.Internal.Correction.Weighted>
   9.000000E+99

> <Gold.Protein.RotatedTorsions>
[ 6907 6896 6895 6894 ] final   97.84 input  -60.11 | X-H torsion
[ 7974 7965 7964 7962 ] final   55.28 input  175.53 | X-H torsion
[ 8008 7997 7996 7995 ] final  103.22 input   59.86 | X-H torsion
[ 10167 10162 10161 10158 ] final  -76.53 input  -65.29 | X-H torsion
[ 10718 10713 10712 10709 ] final   48.32 input   66.30 | X-H torsion
[ 10763 10752 10751 10750 ] final   38.13 input  -60.55 | X-H torsion
[ 11005 11000 10999 10996 ] final  -82.33 input  -57.11 | X-H torsion

> <Gold.Protein.ActiveResidues>
 VAL166  LYS551  ARG553  GLY616  TRP617  ASP618  TYR619  PRO620  LYS621  CYS622 
 ASP623  PHE694  ASN695  SER759  ASP760  ASP761  ALA762  ILE779  LEU786  VAL792 
 PHE793  MET794  SER795  GLU796  ALA797  LYS798  CYS799  TRP800  GLU811  SER814 

> <Gold.Protein.RotatedAtoms>
  152.5418  134.0672  159.8177 H   0  0  0  0  0  0  0  0  0  0  0  0  # atno 6907 bound_to 6896
  151.0792  133.5396  159.2629 H   0  0  0  0  0  0  0  0  0  0  0  0  # atno 6908 bound_to 6896
  151.2230  135.0534  159.9011 H   0  0  0  0  0  0  0  0  0  0  0  0  # atno 6909 bound_to 6896
  145.9521  139.3981  143.0299 H   0  0  0  0  0  0  0  0  0  0  0  0  # atno 7974 bound_to 7965
  156.1464  140.3168  155.8577 H   0  0  0  0  0  0  0  0  0  0  0  0  # atno 8008 bound_to 7997
  155.4056  140.0502  157.3051 H   0  0  0  0  0  0  0  0  0  0  0  0  # atno 8009 bound_to 7997
  154.5020  140.2133  155.9339 H   0  0  0  0  0  0  0  0  0  0  0  0  # atno 8010 bound_to 7997
  140.4849  143.2393  151.8000 H   0  0  0  0  0  0  0  0  0  0  0  0  # atno 10167 bound_to 10162
  157.4675  130.8234  149.7952 H   0  0  0  0  0  0  0  0  0  0  0  0  # atno 10718 bound_to 10713
  153.0012  135.6258  154.2255 H   0  0  0  0  0  0  0  0  0  0  0  0  # atno 10763 bound_to 10752
  154.1998  135.2804  155.2996 H   0  0  0  0  0  0  0  0  0  0  0  0  # atno 10764 bound_to 10752
  154.5693  135.5681  153.7139 H   0  0  0  0  0  0  0  0  0  0  0  0  # atno 10765 bound_to 10752
  141.1663  133.7239  156.8556 H   0  0  0  0  0  0  0  0  0  0  0  0  # atno 11005 bound_to 11000
  145.8157  140.9704  143.0925 LP  0  0  0  0  0  0  0  0  0  0  0  0  # atno 17320 bound_to 7965
  144.6798  139.9977  143.7484 LP  0  0  0  0  0  0  0  0  0  0  0  0  # atno 17321 bound_to 7965
  139.4840  144.4725  151.9408 LP  0  0  0  0  0  0  0  0  0  0  0  0  # atno 17342 bound_to 10162
  140.3811  144.2735  150.5908 LP  0  0  0  0  0  0  0  0  0  0  0  0  # atno 17343 bound_to 10162
  156.0057  130.3857  150.2439 LP  0  0  0  0  0  0  0  0  0  0  0  0  # atno 17370 bound_to 10713
  157.0620  131.0092  151.3219 LP  0  0  0  0  0  0  0  0  0  0  0  0  # atno 17371 bound_to 10713
  140.1885  134.8983  157.3032 LP  0  0  0  0  0  0  0  0  0  0  0  0  # atno 17394 bound_to 11000
  140.2317  134.3901  155.7519 LP  0  0  0  0  0  0  0  0  0  0  0  0  # atno 17395 bound_to 11000

$$$$
