AV-unprocessed.smi:1684|AV-procd|sdf|6756|dock9
  -GOLD-   22720 7513D 1   1.00000     0.00000
 Structure written by MMmdl.
 43 44  0  0  0  0  0  0  0  0  2 V2000
  151.7684  144.7708  158.0387 C   0  0  0  0  0  0  0  0  0  0  0  0
  152.1273  143.5508  158.8720 C   0  0  0  0  0  0  0  0  0  0  0  0
  152.7833  143.7291  160.1086 C   0  0  0  0  0  0  0  0  0  0  0  0
  153.1173  142.6007  160.8770 C   0  0  0  0  0  0  0  0  0  0  0  0
  152.7795  141.3334  160.3728 C   0  0  0  0  0  0  0  0  0  0  0  0
  152.1527  141.1537  159.1921 N   0  0  0  0  0  0  0  0  0  0  0  0
  151.8202  142.2329  158.4395 C   0  0  0  0  0  0  0  0  0  0  0  0
  151.1592  142.1175  157.1836 N   0  0  0  0  0  0  0  0  0  0  0  0
  150.1135  141.3368  156.8599 C   0  0  0  0  0  0  0  0  0  0  0  0
  149.5054  140.6008  157.6373 O   0  0  0  0  0  0  0  0  0  0  0  0
  149.8127  141.4407  155.5561 N   0  0  0  0  0  0  0  0  0  0  0  0
  148.7368  140.7299  154.8626 C   0  0  1  0  0  0  0  0  0  0  0  0
  147.9306  141.7355  154.0293 C   0  0  0  0  0  0  0  0  0  0  0  0
  149.2903  139.5873  153.9790 C   0  0  0  0  0  0  0  0  0  0  0  0
  148.2581  138.5875  153.6047 N   0  3  0  0  0  0  0  0  0  0  0  0
  147.6344  137.9127  154.7686 C   0  0  0  0  0  0  0  0  0  0  0  0
  146.6506  136.8332  154.2880 C   0  0  0  0  0  0  0  0  0  0  0  0
  145.6674  137.4261  153.4475 O   0  0  0  0  0  0  0  0  0  0  0  0
  146.2419  138.0162  152.2875 C   0  0  0  0  0  0  0  0  0  0  0  0
  147.2165  139.1316  152.7030 C   0  0  0  0  0  0  0  0  0  0  0  0
  152.1038  145.6910  158.5180 H   0  0  0  0  0  0  0  0  0  0  0  0
  150.6883  144.8371  157.9040 H   0  0  0  0  0  0  0  0  0  0  0  0
  152.2387  144.7153  157.0564 H   0  0  0  0  0  0  0  0  0  0  0  0
  153.0300  144.7180  160.4669 H   0  0  0  0  0  0  0  0  0  0  0  0
  153.6191  142.7041  161.8278 H   0  0  0  0  0  0  0  0  0  0  0  0
  153.0189  140.4399  160.9302 H   0  0  0  0  0  0  0  0  0  0  0  0
  151.5451  142.6817  156.4410 H   0  0  0  0  0  0  0  0  0  0  0  0
  150.3658  142.0730  154.9957 H   0  0  0  0  0  0  0  0  0  0  0  0
  148.0514  140.3123  155.6014 H   0  0  0  0  0  0  0  0  0  0  0  0
  147.0984  141.2462  153.5223 H   0  0  0  0  0  0  0  0  0  0  0  0
  148.5505  142.2108  153.2681 H   0  0  0  0  0  0  0  0  0  0  0  0
  147.5136  142.5228  154.6581 H   0  0  0  0  0  0  0  0  0  0  0  0
  149.7562  139.9866  153.0767 H   0  0  0  0  0  0  0  0  0  0  0  0
  150.0862  139.0876  154.5339 H   0  0  0  0  0  0  0  0  0  0  0  0
  148.3972  137.4537  155.3968 H   0  0  0  0  0  0  0  0  0  0  0  0
  147.1124  138.6465  155.3847 H   0  0  0  0  0  0  0  0  0  0  0  0
  147.1742  136.0391  153.7530 H   0  0  0  0  0  0  0  0  0  0  0  0
  146.1544  136.3697  155.1406 H   0  0  0  0  0  0  0  0  0  0  0  0
  146.7516  137.2560  151.6932 H   0  0  0  0  0  0  0  0  0  0  0  0
  145.4450  138.4249  151.6660 H   0  0  0  0  0  0  0  0  0  0  0  0
  146.6779  139.9359  153.2066 H   0  0  0  0  0  0  0  0  0  0  0  0
  147.6806  139.5602  151.8139 H   0  0  0  0  0  0  0  0  0  0  0  0
  148.7380  137.8715  153.0775 H   0  0  0  0  0  0  0  0  0  0  0  0
  1  2  1  0  0  0  0
  1 21  1  0  0  0  0
  1 22  1  0  0  0  0
  1 23  1  0  0  0  0
  2  7  1  0  0  0  0
  2  3  2  0  0  0  0
  3  4  1  0  0  0  0
  3 24  1  0  0  0  0
  4  5  2  0  0  0  0
  4 25  1  0  0  0  0
  5  6  1  0  0  0  0
  5 26  1  0  0  0  0
  6  7  2  0  0  0  0
  7  8  1  0  0  0  0
  8  9  1  0  0  0  0
  8 27  1  0  0  0  0
  9 10  2  0  0  0  0
  9 11  1  0  0  0  0
 11 12  1  0  0  0  0
 11 28  1  0  0  0  0
 12 13  1  0  0  0  0
 12 14  1  0  0  0  0
 12 29  1  0  0  0  0
 13 30  1  0  0  0  0
 13 31  1  0  0  0  0
 13 32  1  0  0  0  0
 14 15  1  0  0  0  0
 14 33  1  0  0  0  0
 14 34  1  0  0  0  0
 15 20  1  0  0  0  0
 15 16  1  0  0  0  0
 15 43  1  0  0  0  0
 16 17  1  0  0  0  0
 16 35  1  0  0  0  0
 16 36  1  0  0  0  0
 17 18  1  0  0  0  0
 17 37  1  0  0  0  0
 17 38  1  0  0  0  0
 18 19  1  0  0  0  0
 19 20  1  0  0  0  0
 19 39  1  0  0  0  0
 19 40  1  0  0  0  0
 20 41  1  0  0  0  0
 20 42  1  0  0  0  0
M  CHG  1  15   1
M  END
> <s_m_source_file>
AV-unprocessed.smi

> <i_m_source_file_index>
1684

> <i_lp_mmshare_version>
43012

> <i_f3d_flags>
0

> <s_epik_input>
W0NIM11jMVtjSF1bY0hdW2NIXW5jMVtOSF1DKD1PKVtOSF1bQ0BIXShbQ0gzXSlbQ0gyXU4yW0NIMl1bQ0gyXU9bQ0gyXVtDSDJdMg==

> <s_epik_cmdline>
J2VwaWtfcHl0aG9uJywgJy1waCcsICc3LjAnLCAnLXRuJywgJzgnLCAnLW1hJywgJzIwMCcsICctbWV0YWxfYmluZGluZycsICctaW1hZScsICc8aW5maWxlLm1hZT4nLCAnLW9tYWUnLCAnPG91dGZpbGUubWFlPic=

> <r_epik_Ionization_Penalty>
0.602571

> <r_epik_Ionization_Penalty_Charging>
0.602531

> <r_epik_Ionization_Penalty_Neutral>
4.09763e-05

> <r_epik_State_Penalty>
0.617039

> <r_epik_Charging_Adjusted_Penalty>
1.21957

> <i_epik_Tot_Q>
1

> <i_epik_Tot_abs_Q>
1

> <r_epik_Metal_State_Penalty>
0.617043

> <b_epik_Metal_Only>
0

> <s_lp_Force_Field>
OPLS_2005

> <r_lp_Energy>
24.8229

> <b_lp_Chiralities_Consistent>
1

> <s_lp_Variant>
AV-unprocessed.smi:1684-4

> <Gold.Version>
5.8.1

> <Gold.Id.Protein>
6NUR|6NUR_protein|mol2

> <Gold.PLP.Fitness>
42.2260

> <Gold.PLP.PLP>
-37.5209

> <Gold.PLP.part.hbond>
-2.0000

> <Gold.PLP.part.metal>
0.0000

> <Gold.PLP.part.buried>
0.3754

> <Gold.PLP.part.nonpolar>
-36.0777

> <Gold.PLP.part.repulsive>
0.4279

> <Gold.PLP.ligand.clash>
0.0000

> <Gold.PLP.ligand.torsion>
0.6694

> <Gold.PLP.Chemscore.Hbond>
2.0000

> <Gold.PLP.Chemscore.CHOScore>
0.0000

> <Gold.PLP.Chemscore.Metal>
0.0000

> <Gold.Chemscore.Hbonds>
donor molecule, donor type, donor heavy atom, donor atom, acceptor molecule, acceptor atom, score
      L1  H    15    43       P1  7948  1.98

> <Gold.PLP.Chemscore.Internal.Correction>
0.0439

> <Gold.Rescore>
     Score         DG    S(hbond)    S(metal)    S(lipo)     H(rot)  DE(clash)    DE(int)     intcor
     14.84     -16.54       0.99        0.00      99.17       1.51       1.11       0.59       ----

> <Gold.Chemscore.Fitness>
14.8426

> <Gold.Chemscore.DG>
-16.5419

> <Gold.Chemscore.ZeroCoef>
-5.4800

> <Gold.Chemscore.Hbond>
0.9923

> <Gold.Chemscore.Metal>
0.0000

> <Gold.Chemscore.Lipo>
99.1732

> <Gold.Chemscore.Internal_Hbond>
0.0000

> <Gold.Chemscore.DEClash>
1.1123

> <Gold.Chemscore.DEInternal>
0.5870

> <Gold.Chemscore.Rot>
1.5061

> <Gold.Chemscore.Internal.Correction>
   9.000000E+99

> <Gold.Chemscore.Hbonds>
donor molecule, donor type, donor heavy atom, donor atom, acceptor molecule, acceptor atom, score
      L1  H    15    43       P1  7948  0.92

> <Gold.Chemscore.Hbond.Weighted>
-3.3143

> <Gold.Chemscore.Metal.Weighted>
-0.0000

> <Gold.Chemscore.Lipo.Weighted>
-11.6033

> <Gold.Chemscore.Internal_Hbond.Weighted>
0.0000

> <Gold.Chemscore.DEClash.Weighted>
1.1123

> <Gold.Chemscore.DEInternal.Weighted>
0.5870

> <Gold.Chemscore.Rot.Weighted>
3.8557

> <Gold.Chemscore.Internal.Correction.Weighted>
   9.000000E+99

> <Gold.Protein.RotatedTorsions>
[ 6907 6896 6895 6894 ] final -129.76 input  -60.11 | X-H torsion
[ 7974 7965 7964 7962 ] final   50.71 input  175.53 | X-H torsion
[ 8008 7997 7996 7995 ] final  -66.90 input   59.86 | X-H torsion
[ 10167 10162 10161 10158 ] final  173.66 input  -65.29 | X-H torsion
[ 10718 10713 10712 10709 ] final   85.16 input   66.30 | X-H torsion
[ 10763 10752 10751 10750 ] final  133.64 input  -60.55 | X-H torsion
[ 11005 11000 10999 10996 ] final  -49.71 input  -57.11 | X-H torsion

> <Gold.Protein.ActiveResidues>
 VAL166  LYS551  ARG553  GLY616  TRP617  ASP618  TYR619  PRO620  LYS621  CYS622 
 ASP623  PHE694  ASN695  SER759  ASP760  ASP761  ALA762  ILE779  LEU786  VAL792 
 PHE793  MET794  SER795  GLU796  ALA797  LYS798  CYS799  TRP800  GLU811  SER814 

> <Gold.Protein.RotatedAtoms>
  150.9323  133.6752  159.2807 H   0  0  0  0  0  0  0  0  0  0  0  0  # atno 6907 bound_to 6896
  151.4170  135.0991  159.9612 H   0  0  0  0  0  0  0  0  0  0  0  0  # atno 6908 bound_to 6896
  152.5031  133.8783  159.7388 H   0  0  0  0  0  0  0  0  0  0  0  0  # atno 6909 bound_to 6896
  145.9985  139.4414  143.0029 H   0  0  0  0  0  0  0  0  0  0  0  0  # atno 7974 bound_to 7965
  154.4764  140.0903  156.7273 H   0  0  0  0  0  0  0  0  0  0  0  0  # atno 8008 bound_to 7997
  155.4585  140.3460  155.4291 H   0  0  0  0  0  0  0  0  0  0  0  0  # atno 8009 bound_to 7997
  156.1123  140.1451  156.9309 H   0  0  0  0  0  0  0  0  0  0  0  0  # atno 8010 bound_to 7997
  139.5116  144.3235  152.0180 H   0  0  0  0  0  0  0  0  0  0  0  0  # atno 10167 bound_to 10162
  157.6910  131.0163  150.2780 H   0  0  0  0  0  0  0  0  0  0  0  0  # atno 10718 bound_to 10713
  153.8104  135.3129  155.3400 H   0  0  0  0  0  0  0  0  0  0  0  0  # atno 10763 bound_to 10752
  154.8053  135.4701  154.0381 H   0  0  0  0  0  0  0  0  0  0  0  0  # atno 10764 bound_to 10752
  153.1757  135.6885  153.8635 H   0  0  0  0  0  0  0  0  0  0  0  0  # atno 10765 bound_to 10752
  141.0775  133.6662  156.3626 H   0  0  0  0  0  0  0  0  0  0  0  0  # atno 11005 bound_to 11000
  145.7523  140.9968  143.1244 LP  0  0  0  0  0  0  0  0  0  0  0  0  # atno 17320 bound_to 7965
  144.6911  139.9229  143.7468 LP  0  0  0  0  0  0  0  0  0  0  0  0  # atno 17321 bound_to 7965
  140.2676  144.3999  150.6163 LP  0  0  0  0  0  0  0  0  0  0  0  0  # atno 17342 bound_to 10162
  140.6112  143.2169  151.6883 LP  0  0  0  0  0  0  0  0  0  0  0  0  # atno 17343 bound_to 10162
  156.3332  130.3803  149.7473 LP  0  0  0  0  0  0  0  0  0  0  0  0  # atno 17370 bound_to 10713
  156.5006  130.8127  151.3131 LP  0  0  0  0  0  0  0  0  0  0  0  0  # atno 17371 bound_to 10713
  140.5542  134.5998  157.5416 LP  0  0  0  0  0  0  0  0  0  0  0  0  # atno 17394 bound_to 11000
  139.9587  134.7489  156.0283 LP  0  0  0  0  0  0  0  0  0  0  0  0  # atno 17395 bound_to 11000

$$$$
