AV-unprocessed.smi:896|AV-procd|sdf|4078|dock9
  -GOLD-   22720 1563D 1   1.00000     0.00000
 Structure written by MMmdl.
 49 50  0  0  0  0  0  0  0  0  2 V2000
  151.2112  142.9996  157.1684 C   0  0  0  0  0  0  0  0  0  0  0  0
  151.4914  141.6123  157.0159 O   0  0  0  0  0  0  0  0  0  0  0  0
  150.7313  140.8853  156.1225 C   0  0  0  0  0  0  0  0  0  0  0  0
  149.5347  141.4487  155.6393 C   0  0  0  0  0  0  0  0  0  0  0  0
  148.7567  140.7123  154.7267 C   0  0  0  0  0  0  0  0  0  0  0  0
  149.2038  139.4343  154.3146 C   0  0  0  0  0  0  0  0  0  0  0  0
  148.4714  138.6111  153.4154 N   0  0  0  0  0  0  0  0  0  0  0  0
  147.1413  138.5686  153.2313 C   0  0  0  0  0  0  0  0  0  0  0  0
  146.3183  139.2616  153.8307 O   0  0  0  0  0  0  0  0  0  0  0  0
  146.8096  137.6854  152.2786 N   0  0  0  0  0  0  0  0  0  0  0  0
  145.4499  137.4309  151.8175 C   0  0  0  0  0  0  0  0  0  0  0  0
  145.2859  135.9777  151.3341 C   0  0  0  0  0  0  0  0  0  0  0  0
  144.0951  135.2265  151.9720 C   0  0  2  0  0  0  0  0  0  0  0  0
  144.2573  135.0798  153.4978 C   0  0  0  0  0  0  0  0  0  0  0  0
  145.3337  134.0437  153.8720 C   0  0  0  0  0  0  0  0  0  0  0  0
  145.0480  132.7255  153.2529 N   0  3  2  0  0  0  0  0  0  0  0  0
  146.0117  131.6865  153.6751 C   0  0  0  0  0  0  0  0  0  0  0  0
  144.9226  132.8122  151.7766 C   0  0  0  0  0  0  0  0  0  0  0  0
  143.8387  133.8275  151.3719 C   0  0  0  0  0  0  0  0  0  0  0  0
  150.4124  138.9491  154.8696 C   0  0  0  0  0  0  0  0  0  0  0  0
  150.9608  137.5821  154.4997 C   0  0  0  0  0  0  0  0  0  0  0  0
  151.1598  139.6555  155.7460 N   0  0  0  0  0  0  0  0  0  0  0  0
  151.8898  143.4260  157.9073 H   0  0  0  0  0  0  0  0  0  0  0  0
  150.1923  143.1647  157.5217 H   0  0  0  0  0  0  0  0  0  0  0  0
  151.3585  143.5416  156.2330 H   0  0  0  0  0  0  0  0  0  0  0  0
  149.2159  142.4275  155.9668 H   0  0  0  0  0  0  0  0  0  0  0  0
  147.8277  141.1318  154.3715 H   0  0  0  0  0  0  0  0  0  0  0  0
  149.0280  138.0551  152.7829 H   0  0  0  0  0  0  0  0  0  0  0  0
  147.5487  137.1579  151.8371 H   0  0  0  0  0  0  0  0  0  0  0  0
  144.7670  137.6288  152.6439 H   0  0  0  0  0  0  0  0  0  0  0  0
  145.1999  138.1426  151.0305 H   0  0  0  0  0  0  0  0  0  0  0  0
  145.2026  135.9601  150.2478 H   0  0  0  0  0  0  0  0  0  0  0  0
  146.2055  135.4388  151.5669 H   0  0  0  0  0  0  0  0  0  0  0  0
  143.2062  135.8340  151.7965 H   0  0  0  0  0  0  0  0  0  0  0  0
  144.4938  136.0438  153.9494 H   0  0  0  0  0  0  0  0  0  0  0  0
  143.3047  134.7719  153.9308 H   0  0  0  0  0  0  0  0  0  0  0  0
  146.3213  134.3890  153.5638 H   0  0  0  0  0  0  0  0  0  0  0  0
  145.3662  133.9334  154.9567 H   0  0  0  0  0  0  0  0  0  0  0  0
  147.0200  131.9275  153.3355 H   0  0  0  0  0  0  0  0  0  0  0  0
  145.7354  130.7149  153.2643 H   0  0  0  0  0  0  0  0  0  0  0  0
  146.0288  131.5952  154.7616 H   0  0  0  0  0  0  0  0  0  0  0  0
  145.8844  133.0814  151.3382 H   0  0  0  0  0  0  0  0  0  0  0  0
  144.6627  131.8307  151.3783 H   0  0  0  0  0  0  0  0  0  0  0  0
  142.8714  133.4652  151.7228 H   0  0  0  0  0  0  0  0  0  0  0  0
  143.7553  133.8729  150.2869 H   0  0  0  0  0  0  0  0  0  0  0  0
  151.1163  137.5138  153.4227 H   0  0  0  0  0  0  0  0  0  0  0  0
  150.2621  136.8001  154.7983 H   0  0  0  0  0  0  0  0  0  0  0  0
  151.9153  137.3861  154.9900 H   0  0  0  0  0  0  0  0  0  0  0  0
  144.1447  132.4362  153.6003 H   0  0  0  0  0  0  0  0  0  0  0  0
  1  2  1  0  0  0  0
  1 23  1  0  0  0  0
  1 24  1  0  0  0  0
  1 25  1  0  0  0  0
  2  3  1  0  0  0  0
  3 22  1  0  0  0  0
  3  4  2  0  0  0  0
  4  5  1  0  0  0  0
  4 26  1  0  0  0  0
  5  6  2  0  0  0  0
  5 27  1  0  0  0  0
  6  7  1  0  0  0  0
  6 20  1  0  0  0  0
  7  8  1  0  0  0  0
  7 28  1  0  0  0  0
  8  9  2  0  0  0  0
  8 10  1  0  0  0  0
 10 11  1  0  0  0  0
 10 29  1  0  0  0  0
 11 12  1  0  0  0  0
 11 30  1  0  0  0  0
 11 31  1  0  0  0  0
 12 13  1  0  0  0  0
 12 32  1  0  0  0  0
 12 33  1  0  0  0  0
 13 19  1  0  0  0  0
 13 14  1  0  0  0  0
 13 34  1  0  0  0  0
 14 15  1  0  0  0  0
 14 35  1  0  0  0  0
 14 36  1  0  0  0  0
 15 16  1  0  0  0  0
 15 37  1  0  0  0  0
 15 38  1  0  0  0  0
 16 17  1  0  0  0  0
 16 18  1  0  0  0  0
 16 49  1  0  0  0  0
 17 39  1  0  0  0  0
 17 40  1  0  0  0  0
 17 41  1  0  0  0  0
 18 19  1  0  0  0  0
 18 42  1  0  0  0  0
 18 43  1  0  0  0  0
 19 44  1  0  0  0  0
 19 45  1  0  0  0  0
 20 21  1  0  0  0  0
 20 22  2  0  0  0  0
 21 46  1  0  0  0  0
 21 47  1  0  0  0  0
 21 48  1  0  0  0  0
M  CHG  1  16   1
M  END
> <s_m_source_file>
AV-unprocessed.smi

> <i_m_source_file_index>
896

> <i_lp_mmshare_version>
43012

> <i_f3d_flags>
0

> <s_epik_input>
W0NIM11PYzFbY0hdW2NIXWMoYyhuMSlbQ0gzXSlbTkhdQyg9TylbTkhdW0NIMl1bQ0gyXVtDSF0yW0NIMl1bQ0gyXU4oW0NIM10pW0NIMl1bQ0gyXTI=

> <s_epik_cmdline>
J2VwaWtfcHl0aG9uJywgJy1waCcsICc3LjAnLCAnLXRuJywgJzgnLCAnLW1hJywgJzIwMCcsICctbWV0YWxfYmluZGluZycsICctaW1hZScsICc8aW5maWxlLm1hZT4nLCAnLW9tYWUnLCAnPG91dGZpbGUubWFlPic=

> <r_lp_tautomer_probability>
1

> <r_epik_Ionization_Penalty>
0.000968128

> <r_epik_Ionization_Penalty_Charging>
0.000718523

> <r_epik_Ionization_Penalty_Neutral>
0.000249604

> <r_epik_State_Penalty>
0.00045807

> <r_epik_Charging_Adjusted_Penalty>
0.00117659

> <i_epik_Tot_Q>
1

> <i_epik_Tot_abs_Q>
1

> <r_epik_Metal_State_Penalty>
-0

> <b_epik_Metal_Only>
0

> <s_lp_Force_Field>
OPLS_2005

> <r_lp_Energy>
21.0963

> <b_lp_Chiralities_Consistent>
1

> <s_lp_Variant>
AV-unprocessed.smi:896-2

> <Gold.Version>
5.8.1

> <Gold.Id.Protein>
6NUR|6NUR_protein|mol2

> <Gold.PLP.Fitness>
43.5268

> <Gold.PLP.PLP>
-33.9687

> <Gold.PLP.part.hbond>
-4.0000

> <Gold.PLP.part.metal>
0.0000

> <Gold.PLP.part.buried>
-2.2766

> <Gold.PLP.part.nonpolar>
-29.9407

> <Gold.PLP.part.repulsive>
0.3254

> <Gold.PLP.ligand.clash>
0.0548

> <Gold.PLP.ligand.torsion>
0.9231

> <Gold.PLP.Chemscore.Hbond>
3.8000

> <Gold.PLP.Chemscore.CHOScore>
0.0000

> <Gold.PLP.Chemscore.Metal>
0.0000

> <Gold.Chemscore.Hbonds>
donor molecule, donor type, donor heavy atom, donor atom, acceptor molecule, acceptor atom, score
      L1  H     7    28       P1  7948  0.82
      L1  H    10    29       P1  7948  1.00
      L1  H    16    49       P1 10957  2.00

> <Gold.PLP.Chemscore.Internal.Correction>
0.0591

> <Gold.Rescore>
     Score         DG    S(hbond)    S(metal)    S(lipo)     H(rot)  DE(clash)    DE(int)     intcor
     16.33     -19.70       2.76        0.00      78.94       1.65       1.62       1.75       ----

> <Gold.Chemscore.Fitness>
16.3288

> <Gold.Chemscore.DG>
-19.6956

> <Gold.Chemscore.ZeroCoef>
-5.4800

> <Gold.Chemscore.Hbond>
2.7573

> <Gold.Chemscore.Metal>
0.0000

> <Gold.Chemscore.Lipo>
78.9382

> <Gold.Chemscore.Internal_Hbond>
0.0000

> <Gold.Chemscore.DEClash>
1.6214

> <Gold.Chemscore.DEInternal>
1.7454

> <Gold.Chemscore.Rot>
1.6521

> <Gold.Chemscore.Internal.Correction>
   9.000000E+99

> <Gold.Chemscore.Hbonds>
donor molecule, donor type, donor heavy atom, donor atom, acceptor molecule, acceptor atom, score
      L1  H     7    28       P1  7948  0.75
      L1  H    10    29       P1  7948  0.98
      L1  H    16    49       P1 10957  0.25

> <Gold.Chemscore.Hbond.Weighted>
-9.2092

> <Gold.Chemscore.Metal.Weighted>
-0.0000

> <Gold.Chemscore.Lipo.Weighted>
-9.2358

> <Gold.Chemscore.Internal_Hbond.Weighted>
0.0000

> <Gold.Chemscore.DEClash.Weighted>
1.6214

> <Gold.Chemscore.DEInternal.Weighted>
1.7454

> <Gold.Chemscore.Rot.Weighted>
4.2294

> <Gold.Chemscore.Internal.Correction.Weighted>
   9.000000E+99

> <Gold.Protein.RotatedTorsions>
[ 6907 6896 6895 6894 ] final  -97.86 input  -60.11 | X-H torsion
[ 7974 7965 7964 7962 ] final  -55.18 input  175.53 | X-H torsion
[ 8008 7997 7996 7995 ] final  -71.94 input   59.86 | X-H torsion
[ 10167 10162 10161 10158 ] final  -64.14 input  -65.29 | X-H torsion
[ 10718 10713 10712 10709 ] final    5.74 input   66.30 | X-H torsion
[ 10763 10752 10751 10750 ] final   59.79 input  -60.55 | X-H torsion
[ 11005 11000 10999 10996 ] final  -78.43 input  -57.11 | X-H torsion

> <Gold.Protein.ActiveResidues>
 VAL166  LYS551  ARG553  GLY616  TRP617  ASP618  TYR619  PRO620  LYS621  CYS622 
 ASP623  PHE694  ASN695  SER759  ASP760  ASP761  ALA762  ILE779  LEU786  VAL792 
 PHE793  MET794  SER795  GLU796  ALA797  LYS798  CYS799  TRP800  GLU811  SER814 

> <Gold.Protein.RotatedAtoms>
  150.7029  134.1283  159.4059 H   0  0  0  0  0  0  0  0  0  0  0  0  # atno 6907 bound_to 6896
  151.9269  135.0271  160.0535 H   0  0  0  0  0  0  0  0  0  0  0  0  # atno 6908 bound_to 6896
  152.2209  133.4947  159.5198 H   0  0  0  0  0  0  0  0  0  0  0  0  # atno 6909 bound_to 6896
  145.8772  140.8172  142.9858 H   0  0  0  0  0  0  0  0  0  0  0  0  # atno 7974 bound_to 7965
  154.5127  140.0806  156.8022 H   0  0  0  0  0  0  0  0  0  0  0  0  # atno 8008 bound_to 7997
  155.3748  140.3425  155.4226 H   0  0  0  0  0  0  0  0  0  0  0  0  # atno 8009 bound_to 7997
  156.1592  140.1583  156.8628 H   0  0  0  0  0  0  0  0  0  0  0  0  # atno 8010 bound_to 7997
  140.5822  143.2329  151.6318 H   0  0  0  0  0  0  0  0  0  0  0  0  # atno 10167 bound_to 10162
  156.9119  130.5759  149.5647 H   0  0  0  0  0  0  0  0  0  0  0  0  # atno 10718 bound_to 10713
  152.9903  135.5559  154.5770 H   0  0  0  0  0  0  0  0  0  0  0  0  # atno 10763 bound_to 10752
  154.5159  135.2805  155.1306 H   0  0  0  0  0  0  0  0  0  0  0  0  # atno 10764 bound_to 10752
  154.2679  135.6368  153.5352 H   0  0  0  0  0  0  0  0  0  0  0  0  # atno 10765 bound_to 10752
  141.1664  133.7063  156.7970 H   0  0  0  0  0  0  0  0  0  0  0  0  # atno 11005 bound_to 11000
  144.6726  140.1328  143.7442 LP  0  0  0  0  0  0  0  0  0  0  0  0  # atno 17320 bound_to 7965
  145.9067  139.2462  143.1461 LP  0  0  0  0  0  0  0  0  0  0  0  0  # atno 17321 bound_to 7965
  139.5176  144.3309  152.0827 LP  0  0  0  0  0  0  0  0  0  0  0  0  # atno 17342 bound_to 10162
  140.2461  144.4218  150.6240 LP  0  0  0  0  0  0  0  0  0  0  0  0  # atno 17343 bound_to 10162
  156.0532  130.5598  150.9034 LP  0  0  0  0  0  0  0  0  0  0  0  0  # atno 17370 bound_to 10713
  157.5962  131.0943  150.9037 LP  0  0  0  0  0  0  0  0  0  0  0  0  # atno 17371 bound_to 10713
  140.2284  134.8705  157.3450 LP  0  0  0  0  0  0  0  0  0  0  0  0  # atno 17394 bound_to 11000
  140.1916  134.4364  155.7712 LP  0  0  0  0  0  0  0  0  0  0  0  0  # atno 17395 bound_to 11000

$$$$
