AV-unprocessed.smi:2439|AV-procd|sdf|9610|dock4
  -GOLD-   2272013243D 1   1.00000     0.00000
 Structure written by MMmdl.
 41 43  0  0  0  0  0  0  0  0  2 V2000
  156.4820  137.8064  165.3607 N   0  0  0  0  0  0  0  0  0  0  0  0
  156.1826  138.9237  165.3398 C   0  0  0  0  0  0  0  0  0  0  0  0
  155.8045  140.3316  165.3122 C   0  0  0  0  0  0  0  0  0  0  0  0
  155.7556  141.0495  166.5255 C   0  0  0  0  0  0  0  0  0  0  0  0
  155.3873  142.4069  166.5046 C   0  0  0  0  0  0  0  0  0  0  0  0
  155.0827  142.9952  165.2639 C   0  0  0  0  0  0  0  0  0  0  0  0
  155.1251  142.3203  164.0962 N   0  0  0  0  0  0  0  0  0  0  0  0
  155.4789  141.0114  164.1075 C   0  0  0  0  0  0  0  0  0  0  0  0
  155.5182  140.3335  162.8746 N   0  0  0  0  0  0  0  0  0  0  0  0
  154.3784  140.3112  161.9654 C   0  0  0  0  0  0  0  0  0  0  0  0
  154.0008  141.7143  161.4612 C   0  0  1  0  0  0  0  0  0  0  0  0
  153.2943  141.6532  160.0953 C   0  0  0  0  0  0  0  0  0  0  0  0
  152.8794  143.0080  159.6638 N   0  3  1  0  0  0  0  0  0  0  0  0
  152.2323  143.0029  158.3275 C   0  0  0  0  0  0  0  0  0  0  0  0
  151.9008  144.4319  157.8688 C   0  0  0  0  0  0  0  0  0  0  0  0
  151.0238  145.1475  158.9041 C   0  0  0  0  0  0  0  0  0  0  0  0
  151.7017  145.1144  160.2805 C   0  0  0  0  0  0  0  0  0  0  0  0
  152.0433  143.6711  160.7013 C   0  0  2  0  0  0  0  0  0  0  0  0
  152.7704  143.6404  162.0601 C   0  0  0  0  0  0  0  0  0  0  0  0
  153.1053  142.3009  162.3998 O   0  0  0  0  0  0  0  0  0  0  0  0
  155.9963  140.5704  167.4640 H   0  0  0  0  0  0  0  0  0  0  0  0
  155.3403  142.9829  167.4169 H   0  0  0  0  0  0  0  0  0  0  0  0
  154.7958  144.0347  165.2069 H   0  0  0  0  0  0  0  0  0  0  0  0
  156.3174  139.7562  162.6543 H   0  0  0  0  0  0  0  0  0  0  0  0
  154.5991  139.6510  161.1258 H   0  0  0  0  0  0  0  0  0  0  0  0
  153.5306  139.8643  162.4853 H   0  0  0  0  0  0  0  0  0  0  0  0
  154.8979  142.3294  161.3736 H   0  0  0  0  0  0  0  0  0  0  0  0
  153.9659  141.2246  159.3502 H   0  0  0  0  0  0  0  0  0  0  0  0
  152.4197  141.0029  160.1518 H   0  0  0  0  0  0  0  0  0  0  0  0
  152.8975  142.5324  157.6023 H   0  0  0  0  0  0  0  0  0  0  0  0
  151.3235  142.3998  158.3628 H   0  0  0  0  0  0  0  0  0  0  0  0
  152.8242  144.9928  157.7182 H   0  0  0  0  0  0  0  0  0  0  0  0
  151.3930  144.4056  156.9043 H   0  0  0  0  0  0  0  0  0  0  0  0
  150.8436  146.1783  158.5975 H   0  0  0  0  0  0  0  0  0  0  0  0
  150.0485  144.6625  158.9610 H   0  0  0  0  0  0  0  0  0  0  0  0
  152.6112  145.7164  160.2512 H   0  0  0  0  0  0  0  0  0  0  0  0
  151.0497  145.5767  161.0225 H   0  0  0  0  0  0  0  0  0  0  0  0
  151.1138  143.1066  160.7978 H   0  0  0  0  0  0  0  0  0  0  0  0
  153.6712  144.2561  162.0398 H   0  0  0  0  0  0  0  0  0  0  0  0
  152.1270  144.0465  162.8410 H   0  0  0  0  0  0  0  0  0  0  0  0
  153.7231  143.5564  159.5768 H   0  0  0  0  0  0  0  0  0  0  0  0
  1  2  3  0  0  0  0
  2  3  1  0  0  0  0
  3  8  1  0  0  0  0
  3  4  2  0  0  0  0
  4  5  1  0  0  0  0
  4 21  1  0  0  0  0
  5  6  2  0  0  0  0
  5 22  1  0  0  0  0
  6  7  1  0  0  0  0
  6 23  1  0  0  0  0
  7  8  2  0  0  0  0
  8  9  1  0  0  0  0
  9 10  1  0  0  0  0
  9 24  1  0  0  0  0
 10 11  1  0  0  0  0
 10 25  1  0  0  0  0
 10 26  1  0  0  0  0
 11 20  1  0  0  0  0
 11 12  1  0  0  0  0
 11 27  1  0  0  0  0
 12 13  1  0  0  0  0
 12 28  1  0  0  0  0
 12 29  1  0  0  0  0
 13 18  1  0  0  0  0
 13 14  1  0  0  0  0
 13 41  1  0  0  0  0
 14 15  1  0  0  0  0
 14 30  1  0  0  0  0
 14 31  1  0  0  0  0
 15 16  1  0  0  0  0
 15 32  1  0  0  0  0
 15 33  1  0  0  0  0
 16 17  1  0  0  0  0
 16 34  1  0  0  0  0
 16 35  1  0  0  0  0
 17 18  1  0  0  0  0
 17 36  1  0  0  0  0
 17 37  1  0  0  0  0
 18 19  1  0  0  0  0
 18 38  1  0  0  0  0
 19 20  1  0  0  0  0
 19 39  1  0  0  0  0
 19 40  1  0  0  0  0
M  CHG  1  13   1
M  END
> <s_m_source_file>
AV-unprocessed.smi

> <i_m_source_file_index>
2439

> <i_lp_mmshare_version>
43012

> <i_f3d_flags>
0

> <s_epik_input>
TiNDYzFbY0hdW2NIXVtjSF1uYzFbTkhdW0NIMl1bQ0BIXShbQ0gyXTIpT1tDSDJdW0NAQEhdKE4yMylbQ0gyXVtDSDJdW0NIMl1bQ0gyXTM=

> <s_epik_cmdline>
J2VwaWtfcHl0aG9uJywgJy1waCcsICc3LjAnLCAnLXRuJywgJzgnLCAnLW1hJywgJzIwMCcsICctbWV0YWxfYmluZGluZycsICctaW1hZScsICc8aW5maWxlLm1hZT4nLCAnLW9tYWUnLCAnPG91dGZpbGUubWFlPic=

> <r_epik_Ionization_Penalty>
0.0803594

> <r_epik_Ionization_Penalty_Charging>
0.0803403

> <r_epik_Ionization_Penalty_Neutral>
1.90988e-05

> <r_epik_State_Penalty>
0.0711481

> <r_epik_Charging_Adjusted_Penalty>
0.151488

> <i_epik_Tot_Q>
1

> <i_epik_Tot_abs_Q>
1

> <r_epik_Metal_State_Penalty>
0.0711482

> <b_epik_Metal_Only>
0

> <s_lp_Force_Field>
OPLS_2005

> <r_lp_Energy>
27.3027

> <b_lp_Chiralities_Consistent>
1

> <s_lp_Variant>
AV-unprocessed.smi:2439-8

> <Gold.Version>
5.8.1

> <Gold.Id.Protein>
6NUR|6NUR_protein|mol2

> <Gold.PLP.Fitness>
47.2593

> <Gold.PLP.PLP>
-48.8502

> <Gold.PLP.part.hbond>
-1.8283

> <Gold.PLP.part.metal>
0.0000

> <Gold.PLP.part.buried>
-6.6407

> <Gold.PLP.part.nonpolar>
-39.2158

> <Gold.PLP.part.repulsive>
0.1680

> <Gold.PLP.ligand.clash>
0.0000

> <Gold.PLP.ligand.torsion>
0.7963

> <Gold.PLP.Chemscore.Hbond>
0.0000

> <Gold.PLP.Chemscore.CHOScore>
0.0000

> <Gold.PLP.Chemscore.Metal>
0.0000

> <Gold.PLP.Chemscore.Internal.Correction>
0.0017

> <Gold.Rescore>
     Score         DG    S(hbond)    S(metal)    S(lipo)     H(rot)  DE(clash)    DE(int)     intcor
     12.82     -16.80       0.00        0.00     124.46       1.27       0.39       3.59       ----

> <Gold.Chemscore.Fitness>
12.8232

> <Gold.Chemscore.DG>
-16.8012

> <Gold.Chemscore.ZeroCoef>
-5.4800

> <Gold.Chemscore.Hbond>
0.0000

> <Gold.Chemscore.Metal>
0.0000

> <Gold.Chemscore.Lipo>
124.4614

> <Gold.Chemscore.Internal_Hbond>
0.0000

> <Gold.Chemscore.DEClash>
0.3922

> <Gold.Chemscore.DEInternal>
3.5859

> <Gold.Chemscore.Rot>
1.2659

> <Gold.Chemscore.Internal.Correction>
   9.000000E+99

> <Gold.Chemscore.Hbond.Weighted>
-0.0000

> <Gold.Chemscore.Metal.Weighted>
-0.0000

> <Gold.Chemscore.Lipo.Weighted>
-14.5620

> <Gold.Chemscore.Internal_Hbond.Weighted>
0.0000

> <Gold.Chemscore.DEClash.Weighted>
0.3922

> <Gold.Chemscore.DEInternal.Weighted>
3.5859

> <Gold.Chemscore.Rot.Weighted>
3.2408

> <Gold.Chemscore.Internal.Correction.Weighted>
   9.000000E+99

> <Gold.Protein.RotatedTorsions>
[ 6907 6896 6895 6894 ] final  -53.57 input  -60.11 | X-H torsion
[ 7974 7965 7964 7962 ] final  -81.59 input  175.53 | X-H torsion
[ 8008 7997 7996 7995 ] final  -35.75 input   59.86 | X-H torsion
[ 10167 10162 10161 10158 ] final  -14.98 input  -65.29 | X-H torsion
[ 10718 10713 10712 10709 ] final   66.94 input   66.30 | X-H torsion
[ 10763 10752 10751 10750 ] final -160.80 input  -60.55 | X-H torsion
[ 11005 11000 10999 10996 ] final  127.84 input  -57.11 | X-H torsion

> <Gold.Protein.ActiveResidues>
 VAL166  LYS551  ARG553  GLY616  TRP617  ASP618  TYR619  PRO620  LYS621  CYS622 
 ASP623  PHE694  ASN695  SER759  ASP760  ASP761  ALA762  ILE779  LEU786  VAL792 
 PHE793  MET794  SER795  GLU796  ALA797  LYS798  CYS799  TRP800  GLU811  SER814 

> <Gold.Protein.RotatedAtoms>
  150.8415  134.7708  159.6935 H   0  0  0  0  0  0  0  0  0  0  0  0  # atno 6907 bound_to 6896
  152.4501  134.5408  159.9848 H   0  0  0  0  0  0  0  0  0  0  0  0  # atno 6908 bound_to 6896
  151.5547  133.3374  159.2995 H   0  0  0  0  0  0  0  0  0  0  0  0  # atno 6909 bound_to 6896
  145.5447  140.9505  143.1532 H   0  0  0  0  0  0  0  0  0  0  0  0  # atno 7974 bound_to 7965
  154.4088  140.1649  156.2262 H   0  0  0  0  0  0  0  0  0  0  0  0  # atno 8008 bound_to 7997
  155.9321  140.3414  155.6235 H   0  0  0  0  0  0  0  0  0  0  0  0  # atno 8009 bound_to 7997
  155.7093  140.0754  157.2368 H   0  0  0  0  0  0  0  0  0  0  0  0  # atno 8010 bound_to 7997
  140.7211  143.5265  150.9571 H   0  0  0  0  0  0  0  0  0  0  0  0  # atno 10167 bound_to 10162
  157.6200  130.9294  150.0176 H   0  0  0  0  0  0  0  0  0  0  0  0  # atno 10718 bound_to 10713
  154.7359  135.3057  154.8812 H   0  0  0  0  0  0  0  0  0  0  0  0  # atno 10763 bound_to 10752
  153.9640  135.6749  153.4750 H   0  0  0  0  0  0  0  0  0  0  0  0  # atno 10764 bound_to 10752
  153.0962  135.4934  154.8706 H   0  0  0  0  0  0  0  0  0  0  0  0  # atno 10765 bound_to 10752
  139.9528  134.9619  156.8913 H   0  0  0  0  0  0  0  0  0  0  0  0  # atno 11005 bound_to 11000
  144.7559  139.7075  143.7254 LP  0  0  0  0  0  0  0  0  0  0  0  0  # atno 17320 bound_to 7965
  146.1958  139.5223  142.9776 LP  0  0  0  0  0  0  0  0  0  0  0  0  # atno 17321 bound_to 7965
  139.8984  143.6866  152.3135 LP  0  0  0  0  0  0  0  0  0  0  0  0  # atno 17342 bound_to 10162
  139.7207  144.7603  151.0960 LP  0  0  0  0  0  0  0  0  0  0  0  0  # atno 17343 bound_to 10162
  156.1340  130.3643  149.9686 LP  0  0  0  0  0  0  0  0  0  0  0  0  # atno 17370 bound_to 10713
  156.7741  130.9197  151.3645 LP  0  0  0  0  0  0  0  0  0  0  0  0  # atno 17371 bound_to 10713
  140.5678  134.0473  155.7420 LP  0  0  0  0  0  0  0  0  0  0  0  0  # atno 17394 bound_to 11000
  141.1195  133.9485  157.2758 LP  0  0  0  0  0  0  0  0  0  0  0  0  # atno 17395 bound_to 11000

$$$$
