AV-unprocessed.smi:287|AV-procd|sdf|2208|dock2
  -GOLD-   2262022 43D 1   1.00000     0.00000
 Structure written by MMmdl.
 55 58  0  0  0  0  0  0  0  0  1 V2000
  137.7495  137.0553  154.1909 C   0  0  0  0  0  0  0  0  0  0  0  0
  138.8213  138.0569  154.4540 C   0  0  0  0  0  0  0  0  0  0  0  0
  140.0076  138.0172  155.1271 C   0  0  0  0  0  0  0  0  0  0  0  0
  140.5958  139.3139  155.0319 C   0  0  0  0  0  0  0  0  0  0  0  0
  141.9315  139.7467  155.6237 C   0  0  2  0  0  0  0  0  0  0  0  0
  141.7988  140.0112  157.1348 C   0  0  0  0  0  0  0  0  0  0  0  0
  142.3909  140.9722  155.0867 O   0  0  0  0  0  0  0  0  0  0  0  0
  143.0471  138.7090  155.3671 C   0  0  0  0  0  0  0  0  0  0  0  0
  143.3763  138.5611  153.9554 N   0  0  0  0  0  0  0  0  0  0  0  0
  143.3970  137.3456  153.3693 C   0  0  0  0  0  0  0  0  0  0  0  0
  142.4017  136.5051  153.7394 N   0  0  0  0  0  0  0  0  0  0  0  0
  142.3277  135.2794  153.2144 C   0  0  0  0  0  0  0  0  0  0  0  0
  143.1326  134.7068  152.3186 N   0  0  0  0  0  0  0  0  0  0  0  0
  144.1423  135.5436  151.9412 C   0  0  0  0  0  0  0  0  0  0  0  0
  144.3480  136.8716  152.4165 C   0  0  0  0  0  0  0  0  0  0  0  0
  145.4797  137.4045  151.8076 N   0  0  0  0  0  0  0  0  0  0  0  0
  145.9072  136.4524  151.0244 C   0  0  0  0  0  0  0  0  0  0  0  0
  145.1582  135.2985  151.0389 N   0  0  0  0  0  0  0  0  0  0  0  0
  145.3966  134.0515  150.2498 C   0  0  1  0  0  0  0  0  0  0  0  0
  146.0497  133.1334  151.0721 O   0  0  0  0  0  0  0  0  0  0  0  0
  145.4942  131.8376  150.8796 C   0  0  1  0  0  0  0  0  0  0  0  0
  145.7440  130.9774  152.1282 C   0  0  0  0  0  0  0  0  0  0  0  0
  147.1299  130.7894  152.3197 O   0  0  0  0  0  0  0  0  0  0  0  0
  144.0161  132.1465  150.6344 C   0  0  2  0  0  0  0  0  0  0  0  0
  143.3236  131.0881  149.9969 O   0  0  0  0  0  0  0  0  0  0  0  0
  144.0669  133.4244  149.8004 C   0  0  2  0  0  0  0  0  0  0  0  0
  144.0844  133.1554  148.4102 O   0  0  0  0  0  0  0  0  0  0  0  0
  139.7068  140.0459  154.2815 C   0  0  0  0  0  0  0  0  0  0  0  0
  139.6882  141.4514  153.7782 C   0  0  0  0  0  0  0  0  0  0  0  0
  138.6269  139.2933  153.9320 O   0  0  0  0  0  0  0  0  0  0  0  0
  146.0392  134.3610  149.4238 H   0  0  0  0  0  0  0  0  0  0  0  0
  145.9295  131.3845  149.9863 H   0  0  0  0  0  0  0  0  0  0  0  0
  143.5235  132.3570  151.5837 H   0  0  0  0  0  0  0  0  0  0  0  0
  143.2232  134.0810  150.0192 H   0  0  0  0  0  0  0  0  0  0  0  0
  138.0158  136.0822  154.6041 H   0  0  0  0  0  0  0  0  0  0  0  0
  137.5870  136.9347  153.1197 H   0  0  0  0  0  0  0  0  0  0  0  0
  136.8087  137.3686  154.6435 H   0  0  0  0  0  0  0  0  0  0  0  0
  140.4081  137.1516  155.6335 H   0  0  0  0  0  0  0  0  0  0  0  0
  141.5014  139.1123  157.6755 H   0  0  0  0  0  0  0  0  0  0  0  0
  141.0526  140.7801  157.3395 H   0  0  0  0  0  0  0  0  0  0  0  0
  142.7434  140.3462  157.5655 H   0  0  0  0  0  0  0  0  0  0  0  0
  142.4967  140.8698  154.1534 H   0  0  0  0  0  0  0  0  0  0  0  0
  143.9384  138.9523  155.9472 H   0  0  0  0  0  0  0  0  0  0  0  0
  142.6992  137.7341  155.7110 H   0  0  0  0  0  0  0  0  0  0  0  0
  143.6369  139.4115  153.4770 H   0  0  0  0  0  0  0  0  0  0  0  0
  141.5050  134.6714  153.5604 H   0  0  0  0  0  0  0  0  0  0  0  0
  146.7855  136.5688  150.4059 H   0  0  0  0  0  0  0  0  0  0  0  0
  145.2938  131.4259  153.0146 H   0  0  0  0  0  0  0  0  0  0  0  0
  145.2962  129.9913  152.0019 H   0  0  0  0  0  0  0  0  0  0  0  0
  147.5406  130.6965  151.4736 H   0  0  0  0  0  0  0  0  0  0  0  0
  142.3954  131.2513  150.0672 H   0  0  0  0  0  0  0  0  0  0  0  0
  144.9191  133.4355  148.0659 H   0  0  0  0  0  0  0  0  0  0  0  0
  139.5944  142.1557  154.6046 H   0  0  0  0  0  0  0  0  0  0  0  0
  138.8507  141.6169  153.0997 H   0  0  0  0  0  0  0  0  0  0  0  0
  140.6072  141.6810  153.2385 H   0  0  0  0  0  0  0  0  0  0  0  0
  1  2  1  0  0  0  0
  1 35  1  0  0  0  0
  1 36  1  0  0  0  0
  1 37  1  0  0  0  0
  2 30  1  0  0  0  0
  2  3  2  0  0  0  0
  3  4  1  0  0  0  0
  3 38  1  0  0  0  0
  4  5  1  0  0  0  0
  4 28  2  0  0  0  0
  5  6  1  0  0  0  0
  5  7  1  0  0  0  0
  5  8  1  0  0  0  0
  6 39  1  0  0  0  0
  6 40  1  0  0  0  0
  6 41  1  0  0  0  0
  7 42  1  0  0  0  0
  8  9  1  0  0  0  0
  8 43  1  0  0  0  0
  8 44  1  0  0  0  0
  9 10  1  0  0  0  0
  9 45  1  0  0  0  0
 10 15  1  0  0  0  0
 10 11  2  0  0  0  0
 11 12  1  0  0  0  0
 12 13  2  0  0  0  0
 12 46  1  0  0  0  0
 13 14  1  0  0  0  0
 14 18  1  0  0  0  0
 14 15  2  0  0  0  0
 15 16  1  0  0  0  0
 16 17  2  0  0  0  0
 17 18  1  0  0  0  0
 17 47  1  0  0  0  0
 18 19  1  0  0  0  0
 19 31  1  0  0  0  0
 19 26  1  0  0  0  0
 19 20  1  0  0  0  0
 20 21  1  0  0  0  0
 21 32  1  0  0  0  0
 21 22  1  0  0  0  0
 21 24  1  0  0  0  0
 22 23  1  0  0  0  0
 22 48  1  0  0  0  0
 22 49  1  0  0  0  0
 23 50  1  0  0  0  0
 24 33  1  0  0  0  0
 24 25  1  0  0  0  0
 24 26  1  0  0  0  0
 25 51  1  0  0  0  0
 26 34  1  0  0  0  0
 26 27  1  0  0  0  0
 27 52  1  0  0  0  0
 28 29  1  0  0  0  0
 28 30  1  0  0  0  0
 29 53  1  0  0  0  0
 29 54  1  0  0  0  0
 29 55  1  0  0  0  0
M  END
> <s_m_source_file>
AV-unprocessed.smi

> <i_m_source_file_index>
287

> <i_lp_mmshare_version>
43012

> <i_f3d_flags>
0

> <s_epik_input>
W0NIM11jMVtjSF1jKGMobzEpW0NIM10pW0NAQF0oW0NIM10pKFtPSF0pW0NIMl1bTkhdYyhuW2NIXW4yKWMoYzIzKW5bY0hdbjNbQ0BASF00T1tDQEhdKFtDSDJdW09IXSlbQ0BASF0oW09IXSlbQ0BIXTRbT0hd

> <s_epik_cmdline>
J2VwaWtfcHl0aG9uJywgJy1waCcsICc3LjAnLCAnLXRuJywgJzgnLCAnLW1hJywgJzIwMCcsICctbWV0YWxfYmluZGluZycsICctaW1hZScsICc8aW5maWxlLm1hZT4nLCAnLW9tYWUnLCAnPG91dGZpbGUubWFlPic=

> <r_lp_tautomer_probability>
1

> <r_epik_Ionization_Penalty>
0.000992612

> <r_epik_Ionization_Penalty_Charging>
0

> <r_epik_Ionization_Penalty_Neutral>
0.000992612

> <r_epik_State_Penalty>
-0

> <r_epik_Charging_Adjusted_Penalty>
0

> <i_epik_Tot_Q>
0

> <i_epik_Tot_abs_Q>
0

> <r_epik_Metal_State_Penalty>
-0

> <b_epik_Metal_Only>
0

> <s_epik_Chemistry_Notes>
This compound contains an acetal/aminal-like group ( X-CH(R)-Y where X, Y are N, S, or O) that may be acid/base labile, releasing an aldehyde.

> <s_lp_Force_Field>
OPLS_2005

> <r_lp_Energy>
44.724

> <b_lp_Chiralities_Consistent>
1

> <s_lp_Variant>
AV-unprocessed.smi:287-32

> <Gold.Version>
5.8.1

> <Gold.Id.Protein>
6NUR|6NUR_protein|mol2

> <Gold.PLP.Fitness>
53.5901

> <Gold.PLP.PLP>
-37.9402

> <Gold.PLP.part.hbond>
-6.1914

> <Gold.PLP.part.metal>
0.0000

> <Gold.PLP.part.buried>
-3.8207

> <Gold.PLP.part.nonpolar>
-31.0479

> <Gold.PLP.part.repulsive>
1.4740

> <Gold.PLP.ligand.clash>
0.0000

> <Gold.PLP.ligand.torsion>
1.5896

> <Gold.PLP.Chemscore.Hbond>
5.5088

> <Gold.PLP.Chemscore.CHOScore>
0.7025

> <Gold.PLP.Chemscore.Metal>
0.0000

> <Gold.Chemscore.Hbonds>
donor molecule, donor type, donor heavy atom, donor atom, acceptor molecule, acceptor atom, score
      L1  H     7    42       P1 10175  1.00
      L1  H     9    45       P1 10175  0.76
      L1  H    23    50       P1 10747  1.00
      L1  H    25    51       P1 10952  0.74
      L1  H    27    52       P1  7921  1.00
      P1  H 10785 10796       L1    25  0.70
      L1  C    17    47       P1  7948  0.56

> <Gold.PLP.Chemscore.Internal.Correction>
0.1955

> <Gold.Rescore>
     Score         DG    S(hbond)    S(metal)    S(lipo)     H(rot)  DE(clash)    DE(int)     intcor
     10.07     -15.46       4.52        0.00      71.48       5.27       1.84       3.54       ----

> <Gold.Chemscore.Fitness>
10.0732

> <Gold.Chemscore.DG>
-15.4593

> <Gold.Chemscore.ZeroCoef>
-5.4800

> <Gold.Chemscore.Hbond>
4.5210

> <Gold.Chemscore.Metal>
0.0000

> <Gold.Chemscore.Lipo>
71.4782

> <Gold.Chemscore.Internal_Hbond>
0.0000

> <Gold.Chemscore.DEClash>
1.8414

> <Gold.Chemscore.DEInternal>
3.5447

> <Gold.Chemscore.Rot>
5.2672

> <Gold.Chemscore.Internal.Correction>
   9.000000E+99

> <Gold.Chemscore.Hbonds>
donor molecule, donor type, donor heavy atom, donor atom, acceptor molecule, acceptor atom, score
      L1  H     7    42       P1 10175  0.32
      L1  H     9    45       P1 10175  0.74
      L1  H    23    50       P1 10747  0.98
      L1  H    25    51       P1 10952  0.63
      L1  H    27    52       P1  7921  0.67
      P1  H 10785 10796       L1    25  0.08

> <Gold.Chemscore.Hbond.Weighted>
-15.1002

> <Gold.Chemscore.Metal.Weighted>
-0.0000

> <Gold.Chemscore.Lipo.Weighted>
-8.3629

> <Gold.Chemscore.Internal_Hbond.Weighted>
0.0000

> <Gold.Chemscore.DEClash.Weighted>
1.8414

> <Gold.Chemscore.DEInternal.Weighted>
3.5447

> <Gold.Chemscore.Rot.Weighted>
13.4839

> <Gold.Chemscore.Internal.Correction.Weighted>
   9.000000E+99

> <Gold.Protein.RotatedTorsions>
[ 6907 6896 6895 6894 ] final -127.97 input  -60.11 | X-H torsion
[ 7974 7965 7964 7962 ] final   20.20 input  175.53 | X-H torsion
[ 8008 7997 7996 7995 ] final   10.70 input   59.86 | X-H torsion
[ 10167 10162 10161 10158 ] final -114.18 input  -65.29 | X-H torsion
[ 10718 10713 10712 10709 ] final  169.96 input   66.30 | X-H torsion
[ 10763 10752 10751 10750 ] final   43.96 input  -60.55 | X-H torsion
[ 11005 11000 10999 10996 ] final   23.05 input  -57.11 | X-H torsion

> <Gold.Protein.ActiveResidues>
 VAL166  LYS551  ARG553  GLY616  TRP617  ASP618  TYR619  PRO620  LYS621  CYS622 
 ASP623  PHE694  ASN695  SER759  ASP760  ASP761  ALA762  ILE779  LEU786  VAL792 
 PHE793  MET794  SER795  GLU796  ALA797  LYS798  CYS799  TRP800  GLU811  SER814 

> <Gold.Protein.RotatedAtoms>
  150.9129  133.6974  159.2850 H   0  0  0  0  0  0  0  0  0  0  0  0  # atno 6907 bound_to 6896
  151.4455  135.1023  159.9692 H   0  0  0  0  0  0  0  0  0  0  0  0  # atno 6908 bound_to 6896
  152.4939  133.8528  159.7265 H   0  0  0  0  0  0  0  0  0  0  0  0  # atno 6909 bound_to 6896
  146.2120  139.8203  142.8681 H   0  0  0  0  0  0  0  0  0  0  0  0  # atno 7974 bound_to 7965
  154.7970  140.2845  155.5950 H   0  0  0  0  0  0  0  0  0  0  0  0  # atno 8008 bound_to 7997
  156.2972  140.2594  156.2758 H   0  0  0  0  0  0  0  0  0  0  0  0  # atno 8009 bound_to 7997
  154.9603  140.0378  157.2176 H   0  0  0  0  0  0  0  0  0  0  0  0  # atno 8010 bound_to 7997
  140.1037  143.4589  152.1796 H   0  0  0  0  0  0  0  0  0  0  0  0  # atno 10167 bound_to 10162
  157.0151  131.0215  151.2791 H   0  0  0  0  0  0  0  0  0  0  0  0  # atno 10718 bound_to 10713
  152.9850  135.6085  154.3197 H   0  0  0  0  0  0  0  0  0  0  0  0  # atno 10763 bound_to 10752
  154.2907  135.2775  155.2658 H   0  0  0  0  0  0  0  0  0  0  0  0  # atno 10764 bound_to 10752
  154.4954  135.5881  153.6547 H   0  0  0  0  0  0  0  0  0  0  0  0  # atno 10765 bound_to 10752
  140.3739  134.1993  155.7665 H   0  0  0  0  0  0  0  0  0  0  0  0  # atno 11005 bound_to 11000
  145.3103  141.0218  143.3558 LP  0  0  0  0  0  0  0  0  0  0  0  0  # atno 17320 bound_to 7965
  144.8941  139.4736  143.6664 LP  0  0  0  0  0  0  0  0  0  0  0  0  # atno 17321 bound_to 7965
  139.5657  144.7433  151.4030 LP  0  0  0  0  0  0  0  0  0  0  0  0  # atno 17342 bound_to 10162
  140.6963  143.7740  150.7332 LP  0  0  0  0  0  0  0  0  0  0  0  0  # atno 17343 bound_to 10162
  157.5291  130.8047  149.7896 LP  0  0  0  0  0  0  0  0  0  0  0  0  # atno 17370 bound_to 10713
  156.0122  130.3828  150.2227 LP  0  0  0  0  0  0  0  0  0  0  0  0  # atno 17371 bound_to 10713
  141.1946  133.8125  157.0752 LP  0  0  0  0  0  0  0  0  0  0  0  0  # atno 17394 bound_to 11000
  140.0530  134.9795  157.1171 LP  0  0  0  0  0  0  0  0  0  0  0  0  # atno 17395 bound_to 11000

$$$$
