AV-unprocessed.smi:1205|AV-procd|sdf|5040|dock4
  -GOLD-   22720 4 63D 1   1.00000     0.00000
 Structure written by MMmdl.
 49 50  0  0  0  0  0  0  0  0  2 V2000
  151.5586  142.2353  155.4660 C   0  0  0  0  0  0  0  0  0  0  0  0
  151.5141  140.7604  155.1941 C   0  0  0  0  0  0  0  0  0  0  0  0
  150.3977  139.9772  154.7800 C   0  0  0  0  0  0  0  0  0  0  0  0
  150.9289  138.7196  154.6909 C   0  0  0  0  0  0  0  0  0  0  0  0
  150.3175  137.5560  154.3431 N   0  0  0  0  0  0  0  0  0  0  0  0
  149.4913  136.7897  155.0763 C   0  0  0  0  0  0  0  0  0  0  0  0
  149.1347  137.0219  156.2317 O   0  0  0  0  0  0  0  0  0  0  0  0
  149.0816  135.7177  154.3832 N   0  0  0  0  0  0  0  0  0  0  0  0
  148.1735  134.6941  154.8910 C   0  0  0  0  0  0  0  0  0  0  0  0
  147.9787  133.5244  153.8918 C   0  0  1  0  0  0  0  0  0  0  0  0
  148.0727  132.1439  154.5694 C   0  0  0  0  0  0  0  0  0  0  0  0
  146.7222  133.6356  153.0944 N   0  3  1  0  0  0  0  0  0  0  0  0
  146.5233  134.9338  152.3939 C   0  0  0  0  0  0  0  0  0  0  0  0
  145.1031  135.0251  151.8145 C   0  0  0  0  0  0  0  0  0  0  0  0
  144.8203  133.8471  150.8728 C   0  0  0  0  0  0  0  0  0  0  0  0
  145.0668  132.5119  151.5963 C   0  0  1  0  0  0  0  0  0  0  0  0
  144.8149  131.3158  150.6677 C   0  0  0  0  0  0  0  0  0  0  0  0
  146.4910  132.4792  152.1874 C   0  0  0  0  0  0  0  0  0  0  0  0
  152.2619  138.7740  155.0330 N   0  0  0  0  0  0  0  0  0  0  0  0
  153.2425  137.7077  155.0966 C   0  0  0  0  0  0  0  0  0  0  0  0
  152.6193  140.0388  155.3430 N   0  0  0  0  0  0  0  0  0  0  0  0
  150.5877  142.6984  155.2878 H   0  0  0  0  0  0  0  0  0  0  0  0
  152.2853  142.7319  154.8232 H   0  0  0  0  0  0  0  0  0  0  0  0
  151.8360  142.4351  156.5013 H   0  0  0  0  0  0  0  0  0  0  0  0
  149.3864  140.3036  154.5900 H   0  0  0  0  0  0  0  0  0  0  0  0
  150.5039  137.2383  153.4033 H   0  0  0  0  0  0  0  0  0  0  0  0
  149.4232  135.5997  153.4404 H   0  0  0  0  0  0  0  0  0  0  0  0
  148.5982  134.3306  155.8264 H   0  0  0  0  0  0  0  0  0  0  0  0
  147.2191  135.1574  155.1446 H   0  0  0  0  0  0  0  0  0  0  0  0
  148.8010  133.5541  153.1754 H   0  0  0  0  0  0  0  0  0  0  0  0
  149.0597  131.9826  155.0032 H   0  0  0  0  0  0  0  0  0  0  0  0
  147.9041  131.3418  153.8501 H   0  0  0  0  0  0  0  0  0  0  0  0
  147.3443  132.0318  155.3722 H   0  0  0  0  0  0  0  0  0  0  0  0
  146.6809  135.7660  153.0791 H   0  0  0  0  0  0  0  0  0  0  0  0
  147.2507  135.0410  151.5884 H   0  0  0  0  0  0  0  0  0  0  0  0
  144.3742  135.0310  152.6261 H   0  0  0  0  0  0  0  0  0  0  0  0
  144.9790  135.9670  151.2795 H   0  0  0  0  0  0  0  0  0  0  0  0
  143.7923  133.8991  150.5119 H   0  0  0  0  0  0  0  0  0  0  0  0
  145.4630  133.9188  149.9943 H   0  0  0  0  0  0  0  0  0  0  0  0
  144.3577  132.4396  152.4226 H   0  0  0  0  0  0  0  0  0  0  0  0
  145.4898  131.3290  149.8114 H   0  0  0  0  0  0  0  0  0  0  0  0
  143.7933  131.3237  150.2867 H   0  0  0  0  0  0  0  0  0  0  0  0
  144.9623  130.3719  151.1934 H   0  0  0  0  0  0  0  0  0  0  0  0
  147.2300  132.4840  151.3850 H   0  0  0  0  0  0  0  0  0  0  0  0
  146.6278  131.5474  152.7379 H   0  0  0  0  0  0  0  0  0  0  0  0
  153.1843  137.0981  154.1946 H   0  0  0  0  0  0  0  0  0  0  0  0
  153.0439  137.0804  155.9660 H   0  0  0  0  0  0  0  0  0  0  0  0
  154.2499  138.1183  155.1778 H   0  0  0  0  0  0  0  0  0  0  0  0
  145.9800  133.5788  153.7772 H   0  0  0  0  0  0  0  0  0  0  0  0
  1  2  1  0  0  0  0
  1 22  1  0  0  0  0
  1 23  1  0  0  0  0
  1 24  1  0  0  0  0
  2 21  2  0  0  0  0
  2  3  1  0  0  0  0
  3  4  2  0  0  0  0
  3 25  1  0  0  0  0
  4  5  1  0  0  0  0
  4 19  1  0  0  0  0
  5  6  1  0  0  0  0
  5 26  1  0  0  0  0
  6  7  2  0  0  0  0
  6  8  1  0  0  0  0
  8  9  1  0  0  0  0
  8 27  1  0  0  0  0
  9 10  1  0  0  0  0
  9 28  1  0  0  0  0
  9 29  1  0  0  0  0
 10 11  1  0  0  0  0
 10 12  1  0  0  0  0
 10 30  1  0  0  0  0
 11 31  1  0  0  0  0
 11 32  1  0  0  0  0
 11 33  1  0  0  0  0
 12 18  1  0  0  0  0
 12 13  1  0  0  0  0
 12 49  1  0  0  0  0
 13 14  1  0  0  0  0
 13 34  1  0  0  0  0
 13 35  1  0  0  0  0
 14 15  1  0  0  0  0
 14 36  1  0  0  0  0
 14 37  1  0  0  0  0
 15 16  1  0  0  0  0
 15 38  1  0  0  0  0
 15 39  1  0  0  0  0
 16 17  1  0  0  0  0
 16 18  1  0  0  0  0
 16 40  1  0  0  0  0
 17 41  1  0  0  0  0
 17 42  1  0  0  0  0
 17 43  1  0  0  0  0
 18 44  1  0  0  0  0
 18 45  1  0  0  0  0
 19 20  1  0  0  0  0
 19 21  1  0  0  0  0
 20 46  1  0  0  0  0
 20 47  1  0  0  0  0
 20 48  1  0  0  0  0
M  CHG  1  12   1
M  END
> <s_m_source_file>
AV-unprocessed.smi

> <i_m_source_file_index>
1205

> <i_lp_mmshare_version>
43012

> <i_f3d_flags>
0

> <s_epik_input>
W0NIM11jMVtjSF1jKG4objEpW0NIM10pW05IXUMoPU8pW05IXVtDSDJdW0NASF0oW0NIM10pTjJbQ0gyXVtDSDJdW0NIMl1bQ0BASF0oW0NIM10pW0NIMl0y

> <s_epik_cmdline>
J2VwaWtfcHl0aG9uJywgJy1waCcsICc3LjAnLCAnLXRuJywgJzgnLCAnLW1hJywgJzIwMCcsICctbWV0YWxfYmluZGluZycsICctaW1hZScsICc8aW5maWxlLm1hZT4nLCAnLW9tYWUnLCAnPG91dGZpbGUubWFlPic=

> <r_lp_tautomer_probability>
1

> <r_epik_Ionization_Penalty>
0.0020309

> <r_epik_Ionization_Penalty_Charging>
0.00195276

> <r_epik_Ionization_Penalty_Neutral>
7.81448e-05

> <r_epik_State_Penalty>
0.00133177

> <r_epik_Charging_Adjusted_Penalty>
0.00328452

> <i_epik_Tot_Q>
1

> <i_epik_Tot_abs_Q>
1

> <r_epik_Metal_State_Penalty>
-0

> <b_epik_Metal_Only>
0

> <s_lp_Force_Field>
OPLS_2005

> <r_lp_Energy>
21.6269

> <b_lp_Chiralities_Consistent>
1

> <s_lp_Variant>
AV-unprocessed.smi:1205-2

> <Gold.Version>
5.8.1

> <Gold.Id.Protein>
6NUR|6NUR_protein|mol2

> <Gold.PLP.Fitness>
38.4986

> <Gold.PLP.PLP>
-35.2052

> <Gold.PLP.part.hbond>
-3.3673

> <Gold.PLP.part.metal>
0.0000

> <Gold.PLP.part.buried>
-0.9830

> <Gold.PLP.part.nonpolar>
-30.8660

> <Gold.PLP.part.repulsive>
0.0854

> <Gold.PLP.ligand.clash>
0.0000

> <Gold.PLP.ligand.torsion>
1.3645

> <Gold.PLP.Chemscore.Hbond>
1.9688

> <Gold.PLP.Chemscore.CHOScore>
0.0000

> <Gold.PLP.Chemscore.Metal>
0.0000

> <Gold.Chemscore.Hbonds>
donor molecule, donor type, donor heavy atom, donor atom, acceptor molecule, acceptor atom, score
      L1  H     5    26       P1  7949  0.06
      L1  H     8    27       P1  7948  0.70
      P1  H  7997  8008       L1    21  1.00

> <Gold.PLP.Chemscore.Internal.Correction>
0.1161

> <Gold.Rescore>
     Score         DG    S(hbond)    S(metal)    S(lipo)     H(rot)  DE(clash)    DE(int)     intcor
     13.63     -16.84       1.69        0.00      81.10       1.47       1.98       1.23       ----

> <Gold.Chemscore.Fitness>
13.6348

> <Gold.Chemscore.DG>
-16.8446

> <Gold.Chemscore.ZeroCoef>
-5.4800

> <Gold.Chemscore.Hbond>
1.6853

> <Gold.Chemscore.Metal>
0.0000

> <Gold.Chemscore.Lipo>
81.0975

> <Gold.Chemscore.Internal_Hbond>
0.0000

> <Gold.Chemscore.DEClash>
1.9784

> <Gold.Chemscore.DEInternal>
1.2314

> <Gold.Chemscore.Rot>
1.4658

> <Gold.Chemscore.Internal.Correction>
   9.000000E+99

> <Gold.Chemscore.Hbonds>
donor molecule, donor type, donor heavy atom, donor atom, acceptor molecule, acceptor atom, score
      L1  H     8    27       P1  7948  0.16
      P1  H  7997  8008       L1    21  0.88

> <Gold.Chemscore.Hbond.Weighted>
-5.6288

> <Gold.Chemscore.Metal.Weighted>
-0.0000

> <Gold.Chemscore.Lipo.Weighted>
-9.4884

> <Gold.Chemscore.Internal_Hbond.Weighted>
0.0000

> <Gold.Chemscore.DEClash.Weighted>
1.9784

> <Gold.Chemscore.DEInternal.Weighted>
1.2314

> <Gold.Chemscore.Rot.Weighted>
3.7526

> <Gold.Chemscore.Internal.Correction.Weighted>
   9.000000E+99

> <Gold.Protein.RotatedTorsions>
[ 6907 6896 6895 6894 ] final  156.31 input  -60.11 | X-H torsion
[ 7974 7965 7964 7962 ] final  127.69 input  175.53 | X-H torsion
[ 8008 7997 7996 7995 ] final  -30.44 input   59.86 | X-H torsion
[ 10167 10162 10161 10158 ] final   33.19 input  -65.29 | X-H torsion
[ 10718 10713 10712 10709 ] final   53.97 input   66.30 | X-H torsion
[ 10763 10752 10751 10750 ] final  159.62 input  -60.55 | X-H torsion
[ 11005 11000 10999 10996 ] final   94.86 input  -57.11 | X-H torsion

> <Gold.Protein.ActiveResidues>
 VAL166  LYS551  ARG553  GLY616  TRP617  ASP618  TYR619  PRO620  LYS621  CYS622 
 ASP623  PHE694  ASN695  SER759  ASP760  ASP761  ALA762  ILE779  LEU786  VAL792 
 PHE793  MET794  SER795  GLU796  ALA797  LYS798  CYS799  TRP800  GLU811  SER814 

> <Gold.Protein.RotatedAtoms>
  152.0316  133.3939  159.4299 H   0  0  0  0  0  0  0  0  0  0  0  0  # atno 6907 bound_to 6896
  150.6882  134.3515  159.4920 H   0  0  0  0  0  0  0  0  0  0  0  0  # atno 6908 bound_to 6896
  152.1302  134.9140  160.0610 H   0  0  0  0  0  0  0  0  0  0  0  0  # atno 6909 bound_to 6896
  145.0478  139.3908  143.5069 H   0  0  0  0  0  0  0  0  0  0  0  0  # atno 7974 bound_to 7965
  154.4250  140.1791  156.1407 H   0  0  0  0  0  0  0  0  0  0  0  0  # atno 8008 bound_to 7997
  155.9994  140.3361  155.6806 H   0  0  0  0  0  0  0  0  0  0  0  0  # atno 8009 bound_to 7997
  155.6263  140.0665  157.2653 H   0  0  0  0  0  0  0  0  0  0  0  0  # atno 8010 bound_to 7997
  140.4430  144.1159  150.6177 H   0  0  0  0  0  0  0  0  0  0  0  0  # atno 10167 bound_to 10162
  157.5215  130.8568  149.8565 H   0  0  0  0  0  0  0  0  0  0  0  0  # atno 10718 bound_to 10713
  154.2346  135.2777  155.2877 H   0  0  0  0  0  0  0  0  0  0  0  0  # atno 10763 bound_to 10752
  154.5595  135.5651  153.6998 H   0  0  0  0  0  0  0  0  0  0  0  0  # atno 10764 bound_to 10752
  153.0013  135.6294  154.2489 H   0  0  0  0  0  0  0  0  0  0  0  0  # atno 10765 bound_to 10752
  139.8794  134.8868  156.3926 H   0  0  0  0  0  0  0  0  0  0  0  0  # atno 11005 bound_to 11000
  146.3515  140.0112  142.8667 LP  0  0  0  0  0  0  0  0  0  0  0  0  # atno 17320 bound_to 7965
  145.1566  140.9651  143.4402 LP  0  0  0  0  0  0  0  0  0  0  0  0  # atno 17321 bound_to 7965
  140.4296  143.2574  151.9612 LP  0  0  0  0  0  0  0  0  0  0  0  0  # atno 17342 bound_to 10162
  139.4791  144.5756  151.8017 LP  0  0  0  0  0  0  0  0  0  0  0  0  # atno 17343 bound_to 10162
  156.0357  130.3752  150.1567 LP  0  0  0  0  0  0  0  0  0  0  0  0  # atno 17370 bound_to 10713
  156.9755  130.9848  151.3449 LP  0  0  0  0  0  0  0  0  0  0  0  0  # atno 17371 bound_to 10713
  140.9323  133.7571  156.0040 LP  0  0  0  0  0  0  0  0  0  0  0  0  # atno 17394 bound_to 11000
  140.8317  134.3171  157.5346 LP  0  0  0  0  0  0  0  0  0  0  0  0  # atno 17395 bound_to 11000

$$$$
