AV-unprocessed.smi:3025|AV-procd|sdf|11510|dock1
  -GOLD-   2272016443D 1   1.00000     0.00000
 Structure written by MMmdl.
 42 43  0  0  0  0  0  0  0  0  2 V2000
  144.1799  132.9931  150.8064 C   0  0  0  0  0  0  0  0  0  0  0  0
  144.2914  134.3328  151.5421 C   0  0  0  0  0  0  0  0  0  0  0  0
  145.2984  135.2862  150.8767 C   0  0  0  0  0  0  0  0  0  0  0  0
  145.4430  136.6492  151.5851 C   0  0  2  0  0  0  0  0  0  0  0  0
  146.2969  137.6508  150.7783 C   0  0  0  0  0  0  0  0  0  0  0  0
  146.4463  138.9952  151.5114 C   0  0  0  0  0  0  0  0  0  0  0  0
  147.0248  138.8298  152.9328 C   0  0  2  0  0  0  0  0  0  0  0  0
  148.4521  138.4314  152.9208 N   0  3  0  0  0  0  0  0  0  0  0  0
  149.1812  138.6412  154.1891 C   0  0  0  0  0  0  0  0  0  0  0  0
  150.6767  138.3430  154.0201 C   0  0  0  0  0  0  0  0  0  0  0  0
  151.4745  138.7427  155.2179 C   0  0  0  0  0  0  0  0  0  0  0  0
  152.2208  139.8507  155.2972 N   0  0  0  0  0  0  0  0  0  0  0  0
  152.7662  139.8416  156.5713 N   0  0  0  0  0  0  0  0  0  0  0  0
  152.2943  138.7299  157.1375 C   0  0  0  0  0  0  0  0  0  0  0  0
  151.4879  138.0140  156.3446 N   0  0  0  0  0  0  0  0  0  0  0  0
  146.1906  137.8122  153.7327 C   0  0  0  0  0  0  0  0  0  0  0  0
  146.0394  136.4698  152.9955 C   0  0  0  0  0  0  0  0  0  0  0  0
  151.0138  137.1458  156.5470 H   0  0  0  0  0  0  0  0  0  0  0  0
  143.4571  132.3401  151.2962 H   0  0  0  0  0  0  0  0  0  0  0  0
  145.1378  132.4724  150.7866 H   0  0  0  0  0  0  0  0  0  0  0  0
  143.8542  133.1355  149.7756 H   0  0  0  0  0  0  0  0  0  0  0  0
  143.3041  134.7925  151.5795 H   0  0  0  0  0  0  0  0  0  0  0  0
  144.5875  134.1491  152.5754 H   0  0  0  0  0  0  0  0  0  0  0  0
  146.2718  134.7938  150.8619 H   0  0  0  0  0  0  0  0  0  0  0  0
  145.0246  135.4402  149.8322 H   0  0  0  0  0  0  0  0  0  0  0  0
  144.4438  137.0718  151.7028 H   0  0  0  0  0  0  0  0  0  0  0  0
  147.2825  137.2259  150.5837 H   0  0  0  0  0  0  0  0  0  0  0  0
  145.8461  137.8356  149.8038 H   0  0  0  0  0  0  0  0  0  0  0  0
  147.0493  139.6807  150.9165 H   0  0  0  0  0  0  0  0  0  0  0  0
  145.4629  139.4615  151.5856 H   0  0  0  0  0  0  0  0  0  0  0  0
  146.9600  139.7876  153.4510 H   0  0  0  0  0  0  0  0  0  0  0  0
  148.4887  137.4435  152.7137 H   0  0  0  0  0  0  0  0  0  0  0  0
  149.0492  139.6702  154.5240 H   0  0  0  0  0  0  0  0  0  0  0  0
  148.7624  137.9934  154.9603 H   0  0  0  0  0  0  0  0  0  0  0  0
  150.8298  137.2794  153.8312 H   0  0  0  0  0  0  0  0  0  0  0  0
  151.0699  138.8735  153.1518 H   0  0  0  0  0  0  0  0  0  0  0  0
  152.5398  138.4358  158.1474 H   0  0  0  0  0  0  0  0  0  0  0  0
  146.6323  137.6507  154.7168 H   0  0  0  0  0  0  0  0  0  0  0  0
  145.1984  138.2281  153.9128 H   0  0  0  0  0  0  0  0  0  0  0  0
  145.4045  135.8077  153.5855 H   0  0  0  0  0  0  0  0  0  0  0  0
  147.0099  135.9766  152.9260 H   0  0  0  0  0  0  0  0  0  0  0  0
  148.9230  138.9305  152.1794 H   0  0  0  0  0  0  0  0  0  0  0  0
  1  2  1  0  0  0  0
  1 19  1  0  0  0  0
  1 20  1  0  0  0  0
  1 21  1  0  0  0  0
  2  3  1  0  0  0  0
  2 22  1  0  0  0  0
  2 23  1  0  0  0  0
  3  4  1  0  0  0  0
  3 24  1  0  0  0  0
  3 25  1  0  0  0  0
  4 17  1  0  0  0  0
  4  5  1  0  0  0  0
  4 26  1  0  0  0  0
  5  6  1  0  0  0  0
  5 27  1  0  0  0  0
  5 28  1  0  0  0  0
  6  7  1  0  0  0  0
  6 29  1  0  0  0  0
  6 30  1  0  0  0  0
  7  8  1  0  0  0  0
  7 16  1  0  0  0  0
  7 31  1  0  0  0  0
  8  9  1  0  0  0  0
  8 32  1  0  0  0  0
  8 42  1  0  0  0  0
  9 10  1  0  0  0  0
  9 33  1  0  0  0  0
  9 34  1  0  0  0  0
 10 11  1  0  0  0  0
 10 35  1  0  0  0  0
 10 36  1  0  0  0  0
 11 15  1  0  0  0  0
 11 12  2  0  0  0  0
 12 13  1  0  0  0  0
 13 14  2  0  0  0  0
 14 15  1  0  0  0  0
 14 37  1  0  0  0  0
 15 18  1  0  0  0  0
 16 17  1  0  0  0  0
 16 38  1  0  0  0  0
 16 39  1  0  0  0  0
 17 40  1  0  0  0  0
 17 41  1  0  0  0  0
M  CHG  1   8   1
M  END
> <s_m_source_file>
AV-unprocessed.smi

> <i_m_source_file_index>
3025

> <i_lp_mmshare_version>
43012

> <i_f3d_flags>
0

> <s_epik_input>
W0NIM11bQ0gyXVtDSDJdW0NAQEhdMVtDSDJdW0NIMl1bQ0BIXShbQ0gyXVtDSDJdMSlbTkhdW0NIMl1bQ0gyXWMybm5bY0hdW25IXTI=

> <s_epik_cmdline>
J2VwaWtfcHl0aG9uJywgJy1waCcsICc3LjAnLCAnLXRuJywgJzgnLCAnLW1hJywgJzIwMCcsICctbWV0YWxfYmluZGluZycsICctaW1hZScsICc8aW5maWxlLm1hZT4nLCAnLW9tYWUnLCAnPG91dGZpbGUubWFlPic=

> <r_lp_tautomer_probability>
0.0517155

> <r_epik_Ionization_Penalty>
0.0349397

> <r_epik_Ionization_Penalty_Charging>
0.000546397

> <r_epik_Ionization_Penalty_Neutral>
0.0343933

> <r_epik_State_Penalty>
2.24019

> <r_epik_Charging_Adjusted_Penalty>
2.24074

> <i_epik_Tot_Q>
1

> <i_epik_Tot_abs_Q>
1

> <r_epik_Metal_State_Penalty>
2.47389

> <b_epik_Metal_Only>
0

> <s_lp_Force_Field>
OPLS_2005

> <r_lp_Energy>
17.8014

> <b_lp_Chiralities_Consistent>
1

> <s_lp_Variant>
AV-unprocessed.smi:3025-6

> <Gold.Version>
5.8.1

> <Gold.Id.Protein>
6NUR|6NUR_protein|mol2

> <Gold.PLP.Fitness>
42.2167

> <Gold.PLP.PLP>
-28.5497

> <Gold.PLP.part.hbond>
-3.8860

> <Gold.PLP.part.metal>
0.0000

> <Gold.PLP.part.buried>
7.0699

> <Gold.PLP.part.nonpolar>
-31.4195

> <Gold.PLP.part.repulsive>
0.1448

> <Gold.PLP.ligand.clash>
0.0000

> <Gold.PLP.ligand.torsion>
0.4079

> <Gold.PLP.Chemscore.Hbond>
4.7771

> <Gold.PLP.Chemscore.CHOScore>
0.0000

> <Gold.PLP.Chemscore.Metal>
0.0000

> <Gold.Chemscore.Hbonds>
donor molecule, donor type, donor heavy atom, donor atom, acceptor molecule, acceptor atom, score
      L1  H     8    32       P1  7948  2.00
      L1  H     8    42       P1  7957  1.00
      P1  H  7989  7998       L1    12  0.57
      P1  H  7997  8008       L1    13  1.00

> <Gold.PLP.Chemscore.Internal.Correction>
0.1514

> <Gold.Rescore>
     Score         DG    S(hbond)    S(metal)    S(lipo)     H(rot)  DE(clash)    DE(int)     intcor
     16.04     -18.51       3.25        0.00      74.65       2.56       2.01       0.46       ----

> <Gold.Chemscore.Fitness>
16.0438

> <Gold.Chemscore.DG>
-18.5067

> <Gold.Chemscore.ZeroCoef>
-5.4800

> <Gold.Chemscore.Hbond>
3.2478

> <Gold.Chemscore.Metal>
0.0000

> <Gold.Chemscore.Lipo>
74.6450

> <Gold.Chemscore.Internal_Hbond>
0.0000

> <Gold.Chemscore.DEClash>
2.0055

> <Gold.Chemscore.DEInternal>
0.4574

> <Gold.Chemscore.Rot>
2.5602

> <Gold.Chemscore.Internal.Correction>
   9.000000E+99

> <Gold.Chemscore.Hbonds>
donor molecule, donor type, donor heavy atom, donor atom, acceptor molecule, acceptor atom, score
      L1  H     8    32       P1  7948  0.89
      L1  H     8    42       P1  7957  0.92
      P1  H  7989  7998       L1    12  0.20
      P1  H  7997  8008       L1    13  0.76

> <Gold.Chemscore.Hbond.Weighted>
-10.8475

> <Gold.Chemscore.Metal.Weighted>
-0.0000

> <Gold.Chemscore.Lipo.Weighted>
-8.7335

> <Gold.Chemscore.Internal_Hbond.Weighted>
0.0000

> <Gold.Chemscore.DEClash.Weighted>
2.0055

> <Gold.Chemscore.DEInternal.Weighted>
0.4574

> <Gold.Chemscore.Rot.Weighted>
6.5542

> <Gold.Chemscore.Internal.Correction.Weighted>
   9.000000E+99

> <Gold.Protein.RotatedTorsions>
[ 6907 6896 6895 6894 ] final  -32.13 input  -60.11 | X-H torsion
[ 7974 7965 7964 7962 ] final  176.69 input  175.53 | X-H torsion
[ 8008 7997 7996 7995 ] final  -52.99 input   59.86 | X-H torsion
[ 10167 10162 10161 10158 ] final   95.82 input  -65.29 | X-H torsion
[ 10718 10713 10712 10709 ] final   70.36 input   66.30 | X-H torsion
[ 10763 10752 10751 10750 ] final   -8.08 input  -60.55 | X-H torsion
[ 11005 11000 10999 10996 ] final   85.82 input  -57.11 | X-H torsion

> <Gold.Protein.ActiveResidues>
 VAL166  LYS551  ARG553  GLY616  TRP617  ASP618  TYR619  PRO620  LYS621  CYS622 
 ASP623  PHE694  ASN695  SER759  ASP760  ASP761  ALA762  ILE779  LEU786  VAL792 
 PHE793  MET794  SER795  GLU796  ALA797  LYS798  CYS799  TRP800  GLU811  SER814 

> <Gold.Protein.RotatedAtoms>
  151.0828  134.9869  159.8364 H   0  0  0  0  0  0  0  0  0  0  0  0  # atno 6907 bound_to 6896
  152.5421  134.2160  159.8779 H   0  0  0  0  0  0  0  0  0  0  0  0  # atno 6908 bound_to 6896
  151.2192  133.4468  159.2633 H   0  0  0  0  0  0  0  0  0  0  0  0  # atno 6909 bound_to 6896
  144.7180  140.0134  143.6440 H   0  0  0  0  0  0  0  0  0  0  0  0  # atno 7974 bound_to 7965
  154.4121  140.1211  156.5080 H   0  0  0  0  0  0  0  0  0  0  0  0  # atno 8008 bound_to 7997
  155.6827  140.3496  155.4842 H   0  0  0  0  0  0  0  0  0  0  0  0  # atno 8009 bound_to 7997
  155.9537  140.1109  157.0945 H   0  0  0  0  0  0  0  0  0  0  0  0  # atno 8010 bound_to 7997
  139.7953  144.6836  150.9838 H   0  0  0  0  0  0  0  0  0  0  0  0  # atno 10167 bound_to 10162
  157.6396  130.9473  150.0640 H   0  0  0  0  0  0  0  0  0  0  0  0  # atno 10718 bound_to 10713
  153.4354  135.7013  153.6203 H   0  0  0  0  0  0  0  0  0  0  0  0  # atno 10763 bound_to 10752
  153.4600  135.3738  155.2333 H   0  0  0  0  0  0  0  0  0  0  0  0  # atno 10764 bound_to 10752
  154.8726  135.4017  154.3745 H   0  0  0  0  0  0  0  0  0  0  0  0  # atno 10765 bound_to 10752
  139.8961  134.8313  156.2635 H   0  0  0  0  0  0  0  0  0  0  0  0  # atno 11005 bound_to 11000
  146.0240  139.3276  143.0796 LP  0  0  0  0  0  0  0  0  0  0  0  0  # atno 17320 bound_to 7965
  145.8534  140.9516  143.0738 LP  0  0  0  0  0  0  0  0  0  0  0  0  # atno 17321 bound_to 7965
  140.7820  143.4338  151.0654 LP  0  0  0  0  0  0  0  0  0  0  0  0  # atno 17342 bound_to 10162
  139.8013  143.8080  152.3163 LP  0  0  0  0  0  0  0  0  0  0  0  0  # atno 17343 bound_to 10162
  156.1664  130.3645  149.9226 LP  0  0  0  0  0  0  0  0  0  0  0  0  # atno 17370 bound_to 10713
  156.7212  130.9007  151.3618 LP  0  0  0  0  0  0  0  0  0  0  0  0  # atno 17371 bound_to 10713
  141.0147  133.7075  156.1168 LP  0  0  0  0  0  0  0  0  0  0  0  0  # atno 17394 bound_to 11000
  140.7319  134.4246  157.5565 LP  0  0  0  0  0  0  0  0  0  0  0  0  # atno 17395 bound_to 11000

$$$$
