AV-unprocessed.smi:2269|AV-procd|sdf|9153|dock5
  -GOLD-   2272012363D 1   1.00000     0.00000
 Structure written by MMmdl.
 41 42  0  0  0  0  0  0  0  0  1 V2000
  151.9587  144.8679  159.9141 C   0  0  0  0  0  0  0  0  0  0  0  0
  151.7506  143.7417  158.9168 C   0  0  0  0  0  0  0  0  0  0  0  0
  151.1441  144.1072  157.7112 N   0  0  0  0  0  0  0  0  0  0  0  0
  150.9291  143.2143  156.8012 C   0  0  0  0  0  0  0  0  0  0  0  0
  151.2918  141.8708  156.9865 N   0  0  0  0  0  0  0  0  0  0  0  0
  150.9875  140.9544  155.8763 C   0  0  0  0  0  0  0  0  0  0  0  0
  149.7570  141.4175  155.0623 C   0  0  1  0  0  0  0  0  0  0  0  0
  149.8001  140.8143  153.7849 O   0  0  0  0  0  0  0  0  0  0  0  0
  148.4382  140.9927  155.7240 C   0  0  0  0  0  0  0  0  0  0  0  0
  147.3842  141.2067  154.7966 O   0  0  0  0  0  0  0  0  0  0  0  0
  147.3639  142.5083  154.2299 C   0  0  0  0  0  0  0  0  0  0  0  0
  146.0455  143.2354  154.4514 C   0  0  0  0  0  0  0  0  0  0  0  0
  145.4942  144.0024  153.4025 C   0  0  0  0  0  0  0  0  0  0  0  0
  144.2764  144.6856  153.5830 C   0  0  0  0  0  0  0  0  0  0  0  0
  143.6027  144.6081  154.8160 C   0  0  0  0  0  0  0  0  0  0  0  0
  144.1493  143.8492  155.8682 C   0  0  0  0  0  0  0  0  0  0  0  0
  145.3684  143.1639  155.6929 C   0  0  0  0  0  0  0  0  0  0  0  0
  146.0082  142.2495  157.0137 Cl  0  0  0  0  0  0  0  0  0  0  0  0
  151.8791  141.4268  158.1355 C   0  0  0  0  0  0  0  0  0  0  0  0
  152.1780  140.2416  158.2935 O   0  0  0  0  0  0  0  0  0  0  0  0
  152.1207  142.4548  159.1608 C   0  0  0  0  0  0  0  0  0  0  0  0
  152.7828  141.9982  160.4550 C   0  0  0  0  0  0  0  0  0  0  0  0
  151.4236  144.6609  160.8412 H   0  0  0  0  0  0  0  0  0  0  0  0
  151.5931  145.8180  159.5225 H   0  0  0  0  0  0  0  0  0  0  0  0
  153.0186  144.9864  160.1407 H   0  0  0  0  0  0  0  0  0  0  0  0
  150.4548  143.4458  155.8458 H   0  0  0  0  0  0  0  0  0  0  0  0
  151.8476  140.7959  155.2219 H   0  0  0  0  0  0  0  0  0  0  0  0
  150.7992  139.9653  156.2971 H   0  0  0  0  0  0  0  0  0  0  0  0
  149.7504  142.5005  154.9315 H   0  0  0  0  0  0  0  0  0  0  0  0
  149.5554  139.9058  153.8731 H   0  0  0  0  0  0  0  0  0  0  0  0
  148.4654  139.9340  155.9868 H   0  0  0  0  0  0  0  0  0  0  0  0
  148.2824  141.5556  156.6457 H   0  0  0  0  0  0  0  0  0  0  0  0
  148.1559  143.0932  154.6981 H   0  0  0  0  0  0  0  0  0  0  0  0
  147.6092  142.4587  153.1680 H   0  0  0  0  0  0  0  0  0  0  0  0
  146.0023  144.0678  152.4517 H   0  0  0  0  0  0  0  0  0  0  0  0
  143.8594  145.2689  152.7752 H   0  0  0  0  0  0  0  0  0  0  0  0
  142.6684  145.1318  154.9556 H   0  0  0  0  0  0  0  0  0  0  0  0
  143.6310  143.7945  156.8141 H   0  0  0  0  0  0  0  0  0  0  0  0
  153.7607  141.5645  160.2439 H   0  0  0  0  0  0  0  0  0  0  0  0
  152.1727  141.2360  160.9405 H   0  0  0  0  0  0  0  0  0  0  0  0
  152.9296  142.8053  161.1709 H   0  0  0  0  0  0  0  0  0  0  0  0
  1  2  1  0  0  0  0
  1 23  1  0  0  0  0
  1 24  1  0  0  0  0
  1 25  1  0  0  0  0
  2 21  2  0  0  0  0
  2  3  1  0  0  0  0
  3  4  2  0  0  0  0
  4  5  1  0  0  0  0
  4 26  1  0  0  0  0
  5  6  1  0  0  0  0
  5 19  1  0  0  0  0
  6  7  1  0  0  0  0
  6 27  1  0  0  0  0
  6 28  1  0  0  0  0
  7  8  1  0  0  0  0
  7  9  1  0  0  0  0
  7 29  1  0  0  0  0
  8 30  1  0  0  0  0
  9 10  1  0  0  0  0
  9 31  1  0  0  0  0
  9 32  1  0  0  0  0
 10 11  1  0  0  0  0
 11 12  1  0  0  0  0
 11 33  1  0  0  0  0
 11 34  1  0  0  0  0
 12 17  1  0  0  0  0
 12 13  2  0  0  0  0
 13 14  1  0  0  0  0
 13 35  1  0  0  0  0
 14 15  2  0  0  0  0
 14 36  1  0  0  0  0
 15 16  1  0  0  0  0
 15 37  1  0  0  0  0
 16 17  2  0  0  0  0
 16 38  1  0  0  0  0
 17 18  1  0  0  0  0
 19 20  2  0  0  0  0
 19 21  1  0  0  0  0
 21 22  1  0  0  0  0
 22 39  1  0  0  0  0
 22 40  1  0  0  0  0
 22 41  1  0  0  0  0
M  END
> <s_m_source_file>
AV-unprocessed.smi

> <i_m_source_file_index>
2269

> <i_lp_mmshare_version>
43012

> <i_f3d_flags>
0

> <s_epik_input>
W0NIM11jMW5bY0hdbihjKD1PKWMxW0NIM10pW0NIMl1bQ0BIXShbT0hdKVtDSDJdT1tDSDJdYzJbY0hdW2NIXVtjSF1bY0hdYzJDbA==

> <s_epik_cmdline>
J2VwaWtfcHl0aG9uJywgJy1waCcsICc3LjAnLCAnLXRuJywgJzgnLCAnLW1hJywgJzIwMCcsICctbWV0YWxfYmluZGluZycsICctaW1hZScsICc8aW5maWxlLm1hZT4nLCAnLW9tYWUnLCAnPG91dGZpbGUubWFlPic=

> <r_lp_tautomer_probability>
1

> <r_epik_Ionization_Penalty>
5.36022e-05

> <r_epik_Ionization_Penalty_Charging>
1.17753e-07

> <r_epik_Ionization_Penalty_Neutral>
5.34845e-05

> <r_epik_State_Penalty>
-0

> <r_epik_Charging_Adjusted_Penalty>
1.17753e-07

> <i_epik_Tot_Q>
0

> <i_epik_Tot_abs_Q>
0

> <r_epik_Metal_State_Penalty>
-0

> <b_epik_Metal_Only>
0

> <s_lp_Force_Field>
OPLS_2005

> <r_lp_Energy>
21.6364

> <b_lp_Chiralities_Consistent>
1

> <s_lp_Variant>
AV-unprocessed.smi:2269-2

> <Gold.Version>
5.8.1

> <Gold.Id.Protein>
6NUR|6NUR_protein|mol2

> <Gold.PLP.Fitness>
49.3587

> <Gold.PLP.PLP>
-46.3293

> <Gold.PLP.part.hbond>
-2.7030

> <Gold.PLP.part.metal>
0.0000

> <Gold.PLP.part.buried>
-0.2071

> <Gold.PLP.part.nonpolar>
-41.6468

> <Gold.PLP.part.repulsive>
0.5999

> <Gold.PLP.ligand.clash>
0.0000

> <Gold.PLP.ligand.torsion>
1.3094

> <Gold.PLP.Chemscore.Hbond>
1.0354

> <Gold.PLP.Chemscore.CHOScore>
0.8048

> <Gold.PLP.Chemscore.Metal>
0.0000

> <Gold.Chemscore.Hbonds>
donor molecule, donor type, donor heavy atom, donor atom, acceptor molecule, acceptor atom, score
      P1  H  7989  7998       L1     8  0.46
      P1  H  8011  8017       L1     8  0.67
      L1  C     4    26       P1  8028  0.85

> <Gold.PLP.Chemscore.Internal.Correction>
0.1275

> <Gold.Rescore>
     Score         DG    S(hbond)    S(metal)    S(lipo)     H(rot)  DE(clash)    DE(int)     intcor
      8.16     -14.32       0.73        0.00     109.77       2.52       2.67       3.49       ----

> <Gold.Chemscore.Fitness>
8.1569

> <Gold.Chemscore.DG>
-14.3151

> <Gold.Chemscore.ZeroCoef>
-5.4800

> <Gold.Chemscore.Hbond>
0.7287

> <Gold.Chemscore.Metal>
0.0000

> <Gold.Chemscore.Lipo>
109.7652

> <Gold.Chemscore.Internal_Hbond>
0.0000

> <Gold.Chemscore.DEClash>
2.6669

> <Gold.Chemscore.DEInternal>
3.4913

> <Gold.Chemscore.Rot>
2.5162

> <Gold.Chemscore.Internal.Correction>
   9.000000E+99

> <Gold.Chemscore.Hbonds>
donor molecule, donor type, donor heavy atom, donor atom, acceptor molecule, acceptor atom, score
      P1  H  7989  7998       L1     8  0.08
      P1  H  8011  8017       L1     8  0.39

> <Gold.Chemscore.Hbond.Weighted>
-2.4340

> <Gold.Chemscore.Metal.Weighted>
-0.0000

> <Gold.Chemscore.Lipo.Weighted>
-12.8425

> <Gold.Chemscore.Internal_Hbond.Weighted>
0.0000

> <Gold.Chemscore.DEClash.Weighted>
2.6669

> <Gold.Chemscore.DEInternal.Weighted>
3.4913

> <Gold.Chemscore.Rot.Weighted>
6.4414

> <Gold.Chemscore.Internal.Correction.Weighted>
   9.000000E+99

> <Gold.Protein.RotatedTorsions>
[ 6907 6896 6895 6894 ] final  -24.86 input  -60.11 | X-H torsion
[ 7974 7965 7964 7962 ] final -159.83 input  175.53 | X-H torsion
[ 8008 7997 7996 7995 ] final   20.48 input   59.86 | X-H torsion
[ 10167 10162 10161 10158 ] final   96.29 input  -65.29 | X-H torsion
[ 10718 10713 10712 10709 ] final  -98.13 input   66.30 | X-H torsion
[ 10763 10752 10751 10750 ] final  142.75 input  -60.55 | X-H torsion
[ 11005 11000 10999 10996 ] final   14.24 input  -57.11 | X-H torsion

> <Gold.Protein.ActiveResidues>
 VAL166  LYS551  ARG553  GLY616  TRP617  ASP618  TYR619  PRO620  LYS621  CYS622 
 ASP623  PHE694  ASN695  SER759  ASP760  ASP761  ALA762  ILE779  LEU786  VAL792 
 PHE793  MET794  SER795  GLU796  ALA797  LYS798  CYS799  TRP800  GLU811  SER814 

> <Gold.Protein.RotatedAtoms>
  151.1835  135.0371  159.8802 H   0  0  0  0  0  0  0  0  0  0  0  0  # atno 6907 bound_to 6896
  152.5443  134.1036  159.8338 H   0  0  0  0  0  0  0  0  0  0  0  0  # atno 6908 bound_to 6896
  151.1156  133.5094  159.2636 H   0  0  0  0  0  0  0  0  0  0  0  0  # atno 6909 bound_to 6896
  144.7450  140.3629  143.6092 H   0  0  0  0  0  0  0  0  0  0  0  0  # atno 7974 bound_to 7965
  154.9362  140.3047  155.5143 H   0  0  0  0  0  0  0  0  0  0  0  0  # atno 8008 bound_to 7997
  156.2999  140.2345  156.4364 H   0  0  0  0  0  0  0  0  0  0  0  0  # atno 8009 bound_to 7997
  154.8190  140.0424  157.1385 H   0  0  0  0  0  0  0  0  0  0  0  0  # atno 8010 bound_to 7997
  139.7908  144.6852  150.9894 H   0  0  0  0  0  0  0  0  0  0  0  0  # atno 10167 bound_to 10162
  156.0100  130.5224  150.6477 H   0  0  0  0  0  0  0  0  0  0  0  0  # atno 10718 bound_to 10713
  153.9609  135.2960  155.3433 H   0  0  0  0  0  0  0  0  0  0  0  0  # atno 10763 bound_to 10752
  154.7375  135.5040  153.9069 H   0  0  0  0  0  0  0  0  0  0  0  0  # atno 10764 bound_to 10752
  153.0947  135.6717  153.9897 H   0  0  0  0  0  0  0  0  0  0  0  0  # atno 10765 bound_to 10752
  140.4717  134.1024  155.7734 H   0  0  0  0  0  0  0  0  0  0  0  0  # atno 11005 bound_to 11000
  145.7159  139.1697  143.2512 LP  0  0  0  0  0  0  0  0  0  0  0  0  # atno 17320 bound_to 7965
  146.1313  140.7181  142.9411 LP  0  0  0  0  0  0  0  0  0  0  0  0  # atno 17321 bound_to 7965
  140.7820  143.4382  151.0591 LP  0  0  0  0  0  0  0  0  0  0  0  0  # atno 17342 bound_to 10162
  139.8059  143.8018  152.3167 LP  0  0  0  0  0  0  0  0  0  0  0  0  # atno 17343 bound_to 10162
  157.4244  131.0841  151.1099 LP  0  0  0  0  0  0  0  0  0  0  0  0  # atno 17370 bound_to 10713
  157.1691  130.6259  149.5635 LP  0  0  0  0  0  0  0  0  0  0  0  0  # atno 17371 bound_to 10713
  141.1573  133.8858  157.1942 LP  0  0  0  0  0  0  0  0  0  0  0  0  # atno 17394 bound_to 11000
  139.9881  135.0075  156.9910 LP  0  0  0  0  0  0  0  0  0  0  0  0  # atno 17395 bound_to 11000

$$$$
