AV-unprocessed.smi:3141|AV-procd|sdf|11963|dock6
  -GOLD-   2272017363D 1   1.00000     0.00000
 Structure written by MMmdl.
 36 38  0  0  0  0  0  0  0  0  2 V2000
  146.4261  132.5013  152.8640 O   0  0  0  0  0  0  0  0  0  0  0  0
  146.9863  133.5762  152.6478 C   0  0  0  0  0  0  0  0  0  0  0  0
  147.9552  134.0898  153.4162 N   0  0  0  0  0  0  0  0  0  0  0  0
  148.4916  133.4771  154.5882 C   0  0  0  0  0  0  0  0  0  0  0  0
  149.7809  134.0376  155.1477 C   0  0  0  0  0  0  0  0  0  0  0  0
  149.7866  132.7073  154.4468 C   0  0  0  0  0  0  0  0  0  0  0  0
  146.7141  134.3654  151.5983 N   0  0  0  0  0  0  0  0  0  0  0  0
  145.7063  134.0967  150.5697 C   0  0  1  0  0  0  0  0  0  0  0  0
  145.7557  132.6068  150.1710 C   0  0  0  0  0  0  0  0  0  0  0  0
  144.4523  131.9625  150.6702 C   0  0  0  0  0  0  0  0  0  0  0  0
  143.8383  132.9675  151.6442 C   0  0  0  0  0  0  0  0  0  0  0  0
  144.2590  134.3198  151.0633 C   0  0  1  0  0  0  0  0  0  0  0  0
  144.0590  135.4800  151.9514 N   0  0  0  0  0  0  0  0  0  0  0  0
  143.5778  135.5070  153.2386 C   0  0  0  0  0  0  0  0  0  0  0  0
  143.6282  136.8137  153.6501 C   0  0  0  0  0  0  0  0  0  0  0  0
  144.1453  137.5294  152.6051 N   0  3  0  0  0  0  0  0  0  0  0  0
  144.4096  136.7179  151.5767 C   0  0  0  0  0  0  0  0  0  0  0  0
  148.3495  134.9808  153.1516 H   0  0  0  0  0  0  0  0  0  0  0  0
  147.7831  133.0893  155.3188 H   0  0  0  0  0  0  0  0  0  0  0  0
  150.2381  134.8791  154.6308 H   0  0  0  0  0  0  0  0  0  0  0  0
  149.8999  134.0361  156.2294 H   0  0  0  0  0  0  0  0  0  0  0  0
  149.9102  131.8172  155.0604 H   0  0  0  0  0  0  0  0  0  0  0  0
  150.2480  132.6614  153.4623 H   0  0  0  0  0  0  0  0  0  0  0  0
  147.2326  135.2272  151.5084 H   0  0  0  0  0  0  0  0  0  0  0  0
  145.9039  134.7189  149.6946 H   0  0  0  0  0  0  0  0  0  0  0  0
  145.8380  132.4963  149.0890 H   0  0  0  0  0  0  0  0  0  0  0  0
  146.6219  132.1026  150.6034 H   0  0  0  0  0  0  0  0  0  0  0  0
  143.7755  131.8116  149.8281 H   0  0  0  0  0  0  0  0  0  0  0  0
  144.6201  130.9894  151.1327 H   0  0  0  0  0  0  0  0  0  0  0  0
  142.7564  132.8616  151.7287 H   0  0  0  0  0  0  0  0  0  0  0  0
  144.2716  132.8122  152.6325 H   0  0  0  0  0  0  0  0  0  0  0  0
  143.6338  134.4949  150.1852 H   0  0  0  0  0  0  0  0  0  0  0  0
  143.2475  134.6220  153.7617 H   0  0  0  0  0  0  0  0  0  0  0  0
  143.3490  137.2745  154.5864 H   0  0  0  0  0  0  0  0  0  0  0  0
  144.8350  137.0046  150.6314 H   0  0  0  0  0  0  0  0  0  0  0  0
  144.3141  138.5275  152.6101 H   0  0  0  0  0  0  0  0  0  0  0  0
  1  2  2  0  0  0  0
  2  3  1  0  0  0  0
  2  7  1  0  0  0  0
  3  4  1  0  0  0  0
  3 18  1  0  0  0  0
  4  6  1  0  0  0  0
  4  5  1  0  0  0  0
  4 19  1  0  0  0  0
  5  6  1  0  0  0  0
  5 20  1  0  0  0  0
  5 21  1  0  0  0  0
  6 22  1  0  0  0  0
  6 23  1  0  0  0  0
  7  8  1  0  0  0  0
  7 24  1  0  0  0  0
  8 12  1  0  0  0  0
  8  9  1  0  0  0  0
  8 25  1  0  0  0  0
  9 10  1  0  0  0  0
  9 26  1  0  0  0  0
  9 27  1  0  0  0  0
 10 11  1  0  0  0  0
 10 28  1  0  0  0  0
 10 29  1  0  0  0  0
 11 12  1  0  0  0  0
 11 30  1  0  0  0  0
 11 31  1  0  0  0  0
 12 13  1  0  0  0  0
 12 32  1  0  0  0  0
 13 17  1  0  0  0  0
 13 14  1  0  0  0  0
 14 15  2  0  0  0  0
 14 33  1  0  0  0  0
 15 16  1  0  0  0  0
 15 34  1  0  0  0  0
 16 17  2  0  0  0  0
 16 36  1  0  0  0  0
 17 35  1  0  0  0  0
M  CHG  1  16   1
M  END
> <s_m_source_file>
AV-unprocessed.smi

> <i_m_source_file_index>
3141

> <i_lp_mmshare_version>
43012

> <i_f3d_flags>
0

> <s_epik_input>
W0NIMl0xW0NIMl1bQ0hdMVtOSF1DKD1PKVtOSF1bQ0BASF0yW0NIMl1bQ0gyXVtDSDJdW0NASF0ybjNbY0hdW2NIXW5bY0hdMw==

> <s_epik_cmdline>
J2VwaWtfcHl0aG9uJywgJy1waCcsICc3LjAnLCAnLXRuJywgJzgnLCAnLW1hJywgJzIwMCcsICctbWV0YWxfYmluZGluZycsICctaW1hZScsICc8aW5maWxlLm1hZT4nLCAnLW9tYWUnLCAnPG91dGZpbGUubWFlPic=

> <r_lp_tautomer_probability>
1

> <r_epik_Ionization_Penalty>
0.205063

> <r_epik_Ionization_Penalty_Charging>
0

> <r_epik_Ionization_Penalty_Neutral>
0.205063

> <r_epik_State_Penalty>
0.194948

> <r_epik_Charging_Adjusted_Penalty>
0.194948

> <i_epik_Tot_Q>
1

> <i_epik_Tot_abs_Q>
1

> <r_epik_Metal_State_Penalty>
0.500882

> <b_epik_Metal_Only>
0

> <s_lp_Force_Field>
OPLS_2005

> <r_lp_Energy>
36.92

> <b_lp_Chiralities_Consistent>
1

> <s_lp_Variant>
AV-unprocessed.smi:3141-2

> <Gold.Version>
5.8.1

> <Gold.Id.Protein>
6NUR|6NUR_protein|mol2

> <Gold.PLP.Fitness>
41.9089

> <Gold.PLP.PLP>
-29.0420

> <Gold.PLP.part.hbond>
-4.0000

> <Gold.PLP.part.metal>
0.0000

> <Gold.PLP.part.buried>
-0.9652

> <Gold.PLP.part.nonpolar>
-24.3065

> <Gold.PLP.part.repulsive>
0.2005

> <Gold.PLP.ligand.clash>
0.0000

> <Gold.PLP.ligand.torsion>
0.4553

> <Gold.PLP.Chemscore.Hbond>
3.9440

> <Gold.PLP.Chemscore.CHOScore>
0.6290

> <Gold.PLP.Chemscore.Metal>
0.0000

> <Gold.Chemscore.Hbonds>
donor molecule, donor type, donor heavy atom, donor atom, acceptor molecule, acceptor atom, score
      L1  H     3    18       P1  7948  1.00
      L1  H     7    24       P1  7948  0.94
      L1  H    16    36       P1 10175  2.00
      L1  C    17    35       P1 10171  0.64

> <Gold.PLP.Chemscore.Internal.Correction>
0.0586

> <Gold.Rescore>
     Score         DG    S(hbond)    S(metal)    S(lipo)     H(rot)  DE(clash)    DE(int)     intcor
     11.48     -17.25       2.70        0.00      58.77       1.61       1.77       4.00       ----

> <Gold.Chemscore.Fitness>
11.4781

> <Gold.Chemscore.DG>
-17.2484

> <Gold.Chemscore.ZeroCoef>
-5.4800

> <Gold.Chemscore.Hbond>
2.6980

> <Gold.Chemscore.Metal>
0.0000

> <Gold.Chemscore.Lipo>
58.7662

> <Gold.Chemscore.Internal_Hbond>
0.0000

> <Gold.Chemscore.DEClash>
1.7693

> <Gold.Chemscore.DEInternal>
4.0010

> <Gold.Chemscore.Rot>
1.6088

> <Gold.Chemscore.Internal.Correction>
   9.000000E+99

> <Gold.Chemscore.Hbonds>
donor molecule, donor type, donor heavy atom, donor atom, acceptor molecule, acceptor atom, score
      L1  H     3    18       P1  7948  0.81
      L1  H     7    24       P1  7948  0.81
      L1  H    16    36       P1 10175  0.89

> <Gold.Chemscore.Hbond.Weighted>
-9.0114

> <Gold.Chemscore.Metal.Weighted>
-0.0000

> <Gold.Chemscore.Lipo.Weighted>
-6.8757

> <Gold.Chemscore.Internal_Hbond.Weighted>
0.0000

> <Gold.Chemscore.DEClash.Weighted>
1.7693

> <Gold.Chemscore.DEInternal.Weighted>
4.0010

> <Gold.Chemscore.Rot.Weighted>
4.1186

> <Gold.Chemscore.Internal.Correction.Weighted>
   9.000000E+99

> <Gold.Protein.RotatedTorsions>
[ 6907 6896 6895 6894 ] final -109.66 input  -60.11 | X-H torsion
[ 7974 7965 7964 7962 ] final -125.67 input  175.53 | X-H torsion
[ 8008 7997 7996 7995 ] final   66.11 input   59.86 | X-H torsion
[ 10167 10162 10161 10158 ] final   44.16 input  -65.29 | X-H torsion
[ 10718 10713 10712 10709 ] final   59.95 input   66.30 | X-H torsion
[ 10763 10752 10751 10750 ] final  112.28 input  -60.55 | X-H torsion
[ 11005 11000 10999 10996 ] final -179.59 input  -57.11 | X-H torsion

> <Gold.Protein.ActiveResidues>
 VAL166  LYS551  ARG553  GLY616  TRP617  ASP618  TYR619  PRO620  LYS621  CYS622 
 ASP623  PHE694  ASN695  SER759  ASP760  ASP761  ALA762  ILE779  LEU786  VAL792 
 PHE793  MET794  SER795  GLU796  ALA797  LYS798  CYS799  TRP800  GLU811  SER814 

> <Gold.Protein.RotatedAtoms>
  150.7576  133.9497  159.3481 H   0  0  0  0  0  0  0  0  0  0  0  0  # atno 6907 bound_to 6896
  151.7413  135.0851  160.0325 H   0  0  0  0  0  0  0  0  0  0  0  0  # atno 6908 bound_to 6896
  152.3527  133.6161  159.5992 H   0  0  0  0  0  0  0  0  0  0  0  0  # atno 6909 bound_to 6896
  144.9952  140.7769  143.4530 H   0  0  0  0  0  0  0  0  0  0  0  0  # atno 7974 bound_to 7965
  155.6723  140.3497  155.4823 H   0  0  0  0  0  0  0  0  0  0  0  0  # atno 8008 bound_to 7997
  155.9677  140.1149  157.0862 H   0  0  0  0  0  0  0  0  0  0  0  0  # atno 8009 bound_to 7997
  154.4158  140.1163  156.5251 H   0  0  0  0  0  0  0  0  0  0  0  0  # atno 8010 bound_to 7997
  140.3371  144.2516  150.6160 H   0  0  0  0  0  0  0  0  0  0  0  0  # atno 10167 bound_to 10162
  157.5715  130.8911  149.9276 H   0  0  0  0  0  0  0  0  0  0  0  0  # atno 10718 bound_to 10713
  153.4755  135.3691  155.2414 H   0  0  0  0  0  0  0  0  0  0  0  0  # atno 10763 bound_to 10752
  154.8756  135.3941  154.3762 H   0  0  0  0  0  0  0  0  0  0  0  0  # atno 10764 bound_to 10752
  153.4357  135.7083  153.6266 H   0  0  0  0  0  0  0  0  0  0  0  0  # atno 10765 bound_to 10752
  140.4169  134.6641  157.4644 H   0  0  0  0  0  0  0  0  0  0  0  0  # atno 11005 bound_to 11000
  145.2230  139.2150  143.5083 LP  0  0  0  0  0  0  0  0  0  0  0  0  # atno 17320 bound_to 7965
  146.3440  140.2092  142.8590 LP  0  0  0  0  0  0  0  0  0  0  0  0  # atno 17321 bound_to 7965
  140.5343  143.2236  151.8188 LP  0  0  0  0  0  0  0  0  0  0  0  0  # atno 17342 bound_to 10162
  139.4846  144.4681  151.9459 LP  0  0  0  0  0  0  0  0  0  0  0  0  # atno 17343 bound_to 10162
  156.0761  130.3679  150.0675 LP  0  0  0  0  0  0  0  0  0  0  0  0  # atno 17370 bound_to 10713
  156.8827  130.9562  151.3597 LP  0  0  0  0  0  0  0  0  0  0  0  0  # atno 17371 bound_to 10713
  140.0227  134.6523  155.9216 LP  0  0  0  0  0  0  0  0  0  0  0  0  # atno 17394 bound_to 11000
  141.1799  133.6545  156.4978 LP  0  0  0  0  0  0  0  0  0  0  0  0  # atno 17395 bound_to 11000

$$$$
