AV-unprocessed.smi:2774|AV-procd|sdf|10683|dock4
  -GOLD-   2272015123D 1   1.00000     0.00000
 Structure written by MMmdl.
 35 36  0  0  0  0  0  0  0  0  2 V2000
  147.9509  141.1059  155.0741 O   0  0  0  0  0  0  0  0  0  0  0  0
  149.3183  141.1828  155.4260 C   0  0  1  0  0  0  0  0  0  0  0  0
  149.4277  141.7182  156.8646 C   0  0  0  0  0  0  0  0  0  0  0  0
  150.4867  142.7445  156.9800 N   0  3  0  0  0  0  0  0  0  0  0  0
  151.0660  142.9056  158.3320 C   0  0  1  0  0  0  0  0  0  0  0  0
  151.9838  141.7060  158.6394 C   0  0  0  0  0  0  0  0  0  0  0  0
  152.5624  141.7447  160.0637 C   0  0  0  0  0  0  0  0  0  0  0  0
  153.4259  142.9886  160.3117 C   0  0  0  0  0  0  0  0  0  0  0  0
  152.4499  144.5056  160.1349 S   0  0  0  0  0  0  0  0  0  0  0  0
  151.8332  144.2389  158.4504 C   0  0  0  0  0  0  0  0  0  0  0  0
  150.0063  139.8344  155.2848 C   0  0  0  0  0  0  0  0  0  0  0  0
  149.2883  138.7052  154.8380 C   0  0  0  0  0  0  0  0  0  0  0  0
  149.9701  137.4774  154.7179 C   0  0  0  0  0  0  0  0  0  0  0  0
  151.2800  137.3253  155.0072 N   0  0  0  0  0  0  0  0  0  0  0  0
  151.9628  138.4088  155.4343 C   0  0  0  0  0  0  0  0  0  0  0  0
  151.3763  139.6807  155.5893 C   0  0  0  0  0  0  0  0  0  0  0  0
  147.8767  141.2086  154.1369 H   0  0  0  0  0  0  0  0  0  0  0  0
  149.7928  141.8884  154.7422 H   0  0  0  0  0  0  0  0  0  0  0  0
  148.4694  142.1264  157.1856 H   0  0  0  0  0  0  0  0  0  0  0  0
  149.6670  140.8972  157.5419 H   0  0  0  0  0  0  0  0  0  0  0  0
  151.2326  142.4759  156.3545 H   0  0  0  0  0  0  0  0  0  0  0  0
  150.2471  142.8972  159.0532 H   0  0  0  0  0  0  0  0  0  0  0  0
  151.4230  140.7786  158.5153 H   0  0  0  0  0  0  0  0  0  0  0  0
  152.7999  141.6666  157.9166 H   0  0  0  0  0  0  0  0  0  0  0  0
  151.7526  141.7072  160.7934 H   0  0  0  0  0  0  0  0  0  0  0  0
  153.1647  140.8513  160.2314 H   0  0  0  0  0  0  0  0  0  0  0  0
  153.8498  142.9604  161.3158 H   0  0  0  0  0  0  0  0  0  0  0  0
  154.2619  143.0186  159.6122 H   0  0  0  0  0  0  0  0  0  0  0  0
  152.6761  144.2591  157.7585 H   0  0  0  0  0  0  0  0  0  0  0  0
  151.1962  145.0860  158.1984 H   0  0  0  0  0  0  0  0  0  0  0  0
  148.2386  138.7709  154.5919 H   0  0  0  0  0  0  0  0  0  0  0  0
  149.4491  136.5942  154.3789 H   0  0  0  0  0  0  0  0  0  0  0  0
  153.0086  138.2586  155.6581 H   0  0  0  0  0  0  0  0  0  0  0  0
  151.9685  140.5162  155.9329 H   0  0  0  0  0  0  0  0  0  0  0  0
  150.1182  143.6337  156.6731 H   0  0  0  0  0  0  0  0  0  0  0  0
  1  2  1  0  0  0  0
  1 17  1  0  0  0  0
  2  3  1  0  0  0  0
  2 11  1  0  0  0  0
  2 18  1  0  0  0  0
  3  4  1  0  0  0  0
  3 19  1  0  0  0  0
  3 20  1  0  0  0  0
  4  5  1  0  0  0  0
  4 21  1  0  0  0  0
  4 35  1  0  0  0  0
  5 10  1  0  0  0  0
  5  6  1  0  0  0  0
  5 22  1  0  0  0  0
  6  7  1  0  0  0  0
  6 23  1  0  0  0  0
  6 24  1  0  0  0  0
  7  8  1  0  0  0  0
  7 25  1  0  0  0  0
  7 26  1  0  0  0  0
  8  9  1  0  0  0  0
  8 27  1  0  0  0  0
  8 28  1  0  0  0  0
  9 10  1  0  0  0  0
 10 29  1  0  0  0  0
 10 30  1  0  0  0  0
 11 16  1  0  0  0  0
 11 12  2  0  0  0  0
 12 13  1  0  0  0  0
 12 31  1  0  0  0  0
 13 14  2  0  0  0  0
 13 32  1  0  0  0  0
 14 15  1  0  0  0  0
 15 16  2  0  0  0  0
 15 33  1  0  0  0  0
 16 34  1  0  0  0  0
M  CHG  1   4   1
M  END
> <s_m_source_file>
AV-unprocessed.smi

> <i_m_source_file_index>
2774

> <i_lp_mmshare_version>
43012

> <i_f3d_flags>
0

> <s_epik_input>
W2NIXTFbY0hdbltjSF1bY0hdYzFbQ0BIXShbT0hdKVtDSDJdW05IXVtDQEBIXTJbQ0gyXVtDSDJdW0NIMl1TW0NIMl0y

> <s_epik_cmdline>
J2VwaWtfcHl0aG9uJywgJy1waCcsICc3LjAnLCAnLXRuJywgJzgnLCAnLW1hJywgJzIwMCcsICctbWV0YWxfYmluZGluZycsICctaW1hZScsICc8aW5maWxlLm1hZT4nLCAnLW9tYWUnLCAnPG91dGZpbGUubWFlPic=

> <r_epik_Ionization_Penalty>
0.0205977

> <r_epik_Ionization_Penalty_Charging>
0.0185619

> <r_epik_Ionization_Penalty_Neutral>
0.00203589

> <r_epik_State_Penalty>
0.0147768

> <r_epik_Charging_Adjusted_Penalty>
0.0333386

> <i_epik_Tot_Q>
1

> <i_epik_Tot_abs_Q>
1

> <r_epik_Metal_State_Penalty>
0.0152254

> <b_epik_Metal_Only>
0

> <s_lp_Force_Field>
OPLS_2005

> <r_lp_Energy>
9.96731

> <b_lp_Chiralities_Consistent>
1

> <s_lp_Variant>
AV-unprocessed.smi:2774-4

> <Gold.Version>
5.8.1

> <Gold.Id.Protein>
6NUR|6NUR_protein|mol2

> <Gold.PLP.Fitness>
49.5085

> <Gold.PLP.PLP>
-39.9007

> <Gold.PLP.part.hbond>
-2.0000

> <Gold.PLP.part.metal>
0.0000

> <Gold.PLP.part.buried>
-1.8276

> <Gold.PLP.part.nonpolar>
-35.9289

> <Gold.PLP.part.repulsive>
0.1492

> <Gold.PLP.ligand.clash>
0.0000

> <Gold.PLP.ligand.torsion>
0.8591

> <Gold.PLP.Chemscore.Hbond>
2.8580

> <Gold.PLP.Chemscore.CHOScore>
0.9107

> <Gold.PLP.Chemscore.Metal>
0.0000

> <Gold.Chemscore.Hbonds>
donor molecule, donor type, donor heavy atom, donor atom, acceptor molecule, acceptor atom, score
      L1  H     4    35       P1  8028  2.00
      P1  H 10752 10763       L1    14  0.02
      L1  C    13    32       P1  7948  0.73

> <Gold.PLP.Chemscore.Internal.Correction>
0.0199

> <Gold.Rescore>
     Score         DG    S(hbond)    S(metal)    S(lipo)     H(rot)  DE(clash)    DE(int)     intcor
     19.32     -20.20       1.88        0.00     115.20       1.97       0.04       0.83       ----

> <Gold.Chemscore.Fitness>
19.3177

> <Gold.Chemscore.DG>
-20.1952

> <Gold.Chemscore.ZeroCoef>
-5.4800

> <Gold.Chemscore.Hbond>
1.8793

> <Gold.Chemscore.Metal>
0.0000

> <Gold.Chemscore.Lipo>
115.1968

> <Gold.Chemscore.Internal_Hbond>
0.0000

> <Gold.Chemscore.DEClash>
0.0443

> <Gold.Chemscore.DEInternal>
0.8332

> <Gold.Chemscore.Rot>
1.9686

> <Gold.Chemscore.Internal.Correction>
   9.000000E+99

> <Gold.Chemscore.Hbonds>
donor molecule, donor type, donor heavy atom, donor atom, acceptor molecule, acceptor atom, score
      L1  H     4    35       P1  8028  0.97
      P1  H 10752 10763       L1    14  0.04

> <Gold.Chemscore.Hbond.Weighted>
-6.2767

> <Gold.Chemscore.Metal.Weighted>
-0.0000

> <Gold.Chemscore.Lipo.Weighted>
-13.4780

> <Gold.Chemscore.Internal_Hbond.Weighted>
0.0000

> <Gold.Chemscore.DEClash.Weighted>
0.0443

> <Gold.Chemscore.DEInternal.Weighted>
0.8332

> <Gold.Chemscore.Rot.Weighted>
5.0396

> <Gold.Chemscore.Internal.Correction.Weighted>
   9.000000E+99

> <Gold.Protein.RotatedTorsions>
[ 6907 6896 6895 6894 ] final -132.87 input  -60.11 | X-H torsion
[ 7974 7965 7964 7962 ] final  133.57 input  175.53 | X-H torsion
[ 8008 7997 7996 7995 ] final   -5.39 input   59.86 | X-H torsion
[ 10167 10162 10161 10158 ] final -139.44 input  -65.29 | X-H torsion
[ 10718 10713 10712 10709 ] final   32.03 input   66.30 | X-H torsion
[ 10763 10752 10751 10750 ] final   55.25 input  -60.55 | X-H torsion
[ 11005 11000 10999 10996 ] final -128.61 input  -57.11 | X-H torsion

> <Gold.Protein.ActiveResidues>
 VAL166  LYS551  ARG553  GLY616  TRP617  ASP618  TYR619  PRO620  LYS621  CYS622 
 ASP623  PHE694  ASN695  SER759  ASP760  ASP761  ALA762  ILE779  LEU786  VAL792 
 PHE793  MET794  SER795  GLU796  ALA797  LYS798  CYS799  TRP800  GLU811  SER814 

> <Gold.Protein.RotatedAtoms>
  150.9675  133.6380  159.2743 H   0  0  0  0  0  0  0  0  0  0  0  0  # atno 6907 bound_to 6896
  151.3680  135.0916  159.9466 H   0  0  0  0  0  0  0  0  0  0  0  0  # atno 6908 bound_to 6896
  152.5170  133.9235  159.7600 H   0  0  0  0  0  0  0  0  0  0  0  0  # atno 6909 bound_to 6896
  144.9852  139.4463  143.5367 H   0  0  0  0  0  0  0  0  0  0  0  0  # atno 7974 bound_to 7965
  154.6044  140.2460  155.7750 H   0  0  0  0  0  0  0  0  0  0  0  0  # atno 8008 bound_to 7997
  156.2331  140.2959  156.0193 H   0  0  0  0  0  0  0  0  0  0  0  0  # atno 8009 bound_to 7997
  155.2156  140.0398  157.2931 H   0  0  0  0  0  0  0  0  0  0  0  0  # atno 8010 bound_to 7997
  139.8380  143.7360  152.2664 H   0  0  0  0  0  0  0  0  0  0  0  0  # atno 10167 bound_to 10162
  157.2800  130.7250  149.6551 H   0  0  0  0  0  0  0  0  0  0  0  0  # atno 10718 bound_to 10713
  152.9814  135.5717  154.5036 H   0  0  0  0  0  0  0  0  0  0  0  0  # atno 10763 bound_to 10752
  154.4551  135.2779  155.1755 H   0  0  0  0  0  0  0  0  0  0  0  0  # atno 10764 bound_to 10752
  154.3366  135.6238  153.5630 H   0  0  0  0  0  0  0  0  0  0  0  0  # atno 10765 bound_to 10752
  140.9502  134.1076  157.4069 H   0  0  0  0  0  0  0  0  0  0  0  0  # atno 11005 bound_to 11000
  146.3418  139.9149  142.8775 LP  0  0  0  0  0  0  0  0  0  0  0  0  # atno 17320 bound_to 7965
  145.2364  140.9993  143.3961 LP  0  0  0  0  0  0  0  0  0  0  0  0  # atno 17321 bound_to 7965
  139.7588  144.7513  151.0395 LP  0  0  0  0  0  0  0  0  0  0  0  0  # atno 17342 bound_to 10162
  140.7801  143.4775  151.0063 LP  0  0  0  0  0  0  0  0  0  0  0  0  # atno 17343 bound_to 10162
  155.9664  130.4341  150.5034 LP  0  0  0  0  0  0  0  0  0  0  0  0  # atno 17370 bound_to 10713
  157.2976  131.0639  151.2091 LP  0  0  0  0  0  0  0  0  0  0  0  0  # atno 17371 bound_to 10713
  139.8845  135.0063  156.6374 LP  0  0  0  0  0  0  0  0  0  0  0  0  # atno 17394 bound_to 11000
  140.7613  133.8815  155.8420 LP  0  0  0  0  0  0  0  0  0  0  0  0  # atno 17395 bound_to 11000

$$$$
