AV-unprocessed.smi:527|AV-procd|sdf|2827|dock4
  -GOLD-   2262023313D 1   1.00000     0.00000
 Structure written by MMmdl.
 43 44  0  0  0  0  0  0  0  0  2 V2000
  149.3470  141.1654  156.0544 C   0  0  0  0  0  0  0  0  0  0  0  0
  149.1138  141.0347  154.5351 C   0  0  2  0  0  0  0  0  0  0  0  0
  147.8315  141.7679  154.0911 C   0  0  0  0  0  0  0  0  0  0  0  0
  146.5574  141.0256  154.5237 C   0  0  0  0  0  0  0  0  0  0  0  0
  146.5574  139.5778  154.0141 C   0  0  0  0  0  0  0  0  0  0  0  0
  147.8253  138.8141  154.4497 C   0  0  1  0  0  0  0  0  0  0  0  0
  147.8090  137.4692  153.8770 N   0  0  0  0  0  0  0  0  0  0  0  0
  146.8888  136.5271  154.1313 C   0  0  0  0  0  0  0  0  0  0  0  0
  146.0434  136.6281  155.0231 O   0  0  0  0  0  0  0  0  0  0  0  0
  147.0224  135.4830  153.2907 N   0  0  0  0  0  0  0  0  0  0  0  0
  146.2778  134.3594  153.2506 C   0  0  0  0  0  0  0  0  0  0  0  0
  145.3299  134.1123  154.0009 O   0  0  0  0  0  0  0  0  0  0  0  0
  146.6937  133.3517  152.1712 C   0  0  0  0  0  0  0  0  0  0  0  0
  145.6464  133.1146  151.1695 N   0  0  0  0  0  0  0  0  0  0  0  0
  145.7059  132.2743  150.0867 C   0  0  0  0  0  0  0  0  0  0  0  0
  144.5034  132.3875  149.4377 C   0  0  0  0  0  0  0  0  0  0  0  0
  143.7618  133.2920  150.1497 N   0  3  0  0  0  0  0  0  0  0  0  0
  144.4585  133.7335  151.2021 C   0  0  0  0  0  0  0  0  0  0  0  0
  149.1076  139.5715  154.0170 C   0  0  2  0  0  0  0  0  0  0  0  0
  150.4036  138.8162  154.3733 C   0  0  0  0  0  0  0  0  0  0  0  0
  148.5913  140.6376  156.6351 H   0  0  0  0  0  0  0  0  0  0  0  0
  149.3237  142.2111  156.3616 H   0  0  0  0  0  0  0  0  0  0  0  0
  150.3209  140.7727  156.3453 H   0  0  0  0  0  0  0  0  0  0  0  0
  149.9489  141.5463  154.0549 H   0  0  0  0  0  0  0  0  0  0  0  0
  147.8210  142.7853  154.4837 H   0  0  0  0  0  0  0  0  0  0  0  0
  147.8328  141.8654  153.0046 H   0  0  0  0  0  0  0  0  0  0  0  0
  146.4698  141.0331  155.6105 H   0  0  0  0  0  0  0  0  0  0  0  0
  145.6798  141.5492  154.1440 H   0  0  0  0  0  0  0  0  0  0  0  0
  145.6651  139.0662  154.3768 H   0  0  0  0  0  0  0  0  0  0  0  0
  146.4870  139.5818  152.9254 H   0  0  0  0  0  0  0  0  0  0  0  0
  147.8276  138.7289  155.5377 H   0  0  0  0  0  0  0  0  0  0  0  0
  148.5637  137.2401  153.2470 H   0  0  0  0  0  0  0  0  0  0  0  0
  147.7676  135.5492  152.6132 H   0  0  0  0  0  0  0  0  0  0  0  0
  147.5810  133.7137  151.6498 H   0  0  0  0  0  0  0  0  0  0  0  0
  146.9509  132.3979  152.6340 H   0  0  0  0  0  0  0  0  0  0  0  0
  146.5773  131.6758  149.8629 H   0  0  0  0  0  0  0  0  0  0  0  0
  144.1304  131.9058  148.5457 H   0  0  0  0  0  0  0  0  0  0  0  0
  144.1279  134.4520  151.9311 H   0  0  0  0  0  0  0  0  0  0  0  0
  149.0869  139.6344  152.9275 H   0  0  0  0  0  0  0  0  0  0  0  0
  150.4559  138.5872  155.4378 H   0  0  0  0  0  0  0  0  0  0  0  0
  151.2844  139.4036  154.1127 H   0  0  0  0  0  0  0  0  0  0  0  0
  150.4778  137.8722  153.8332 H   0  0  0  0  0  0  0  0  0  0  0  0
  142.8230  133.5886  149.9139 H   0  0  0  0  0  0  0  0  0  0  0  0
  1  2  1  0  0  0  0
  1 21  1  0  0  0  0
  1 22  1  0  0  0  0
  1 23  1  0  0  0  0
  2 19  1  0  0  0  0
  2  3  1  0  0  0  0
  2 24  1  0  0  0  0
  3  4  1  0  0  0  0
  3 25  1  0  0  0  0
  3 26  1  0  0  0  0
  4  5  1  0  0  0  0
  4 27  1  0  0  0  0
  4 28  1  0  0  0  0
  5  6  1  0  0  0  0
  5 29  1  0  0  0  0
  5 30  1  0  0  0  0
  6  7  1  0  0  0  0
  6 19  1  0  0  0  0
  6 31  1  0  0  0  0
  7  8  1  0  0  0  0
  7 32  1  0  0  0  0
  8  9  2  0  0  0  0
  8 10  1  0  0  0  0
 10 11  1  0  0  0  0
 10 33  1  0  0  0  0
 11 12  2  0  0  0  0
 11 13  1  0  0  0  0
 13 14  1  0  0  0  0
 13 34  1  0  0  0  0
 13 35  1  0  0  0  0
 14 18  1  0  0  0  0
 14 15  1  0  0  0  0
 15 16  2  0  0  0  0
 15 36  1  0  0  0  0
 16 17  1  0  0  0  0
 16 37  1  0  0  0  0
 17 18  2  0  0  0  0
 17 43  1  0  0  0  0
 18 38  1  0  0  0  0
 19 20  1  0  0  0  0
 19 39  1  0  0  0  0
 20 40  1  0  0  0  0
 20 41  1  0  0  0  0
 20 42  1  0  0  0  0
M  CHG  1  17   1
M  END
> <s_m_source_file>
AV-unprocessed.smi

> <i_m_source_file_index>
527

> <i_lp_mmshare_version>
43012

> <i_f3d_flags>
0

> <s_epik_input>
W0NIM11bQ0BASF0xW0NIMl1bQ0gyXVtDSDJdW0NASF0oW0NASF0xW0NIM10pW05IXUMoPU8pW05IXUMoPU8pW0NIMl1uMltjSF1bY0hdbltjSF0y

> <s_epik_cmdline>
J2VwaWtfcHl0aG9uJywgJy1waCcsICc3LjAnLCAnLXRuJywgJzgnLCAnLW1hJywgJzIwMCcsICctbWV0YWxfYmluZGluZycsICctaW1hZScsICc8aW5maWxlLm1hZT4nLCAnLW9tYWUnLCAnPG91dGZpbGUubWFlPic=

> <r_lp_tautomer_probability>
1

> <r_epik_Ionization_Penalty>
0.816441

> <r_epik_Ionization_Penalty_Charging>
0

> <r_epik_Ionization_Penalty_Neutral>
0.816441

> <r_epik_State_Penalty>
0.849034

> <r_epik_Charging_Adjusted_Penalty>
0.849034

> <i_epik_Tot_Q>
1

> <i_epik_Tot_abs_Q>
1

> <r_epik_Metal_State_Penalty>
0.984327

> <b_epik_Metal_Only>
0

> <s_lp_Force_Field>
OPLS_2005

> <r_lp_Energy>
18.5197

> <b_lp_Chiralities_Consistent>
1

> <s_lp_Variant>
AV-unprocessed.smi:527-13

> <Gold.Version>
5.8.1

> <Gold.Id.Protein>
6NUR|6NUR_protein|mol2

> <Gold.PLP.Fitness>
47.7043

> <Gold.PLP.PLP>
-33.3367

> <Gold.PLP.part.hbond>
-2.8791

> <Gold.PLP.part.metal>
0.0000

> <Gold.PLP.part.buried>
-3.3915

> <Gold.PLP.part.nonpolar>
-27.9018

> <Gold.PLP.part.repulsive>
0.1630

> <Gold.PLP.ligand.clash>
0.0000

> <Gold.PLP.ligand.torsion>
0.0452

> <Gold.PLP.Chemscore.Hbond>
3.8480

> <Gold.PLP.Chemscore.CHOScore>
0.9667

> <Gold.PLP.Chemscore.Metal>
0.0000

> <Gold.Chemscore.Hbonds>
donor molecule, donor type, donor heavy atom, donor atom, acceptor molecule, acceptor atom, score
      L1  H     7    32       P1  7948  0.86
      L1  H    10    33       P1  7948  1.00
      L1  H    17    43       P1 10186  2.00
      L1  C    15    36       P1 10747  0.94

> <Gold.PLP.Chemscore.Internal.Correction>
0.0138

> <Gold.Rescore>
     Score         DG    S(hbond)    S(metal)    S(lipo)     H(rot)  DE(clash)    DE(int)     intcor
     16.81     -19.39       2.86        0.00      74.68       1.71       0.05       2.52       ----

> <Gold.Chemscore.Fitness>
16.8144

> <Gold.Chemscore.DG>
-19.3904

> <Gold.Chemscore.ZeroCoef>
-5.4800

> <Gold.Chemscore.Hbond>
2.8558

> <Gold.Chemscore.Metal>
0.0000

> <Gold.Chemscore.Lipo>
74.6787

> <Gold.Chemscore.Internal_Hbond>
0.0000

> <Gold.Chemscore.DEClash>
0.0536

> <Gold.Chemscore.DEInternal>
2.5225

> <Gold.Chemscore.Rot>
1.7052

> <Gold.Chemscore.Internal.Correction>
   9.000000E+99

> <Gold.Chemscore.Hbonds>
donor molecule, donor type, donor heavy atom, donor atom, acceptor molecule, acceptor atom, score
      L1  H     7    32       P1  7948  0.85
      L1  H    10    33       P1  7948  0.94
      L1  H    17    43       P1 10186  0.93

> <Gold.Chemscore.Hbond.Weighted>
-9.5383

> <Gold.Chemscore.Metal.Weighted>
-0.0000

> <Gold.Chemscore.Lipo.Weighted>
-8.7374

> <Gold.Chemscore.Internal_Hbond.Weighted>
0.0000

> <Gold.Chemscore.DEClash.Weighted>
0.0536

> <Gold.Chemscore.DEInternal.Weighted>
2.5225

> <Gold.Chemscore.Rot.Weighted>
4.3653

> <Gold.Chemscore.Internal.Correction.Weighted>
   9.000000E+99

> <Gold.Protein.RotatedTorsions>
[ 6907 6896 6895 6894 ] final  -24.32 input  -60.11 | X-H torsion
[ 7974 7965 7964 7962 ] final  -29.19 input  175.53 | X-H torsion
[ 8008 7997 7996 7995 ] final  -10.17 input   59.86 | X-H torsion
[ 10167 10162 10161 10158 ] final  -80.75 input  -65.29 | X-H torsion
[ 10718 10713 10712 10709 ] final  -82.89 input   66.30 | X-H torsion
[ 10763 10752 10751 10750 ] final -152.57 input  -60.55 | X-H torsion
[ 11005 11000 10999 10996 ] final -176.41 input  -57.11 | X-H torsion

> <Gold.Protein.ActiveResidues>
 VAL166  LYS551  ARG553  GLY616  TRP617  ASP618  TYR619  PRO620  LYS621  CYS622 
 ASP623  PHE694  ASN695  SER759  ASP760  ASP761  ALA762  ILE779  LEU786  VAL792 
 PHE793  MET794  SER795  GLU796  ALA797  LYS798  CYS799  TRP800  GLU811  SER814 

> <Gold.Protein.RotatedAtoms>
  151.1913  135.0403  159.8833 H   0  0  0  0  0  0  0  0  0  0  0  0  # atno 6907 bound_to 6896
  152.5439  134.0953  159.8305 H   0  0  0  0  0  0  0  0  0  0  0  0  # atno 6908 bound_to 6896
  151.1082  133.5145  159.2639 H   0  0  0  0  0  0  0  0  0  0  0  0  # atno 6909 bound_to 6896
  146.1235  140.5380  142.8725 H   0  0  0  0  0  0  0  0  0  0  0  0  # atno 7974 bound_to 7965
  154.5579  140.2336  155.8382 H   0  0  0  0  0  0  0  0  0  0  0  0  # atno 8008 bound_to 7997
  156.2004  140.3054  155.9474 H   0  0  0  0  0  0  0  0  0  0  0  0  # atno 8009 bound_to 7997
  155.2945  140.0428  157.3016 H   0  0  0  0  0  0  0  0  0  0  0  0  # atno 8010 bound_to 7997
  140.4475  143.2494  151.8537 H   0  0  0  0  0  0  0  0  0  0  0  0  # atno 10167 bound_to 10162
  156.0026  130.4648  150.4174 H   0  0  0  0  0  0  0  0  0  0  0  0  # atno 10718 bound_to 10713
  154.7985  135.3233  154.7607 H   0  0  0  0  0  0  0  0  0  0  0  0  # atno 10763 bound_to 10752
  153.8280  135.6882  153.4822 H   0  0  0  0  0  0  0  0  0  0  0  0  # atno 10764 bound_to 10752
  153.1689  135.4631  154.9818 H   0  0  0  0  0  0  0  0  0  0  0  0  # atno 10765 bound_to 10752
  140.4524  134.6331  157.4807 H   0  0  0  0  0  0  0  0  0  0  0  0  # atno 11005 bound_to 11000
  144.7619  140.5442  143.6729 LP  0  0  0  0  0  0  0  0  0  0  0  0  # atno 17320 bound_to 7965
  145.5416  139.1475  143.3444 LP  0  0  0  0  0  0  0  0  0  0  0  0  # atno 17321 bound_to 7965
  139.4794  144.5158  151.8869 LP  0  0  0  0  0  0  0  0  0  0  0  0  # atno 17342 bound_to 10162
  140.4246  144.2197  150.5887 LP  0  0  0  0  0  0  0  0  0  0  0  0  # atno 17343 bound_to 10162
  157.2233  131.0487  151.2534 LP  0  0  0  0  0  0  0  0  0  0  0  0  # atno 17370 bound_to 10713
  157.3780  130.7216  149.6610 LP  0  0  0  0  0  0  0  0  0  0  0  0  # atno 17371 bound_to 10713
  139.9998  134.6854  155.9549 LP  0  0  0  0  0  0  0  0  0  0  0  0  # atno 17394 bound_to 11000
  141.1658  133.6537  156.4475 LP  0  0  0  0  0  0  0  0  0  0  0  0  # atno 17395 bound_to 11000

$$$$
