AV-unprocessed.smi:160|AV-procd|sdf|1373|dock3
  -GOLD-   2262019 93D 1   1.00000     0.00000
 Structure written by MMmdl.
 28 29  0  0  0  0  0  0  0  0  2 V2000
  151.9459  137.0324  154.3020 N   0  5  0  0  0  0  0  0  0  0  0  0
  152.6163  138.0772  154.8348 C   0  0  0  0  0  0  0  0  0  0  0  0
  153.8390  138.1976  154.9035 O   0  0  0  0  0  0  0  0  0  0  0  0
  151.7355  139.1750  155.3821 C   0  0  0  0  0  0  0  0  0  0  0  0
  152.2249  140.0711  156.2926 N   0  0  0  0  0  0  0  0  0  0  0  0
  151.1380  140.8098  156.4688 C   0  0  0  0  0  0  0  0  0  0  0  0
  150.0864  140.4212  155.7426 N   0  0  0  0  0  0  0  0  0  0  0  0
  148.7038  140.9992  155.6772 C   0  0  2  0  0  0  0  0  0  0  0  0
  147.7895  139.9965  156.0090 O   0  0  0  0  0  0  0  0  0  0  0  0
  147.1490  139.5185  154.8303 C   0  0  1  0  0  0  0  0  0  0  0  0
  145.8114  138.8567  155.1960 C   0  0  0  0  0  0  0  0  0  0  0  0
  145.0607  138.5994  154.0289 O   0  0  0  0  0  0  0  0  0  0  0  0
  146.9928  140.8117  154.0283 C   0  0  2  0  0  0  0  0  0  0  0  0
  146.7161  140.5851  152.6586 O   0  0  0  0  0  0  0  0  0  0  0  0
  148.3171  141.5325  154.2761 C   0  0  2  0  0  0  0  0  0  0  0  0
  149.2781  141.2763  153.2628 O   0  0  0  0  0  0  0  0  0  0  0  0
  150.4587  139.3350  155.0203 N   0  0  0  0  0  0  0  0  0  0  0  0
  148.6975  141.7710  156.4477 H   0  0  0  0  0  0  0  0  0  0  0  0
  147.8031  138.8254  154.2975 H   0  0  0  0  0  0  0  0  0  0  0  0
  146.1830  141.4054  154.4552 H   0  0  0  0  0  0  0  0  0  0  0  0
  148.1665  142.6109  154.3336 H   0  0  0  0  0  0  0  0  0  0  0  0
  151.7558  137.0371  153.2927 H   0  0  0  0  0  0  0  0  0  0  0  0
  151.1088  141.6549  157.1406 H   0  0  0  0  0  0  0  0  0  0  0  0
  145.9644  137.9362  155.7603 H   0  0  0  0  0  0  0  0  0  0  0  0
  145.2209  139.5259  155.8220 H   0  0  0  0  0  0  0  0  0  0  0  0
  144.8087  139.4247  153.6444 H   0  0  0  0  0  0  0  0  0  0  0  0
  145.7812  140.6334  152.5303 H   0  0  0  0  0  0  0  0  0  0  0  0
  148.8946  140.7000  152.6196 H   0  0  0  0  0  0  0  0  0  0  0  0
  1  2  1  0  0  0  0
  1 22  1  0  0  0  0
  2  3  2  0  0  0  0
  2  4  1  0  0  0  0
  4 17  2  0  0  0  0
  4  5  1  0  0  0  0
  5  6  2  0  0  0  0
  6  7  1  0  0  0  0
  6 23  1  0  0  0  0
  7  8  1  0  0  0  0
  7 17  1  0  0  0  0
  8 18  1  0  0  0  0
  8 15  1  0  0  0  0
  8  9  1  0  0  0  0
  9 10  1  0  0  0  0
 10 19  1  0  0  0  0
 10 11  1  0  0  0  0
 10 13  1  0  0  0  0
 11 12  1  0  0  0  0
 11 24  1  0  0  0  0
 11 25  1  0  0  0  0
 12 26  1  0  0  0  0
 13 20  1  0  0  0  0
 13 14  1  0  0  0  0
 13 15  1  0  0  0  0
 14 27  1  0  0  0  0
 15 21  1  0  0  0  0
 15 16  1  0  0  0  0
 16 28  1  0  0  0  0
M  CHG  1   1  -1
M  END
> <s_m_source_file>
AV-unprocessed.smi

> <i_m_source_file_index>
160

> <i_lp_mmshare_version>
43012

> <i_f3d_flags>
0

> <s_epik_input>
W05IMl1DKD1PKWMxbltjSF1uKG4xKVtDQEBIXTJPW0NASF0oW0NIMl1bT0hdKVtDQEBIXShbT0hdKVtDQEhdMltPSF0=

> <s_epik_cmdline>
J2VwaWtfcHl0aG9uJywgJy1waCcsICc3LjAnLCAnLXRuJywgJzgnLCAnLW1hJywgJzIwMCcsICctbWV0YWxfYmluZGluZycsICctaW1hZScsICc8aW5maWxlLm1hZT4nLCAnLW9tYWUnLCAnPG91dGZpbGUubWFlPic=

> <r_lp_tautomer_probability>
1

> <r_epik_Ionization_Penalty>
6.6993

> <r_epik_Ionization_Penalty_Charging>
6.6993

> <r_epik_Ionization_Penalty_Neutral>
6.01698e-06

> <r_epik_State_Penalty>
6.69929

> <r_epik_Charging_Adjusted_Penalty>
13.3986

> <i_epik_Tot_Q>
-1

> <i_epik_Tot_abs_Q>
1

> <r_epik_Metal_State_Penalty>
2.62798

> <b_epik_Metal_Only>
1

> <s_epik_Chemistry_Notes>
This compound contains an acetal/aminal-like group ( X-CH(R)-Y where X, Y are N, S, or O) that may be acid/base labile, releasing an aldehyde.

> <s_lp_Force_Field>
OPLS_2005

> <r_lp_Energy>
50.1619

> <b_lp_Chiralities_Consistent>
1

> <s_lp_Variant>
AV-unprocessed.smi:160-31

> <Gold.Version>
5.8.1

> <Gold.Id.Protein>
6NUR|6NUR_protein|mol2

> <Gold.PLP.Fitness>
50.0416

> <Gold.PLP.PLP>
-28.2247

> <Gold.PLP.part.hbond>
-9.0008

> <Gold.PLP.part.metal>
0.0000

> <Gold.PLP.part.buried>
-3.9700

> <Gold.PLP.part.nonpolar>
-16.6519

> <Gold.PLP.part.repulsive>
0.0986

> <Gold.PLP.ligand.clash>
0.0000

> <Gold.PLP.ligand.torsion>
0.2241

> <Gold.PLP.Chemscore.Hbond>
7.4150

> <Gold.PLP.Chemscore.CHOScore>
0.0000

> <Gold.PLP.Chemscore.Metal>
0.0000

> <Gold.Chemscore.Hbonds>
donor molecule, donor type, donor heavy atom, donor atom, acceptor molecule, acceptor atom, score
      L1  H     1    22       P1  7949  0.67
      L1  H    12    26       P1 10175  1.00
      L1  H    14    27       P1 10175  0.84
      L1  H    16    28       P1  7957  0.58
      P1  H  7989  7998       L1    16  0.02
      P1  H  7997  8008       L1     5  0.78
      P1  H  8011  8017       L1    16  1.00
      P1  H 10752 10765       L1     1  1.30

> <Gold.PLP.Chemscore.Internal.Correction>
0.0202

> <Gold.Rescore>
     Score         DG    S(hbond)    S(metal)    S(lipo)     H(rot)  DE(clash)    DE(int)     intcor
     11.05     -12.84       4.73        0.00      16.23       4.04       0.34       1.45       ----

> <Gold.Chemscore.Fitness>
11.0520

> <Gold.Chemscore.DG>
-12.8409

> <Gold.Chemscore.ZeroCoef>
-5.4800

> <Gold.Chemscore.Hbond>
4.7319

> <Gold.Chemscore.Metal>
0.0000

> <Gold.Chemscore.Lipo>
16.2338

> <Gold.Chemscore.Internal_Hbond>
0.0000

> <Gold.Chemscore.DEClash>
0.3354

> <Gold.Chemscore.DEInternal>
1.4535

> <Gold.Chemscore.Rot>
4.0403

> <Gold.Chemscore.Internal.Correction>
   9.000000E+99

> <Gold.Chemscore.Hbonds>
donor molecule, donor type, donor heavy atom, donor atom, acceptor molecule, acceptor atom, score
      L1  H     1    22       P1  7949  0.62
      L1  H    12    26       P1 10175  0.95
      L1  H    14    27       P1 10175  0.29
      L1  H    16    28       P1  7957  0.58
      P1  H  7989  7998       L1    16  0.02
      P1  H  7997  8008       L1     5  0.62
      P1  H  8011  8017       L1    16  0.24
      P1  H 10752 10765       L1     1  0.04

> <Gold.Chemscore.Hbond.Weighted>
-15.8046

> <Gold.Chemscore.Metal.Weighted>
-0.0000

> <Gold.Chemscore.Lipo.Weighted>
-1.8994

> <Gold.Chemscore.Internal_Hbond.Weighted>
0.0000

> <Gold.Chemscore.DEClash.Weighted>
0.3354

> <Gold.Chemscore.DEInternal.Weighted>
1.4535

> <Gold.Chemscore.Rot.Weighted>
10.3431

> <Gold.Chemscore.Internal.Correction.Weighted>
   9.000000E+99

> <Gold.Protein.RotatedTorsions>
[ 6907 6896 6895 6894 ] final  178.67 input  -60.11 | X-H torsion
[ 7974 7965 7964 7962 ] final -139.02 input  175.53 | X-H torsion
[ 8008 7997 7996 7995 ] final  -36.09 input   59.86 | X-H torsion
[ 10167 10162 10161 10158 ] final -151.43 input  -65.29 | X-H torsion
[ 10718 10713 10712 10709 ] final   49.58 input   66.30 | X-H torsion
[ 10763 10752 10751 10750 ] final  155.28 input  -60.55 | X-H torsion
[ 11005 11000 10999 10996 ] final -137.39 input  -57.11 | X-H torsion

> <Gold.Protein.ActiveResidues>
 VAL166  LYS551  ARG553  GLY616  TRP617  ASP618  TYR619  PRO620  LYS621  CYS622 
 ASP623  PHE694  ASN695  SER759  ASP760  ASP761  ALA762  ILE779  LEU786  VAL792 
 PHE793  MET794  SER795  GLU796  ALA797  LYS798  CYS799  TRP800  GLU811  SER814 

> <Gold.Protein.RotatedAtoms>
  151.6841  133.3311  159.3226 H   0  0  0  0  0  0  0  0  0  0  0  0  # atno 6907 bound_to 6896
  150.7809  134.6756  159.6425 H   0  0  0  0  0  0  0  0  0  0  0  0  # atno 6908 bound_to 6896
  152.3866  134.6510  160.0175 H   0  0  0  0  0  0  0  0  0  0  0  0  # atno 6909 bound_to 6896
  144.8711  140.6367  143.5266 H   0  0  0  0  0  0  0  0  0  0  0  0  # atno 7974 bound_to 7965
  154.4080  140.1640  156.2317 H   0  0  0  0  0  0  0  0  0  0  0  0  # atno 8008 bound_to 7997
  155.9277  140.3417  155.6200 H   0  0  0  0  0  0  0  0  0  0  0  0  # atno 8009 bound_to 7997
  155.7145  140.0761  157.2348 H   0  0  0  0  0  0  0  0  0  0  0  0  # atno 8010 bound_to 7997
  139.7268  143.8871  152.2522 H   0  0  0  0  0  0  0  0  0  0  0  0  # atno 10167 bound_to 10162
  157.4801  130.8309  149.8083 H   0  0  0  0  0  0  0  0  0  0  0  0  # atno 10718 bound_to 10713
  154.1658  135.2807  155.3095 H   0  0  0  0  0  0  0  0  0  0  0  0  # atno 10763 bound_to 10752
  154.6112  135.5498  153.7479 H   0  0  0  0  0  0  0  0  0  0  0  0  # atno 10764 bound_to 10752
  153.0179  135.6416  154.1799 H   0  0  0  0  0  0  0  0  0  0  0  0  # atno 10765 bound_to 10752
  140.8716  134.2044  157.4648 H   0  0  0  0  0  0  0  0  0  0  0  0  # atno 11005 bound_to 11000
  145.4129  139.1577  143.4116 LP  0  0  0  0  0  0  0  0  0  0  0  0  # atno 17320 bound_to 7965
  146.2930  140.4235  142.8732 LP  0  0  0  0  0  0  0  0  0  0  0  0  # atno 17321 bound_to 7965
  139.8782  144.7032  150.8908 LP  0  0  0  0  0  0  0  0  0  0  0  0  # atno 17342 bound_to 10162
  140.7764  143.3682  151.1698 LP  0  0  0  0  0  0  0  0  0  0  0  0  # atno 17343 bound_to 10162
  156.0117  130.3830  150.2243 LP  0  0  0  0  0  0  0  0  0  0  0  0  # atno 17370 bound_to 10713
  157.0429  131.0040  151.3278 LP  0  0  0  0  0  0  0  0  0  0  0  0  # atno 17371 bound_to 10713
  139.8712  134.9776  156.4967 LP  0  0  0  0  0  0  0  0  0  0  0  0  # atno 17394 bound_to 11000
  140.8567  133.8091  155.9223 LP  0  0  0  0  0  0  0  0  0  0  0  0  # atno 17395 bound_to 11000

$$$$
