AV-unprocessed.smi:37|AV-procd|sdf|313|dock6
  -GOLD-   2262016133D 1   1.00000     0.00000
 Structure written by MMmdl.
 44 45  0  0  0  0  0  0  0  0  1 V2000
  146.3060  134.0115  162.5785 C   0  0  0  0  0  0  0  0  0  0  0  0
  147.4997  134.9769  162.6228 C   0  0  0  0  0  0  0  0  0  0  0  0
  147.5714  135.9154  161.4165 C   0  0  0  0  0  0  0  0  0  0  0  0
  147.4952  137.1401  161.5288 O   0  0  0  0  0  0  0  0  0  0  0  0
  147.7187  135.2402  160.2653 O   0  0  0  0  0  0  0  0  0  0  0  0
  147.7776  135.9371  159.0293 C   0  0  0  0  0  0  0  0  0  0  0  0
  148.2550  134.9739  157.9321 C   0  0  2  0  0  0  0  0  0  0  0  0
  149.6753  135.0026  157.7896 O   0  0  0  0  0  0  0  0  0  0  0  0
  150.0410  134.8776  156.4438 C   0  0  2  0  0  0  0  0  0  0  0  0
  150.6896  136.1651  155.9708 N   0  0  0  0  0  0  0  0  0  0  0  0
  150.1724  136.9245  154.9265 C   0  0  0  0  0  0  0  0  0  0  0  0
  150.7599  138.0586  154.4777 C   0  0  0  0  0  0  0  0  0  0  0  0
  150.2051  138.7337  153.4569 F   0  0  0  0  0  0  0  0  0  0  0  0
  151.9896  138.5531  155.0890 C   0  0  0  0  0  0  0  0  0  0  0  0
  152.5962  139.5672  154.7506 O   0  0  0  0  0  0  0  0  0  0  0  0
  152.4682  137.7659  156.1399 N   0  0  0  0  0  0  0  0  0  0  0  0
  151.8743  136.5936  156.6101 C   0  0  0  0  0  0  0  0  0  0  0  0
  152.3874  135.9735  157.5406 O   0  0  0  0  0  0  0  0  0  0  0  0
  148.7548  134.6084  155.6479 C   0  0  1  0  0  0  0  0  0  0  0  0
  148.4449  132.6440  155.5288 Br  0  0  0  0  0  0  0  0  0  0  0  0
  147.6899  135.2335  156.5305 C   0  0  2  0  0  0  0  0  0  0  0  0
  147.5977  136.6333  156.2883 O   0  0  0  0  0  0  0  0  0  0  0  0
  147.0698  137.1031  155.1467 C   0  0  0  0  0  0  0  0  0  0  0  0
  146.5153  136.4317  154.2769 O   0  0  0  0  0  0  0  0  0  0  0  0
  147.2494  138.6123  154.9977 C   0  0  0  0  0  0  0  0  0  0  0  0
  146.7519  139.1301  153.6409 C   0  0  0  0  0  0  0  0  0  0  0  0
  153.3165  138.0700  156.5953 H   0  0  0  0  0  0  0  0  0  0  0  0
  146.3099  133.3570  163.4500 H   0  0  0  0  0  0  0  0  0  0  0  0
  146.3391  133.3781  161.6912 H   0  0  0  0  0  0  0  0  0  0  0  0
  145.3578  134.5501  162.5754 H   0  0  0  0  0  0  0  0  0  0  0  0
  147.4511  135.5808  163.5291 H   0  0  0  0  0  0  0  0  0  0  0  0
  148.4279  134.4073  162.6724 H   0  0  0  0  0  0  0  0  0  0  0  0
  146.8051  136.3506  158.7593 H   0  0  0  0  0  0  0  0  0  0  0  0
  148.4671  136.7761  159.1243 H   0  0  0  0  0  0  0  0  0  0  0  0
  147.9934  133.9552  158.2217 H   0  0  0  0  0  0  0  0  0  0  0  0
  150.8087  134.1098  156.3298 H   0  0  0  0  0  0  0  0  0  0  0  0
  149.2677  136.6148  154.4271 H   0  0  0  0  0  0  0  0  0  0  0  0
  148.7877  135.0046  154.6326 H   0  0  0  0  0  0  0  0  0  0  0  0
  146.7144  134.7615  156.4040 H   0  0  0  0  0  0  0  0  0  0  0  0
  146.7153  139.1115  155.8065 H   0  0  0  0  0  0  0  0  0  0  0  0
  148.3056  138.8538  155.1193 H   0  0  0  0  0  0  0  0  0  0  0  0
  146.9548  140.1961  153.5391 H   0  0  0  0  0  0  0  0  0  0  0  0
  145.6760  138.9902  153.5301 H   0  0  0  0  0  0  0  0  0  0  0  0
  147.2465  138.6187  152.8143 H   0  0  0  0  0  0  0  0  0  0  0  0
  1  2  1  0  0  0  0
  1 28  1  0  0  0  0
  1 29  1  0  0  0  0
  1 30  1  0  0  0  0
  2  3  1  0  0  0  0
  2 31  1  0  0  0  0
  2 32  1  0  0  0  0
  3  4  2  0  0  0  0
  3  5  1  0  0  0  0
  5  6  1  0  0  0  0
  6  7  1  0  0  0  0
  6 33  1  0  0  0  0
  6 34  1  0  0  0  0
  7 21  1  0  0  0  0
  7  8  1  0  0  0  0
  7 35  1  0  0  0  0
  8  9  1  0  0  0  0
  9 10  1  0  0  0  0
  9 19  1  0  0  0  0
  9 36  1  0  0  0  0
 10 17  1  0  0  0  0
 10 11  1  0  0  0  0
 11 12  2  0  0  0  0
 11 37  1  0  0  0  0
 12 13  1  0  0  0  0
 12 14  1  0  0  0  0
 14 15  2  0  0  0  0
 14 16  1  0  0  0  0
 16 27  1  0  0  0  0
 16 17  1  0  0  0  0
 17 18  2  0  0  0  0
 19 20  1  0  0  0  0
 19 21  1  0  0  0  0
 19 38  1  0  0  0  0
 21 22  1  0  0  0  0
 21 39  1  0  0  0  0
 22 23  1  0  0  0  0
 23 24  2  0  0  0  0
 23 25  1  0  0  0  0
 25 26  1  0  0  0  0
 25 40  1  0  0  0  0
 25 41  1  0  0  0  0
 26 42  1  0  0  0  0
 26 43  1  0  0  0  0
 26 44  1  0  0  0  0
M  END
> <s_m_source_file>
AV-unprocessed.smi

> <i_m_source_file_index>
37

> <i_lp_mmshare_version>
43012

> <i_f3d_flags>
0

> <s_epik_input>
W0NIM11bQ0gyXUMoPU8pT1tDSDJdW0NAQEhdMU9bQ0BASF0objJbY0hdYyhGKWMoPU8pW25IXWMyPU8pW0NAQEhdKEJyKVtDQEhdMU9DKD1PKVtDSDJdW0NIM10=

> <s_epik_cmdline>
J2VwaWtfcHl0aG9uJywgJy1waCcsICc3LjAnLCAnLXRuJywgJzgnLCAnLW1hJywgJzIwMCcsICctbWV0YWxfYmluZGluZycsICctaW1hZScsICc8aW5maWxlLm1hZT4nLCAnLW9tYWUnLCAnPG91dGZpbGUubWFlPic=

> <r_lp_tautomer_probability>
0.999537

> <r_epik_Ionization_Penalty>
0.104106

> <r_epik_Ionization_Penalty_Charging>
0.104106

> <r_epik_Ionization_Penalty_Neutral>
3.94675e-16

> <r_epik_State_Penalty>
0.0940182

> <r_epik_Charging_Adjusted_Penalty>
0.198124

> <i_epik_Tot_Q>
0

> <i_epik_Tot_abs_Q>
0

> <r_epik_Metal_State_Penalty>
3.05314

> <b_epik_Metal_Only>
0

> <s_epik_Chemistry_Notes>
This compound has an ester and may undergo hydrolysis at high or low pH. This compound contains an acetal/aminal-like group ( X-CH(R)-Y where X, Y are N, S, or O) that may be acid/base labile, releasing an aldehyde.

> <s_lp_Force_Field>
OPLS_2005

> <r_lp_Energy>
21.1206

> <b_lp_Chiralities_Consistent>
1

> <s_lp_Variant>
AV-unprocessed.smi:37-11

> <Gold.Version>
5.8.1

> <Gold.Id.Protein>
6NUR|6NUR_protein|mol2

> <Gold.PLP.Fitness>
45.9826

> <Gold.PLP.PLP>
-32.4637

> <Gold.PLP.part.hbond>
-5.8288

> <Gold.PLP.part.metal>
0.0000

> <Gold.PLP.part.buried>
-3.0976

> <Gold.PLP.part.nonpolar>
-23.8980

> <Gold.PLP.part.repulsive>
0.2877

> <Gold.PLP.ligand.clash>
0.0000

> <Gold.PLP.ligand.torsion>
0.5645

> <Gold.PLP.Chemscore.Hbond>
4.1334

> <Gold.PLP.Chemscore.CHOScore>
0.6851

> <Gold.PLP.Chemscore.Metal>
0.0000

> <Gold.Chemscore.Hbonds>
donor molecule, donor type, donor heavy atom, donor atom, acceptor molecule, acceptor atom, score
      P1  H  6896  6908       L1     8  1.00
      P1  H  6931  6943       L1     4  0.96
      P1  H  6934  6947       L1     4  0.86
      P1  H  7989  7998       L1    15  0.59
      P1  H  7997  8008       L1    15  0.37
      L1  C    11    37       P1  7948  0.77

> <Gold.PLP.Chemscore.Internal.Correction>
0.1924

> <Gold.Rescore>
     Score         DG    S(hbond)    S(metal)    S(lipo)     H(rot)  DE(clash)    DE(int)     intcor
     11.75     -14.91       3.67        0.00      48.63       3.33       0.03       3.12       ----

> <Gold.Chemscore.Fitness>
11.7539

> <Gold.Chemscore.DG>
-14.9057

> <Gold.Chemscore.ZeroCoef>
-5.4800

> <Gold.Chemscore.Hbond>
3.6713

> <Gold.Chemscore.Metal>
0.0000

> <Gold.Chemscore.Lipo>
48.6256

> <Gold.Chemscore.Internal_Hbond>
0.0000

> <Gold.Chemscore.DEClash>
0.0303

> <Gold.Chemscore.DEInternal>
3.1215

> <Gold.Chemscore.Rot>
3.3303

> <Gold.Chemscore.Internal.Correction>
   9.000000E+99

> <Gold.Chemscore.Hbonds>
donor molecule, donor type, donor heavy atom, donor atom, acceptor molecule, acceptor atom, score
      P1  H  6896  6908       L1     8  0.77
      P1  H  6931  6943       L1     4  0.91
      P1  H  6934  6947       L1     4  0.82
      P1  H  7989  7998       L1    15  0.53
      P1  H  7997  8008       L1    15  0.35

> <Gold.Chemscore.Hbond.Weighted>
-12.2621

> <Gold.Chemscore.Metal.Weighted>
-0.0000

> <Gold.Chemscore.Lipo.Weighted>
-5.6892

> <Gold.Chemscore.Internal_Hbond.Weighted>
0.0000

> <Gold.Chemscore.DEClash.Weighted>
0.0303

> <Gold.Chemscore.DEInternal.Weighted>
3.1215

> <Gold.Chemscore.Rot.Weighted>
8.5256

> <Gold.Chemscore.Internal.Correction.Weighted>
   9.000000E+99

> <Gold.Protein.RotatedTorsions>
[ 6907 6896 6895 6894 ] final  154.03 input  -60.11 | X-H torsion
[ 7974 7965 7964 7962 ] final -134.22 input  175.53 | X-H torsion
[ 8008 7997 7996 7995 ] final  -24.51 input   59.86 | X-H torsion
[ 10167 10162 10161 10158 ] final  -98.73 input  -65.29 | X-H torsion
[ 10718 10713 10712 10709 ] final   31.76 input   66.30 | X-H torsion
[ 10763 10752 10751 10750 ] final -123.06 input  -60.55 | X-H torsion
[ 11005 11000 10999 10996 ] final  155.56 input  -57.11 | X-H torsion

> <Gold.Protein.ActiveResidues>
 VAL166  LYS551  ARG553  GLY616  TRP617  ASP618  TYR619  PRO620  LYS621  CYS622 
 ASP623  PHE694  ASN695  SER759  ASP760  ASP761  ALA762  ILE779  LEU786  VAL792 
 PHE793  MET794  SER795  GLU796  ALA797  LYS798  CYS799  TRP800  GLU811  SER814 

> <Gold.Protein.RotatedAtoms>
  152.0643  133.4076  159.4431 H   0  0  0  0  0  0  0  0  0  0  0  0  # atno 6907 bound_to 6896
  150.6865  134.3165  159.4777 H   0  0  0  0  0  0  0  0  0  0  0  0  # atno 6908 bound_to 6896
  152.0989  134.9355  160.0620 H   0  0  0  0  0  0  0  0  0  0  0  0  # atno 6909 bound_to 6896
  144.9122  140.6910  143.5017 H   0  0  0  0  0  0  0  0  0  0  0  0  # atno 7974 bound_to 7965
  154.4525  140.1951  156.0476 H   0  0  0  0  0  0  0  0  0  0  0  0  # atno 8008 bound_to 7997
  156.0678  140.3288  155.7511 H   0  0  0  0  0  0  0  0  0  0  0  0  # atno 8009 bound_to 7997
  155.5311  140.0578  157.2879 H   0  0  0  0  0  0  0  0  0  0  0  0  # atno 8010 bound_to 7997
  140.2699  143.3351  152.0545 H   0  0  0  0  0  0  0  0  0  0  0  0  # atno 10167 bound_to 10162
  157.2766  130.7234  149.6533 H   0  0  0  0  0  0  0  0  0  0  0  0  # atno 10718 bound_to 10713
  154.8701  135.4111  154.2882 H   0  0  0  0  0  0  0  0  0  0  0  0  # atno 10763 bound_to 10752
  153.3762  135.7009  153.6605 H   0  0  0  0  0  0  0  0  0  0  0  0  # atno 10764 bound_to 10752
  153.5446  135.3641  155.2705 H   0  0  0  0  0  0  0  0  0  0  0  0  # atno 10765 bound_to 10752
  140.1593  134.8620  157.2554 H   0  0  0  0  0  0  0  0  0  0  0  0  # atno 11005 bound_to 11000
  145.3435  139.1726  143.4473 LP  0  0  0  0  0  0  0  0  0  0  0  0  # atno 17320 bound_to 7965
  146.3164  140.3478  142.8653 LP  0  0  0  0  0  0  0  0  0  0  0  0  # atno 17321 bound_to 7965
  139.4992  144.6663  151.6348 LP  0  0  0  0  0  0  0  0  0  0  0  0  # atno 17342 bound_to 10162
  140.5898  143.9800  150.6318 LP  0  0  0  0  0  0  0  0  0  0  0  0  # atno 17343 bound_to 10162
  155.9664  130.4351  150.5077 LP  0  0  0  0  0  0  0  0  0  0  0  0  # atno 17370 bound_to 10713
  157.3012  131.0645  151.2067 LP  0  0  0  0  0  0  0  0  0  0  0  0  # atno 17371 bound_to 10713
  140.2509  134.3684  155.7443 LP  0  0  0  0  0  0  0  0  0  0  0  0  # atno 17394 bound_to 11000
  141.2208  133.7316  156.8933 LP  0  0  0  0  0  0  0  0  0  0  0  0  # atno 17395 bound_to 11000

$$$$
