AV-unprocessed.smi:1827|AV-procd|sdf|7421|dock2
  -GOLD-   22720 9103D 1   1.00000     0.00000
 Structure written by MMmdl.
 44 45  0  0  0  0  0  0  0  0  2 V2000
  150.7469  134.5602  155.5946 C   0  0  0  0  0  0  0  0  0  0  0  0
  151.3847  135.9099  155.7773 C   0  0  0  0  0  0  0  0  0  0  0  0
  152.4425  136.0121  156.5716 N   0  0  0  0  0  0  0  0  0  0  0  0
  152.8166  137.3064  156.4801 N   0  0  0  0  0  0  0  0  0  0  0  0
  152.0207  138.0504  155.6387 C   0  0  0  0  0  0  0  0  0  0  0  0
  152.2638  139.4995  155.3788 C   0  0  0  0  0  0  0  0  0  0  0  0
  151.0706  137.1773  155.1943 C   0  0  0  0  0  0  0  0  0  0  0  0
  150.0470  137.5097  154.2721 N   0  0  0  0  0  0  0  0  0  0  0  0
  149.1125  138.4611  154.4173 C   0  0  0  0  0  0  0  0  0  0  0  0
  149.0296  139.2268  155.3770 O   0  0  0  0  0  0  0  0  0  0  0  0
  148.2789  138.4940  153.3677 N   0  0  0  0  0  0  0  0  0  0  0  0
  147.1626  139.4257  153.2064 C   0  0  2  0  0  0  0  0  0  0  0  0
  145.9971  139.1001  154.1622 C   0  0  0  0  0  0  0  0  0  0  0  0
  145.2682  137.8058  153.7623 C   0  0  0  0  0  0  0  0  0  0  0  0
  144.7878  137.8760  152.3563 N   0  3  2  0  0  0  0  0  0  0  0  0
  143.9556  136.7087  151.9657 C   0  0  0  0  0  0  0  0  0  0  0  0
  144.7344  135.6575  151.1681 C   0  0  0  0  0  0  0  0  0  0  0  0
  144.7783  135.8169  149.8434 N   0  0  0  0  0  0  0  0  0  0  0  0
  145.2747  134.7077  151.7322 O   0  0  0  0  0  0  0  0  0  0  0  0
  145.9055  138.1178  151.4088 C   0  0  0  0  0  0  0  0  0  0  0  0
  146.6586  139.4161  151.7528 C   0  0  0  0  0  0  0  0  0  0  0  0
  153.6148  137.6615  156.9872 H   0  0  0  0  0  0  0  0  0  0  0  0
  150.3429  134.4463  154.5888 H   0  0  0  0  0  0  0  0  0  0  0  0
  149.9323  134.4137  156.3038 H   0  0  0  0  0  0  0  0  0  0  0  0
  151.4658  133.7547  155.7477 H   0  0  0  0  0  0  0  0  0  0  0  0
  151.6130  139.8734  154.5885 H   0  0  0  0  0  0  0  0  0  0  0  0
  153.2958  139.6706  155.0721 H   0  0  0  0  0  0  0  0  0  0  0  0
  152.0749  140.0892  156.2761 H   0  0  0  0  0  0  0  0  0  0  0  0
  150.0852  137.0382  153.3805 H   0  0  0  0  0  0  0  0  0  0  0  0
  148.4363  137.8346  152.6198 H   0  0  0  0  0  0  0  0  0  0  0  0
  147.5306  140.4288  153.4298 H   0  0  0  0  0  0  0  0  0  0  0  0
  146.3493  139.0283  155.1919 H   0  0  0  0  0  0  0  0  0  0  0  0
  145.2845  139.9259  154.1483 H   0  0  0  0  0  0  0  0  0  0  0  0
  145.9302  136.9468  153.8815 H   0  0  0  0  0  0  0  0  0  0  0  0
  144.4277  137.6485  154.4389 H   0  0  0  0  0  0  0  0  0  0  0  0
  143.5849  136.2066  152.8605 H   0  0  0  0  0  0  0  0  0  0  0  0
  143.0789  137.0428  151.4081 H   0  0  0  0  0  0  0  0  0  0  0  0
  145.2815  135.1577  149.2674 H   0  0  0  0  0  0  0  0  0  0  0  0
  144.3093  136.6045  149.4185 H   0  0  0  0  0  0  0  0  0  0  0  0
  146.5869  137.2660  151.4228 H   0  0  0  0  0  0  0  0  0  0  0  0
  145.5162  138.1935  150.3927 H   0  0  0  0  0  0  0  0  0  0  0  0
  145.9890  140.2642  151.6022 H   0  0  0  0  0  0  0  0  0  0  0  0
  147.4904  139.5623  151.0625 H   0  0  0  0  0  0  0  0  0  0  0  0
  144.1822  138.6825  152.2927 H   0  0  0  0  0  0  0  0  0  0  0  0
  1  2  1  0  0  0  0
  1 23  1  0  0  0  0
  1 24  1  0  0  0  0
  1 25  1  0  0  0  0
  2  7  1  0  0  0  0
  2  3  2  0  0  0  0
  3  4  1  0  0  0  0
  4 22  1  0  0  0  0
  4  5  1  0  0  0  0
  5  6  1  0  0  0  0
  5  7  2  0  0  0  0
  6 26  1  0  0  0  0
  6 27  1  0  0  0  0
  6 28  1  0  0  0  0
  7  8  1  0  0  0  0
  8  9  1  0  0  0  0
  8 29  1  0  0  0  0
  9 10  2  0  0  0  0
  9 11  1  0  0  0  0
 11 12  1  0  0  0  0
 11 30  1  0  0  0  0
 12 21  1  0  0  0  0
 12 13  1  0  0  0  0
 12 31  1  0  0  0  0
 13 14  1  0  0  0  0
 13 32  1  0  0  0  0
 13 33  1  0  0  0  0
 14 15  1  0  0  0  0
 14 34  1  0  0  0  0
 14 35  1  0  0  0  0
 15 16  1  0  0  0  0
 15 20  1  0  0  0  0
 15 44  1  0  0  0  0
 16 17  1  0  0  0  0
 16 36  1  0  0  0  0
 16 37  1  0  0  0  0
 17 18  1  0  0  0  0
 17 19  2  0  0  0  0
 18 38  1  0  0  0  0
 18 39  1  0  0  0  0
 20 21  1  0  0  0  0
 20 40  1  0  0  0  0
 20 41  1  0  0  0  0
 21 42  1  0  0  0  0
 21 43  1  0  0  0  0
M  CHG  1  15   1
M  END
> <s_m_source_file>
AV-unprocessed.smi

> <i_m_source_file_index>
1827

> <i_lp_mmshare_version>
43012

> <i_f3d_flags>
0

> <s_epik_input>
W0NIM11jMW5bbkhdYyhbQ0gzXSljMVtOSF1DKD1PKVtOSF1bQ0hdMltDSDJdW0NIMl1OKFtDSDJdW0NIMl0yKVtDSDJdQyg9TylbTkgyXQ==

> <s_epik_cmdline>
J2VwaWtfcHl0aG9uJywgJy1waCcsICc3LjAnLCAnLXRuJywgJzgnLCAnLW1hJywgJzIwMCcsICctbWV0YWxfYmluZGluZycsICctaW1hZScsICc8aW5maWxlLm1hZT4nLCAnLW9tYWUnLCAnPG91dGZpbGUubWFlPic=

> <r_lp_tautomer_probability>
0.5

> <r_epik_Ionization_Penalty>
0.839233

> <r_epik_Ionization_Penalty_Charging>
0.838844

> <r_epik_Ionization_Penalty_Neutral>
0.000388936

> <r_epik_State_Penalty>
0.8734

> <r_epik_Charging_Adjusted_Penalty>
1.71224

> <i_epik_Tot_Q>
1

> <i_epik_Tot_abs_Q>
1

> <r_epik_Metal_State_Penalty>
0.890753

> <b_epik_Metal_Only>
0

> <s_lp_Force_Field>
OPLS_2005

> <r_lp_Energy>
15.6473

> <b_lp_Chiralities_Consistent>
1

> <s_lp_Variant>
AV-unprocessed.smi:1827-3

> <Gold.Version>
5.8.1

> <Gold.Id.Protein>
6NUR|6NUR_protein|mol2

> <Gold.PLP.Fitness>
44.0457

> <Gold.PLP.PLP>
-28.7180

> <Gold.PLP.part.hbond>
-8.0000

> <Gold.PLP.part.metal>
0.0000

> <Gold.PLP.part.buried>
5.6598

> <Gold.PLP.part.nonpolar>
-27.8700

> <Gold.PLP.part.repulsive>
0.5337

> <Gold.PLP.ligand.clash>
0.5310

> <Gold.PLP.ligand.torsion>
1.5308

> <Gold.PLP.Chemscore.Hbond>
6.1879

> <Gold.PLP.Chemscore.CHOScore>
0.0000

> <Gold.PLP.Chemscore.Metal>
0.0000

> <Gold.Chemscore.Hbonds>
donor molecule, donor type, donor heavy atom, donor atom, acceptor molecule, acceptor atom, score
      L1  H     8    29       P1  7948  0.79
      L1  H    11    30       P1  7948  1.00
      L1  H    15    44       P1 10175  2.00
      L1  H    18    38       P1  7921  0.94
      L1  H    18    39       P1 10171  0.82
      P1  H 10752 10765       L1     3  0.62

> <Gold.PLP.Chemscore.Internal.Correction>
0.3565

> <Gold.Rescore>
     Score         DG    S(hbond)    S(metal)    S(lipo)     H(rot)  DE(clash)    DE(int)     intcor
     16.41     -21.89       4.08        0.00      67.27       1.98       2.63       2.85       ----

> <Gold.Chemscore.Fitness>
16.4065

> <Gold.Chemscore.DG>
-21.8871

> <Gold.Chemscore.ZeroCoef>
-5.4800

> <Gold.Chemscore.Hbond>
4.0771

> <Gold.Chemscore.Metal>
0.0000

> <Gold.Chemscore.Lipo>
67.2691

> <Gold.Chemscore.Internal_Hbond>
0.0000

> <Gold.Chemscore.DEClash>
2.6327

> <Gold.Chemscore.DEInternal>
2.8479

> <Gold.Chemscore.Rot>
1.9848

> <Gold.Chemscore.Internal.Correction>
   9.000000E+99

> <Gold.Chemscore.Hbonds>
donor molecule, donor type, donor heavy atom, donor atom, acceptor molecule, acceptor atom, score
      L1  H     8    29       P1  7948  0.13
      L1  H    11    30       P1  7948  0.99
      L1  H    15    44       P1 10175  0.99
      L1  H    18    38       P1  7921  0.91
      L1  H    18    39       P1 10171  0.77
      P1  H 10752 10765       L1     3  0.01

> <Gold.Chemscore.Hbond.Weighted>
-13.6176

> <Gold.Chemscore.Metal.Weighted>
-0.0000

> <Gold.Chemscore.Lipo.Weighted>
-7.8705

> <Gold.Chemscore.Internal_Hbond.Weighted>
0.0000

> <Gold.Chemscore.DEClash.Weighted>
2.6327

> <Gold.Chemscore.DEInternal.Weighted>
2.8479

> <Gold.Chemscore.Rot.Weighted>
5.0810

> <Gold.Chemscore.Internal.Correction.Weighted>
   9.000000E+99

> <Gold.Protein.RotatedTorsions>
[ 6907 6896 6895 6894 ] final  -55.78 input  -60.11 | X-H torsion
[ 7974 7965 7964 7962 ] final   36.31 input  175.53 | X-H torsion
[ 8008 7997 7996 7995 ] final -170.54 input   59.86 | X-H torsion
[ 10167 10162 10161 10158 ] final  -28.81 input  -65.29 | X-H torsion
[ 10718 10713 10712 10709 ] final   -8.28 input   66.30 | X-H torsion
[ 10763 10752 10751 10750 ] final -115.27 input  -60.55 | X-H torsion
[ 11005 11000 10999 10996 ] final   54.06 input  -57.11 | X-H torsion

> <Gold.Protein.ActiveResidues>
 VAL166  LYS551  ARG553  GLY616  TRP617  ASP618  TYR619  PRO620  LYS621  CYS622 
 ASP623  PHE694  ASN695  SER759  ASP760  ASP761  ALA762  ILE779  LEU786  VAL792 
 PHE793  MET794  SER795  GLU796  ALA797  LYS798  CYS799  TRP800  GLU811  SER814 

> <Gold.Protein.RotatedAtoms>
  150.8222  134.7436  159.6781 H   0  0  0  0  0  0  0  0  0  0  0  0  # atno 6907 bound_to 6896
  152.4337  134.5725  159.9935 H   0  0  0  0  0  0  0  0  0  0  0  0  # atno 6908 bound_to 6896
  151.5907  133.3329  159.3063 H   0  0  0  0  0  0  0  0  0  0  0  0  # atno 6909 bound_to 6896
  146.1221  139.6034  142.9283 H   0  0  0  0  0  0  0  0  0  0  0  0  # atno 7974 bound_to 7965
  155.9196  140.1072  157.1217 H   0  0  0  0  0  0  0  0  0  0  0  0  # atno 8008 bound_to 7997
  154.4052  140.1258  156.4728 H   0  0  0  0  0  0  0  0  0  0  0  0  # atno 8009 bound_to 7997
  155.7211  140.3470  155.5019 H   0  0  0  0  0  0  0  0  0  0  0  0  # atno 8010 bound_to 7997
  140.7266  143.3980  151.1314 H   0  0  0  0  0  0  0  0  0  0  0  0  # atno 10167 bound_to 10162
  156.7050  130.5104  149.5907 H   0  0  0  0  0  0  0  0  0  0  0  0  # atno 10718 bound_to 10713
  154.8474  135.4387  154.1637 H   0  0  0  0  0  0  0  0  0  0  0  0  # atno 10763 bound_to 10752
  153.2768  135.6950  153.7431 H   0  0  0  0  0  0  0  0  0  0  0  0  # atno 10764 bound_to 10752
  153.6651  135.3428  155.3113 H   0  0  0  0  0  0  0  0  0  0  0  0  # atno 10765 bound_to 10752
  140.0716  134.5461  155.9040 H   0  0  0  0  0  0  0  0  0  0  0  0  # atno 11005 bound_to 11000
  145.5444  141.0418  143.2313 LP  0  0  0  0  0  0  0  0  0  0  0  0  # atno 17320 bound_to 7965
  144.7607  139.6965  143.7235 LP  0  0  0  0  0  0  0  0  0  0  0  0  # atno 17321 bound_to 7965
  139.7595  143.8657  152.3097 LP  0  0  0  0  0  0  0  0  0  0  0  0  # atno 17342 bound_to 10162
  139.8538  144.7151  150.9182 LP  0  0  0  0  0  0  0  0  0  0  0  0  # atno 17343 bound_to 10162
  156.1702  130.6432  151.0827 LP  0  0  0  0  0  0  0  0  0  0  0  0  # atno 17370 bound_to 10713
  157.6958  131.0794  150.6972 LP  0  0  0  0  0  0  0  0  0  0  0  0  # atno 17371 bound_to 10713
  141.2014  133.6618  156.5949 LP  0  0  0  0  0  0  0  0  0  0  0  0  # atno 17394 bound_to 11000
  140.3618  134.7681  157.4539 LP  0  0  0  0  0  0  0  0  0  0  0  0  # atno 17395 bound_to 11000

$$$$
