AV-unprocessed.smi:590|AV-procd|sdf|3008|dock8
  -GOLD-   2262023513D 1   1.00000     0.00000
 Structure written by MMmdl.
 41 42  0  0  0  0  0  0  0  0  1 V2000
  148.4681  135.8303  155.5844 C   0  0  0  0  0  0  0  0  0  0  0  0
  149.8341  136.4174  155.3729 C   0  0  0  0  0  0  0  0  0  0  0  0
  150.9037  135.7421  155.7593 N   0  0  0  0  0  0  0  0  0  0  0  0
  152.0010  136.5469  155.4382 O   0  0  0  0  0  0  0  0  0  0  0  0
  151.5429  137.6898  154.8668 C   0  0  0  0  0  0  0  0  0  0  0  0
  152.5674  138.6924  154.4559 C   0  0  0  0  0  0  0  0  0  0  0  0
  150.1775  137.6716  154.7917 C   0  0  0  0  0  0  0  0  0  0  0  0
  149.2528  138.7233  154.2363 C   0  0  0  0  0  0  0  0  0  0  0  0
  149.7360  140.1094  154.6629 C   0  0  0  0  0  0  0  0  0  0  0  0
  149.6620  141.0536  153.8767 O   0  0  0  0  0  0  0  0  0  0  0  0
  150.2297  140.2148  155.9069 N   0  0  0  0  0  0  0  0  0  0  0  0
  150.7483  141.4367  156.5159 C   0  0  0  0  0  0  0  0  0  0  0  0
  151.5042  141.1598  157.8308 C   0  0  0  0  0  0  0  0  0  0  0  0
  151.7921  142.4043  158.6578 C   0  0  0  0  0  0  0  0  0  0  0  0
  151.6071  143.6447  158.1647 C   0  0  0  0  0  0  0  0  0  0  0  0
  151.8539  144.9212  158.9491 C   0  0  0  0  0  0  0  0  0  0  0  0
  151.9907  144.6639  160.4589 C   0  0  0  0  0  0  0  0  0  0  0  0
  152.8636  143.4336  160.7333 C   0  0  0  0  0  0  0  0  0  0  0  0
  152.2707  142.1693  160.0865 C   0  0  0  0  0  0  0  0  0  0  0  0
  147.8593  135.9240  154.6851 H   0  0  0  0  0  0  0  0  0  0  0  0
  147.9467  136.3429  156.3928 H   0  0  0  0  0  0  0  0  0  0  0  0
  148.5180  134.7714  155.8401 H   0  0  0  0  0  0  0  0  0  0  0  0
  152.2194  139.7056  154.6576 H   0  0  0  0  0  0  0  0  0  0  0  0
  152.7779  138.6127  153.3896 H   0  0  0  0  0  0  0  0  0  0  0  0
  153.5014  138.5443  154.9982 H   0  0  0  0  0  0  0  0  0  0  0  0
  149.2206  138.6902  153.1468 H   0  0  0  0  0  0  0  0  0  0  0  0
  148.2269  138.5658  154.5719 H   0  0  0  0  0  0  0  0  0  0  0  0
  150.2489  139.3817  156.4772 H   0  0  0  0  0  0  0  0  0  0  0  0
  151.4334  141.8932  155.8014 H   0  0  0  0  0  0  0  0  0  0  0  0
  149.9521  142.1664  156.6686 H   0  0  0  0  0  0  0  0  0  0  0  0
  150.9275  140.4546  158.4309 H   0  0  0  0  0  0  0  0  0  0  0  0
  152.4514  140.6653  157.6134 H   0  0  0  0  0  0  0  0  0  0  0  0
  151.2772  143.7728  157.1442 H   0  0  0  0  0  0  0  0  0  0  0  0
  152.7630  145.3822  158.5618 H   0  0  0  0  0  0  0  0  0  0  0  0
  151.0386  145.6212  158.7642 H   0  0  0  0  0  0  0  0  0  0  0  0
  152.4067  145.5434  160.9512 H   0  0  0  0  0  0  0  0  0  0  0  0
  151.0025  144.5050  160.8926 H   0  0  0  0  0  0  0  0  0  0  0  0
  153.8643  143.6091  160.3355 H   0  0  0  0  0  0  0  0  0  0  0  0
  152.9808  143.2823  161.8068 H   0  0  0  0  0  0  0  0  0  0  0  0
  151.4209  141.8155  160.6708 H   0  0  0  0  0  0  0  0  0  0  0  0
  153.0169  141.3759  160.1087 H   0  0  0  0  0  0  0  0  0  0  0  0
  1  2  1  0  0  0  0
  1 20  1  0  0  0  0
  1 21  1  0  0  0  0
  1 22  1  0  0  0  0
  2  7  1  0  0  0  0
  2  3  2  0  0  0  0
  3  4  1  0  0  0  0
  4  5  1  0  0  0  0
  5  6  1  0  0  0  0
  5  7  2  0  0  0  0
  6 23  1  0  0  0  0
  6 24  1  0  0  0  0
  6 25  1  0  0  0  0
  7  8  1  0  0  0  0
  8  9  1  0  0  0  0
  8 26  1  0  0  0  0
  8 27  1  0  0  0  0
  9 10  2  0  0  0  0
  9 11  1  0  0  0  0
 11 12  1  0  0  0  0
 11 28  1  0  0  0  0
 12 13  1  0  0  0  0
 12 29  1  0  0  0  0
 12 30  1  0  0  0  0
 13 14  1  0  0  0  0
 13 31  1  0  0  0  0
 13 32  1  0  0  0  0
 14 19  1  0  0  0  0
 14 15  2  0  0  0  0
 15 16  1  0  0  0  0
 15 33  1  0  0  0  0
 16 17  1  0  0  0  0
 16 34  1  0  0  0  0
 16 35  1  0  0  0  0
 17 18  1  0  0  0  0
 17 36  1  0  0  0  0
 17 37  1  0  0  0  0
 18 19  1  0  0  0  0
 18 38  1  0  0  0  0
 18 39  1  0  0  0  0
 19 40  1  0  0  0  0
 19 41  1  0  0  0  0
M  END
> <s_m_source_file>
AV-unprocessed.smi

> <i_m_source_file_index>
590

> <i_lp_mmshare_version>
43012

> <i_f3d_flags>
0

> <s_epik_input>
W0NIM11jMW5vYyhbQ0gzXSljMVtDSDJdQyg9TylbTkhdW0NIMl1bQ0gyXUMyPVtDSF1bQ0gyXVtDSDJdW0NIMl1bQ0gyXTI=

> <s_epik_cmdline>
J2VwaWtfcHl0aG9uJywgJy1waCcsICc3LjAnLCAnLXRuJywgJzgnLCAnLW1hJywgJzIwMCcsICctbWV0YWxfYmluZGluZycsICctaW1hZScsICc8aW5maWxlLm1hZT4nLCAnLW9tYWUnLCAnPG91dGZpbGUubWFlPic=

> <r_lp_tautomer_probability>
1

> <r_epik_Ionization_Penalty>
1.93189e-08

> <r_epik_Ionization_Penalty_Charging>
0

> <r_epik_Ionization_Penalty_Neutral>
1.93189e-08

> <r_epik_State_Penalty>
-0

> <r_epik_Charging_Adjusted_Penalty>
0

> <i_epik_Tot_Q>
0

> <i_epik_Tot_abs_Q>
0

> <r_epik_Metal_State_Penalty>
-0

> <b_epik_Metal_Only>
0

> <s_lp_Force_Field>
OPLS_2005

> <r_lp_Energy>
2.22272

> <b_lp_Chiralities_Consistent>
1

> <s_lp_Variant>
AV-unprocessed.smi:590-1

> <Gold.Version>
5.8.1

> <Gold.Id.Protein>
6NUR|6NUR_protein|mol2

> <Gold.PLP.Fitness>
45.5204

> <Gold.PLP.PLP>
-40.8125

> <Gold.PLP.part.hbond>
-3.0791

> <Gold.PLP.part.metal>
0.0000

> <Gold.PLP.part.buried>
-5.2199

> <Gold.PLP.part.nonpolar>
-34.4213

> <Gold.PLP.part.repulsive>
1.9979

> <Gold.PLP.ligand.clash>
0.0000

> <Gold.PLP.ligand.torsion>
0.7942

> <Gold.PLP.Chemscore.Hbond>
2.0896

> <Gold.PLP.Chemscore.CHOScore>
0.0000

> <Gold.PLP.Chemscore.Metal>
0.0000

> <Gold.Chemscore.Hbonds>
donor molecule, donor type, donor heavy atom, donor atom, acceptor molecule, acceptor atom, score
      P1  H  7989  7998       L1    10  0.21
      P1  H  8011  8017       L1    10  0.83
      P1  H 10752 10765       L1     4  1.00

> <Gold.PLP.Chemscore.Internal.Correction>
0.0274

> <Gold.Rescore>
     Score         DG    S(hbond)    S(metal)    S(lipo)     H(rot)  DE(clash)    DE(int)     intcor
     18.80     -20.69       1.73        0.00     114.65       1.55       1.06       0.83       ----

> <Gold.Chemscore.Fitness>
18.8024

> <Gold.Chemscore.DG>
-20.6908

> <Gold.Chemscore.ZeroCoef>
-5.4800

> <Gold.Chemscore.Hbond>
1.7255

> <Gold.Chemscore.Metal>
0.0000

> <Gold.Chemscore.Lipo>
114.6493

> <Gold.Chemscore.Internal_Hbond>
0.0000

> <Gold.Chemscore.DEClash>
1.0593

> <Gold.Chemscore.DEInternal>
0.8291

> <Gold.Chemscore.Rot>
1.5493

> <Gold.Chemscore.Internal.Correction>
   9.000000E+99

> <Gold.Chemscore.Hbonds>
donor molecule, donor type, donor heavy atom, donor atom, acceptor molecule, acceptor atom, score
      P1  H  7989  7998       L1    10  0.01
      P1  H  8011  8017       L1    10  0.78
      P1  H 10752 10765       L1     4  0.42

> <Gold.Chemscore.Hbond.Weighted>
-5.7631

> <Gold.Chemscore.Metal.Weighted>
-0.0000

> <Gold.Chemscore.Lipo.Weighted>
-13.4140

> <Gold.Chemscore.Internal_Hbond.Weighted>
0.0000

> <Gold.Chemscore.DEClash.Weighted>
1.0593

> <Gold.Chemscore.DEInternal.Weighted>
0.8291

> <Gold.Chemscore.Rot.Weighted>
3.9663

> <Gold.Chemscore.Internal.Correction.Weighted>
   9.000000E+99

> <Gold.Protein.RotatedTorsions>
[ 6907 6896 6895 6894 ] final  170.10 input  -60.11 | X-H torsion
[ 7974 7965 7964 7962 ] final   92.58 input  175.53 | X-H torsion
[ 8008 7997 7996 7995 ] final  -79.52 input   59.86 | X-H torsion
[ 10167 10162 10161 10158 ] final  101.24 input  -65.29 | X-H torsion
[ 10718 10713 10712 10709 ] final   60.90 input   66.30 | X-H torsion
[ 10763 10752 10751 10750 ] final -162.02 input  -60.55 | X-H torsion
[ 11005 11000 10999 10996 ] final  -51.53 input  -57.11 | X-H torsion

> <Gold.Protein.ActiveResidues>
 VAL166  LYS551  ARG553  GLY616  TRP617  ASP618  TYR619  PRO620  LYS621  CYS622 
 ASP623  PHE694  ASN695  SER759  ASP760  ASP761  ALA762  ILE779  LEU786  VAL792 
 PHE793  MET794  SER795  GLU796  ALA797  LYS798  CYS799  TRP800  GLU811  SER814 

> <Gold.Protein.RotatedAtoms>
  151.8214  133.3395  159.3585 H   0  0  0  0  0  0  0  0  0  0  0  0  # atno 6907 bound_to 6896
  150.7293  134.5570  159.5832 H   0  0  0  0  0  0  0  0  0  0  0  0  # atno 6908 bound_to 6896
  152.3003  134.7620  160.0410 H   0  0  0  0  0  0  0  0  0  0  0  0  # atno 6909 bound_to 6896
  145.4904  139.2276  143.2833 H   0  0  0  0  0  0  0  0  0  0  0  0  # atno 7974 bound_to 7965
  154.5793  140.0677  156.9081 H   0  0  0  0  0  0  0  0  0  0  0  0  # atno 8008 bound_to 7997
  155.2491  140.3350  155.4266 H   0  0  0  0  0  0  0  0  0  0  0  0  # atno 8009 bound_to 7997
  156.2178  140.1785  156.7534 H   0  0  0  0  0  0  0  0  0  0  0  0  # atno 8010 bound_to 7997
  139.7455  144.6999  151.0510 H   0  0  0  0  0  0  0  0  0  0  0  0  # atno 10167 bound_to 10162
  157.5788  130.8964  149.9393 H   0  0  0  0  0  0  0  0  0  0  0  0  # atno 10718 bound_to 10713
  154.7252  135.3034  154.8983 H   0  0  0  0  0  0  0  0  0  0  0  0  # atno 10763 bound_to 10752
  153.9842  135.6726  153.4755 H   0  0  0  0  0  0  0  0  0  0  0  0  # atno 10764 bound_to 10752
  153.0868  135.4980  154.8532 H   0  0  0  0  0  0  0  0  0  0  0  0  # atno 10765 bound_to 10752
  141.0876  133.6639  156.3891 H   0  0  0  0  0  0  0  0  0  0  0  0  # atno 11005 bound_to 11000
  146.2287  140.5698  142.8985 LP  0  0  0  0  0  0  0  0  0  0  0  0  # atno 17320 bound_to 7965
  144.7837  140.5893  143.6588 LP  0  0  0  0  0  0  0  0  0  0  0  0  # atno 17321 bound_to 7965
  140.7791  143.4872  150.9941 LP  0  0  0  0  0  0  0  0  0  0  0  0  # atno 17342 bound_to 10162
  139.8560  143.7376  152.3176 LP  0  0  0  0  0  0  0  0  0  0  0  0  # atno 17343 bound_to 10162
  156.0833  130.3671  150.0538 LP  0  0  0  0  0  0  0  0  0  0  0  0  # atno 17370 bound_to 10713
  156.8680  130.9514  151.3612 LP  0  0  0  0  0  0  0  0  0  0  0  0  # atno 17371 bound_to 10713
  140.5327  134.6197  157.5355 LP  0  0  0  0  0  0  0  0  0  0  0  0  # atno 17394 bound_to 11000
  139.9696  134.7314  156.0068 LP  0  0  0  0  0  0  0  0  0  0  0  0  # atno 17395 bound_to 11000

$$$$
