AV-unprocessed.smi:13|AV-procd|sdf|71|dock8
  -GOLD-   2262015193D 1   1.00000     0.00000
 Structure written by MMmdl.
 54 58  0  0  0  0  0  0  0  0  1 V2000
  153.0096  144.6229  158.5762 C   0  0  0  0  0  0  0  0  0  0  0  0
  152.0011  143.5302  158.9296 C   0  0  0  0  0  0  0  0  0  0  0  0
  151.6171  143.7451  160.4003 C   0  0  0  0  0  0  0  0  0  0  0  0
  150.8118  143.3831  157.9680 C   0  0  0  0  0  0  0  0  0  0  0  0
  150.9801  141.9463  158.0941 N   0  0  0  0  0  0  0  0  0  0  0  0
  150.6778  141.2234  156.9037 C   0  0  0  0  0  0  0  0  0  0  0  0
  151.5541  140.3151  156.3975 N   0  0  0  0  0  0  0  0  0  0  0  0
  151.2724  139.6266  155.2880 C   0  0  0  0  0  0  0  0  0  0  0  0
  150.1789  139.6842  154.5273 N   0  0  0  0  0  0  0  0  0  0  0  0
  149.2856  140.5852  155.0246 C   0  0  0  0  0  0  0  0  0  0  0  0
  149.4534  141.3808  156.1937 C   0  0  0  0  0  0  0  0  0  0  0  0
  148.3275  142.1712  156.3910 N   0  0  0  0  0  0  0  0  0  0  0  0
  147.5438  141.8666  155.3932 C   0  0  0  0  0  0  0  0  0  0  0  0
  148.0442  140.9288  154.5187 N   0  0  0  0  0  0  0  0  0  0  0  0
  147.3885  140.4165  153.3253 C   0  0  0  0  0  0  0  0  0  0  0  0
  147.1392  138.8911  153.3724 C   0  0  1  0  0  0  0  0  0  0  0  0
  148.3881  138.2214  153.4062 O   0  0  0  0  0  0  0  0  0  0  0  0
  146.3100  138.4308  154.5679 C   0  0  0  0  0  0  0  0  0  0  0  0
  145.5596  137.2267  154.0171 C   0  0  0  0  0  0  0  0  0  0  0  0
  145.2308  137.6438  152.7031 O   0  0  0  0  0  0  0  0  0  0  0  0
  146.3366  138.3633  152.1665 C   0  0  0  0  0  0  0  0  0  0  0  0
  152.3786  142.0978  158.4809 C   0  0  2  0  0  0  0  0  0  0  0  0
  152.8338  141.0336  159.4855 C   0  0  2  0  0  0  0  0  0  0  0  0
  154.1321  141.3857  160.2133 C   0  0  0  0  0  0  0  0  0  0  0  0
  154.7323  140.0337  160.5696 C   0  0  0  0  0  0  0  0  0  0  0  0
  153.9134  139.0340  159.7506 C   0  0  0  0  0  0  0  0  0  0  0  0
  153.1919  139.8307  158.8241 O   0  0  0  0  0  0  0  0  0  0  0  0
  152.5869  145.6186  158.7134 H   0  0  0  0  0  0  0  0  0  0  0  0
  153.3294  144.5496  157.5363 H   0  0  0  0  0  0  0  0  0  0  0  0
  153.9057  144.5547  159.1940 H   0  0  0  0  0  0  0  0  0  0  0  0
  150.9315  142.9756  160.7562 H   0  0  0  0  0  0  0  0  0  0  0  0
  151.1183  144.7042  160.5424 H   0  0  0  0  0  0  0  0  0  0  0  0
  152.4878  143.7329  161.0553 H   0  0  0  0  0  0  0  0  0  0  0  0
  149.8619  143.7518  158.3563 H   0  0  0  0  0  0  0  0  0  0  0  0
  151.0178  143.7496  156.9603 H   0  0  0  0  0  0  0  0  0  0  0  0
  152.0321  138.9301  154.9652 H   0  0  0  0  0  0  0  0  0  0  0  0
  146.5747  142.3257  155.2622 H   0  0  0  0  0  0  0  0  0  0  0  0
  146.4438  140.9473  153.1999 H   0  0  0  0  0  0  0  0  0  0  0  0
  148.0001  140.6742  152.4596 H   0  0  0  0  0  0  0  0  0  0  0  0
  149.0160  138.7345  152.9208 H   0  0  0  0  0  0  0  0  0  0  0  0
  146.9017  138.2034  155.4556 H   0  0  0  0  0  0  0  0  0  0  0  0
  145.5833  139.1966  154.8403 H   0  0  0  0  0  0  0  0  0  0  0  0
  146.2029  136.3465  153.9765 H   0  0  0  0  0  0  0  0  0  0  0  0
  144.6697  136.9807  154.5968 H   0  0  0  0  0  0  0  0  0  0  0  0
  145.9626  139.1678  151.5324 H   0  0  0  0  0  0  0  0  0  0  0  0
  146.9307  137.7011  151.5345 H   0  0  0  0  0  0  0  0  0  0  0  0
  153.0269  142.1501  157.6037 H   0  0  0  0  0  0  0  0  0  0  0  0
  152.0519  140.8144  160.2150 H   0  0  0  0  0  0  0  0  0  0  0  0
  154.8068  141.9177  159.5412 H   0  0  0  0  0  0  0  0  0  0  0  0
  153.9701  142.0133  161.0889 H   0  0  0  0  0  0  0  0  0  0  0  0
  155.7889  139.9989  160.3023 H   0  0  0  0  0  0  0  0  0  0  0  0
  154.6476  139.8214  161.6358 H   0  0  0  0  0  0  0  0  0  0  0  0
  154.5356  138.2991  159.2394 H   0  0  0  0  0  0  0  0  0  0  0  0
  153.2085  138.4997  160.3891 H   0  0  0  0  0  0  0  0  0  0  0  0
  1  2  1  0  0  0  0
  1 28  1  0  0  0  0
  1 29  1  0  0  0  0
  1 30  1  0  0  0  0
  2 22  1  0  0  0  0
  2  3  1  0  0  0  0
  2  4  1  0  0  0  0
  3 31  1  0  0  0  0
  3 32  1  0  0  0  0
  3 33  1  0  0  0  0
  4  5  1  0  0  0  0
  4 34  1  0  0  0  0
  4 35  1  0  0  0  0
  5  6  1  0  0  0  0
  5 22  1  0  0  0  0
  6 11  1  0  0  0  0
  6  7  2  0  0  0  0
  7  8  1  0  0  0  0
  8  9  2  0  0  0  0
  8 36  1  0  0  0  0
  9 10  1  0  0  0  0
 10 14  1  0  0  0  0
 10 11  2  0  0  0  0
 11 12  1  0  0  0  0
 12 13  2  0  0  0  0
 13 14  1  0  0  0  0
 13 37  1  0  0  0  0
 14 15  1  0  0  0  0
 15 16  1  0  0  0  0
 15 38  1  0  0  0  0
 15 39  1  0  0  0  0
 16 21  1  0  0  0  0
 16 17  1  0  0  0  0
 16 18  1  0  0  0  0
 17 40  1  0  0  0  0
 18 19  1  0  0  0  0
 18 41  1  0  0  0  0
 18 42  1  0  0  0  0
 19 20  1  0  0  0  0
 19 43  1  0  0  0  0
 19 44  1  0  0  0  0
 20 21  1  0  0  0  0
 21 45  1  0  0  0  0
 21 46  1  0  0  0  0
 22 23  1  0  0  0  0
 22 47  1  0  0  0  0
 23 27  1  0  0  0  0
 23 24  1  0  0  0  0
 23 48  1  0  0  0  0
 24 25  1  0  0  0  0
 24 49  1  0  0  0  0
 24 50  1  0  0  0  0
 25 26  1  0  0  0  0
 25 51  1  0  0  0  0
 25 52  1  0  0  0  0
 26 27  1  0  0  0  0
 26 53  1  0  0  0  0
 26 54  1  0  0  0  0
M  END
> <s_m_source_file>
AV-unprocessed.smi

> <i_m_source_file_index>
13

> <i_lp_mmshare_version>
43012

> <i_f3d_flags>
0

> <s_epik_input>
TzFbQ0gyXVtDSDJdW0NIMl1bQ0BIXTFbQ0BASF0yTihbQ0gyXUMyKFtDSDNdKVtDSDNdKWMobltjSF1uMyljKGMzNCluW2NIXW40W0NIMl1bQ0BAXTUoW09IXSlbQ0gyXVtDSDJdT1tDSDJdNQ==

> <s_epik_cmdline>
J2VwaWtfcHl0aG9uJywgJy1waCcsICc3LjAnLCAnLXRuJywgJzgnLCAnLW1hJywgJzIwMCcsICctbWV0YWxfYmluZGluZycsICctaW1hZScsICc8aW5maWxlLm1hZT4nLCAnLW9tYWUnLCAnPG91dGZpbGUubWFlPic=

> <r_lp_tautomer_probability>
1

> <r_epik_Ionization_Penalty>
0.00202764

> <r_epik_Ionization_Penalty_Charging>
0

> <r_epik_Ionization_Penalty_Neutral>
0.00202764

> <r_epik_State_Penalty>
0.00134017

> <r_epik_Charging_Adjusted_Penalty>
0.00134017

> <i_epik_Tot_Q>
0

> <i_epik_Tot_abs_Q>
0

> <r_epik_Metal_State_Penalty>
-0

> <b_epik_Metal_Only>
0

> <s_lp_Force_Field>
OPLS_2005

> <r_lp_Energy>
61.7559

> <b_lp_Chiralities_Consistent>
1

> <s_lp_Variant>
AV-unprocessed.smi:13-3

> <Gold.Version>
5.8.1

> <Gold.Id.Protein>
6NUR|6NUR_protein|mol2

> <Gold.PLP.Fitness>
50.5328

> <Gold.PLP.PLP>
-45.3152

> <Gold.PLP.part.hbond>
-3.8827

> <Gold.PLP.part.metal>
0.0000

> <Gold.PLP.part.buried>
-3.0992

> <Gold.PLP.part.nonpolar>
-40.8398

> <Gold.PLP.part.repulsive>
2.7740

> <Gold.PLP.ligand.clash>
0.0000

> <Gold.PLP.ligand.torsion>
0.5932

> <Gold.PLP.Chemscore.Hbond>
2.0000

> <Gold.PLP.Chemscore.CHOScore>
0.0000

> <Gold.PLP.Chemscore.Metal>
0.0000

> <Gold.Chemscore.Hbonds>
donor molecule, donor type, donor heavy atom, donor atom, acceptor molecule, acceptor atom, score
      L1  H    17    40       P1  7957  0.42
      P1  H  7997  8008       L1    27  0.36

> <Gold.PLP.Chemscore.Internal.Correction>
0.4040

> <Gold.Rescore>
     Score         DG    S(hbond)    S(metal)    S(lipo)     H(rot)  DE(clash)    DE(int)     intcor
     17.54     -18.71       1.78        0.00     112.47       2.30       0.11       1.05       ----

> <Gold.Chemscore.Fitness>
17.5421

> <Gold.Chemscore.DG>
-18.7056

> <Gold.Chemscore.ZeroCoef>
-5.4800

> <Gold.Chemscore.Hbond>
1.7825

> <Gold.Chemscore.Metal>
0.0000

> <Gold.Chemscore.Lipo>
112.4691

> <Gold.Chemscore.Internal_Hbond>
0.0000

> <Gold.Chemscore.DEClash>
0.1113

> <Gold.Chemscore.DEInternal>
1.0523

> <Gold.Chemscore.Rot>
2.2996

> <Gold.Chemscore.Internal.Correction>
   9.000000E+99

> <Gold.Chemscore.Hbonds>
donor molecule, donor type, donor heavy atom, donor atom, acceptor molecule, acceptor atom, score
      L1  H    17    40       P1  7957  0.41
      P1  H  7997  8008       L1    27  0.17

> <Gold.Chemscore.Hbond.Weighted>
-5.9537

> <Gold.Chemscore.Metal.Weighted>
-0.0000

> <Gold.Chemscore.Lipo.Weighted>
-13.1589

> <Gold.Chemscore.Internal_Hbond.Weighted>
0.0000

> <Gold.Chemscore.DEClash.Weighted>
0.1113

> <Gold.Chemscore.DEInternal.Weighted>
1.0523

> <Gold.Chemscore.Rot.Weighted>
5.8869

> <Gold.Chemscore.Internal.Correction.Weighted>
   9.000000E+99

> <Gold.Protein.RotatedTorsions>
[ 6907 6896 6895 6894 ] final -129.58 input  -60.11 | X-H torsion
[ 7974 7965 7964 7962 ] final   94.36 input  175.53 | X-H torsion
[ 8008 7997 7996 7995 ] final  -84.57 input   59.86 | X-H torsion
[ 10167 10162 10161 10158 ] final   30.16 input  -65.29 | X-H torsion
[ 10718 10713 10712 10709 ] final   39.34 input   66.30 | X-H torsion
[ 10763 10752 10751 10750 ] final  126.60 input  -60.55 | X-H torsion
[ 11005 11000 10999 10996 ] final -147.82 input  -57.11 | X-H torsion

> <Gold.Protein.ActiveResidues>
 VAL166  LYS551  ARG553  GLY616  TRP617  ASP618  TYR619  PRO620  LYS621  CYS622 
 ASP623  PHE694  ASN695  SER759  ASP760  ASP761  ALA762  ILE779  LEU786  VAL792 
 PHE793  MET794  SER795  GLU796  ALA797  LYS798  CYS799  TRP800  GLU811  SER814 

> <Gold.Protein.RotatedAtoms>
  150.9303  133.6775  159.2812 H   0  0  0  0  0  0  0  0  0  0  0  0  # atno 6907 bound_to 6896
  151.4199  135.0995  159.9620 H   0  0  0  0  0  0  0  0  0  0  0  0  # atno 6908 bound_to 6896
  152.5022  133.8757  159.7376 H   0  0  0  0  0  0  0  0  0  0  0  0  # atno 6909 bound_to 6896
  145.4666  139.2284  143.2958 H   0  0  0  0  0  0  0  0  0  0  0  0  # atno 7974 bound_to 7965
  154.6312  140.0603  156.9734 H   0  0  0  0  0  0  0  0  0  0  0  0  # atno 8008 bound_to 7997
  155.1662  140.3287  155.4383 H   0  0  0  0  0  0  0  0  0  0  0  0  # atno 8009 bound_to 7997
  156.2484  140.1922  156.6767 H   0  0  0  0  0  0  0  0  0  0  0  0  # atno 8010 bound_to 7997
  140.4702  144.0774  150.6235 H   0  0  0  0  0  0  0  0  0  0  0  0  # atno 10167 bound_to 10162
  157.3695  130.7693  149.7108 H   0  0  0  0  0  0  0  0  0  0  0  0  # atno 10718 bound_to 10713
  153.6960  135.3291  155.3213 H   0  0  0  0  0  0  0  0  0  0  0  0  # atno 10763 bound_to 10752
  154.8426  135.4443  154.1459 H   0  0  0  0  0  0  0  0  0  0  0  0  # atno 10764 bound_to 10752
  153.2514  135.6982  153.7753 H   0  0  0  0  0  0  0  0  0  0  0  0  # atno 10765 bound_to 10752
  140.7676  134.3226  157.5084 H   0  0  0  0  0  0  0  0  0  0  0  0  # atno 11005 bound_to 11000
  146.2421  140.5440  142.8929 LP  0  0  0  0  0  0  0  0  0  0  0  0  # atno 17320 bound_to 7965
  144.7971  140.6142  143.6503 LP  0  0  0  0  0  0  0  0  0  0  0  0  # atno 17321 bound_to 7965
  140.3987  143.2715  151.9974 LP  0  0  0  0  0  0  0  0  0  0  0  0  # atno 17342 bound_to 10162
  139.4817  144.6016  151.7595 LP  0  0  0  0  0  0  0  0  0  0  0  0  # atno 17343 bound_to 10162
  155.9752  130.4091  150.3862 LP  0  0  0  0  0  0  0  0  0  0  0  0  # atno 17370 bound_to 10713
  157.1951  131.0424  151.2680 LP  0  0  0  0  0  0  0  0  0  0  0  0  # atno 17371 bound_to 10713
  139.8760  134.9241  156.3341 LP  0  0  0  0  0  0  0  0  0  0  0  0  # atno 17394 bound_to 11000
  140.9604  133.7392  156.0393 LP  0  0  0  0  0  0  0  0  0  0  0  0  # atno 17395 bound_to 11000

$$$$
