AV-unprocessed.smi:157|AV-procd|sdf|1314|dock3
  -GOLD-   2262019 03D 1   1.00000     0.00000
 Structure written by MMmdl.
 36 38  0  0  0  0  0  0  0  0  2 V2000
  148.9304  136.6802  154.5087 O   0  0  0  0  0  0  0  0  0  0  0  0
  149.3630  137.9053  155.0622 C   0  0  0  0  0  0  0  0  0  0  0  0
  150.6383  137.7058  155.9058 C   0  0  2  0  0  0  0  0  0  0  0  0
  150.6725  138.7677  156.8630 O   0  0  0  0  0  0  0  0  0  0  0  0
  151.8272  139.5318  156.6991 C   0  0  2  0  0  0  0  0  0  0  0  0
  151.4743  140.9711  156.8815 N   0  0  0  0  0  0  0  0  0  0  0  0
  150.6279  141.6857  156.1108 C   0  0  0  0  0  0  0  0  0  0  0  0
  150.4877  142.9475  156.4801 N   0  3  0  0  0  0  0  0  0  0  0  0
  151.2964  143.1237  157.5830 C   0  0  0  0  0  0  0  0  0  0  0  0
  151.8939  141.8833  157.8223 C   0  0  0  0  0  0  0  0  0  0  0  0
  152.8031  141.5022  158.8211 N   0  0  0  0  0  0  0  0  0  0  0  0
  153.0121  142.2041  159.8873 C   0  0  0  0  0  0  0  0  0  0  0  0
  152.5052  143.4472  160.2277 N   0  0  0  0  0  0  0  0  0  0  0  0
  152.4807  144.5708  159.3080 C   0  0  0  0  0  0  0  0  0  0  0  0
  151.3867  144.4670  158.2370 C   0  0  2  0  0  0  0  0  0  0  0  0
  150.1598  144.8768  158.8048 O   0  0  0  0  0  0  0  0  0  0  0  0
  152.3210  139.2746  155.2826 C   0  0  0  0  0  0  0  0  0  0  0  0
  151.9761  137.8089  155.1444 C   0  0  2  0  0  0  0  0  0  0  0  0
  151.9244  137.4204  153.7866 O   0  0  0  0  0  0  0  0  0  0  0  0
  150.5778  136.7580  156.4425 H   0  0  0  0  0  0  0  0  0  0  0  0
  152.5581  139.2892  157.4712 H   0  0  0  0  0  0  0  0  0  0  0  0
  151.6163  145.1973  157.4602 H   0  0  0  0  0  0  0  0  0  0  0  0
  152.7315  137.2105  155.6561 H   0  0  0  0  0  0  0  0  0  0  0  0
  149.1493  136.6710  153.5892 H   0  0  0  0  0  0  0  0  0  0  0  0
  149.5163  138.6424  154.2737 H   0  0  0  0  0  0  0  0  0  0  0  0
  148.5564  138.2781  155.6942 H   0  0  0  0  0  0  0  0  0  0  0  0
  150.1154  141.2591  155.2671 H   0  0  0  0  0  0  0  0  0  0  0  0
  153.6790  141.8103  160.6556 H   0  0  0  0  0  0  0  0  0  0  0  0
  152.5856  143.7565  161.1862 H   0  0  0  0  0  0  0  0  0  0  0  0
  152.3875  145.5019  159.8680 H   0  0  0  0  0  0  0  0  0  0  0  0
  153.4539  144.6101  158.8162 H   0  0  0  0  0  0  0  0  0  0  0  0
  149.5810  145.1550  158.1119 H   0  0  0  0  0  0  0  0  0  0  0  0
  151.7548  139.8816  154.5739 H   0  0  0  0  0  0  0  0  0  0  0  0
  153.3843  139.4951  155.1838 H   0  0  0  0  0  0  0  0  0  0  0  0
  151.0695  137.6360  153.4450 H   0  0  0  0  0  0  0  0  0  0  0  0
  149.9065  143.6443  156.0316 H   0  0  0  0  0  0  0  0  0  0  0  0
  1  2  1  0  0  0  0
  1 24  1  0  0  0  0
  2  3  1  0  0  0  0
  2 25  1  0  0  0  0
  2 26  1  0  0  0  0
  3 20  1  0  0  0  0
  3 18  1  0  0  0  0
  3  4  1  0  0  0  0
  4  5  1  0  0  0  0
  5 21  1  0  0  0  0
  5  6  1  0  0  0  0
  5 17  1  0  0  0  0
  6 10  1  0  0  0  0
  6  7  1  0  0  0  0
  7  8  2  0  0  0  0
  7 27  1  0  0  0  0
  8  9  1  0  0  0  0
  8 36  1  0  0  0  0
  9 15  1  0  0  0  0
  9 10  2  0  0  0  0
 10 11  1  0  0  0  0
 11 12  2  0  0  0  0
 12 13  1  0  0  0  0
 12 28  1  0  0  0  0
 13 14  1  0  0  0  0
 13 29  1  0  0  0  0
 14 15  1  0  0  0  0
 14 30  1  0  0  0  0
 14 31  1  0  0  0  0
 15 22  1  0  0  0  0
 15 16  1  0  0  0  0
 16 32  1  0  0  0  0
 17 18  1  0  0  0  0
 17 33  1  0  0  0  0
 17 34  1  0  0  0  0
 18 23  1  0  0  0  0
 18 19  1  0  0  0  0
 19 35  1  0  0  0  0
M  CHG  1   8   1
M  END
> <s_m_source_file>
AV-unprocessed.smi

> <i_m_source_file_index>
157

> <i_lp_mmshare_version>
43012

> <i_f3d_flags>
0

> <s_epik_input>
W09IXVtDSDJdW0NASF0xT1tDQEhdKFtDSDJdW0NAQEhdMVtPSF0pbihbY0hdbjIpYyhjMjMpTj1bQ0hdW05IXVtDSDJdW0NASF0zW09IXQ==

> <s_epik_cmdline>
J2VwaWtfcHl0aG9uJywgJy1waCcsICc3LjAnLCAnLXRuJywgJzgnLCAnLW1hJywgJzIwMCcsICctbWV0YWxfYmluZGluZycsICctaW1hZScsICc8aW5maWxlLm1hZT4nLCAnLW9tYWUnLCAnPG91dGZpbGUubWFlPic=

> <r_epik_Ionization_Penalty>
1.68594

> <r_epik_Ionization_Penalty_Charging>
0

> <r_epik_Ionization_Penalty_Neutral>
1.68594

> <r_epik_State_Penalty>
1.79006

> <r_epik_Charging_Adjusted_Penalty>
1.79006

> <i_epik_Tot_Q>
1

> <i_epik_Tot_abs_Q>
1

> <r_epik_Metal_State_Penalty>
5.85324

> <b_epik_Metal_Only>
0

> <s_epik_Chemistry_Notes>
This compound has an imine and may undergo hydrolysis. This compound contains an acetal/aminal-like group ( X-CH(R)-Y where X, Y are N, S, or O) that may be acid/base labile, releasing an aldehyde.

> <s_lp_Force_Field>
OPLS_2005

> <r_lp_Energy>
55.0394

> <b_lp_Chiralities_Consistent>
1

> <s_lp_Variant>
AV-unprocessed.smi:157-24

> <Gold.Version>
5.8.1

> <Gold.Id.Protein>
6NUR|6NUR_protein|mol2

> <Gold.PLP.Fitness>
52.0049

> <Gold.PLP.PLP>
-37.7299

> <Gold.PLP.part.hbond>
-5.0230

> <Gold.PLP.part.metal>
0.0000

> <Gold.PLP.part.buried>
-6.4906

> <Gold.PLP.part.nonpolar>
-26.5731

> <Gold.PLP.part.repulsive>
0.1339

> <Gold.PLP.ligand.clash>
0.0000

> <Gold.PLP.ligand.torsion>
0.3577

> <Gold.PLP.Chemscore.Hbond>
4.9920

> <Gold.PLP.Chemscore.CHOScore>
0.0000

> <Gold.PLP.Chemscore.Metal>
0.0000

> <Gold.Chemscore.Hbonds>
donor molecule, donor type, donor heavy atom, donor atom, acceptor molecule, acceptor atom, score
      L1  H     1    24       P1  7948  1.00
      L1  H     8    36       P1  8028  1.98
      L1  H    16    32       P1  8029  1.00
      P1  H 10752 10764       L1    19  0.85

> <Gold.PLP.Chemscore.Internal.Correction>
0.0143

> <Gold.Rescore>
     Score         DG    S(hbond)    S(metal)    S(lipo)     H(rot)  DE(clash)    DE(int)     intcor
     12.11     -12.55       2.89        0.00      58.17       3.67       0.03       0.42       ----

> <Gold.Chemscore.Fitness>
12.1070

> <Gold.Chemscore.DG>
-12.5504

> <Gold.Chemscore.ZeroCoef>
-5.4800

> <Gold.Chemscore.Hbond>
2.8890

> <Gold.Chemscore.Metal>
0.0000

> <Gold.Chemscore.Lipo>
58.1713

> <Gold.Chemscore.Internal_Hbond>
0.0000

> <Gold.Chemscore.DEClash>
0.0254

> <Gold.Chemscore.DEInternal>
0.4180

> <Gold.Chemscore.Rot>
3.6659

> <Gold.Chemscore.Internal.Correction>
   9.000000E+99

> <Gold.Chemscore.Hbonds>
donor molecule, donor type, donor heavy atom, donor atom, acceptor molecule, acceptor atom, score
      L1  H     1    24       P1  7948  0.98
      L1  H     8    36       P1  8028  0.92
      L1  H    16    32       P1  8029  0.24
      P1  H 10752 10764       L1    19  0.15

> <Gold.Chemscore.Hbond.Weighted>
-9.6491

> <Gold.Chemscore.Metal.Weighted>
-0.0000

> <Gold.Chemscore.Lipo.Weighted>
-6.8060

> <Gold.Chemscore.Internal_Hbond.Weighted>
0.0000

> <Gold.Chemscore.DEClash.Weighted>
0.0254

> <Gold.Chemscore.DEInternal.Weighted>
0.4180

> <Gold.Chemscore.Rot.Weighted>
9.3848

> <Gold.Chemscore.Internal.Correction.Weighted>
   9.000000E+99

> <Gold.Protein.RotatedTorsions>
[ 6907 6896 6895 6894 ] final   66.81 input  -60.11 | X-H torsion
[ 7974 7965 7964 7962 ] final    7.69 input  175.53 | X-H torsion
[ 8008 7997 7996 7995 ] final -168.66 input   59.86 | X-H torsion
[ 10167 10162 10161 10158 ] final   92.25 input  -65.29 | X-H torsion
[ 10718 10713 10712 10709 ] final -157.13 input   66.30 | X-H torsion
[ 10763 10752 10751 10750 ] final -101.08 input  -60.55 | X-H torsion
[ 11005 11000 10999 10996 ] final   46.40 input  -57.11 | X-H torsion

> <Gold.Protein.ActiveResidues>
 VAL166  LYS551  ARG553  GLY616  TRP617  ASP618  TYR619  PRO620  LYS621  CYS622 
 ASP623  PHE694  ASN695  SER759  ASP760  ASP761  ALA762  ILE779  LEU786  VAL792 
 PHE793  MET794  SER795  GLU796  ALA797  LYS798  CYS799  TRP800  GLU811  SER814 

> <Gold.Protein.RotatedAtoms>
  152.4508  134.5398  159.9835 H   0  0  0  0  0  0  0  0  0  0  0  0  # atno 6907 bound_to 6896
  151.5471  133.3417  159.2954 H   0  0  0  0  0  0  0  0  0  0  0  0  # atno 6908 bound_to 6896
  150.8436  134.7769  159.7016 H   0  0  0  0  0  0  0  0  0  0  0  0  # atno 6909 bound_to 6896
  146.2424  140.0045  142.8412 H   0  0  0  0  0  0  0  0  0  0  0  0  # atno 7974 bound_to 7965
  155.8945  140.1030  157.1395 H   0  0  0  0  0  0  0  0  0  0  0  0  # atno 8008 bound_to 7997
  154.4019  140.1304  156.4422 H   0  0  0  0  0  0  0  0  0  0  0  0  # atno 8009 bound_to 7997
  155.7495  140.3465  155.5146 H   0  0  0  0  0  0  0  0  0  0  0  0  # atno 8010 bound_to 7997
  139.8295  144.6694  150.9417 H   0  0  0  0  0  0  0  0  0  0  0  0  # atno 10167 bound_to 10162
  156.5361  130.8542  151.2733 H   0  0  0  0  0  0  0  0  0  0  0  0  # atno 10718 bound_to 10713
  154.7630  135.4911  153.9500 H   0  0  0  0  0  0  0  0  0  0  0  0  # atno 10763 bound_to 10752
  153.1274  135.6745  153.9242 H   0  0  0  0  0  0  0  0  0  0  0  0  # atno 10764 bound_to 10752
  153.8956  135.3116  155.3427 H   0  0  0  0  0  0  0  0  0  0  0  0  # atno 10765 bound_to 10752
  140.1372  134.4629  155.8476 H   0  0  0  0  0  0  0  0  0  0  0  0  # atno 11005 bound_to 11000
  145.1385  140.9558  143.4503 LP  0  0  0  0  0  0  0  0  0  0  0  0  # atno 17320 bound_to 7965
  145.0319  139.3333  143.6020 LP  0  0  0  0  0  0  0  0  0  0  0  0  # atno 17321 bound_to 7965
  140.7808  143.4014  151.1142 LP  0  0  0  0  0  0  0  0  0  0  0  0  # atno 17342 bound_to 10162
  139.7669  143.8552  152.3112 LP  0  0  0  0  0  0  0  0  0  0  0  0  # atno 17343 bound_to 10162
  157.7413  130.9868  150.2439 LP  0  0  0  0  0  0  0  0  0  0  0  0  # atno 17370 bound_to 10713
  156.3015  130.3759  149.7746 LP  0  0  0  0  0  0  0  0  0  0  0  0  # atno 17371 bound_to 10713
  141.2180  133.6819  156.7180 LP  0  0  0  0  0  0  0  0  0  0  0  0  # atno 17394 bound_to 11000
  140.2767  134.8349  157.3896 LP  0  0  0  0  0  0  0  0  0  0  0  0  # atno 17395 bound_to 11000

$$$$
