AV-unprocessed.smi:36|AV-procd|sdf|279|dock1
  -GOLD-   2262016 53D 1   1.00000     0.00000
 Structure written by MMmdl.
 64 67  0  0  0  0  0  0  0  0  1 V2000
  151.3040  129.0522  167.1057 C   0  0  0  0  0  0  0  0  0  0  0  0
  151.9121  128.2141  165.9690 C   0  0  0  0  0  0  0  0  0  0  0  0
  153.3686  127.8527  166.3074 C   0  0  0  0  0  0  0  0  0  0  0  0
  151.0928  126.9278  165.7705 C   0  0  0  0  0  0  0  0  0  0  0  0
  151.8852  129.2235  164.3471 Si  0  0  0  0  0  0  0  0  0  0  0  0
  152.6921  128.2671  162.9178 C   0  0  0  0  0  0  0  0  0  0  0  0
  150.1089  129.7119  163.8787 C   0  0  0  0  0  0  0  0  0  0  0  0
  152.7834  130.6321  164.6101 O   0  0  0  0  0  0  0  0  0  0  0  0
  154.1633  130.6525  164.9177 C   0  0  0  0  0  0  0  0  0  0  0  0
  154.5444  132.0335  165.4710 C   0  0  2  0  0  0  0  0  0  0  0  0
  154.0714  133.0486  164.5852 O   0  0  0  0  0  0  0  0  0  0  0  0
  155.1726  133.6735  164.0117 C   0  0  1  0  0  0  0  0  0  0  0  0
  154.8008  135.0654  163.6371 N   0  0  0  0  0  0  0  0  0  0  0  0
  154.2706  136.0667  164.4217 C   0  0  0  0  0  0  0  0  0  0  0  0
  154.0384  137.1937  163.8025 N   0  0  0  0  0  0  0  0  0  0  0  0
  154.4453  136.9511  162.4961 C   0  0  0  0  0  0  0  0  0  0  0  0
  154.4708  137.7307  161.3107 C   0  0  0  0  0  0  0  0  0  0  0  0
  154.0139  139.0051  161.3245 N   0  0  0  0  0  0  0  0  0  0  0  0
  154.0992  140.0004  160.2700 C   0  0  0  0  0  0  0  0  0  0  0  0
  154.5955  139.7506  159.1710 O   0  0  0  0  0  0  0  0  0  0  0  0
  153.4752  141.3328  160.5681 C   0  0  0  0  0  0  0  0  0  0  0  0
  153.3888  141.7885  161.9030 C   0  0  0  0  0  0  0  0  0  0  0  0
  152.7942  143.0313  162.1957 C   0  0  0  0  0  0  0  0  0  0  0  0
  152.2742  143.8259  161.1569 C   0  0  0  0  0  0  0  0  0  0  0  0
  152.3443  143.3744  159.8255 C   0  0  0  0  0  0  0  0  0  0  0  0
  152.9385  142.1313  159.5313 C   0  0  0  0  0  0  0  0  0  0  0  0
  154.9584  137.1422  160.1863 N   0  0  0  0  0  0  0  0  0  0  0  0
  155.3879  135.8770  160.2195 C   0  0  0  0  0  0  0  0  0  0  0  0
  155.4166  135.0324  161.2528 N   0  0  0  0  0  0  0  0  0  0  0  0
  154.9297  135.6189  162.3840 C   0  0  0  0  0  0  0  0  0  0  0  0
  156.2459  133.6661  165.0877 C   0  0  0  0  0  0  0  0  0  0  0  0
  156.0604  132.2641  165.6318 C   0  0  1  0  0  0  0  0  0  0  0  0
  156.4820  132.1802  166.9774 O   0  0  0  0  0  0  0  0  0  0  0  0
  151.3066  128.5026  168.0477 H   0  0  0  0  0  0  0  0  0  0  0  0
  150.2713  129.3267  166.8885 H   0  0  0  0  0  0  0  0  0  0  0  0
  151.8638  129.9746  167.2628 H   0  0  0  0  0  0  0  0  0  0  0  0
  153.9746  128.7454  166.4629 H   0  0  0  0  0  0  0  0  0  0  0  0
  153.8312  127.2777  165.5047 H   0  0  0  0  0  0  0  0  0  0  0  0
  153.4278  127.2545  167.2173 H   0  0  0  0  0  0  0  0  0  0  0  0
  151.1028  126.3085  166.6680 H   0  0  0  0  0  0  0  0  0  0  0  0
  151.4908  126.3273  164.9514 H   0  0  0  0  0  0  0  0  0  0  0  0
  150.0512  127.1520  165.5383 H   0  0  0  0  0  0  0  0  0  0  0  0
  152.1590  127.3413  162.7034 H   0  0  0  0  0  0  0  0  0  0  0  0
  153.7250  128.0036  163.1442 H   0  0  0  0  0  0  0  0  0  0  0  0
  152.7030  128.8552  162.0005 H   0  0  0  0  0  0  0  0  0  0  0  0
  149.4881  128.8347  163.6977 H   0  0  0  0  0  0  0  0  0  0  0  0
  150.0836  130.3180  162.9735 H   0  0  0  0  0  0  0  0  0  0  0  0
  149.6289  130.2896  164.6681 H   0  0  0  0  0  0  0  0  0  0  0  0
  154.3722  129.8763  165.6543 H   0  0  0  0  0  0  0  0  0  0  0  0
  154.7568  130.4236  164.0320 H   0  0  0  0  0  0  0  0  0  0  0  0
  154.0363  132.1902  166.4237 H   0  0  0  0  0  0  0  0  0  0  0  0
  155.4687  133.1788  163.0850 H   0  0  0  0  0  0  0  0  0  0  0  0
  154.0558  135.9345  165.4723 H   0  0  0  0  0  0  0  0  0  0  0  0
  153.5630  139.3038  162.1769 H   0  0  0  0  0  0  0  0  0  0  0  0
  153.7830  141.1899  162.7121 H   0  0  0  0  0  0  0  0  0  0  0  0
  152.7373  143.3741  163.2182 H   0  0  0  0  0  0  0  0  0  0  0  0
  151.8184  144.7791  161.3818 H   0  0  0  0  0  0  0  0  0  0  0  0
  151.9399  143.9810  159.0287 H   0  0  0  0  0  0  0  0  0  0  0  0
  152.9735  141.8005  158.5034 H   0  0  0  0  0  0  0  0  0  0  0  0
  155.7597  135.4856  159.2843 H   0  0  0  0  0  0  0  0  0  0  0  0
  157.2352  133.8564  164.6702 H   0  0  0  0  0  0  0  0  0  0  0  0
  156.0099  134.4234  165.8376 H   0  0  0  0  0  0  0  0  0  0  0  0
  156.6334  131.5620  165.0261 H   0  0  0  0  0  0  0  0  0  0  0  0
  156.3279  133.0144  167.3937 H   0  0  0  0  0  0  0  0  0  0  0  0
  1  2  1  0  0  0  0
  1 34  1  0  0  0  0
  1 35  1  0  0  0  0
  1 36  1  0  0  0  0
  2  3  1  0  0  0  0
  2  4  1  0  0  0  0
  2  5  1  0  0  0  0
  3 37  1  0  0  0  0
  3 38  1  0  0  0  0
  3 39  1  0  0  0  0
  4 40  1  0  0  0  0
  4 41  1  0  0  0  0
  4 42  1  0  0  0  0
  5  6  1  0  0  0  0
  5  7  1  0  0  0  0
  5  8  1  0  0  0  0
  6 43  1  0  0  0  0
  6 44  1  0  0  0  0
  6 45  1  0  0  0  0
  7 46  1  0  0  0  0
  7 47  1  0  0  0  0
  7 48  1  0  0  0  0
  8  9  1  0  0  0  0
  9 10  1  0  0  0  0
  9 49  1  0  0  0  0
  9 50  1  0  0  0  0
 10 32  1  0  0  0  0
 10 11  1  0  0  0  0
 10 51  1  0  0  0  0
 11 12  1  0  0  0  0
 12 13  1  0  0  0  0
 12 31  1  0  0  0  0
 12 52  1  0  0  0  0
 13 30  1  0  0  0  0
 13 14  1  0  0  0  0
 14 15  2  0  0  0  0
 14 53  1  0  0  0  0
 15 16  1  0  0  0  0
 16 30  2  0  0  0  0
 16 17  1  0  0  0  0
 17 18  1  0  0  0  0
 17 27  2  0  0  0  0
 18 19  1  0  0  0  0
 18 54  1  0  0  0  0
 19 20  2  0  0  0  0
 19 21  1  0  0  0  0
 21 26  1  0  0  0  0
 21 22  2  0  0  0  0
 22 23  1  0  0  0  0
 22 55  1  0  0  0  0
 23 24  2  0  0  0  0
 23 56  1  0  0  0  0
 24 25  1  0  0  0  0
 24 57  1  0  0  0  0
 25 26  2  0  0  0  0
 25 58  1  0  0  0  0
 26 59  1  0  0  0  0
 27 28  1  0  0  0  0
 28 29  2  0  0  0  0
 28 60  1  0  0  0  0
 29 30  1  0  0  0  0
 31 32  1  0  0  0  0
 31 61  1  0  0  0  0
 31 62  1  0  0  0  0
 32 33  1  0  0  0  0
 32 63  1  0  0  0  0
 33 64  1  0  0  0  0
M  END
> <s_m_source_file>
AV-unprocessed.smi

> <i_m_source_file_index>
36

> <i_lp_mmshare_version>
43012

> <i_f3d_flags>
0

> <s_epik_input>
W0NIM11DKFtDSDNdKShbQ0gzXSlbU2ldKFtDSDNdKShbQ0gzXSlPW0NIMl1bQ0BASF0xT1tDQEhdKFtDSDJdW0NASF0xW09IXSluKFtjSF1uMiljKGMyMyluW2NIXW5jM1tOSF1DKD1PKWM0W2NIXVtjSF1bY0hdW2NIXVtjSF00

> <s_epik_cmdline>
J2VwaWtfcHl0aG9uJywgJy1waCcsICc3LjAnLCAnLXRuJywgJzgnLCAnLW1hJywgJzIwMCcsICctbWV0YWxfYmluZGluZycsICctaW1hZScsICc8aW5maWxlLm1hZT4nLCAnLW9tYWUnLCAnPG91dGZpbGUubWFlPic=

> <r_lp_tautomer_probability>
1

> <r_epik_Ionization_Penalty>
0.00150433

> <r_epik_Ionization_Penalty_Charging>
0

> <r_epik_Ionization_Penalty_Neutral>
0.00150433

> <r_epik_State_Penalty>
0.00724046

> <r_epik_Charging_Adjusted_Penalty>
0.00724046

> <i_epik_Tot_Q>
0

> <i_epik_Tot_abs_Q>
0

> <r_epik_Metal_State_Penalty>
0.323355

> <b_epik_Metal_Only>
0

> <s_epik_Chemistry_Notes>
This compound contains an acetal/aminal-like group ( X-CH(R)-Y where X, Y are N, S, or O) that may be acid/base labile, releasing an aldehyde.

> <s_lp_Force_Field>
OPLS_2005

> <r_lp_Energy>
30.8875

> <b_lp_Chiralities_Consistent>
1

> <s_lp_Variant>
AV-unprocessed.smi:36-1

> <Gold.Version>
5.8.1

> <Gold.Id.Protein>
6NUR|6NUR_protein|mol2

> <Gold.PLP.Fitness>
57.1164

> <Gold.PLP.PLP>
-54.7655

> <Gold.PLP.part.hbond>
-1.0000

> <Gold.PLP.part.metal>
0.0000

> <Gold.PLP.part.buried>
-7.0859

> <Gold.PLP.part.nonpolar>
-47.4658

> <Gold.PLP.part.repulsive>
0.1675

> <Gold.PLP.ligand.clash>
0.0000

> <Gold.PLP.ligand.torsion>
0.4662

> <Gold.PLP.Chemscore.Hbond>
1.0000

> <Gold.PLP.Chemscore.CHOScore>
0.0000

> <Gold.PLP.Chemscore.Metal>
0.0000

> <Gold.Chemscore.Hbonds>
donor molecule, donor type, donor heavy atom, donor atom, acceptor molecule, acceptor atom, score
      P1  H  7997  8009       L1    20  1.00

> <Gold.PLP.Chemscore.Internal.Correction>
0.2833

> <Gold.Rescore>
     Score         DG    S(hbond)    S(metal)    S(lipo)     H(rot)  DE(clash)    DE(int)     intcor
     15.97     -18.00       1.00        0.00     137.66       2.70       0.21       1.83       ----

> <Gold.Chemscore.Fitness>
15.9684

> <Gold.Chemscore.DG>
-18.0001

> <Gold.Chemscore.ZeroCoef>
-5.4800

> <Gold.Chemscore.Hbond>
0.9991

> <Gold.Chemscore.Metal>
0.0000

> <Gold.Chemscore.Lipo>
137.6557

> <Gold.Chemscore.Internal_Hbond>
0.0000

> <Gold.Chemscore.DEClash>
0.2055

> <Gold.Chemscore.DEInternal>
1.8262

> <Gold.Chemscore.Rot>
2.7041

> <Gold.Chemscore.Internal.Correction>
   9.000000E+99

> <Gold.Chemscore.Hbonds>
donor molecule, donor type, donor heavy atom, donor atom, acceptor molecule, acceptor atom, score
      P1  H  7997  8009       L1    20  0.98

> <Gold.Chemscore.Hbond.Weighted>
-3.3369

> <Gold.Chemscore.Metal.Weighted>
-0.0000

> <Gold.Chemscore.Lipo.Weighted>
-16.1057

> <Gold.Chemscore.Internal_Hbond.Weighted>
0.0000

> <Gold.Chemscore.DEClash.Weighted>
0.2055

> <Gold.Chemscore.DEInternal.Weighted>
1.8262

> <Gold.Chemscore.Rot.Weighted>
6.9225

> <Gold.Chemscore.Internal.Correction.Weighted>
   9.000000E+99

> <Gold.Protein.RotatedTorsions>
[ 6907 6896 6895 6894 ] final  -76.22 input  -60.11 | X-H torsion
[ 7974 7965 7964 7962 ] final   32.10 input  175.53 | X-H torsion
[ 8008 7997 7996 7995 ] final  114.68 input   59.86 | X-H torsion
[ 10167 10162 10161 10158 ] final  130.12 input  -65.29 | X-H torsion
[ 10718 10713 10712 10709 ] final  172.91 input   66.30 | X-H torsion
[ 10763 10752 10751 10750 ] final  -94.52 input  -60.55 | X-H torsion
[ 11005 11000 10999 10996 ] final  -42.46 input  -57.11 | X-H torsion

> <Gold.Protein.ActiveResidues>
 VAL166  LYS551  ARG553  GLY616  TRP617  ASP618  TYR619  PRO620  LYS621  CYS622 
 ASP623  PHE694  ASN695  SER759  ASP760  ASP761  ALA762  ILE779  LEU786  VAL792 
 PHE793  MET794  SER795  GLU796  ALA797  LYS798  CYS799  TRP800  GLU811  SER814 

> <Gold.Protein.RotatedAtoms>
  150.7034  134.4604  159.5377 H   0  0  0  0  0  0  0  0  0  0  0  0  # atno 6907 bound_to 6896
  152.2280  134.8347  160.0486 H   0  0  0  0  0  0  0  0  0  0  0  0  # atno 6908 bound_to 6896
  151.9173  133.3541  159.3921 H   0  0  0  0  0  0  0  0  0  0  0  0  # atno 6909 bound_to 6896
  146.1508  139.6570  142.9100 H   0  0  0  0  0  0  0  0  0  0  0  0  # atno 7974 bound_to 7965
  156.2335  140.2954  156.0252 H   0  0  0  0  0  0  0  0  0  0  0  0  # atno 8008 bound_to 7997
  155.2157  140.0414  157.2957 H   0  0  0  0  0  0  0  0  0  0  0  0  # atno 8009 bound_to 7997
  154.6038  140.2434  155.7765 H   0  0  0  0  0  0  0  0  0  0  0  0  # atno 8010 bound_to 7997
  139.5445  144.6761  151.4518 H   0  0  0  0  0  0  0  0  0  0  0  0  # atno 10167 bound_to 10162
  156.9720  131.0093  151.2903 H   0  0  0  0  0  0  0  0  0  0  0  0  # atno 10718 bound_to 10713
  154.7063  135.5154  153.8600 H   0  0  0  0  0  0  0  0  0  0  0  0  # atno 10763 bound_to 10752
  153.0744  135.6611  154.0187 H   0  0  0  0  0  0  0  0  0  0  0  0  # atno 10764 bound_to 10752
  154.0037  135.3008  155.3379 H   0  0  0  0  0  0  0  0  0  0  0  0  # atno 10765 bound_to 10752
  141.0317  133.6817  156.2598 H   0  0  0  0  0  0  0  0  0  0  0  0  # atno 11005 bound_to 11000
  145.4828  141.0438  143.2636 LP  0  0  0  0  0  0  0  0  0  0  0  0  # atno 17320 bound_to 7965
  144.7901  139.6345  143.7117 LP  0  0  0  0  0  0  0  0  0  0  0  0  # atno 17321 bound_to 7965
  140.6688  143.8340  150.6973 LP  0  0  0  0  0  0  0  0  0  0  0  0  # atno 17342 bound_to 10162
  140.1758  143.4156  152.1969 LP  0  0  0  0  0  0  0  0  0  0  0  0  # atno 17343 bound_to 10162
  157.5586  130.8230  149.8236 LP  0  0  0  0  0  0  0  0  0  0  0  0  # atno 17370 bound_to 10713
  156.0279  130.3773  150.1771 LP  0  0  0  0  0  0  0  0  0  0  0  0  # atno 17371 bound_to 10713
  140.6395  134.5181  157.5568 LP  0  0  0  0  0  0  0  0  0  0  0  0  # atno 17394 bound_to 11000
  139.9212  134.8144  156.1205 LP  0  0  0  0  0  0  0  0  0  0  0  0  # atno 17395 bound_to 11000

$$$$
