AV-unprocessed.smi:3150|AV-procd|sdf|12013|dock5
  -GOLD-   2272017423D 1   1.00000     0.00000
 Structure written by MMmdl.
 32 33  0  0  0  0  0  0  0  0  2 V2000
  151.1705  138.0288  154.3133 C   0  0  0  0  0  0  0  0  0  0  0  0
  150.6466  139.1886  155.1729 C   0  0  2  0  0  0  0  0  0  0  0  0
  150.2287  140.2251  154.2876 O   0  0  0  0  0  0  0  0  0  0  0  0
  149.5373  141.3070  154.8997 C   0  0  0  0  0  0  0  0  0  0  0  0
  148.3562  141.6820  154.0308 C   0  0  0  0  0  0  0  0  0  0  0  0
  146.9408  141.5162  154.5363 C   0  0  0  0  0  0  0  0  0  0  0  0
  147.4632  140.6077  153.4527 C   0  0  0  0  0  0  0  0  0  0  0  0
  151.7305  139.7043  156.1334 C   0  0  0  0  0  0  0  0  0  0  0  0
  152.9162  139.4658  155.8995 O   0  0  0  0  0  0  0  0  0  0  0  0
  151.2830  140.4155  157.1845 N   0  0  0  0  0  0  0  0  0  0  0  0
  152.0270  141.0142  158.2385 C   0  0  0  0  0  0  0  0  0  0  0  0
  153.1581  140.4637  158.7474 N   0  0  0  0  0  0  0  0  0  0  0  0
  153.8058  141.0920  159.7498 C   0  0  0  0  0  0  0  0  0  0  0  0
  153.3692  142.3058  160.3087 C   0  0  0  0  0  0  0  0  0  0  0  0
  152.1998  142.8891  159.7915 C   0  0  0  0  0  0  0  0  0  0  0  0
  151.5172  142.2397  158.7433 C   0  0  0  0  0  0  0  0  0  0  0  0
  150.3786  142.8087  158.2399 O   0  5  0  0  0  0  0  0  0  0  0  0
  151.5170  137.2015  154.9339 H   0  0  0  0  0  0  0  0  0  0  0  0
  151.9992  138.3423  153.6774 H   0  0  0  0  0  0  0  0  0  0  0  0
  150.3841  137.6448  153.6633 H   0  0  0  0  0  0  0  0  0  0  0  0
  149.7852  138.8313  155.7410 H   0  0  0  0  0  0  0  0  0  0  0  0
  149.1691  141.0137  155.8837 H   0  0  0  0  0  0  0  0  0  0  0  0
  150.1850  142.1751  155.0295 H   0  0  0  0  0  0  0  0  0  0  0  0
  148.5401  142.5392  153.3856 H   0  0  0  0  0  0  0  0  0  0  0  0
  146.8032  141.0890  155.5278 H   0  0  0  0  0  0  0  0  0  0  0  0
  146.2149  142.2749  154.2510 H   0  0  0  0  0  0  0  0  0  0  0  0
  147.0861  140.7590  152.4433 H   0  0  0  0  0  0  0  0  0  0  0  0
  147.6721  139.5743  153.7225 H   0  0  0  0  0  0  0  0  0  0  0  0
  150.2832  140.5426  157.2503 H   0  0  0  0  0  0  0  0  0  0  0  0
  154.7004  140.6114  160.1176 H   0  0  0  0  0  0  0  0  0  0  0  0
  153.9162  142.7769  161.1115 H   0  0  0  0  0  0  0  0  0  0  0  0
  151.8330  143.8217  160.1952 H   0  0  0  0  0  0  0  0  0  0  0  0
  1  2  1  0  0  0  0
  1 18  1  0  0  0  0
  1 19  1  0  0  0  0
  1 20  1  0  0  0  0
  2  3  1  0  0  0  0
  2  8  1  0  0  0  0
  2 21  1  0  0  0  0
  3  4  1  0  0  0  0
  4  5  1  0  0  0  0
  4 22  1  0  0  0  0
  4 23  1  0  0  0  0
  5  7  1  0  0  0  0
  5  6  1  0  0  0  0
  5 24  1  0  0  0  0
  6  7  1  0  0  0  0
  6 25  1  0  0  0  0
  6 26  1  0  0  0  0
  7 27  1  0  0  0  0
  7 28  1  0  0  0  0
  8  9  2  0  0  0  0
  8 10  1  0  0  0  0
 10 29  1  0  0  0  0
 10 11  1  0  0  0  0
 11 16  2  0  0  0  0
 11 12  1  0  0  0  0
 12 13  2  0  0  0  0
 13 30  1  0  0  0  0
 13 14  1  0  0  0  0
 14 31  1  0  0  0  0
 14 15  2  0  0  0  0
 15 16  1  0  0  0  0
 15 32  1  0  0  0  0
 16 17  1  0  0  0  0
M  CHG  1  17  -1
M  END
> <s_m_source_file>
AV-unprocessed.smi

> <i_m_source_file_index>
3150

> <i_lp_mmshare_version>
43012

> <i_f3d_flags>
0

> <s_epik_input>
W0NIMl0xW0NIMl1bQ0hdMVtDSDJdT1tDQEBIXShbQ0gzXSlDKD1PKVtOSF1jMm5bY0hdW2NIXVtjSF1jMltPSF0=

> <s_epik_cmdline>
J2VwaWtfcHl0aG9uJywgJy1waCcsICc3LjAnLCAnLXRuJywgJzgnLCAnLW1hJywgJzIwMCcsICctbWV0YWxfYmluZGluZycsICctaW1hZScsICc8aW5maWxlLm1hZT4nLCAnLW9tYWUnLCAnPG91dGZpbGUubWFlPic=

> <r_epik_Ionization_Penalty>
4.12024

> <r_epik_Ionization_Penalty_Charging>
2.08551

> <r_epik_Ionization_Penalty_Neutral>
2.03473

> <r_epik_State_Penalty>
2.65726

> <r_epik_Charging_Adjusted_Penalty>
4.74277

> <i_epik_Tot_Q>
-1

> <i_epik_Tot_abs_Q>
1

> <r_epik_Metal_State_Penalty>
0.600747

> <b_epik_Metal_Only>
0

> <s_lp_Force_Field>
OPLS_2005

> <r_lp_Energy>
13.9624

> <b_lp_Chiralities_Consistent>
1

> <s_lp_Variant>
AV-unprocessed.smi:3150-7

> <Gold.Version>
5.8.1

> <Gold.Id.Protein>
6NUR|6NUR_protein|mol2

> <Gold.PLP.Fitness>
40.9977

> <Gold.PLP.PLP>
-37.5549

> <Gold.PLP.part.hbond>
-2.7662

> <Gold.PLP.part.metal>
0.0000

> <Gold.PLP.part.buried>
-4.4338

> <Gold.PLP.part.nonpolar>
-31.1060

> <Gold.PLP.part.repulsive>
0.3093

> <Gold.PLP.ligand.clash>
0.0000

> <Gold.PLP.ligand.torsion>
1.5607

> <Gold.PLP.Chemscore.Hbond>
1.9920

> <Gold.PLP.Chemscore.CHOScore>
0.0000

> <Gold.PLP.Chemscore.Metal>
0.0000

> <Gold.Chemscore.Hbonds>
donor molecule, donor type, donor heavy atom, donor atom, acceptor molecule, acceptor atom, score
      P1  H  7989  7998       L1     3  1.00
      P1  H  7997  8009       L1     9  1.00

> <Gold.PLP.Chemscore.Internal.Correction>
0.5883

> <Gold.Rescore>
     Score         DG    S(hbond)    S(metal)    S(lipo)     H(rot)  DE(clash)    DE(int)     intcor
     14.23     -16.75       1.75        0.00      82.31       1.64       0.04       2.49       ----

> <Gold.Chemscore.Fitness>
14.2276

> <Gold.Chemscore.DG>
-16.7507

> <Gold.Chemscore.ZeroCoef>
-5.4800

> <Gold.Chemscore.Hbond>
1.7472

> <Gold.Chemscore.Metal>
0.0000

> <Gold.Chemscore.Lipo>
82.3093

> <Gold.Chemscore.Internal_Hbond>
0.0000

> <Gold.Chemscore.DEClash>
0.0354

> <Gold.Chemscore.DEInternal>
2.4877

> <Gold.Chemscore.Rot>
1.6387

> <Gold.Chemscore.Internal.Correction>
   9.000000E+99

> <Gold.Chemscore.Hbonds>
donor molecule, donor type, donor heavy atom, donor atom, acceptor molecule, acceptor atom, score
      P1  H  7989  7998       L1     3  0.44
      P1  H  7997  8009       L1     9  0.99

> <Gold.Chemscore.Hbond.Weighted>
-5.8356

> <Gold.Chemscore.Metal.Weighted>
-0.0000

> <Gold.Chemscore.Lipo.Weighted>
-9.6302

> <Gold.Chemscore.Internal_Hbond.Weighted>
0.0000

> <Gold.Chemscore.DEClash.Weighted>
0.0354

> <Gold.Chemscore.DEInternal.Weighted>
2.4877

> <Gold.Chemscore.Rot.Weighted>
4.1950

> <Gold.Chemscore.Internal.Correction.Weighted>
   9.000000E+99

> <Gold.Protein.RotatedTorsions>
[ 6907 6896 6895 6894 ] final -125.91 input  -60.11 | X-H torsion
[ 7974 7965 7964 7962 ] final -141.58 input  175.53 | X-H torsion
[ 8008 7997 7996 7995 ] final -154.95 input   59.86 | X-H torsion
[ 10167 10162 10161 10158 ] final -178.83 input  -65.29 | X-H torsion
[ 10718 10713 10712 10709 ] final  155.28 input   66.30 | X-H torsion
[ 10763 10752 10751 10750 ] final -156.23 input  -60.55 | X-H torsion
[ 11005 11000 10999 10996 ] final -137.62 input  -57.11 | X-H torsion

> <Gold.Protein.ActiveResidues>
 VAL166  LYS551  ARG553  GLY616  TRP617  ASP618  TYR619  PRO620  LYS621  CYS622 
 ASP623  PHE694  ASN695  SER759  ASP760  ASP761  ALA762  ILE779  LEU786  VAL792 
 PHE793  MET794  SER795  GLU796  ALA797  LYS798  CYS799  TRP800  GLU811  SER814 

> <Gold.Protein.RotatedAtoms>
  150.8915  133.7237  159.2903 H   0  0  0  0  0  0  0  0  0  0  0  0  # atno 6907 bound_to 6896
  151.4785  135.1049  159.9781 H   0  0  0  0  0  0  0  0  0  0  0  0  # atno 6908 bound_to 6896
  152.4823  133.8238  159.7122 H   0  0  0  0  0  0  0  0  0  0  0  0  # atno 6909 bound_to 6896
  144.8508  140.6062  143.5391 H   0  0  0  0  0  0  0  0  0  0  0  0  # atno 7974 bound_to 7965
  155.6943  140.0759  157.2436 H   0  0  0  0  0  0  0  0  0  0  0  0  # atno 8008 bound_to 7997
  154.4083  140.1659  156.2173 H   0  0  0  0  0  0  0  0  0  0  0  0  # atno 8009 bound_to 7997
  155.9424  140.3383  155.6341 H   0  0  0  0  0  0  0  0  0  0  0  0  # atno 8010 bound_to 7997
  139.5414  144.2353  152.0902 H   0  0  0  0  0  0  0  0  0  0  0  0  # atno 10167 bound_to 10162
  157.2204  131.0717  151.1915 H   0  0  0  0  0  0  0  0  0  0  0  0  # atno 10718 bound_to 10713
  154.7728  135.3150  154.8154 H   0  0  0  0  0  0  0  0  0  0  0  0  # atno 10763 bound_to 10752
  153.8885  135.6828  153.4766 H   0  0  0  0  0  0  0  0  0  0  0  0  # atno 10764 bound_to 10752
  153.1346  135.4765  154.9336 H   0  0  0  0  0  0  0  0  0  0  0  0  # atno 10765 bound_to 10752
  140.8694  134.2070  157.4660 H   0  0  0  0  0  0  0  0  0  0  0  0  # atno 11005 bound_to 11000
  145.4503  139.1524  143.3922 LP  0  0  0  0  0  0  0  0  0  0  0  0  # atno 17320 bound_to 7965
  146.2783  140.4629  142.8786 LP  0  0  0  0  0  0  0  0  0  0  0  0  # atno 17321 bound_to 7965
  140.1832  144.4824  150.6517 LP  0  0  0  0  0  0  0  0  0  0  0  0  # atno 17342 bound_to 10162
  140.6645  143.2263  151.5776 LP  0  0  0  0  0  0  0  0  0  0  0  0  # atno 17343 bound_to 10162
  157.3581  130.7117  149.6484 LP  0  0  0  0  0  0  0  0  0  0  0  0  # atno 17370 bound_to 10713
  155.9683  130.4233  150.4557 LP  0  0  0  0  0  0  0  0  0  0  0  0  # atno 17371 bound_to 10713
  139.8711  134.9767  156.4931 LP  0  0  0  0  0  0  0  0  0  0  0  0  # atno 17394 bound_to 11000
  140.8591  133.8073  155.9246 LP  0  0  0  0  0  0  0  0  0  0  0  0  # atno 17395 bound_to 11000

$$$$
