AV-unprocessed.smi:3347|AV-procd|sdf|12913|dock1
  -GOLD-   2272019323D 1   1.00000     0.00000
 Structure written by MMmdl.
 40 42  0  0  0  0  0  0  0  0  2 V2000
  150.4429  134.7234  155.7076 O   0  0  0  0  0  0  0  0  0  0  0  0
  149.8164  135.2290  154.7767 C   0  0  0  0  0  0  0  0  0  0  0  0
  148.9221  134.5568  154.0373 N   0  0  0  0  0  0  0  0  0  0  0  0
  148.5713  133.1497  154.2056 C   0  0  0  0  0  0  0  0  0  0  0  0
  147.3436  132.7537  153.3626 C   0  0  2  0  0  0  0  0  0  0  0  0
  147.1545  131.2527  153.1461 C   0  0  0  0  0  0  0  0  0  0  0  0
  146.2332  131.2046  151.9314 C   0  0  0  0  0  0  0  0  0  0  0  0
  146.6496  132.3365  151.0765 N   0  3  1  0  0  0  0  0  0  0  0  0
  145.5466  132.9287  150.2897 C   0  0  0  0  0  0  0  0  0  0  0  0
  144.2488  133.0357  151.0541 C   0  0  0  0  0  0  0  0  0  0  0  0
  144.4232  131.9614  150.0022 C   0  0  0  0  0  0  0  0  0  0  0  0
  147.3740  133.3075  151.9305 C   0  0  0  0  0  0  0  0  0  0  0  0
  149.9096  136.5095  154.3791 N   0  0  0  0  0  0  0  0  0  0  0  0
  150.7293  137.5448  154.9050 C   0  0  0  0  0  0  0  0  0  0  0  0
  151.6686  137.3684  155.9500 C   0  0  0  0  0  0  0  0  0  0  0  0
  152.4335  138.4737  156.3700 C   0  0  0  0  0  0  0  0  0  0  0  0
  152.2384  139.7111  155.7265 C   0  0  0  0  0  0  0  0  0  0  0  0
  151.3573  139.8906  154.7202 N   0  0  0  0  0  0  0  0  0  0  0  0
  150.6277  138.8265  154.3227 C   0  0  0  0  0  0  0  0  0  0  0  0
  148.4528  135.0552  153.2950 H   0  0  0  0  0  0  0  0  0  0  0  0
  149.4319  132.5570  153.8943 H   0  0  0  0  0  0  0  0  0  0  0  0
  148.4074  132.9153  155.2589 H   0  0  0  0  0  0  0  0  0  0  0  0
  146.4447  133.1368  153.8491 H   0  0  0  0  0  0  0  0  0  0  0  0
  148.1084  130.7795  152.9081 H   0  0  0  0  0  0  0  0  0  0  0  0
  146.7320  130.7455  154.0141 H   0  0  0  0  0  0  0  0  0  0  0  0
  146.2921  130.2562  151.3967 H   0  0  0  0  0  0  0  0  0  0  0  0
  145.2002  131.3440  152.2552 H   0  0  0  0  0  0  0  0  0  0  0  0
  145.8234  133.6867  149.5589 H   0  0  0  0  0  0  0  0  0  0  0  0
  144.2372  132.7215  152.0964 H   0  0  0  0  0  0  0  0  0  0  0  0
  143.5910  133.8680  150.8121 H   0  0  0  0  0  0  0  0  0  0  0  0
  143.8802  132.0865  149.0674 H   0  0  0  0  0  0  0  0  0  0  0  0
  144.5271  130.9336  150.3454 H   0  0  0  0  0  0  0  0  0  0  0  0
  146.9447  134.3095  151.8833 H   0  0  0  0  0  0  0  0  0  0  0  0
  148.3979  133.3745  151.5607 H   0  0  0  0  0  0  0  0  0  0  0  0
  149.2755  136.7935  153.6467 H   0  0  0  0  0  0  0  0  0  0  0  0
  151.8285  136.4139  156.4262 H   0  0  0  0  0  0  0  0  0  0  0  0
  153.1573  138.3734  157.1651 H   0  0  0  0  0  0  0  0  0  0  0  0
  152.8097  140.5780  156.0241 H   0  0  0  0  0  0  0  0  0  0  0  0
  149.9348  139.0068  153.5138 H   0  0  0  0  0  0  0  0  0  0  0  0
  147.3281  131.9742  150.4217 H   0  0  0  0  0  0  0  0  0  0  0  0
  1  2  2  0  0  0  0
  2  3  1  0  0  0  0
  2 13  1  0  0  0  0
  3  4  1  0  0  0  0
  3 20  1  0  0  0  0
  4  5  1  0  0  0  0
  4 21  1  0  0  0  0
  4 22  1  0  0  0  0
  5 12  1  0  0  0  0
  5  6  1  0  0  0  0
  5 23  1  0  0  0  0
  6  7  1  0  0  0  0
  6 24  1  0  0  0  0
  6 25  1  0  0  0  0
  7  8  1  0  0  0  0
  7 26  1  0  0  0  0
  7 27  1  0  0  0  0
  8  9  1  0  0  0  0
  8 12  1  0  0  0  0
  8 40  1  0  0  0  0
  9 11  1  0  0  0  0
  9 10  1  0  0  0  0
  9 28  1  0  0  0  0
 10 11  1  0  0  0  0
 10 29  1  0  0  0  0
 10 30  1  0  0  0  0
 11 31  1  0  0  0  0
 11 32  1  0  0  0  0
 12 33  1  0  0  0  0
 12 34  1  0  0  0  0
 13 14  1  0  0  0  0
 13 35  1  0  0  0  0
 14 19  1  0  0  0  0
 14 15  2  0  0  0  0
 15 16  1  0  0  0  0
 15 36  1  0  0  0  0
 16 17  2  0  0  0  0
 16 37  1  0  0  0  0
 17 18  1  0  0  0  0
 17 38  1  0  0  0  0
 18 19  2  0  0  0  0
 19 39  1  0  0  0  0
M  CHG  1   8   1
M  END
> <s_m_source_file>
AV-unprocessed.smi

> <i_m_source_file_index>
3347

> <i_lp_mmshare_version>
43012

> <i_f3d_flags>
0

> <s_epik_input>
W2NIXTFuW2NIXVtjSF1bY0hdYzFbTkhdQyg9TylbTkhdW0NIMl1bQ0BASF0yW0NIMl1bQ0gyXU4oW0NIMl0yKVtDSF0zW0NIMl1bQ0gyXTM=

> <s_epik_cmdline>
J2VwaWtfcHl0aG9uJywgJy1waCcsICc3LjAnLCAnLXRuJywgJzgnLCAnLW1hJywgJzIwMCcsICctbWV0YWxfYmluZGluZycsICctaW1hZScsICc8aW5maWxlLm1hZT4nLCAnLW9tYWUnLCAnPG91dGZpbGUubWFlPic=

> <r_epik_Ionization_Penalty>
0.00442629

> <r_epik_Ionization_Penalty_Charging>
0.000203384

> <r_epik_Ionization_Penalty_Neutral>
0.00422291

> <r_epik_State_Penalty>
0.00301008

> <r_epik_Charging_Adjusted_Penalty>
0.00321347

> <i_epik_Tot_Q>
1

> <i_epik_Tot_abs_Q>
1

> <r_epik_Metal_State_Penalty>
-0

> <b_epik_Metal_Only>
0

> <s_lp_Force_Field>
OPLS_2005

> <r_lp_Energy>
40.4553

> <b_lp_Chiralities_Consistent>
1

> <s_lp_Variant>
AV-unprocessed.smi:3347-3

> <Gold.Version>
5.8.1

> <Gold.Id.Protein>
6NUR|6NUR_protein|mol2

> <Gold.PLP.Fitness>
48.4790

> <Gold.PLP.PLP>
-35.4447

> <Gold.PLP.part.hbond>
-4.3689

> <Gold.PLP.part.metal>
0.0000

> <Gold.PLP.part.buried>
-4.1009

> <Gold.PLP.part.nonpolar>
-27.5271

> <Gold.PLP.part.repulsive>
0.2057

> <Gold.PLP.ligand.clash>
0.0000

> <Gold.PLP.ligand.torsion>
0.8134

> <Gold.PLP.Chemscore.Hbond>
3.4880

> <Gold.PLP.Chemscore.CHOScore>
0.9796

> <Gold.PLP.Chemscore.Metal>
0.0000

> <Gold.Chemscore.Hbonds>
donor molecule, donor type, donor heavy atom, donor atom, acceptor molecule, acceptor atom, score
      L1  H     3    20       P1  7948  0.72
      L1  H     8    40       P1 10747  0.88
      L1  H    13    35       P1  7948  0.67
      P1  H  7989  7998       L1    18  1.00
      L1  C    19    39       P1  7957  0.87

> <Gold.PLP.Chemscore.Internal.Correction>
1.2582

> <Gold.Rescore>
     Score         DG    S(hbond)    S(metal)    S(lipo)     H(rot)  DE(clash)    DE(int)     intcor
     20.99     -23.03       3.22        0.00      89.30       1.42       0.02       2.03       ----

> <Gold.Chemscore.Fitness>
20.9894

> <Gold.Chemscore.DG>
-23.0329

> <Gold.Chemscore.ZeroCoef>
-5.4800

> <Gold.Chemscore.Hbond>
3.2171

> <Gold.Chemscore.Metal>
0.0000

> <Gold.Chemscore.Lipo>
89.2973

> <Gold.Chemscore.Internal_Hbond>
0.0000

> <Gold.Chemscore.DEClash>
0.0162

> <Gold.Chemscore.DEInternal>
2.0272

> <Gold.Chemscore.Rot>
1.4219

> <Gold.Chemscore.Internal.Correction>
   9.000000E+99

> <Gold.Chemscore.Hbonds>
donor molecule, donor type, donor heavy atom, donor atom, acceptor molecule, acceptor atom, score
      L1  H     3    20       P1  7948  0.61
      L1  H     8    40       P1 10747  0.84
      L1  H    13    35       P1  7948  0.66
      P1  H  7989  7998       L1    18  0.76

> <Gold.Chemscore.Hbond.Weighted>
-10.7452

> <Gold.Chemscore.Metal.Weighted>
-0.0000

> <Gold.Chemscore.Lipo.Weighted>
-10.4478

> <Gold.Chemscore.Internal_Hbond.Weighted>
0.0000

> <Gold.Chemscore.DEClash.Weighted>
0.0162

> <Gold.Chemscore.DEInternal.Weighted>
2.0272

> <Gold.Chemscore.Rot.Weighted>
3.6401

> <Gold.Chemscore.Internal.Correction.Weighted>
   9.000000E+99

> <Gold.Protein.RotatedTorsions>
[ 6907 6896 6895 6894 ] final   91.50 input  -60.11 | X-H torsion
[ 7974 7965 7964 7962 ] final   89.26 input  175.53 | X-H torsion
[ 8008 7997 7996 7995 ] final  -52.34 input   59.86 | X-H torsion
[ 10167 10162 10161 10158 ] final  -51.29 input  -65.29 | X-H torsion
[ 10718 10713 10712 10709 ] final  113.08 input   66.30 | X-H torsion
[ 10763 10752 10751 10750 ] final  157.69 input  -60.55 | X-H torsion
[ 11005 11000 10999 10996 ] final   98.75 input  -57.11 | X-H torsion

> <Gold.Protein.ActiveResidues>
 VAL166  LYS551  ARG553  GLY616  TRP617  ASP618  TYR619  PRO620  LYS621  CYS622 
 ASP623  PHE694  ASN695  SER759  ASP760  ASP761  ALA762  ILE779  LEU786  VAL792 
 PHE793  MET794  SER795  GLU796  ALA797  LYS798  CYS799  TRP800  GLU811  SER814 

> <Gold.Protein.RotatedAtoms>
  152.5450  134.1647  159.8571 H   0  0  0  0  0  0  0  0  0  0  0  0  # atno 6907 bound_to 6896
  151.1662  133.4806  159.2601 H   0  0  0  0  0  0  0  0  0  0  0  0  # atno 6908 bound_to 6896
  151.1322  135.0147  159.8642 H   0  0  0  0  0  0  0  0  0  0  0  0  # atno 6909 bound_to 6896
  145.5348  139.2285  143.2599 H   0  0  0  0  0  0  0  0  0  0  0  0  # atno 7974 bound_to 7965
  154.4104  140.1226  156.4975 H   0  0  0  0  0  0  0  0  0  0  0  0  # atno 8008 bound_to 7997
  155.6928  140.3495  155.4881 H   0  0  0  0  0  0  0  0  0  0  0  0  # atno 8009 bound_to 7997
  155.9454  140.1095  157.1011 H   0  0  0  0  0  0  0  0  0  0  0  0  # atno 8010 bound_to 7997
  140.6596  143.2625  151.4482 H   0  0  0  0  0  0  0  0  0  0  0  0  # atno 10167 bound_to 10162
  157.6357  131.0978  150.6989 H   0  0  0  0  0  0  0  0  0  0  0  0  # atno 10718 bound_to 10713
  154.2043  135.2789  155.2980 H   0  0  0  0  0  0  0  0  0  0  0  0  # atno 10763 bound_to 10752
  154.5829  135.5584  153.7206 H   0  0  0  0  0  0  0  0  0  0  0  0  # atno 10764 bound_to 10752
  153.0080  135.6349  154.2182 H   0  0  0  0  0  0  0  0  0  0  0  0  # atno 10765 bound_to 10752
  139.8772  134.9063  156.4502 H   0  0  0  0  0  0  0  0  0  0  0  0  # atno 11005 bound_to 11000
  146.2020  140.6166  142.9098 LP  0  0  0  0  0  0  0  0  0  0  0  0  # atno 17320 bound_to 7965
  144.7607  140.5415  143.6737 LP  0  0  0  0  0  0  0  0  0  0  0  0  # atno 17321 bound_to 7965
  139.5826  144.1675  152.1988 LP  0  0  0  0  0  0  0  0  0  0  0  0  # atno 17342 bound_to 10162
  140.1005  144.5543  150.6992 LP  0  0  0  0  0  0  0  0  0  0  0  0  # atno 17343 bound_to 10162
  156.7321  130.4713  149.5497 LP  0  0  0  0  0  0  0  0  0  0  0  0  # atno 17370 bound_to 10713
  156.1595  130.6364  151.0701 LP  0  0  0  0  0  0  0  0  0  0  0  0  # atno 17371 bound_to 10713
  140.8937  133.7830  155.9601 LP  0  0  0  0  0  0  0  0  0  0  0  0  # atno 17394 bound_to 11000
  140.8726  134.2708  157.5183 LP  0  0  0  0  0  0  0  0  0  0  0  0  # atno 17395 bound_to 11000

$$$$
