AV-unprocessed.smi:848|AV-procd|sdf|3941|dock10
  -GOLD-   22720 1413D 1   1.00000     0.00000
 Structure written by MMmdl.
 47 49  0  0  0  0  0  0  0  0  2 V2000
  153.8816  141.1565  160.5711 C   0  0  0  0  0  0  0  0  0  0  0  0
  152.8863  141.8336  159.6515 C   0  0  0  0  0  0  0  0  0  0  0  0
  152.6714  143.2235  159.7362 C   0  0  0  0  0  0  0  0  0  0  0  0
  151.7439  143.8478  158.8801 C   0  0  0  0  0  0  0  0  0  0  0  0
  151.5184  145.3427  158.9774 C   0  0  0  0  0  0  0  0  0  0  0  0
  151.0312  143.0766  157.9393 C   0  0  0  0  0  0  0  0  0  0  0  0
  151.2340  141.6847  157.8414 C   0  0  0  0  0  0  0  0  0  0  0  0
  150.4919  141.0103  156.8953 O   0  0  0  0  0  0  0  0  0  0  0  0
  150.0405  141.7290  155.7548 C   0  0  0  0  0  0  0  0  0  0  0  0
  149.3223  140.7600  154.8041 C   0  0  2  0  0  0  0  0  0  0  0  0
  150.2809  140.1989  153.9294 O   0  0  0  0  0  0  0  0  0  0  0  0
  148.2017  141.4451  153.9957 C   0  0  0  0  0  0  0  0  0  0  0  0
  146.8616  140.9469  154.3450 N   0  0  0  0  0  0  0  0  0  0  0  0
  146.3525  139.6833  154.2730 C   0  0  0  0  0  0  0  0  0  0  0  0
  147.0645  138.4547  153.8119 C   0  0  0  0  0  0  0  0  0  0  0  0
  147.6528  138.6229  152.5413 O   0  0  0  0  0  0  0  0  0  0  0  0
  145.0647  139.7402  154.7146 N   0  3  0  0  0  0  0  0  0  0  0  0
  144.7445  141.0510  155.0697 C   0  0  0  0  0  0  0  0  0  0  0  0
  143.5647  141.5971  155.5659 C   0  0  0  0  0  0  0  0  0  0  0  0
  143.5690  142.9832  155.8255 C   0  0  0  0  0  0  0  0  0  0  0  0
  144.7156  143.7699  155.5928 C   0  0  0  0  0  0  0  0  0  0  0  0
  145.9068  143.2047  155.0918 C   0  0  0  0  0  0  0  0  0  0  0  0
  145.8947  141.8332  154.8361 C   0  0  0  0  0  0  0  0  0  0  0  0
  152.1717  141.0678  158.7076 C   0  0  0  0  0  0  0  0  0  0  0  0
  154.3552  141.8731  161.2429 H   0  0  0  0  0  0  0  0  0  0  0  0
  154.6630  140.6682  159.9884 H   0  0  0  0  0  0  0  0  0  0  0  0
  153.3821  140.4006  161.1775 H   0  0  0  0  0  0  0  0  0  0  0  0
  153.2170  143.8141  160.4580 H   0  0  0  0  0  0  0  0  0  0  0  0
  150.7792  145.6832  158.2518 H   0  0  0  0  0  0  0  0  0  0  0  0
  152.4499  145.8777  158.7912 H   0  0  0  0  0  0  0  0  0  0  0  0
  151.1644  145.6070  159.9741 H   0  0  0  0  0  0  0  0  0  0  0  0
  150.3187  143.5541  157.2825 H   0  0  0  0  0  0  0  0  0  0  0  0
  149.3670  142.5359  156.0490 H   0  0  0  0  0  0  0  0  0  0  0  0
  150.8972  142.1713  155.2427 H   0  0  0  0  0  0  0  0  0  0  0  0
  148.9010  139.9415  155.3886 H   0  0  0  0  0  0  0  0  0  0  0  0
  149.8949  140.1224  153.0704 H   0  0  0  0  0  0  0  0  0  0  0  0
  148.2039  142.5180  154.1914 H   0  0  0  0  0  0  0  0  0  0  0  0
  148.3616  141.3367  152.9230 H   0  0  0  0  0  0  0  0  0  0  0  0
  147.8407  138.1933  154.5316 H   0  0  0  0  0  0  0  0  0  0  0  0
  146.3677  137.6173  153.7748 H   0  0  0  0  0  0  0  0  0  0  0  0
  147.9975  137.7902  152.2563 H   0  0  0  0  0  0  0  0  0  0  0  0
  142.6849  140.9963  155.7447 H   0  0  0  0  0  0  0  0  0  0  0  0
  142.6746  143.4526  156.2095 H   0  0  0  0  0  0  0  0  0  0  0  0
  144.6810  144.8291  155.8021 H   0  0  0  0  0  0  0  0  0  0  0  0
  146.7767  143.8193  154.9155 H   0  0  0  0  0  0  0  0  0  0  0  0
  152.3590  140.0053  158.6682 H   0  0  0  0  0  0  0  0  0  0  0  0
  144.4526  138.9365  154.7707 H   0  0  0  0  0  0  0  0  0  0  0  0
  1  2  1  0  0  0  0
  1 25  1  0  0  0  0
  1 26  1  0  0  0  0
  1 27  1  0  0  0  0
  2 24  1  0  0  0  0
  2  3  2  0  0  0  0
  3  4  1  0  0  0  0
  3 28  1  0  0  0  0
  4  5  1  0  0  0  0
  4  6  2  0  0  0  0
  5 29  1  0  0  0  0
  5 30  1  0  0  0  0
  5 31  1  0  0  0  0
  6  7  1  0  0  0  0
  6 32  1  0  0  0  0
  7  8  1  0  0  0  0
  7 24  2  0  0  0  0
  8  9  1  0  0  0  0
  9 10  1  0  0  0  0
  9 33  1  0  0  0  0
  9 34  1  0  0  0  0
 10 11  1  0  0  0  0
 10 12  1  0  0  0  0
 10 35  1  0  0  0  0
 11 36  1  0  0  0  0
 12 13  1  0  0  0  0
 12 37  1  0  0  0  0
 12 38  1  0  0  0  0
 13 23  1  0  0  0  0
 13 14  1  0  0  0  0
 14 15  1  0  0  0  0
 14 17  2  0  0  0  0
 15 16  1  0  0  0  0
 15 39  1  0  0  0  0
 15 40  1  0  0  0  0
 16 41  1  0  0  0  0
 17 18  1  0  0  0  0
 17 47  1  0  0  0  0
 18 23  2  0  0  0  0
 18 19  1  0  0  0  0
 19 20  2  0  0  0  0
 19 42  1  0  0  0  0
 20 21  1  0  0  0  0
 20 43  1  0  0  0  0
 21 22  2  0  0  0  0
 21 44  1  0  0  0  0
 22 23  1  0  0  0  0
 22 45  1  0  0  0  0
 24 46  1  0  0  0  0
M  CHG  1  17   1
M  END
> <s_m_source_file>
AV-unprocessed.smi

> <i_m_source_file_index>
848

> <i_lp_mmshare_version>
43012

> <i_f3d_flags>
0

> <s_epik_input>
W0NIM11jMVtjSF1jKFtDSDNdKVtjSF1jKFtjSF0xKU9bQ0gyXVtDQEhdKFtPSF0pW0NIMl1uKGMobjIpW0NIMl1bT0hdKWMoYzIzKVtjSF1bY0hdW2NIXVtjSF0z

> <s_epik_cmdline>
J2VwaWtfcHl0aG9uJywgJy1waCcsICc3LjAnLCAnLXRuJywgJzgnLCAnLW1hJywgJzIwMCcsICctbWV0YWxfYmluZGluZycsICctaW1hZScsICc8aW5maWxlLm1hZT4nLCAnLW9tYWUnLCAnPG91dGZpbGUubWFlPic=

> <r_lp_tautomer_probability>
1

> <r_epik_Ionization_Penalty>
1.43292

> <r_epik_Ionization_Penalty_Charging>
1.43206

> <r_epik_Ionization_Penalty_Neutral>
0.000858184

> <r_epik_State_Penalty>
1.51673

> <r_epik_Charging_Adjusted_Penalty>
2.94879

> <i_epik_Tot_Q>
1

> <i_epik_Tot_abs_Q>
1

> <r_epik_Metal_State_Penalty>
5.56186

> <b_epik_Metal_Only>
0

> <s_lp_Force_Field>
OPLS_2005

> <r_lp_Energy>
18.3298

> <b_lp_Chiralities_Consistent>
1

> <s_lp_Variant>
AV-unprocessed.smi:848-3

> <Gold.Version>
5.8.1

> <Gold.Id.Protein>
6NUR|6NUR_protein|mol2

> <Gold.PLP.Fitness>
54.2141

> <Gold.PLP.PLP>
-48.5063

> <Gold.PLP.part.hbond>
-4.7639

> <Gold.PLP.part.metal>
0.0000

> <Gold.PLP.part.buried>
-4.6162

> <Gold.PLP.part.nonpolar>
-39.2953

> <Gold.PLP.part.repulsive>
0.0356

> <Gold.PLP.ligand.clash>
0.0000

> <Gold.PLP.ligand.torsion>
1.5179

> <Gold.PLP.Chemscore.Hbond>
2.8960

> <Gold.PLP.Chemscore.CHOScore>
0.0000

> <Gold.PLP.Chemscore.Metal>
0.0000

> <Gold.Chemscore.Hbonds>
donor molecule, donor type, donor heavy atom, donor atom, acceptor molecule, acceptor atom, score
      L1  H    11    36       P1  7957  1.00
      L1  H    16    41       P1  7948  1.00
      P1  H  7989  7998       L1    11  0.72

> <Gold.PLP.Chemscore.Internal.Correction>
0.0556

> <Gold.Rescore>
     Score         DG    S(hbond)    S(metal)    S(lipo)     H(rot)  DE(clash)    DE(int)     intcor
     19.10     -20.63       2.49        0.00     125.09       3.05       0.08       1.46       ----

> <Gold.Chemscore.Fitness>
19.0962

> <Gold.Chemscore.DG>
-20.6284

> <Gold.Chemscore.ZeroCoef>
-5.4800

> <Gold.Chemscore.Hbond>
2.4895

> <Gold.Chemscore.Metal>
0.0000

> <Gold.Chemscore.Lipo>
125.0873

> <Gold.Chemscore.Internal_Hbond>
0.0000

> <Gold.Chemscore.DEClash>
0.0771

> <Gold.Chemscore.DEInternal>
1.4551

> <Gold.Chemscore.Rot>
3.0476

> <Gold.Chemscore.Internal.Correction>
   9.000000E+99

> <Gold.Chemscore.Hbonds>
donor molecule, donor type, donor heavy atom, donor atom, acceptor molecule, acceptor atom, score
      L1  H    11    36       P1  7957  0.99
      L1  H    16    41       P1  7948  1.00
      P1  H  7989  7998       L1    11  0.10

> <Gold.Chemscore.Hbond.Weighted>
-8.3150

> <Gold.Chemscore.Metal.Weighted>
-0.0000

> <Gold.Chemscore.Lipo.Weighted>
-14.6352

> <Gold.Chemscore.Internal_Hbond.Weighted>
0.0000

> <Gold.Chemscore.DEClash.Weighted>
0.0771

> <Gold.Chemscore.DEInternal.Weighted>
1.4551

> <Gold.Chemscore.Rot.Weighted>
7.8018

> <Gold.Chemscore.Internal.Correction.Weighted>
   9.000000E+99

> <Gold.Protein.RotatedTorsions>
[ 6907 6896 6895 6894 ] final -121.64 input  -60.11 | X-H torsion
[ 7974 7965 7964 7962 ] final -143.20 input  175.53 | X-H torsion
[ 8008 7997 7996 7995 ] final   27.29 input   59.86 | X-H torsion
[ 10167 10162 10161 10158 ] final   -5.23 input  -65.29 | X-H torsion
[ 10718 10713 10712 10709 ] final  160.10 input   66.30 | X-H torsion
[ 10763 10752 10751 10750 ] final  -28.14 input  -60.55 | X-H torsion
[ 11005 11000 10999 10996 ] final  142.62 input  -57.11 | X-H torsion

> <Gold.Protein.ActiveResidues>
 VAL166  LYS551  ARG553  GLY616  TRP617  ASP618  TYR619  PRO620  LYS621  CYS622 
 ASP623  PHE694  ASN695  SER759  ASP760  ASP761  ALA762  ILE779  LEU786  VAL792 
 PHE793  MET794  SER795  GLU796  ALA797  LYS798  CYS799  TRP800  GLU811  SER814 

> <Gold.Protein.RotatedAtoms>
  150.8502  133.7799  159.3028 H   0  0  0  0  0  0  0  0  0  0  0  0  # atno 6907 bound_to 6896
  151.5473  135.1066  159.9951 H   0  0  0  0  0  0  0  0  0  0  0  0  # atno 6908 bound_to 6896
  152.4546  133.7654  159.6826 H   0  0  0  0  0  0  0  0  0  0  0  0  # atno 6909 bound_to 6896
  144.8387  140.5864  143.5467 H   0  0  0  0  0  0  0  0  0  0  0  0  # atno 7974 bound_to 7965
  155.0406  140.3169  155.4726 H   0  0  0  0  0  0  0  0  0  0  0  0  # atno 8008 bound_to 7997
  156.2855  140.2163  156.5473 H   0  0  0  0  0  0  0  0  0  0  0  0  # atno 8009 bound_to 7997
  154.7293  140.0483  157.0699 H   0  0  0  0  0  0  0  0  0  0  0  0  # atno 8010 bound_to 7997
  140.6956  143.6333  150.8503 H   0  0  0  0  0  0  0  0  0  0  0  0  # atno 10167 bound_to 10162
  157.1550  131.0573  151.2261 H   0  0  0  0  0  0  0  0  0  0  0  0  # atno 10718 bound_to 10713
  153.7434  135.6931  153.4962 H   0  0  0  0  0  0  0  0  0  0  0  0  # atno 10763 bound_to 10752
  153.2053  135.4422  155.0314 H   0  0  0  0  0  0  0  0  0  0  0  0  # atno 10764 bound_to 10752
  154.8212  135.3423  154.6959 H   0  0  0  0  0  0  0  0  0  0  0  0  # atno 10765 bound_to 10752
  140.0491  134.9265  157.0984 H   0  0  0  0  0  0  0  0  0  0  0  0  # atno 11005 bound_to 11000
  145.4740  139.1501  143.3798 LP  0  0  0  0  0  0  0  0  0  0  0  0  # atno 17320 bound_to 7965
  146.2682  140.4874  142.8825 LP  0  0  0  0  0  0  0  0  0  0  0  0  # atno 17321 bound_to 7965
  140.0050  143.5703  152.2861 LP  0  0  0  0  0  0  0  0  0  0  0  0  # atno 17342 bound_to 10162
  139.6406  144.7654  151.2346 LP  0  0  0  0  0  0  0  0  0  0  0  0  # atno 17343 bound_to 10162
  157.4185  130.7424  149.6894 LP  0  0  0  0  0  0  0  0  0  0  0  0  # atno 17370 bound_to 10713
  155.9763  130.4076  150.3785 LP  0  0  0  0  0  0  0  0  0  0  0  0  # atno 17371 bound_to 10713
  140.3946  134.2148  155.7165 LP  0  0  0  0  0  0  0  0  0  0  0  0  # atno 17394 bound_to 11000
  141.1921  133.8179  157.0851 LP  0  0  0  0  0  0  0  0  0  0  0  0  # atno 17395 bound_to 11000

$$$$
