AV-unprocessed.smi:2344|AV-procd|sdf|9360|dock10
  -GOLD-   2272012583D 1   1.00000     0.00000
 Structure written by MMmdl.
 35 36  0  0  0  0  0  0  0  0  1 V2000
  154.1009  143.6627  164.3254 C   0  0  0  0  0  0  0  0  0  0  0  0
  153.5797  143.0722  163.0321 C   0  0  0  0  0  0  0  0  0  0  0  0
  152.6304  143.7567  162.2500 C   0  0  0  0  0  0  0  0  0  0  0  0
  152.1805  143.1627  161.0551 C   0  0  0  0  0  0  0  0  0  0  0  0
  152.6893  141.9020  160.6701 C   0  0  0  0  0  0  0  0  0  0  0  0
  152.1692  141.3906  159.4515 N   0  0  0  0  0  0  0  0  0  0  0  0
  152.7050  140.4575  158.6452 C   0  0  0  0  0  0  0  0  0  0  0  0
  153.7743  139.8773  158.8365 O   0  0  0  0  0  0  0  0  0  0  0  0
  151.9232  140.2311  157.5801 N   0  0  0  0  0  0  0  0  0  0  0  0
  152.2336  139.3009  156.5007 C   0  0  1  0  0  0  0  0  0  0  0  0
  151.4229  138.0413  156.6470 C   0  0  0  0  0  0  0  0  0  0  0  0
  150.6474  137.8019  155.5918 C   0  0  0  0  0  0  0  0  0  0  0  0
  150.7730  138.8615  154.5278 C   0  0  1  0  0  0  0  0  0  0  0  0
  149.4248  139.5114  154.1613 C   0  0  0  0  0  0  0  0  0  0  0  0
  149.6016  140.7670  153.5343 O   0  0  0  0  0  0  0  0  0  0  0  0
  151.8197  139.8471  155.1080 C   0  0  0  0  0  0  0  0  0  0  0  0
  153.6053  141.2512  161.4298 N   0  0  0  0  0  0  0  0  0  0  0  0
  154.0362  141.8209  162.5745 C   0  0  0  0  0  0  0  0  0  0  0  0
  153.2928  139.0382  156.5184 H   0  0  0  0  0  0  0  0  0  0  0  0
  151.1851  138.3839  153.6380 H   0  0  0  0  0  0  0  0  0  0  0  0
  153.4171  144.4172  164.7151 H   0  0  0  0  0  0  0  0  0  0  0  0
  155.0716  144.1305  164.1608 H   0  0  0  0  0  0  0  0  0  0  0  0
  154.2168  142.8871  165.0829 H   0  0  0  0  0  0  0  0  0  0  0  0
  152.2512  144.7203  162.5569 H   0  0  0  0  0  0  0  0  0  0  0  0
  151.4516  143.6742  160.4432 H   0  0  0  0  0  0  0  0  0  0  0  0
  151.2877  141.7842  159.1573 H   0  0  0  0  0  0  0  0  0  0  0  0
  151.0628  140.7525  157.4974 H   0  0  0  0  0  0  0  0  0  0  0  0
  151.4916  137.4115  157.5219 H   0  0  0  0  0  0  0  0  0  0  0  0
  149.9906  136.9515  155.4828 H   0  0  0  0  0  0  0  0  0  0  0  0
  148.8615  138.8599  153.4928 H   0  0  0  0  0  0  0  0  0  0  0  0
  148.8179  139.6509  155.0564 H   0  0  0  0  0  0  0  0  0  0  0  0
  149.3672  140.6831  152.6225 H   0  0  0  0  0  0  0  0  0  0  0  0
  151.4215  140.8610  155.1724 H   0  0  0  0  0  0  0  0  0  0  0  0
  152.6900  139.9010  154.4530 H   0  0  0  0  0  0  0  0  0  0  0  0
  154.7660  141.2604  163.1402 H   0  0  0  0  0  0  0  0  0  0  0  0
  1  2  1  0  0  0  0
  1 21  1  0  0  0  0
  1 22  1  0  0  0  0
  1 23  1  0  0  0  0
  2 18  1  0  0  0  0
  2  3  2  0  0  0  0
  3  4  1  0  0  0  0
  3 24  1  0  0  0  0
  4  5  2  0  0  0  0
  4 25  1  0  0  0  0
  5  6  1  0  0  0  0
  5 17  1  0  0  0  0
  6  7  1  0  0  0  0
  6 26  1  0  0  0  0
  7  8  2  0  0  0  0
  7  9  1  0  0  0  0
  9 10  1  0  0  0  0
  9 27  1  0  0  0  0
 10 19  1  0  0  0  0
 10 16  1  0  0  0  0
 10 11  1  0  0  0  0
 11 12  2  0  0  0  0
 11 28  1  0  0  0  0
 12 13  1  0  0  0  0
 12 29  1  0  0  0  0
 13 20  1  0  0  0  0
 13 14  1  0  0  0  0
 13 16  1  0  0  0  0
 14 15  1  0  0  0  0
 14 30  1  0  0  0  0
 14 31  1  0  0  0  0
 15 32  1  0  0  0  0
 16 33  1  0  0  0  0
 16 34  1  0  0  0  0
 17 18  2  0  0  0  0
 18 35  1  0  0  0  0
M  END
> <s_m_source_file>
AV-unprocessed.smi

> <i_m_source_file_index>
2344

> <i_lp_mmshare_version>
43012

> <i_f3d_flags>
0

> <s_epik_input>
W0NIM11jMVtjSF1bY0hdYyhuW2NIXTEpW05IXUMoPU8pW05IXVtDQEBIXTJbQ0hdPVtDSF1bQ0BASF0oW0NIMl0yKVtDSDJdW09IXQ==

> <s_epik_cmdline>
J2VwaWtfcHl0aG9uJywgJy1waCcsICc3LjAnLCAnLXRuJywgJzgnLCAnLW1hJywgJzIwMCcsICctbWV0YWxfYmluZGluZycsICctaW1hZScsICc8aW5maWxlLm1hZT4nLCAnLW9tYWUnLCAnPG91dGZpbGUubWFlPic=

> <r_lp_tautomer_probability>
1

> <r_epik_Ionization_Penalty>
5.7643e-05

> <r_epik_Ionization_Penalty_Charging>
0

> <r_epik_Ionization_Penalty_Neutral>
5.7643e-05

> <r_epik_State_Penalty>
-0

> <r_epik_Charging_Adjusted_Penalty>
0

> <i_epik_Tot_Q>
0

> <i_epik_Tot_abs_Q>
0

> <r_epik_Metal_State_Penalty>
-0

> <b_epik_Metal_Only>
0

> <s_lp_Force_Field>
OPLS_2005

> <r_lp_Energy>
18.1017

> <b_lp_Chiralities_Consistent>
1

> <s_lp_Variant>
AV-unprocessed.smi:2344-4

> <Gold.Version>
5.8.1

> <Gold.Id.Protein>
6NUR|6NUR_protein|mol2

> <Gold.PLP.Fitness>
41.8703

> <Gold.PLP.PLP>
-35.8191

> <Gold.PLP.part.hbond>
-3.7174

> <Gold.PLP.part.metal>
0.0000

> <Gold.PLP.part.buried>
-0.5967

> <Gold.PLP.part.nonpolar>
-30.8938

> <Gold.PLP.part.repulsive>
0.2106

> <Gold.PLP.ligand.clash>
0.0000

> <Gold.PLP.ligand.torsion>
0.5327

> <Gold.PLP.Chemscore.Hbond>
2.3680

> <Gold.PLP.Chemscore.CHOScore>
0.0000

> <Gold.PLP.Chemscore.Metal>
0.0000

> <Gold.Chemscore.Hbonds>
donor molecule, donor type, donor heavy atom, donor atom, acceptor molecule, acceptor atom, score
      L1  H    15    32       P1  7957  1.00
      P1  H  7989  7998       L1    15  0.37
      P1  H  7997  8008       L1     8  1.00

> <Gold.PLP.Chemscore.Internal.Correction>
0.0125

> <Gold.Rescore>
     Score         DG    S(hbond)    S(metal)    S(lipo)     H(rot)  DE(clash)    DE(int)     intcor
     14.82     -18.36       1.84        0.00      97.34       1.82       1.84       1.71       ----

> <Gold.Chemscore.Fitness>
14.8210

> <Gold.Chemscore.DG>
-18.3621

> <Gold.Chemscore.ZeroCoef>
-5.4800

> <Gold.Chemscore.Hbond>
1.8408

> <Gold.Chemscore.Metal>
0.0000

> <Gold.Chemscore.Lipo>
97.3402

> <Gold.Chemscore.Internal_Hbond>
0.0000

> <Gold.Chemscore.DEClash>
1.8361

> <Gold.Chemscore.DEInternal>
1.7051

> <Gold.Chemscore.Rot>
1.8184

> <Gold.Chemscore.Internal.Correction>
   9.000000E+99

> <Gold.Chemscore.Hbonds>
donor molecule, donor type, donor heavy atom, donor atom, acceptor molecule, acceptor atom, score
      L1  H    15    32       P1  7957  0.94
      P1  H  7989  7998       L1    15  0.04
      P1  H  7997  8008       L1     8  0.68

> <Gold.Chemscore.Hbond.Weighted>
-6.1484

> <Gold.Chemscore.Metal.Weighted>
-0.0000

> <Gold.Chemscore.Lipo.Weighted>
-11.3888

> <Gold.Chemscore.Internal_Hbond.Weighted>
0.0000

> <Gold.Chemscore.DEClash.Weighted>
1.8361

> <Gold.Chemscore.DEInternal.Weighted>
1.7051

> <Gold.Chemscore.Rot.Weighted>
4.6551

> <Gold.Chemscore.Internal.Correction.Weighted>
   9.000000E+99

> <Gold.Protein.RotatedTorsions>
[ 6907 6896 6895 6894 ] final   68.63 input  -60.11 | X-H torsion
[ 7974 7965 7964 7962 ] final   21.57 input  175.53 | X-H torsion
[ 8008 7997 7996 7995 ] final -106.57 input   59.86 | X-H torsion
[ 10167 10162 10161 10158 ] final  -19.70 input  -65.29 | X-H torsion
[ 10718 10713 10712 10709 ] final   58.62 input   66.30 | X-H torsion
[ 10763 10752 10751 10750 ] final -108.72 input  -60.55 | X-H torsion
[ 11005 11000 10999 10996 ] final  -79.33 input  -57.11 | X-H torsion

> <Gold.Protein.ActiveResidues>
 VAL166  LYS551  ARG553  GLY616  TRP617  ASP618  TYR619  PRO620  LYS621  CYS622 
 ASP623  PHE694  ASN695  SER759  ASP760  ASP761  ALA762  ILE779  LEU786  VAL792 
 PHE793  MET794  SER795  GLU796  ALA797  LYS798  CYS799  TRP800  GLU811  SER814 

> <Gold.Protein.RotatedAtoms>
  152.4633  134.5134  159.9760 H   0  0  0  0  0  0  0  0  0  0  0  0  # atno 6907 bound_to 6896
  151.5178  133.3466  159.2904 H   0  0  0  0  0  0  0  0  0  0  0  0  # atno 6908 bound_to 6896
  150.8606  134.7985  159.7142 H   0  0  0  0  0  0  0  0  0  0  0  0  # atno 6909 bound_to 6896
  146.2066  139.8008  142.8721 H   0  0  0  0  0  0  0  0  0  0  0  0  # atno 7974 bound_to 7965
  154.9164  140.0408  157.1974 H   0  0  0  0  0  0  0  0  0  0  0  0  # atno 8008 bound_to 7997
  154.8297  140.2897  155.5709 H   0  0  0  0  0  0  0  0  0  0  0  0  # atno 8009 bound_to 7997
  156.2986  140.2503  156.3220 H   0  0  0  0  0  0  0  0  0  0  0  0  # atno 8010 bound_to 7997
  140.7270  143.4793  151.0139 H   0  0  0  0  0  0  0  0  0  0  0  0  # atno 10167 bound_to 10162
  157.5610  130.8836  149.9112 H   0  0  0  0  0  0  0  0  0  0  0  0  # atno 10718 bound_to 10713
  154.8152  135.4627  154.0623 H   0  0  0  0  0  0  0  0  0  0  0  0  # atno 10763 bound_to 10752
  153.2022  135.6870  153.8224 H   0  0  0  0  0  0  0  0  0  0  0  0  # atno 10764 bound_to 10752
  153.7704  135.3271  155.3328 H   0  0  0  0  0  0  0  0  0  0  0  0  # atno 10765 bound_to 10752
  141.1667  133.7101  156.8107 H   0  0  0  0  0  0  0  0  0  0  0  0  # atno 11005 bound_to 11000
  145.3298  141.0264  143.3453 LP  0  0  0  0  0  0  0  0  0  0  0  0  # atno 17320 bound_to 7965
  144.8807  139.4908  143.6724 LP  0  0  0  0  0  0  0  0  0  0  0  0  # atno 17321 bound_to 7965
  139.8491  143.7462  152.3178 LP  0  0  0  0  0  0  0  0  0  0  0  0  # atno 17342 bound_to 10162
  139.7638  144.7498  151.0325 LP  0  0  0  0  0  0  0  0  0  0  0  0  # atno 17343 bound_to 10162
  156.0663  130.3692  150.0871 LP  0  0  0  0  0  0  0  0  0  0  0  0  # atno 17370 bound_to 10713
  156.9035  130.9628  151.3573 LP  0  0  0  0  0  0  0  0  0  0  0  0  # atno 17371 bound_to 10713
  140.2190  134.8771  157.3356 LP  0  0  0  0  0  0  0  0  0  0  0  0  # atno 17394 bound_to 11000
  140.2008  134.4257  155.7664 LP  0  0  0  0  0  0  0  0  0  0  0  0  # atno 17395 bound_to 11000

$$$$
