AV-unprocessed.smi:3296|AV-procd|sdf|12637|dock4
  -GOLD-   2272018573D 1   1.00000     0.00000
 Structure written by MMmdl.
 37 38  0  0  0  0  0  0  0  0  1 V2000
  147.2482  139.6013  151.0306 C   0  0  0  0  0  0  0  0  0  0  0  0
  147.8938  138.8565  152.1002 N   0  0  0  0  0  0  0  0  0  0  0  0
  148.0548  139.3158  153.3501 C   0  0  0  0  0  0  0  0  0  0  0  0
  147.6829  140.4311  153.7144 O   0  0  0  0  0  0  0  0  0  0  0  0
  148.7410  138.3760  154.3429 C   0  0  0  0  0  0  0  0  0  0  0  0
  149.9374  139.0830  154.8936 C   0  0  0  0  0  0  0  0  0  0  0  0
  149.8813  140.2857  155.4734 N   0  0  0  0  0  0  0  0  0  0  0  0
  151.1349  140.7414  155.8920 C   0  0  0  0  0  0  0  0  0  0  0  0
  151.2622  142.0853  156.5424 C   0  0  0  0  0  0  0  0  0  0  0  0
  151.7585  141.9808  157.9932 C   0  0  0  0  0  0  0  0  0  0  0  0
  151.5635  143.2765  158.8005 C   0  0  0  0  0  0  0  0  0  0  0  0
  152.2905  144.4808  158.1998 C   0  0  0  0  0  0  0  0  0  0  0  0
  152.3460  145.4989  159.3397 C   0  0  0  0  0  0  0  0  0  0  0  0
  152.3870  144.6751  160.6347 C   0  0  0  0  0  0  0  0  0  0  0  0
  152.1039  143.2200  160.2348 C   0  0  0  0  0  0  0  0  0  0  0  0
  152.1488  139.8543  155.6294 C   0  0  0  0  0  0  0  0  0  0  0  0
  151.5654  138.4143  154.8419 S   0  0  0  0  0  0  0  0  0  0  0  0
  147.2533  139.0139  150.1127 H   0  0  0  0  0  0  0  0  0  0  0  0
  147.7710  140.5394  150.8391 H   0  0  0  0  0  0  0  0  0  0  0  0
  146.2117  139.8252  151.2859 H   0  0  0  0  0  0  0  0  0  0  0  0
  148.2244  137.9269  151.8837 H   0  0  0  0  0  0  0  0  0  0  0  0
  148.0599  138.1032  155.1501 H   0  0  0  0  0  0  0  0  0  0  0  0
  149.0548  137.4572  153.8460 H   0  0  0  0  0  0  0  0  0  0  0  0
  151.9468  142.7109  155.9684 H   0  0  0  0  0  0  0  0  0  0  0  0
  150.2996  142.5967  156.5198 H   0  0  0  0  0  0  0  0  0  0  0  0
  151.2527  141.1543  158.4944 H   0  0  0  0  0  0  0  0  0  0  0  0
  152.8196  141.7276  157.9870 H   0  0  0  0  0  0  0  0  0  0  0  0
  150.4991  143.5147  158.8417 H   0  0  0  0  0  0  0  0  0  0  0  0
  153.3047  144.2004  157.9112 H   0  0  0  0  0  0  0  0  0  0  0  0
  151.7903  144.8740  157.3143 H   0  0  0  0  0  0  0  0  0  0  0  0
  153.1990  146.1718  159.2475 H   0  0  0  0  0  0  0  0  0  0  0  0
  151.4433  146.1107  159.3257 H   0  0  0  0  0  0  0  0  0  0  0  0
  153.3584  144.7544  161.1241 H   0  0  0  0  0  0  0  0  0  0  0  0
  151.6376  145.0398  161.3383 H   0  0  0  0  0  0  0  0  0  0  0  0
  151.4075  142.7345  160.9191 H   0  0  0  0  0  0  0  0  0  0  0  0
  153.0354  142.6525  160.2603 H   0  0  0  0  0  0  0  0  0  0  0  0
  153.2010  139.9624  155.8469 H   0  0  0  0  0  0  0  0  0  0  0  0
  1  2  1  0  0  0  0
  1 18  1  0  0  0  0
  1 19  1  0  0  0  0
  1 20  1  0  0  0  0
  2  3  1  0  0  0  0
  2 21  1  0  0  0  0
  3  4  2  0  0  0  0
  3  5  1  0  0  0  0
  5  6  1  0  0  0  0
  5 22  1  0  0  0  0
  5 23  1  0  0  0  0
  6 17  1  0  0  0  0
  6  7  2  0  0  0  0
  7  8  1  0  0  0  0
  8  9  1  0  0  0  0
  8 16  2  0  0  0  0
  9 10  1  0  0  0  0
  9 24  1  0  0  0  0
  9 25  1  0  0  0  0
 10 11  1  0  0  0  0
 10 26  1  0  0  0  0
 10 27  1  0  0  0  0
 11 15  1  0  0  0  0
 11 12  1  0  0  0  0
 11 28  1  0  0  0  0
 12 13  1  0  0  0  0
 12 29  1  0  0  0  0
 12 30  1  0  0  0  0
 13 14  1  0  0  0  0
 13 31  1  0  0  0  0
 13 32  1  0  0  0  0
 14 15  1  0  0  0  0
 14 33  1  0  0  0  0
 14 34  1  0  0  0  0
 15 35  1  0  0  0  0
 15 36  1  0  0  0  0
 16 17  1  0  0  0  0
 16 37  1  0  0  0  0
M  END
> <s_m_source_file>
AV-unprocessed.smi

> <i_m_source_file_index>
3296

> <i_lp_mmshare_version>
43012

> <i_f3d_flags>
0

> <s_epik_input>
W0NIM11bTkhdQyg9TylbQ0gyXWMxbmMoW2NIXXMxKVtDSDJdW0NIMl1bQ0hdMltDSDJdW0NIMl1bQ0gyXVtDSDJdMg==

> <s_epik_cmdline>
J2VwaWtfcHl0aG9uJywgJy1waCcsICc3LjAnLCAnLXRuJywgJzgnLCAnLW1hJywgJzIwMCcsICctbWV0YWxfYmluZGluZycsICctaW1hZScsICc8aW5maWxlLm1hZT4nLCAnLW9tYWUnLCAnPG91dGZpbGUubWFlPic=

> <r_lp_tautomer_probability>
1

> <r_epik_Ionization_Penalty>
6.30814e-05

> <r_epik_Ionization_Penalty_Charging>
0

> <r_epik_Ionization_Penalty_Neutral>
6.30814e-05

> <r_epik_State_Penalty>
-0

> <r_epik_Charging_Adjusted_Penalty>
0

> <i_epik_Tot_Q>
0

> <i_epik_Tot_abs_Q>
0

> <r_epik_Metal_State_Penalty>
-0

> <b_epik_Metal_Only>
0

> <s_lp_Force_Field>
OPLS_2005

> <r_lp_Energy>
17.2937

> <b_lp_Chiralities_Consistent>
1

> <s_lp_Variant>
AV-unprocessed.smi:3296-1

> <Gold.Version>
5.8.1

> <Gold.Id.Protein>
6NUR|6NUR_protein|mol2

> <Gold.PLP.Fitness>
44.7360

> <Gold.PLP.PLP>
-41.9212

> <Gold.PLP.part.hbond>
-2.0000

> <Gold.PLP.part.metal>
0.0000

> <Gold.PLP.part.buried>
-0.3123

> <Gold.PLP.part.nonpolar>
-38.2216

> <Gold.PLP.part.repulsive>
0.2556

> <Gold.PLP.ligand.clash>
0.0000

> <Gold.PLP.ligand.torsion>
0.1043

> <Gold.PLP.Chemscore.Hbond>
1.0000

> <Gold.PLP.Chemscore.CHOScore>
0.0000

> <Gold.PLP.Chemscore.Metal>
0.0000

> <Gold.Chemscore.Hbonds>
donor molecule, donor type, donor heavy atom, donor atom, acceptor molecule, acceptor atom, score
      L1  H     2    21       P1  7948  1.00

> <Gold.PLP.Chemscore.Internal.Correction>
0.0234

> <Gold.Rescore>
     Score         DG    S(hbond)    S(metal)    S(lipo)     H(rot)  DE(clash)    DE(int)     intcor
     16.54     -18.16       1.00        0.00     116.56       1.68       0.05       1.57       ----

> <Gold.Chemscore.Fitness>
16.5408

> <Gold.Chemscore.DG>
-18.1585

> <Gold.Chemscore.ZeroCoef>
-5.4800

> <Gold.Chemscore.Hbond>
1.0000

> <Gold.Chemscore.Metal>
0.0000

> <Gold.Chemscore.Lipo>
116.5582

> <Gold.Chemscore.Internal_Hbond>
0.0000

> <Gold.Chemscore.DEClash>
0.0486

> <Gold.Chemscore.DEInternal>
1.5690

> <Gold.Chemscore.Rot>
1.6792

> <Gold.Chemscore.Internal.Correction>
   9.000000E+99

> <Gold.Chemscore.Hbonds>
donor molecule, donor type, donor heavy atom, donor atom, acceptor molecule, acceptor atom, score
      L1  H     2    21       P1  7948  1.00

> <Gold.Chemscore.Hbond.Weighted>
-3.3400

> <Gold.Chemscore.Metal.Weighted>
-0.0000

> <Gold.Chemscore.Lipo.Weighted>
-13.6373

> <Gold.Chemscore.Internal_Hbond.Weighted>
0.0000

> <Gold.Chemscore.DEClash.Weighted>
0.0486

> <Gold.Chemscore.DEInternal.Weighted>
1.5690

> <Gold.Chemscore.Rot.Weighted>
4.2988

> <Gold.Chemscore.Internal.Correction.Weighted>
   9.000000E+99

> <Gold.Protein.RotatedTorsions>
[ 6907 6896 6895 6894 ] final  130.74 input  -60.11 | X-H torsion
[ 7974 7965 7964 7962 ] final -153.80 input  175.53 | X-H torsion
[ 8008 7997 7996 7995 ] final   42.47 input   59.86 | X-H torsion
[ 10167 10162 10161 10158 ] final   -6.94 input  -65.29 | X-H torsion
[ 10718 10713 10712 10709 ] final -124.01 input   66.30 | X-H torsion
[ 10763 10752 10751 10750 ] final -149.44 input  -60.55 | X-H torsion
[ 11005 11000 10999 10996 ] final  172.01 input  -57.11 | X-H torsion

> <Gold.Protein.ActiveResidues>
 VAL166  LYS551  ARG553  GLY616  TRP617  ASP618  TYR619  PRO620  LYS621  CYS622 
 ASP623  PHE694  ASN695  SER759  ASP760  ASP761  ALA762  ILE779  LEU786  VAL792 
 PHE793  MET794  SER795  GLU796  ALA797  LYS798  CYS799  TRP800  GLU811  SER814 

> <Gold.Protein.RotatedAtoms>
  152.3496  133.6163  159.5934 H   0  0  0  0  0  0  0  0  0  0  0  0  # atno 6907 bound_to 6896
  150.7529  133.9595  159.3520 H   0  0  0  0  0  0  0  0  0  0  0  0  # atno 6908 bound_to 6896
  151.7449  135.0847  160.0372 H   0  0  0  0  0  0  0  0  0  0  0  0  # atno 6909 bound_to 6896
  144.7722  140.4476  143.5899 H   0  0  0  0  0  0  0  0  0  0  0  0  # atno 7974 bound_to 7965
  155.2867  140.3376  155.4255 H   0  0  0  0  0  0  0  0  0  0  0  0  # atno 8008 bound_to 7997
  156.2065  140.1753  156.7829 H   0  0  0  0  0  0  0  0  0  0  0  0  # atno 8009 bound_to 7997
  154.5627  140.0684  156.8829 H   0  0  0  0  0  0  0  0  0  0  0  0  # atno 8010 bound_to 7997
  140.7013  143.6137  150.8679 H   0  0  0  0  0  0  0  0  0  0  0  0  # atno 10167 bound_to 10162
  156.1551  130.6562  150.9969 H   0  0  0  0  0  0  0  0  0  0  0  0  # atno 10718 bound_to 10713
  154.8177  135.3309  154.7129 H   0  0  0  0  0  0  0  0  0  0  0  0  # atno 10763 bound_to 10752
  153.7767  135.6921  153.4900 H   0  0  0  0  0  0  0  0  0  0  0  0  # atno 10764 bound_to 10752
  153.2007  135.4517  155.0211 H   0  0  0  0  0  0  0  0  0  0  0  0  # atno 10765 bound_to 10752
  140.3252  134.7404  157.4093 H   0  0  0  0  0  0  0  0  0  0  0  0  # atno 11005 bound_to 11000
  145.6291  139.1534  143.2979 LP  0  0  0  0  0  0  0  0  0  0  0  0  # atno 17320 bound_to 7965
  146.1876  140.6396  142.9160 LP  0  0  0  0  0  0  0  0  0  0  0  0  # atno 17321 bound_to 7965
  139.9859  143.5900  152.2927 LP  0  0  0  0  0  0  0  0  0  0  0  0  # atno 17342 bound_to 10162
  139.6538  144.7661  151.2096 LP  0  0  0  0  0  0  0  0  0  0  0  0  # atno 17343 bound_to 10162
  157.6688  131.0866  150.7663 LP  0  0  0  0  0  0  0  0  0  0  0  0  # atno 17370 bound_to 10713
  156.7729  130.4834  149.5415 LP  0  0  0  0  0  0  0  0  0  0  0  0  # atno 17371 bound_to 10713
  140.0908  134.5604  155.8446 LP  0  0  0  0  0  0  0  0  0  0  0  0  # atno 17394 bound_to 11000
  141.2077  133.6666  156.6322 LP  0  0  0  0  0  0  0  0  0  0  0  0  # atno 17395 bound_to 11000

$$$$
