AV-unprocessed.smi:22|AV-procd|sdf|169|dock3
  -GOLD-   2262015423D 1   1.00000     0.00000
 Structure written by MMmdl.
 56 59  0  0  0  0  0  0  0  0  2 V2000
  144.0856  134.8685  150.6583 C   0  0  0  0  0  0  0  0  0  0  0  0
  145.0507  133.7655  150.8871 N   0  3  2  0  0  0  0  0  0  0  0  0
  144.6349  132.4923  150.2373 C   0  0  0  0  0  0  0  0  0  0  0  0
  143.9618  132.7282  148.8750 C   0  0  0  0  0  0  0  0  0  0  0  0
  142.8222  131.9037  148.7522 O   0  0  0  0  0  0  0  0  0  0  0  0
  145.4506  133.6461  152.3197 C   0  0  0  0  0  0  0  0  0  0  0  0
  145.8468  135.0099  152.9229 C   0  0  0  0  0  0  0  0  0  0  0  0
  146.2010  134.8680  154.4120 C   0  0  0  0  0  0  0  0  0  0  0  0
  147.2313  133.8480  154.6067 N   0  0  0  0  0  0  0  0  0  0  0  0
  147.8735  133.9080  155.8012 C   0  0  0  0  0  0  0  0  0  0  0  0
  149.1413  134.3964  155.8667 N   0  0  0  0  0  0  0  0  0  0  0  0
  149.7837  134.4522  157.0371 C   0  0  0  0  0  0  0  0  0  0  0  0
  149.3527  134.0804  158.2438 N   0  0  0  0  0  0  0  0  0  0  0  0
  148.0798  133.5948  158.1870 C   0  0  0  0  0  0  0  0  0  0  0  0
  147.2750  133.4760  157.0186 C   0  0  0  0  0  0  0  0  0  0  0  0
  146.0307  132.9546  157.3531 N   0  0  0  0  0  0  0  0  0  0  0  0
  146.1003  132.7658  158.6426 C   0  0  0  0  0  0  0  0  0  0  0  0
  147.2975  133.1176  159.2241 N   0  0  0  0  0  0  0  0  0  0  0  0
  147.6436  133.0139  160.6333 C   0  0  0  0  0  0  0  0  0  0  0  0
  146.9879  134.1074  161.5079 C   0  0  1  0  0  0  0  0  0  0  0  0
  145.6278  133.7702  161.7231 O   0  0  0  0  0  0  0  0  0  0  0  0
  147.6578  134.3089  162.8642 C   0  0  0  0  0  0  0  0  0  0  0  0
  147.4407  135.7915  163.1320 C   0  0  0  0  0  0  0  0  0  0  0  0
  147.6361  136.3675  161.8517 O   0  0  0  0  0  0  0  0  0  0  0  0
  147.0471  135.5130  160.8765 C   0  0  0  0  0  0  0  0  0  0  0  0
  146.9044  132.5246  154.0727 C   0  0  0  0  0  0  0  0  0  0  0  0
  146.5666  132.6066  152.5748 C   0  0  0  0  0  0  0  0  0  0  0  0
  143.1257  134.6583  151.1307 H   0  0  0  0  0  0  0  0  0  0  0  0
  143.9091  135.0273  149.5952 H   0  0  0  0  0  0  0  0  0  0  0  0
  144.4651  135.8076  151.0622 H   0  0  0  0  0  0  0  0  0  0  0  0
  145.4887  131.8345  150.0795 H   0  0  0  0  0  0  0  0  0  0  0  0
  143.9592  131.9508  150.9009 H   0  0  0  0  0  0  0  0  0  0  0  0
  143.6400  133.7670  148.7983 H   0  0  0  0  0  0  0  0  0  0  0  0
  144.6402  132.5456  148.0424 H   0  0  0  0  0  0  0  0  0  0  0  0
  142.3954  132.0982  147.9310 H   0  0  0  0  0  0  0  0  0  0  0  0
  144.5666  133.3209  152.8710 H   0  0  0  0  0  0  0  0  0  0  0  0
  146.7042  135.4343  152.4011 H   0  0  0  0  0  0  0  0  0  0  0  0
  145.0308  135.7243  152.8072 H   0  0  0  0  0  0  0  0  0  0  0  0
  146.5157  135.8359  154.8008 H   0  0  0  0  0  0  0  0  0  0  0  0
  145.3146  134.5801  154.9788 H   0  0  0  0  0  0  0  0  0  0  0  0
  150.7869  134.8505  157.0013 H   0  0  0  0  0  0  0  0  0  0  0  0
  145.2755  132.3587  159.2095 H   0  0  0  0  0  0  0  0  0  0  0  0
  147.3462  132.0251  160.9854 H   0  0  0  0  0  0  0  0  0  0  0  0
  148.7300  133.0557  160.7247 H   0  0  0  0  0  0  0  0  0  0  0  0
  145.4450  132.9616  161.2693 H   0  0  0  0  0  0  0  0  0  0  0  0
  147.2652  133.6645  163.6520 H   0  0  0  0  0  0  0  0  0  0  0  0
  148.7298  134.1234  162.7871 H   0  0  0  0  0  0  0  0  0  0  0  0
  146.4225  135.9855  163.4733 H   0  0  0  0  0  0  0  0  0  0  0  0
  148.1368  136.1954  163.8675 H   0  0  0  0  0  0  0  0  0  0  0  0
  147.6548  135.5365  159.9713 H   0  0  0  0  0  0  0  0  0  0  0  0
  146.0569  135.8878  160.6123 H   0  0  0  0  0  0  0  0  0  0  0  0
  147.7445  131.8435  154.2161 H   0  0  0  0  0  0  0  0  0  0  0  0
  146.0579  132.1132  154.6246 H   0  0  0  0  0  0  0  0  0  0  0  0
  146.2653  131.6216  152.2182 H   0  0  0  0  0  0  0  0  0  0  0  0
  147.4730  132.8706  152.0296 H   0  0  0  0  0  0  0  0  0  0  0  0
  145.8963  134.0443  150.4095 H   0  0  0  0  0  0  0  0  0  0  0  0
  1  2  1  0  0  0  0
  1 28  1  0  0  0  0
  1 29  1  0  0  0  0
  1 30  1  0  0  0  0
  2  3  1  0  0  0  0
  2  6  1  0  0  0  0
  2 56  1  0  0  0  0
  3  4  1  0  0  0  0
  3 31  1  0  0  0  0
  3 32  1  0  0  0  0
  4  5  1  0  0  0  0
  4 33  1  0  0  0  0
  4 34  1  0  0  0  0
  5 35  1  0  0  0  0
  6 27  1  0  0  0  0
  6  7  1  0  0  0  0
  6 36  1  0  0  0  0
  7  8  1  0  0  0  0
  7 37  1  0  0  0  0
  7 38  1  0  0  0  0
  8  9  1  0  0  0  0
  8 39  1  0  0  0  0
  8 40  1  0  0  0  0
  9 10  1  0  0  0  0
  9 26  1  0  0  0  0
 10 15  1  0  0  0  0
 10 11  2  0  0  0  0
 11 12  1  0  0  0  0
 12 13  2  0  0  0  0
 12 41  1  0  0  0  0
 13 14  1  0  0  0  0
 14 18  1  0  0  0  0
 14 15  2  0  0  0  0
 15 16  1  0  0  0  0
 16 17  2  0  0  0  0
 17 18  1  0  0  0  0
 17 42  1  0  0  0  0
 18 19  1  0  0  0  0
 19 20  1  0  0  0  0
 19 43  1  0  0  0  0
 19 44  1  0  0  0  0
 20 25  1  0  0  0  0
 20 21  1  0  0  0  0
 20 22  1  0  0  0  0
 21 45  1  0  0  0  0
 22 23  1  0  0  0  0
 22 46  1  0  0  0  0
 22 47  1  0  0  0  0
 23 24  1  0  0  0  0
 23 48  1  0  0  0  0
 23 49  1  0  0  0  0
 24 25  1  0  0  0  0
 25 50  1  0  0  0  0
 25 51  1  0  0  0  0
 26 27  1  0  0  0  0
 26 52  1  0  0  0  0
 26 53  1  0  0  0  0
 27 54  1  0  0  0  0
 27 55  1  0  0  0  0
M  CHG  1   2   1
M  END
> <s_m_source_file>
AV-unprocessed.smi

> <i_m_source_file_index>
22

> <i_lp_mmshare_version>
43012

> <i_f3d_flags>
0

> <s_epik_input>
W09IXVtDSDJdW0NIMl1OKFtDSDNdKVtDSF0xW0NIMl1bQ0gyXU4oW0NIMl1bQ0gyXTEpYyhuW2NIXW4yKWMoYzIzKW5bY0hdbjNbQ0gyXVtDQEBdNChbT0hdKVtDSDJdW0NIMl1PW0NIMl00

> <s_epik_cmdline>
J2VwaWtfcHl0aG9uJywgJy1waCcsICc3LjAnLCAnLXRuJywgJzgnLCAnLW1hJywgJzIwMCcsICctbWV0YWxfYmluZGluZycsICctaW1hZScsICc8aW5maWxlLm1hZT4nLCAnLW9tYWUnLCAnPG91dGZpbGUubWFlPic=

> <r_lp_tautomer_probability>
1

> <r_epik_Ionization_Penalty>
0.00317524

> <r_epik_Ionization_Penalty_Charging>
0.00191487

> <r_epik_Ionization_Penalty_Neutral>
0.00126037

> <r_epik_State_Penalty>
-0

> <r_epik_Charging_Adjusted_Penalty>
0.00191487

> <i_epik_Tot_Q>
1

> <i_epik_Tot_abs_Q>
1

> <r_epik_Metal_State_Penalty>
-0

> <b_epik_Metal_Only>
0

> <s_lp_Force_Field>
OPLS_2005

> <r_lp_Energy>
45.1339

> <b_lp_Chiralities_Consistent>
1

> <s_lp_Variant>
AV-unprocessed.smi:22-1

> <Gold.Version>
5.8.1

> <Gold.Id.Protein>
6NUR|6NUR_protein|mol2

> <Gold.PLP.Fitness>
48.0030

> <Gold.PLP.PLP>
-38.4733

> <Gold.PLP.part.hbond>
-5.6471

> <Gold.PLP.part.metal>
0.0000

> <Gold.PLP.part.buried>
-5.2081

> <Gold.PLP.part.nonpolar>
-27.2015

> <Gold.PLP.part.repulsive>
0.1487

> <Gold.PLP.ligand.clash>
0.0000

> <Gold.PLP.ligand.torsion>
1.1512

> <Gold.PLP.Chemscore.Hbond>
3.7520

> <Gold.PLP.Chemscore.CHOScore>
0.0000

> <Gold.PLP.Chemscore.Metal>
0.0000

> <Gold.Chemscore.Hbonds>
donor molecule, donor type, donor heavy atom, donor atom, acceptor molecule, acceptor atom, score
      P1  H  6896  6909       L1    13  1.00
      P1  H  6931  6943       L1    24  0.23
      P1  H 10785 10796       L1     5  1.00

> <Gold.PLP.Chemscore.Internal.Correction>
0.5762

> <Gold.Rescore>
     Score         DG    S(hbond)    S(metal)    S(lipo)     H(rot)  DE(clash)    DE(int)     intcor
     13.55     -14.76       2.75        0.00      82.97       3.76       0.19       1.02       ----

> <Gold.Chemscore.Fitness>
13.5525

> <Gold.Chemscore.DG>
-14.7618

> <Gold.Chemscore.ZeroCoef>
-5.4800

> <Gold.Chemscore.Hbond>
2.7531

> <Gold.Chemscore.Metal>
0.0000

> <Gold.Chemscore.Lipo>
82.9736

> <Gold.Chemscore.Internal_Hbond>
0.0000

> <Gold.Chemscore.DEClash>
0.1889

> <Gold.Chemscore.DEInternal>
1.0204

> <Gold.Chemscore.Rot>
3.7583

> <Gold.Chemscore.Internal.Correction>
   9.000000E+99

> <Gold.Chemscore.Hbonds>
donor molecule, donor type, donor heavy atom, donor atom, acceptor molecule, acceptor atom, score
      P1  H  6896  6909       L1    13  0.74
      P1  H  6931  6943       L1    24  0.19
      P1  H 10785 10796       L1     5  0.47

> <Gold.Chemscore.Hbond.Weighted>
-9.1952

> <Gold.Chemscore.Metal.Weighted>
-0.0000

> <Gold.Chemscore.Lipo.Weighted>
-9.7079

> <Gold.Chemscore.Internal_Hbond.Weighted>
0.0000

> <Gold.Chemscore.DEClash.Weighted>
0.1889

> <Gold.Chemscore.DEInternal.Weighted>
1.0204

> <Gold.Chemscore.Rot.Weighted>
9.6213

> <Gold.Chemscore.Internal.Correction.Weighted>
   9.000000E+99

> <Gold.Protein.RotatedTorsions>
[ 6907 6896 6895 6894 ] final   23.44 input  -60.11 | X-H torsion
[ 7974 7965 7964 7962 ] final   46.01 input  175.53 | X-H torsion
[ 8008 7997 7996 7995 ] final   81.74 input   59.86 | X-H torsion
[ 10167 10162 10161 10158 ] final -138.67 input  -65.29 | X-H torsion
[ 10718 10713 10712 10709 ] final  179.95 input   66.30 | X-H torsion
[ 10763 10752 10751 10750 ] final   68.35 input  -60.55 | X-H torsion
[ 11005 11000 10999 10996 ] final -112.95 input  -57.11 | X-H torsion

> <Gold.Protein.ActiveResidues>
 VAL166  LYS551  ARG553  GLY616  TRP617  ASP618  TYR619  PRO620  LYS621  CYS622 
 ASP623  PHE694  ASN695  SER759  ASP760  ASP761  ALA762  ILE779  LEU786  VAL792 
 PHE793  MET794  SER795  GLU796  ALA797  LYS798  CYS799  TRP800  GLU811  SER814 

> <Gold.Protein.RotatedAtoms>
  151.9424  135.0207  160.0536 H   0  0  0  0  0  0  0  0  0  0  0  0  # atno 6907 bound_to 6896
  152.2024  133.4846  159.5074 H   0  0  0  0  0  0  0  0  0  0  0  0  # atno 6908 bound_to 6896
  150.6957  134.1490  159.4176 H   0  0  0  0  0  0  0  0  0  0  0  0  # atno 6909 bound_to 6896
  146.0428  139.4902  142.9767 H   0  0  0  0  0  0  0  0  0  0  0  0  # atno 7974 bound_to 7965
  155.9013  140.3433  155.6028 H   0  0  0  0  0  0  0  0  0  0  0  0  # atno 8008 bound_to 7997
  155.7497  140.0818  157.2226 H   0  0  0  0  0  0  0  0  0  0  0  0  # atno 8009 bound_to 7997
  154.4044  140.1555  156.2697 H   0  0  0  0  0  0  0  0  0  0  0  0  # atno 8010 bound_to 7997
  139.8456  143.7265  152.2661 H   0  0  0  0  0  0  0  0  0  0  0  0  # atno 10167 bound_to 10162
  156.8681  130.9774  151.3076 H   0  0  0  0  0  0  0  0  0  0  0  0  # atno 10718 bound_to 10713
  153.0231  135.5250  154.7121 H   0  0  0  0  0  0  0  0  0  0  0  0  # atno 10763 bound_to 10752
  154.6201  135.2888  155.0338 H   0  0  0  0  0  0  0  0  0  0  0  0  # atno 10764 bound_to 10752
  154.1328  135.6590  153.4978 H   0  0  0  0  0  0  0  0  0  0  0  0  # atno 10765 bound_to 10752
  141.0644  133.9483  157.2606 H   0  0  0  0  0  0  0  0  0  0  0  0  # atno 11005 bound_to 11000
  145.6856  141.0179  143.1583 LP  0  0  0  0  0  0  0  0  0  0  0  0  # atno 17320 bound_to 7965
  144.7083  139.8472  143.7423 LP  0  0  0  0  0  0  0  0  0  0  0  0  # atno 17321 bound_to 7965
  139.7516  144.7532  151.0498 LP  0  0  0  0  0  0  0  0  0  0  0  0  # atno 17342 bound_to 10162
  140.7793  143.4853  150.9964 LP  0  0  0  0  0  0  0  0  0  0  0  0  # atno 17343 bound_to 10162
  157.6211  130.8656  149.9111 LP  0  0  0  0  0  0  0  0  0  0  0  0  # atno 17370 bound_to 10713
  156.0741  130.3681  150.0715 LP  0  0  0  0  0  0  0  0  0  0  0  0  # atno 17371 bound_to 10713
  139.9462  135.0183  156.8860 LP  0  0  0  0  0  0  0  0  0  0  0  0  # atno 17394 bound_to 11000
  140.5803  134.0358  155.7462 LP  0  0  0  0  0  0  0  0  0  0  0  0  # atno 17395 bound_to 11000

$$$$
