AV-unprocessed.smi:1540|AV-procd|sdf|6201|dock9
  -GOLD-   22720 6373D 1   1.00000     0.00000
 Structure written by MMmdl.
 32 32  0  0  0  0  0  0  0  0  2 V2000
  146.5348  142.0075  154.3836 C   0  0  0  0  0  0  0  0  0  0  0  0
  147.6195  141.2827  154.0712 C   0  0  0  0  0  0  0  0  0  0  0  0
  148.9753  141.4414  154.7230 C   0  0  0  0  0  0  0  0  0  0  0  0
  149.8945  140.5023  154.1792 O   0  0  0  0  0  0  0  0  0  0  0  0
  150.1579  139.3615  154.9930 C   0  0  1  0  0  0  0  0  0  0  0  0
  151.3725  138.6369  154.3937 C   0  0  0  0  0  0  0  0  0  0  0  0
  150.4220  139.7888  156.4462 C   0  0  0  0  0  0  0  0  0  0  0  0
  149.7641  139.2793  157.3531 O   0  0  0  0  0  0  0  0  0  0  0  0
  151.3852  140.7177  156.6061 N   0  0  0  0  0  0  0  0  0  0  0  0
  151.8871  141.3066  157.7799 C   0  0  0  0  0  0  0  0  0  0  0  0
  151.4527  142.4813  158.3153 C   0  0  0  0  0  0  0  0  0  0  0  0
  152.0142  143.0359  159.5407 C   0  0  0  0  0  0  0  0  0  0  0  0
  151.5010  144.3022  160.2031 C   0  0  0  0  0  0  0  0  0  0  0  0
  152.0924  144.5028  161.3809 F   0  0  0  0  0  0  0  0  0  0  0  0
  151.7538  145.3545  159.4263 F   0  0  0  0  0  0  0  0  0  0  0  0
  150.1840  144.2378  160.3992 F   0  0  0  0  0  0  0  0  0  0  0  0
  152.9897  142.2235  160.0852 C   0  0  0  0  0  0  0  0  0  0  0  0
  153.4812  141.0552  159.6182 N   0  5  0  0  0  0  0  0  0  0  0  0
  152.9549  140.5504  158.4669 C   0  0  0  0  0  0  0  0  0  0  0  0
  153.3494  139.4848  157.9920 O   0  0  0  0  0  0  0  0  0  0  0  0
  146.5705  142.7721  155.1459 H   0  0  0  0  0  0  0  0  0  0  0  0
  145.5941  141.8435  153.8788 H   0  0  0  0  0  0  0  0  0  0  0  0
  147.5464  140.5262  153.3035 H   0  0  0  0  0  0  0  0  0  0  0  0
  149.3135  142.4644  154.5565 H   0  0  0  0  0  0  0  0  0  0  0  0
  148.8837  141.2955  155.8007 H   0  0  0  0  0  0  0  0  0  0  0  0
  149.3028  138.6837  154.9532 H   0  0  0  0  0  0  0  0  0  0  0  0
  151.6370  137.7558  154.9797 H   0  0  0  0  0  0  0  0  0  0  0  0
  152.2474  139.2868  154.3502 H   0  0  0  0  0  0  0  0  0  0  0  0
  151.1604  138.3038  153.3774 H   0  0  0  0  0  0  0  0  0  0  0  0
  151.8019  141.0735  155.7579 H   0  0  0  0  0  0  0  0  0  0  0  0
  150.6614  143.0457  157.8519 H   0  0  0  0  0  0  0  0  0  0  0  0
  153.4403  142.5611  161.0429 H   0  0  0  0  0  0  0  0  0  0  0  0
  1  2  2  0  0  0  0
  1 21  1  0  0  0  0
  1 22  1  0  0  0  0
  2  3  1  0  0  0  0
  2 23  1  0  0  0  0
  3  4  1  0  0  0  0
  3 24  1  0  0  0  0
  3 25  1  0  0  0  0
  4  5  1  0  0  0  0
  5  6  1  0  0  0  0
  5  7  1  0  0  0  0
  5 26  1  0  0  0  0
  6 27  1  0  0  0  0
  6 28  1  0  0  0  0
  6 29  1  0  0  0  0
  7  8  2  0  0  0  0
  7  9  1  0  0  0  0
  9 10  1  0  0  0  0
  9 30  1  0  0  0  0
 10 19  1  0  0  0  0
 10 11  2  0  0  0  0
 11 12  1  0  0  0  0
 11 31  1  0  0  0  0
 12 13  1  0  0  0  0
 12 17  2  0  0  0  0
 13 14  1  0  0  0  0
 13 15  1  0  0  0  0
 13 16  1  0  0  0  0
 17 18  1  0  0  0  0
 17 32  1  0  0  0  0
 18 19  1  0  0  0  0
 19 20  2  0  0  0  0
M  CHG  1  18  -1
M  END
> <s_m_source_file>
AV-unprocessed.smi

> <i_m_source_file_index>
1540

> <i_lp_mmshare_version>
43012

> <i_f3d_flags>
0

> <s_epik_input>
W0NIMl09W0NIXVtDSDJdT1tDQEhdKFtDSDNdKUMoPU8pW05IXWMxW2NIXWMoQyhGKShGKUYpW2NIXVtuSF1jMT1P

> <s_epik_cmdline>
J2VwaWtfcHl0aG9uJywgJy1waCcsICc3LjAnLCAnLXRuJywgJzgnLCAnLW1hJywgJzIwMCcsICctbWV0YWxfYmluZGluZycsICctaW1hZScsICc8aW5maWxlLm1hZT4nLCAnLW9tYWUnLCAnPG91dGZpbGUubWFlPic=

> <r_epik_Ionization_Penalty>
2.56803

> <r_epik_Ionization_Penalty_Charging>
0.0609694

> <r_epik_Ionization_Penalty_Neutral>
2.50706

> <r_epik_State_Penalty>
2.67253

> <r_epik_Charging_Adjusted_Penalty>
2.7335

> <i_epik_Tot_Q>
-1

> <i_epik_Tot_abs_Q>
1

> <r_epik_Metal_State_Penalty>
0.517713

> <b_epik_Metal_Only>
0

> <s_lp_Force_Field>
OPLS_2005

> <r_lp_Energy>
20.9633

> <b_lp_Chiralities_Consistent>
1

> <s_lp_Variant>
AV-unprocessed.smi:1540-4

> <Gold.Version>
5.8.1

> <Gold.Id.Protein>
6NUR|6NUR_protein|mol2

> <Gold.PLP.Fitness>
46.7042

> <Gold.PLP.PLP>
-44.7763

> <Gold.PLP.part.hbond>
-2.0000

> <Gold.PLP.part.metal>
0.0000

> <Gold.PLP.part.buried>
-6.7392

> <Gold.PLP.part.nonpolar>
-37.3500

> <Gold.PLP.part.repulsive>
1.1481

> <Gold.PLP.ligand.clash>
0.0000

> <Gold.PLP.ligand.torsion>
1.2754

> <Gold.PLP.Chemscore.Hbond>
1.4520

> <Gold.PLP.Chemscore.CHOScore>
0.0000

> <Gold.PLP.Chemscore.Metal>
0.0000

> <Gold.Chemscore.Hbonds>
donor molecule, donor type, donor heavy atom, donor atom, acceptor molecule, acceptor atom, score
      P1  H  7989  7998       L1     4  0.75
      P1  H  7997  8008       L1    20  1.00

> <Gold.PLP.Chemscore.Internal.Correction>
0.1227

> <Gold.Rescore>
     Score         DG    S(hbond)    S(metal)    S(lipo)     H(rot)  DE(clash)    DE(int)     intcor
     13.16     -14.70       1.10        0.00      86.19       1.77       0.14       1.40       ----

> <Gold.Chemscore.Fitness>
13.1587

> <Gold.Chemscore.DG>
-14.6985

> <Gold.Chemscore.ZeroCoef>
-5.4800

> <Gold.Chemscore.Hbond>
1.1012

> <Gold.Chemscore.Metal>
0.0000

> <Gold.Chemscore.Lipo>
86.1905

> <Gold.Chemscore.Internal_Hbond>
0.0000

> <Gold.Chemscore.DEClash>
0.1432

> <Gold.Chemscore.DEInternal>
1.3966

> <Gold.Chemscore.Rot>
1.7750

> <Gold.Chemscore.Internal.Correction>
   9.000000E+99

> <Gold.Chemscore.Hbonds>
donor molecule, donor type, donor heavy atom, donor atom, acceptor molecule, acceptor atom, score
      P1  H  7989  7998       L1     4  0.26
      P1  H  7997  8008       L1    20  0.24

> <Gold.Chemscore.Hbond.Weighted>
-3.6780

> <Gold.Chemscore.Metal.Weighted>
-0.0000

> <Gold.Chemscore.Lipo.Weighted>
-10.0843

> <Gold.Chemscore.Internal_Hbond.Weighted>
0.0000

> <Gold.Chemscore.DEClash.Weighted>
0.1432

> <Gold.Chemscore.DEInternal.Weighted>
1.3966

> <Gold.Chemscore.Rot.Weighted>
4.5439

> <Gold.Chemscore.Internal.Correction.Weighted>
   9.000000E+99

> <Gold.Protein.RotatedTorsions>
[ 6907 6896 6895 6894 ] final  -19.89 input  -60.11 | X-H torsion
[ 7974 7965 7964 7962 ] final   -4.71 input  175.53 | X-H torsion
[ 8008 7997 7996 7995 ] final  -65.53 input   59.86 | X-H torsion
[ 10167 10162 10161 10158 ] final   91.36 input  -65.29 | X-H torsion
[ 10718 10713 10712 10709 ] final   -4.24 input   66.30 | X-H torsion
[ 10763 10752 10751 10750 ] final  171.24 input  -60.55 | X-H torsion
[ 11005 11000 10999 10996 ] final   93.60 input  -57.11 | X-H torsion

> <Gold.Protein.ActiveResidues>
 VAL166  LYS551  ARG553  GLY616  TRP617  ASP618  TYR619  PRO620  LYS621  CYS622 
 ASP623  PHE694  ASN695  SER759  ASP760  ASP761  ALA762  ILE779  LEU786  VAL792 
 PHE793  MET794  SER795  GLU796  ALA797  LYS798  CYS799  TRP800  GLU811  SER814 

> <Gold.Protein.RotatedAtoms>
  151.2563  135.0639  159.9081 H   0  0  0  0  0  0  0  0  0  0  0  0  # atno 6907 bound_to 6896
  152.5372  134.0278  159.8021 H   0  0  0  0  0  0  0  0  0  0  0  0  # atno 6908 bound_to 6896
  151.0494  133.5588  159.2675 H   0  0  0  0  0  0  0  0  0  0  0  0  # atno 6909 bound_to 6896
  146.2367  140.1912  142.8332 H   0  0  0  0  0  0  0  0  0  0  0  0  # atno 7974 bound_to 7965
  154.4677  140.0931  156.7064 H   0  0  0  0  0  0  0  0  0  0  0  0  # atno 8008 bound_to 7997
  155.4811  140.3467  155.4321 H   0  0  0  0  0  0  0  0  0  0  0  0  # atno 8009 bound_to 7997
  156.0985  140.1416  156.9487 H   0  0  0  0  0  0  0  0  0  0  0  0  # atno 8010 bound_to 7997
  139.8382  144.6654  150.9315 H   0  0  0  0  0  0  0  0  0  0  0  0  # atno 10167 bound_to 10162
  156.7642  130.5279  149.5779 H   0  0  0  0  0  0  0  0  0  0  0  0  # atno 10718 bound_to 10713
  154.4091  135.2756  155.2048 H   0  0  0  0  0  0  0  0  0  0  0  0  # atno 10763 bound_to 10752
  154.4041  135.6037  153.5918 H   0  0  0  0  0  0  0  0  0  0  0  0  # atno 10764 bound_to 10752
  152.9831  135.5933  154.4370 H   0  0  0  0  0  0  0  0  0  0  0  0  # atno 10765 bound_to 10752
  139.8808  134.8799  156.3742 H   0  0  0  0  0  0  0  0  0  0  0  0  # atno 11005 bound_to 11000
  144.9856  140.8500  143.5370 LP  0  0  0  0  0  0  0  0  0  0  0  0  # atno 17320 bound_to 7965
  145.1911  139.2301  143.5242 LP  0  0  0  0  0  0  0  0  0  0  0  0  # atno 17321 bound_to 7965
  140.7800  143.3937  151.1267 LP  0  0  0  0  0  0  0  0  0  0  0  0  # atno 17342 bound_to 10162
  139.7585  143.8671  152.3094 LP  0  0  0  0  0  0  0  0  0  0  0  0  # atno 17343 bound_to 10162
  156.1319  130.6184  151.0346 LP  0  0  0  0  0  0  0  0  0  0  0  0  # atno 17370 bound_to 10713
  157.6721  131.0859  150.7587 LP  0  0  0  0  0  0  0  0  0  0  0  0  # atno 17371 bound_to 10713
  140.9443  133.7493  156.0188 LP  0  0  0  0  0  0  0  0  0  0  0  0  # atno 17394 bound_to 11000
  140.8182  134.3320  157.5390 LP  0  0  0  0  0  0  0  0  0  0  0  0  # atno 17395 bound_to 11000

$$$$
