AV-unprocessed.smi:1064|AV-procd|sdf|4665|dock3
  -GOLD-   22720 3173D 1   1.00000     0.00000
 Structure written by MMmdl.
 36 37  0  0  0  0  0  0  0  0  2 V2000
  151.6174  140.8466  158.1604 O   0  0  0  0  0  0  0  0  0  0  0  0
  151.3837  142.0355  157.9373 C   0  0  0  0  0  0  0  0  0  0  0  0
  150.3534  142.4253  157.1668 N   0  0  0  0  0  0  0  0  0  0  0  0
  149.3982  141.5314  156.5233 C   0  0  0  0  0  0  0  0  0  0  0  0
  149.6550  141.4249  155.0090 C   0  0  0  0  0  0  0  0  0  0  0  0
  148.6436  140.5990  154.2704 C   0  0  0  0  0  0  0  0  0  0  0  0
  148.9021  139.5280  153.5090 N   0  3  0  0  0  0  0  0  0  0  0  0
  147.7464  139.0307  152.9727 C   0  0  0  0  0  0  0  0  0  0  0  0
  146.7351  139.8417  153.4156 C   0  0  0  0  0  0  0  0  0  0  0  0
  147.3165  140.8039  154.2015 N   0  0  0  0  0  0  0  0  0  0  0  0
  146.6197  141.8928  154.8940 C   0  0  0  0  0  0  0  0  0  0  0  0
  146.0457  142.7094  154.0109 F   0  0  0  0  0  0  0  0  0  0  0  0
  145.7087  141.4054  155.7364 F   0  0  0  0  0  0  0  0  0  0  0  0
  152.1469  143.0477  158.4228 N   0  0  0  0  0  0  0  0  0  0  0  0
  152.0317  144.4697  158.0582 C   0  0  0  0  0  0  0  0  0  0  0  0
  151.1805  145.1933  159.1150 C   0  0  0  0  0  0  0  0  0  0  0  0
  151.9801  145.1311  160.7488 S   0  0  0  0  0  0  0  0  0  0  0  0
  152.3404  143.3494  160.8471 C   0  0  0  0  0  0  0  0  0  0  0  0
  153.0414  142.8548  159.5704 C   0  0  0  0  0  0  0  0  0  0  0  0
  150.2230  143.4159  157.0211 H   0  0  0  0  0  0  0  0  0  0  0  0
  149.4398  140.5479  156.9948 H   0  0  0  0  0  0  0  0  0  0  0  0
  148.3973  141.9242  156.7044 H   0  0  0  0  0  0  0  0  0  0  0  0
  149.6525  142.4171  154.5578 H   0  0  0  0  0  0  0  0  0  0  0  0
  150.6264  140.9721  154.8080 H   0  0  0  0  0  0  0  0  0  0  0  0
  147.7310  138.1614  152.3315 H   0  0  0  0  0  0  0  0  0  0  0  0
  145.6713  139.8084  153.2304 H   0  0  0  0  0  0  0  0  0  0  0  0
  147.3375  142.4736  155.4744 H   0  0  0  0  0  0  0  0  0  0  0  0
  153.0235  144.9214  158.0091 H   0  0  0  0  0  0  0  0  0  0  0  0
  151.6060  144.6254  157.0669 H   0  0  0  0  0  0  0  0  0  0  0  0
  151.0359  146.2376  158.8373 H   0  0  0  0  0  0  0  0  0  0  0  0
  150.1908  144.7402  159.1840 H   0  0  0  0  0  0  0  0  0  0  0  0
  152.9669  143.1670  161.7204 H   0  0  0  0  0  0  0  0  0  0  0  0
  151.4081  142.8057  161.0039 H   0  0  0  0  0  0  0  0  0  0  0  0
  153.3343  141.8105  159.6882 H   0  0  0  0  0  0  0  0  0  0  0  0
  153.9741  143.3994  159.4167 H   0  0  0  0  0  0  0  0  0  0  0  0
  149.8250  139.1417  153.3552 H   0  0  0  0  0  0  0  0  0  0  0  0
  1  2  2  0  0  0  0
  2  3  1  0  0  0  0
  2 14  1  0  0  0  0
  3  4  1  0  0  0  0
  3 20  1  0  0  0  0
  4  5  1  0  0  0  0
  4 21  1  0  0  0  0
  4 22  1  0  0  0  0
  5  6  1  0  0  0  0
  5 23  1  0  0  0  0
  5 24  1  0  0  0  0
  6 10  1  0  0  0  0
  6  7  2  0  0  0  0
  7  8  1  0  0  0  0
  7 36  1  0  0  0  0
  8  9  2  0  0  0  0
  8 25  1  0  0  0  0
  9 10  1  0  0  0  0
  9 26  1  0  0  0  0
 10 11  1  0  0  0  0
 11 12  1  0  0  0  0
 11 13  1  0  0  0  0
 11 27  1  0  0  0  0
 14 19  1  0  0  0  0
 14 15  1  0  0  0  0
 15 16  1  0  0  0  0
 15 28  1  0  0  0  0
 15 29  1  0  0  0  0
 16 17  1  0  0  0  0
 16 30  1  0  0  0  0
 16 31  1  0  0  0  0
 17 18  1  0  0  0  0
 18 19  1  0  0  0  0
 18 32  1  0  0  0  0
 18 33  1  0  0  0  0
 19 34  1  0  0  0  0
 19 35  1  0  0  0  0
M  CHG  1   7   1
M  END
> <s_m_source_file>
AV-unprocessed.smi

> <i_m_source_file_index>
1064

> <i_lp_mmshare_version>
43012

> <i_f3d_flags>
0

> <s_epik_input>
W0NIMl0xW0NIMl1TW0NIMl1bQ0gyXU4xQyg9TylbTkhdW0NIMl1bQ0gyXWMybltjSF1bY0hdbjJbQ0hdKEYpRg==

> <s_epik_cmdline>
J2VwaWtfcHl0aG9uJywgJy1waCcsICc3LjAnLCAnLXRuJywgJzgnLCAnLW1hJywgJzIwMCcsICctbWV0YWxfYmluZGluZycsICctaW1hZScsICc8aW5maWxlLm1hZT4nLCAnLW9tYWUnLCAnPG91dGZpbGUubWFlPic=

> <r_lp_tautomer_probability>
1

> <r_epik_Ionization_Penalty>
1.10071

> <r_epik_Ionization_Penalty_Charging>
0

> <r_epik_Ionization_Penalty_Neutral>
1.10071

> <r_epik_State_Penalty>
1.15778

> <r_epik_Charging_Adjusted_Penalty>
1.15778

> <i_epik_Tot_Q>
1

> <i_epik_Tot_abs_Q>
1

> <r_epik_Metal_State_Penalty>
1.24497

> <b_epik_Metal_Only>
0

> <s_lp_Force_Field>
OPLS_2005

> <r_lp_Energy>
29.6346

> <b_lp_Chiralities_Consistent>
1

> <s_lp_Variant>
AV-unprocessed.smi:1064-2

> <Gold.Version>
5.8.1

> <Gold.Id.Protein>
6NUR|6NUR_protein|mol2

> <Gold.PLP.Fitness>
49.3242

> <Gold.PLP.PLP>
-45.5151

> <Gold.PLP.part.hbond>
-2.0000

> <Gold.PLP.part.metal>
0.0000

> <Gold.PLP.part.buried>
-1.4955

> <Gold.PLP.part.nonpolar>
-42.5298

> <Gold.PLP.part.repulsive>
0.1290

> <Gold.PLP.ligand.clash>
0.0000

> <Gold.PLP.ligand.torsion>
0.2027

> <Gold.PLP.Chemscore.Hbond>
0.3822

> <Gold.PLP.Chemscore.CHOScore>
1.0000

> <Gold.PLP.Chemscore.Metal>
0.0000

> <Gold.Chemscore.Hbonds>
donor molecule, donor type, donor heavy atom, donor atom, acceptor molecule, acceptor atom, score
      L1  H     3    20       P1  8028  0.23
      L1  C     9    26       P1 10175  1.00

> <Gold.PLP.Chemscore.Internal.Correction>
0.0679

> <Gold.Rescore>
     Score         DG    S(hbond)    S(metal)    S(lipo)     H(rot)  DE(clash)    DE(int)     intcor
     14.21     -14.55       0.80        0.00      90.89       1.65       0.18       0.17       ----

> <Gold.Chemscore.Fitness>
14.2082

> <Gold.Chemscore.DG>
-14.5533

> <Gold.Chemscore.ZeroCoef>
-5.4800

> <Gold.Chemscore.Hbond>
0.7994

> <Gold.Chemscore.Metal>
0.0000

> <Gold.Chemscore.Lipo>
90.8864

> <Gold.Chemscore.Internal_Hbond>
0.0000

> <Gold.Chemscore.DEClash>
0.1782

> <Gold.Chemscore.DEInternal>
0.1669

> <Gold.Chemscore.Rot>
1.6525

> <Gold.Chemscore.Internal.Correction>
   9.000000E+99

> <Gold.Chemscore.Hbonds>
donor molecule, donor type, donor heavy atom, donor atom, acceptor molecule, acceptor atom, score
      L1  H     3    20       P1  8028  0.24

> <Gold.Chemscore.Hbond.Weighted>
-2.6700

> <Gold.Chemscore.Metal.Weighted>
-0.0000

> <Gold.Chemscore.Lipo.Weighted>
-10.6337

> <Gold.Chemscore.Internal_Hbond.Weighted>
0.0000

> <Gold.Chemscore.DEClash.Weighted>
0.1782

> <Gold.Chemscore.DEInternal.Weighted>
0.1669

> <Gold.Chemscore.Rot.Weighted>
4.2304

> <Gold.Chemscore.Internal.Correction.Weighted>
   9.000000E+99

> <Gold.Protein.RotatedTorsions>
[ 6907 6896 6895 6894 ] final    2.67 input  -60.11 | X-H torsion
[ 7974 7965 7964 7962 ] final -118.93 input  175.53 | X-H torsion
[ 8008 7997 7996 7995 ] final   84.36 input   59.86 | X-H torsion
[ 10167 10162 10161 10158 ] final   49.90 input  -65.29 | X-H torsion
[ 10718 10713 10712 10709 ] final  -83.52 input   66.30 | X-H torsion
[ 10763 10752 10751 10750 ] final -100.90 input  -60.55 | X-H torsion
[ 11005 11000 10999 10996 ] final   11.17 input  -57.11 | X-H torsion

> <Gold.Protein.ActiveResidues>
 VAL166  LYS551  ARG553  GLY616  TRP617  ASP618  TYR619  PRO620  LYS621  CYS622 
 ASP623  PHE694  ASN695  SER759  ASP760  ASP761  ALA762  ILE779  LEU786  VAL792 
 PHE793  MET794  SER795  GLU796  ALA797  LYS798  CYS799  TRP800  GLU811  SER814 

> <Gold.Protein.RotatedAtoms>
  151.6125  135.1039  160.0084 H   0  0  0  0  0  0  0  0  0  0  0  0  # atno 6907 bound_to 6896
  152.4200  133.7097  159.6482 H   0  0  0  0  0  0  0  0  0  0  0  0  # atno 6908 bound_to 6896
  150.8088  133.8387  159.3214 H   0  0  0  0  0  0  0  0  0  0  0  0  # atno 6909 bound_to 6896
  145.0682  140.8340  143.4111 H   0  0  0  0  0  0  0  0  0  0  0  0  # atno 7974 bound_to 7965
  155.9360  140.3411  155.6288 H   0  0  0  0  0  0  0  0  0  0  0  0  # atno 8008 bound_to 7997
  155.7099  140.0770  157.2394 H   0  0  0  0  0  0  0  0  0  0  0  0  # atno 8009 bound_to 7997
  154.4093  140.1624  156.2271 H   0  0  0  0  0  0  0  0  0  0  0  0  # atno 8010 bound_to 7997
  140.2781  144.3189  150.6272 H   0  0  0  0  0  0  0  0  0  0  0  0  # atno 10167 bound_to 10162
  156.0017  130.4668  150.4270 H   0  0  0  0  0  0  0  0  0  0  0  0  # atno 10718 bound_to 10713
  154.7615  135.4918  153.9474 H   0  0  0  0  0  0  0  0  0  0  0  0  # atno 10763 bound_to 10752
  153.1257  135.6742  153.9268 H   0  0  0  0  0  0  0  0  0  0  0  0  # atno 10764 bound_to 10752
  153.8986  135.3112  155.3427 H   0  0  0  0  0  0  0  0  0  0  0  0  # atno 10765 bound_to 10752
  140.5062  134.0697  155.7806 H   0  0  0  0  0  0  0  0  0  0  0  0  # atno 11005 bound_to 11000
  145.1325  139.2623  143.5532 LP  0  0  0  0  0  0  0  0  0  0  0  0  # atno 17320 bound_to 7965
  146.3527  140.0979  142.8609 LP  0  0  0  0  0  0  0  0  0  0  0  0  # atno 17321 bound_to 7965
  140.5835  143.2171  151.7385 LP  0  0  0  0  0  0  0  0  0  0  0  0  # atno 17342 bound_to 10162
  139.4970  144.4046  152.0146 LP  0  0  0  0  0  0  0  0  0  0  0  0  # atno 17343 bound_to 10162
  157.2322  131.0506  151.2486 LP  0  0  0  0  0  0  0  0  0  0  0  0  # atno 17370 bound_to 10713
  157.3700  130.7176  149.6559 LP  0  0  0  0  0  0  0  0  0  0  0  0  # atno 17371 bound_to 10713
  141.1409  133.9139  157.2327 LP  0  0  0  0  0  0  0  0  0  0  0  0  # atno 17394 bound_to 11000
  139.9685  135.0135  156.9449 LP  0  0  0  0  0  0  0  0  0  0  0  0  # atno 17395 bound_to 11000

$$$$
