AV-unprocessed.smi:19|AV-procd|sdf|111|dock4
  -GOLD-   2262015273D 1   1.00000     0.00000
 Structure written by MMmdl.
 57 60  0  0  0  0  0  0  0  0  1 V2000
  149.2910  145.0394  160.6011 C   0  0  0  0  0  0  0  0  0  0  0  0
  150.2503  144.0048  160.7304 O   0  0  0  0  0  0  0  0  0  0  0  0
  151.5804  144.4764  160.5918 C   0  0  0  0  0  0  0  0  0  0  0  0
  152.4500  143.3617  159.9962 C   0  0  2  0  0  0  0  0  0  0  0  0
  151.6778  142.5273  158.9567 C   0  0  0  0  0  0  0  0  0  0  0  0
  152.5007  141.4138  158.4908 N   0  0  0  0  0  0  0  0  0  0  0  0
  152.0837  140.7230  157.3993 C   0  0  0  0  0  0  0  0  0  0  0  0
  152.8066  139.6626  156.9479 N   0  0  0  0  0  0  0  0  0  0  0  0
  152.4073  138.9823  155.8694 C   0  0  0  0  0  0  0  0  0  0  0  0
  151.3334  139.1869  155.1047 N   0  0  0  0  0  0  0  0  0  0  0  0
  150.6005  140.2455  155.5532 C   0  0  0  0  0  0  0  0  0  0  0  0
  150.8985  141.0570  156.6845 C   0  0  0  0  0  0  0  0  0  0  0  0
  149.9109  142.0214  156.8456 N   0  0  0  0  0  0  0  0  0  0  0  0
  149.0833  141.7986  155.8622 C   0  0  0  0  0  0  0  0  0  0  0  0
  149.4290  140.7616  155.0249 N   0  0  0  0  0  0  0  0  0  0  0  0
  148.6889  140.2978  153.8594 C   0  0  0  0  0  0  0  0  0  0  0  0
  147.6300  139.1929  154.1510 C   0  0  0  0  0  0  0  0  0  0  0  0
  146.7855  138.8876  152.8805 C   0  0  0  0  0  0  0  0  0  0  0  0
  147.5891  138.6955  151.7341 O   0  0  0  0  0  0  0  0  0  0  0  0
  148.3727  137.9287  154.6530 C   0  0  0  0  0  0  0  0  0  0  0  0
  147.4254  136.8701  155.2444 C   0  0  0  0  0  0  0  0  0  0  0  0
  146.6694  137.4403  156.3046 O   0  0  0  0  0  0  0  0  0  0  0  0
  145.8354  138.5067  155.8728 C   0  0  0  0  0  0  0  0  0  0  0  0
  146.6908  139.6508  155.2964 C   0  0  0  0  0  0  0  0  0  0  0  0
  153.0146  140.5900  159.5797 C   0  0  0  0  0  0  0  0  0  0  0  0
  153.7416  141.4693  160.6132 C   0  0  2  0  0  0  0  0  0  0  0  0
  154.1947  140.6651  161.8361 C   0  0  0  0  0  0  0  0  0  0  0  0
  152.8573  142.4965  161.0540 O   0  0  0  0  0  0  0  0  0  0  0  0
  148.2885  144.6254  160.7071 H   0  0  0  0  0  0  0  0  0  0  0  0
  149.3560  145.5181  159.6232 H   0  0  0  0  0  0  0  0  0  0  0  0
  149.4245  145.7990  161.3723 H   0  0  0  0  0  0  0  0  0  0  0  0
  151.6150  145.3676  159.9628 H   0  0  0  0  0  0  0  0  0  0  0  0
  151.9620  144.7543  161.5757 H   0  0  0  0  0  0  0  0  0  0  0  0
  153.3267  143.8085  159.5234 H   0  0  0  0  0  0  0  0  0  0  0  0
  150.7581  142.1393  159.3974 H   0  0  0  0  0  0  0  0  0  0  0  0
  151.3951  143.1601  158.1141 H   0  0  0  0  0  0  0  0  0  0  0  0
  153.0399  138.1574  155.5762 H   0  0  0  0  0  0  0  0  0  0  0  0
  148.1930  142.3931  155.7173 H   0  0  0  0  0  0  0  0  0  0  0  0
  148.2162  141.1619  153.3908 H   0  0  0  0  0  0  0  0  0  0  0  0
  149.4171  139.9356  153.1324 H   0  0  0  0  0  0  0  0  0  0  0  0
  146.1808  137.9911  153.0064 H   0  0  0  0  0  0  0  0  0  0  0  0
  146.0823  139.6950  152.6759 H   0  0  0  0  0  0  0  0  0  0  0  0
  148.2253  139.3941  151.6938 H   0  0  0  0  0  0  0  0  0  0  0  0
  148.9696  137.4863  153.8550 H   0  0  0  0  0  0  0  0  0  0  0  0
  149.0837  138.2113  155.4308 H   0  0  0  0  0  0  0  0  0  0  0  0
  146.7626  136.4528  154.4857 H   0  0  0  0  0  0  0  0  0  0  0  0
  148.0053  136.0376  155.6425 H   0  0  0  0  0  0  0  0  0  0  0  0
  145.1057  138.1445  155.1481 H   0  0  0  0  0  0  0  0  0  0  0  0
  145.2654  138.8681  156.7288 H   0  0  0  0  0  0  0  0  0  0  0  0
  147.2871  140.0684  156.1090 H   0  0  0  0  0  0  0  0  0  0  0  0
  146.0336  140.4523  154.9583 H   0  0  0  0  0  0  0  0  0  0  0  0
  152.1790  140.0697  160.0501 H   0  0  0  0  0  0  0  0  0  0  0  0
  153.6964  139.8236  159.2132 H   0  0  0  0  0  0  0  0  0  0  0  0
  154.6198  141.9258  160.1530 H   0  0  0  0  0  0  0  0  0  0  0  0
  154.8761  139.8640  161.5486 H   0  0  0  0  0  0  0  0  0  0  0  0
  153.3447  140.2143  162.3491 H   0  0  0  0  0  0  0  0  0  0  0  0
  154.7152  141.3031  162.5508 H   0  0  0  0  0  0  0  0  0  0  0  0
  1  2  1  0  0  0  0
  1 29  1  0  0  0  0
  1 30  1  0  0  0  0
  1 31  1  0  0  0  0
  2  3  1  0  0  0  0
  3  4  1  0  0  0  0
  3 32  1  0  0  0  0
  3 33  1  0  0  0  0
  4 28  1  0  0  0  0
  4  5  1  0  0  0  0
  4 34  1  0  0  0  0
  5  6  1  0  0  0  0
  5 35  1  0  0  0  0
  5 36  1  0  0  0  0
  6  7  1  0  0  0  0
  6 25  1  0  0  0  0
  7 12  1  0  0  0  0
  7  8  2  0  0  0  0
  8  9  1  0  0  0  0
  9 10  2  0  0  0  0
  9 37  1  0  0  0  0
 10 11  1  0  0  0  0
 11 15  1  0  0  0  0
 11 12  2  0  0  0  0
 12 13  1  0  0  0  0
 13 14  2  0  0  0  0
 14 15  1  0  0  0  0
 14 38  1  0  0  0  0
 15 16  1  0  0  0  0
 16 17  1  0  0  0  0
 16 39  1  0  0  0  0
 16 40  1  0  0  0  0
 17 24  1  0  0  0  0
 17 18  1  0  0  0  0
 17 20  1  0  0  0  0
 18 19  1  0  0  0  0
 18 41  1  0  0  0  0
 18 42  1  0  0  0  0
 19 43  1  0  0  0  0
 20 21  1  0  0  0  0
 20 44  1  0  0  0  0
 20 45  1  0  0  0  0
 21 22  1  0  0  0  0
 21 46  1  0  0  0  0
 21 47  1  0  0  0  0
 22 23  1  0  0  0  0
 23 24  1  0  0  0  0
 23 48  1  0  0  0  0
 23 49  1  0  0  0  0
 24 50  1  0  0  0  0
 24 51  1  0  0  0  0
 25 26  1  0  0  0  0
 25 52  1  0  0  0  0
 25 53  1  0  0  0  0
 26 27  1  0  0  0  0
 26 28  1  0  0  0  0
 26 54  1  0  0  0  0
 27 55  1  0  0  0  0
 27 56  1  0  0  0  0
 27 57  1  0  0  0  0
M  END
> <s_m_source_file>
AV-unprocessed.smi

> <i_m_source_file_index>
19

> <i_lp_mmshare_version>
43012

> <i_f3d_flags>
0

> <s_epik_input>
W0NIM11PW0NIMl1bQ0BASF0xW0NIMl1OKFtDSDJdW0NASF0oTzEpW0NIM10pYyhuW2NIXW4yKWMoYzIzKW5bY0hdbjNbQ0gyXUM0KFtDSDJdW09IXSlbQ0gyXVtDSDJdT1tDSDJdW0NIMl00

> <s_epik_cmdline>
J2VwaWtfcHl0aG9uJywgJy1waCcsICc3LjAnLCAnLXRuJywgJzgnLCAnLW1hJywgJzIwMCcsICctbWV0YWxfYmluZGluZycsICctaW1hZScsICc8aW5maWxlLm1hZT4nLCAnLW9tYWUnLCAnPG91dGZpbGUubWFlPic=

> <r_lp_tautomer_probability>
1

> <r_epik_Ionization_Penalty>
6.20357e-05

> <r_epik_Ionization_Penalty_Charging>
0

> <r_epik_Ionization_Penalty_Neutral>
6.20357e-05

> <r_epik_State_Penalty>
-0

> <r_epik_Charging_Adjusted_Penalty>
0

> <i_epik_Tot_Q>
0

> <i_epik_Tot_abs_Q>
0

> <r_epik_Metal_State_Penalty>
-0

> <b_epik_Metal_Only>
0

> <s_lp_Force_Field>
OPLS_2005

> <r_lp_Energy>
33.9592

> <b_lp_Chiralities_Consistent>
1

> <s_lp_Variant>
AV-unprocessed.smi:19-3

> <Gold.Version>
5.8.1

> <Gold.Id.Protein>
6NUR|6NUR_protein|mol2

> <Gold.PLP.Fitness>
51.7647

> <Gold.PLP.PLP>
-44.1101

> <Gold.PLP.part.hbond>
-4.6457

> <Gold.PLP.part.metal>
0.0000

> <Gold.PLP.part.buried>
-1.4628

> <Gold.PLP.part.nonpolar>
-36.8846

> <Gold.PLP.part.repulsive>
0.3476

> <Gold.PLP.ligand.clash>
0.0000

> <Gold.PLP.ligand.torsion>
1.2036

> <Gold.PLP.Chemscore.Hbond>
2.6608

> <Gold.PLP.Chemscore.CHOScore>
0.5685

> <Gold.PLP.Chemscore.Metal>
0.0000

> <Gold.Chemscore.Hbonds>
donor molecule, donor type, donor heavy atom, donor atom, acceptor molecule, acceptor atom, score
      L1  H    19    43       P1  7957  1.00
      P1  H  7954  7966       L1    19  0.53
      P1  H  7997  8009       L1     8  1.00
      L1  C    14    38       P1  8028  0.56

> <Gold.PLP.Chemscore.Internal.Correction>
0.3739

> <Gold.Rescore>
     Score         DG    S(hbond)    S(metal)    S(lipo)     H(rot)  DE(clash)    DE(int)     intcor
     11.32     -14.46       1.55        0.00      95.31       2.87       0.73       2.41       ----

> <Gold.Chemscore.Fitness>
11.3199

> <Gold.Chemscore.DG>
-14.4611

> <Gold.Chemscore.ZeroCoef>
-5.4800

> <Gold.Chemscore.Hbond>
1.5523

> <Gold.Chemscore.Metal>
0.0000

> <Gold.Chemscore.Lipo>
95.3081

> <Gold.Chemscore.Internal_Hbond>
0.0000

> <Gold.Chemscore.DEClash>
0.7282

> <Gold.Chemscore.DEInternal>
2.4129

> <Gold.Chemscore.Rot>
2.8729

> <Gold.Chemscore.Internal.Correction>
   9.000000E+99

> <Gold.Chemscore.Hbonds>
donor molecule, donor type, donor heavy atom, donor atom, acceptor molecule, acceptor atom, score
      L1  H    19    43       P1  7957  0.93
      P1  H  7954  7966       L1    19  0.04
      P1  H  7997  8009       L1     8  0.55

> <Gold.Chemscore.Hbond.Weighted>
-5.1847

> <Gold.Chemscore.Metal.Weighted>
-0.0000

> <Gold.Chemscore.Lipo.Weighted>
-11.1510

> <Gold.Chemscore.Internal_Hbond.Weighted>
0.0000

> <Gold.Chemscore.DEClash.Weighted>
0.7282

> <Gold.Chemscore.DEInternal.Weighted>
2.4129

> <Gold.Chemscore.Rot.Weighted>
7.3546

> <Gold.Chemscore.Internal.Correction.Weighted>
   9.000000E+99

> <Gold.Protein.RotatedTorsions>
[ 6907 6896 6895 6894 ] final  -53.33 input  -60.11 | X-H torsion
[ 7974 7965 7964 7962 ] final  116.58 input  175.53 | X-H torsion
[ 8008 7997 7996 7995 ] final  171.45 input   59.86 | X-H torsion
[ 10167 10162 10161 10158 ] final  171.54 input  -65.29 | X-H torsion
[ 10718 10713 10712 10709 ] final  -62.08 input   66.30 | X-H torsion
[ 10763 10752 10751 10750 ] final  -38.85 input  -60.55 | X-H torsion
[ 11005 11000 10999 10996 ] final   23.56 input  -57.11 | X-H torsion

> <Gold.Protein.ActiveResidues>
 VAL166  LYS551  ARG553  GLY616  TRP617  ASP618  TYR619  PRO620  LYS621  CYS622 
 ASP623  PHE694  ASN695  SER759  ASP760  ASP761  ALA762  ILE779  LEU786  VAL792 
 PHE793  MET794  SER795  GLU796  ALA797  LYS798  CYS799  TRP800  GLU811  SER814 

> <Gold.Protein.RotatedAtoms>
  150.8437  134.7738  159.6952 H   0  0  0  0  0  0  0  0  0  0  0  0  # atno 6907 bound_to 6896
  152.4518  134.5373  159.9838 H   0  0  0  0  0  0  0  0  0  0  0  0  # atno 6908 bound_to 6896
  151.5508  133.3380  159.2988 H   0  0  0  0  0  0  0  0  0  0  0  0  # atno 6909 bound_to 6896
  145.1778  139.3066  143.4434 H   0  0  0  0  0  0  0  0  0  0  0  0  # atno 7974 bound_to 7965
  156.1269  140.1511  156.9122 H   0  0  0  0  0  0  0  0  0  0  0  0  # atno 8008 bound_to 7997
  154.4879  140.0860  156.7568 H   0  0  0  0  0  0  0  0  0  0  0  0  # atno 8009 bound_to 7997
  155.4326  140.3428  155.4284 H   0  0  0  0  0  0  0  0  0  0  0  0  # atno 8010 bound_to 7997
  139.5050  144.3474  151.9957 H   0  0  0  0  0  0  0  0  0  0  0  0  # atno 10167 bound_to 10162
  156.0879  130.4205  150.1084 H   0  0  0  0  0  0  0  0  0  0  0  0  # atno 10718 bound_to 10713
  153.9197  135.6783  153.4748 H   0  0  0  0  0  0  0  0  0  0  0  0  # atno 10763 bound_to 10752
  153.1035  135.4817  154.8906 H   0  0  0  0  0  0  0  0  0  0  0  0  # atno 10764 bound_to 10752
  154.7484  135.3178  154.8559 H   0  0  0  0  0  0  0  0  0  0  0  0  # atno 10765 bound_to 10752
  140.3683  134.2050  155.7668 H   0  0  0  0  0  0  0  0  0  0  0  0  # atno 11005 bound_to 11000
  146.3458  140.1947  142.8589 LP  0  0  0  0  0  0  0  0  0  0  0  0  # atno 17320 bound_to 7965
  145.0167  140.8759  143.5192 LP  0  0  0  0  0  0  0  0  0  0  0  0  # atno 17321 bound_to 7965
  140.2911  144.3753  150.6088 LP  0  0  0  0  0  0  0  0  0  0  0  0  # atno 17342 bound_to 10162
  140.5946  143.2167  151.7189 LP  0  0  0  0  0  0  0  0  0  0  0  0  # atno 17343 bound_to 10162
  156.9101  130.9649  151.3564 LP  0  0  0  0  0  0  0  0  0  0  0  0  # atno 17370 bound_to 10713
  157.6019  130.8519  149.8815 LP  0  0  0  0  0  0  0  0  0  0  0  0  # atno 17371 bound_to 10713
  141.1962  133.8087  157.0680 LP  0  0  0  0  0  0  0  0  0  0  0  0  # atno 17394 bound_to 11000
  140.0572  134.9774  157.1240 LP  0  0  0  0  0  0  0  0  0  0  0  0  # atno 17395 bound_to 11000

$$$$
