AV-unprocessed.smi:2741|AV-procd|sdf|10559|dock7
  -GOLD-   2272015 13D 1   1.00000     0.00000
 Structure written by MMmdl.
 39 40  0  0  0  0  0  0  0  0  1 V2000
  150.7804  139.1050  158.9382 O   0  0  0  0  0  0  0  0  0  0  0  0
  151.6364  139.3565  158.0893 C   0  0  0  0  0  0  0  0  0  0  0  0
  153.0447  139.7993  158.5080 C   0  0  0  0  0  0  0  0  0  0  0  0
  153.0294  140.9301  159.4511 N   0  0  0  0  0  0  0  0  0  0  0  0
  152.4423  142.1320  159.0082 C   0  0  0  0  0  0  0  0  0  0  0  0
  152.3519  143.2316  159.7806 C   0  0  0  0  0  0  0  0  0  0  0  0
  151.7569  144.5283  159.2540 C   0  0  0  0  0  0  0  0  0  0  0  0
  151.8710  145.5103  160.1485 F   0  0  0  0  0  0  0  0  0  0  0  0
  152.3652  144.9122  158.1309 F   0  0  0  0  0  0  0  0  0  0  0  0
  150.4631  144.3577  158.9860 F   0  0  0  0  0  0  0  0  0  0  0  0
  152.9258  143.1364  161.1088 C   0  0  0  0  0  0  0  0  0  0  0  0
  153.4972  141.9970  161.5454 C   0  0  0  0  0  0  0  0  0  0  0  0
  153.5678  140.8023  160.7013 C   0  0  0  0  0  0  0  0  0  0  0  0
  154.0794  139.7525  161.0925 O   0  0  0  0  0  0  0  0  0  0  0  0
  151.4095  139.2784  156.7698 N   0  0  0  0  0  0  0  0  0  0  0  0
  150.1593  138.8427  156.1573 C   0  0  0  0  0  0  0  0  0  0  0  0
  149.7438  139.7489  154.9813 C   0  0  1  0  0  0  0  0  0  0  0  0
  148.5655  139.1949  154.1587 C   0  0  0  0  0  0  0  0  0  0  0  0
  147.6808  140.3968  153.7906 C   0  0  0  0  0  0  0  0  0  0  0  0
  148.4790  141.6364  154.2021 C   0  0  1  0  0  0  0  0  0  0  0  0
  147.6443  142.7264  154.5327 O   0  0  0  0  0  0  0  0  0  0  0  0
  149.3118  141.1626  155.3906 C   0  0  0  0  0  0  0  0  0  0  0  0
  153.5825  138.9571  158.9481 H   0  0  0  0  0  0  0  0  0  0  0  0
  153.6015  140.0532  157.6053 H   0  0  0  0  0  0  0  0  0  0  0  0
  152.0639  142.1030  157.9967 H   0  0  0  0  0  0  0  0  0  0  0  0
  152.8938  143.9914  161.7682 H   0  0  0  0  0  0  0  0  0  0  0  0
  153.9121  141.9610  162.5421 H   0  0  0  0  0  0  0  0  0  0  0  0
  152.1667  139.5112  156.1435 H   0  0  0  0  0  0  0  0  0  0  0  0
  150.2491  137.8070  155.8254 H   0  0  0  0  0  0  0  0  0  0  0  0
  149.3876  138.8543  156.9277 H   0  0  0  0  0  0  0  0  0  0  0  0
  150.5912  139.8525  154.3013 H   0  0  0  0  0  0  0  0  0  0  0  0
  148.9306  138.6848  153.2667 H   0  0  0  0  0  0  0  0  0  0  0  0
  147.9851  138.4685  154.7287 H   0  0  0  0  0  0  0  0  0  0  0  0
  147.4152  140.4116  152.7331 H   0  0  0  0  0  0  0  0  0  0  0  0
  146.7516  140.3407  154.3597 H   0  0  0  0  0  0  0  0  0  0  0  0
  149.1435  141.9297  153.3880 H   0  0  0  0  0  0  0  0  0  0  0  0
  148.1720  143.3980  154.9368 H   0  0  0  0  0  0  0  0  0  0  0  0
  148.6955  141.1194  156.2902 H   0  0  0  0  0  0  0  0  0  0  0  0
  150.1589  141.8186  155.5952 H   0  0  0  0  0  0  0  0  0  0  0  0
  1  2  2  0  0  0  0
  2  3  1  0  0  0  0
  2 15  1  0  0  0  0
  3  4  1  0  0  0  0
  3 23  1  0  0  0  0
  3 24  1  0  0  0  0
  4 13  1  0  0  0  0
  4  5  1  0  0  0  0
  5  6  2  0  0  0  0
  5 25  1  0  0  0  0
  6  7  1  0  0  0  0
  6 11  1  0  0  0  0
  7  8  1  0  0  0  0
  7  9  1  0  0  0  0
  7 10  1  0  0  0  0
 11 12  2  0  0  0  0
 11 26  1  0  0  0  0
 12 13  1  0  0  0  0
 12 27  1  0  0  0  0
 13 14  2  0  0  0  0
 15 16  1  0  0  0  0
 15 28  1  0  0  0  0
 16 17  1  0  0  0  0
 16 29  1  0  0  0  0
 16 30  1  0  0  0  0
 17 22  1  0  0  0  0
 17 18  1  0  0  0  0
 17 31  1  0  0  0  0
 18 19  1  0  0  0  0
 18 32  1  0  0  0  0
 18 33  1  0  0  0  0
 19 20  1  0  0  0  0
 19 34  1  0  0  0  0
 19 35  1  0  0  0  0
 20 21  1  0  0  0  0
 20 22  1  0  0  0  0
 20 36  1  0  0  0  0
 21 37  1  0  0  0  0
 22 38  1  0  0  0  0
 22 39  1  0  0  0  0
M  END
> <s_m_source_file>
AV-unprocessed.smi

> <i_m_source_file_index>
2741

> <i_lp_mmshare_version>
43012

> <i_f3d_flags>
0

> <s_epik_input>
W09IXVtDQEBIXShbQ0gyXTEpW0NIMl1bQ0gyXVtDQEhdMVtDSDJdW05IXUMoPU8pW0NIMl1uMltjSF1jKEMoRikoRilGKVtjSF1bY0hdYzI9Tw==

> <s_epik_cmdline>
J2VwaWtfcHl0aG9uJywgJy1waCcsICc3LjAnLCAnLXRuJywgJzgnLCAnLW1hJywgJzIwMCcsICctbWV0YWxfYmluZGluZycsICctaW1hZScsICc8aW5maWxlLm1hZT4nLCAnLW9tYWUnLCAnPG91dGZpbGUubWFlPic=

> <r_lp_tautomer_probability>
1

> <r_epik_Ionization_Penalty>
1.17551e-06

> <r_epik_Ionization_Penalty_Charging>
1.78841e-08

> <r_epik_Ionization_Penalty_Neutral>
1.15762e-06

> <r_epik_State_Penalty>
-0

> <r_epik_Charging_Adjusted_Penalty>
1.78841e-08

> <i_epik_Tot_Q>
0

> <i_epik_Tot_abs_Q>
0

> <r_epik_Metal_State_Penalty>
-0

> <b_epik_Metal_Only>
0

> <s_lp_Force_Field>
OPLS_2005

> <r_lp_Energy>
32.8711

> <b_lp_Chiralities_Consistent>
1

> <s_lp_Variant>
AV-unprocessed.smi:2741-2

> <Gold.Version>
5.8.1

> <Gold.Id.Protein>
6NUR|6NUR_protein|mol2

> <Gold.PLP.Fitness>
53.4733

> <Gold.PLP.PLP>
-50.9394

> <Gold.PLP.part.hbond>
-1.5134

> <Gold.PLP.part.metal>
0.0000

> <Gold.PLP.part.buried>
-3.7722

> <Gold.PLP.part.nonpolar>
-45.6252

> <Gold.PLP.part.repulsive>
0.0673

> <Gold.PLP.ligand.clash>
0.0000

> <Gold.PLP.ligand.torsion>
0.2561

> <Gold.PLP.Chemscore.Hbond>
1.0000

> <Gold.PLP.Chemscore.CHOScore>
0.0000

> <Gold.PLP.Chemscore.Metal>
0.0000

> <Gold.Chemscore.Hbonds>
donor molecule, donor type, donor heavy atom, donor atom, acceptor molecule, acceptor atom, score
      L1  H    21    37       P1  8028  1.00

> <Gold.PLP.Chemscore.Internal.Correction>
0.0460

> <Gold.Rescore>
     Score         DG    S(hbond)    S(metal)    S(lipo)     H(rot)  DE(clash)    DE(int)     intcor
     13.74     -14.03       0.99        0.00      99.12       2.48       0.09       0.20       ----

> <Gold.Chemscore.Fitness>
13.7377

> <Gold.Chemscore.DG>
-14.0314

> <Gold.Chemscore.ZeroCoef>
-5.4800

> <Gold.Chemscore.Hbond>
0.9896

> <Gold.Chemscore.Metal>
0.0000

> <Gold.Chemscore.Lipo>
99.1172

> <Gold.Chemscore.Internal_Hbond>
0.0000

> <Gold.Chemscore.DEClash>
0.0918

> <Gold.Chemscore.DEInternal>
0.2019

> <Gold.Chemscore.Rot>
2.4807

> <Gold.Chemscore.Internal.Correction>
   9.000000E+99

> <Gold.Chemscore.Hbonds>
donor molecule, donor type, donor heavy atom, donor atom, acceptor molecule, acceptor atom, score
      L1  H    21    37       P1  8028  0.92

> <Gold.Chemscore.Hbond.Weighted>
-3.3054

> <Gold.Chemscore.Metal.Weighted>
-0.0000

> <Gold.Chemscore.Lipo.Weighted>
-11.5967

> <Gold.Chemscore.Internal_Hbond.Weighted>
0.0000

> <Gold.Chemscore.DEClash.Weighted>
0.0918

> <Gold.Chemscore.DEInternal.Weighted>
0.2019

> <Gold.Chemscore.Rot.Weighted>
6.3507

> <Gold.Chemscore.Internal.Correction.Weighted>
   9.000000E+99

> <Gold.Protein.RotatedTorsions>
[ 6907 6896 6895 6894 ] final -110.89 input  -60.11 | X-H torsion
[ 7974 7965 7964 7962 ] final   13.65 input  175.53 | X-H torsion
[ 8008 7997 7996 7995 ] final -151.77 input   59.86 | X-H torsion
[ 10167 10162 10161 10158 ] final  -21.26 input  -65.29 | X-H torsion
[ 10718 10713 10712 10709 ] final  -26.33 input   66.30 | X-H torsion
[ 10763 10752 10751 10750 ] final -116.56 input  -60.55 | X-H torsion
[ 11005 11000 10999 10996 ] final  117.99 input  -57.11 | X-H torsion

> <Gold.Protein.ActiveResidues>
 VAL166  LYS551  ARG553  GLY616  TRP617  ASP618  TYR619  PRO620  LYS621  CYS622 
 ASP623  PHE694  ASN695  SER759  ASP760  ASP761  ALA762  ILE779  LEU786  VAL792 
 PHE793  MET794  SER795  GLU796  ALA797  LYS798  CYS799  TRP800  GLU811  SER814 

> <Gold.Protein.RotatedAtoms>
  150.7654  133.9315  159.3428 H   0  0  0  0  0  0  0  0  0  0  0  0  # atno 6907 bound_to 6896
  151.7214  135.0891  160.0294 H   0  0  0  0  0  0  0  0  0  0  0  0  # atno 6908 bound_to 6896
  152.3647  133.6304  159.6077 H   0  0  0  0  0  0  0  0  0  0  0  0  # atno 6909 bound_to 6896
  146.2324  139.9157  142.8517 H   0  0  0  0  0  0  0  0  0  0  0  0  # atno 7974 bound_to 7965
  155.6447  140.0705  157.2607 H   0  0  0  0  0  0  0  0  0  0  0  0  # atno 8008 bound_to 7997
  154.4176  140.1744  156.1660 H   0  0  0  0  0  0  0  0  0  0  0  0  # atno 8009 bound_to 7997
  155.9826  140.3352  155.6681 H   0  0  0  0  0  0  0  0  0  0  0  0  # atno 8010 bound_to 7997
  140.7281  143.4644  151.0334 H   0  0  0  0  0  0  0  0  0  0  0  0  # atno 10167 bound_to 10162
  156.4526  130.4487  149.6980 H   0  0  0  0  0  0  0  0  0  0  0  0  # atno 10718 bound_to 10713
  154.8524  135.4341  154.1841 H   0  0  0  0  0  0  0  0  0  0  0  0  # atno 10763 bound_to 10752
  153.2924  135.6962  153.7286 H   0  0  0  0  0  0  0  0  0  0  0  0  # atno 10764 bound_to 10752
  153.6448  135.3461  155.3057 H   0  0  0  0  0  0  0  0  0  0  0  0  # atno 10765 bound_to 10752
  139.9093  134.9616  156.7434 H   0  0  0  0  0  0  0  0  0  0  0  0  # atno 11005 bound_to 11000
  145.2185  140.9925  143.4059 LP  0  0  0  0  0  0  0  0  0  0  0  0  # atno 17320 bound_to 7965
  144.9630  139.3960  143.6346 LP  0  0  0  0  0  0  0  0  0  0  0  0  # atno 17321 bound_to 7965
  139.8332  143.7663  152.3180 LP  0  0  0  0  0  0  0  0  0  0  0  0  # atno 17342 bound_to 10162
  139.7786  144.7452  151.0120 LP  0  0  0  0  0  0  0  0  0  0  0  0  # atno 17343 bound_to 10162
  156.3800  130.7574  151.2566 LP  0  0  0  0  0  0  0  0  0  0  0  0  # atno 17370 bound_to 10713
  157.7502  131.0298  150.4110 LP  0  0  0  0  0  0  0  0  0  0  0  0  # atno 17371 bound_to 10713
  140.6831  133.9457  155.7922 LP  0  0  0  0  0  0  0  0  0  0  0  0  # atno 17394 bound_to 11000
  141.0496  134.0504  157.3801 LP  0  0  0  0  0  0  0  0  0  0  0  0  # atno 17395 bound_to 11000

$$$$
