AV-unprocessed.smi:84|AV-procd|sdf|809|dock6
  -GOLD-   2262017203D 1   1.00000     0.00000
 Structure written by MMmdl.
 51 55  0  0  0  0  0  0  0  0  1 V2000
  156.0265  130.4703  153.9986 O   0  0  0  0  0  0  0  0  0  0  0  0
  155.1628  130.0549  154.7676 C   0  0  0  0  0  0  0  0  0  0  0  0
  153.7565  129.6751  154.3326 C   0  0  0  0  0  0  0  0  0  0  0  0
  152.9895  129.6226  155.6716 C   0  0  2  0  0  0  0  0  0  0  0  0
  151.8416  128.6046  155.6817 C   0  0  0  0  0  0  0  0  0  0  0  0
  150.6782  129.3795  155.0657 C   0  0  0  0  0  0  0  0  0  0  0  0
  150.8854  130.7565  155.4892 N   0  0  0  0  0  0  0  0  0  0  0  0
  150.1352  131.7799  155.0050 C   0  0  0  0  0  0  0  0  0  0  0  0
  150.4648  133.0518  155.3545 N   0  0  0  0  0  0  0  0  0  0  0  0
  149.7540  134.0873  154.8997 C   0  0  0  0  0  0  0  0  0  0  0  0
  148.6920  134.0797  154.0933 N   0  0  0  0  0  0  0  0  0  0  0  0
  148.3583  132.8089  153.7289 C   0  0  0  0  0  0  0  0  0  0  0  0
  149.0227  131.6131  154.1275 C   0  0  0  0  0  0  0  0  0  0  0  0
  148.4102  130.5185  153.5260 N   0  0  0  0  0  0  0  0  0  0  0  0
  147.4417  131.0355  152.8211 C   0  0  0  0  0  0  0  0  0  0  0  0
  147.3215  132.4035  152.9069 N   0  0  0  0  0  0  0  0  0  0  0  0
  146.3796  133.2330  152.2146 C   0  0  0  0  0  0  0  0  0  0  0  0
  144.9367  132.7685  151.9969 C   0  0  0  0  0  0  0  0  0  0  0  0
  144.9030  133.5428  150.6585 C   0  0  0  0  0  0  0  0  0  0  0  0
  144.1896  132.8707  149.4686 C   0  0  0  0  0  0  0  0  0  0  0  0
  142.8723  132.4653  149.7827 O   0  0  0  0  0  0  0  0  0  0  0  0
  144.3783  134.9886  150.7451 C   0  0  0  0  0  0  0  0  0  0  0  0
  144.7204  135.7343  149.5944 O   0  0  0  0  0  0  0  0  0  0  0  0
  146.4444  133.4259  150.6954 C   0  0  0  0  0  0  0  0  0  0  0  0
  152.2575  130.9560  155.9359 C   0  0  0  0  0  0  0  0  0  0  0  0
  154.1033  129.3525  156.7050 C   0  0  0  0  0  0  0  0  0  0  0  0
  155.3057  129.8687  156.0790 N   0  0  0  0  0  0  0  0  0  0  0  0
  153.3398  130.3921  153.6240 H   0  0  0  0  0  0  0  0  0  0  0  0
  153.7954  128.6986  153.8484 H   0  0  0  0  0  0  0  0  0  0  0  0
  152.0686  127.6829  155.1452 H   0  0  0  0  0  0  0  0  0  0  0  0
  151.5938  128.3368  156.7099 H   0  0  0  0  0  0  0  0  0  0  0  0
  150.7137  129.3181  153.9768 H   0  0  0  0  0  0  0  0  0  0  0  0
  149.7146  128.9957  155.4028 H   0  0  0  0  0  0  0  0  0  0  0  0
  150.0833  135.0614  155.2302 H   0  0  0  0  0  0  0  0  0  0  0  0
  146.7837  130.4259  152.2192 H   0  0  0  0  0  0  0  0  0  0  0  0
  146.3984  134.1964  152.7266 H   0  0  0  0  0  0  0  0  0  0  0  0
  144.8662  131.6860  151.8789 H   0  0  0  0  0  0  0  0  0  0  0  0
  144.2355  133.1197  152.7542 H   0  0  0  0  0  0  0  0  0  0  0  0
  144.1288  133.5457  148.6145 H   0  0  0  0  0  0  0  0  0  0  0  0
  144.7394  131.9901  149.1348 H   0  0  0  0  0  0  0  0  0  0  0  0
  142.2674  133.0589  149.3644 H   0  0  0  0  0  0  0  0  0  0  0  0
  143.2931  135.0130  150.8465 H   0  0  0  0  0  0  0  0  0  0  0  0
  144.7767  135.4984  151.6231 H   0  0  0  0  0  0  0  0  0  0  0  0
  144.3703  136.6072  149.6878 H   0  0  0  0  0  0  0  0  0  0  0  0
  146.9797  134.3216  150.3788 H   0  0  0  0  0  0  0  0  0  0  0  0
  146.8298  132.5442  150.1812 H   0  0  0  0  0  0  0  0  0  0  0  0
  152.2317  131.1901  157.0005 H   0  0  0  0  0  0  0  0  0  0  0  0
  152.7435  131.7871  155.4234 H   0  0  0  0  0  0  0  0  0  0  0  0
  153.9189  129.8261  157.6697 H   0  0  0  0  0  0  0  0  0  0  0  0
  154.2325  128.2826  156.8747 H   0  0  0  0  0  0  0  0  0  0  0  0
  156.1556  130.0535  156.5922 H   0  0  0  0  0  0  0  0  0  0  0  0
  1  2  2  0  0  0  0
  2 27  1  0  0  0  0
  2  3  1  0  0  0  0
  3  4  1  0  0  0  0
  3 28  1  0  0  0  0
  3 29  1  0  0  0  0
  4 25  1  0  0  0  0
  4  5  1  0  0  0  0
  4 26  1  0  0  0  0
  5  6  1  0  0  0  0
  5 30  1  0  0  0  0
  5 31  1  0  0  0  0
  6  7  1  0  0  0  0
  6 32  1  0  0  0  0
  6 33  1  0  0  0  0
  7  8  1  0  0  0  0
  7 25  1  0  0  0  0
  8 13  1  0  0  0  0
  8  9  2  0  0  0  0
  9 10  1  0  0  0  0
 10 11  2  0  0  0  0
 10 34  1  0  0  0  0
 11 12  1  0  0  0  0
 12 16  1  0  0  0  0
 12 13  2  0  0  0  0
 13 14  1  0  0  0  0
 14 15  2  0  0  0  0
 15 16  1  0  0  0  0
 15 35  1  0  0  0  0
 16 17  1  0  0  0  0
 17 24  1  0  0  0  0
 17 18  1  0  0  0  0
 17 36  1  0  0  0  0
 18 19  1  0  0  0  0
 18 37  1  0  0  0  0
 18 38  1  0  0  0  0
 19 20  1  0  0  0  0
 19 22  1  0  0  0  0
 19 24  1  0  0  0  0
 20 21  1  0  0  0  0
 20 39  1  0  0  0  0
 20 40  1  0  0  0  0
 21 41  1  0  0  0  0
 22 23  1  0  0  0  0
 22 42  1  0  0  0  0
 22 43  1  0  0  0  0
 23 44  1  0  0  0  0
 24 45  1  0  0  0  0
 24 46  1  0  0  0  0
 25 47  1  0  0  0  0
 25 48  1  0  0  0  0
 26 27  1  0  0  0  0
 26 49  1  0  0  0  0
 26 50  1  0  0  0  0
 27 51  1  0  0  0  0
M  END
> <s_m_source_file>
AV-unprocessed.smi

> <i_m_source_file_index>
84

> <i_lp_mmshare_version>
43012

> <i_f3d_flags>
0

> <s_epik_input>
W0NIMl0xW05IXUMoPU8pW0NIMl1bQ0BdMTJbQ0gyXVtDSDJdTihbQ0gyXTIpYyhuW2NIXW4zKWMoYzM0KW5bY0hdbjRbQ0hdKFtDSDJdNSlbQ0gyXUM1KFtDSDJdW09IXSlbQ0gyXVtPSF0=

> <s_epik_cmdline>
J2VwaWtfcHl0aG9uJywgJy1waCcsICc3LjAnLCAnLXRuJywgJzgnLCAnLW1hJywgJzIwMCcsICctbWV0YWxfYmluZGluZycsICctaW1hZScsICc8aW5maWxlLm1hZT4nLCAnLW9tYWUnLCAnPG91dGZpbGUubWFlPic=

> <r_lp_tautomer_probability>
1

> <r_epik_Ionization_Penalty>
0.00201507

> <r_epik_Ionization_Penalty_Charging>
0

> <r_epik_Ionization_Penalty_Neutral>
0.00201507

> <r_epik_State_Penalty>
0.00133787

> <r_epik_Charging_Adjusted_Penalty>
0.00133787

> <i_epik_Tot_Q>
0

> <i_epik_Tot_abs_Q>
0

> <r_epik_Metal_State_Penalty>
-0

> <b_epik_Metal_Only>
0

> <s_lp_Force_Field>
OPLS_2005

> <r_lp_Energy>
68.8544

> <b_lp_Chiralities_Consistent>
1

> <s_lp_Variant>
AV-unprocessed.smi:84-2

> <Gold.Version>
5.8.1

> <Gold.Id.Protein>
6NUR|6NUR_protein|mol2

> <Gold.PLP.Fitness>
51.6039

> <Gold.PLP.PLP>
-46.7651

> <Gold.PLP.part.hbond>
-4.0000

> <Gold.PLP.part.metal>
0.0000

> <Gold.PLP.part.buried>
-6.8936

> <Gold.PLP.part.nonpolar>
-37.1276

> <Gold.PLP.part.repulsive>
0.8816

> <Gold.PLP.ligand.clash>
0.0000

> <Gold.PLP.ligand.torsion>
0.9018

> <Gold.PLP.Chemscore.Hbond>
2.0000

> <Gold.PLP.Chemscore.CHOScore>
0.0000

> <Gold.PLP.Chemscore.Metal>
0.0000

> <Gold.Chemscore.Hbonds>
donor molecule, donor type, donor heavy atom, donor atom, acceptor molecule, acceptor atom, score
      L1  H    21    41       P1 10186  0.98
      L1  H    23    44       P1 10171  1.00

> <Gold.PLP.Chemscore.Internal.Correction>
0.6425

> <Gold.Rescore>
     Score         DG    S(hbond)    S(metal)    S(lipo)     H(rot)  DE(clash)    DE(int)     intcor
     10.76     -13.15       1.99        0.00      73.67       2.96       0.41       1.97       ----

> <Gold.Chemscore.Fitness>
10.7613

> <Gold.Chemscore.DG>
-13.1481

> <Gold.Chemscore.ZeroCoef>
-5.4800

> <Gold.Chemscore.Hbond>
1.9878

> <Gold.Chemscore.Metal>
0.0000

> <Gold.Chemscore.Lipo>
73.6659

> <Gold.Chemscore.Internal_Hbond>
0.0000

> <Gold.Chemscore.DEClash>
0.4119

> <Gold.Chemscore.DEInternal>
1.9749

> <Gold.Chemscore.Rot>
2.9649

> <Gold.Chemscore.Internal.Correction>
   9.000000E+99

> <Gold.Chemscore.Hbonds>
donor molecule, donor type, donor heavy atom, donor atom, acceptor molecule, acceptor atom, score
      L1  H    21    41       P1 10186  0.93
      L1  H    23    44       P1 10171  0.94

> <Gold.Chemscore.Hbond.Weighted>
-6.6394

> <Gold.Chemscore.Metal.Weighted>
-0.0000

> <Gold.Chemscore.Lipo.Weighted>
-8.6189

> <Gold.Chemscore.Internal_Hbond.Weighted>
0.0000

> <Gold.Chemscore.DEClash.Weighted>
0.4119

> <Gold.Chemscore.DEInternal.Weighted>
1.9749

> <Gold.Chemscore.Rot.Weighted>
7.5902

> <Gold.Chemscore.Internal.Correction.Weighted>
   9.000000E+99

> <Gold.Protein.RotatedTorsions>
[ 6907 6896 6895 6894 ] final -139.11 input  -60.11 | X-H torsion
[ 7974 7965 7964 7962 ] final  127.27 input  175.53 | X-H torsion
[ 8008 7997 7996 7995 ] final  104.87 input   59.86 | X-H torsion
[ 10167 10162 10161 10158 ] final   66.70 input  -65.29 | X-H torsion
[ 10718 10713 10712 10709 ] final   31.70 input   66.30 | X-H torsion
[ 10763 10752 10751 10750 ] final  -26.00 input  -60.55 | X-H torsion
[ 11005 11000 10999 10996 ] final  -67.54 input  -57.11 | X-H torsion

> <Gold.Protein.ActiveResidues>
 VAL166  LYS551  ARG553  GLY616  TRP617  ASP618  TYR619  PRO620  LYS621  CYS622 
 ASP623  PHE694  ASN695  SER759  ASP760  ASP761  ALA762  ILE779  LEU786  VAL792 
 PHE793  MET794  SER795  GLU796  ALA797  LYS798  CYS799  TRP800  GLU811  SER814 

> <Gold.Protein.RotatedAtoms>
  151.0436  133.5685  159.2648 H   0  0  0  0  0  0  0  0  0  0  0  0  # atno 6907 bound_to 6896
  151.2722  135.0687  159.9148 H   0  0  0  0  0  0  0  0  0  0  0  0  # atno 6908 bound_to 6896
  152.5369  134.0164  159.8016 H   0  0  0  0  0  0  0  0  0  0  0  0  # atno 6909 bound_to 6896
  145.0524  139.3872  143.5047 H   0  0  0  0  0  0  0  0  0  0  0  0  # atno 7974 bound_to 7965
  156.1610  140.3140  155.8808 H   0  0  0  0  0  0  0  0  0  0  0  0  # atno 8008 bound_to 7997
  155.3781  140.0486  157.3061 H   0  0  0  0  0  0  0  0  0  0  0  0  # atno 8009 bound_to 7997
  154.5147  140.2177  155.9100 H   0  0  0  0  0  0  0  0  0  0  0  0  # atno 8010 bound_to 7997
  140.0976  144.4933  150.7058 H   0  0  0  0  0  0  0  0  0  0  0  0  # atno 10167 bound_to 10162
  157.2759  130.7231  149.6529 H   0  0  0  0  0  0  0  0  0  0  0  0  # atno 10718 bound_to 10713
  153.7088  135.6952  153.5043 H   0  0  0  0  0  0  0  0  0  0  0  0  # atno 10763 bound_to 10752
  153.2288  135.4345  155.0571 H   0  0  0  0  0  0  0  0  0  0  0  0  # atno 10764 bound_to 10752
  154.8321  135.3479  154.6626 H   0  0  0  0  0  0  0  0  0  0  0  0  # atno 10765 bound_to 10752
  141.1510  133.6721  156.6309 H   0  0  0  0  0  0  0  0  0  0  0  0  # atno 11005 bound_to 11000
  146.3519  140.0181  142.8661 LP  0  0  0  0  0  0  0  0  0  0  0  0  # atno 17320 bound_to 7965
  145.1510  140.9623  143.4432 LP  0  0  0  0  0  0  0  0  0  0  0  0  # atno 17321 bound_to 7965
  140.6995  143.2425  151.4905 LP  0  0  0  0  0  0  0  0  0  0  0  0  # atno 17342 bound_to 10162
  139.5689  144.1975  152.1807 LP  0  0  0  0  0  0  0  0  0  0  0  0  # atno 17343 bound_to 10162
  155.9663  130.4353  150.5086 LP  0  0  0  0  0  0  0  0  0  0  0  0  # atno 17370 bound_to 10713
  157.3020  131.0647  151.2062 LP  0  0  0  0  0  0  0  0  0  0  0  0  # atno 17371 bound_to 10713
  140.3468  134.7803  157.4438 LP  0  0  0  0  0  0  0  0  0  0  0  0  # atno 17394 bound_to 11000
  140.0893  134.5623  155.8460 LP  0  0  0  0  0  0  0  0  0  0  0  0  # atno 17395 bound_to 11000

$$$$
