AV-unprocessed.smi:1046|AV-procd|sdf|4555|dock9
  -GOLD-   22720 2593D 1   1.00000     0.00000
 Structure written by MMmdl.
 54 56  0  0  0  0  0  0  0  0  3 V2000
  152.8130  143.3545  161.9108 C   0  0  0  0  0  0  0  0  0  0  0  0
  152.3279  142.9952  160.5174 C   0  0  0  0  0  0  0  0  0  0  0  0
  152.3908  141.6485  160.0942 C   0  0  0  0  0  0  0  0  0  0  0  0
  151.9554  141.2734  158.8046 C   0  0  0  0  0  0  0  0  0  0  0  0
  151.9282  140.0334  158.1900 N   0  0  0  0  0  0  0  0  0  0  0  0
  151.4210  140.3347  156.9987 C   0  0  0  0  0  0  0  0  0  0  0  0
  151.0993  141.6236  156.7740 N   0  0  0  0  0  0  0  0  0  0  0  0
  150.5241  142.1853  155.5656 C   0  0  0  0  0  0  0  0  0  0  0  0
  149.2254  141.4710  155.1410 C   0  0  1  0  0  0  0  0  0  0  0  0
  148.5178  142.3369  154.2776 O   0  0  0  0  0  0  0  0  0  0  0  0
  149.4715  140.1319  154.4103 C   0  0  0  0  0  0  0  0  0  0  0  0
  148.2117  139.4666  153.9894 N   0  3  2  0  0  0  0  0  0  0  0  0
  148.0932  138.0642  154.4645 C   0  0  0  0  0  0  0  0  0  0  0  0
  146.7361  137.4571  154.0668 C   0  0  0  0  0  0  0  0  0  0  0  0
  146.5176  137.5392  152.6016 N   0  3  1  0  0  0  0  0  0  0  0  0
  145.2576  136.8738  152.1807 C   0  0  0  0  0  0  0  0  0  0  0  0
  145.4808  135.8199  151.0822 C   0  0  0  0  0  0  0  0  0  0  0  0
  145.3269  136.4095  149.8085 O   0  0  0  0  0  0  0  0  0  0  0  0
  146.6385  138.9405  152.1247 C   0  0  0  0  0  0  0  0  0  0  0  0
  147.9950  139.5483  152.5241 C   0  0  0  0  0  0  0  0  0  0  0  0
  151.4471  142.2900  157.9442 C   0  0  0  0  0  0  0  0  0  0  0  0
  151.3786  143.6334  158.3537 C   0  0  0  0  0  0  0  0  0  0  0  0
  151.8202  143.9912  159.6448 C   0  0  0  0  0  0  0  0  0  0  0  0
  151.7470  145.4452  160.0766 C   0  0  0  0  0  0  0  0  0  0  0  0
  153.2061  142.4819  162.4332 H   0  0  0  0  0  0  0  0  0  0  0  0
  151.9955  143.7612  162.5064 H   0  0  0  0  0  0  0  0  0  0  0  0
  153.6086  144.0982  161.8592 H   0  0  0  0  0  0  0  0  0  0  0  0
  152.7789  140.8902  160.7585 H   0  0  0  0  0  0  0  0  0  0  0  0
  151.2646  139.5722  156.2495 H   0  0  0  0  0  0  0  0  0  0  0  0
  150.3366  143.2458  155.7399 H   0  0  0  0  0  0  0  0  0  0  0  0
  151.2676  142.1261  154.7690 H   0  0  0  0  0  0  0  0  0  0  0  0
  148.6157  141.3131  156.0295 H   0  0  0  0  0  0  0  0  0  0  0  0
  148.5582  143.2140  154.6296 H   0  0  0  0  0  0  0  0  0  0  0  0
  150.0925  140.3299  153.5351 H   0  0  0  0  0  0  0  0  0  0  0  0
  150.0393  139.4404  155.0341 H   0  0  0  0  0  0  0  0  0  0  0  0
  148.9050  137.4673  154.0457 H   0  0  0  0  0  0  0  0  0  0  0  0
  148.1957  138.0172  155.5479 H   0  0  0  0  0  0  0  0  0  0  0  0
  146.7019  136.4148  154.3866 H   0  0  0  0  0  0  0  0  0  0  0  0
  145.9272  137.9749  154.5852 H   0  0  0  0  0  0  0  0  0  0  0  0
  144.7982  136.3795  153.0384 H   0  0  0  0  0  0  0  0  0  0  0  0
  144.5423  137.6260  151.8447 H   0  0  0  0  0  0  0  0  0  0  0  0
  146.4938  135.4231  151.1541 H   0  0  0  0  0  0  0  0  0  0  0  0
  144.8047  134.9712  151.1801 H   0  0  0  0  0  0  0  0  0  0  0  0
  145.6633  135.8124  149.1562 H   0  0  0  0  0  0  0  0  0  0  0  0
  146.5374  138.9835  151.0408 H   0  0  0  0  0  0  0  0  0  0  0  0
  145.8263  139.5388  152.5414 H   0  0  0  0  0  0  0  0  0  0  0  0
  148.0295  140.5904  152.2037 H   0  0  0  0  0  0  0  0  0  0  0  0
  148.8051  139.0303  152.0077 H   0  0  0  0  0  0  0  0  0  0  0  0
  150.9943  144.3835  157.6787 H   0  0  0  0  0  0  0  0  0  0  0  0
  151.2958  146.0678  159.3036 H   0  0  0  0  0  0  0  0  0  0  0  0
  152.7456  145.8336  160.2781 H   0  0  0  0  0  0  0  0  0  0  0  0
  151.1466  145.5472  160.9808 H   0  0  0  0  0  0  0  0  0  0  0  0
  147.4628  139.9928  154.4178 H   0  0  0  0  0  0  0  0  0  0  0  0
  147.2660  137.0122  152.1732 H   0  0  0  0  0  0  0  0  0  0  0  0
  1  2  1  0  0  0  0
  1 25  1  0  0  0  0
  1 26  1  0  0  0  0
  1 27  1  0  0  0  0
  2 23  1  0  0  0  0
  2  3  2  0  0  0  0
  3  4  1  0  0  0  0
  3 28  1  0  0  0  0
  4 21  2  0  0  0  0
  4  5  1  0  0  0  0
  5  6  2  0  0  0  0
  6  7  1  0  0  0  0
  6 29  1  0  0  0  0
  7  8  1  0  0  0  0
  7 21  1  0  0  0  0
  8  9  1  0  0  0  0
  8 30  1  0  0  0  0
  8 31  1  0  0  0  0
  9 10  1  0  0  0  0
  9 11  1  0  0  0  0
  9 32  1  0  0  0  0
 10 33  1  0  0  0  0
 11 12  1  0  0  0  0
 11 34  1  0  0  0  0
 11 35  1  0  0  0  0
 12 20  1  0  0  0  0
 12 13  1  0  0  0  0
 12 53  1  0  0  0  0
 13 14  1  0  0  0  0
 13 36  1  0  0  0  0
 13 37  1  0  0  0  0
 14 15  1  0  0  0  0
 14 38  1  0  0  0  0
 14 39  1  0  0  0  0
 15 16  1  0  0  0  0
 15 19  1  0  0  0  0
 15 54  1  0  0  0  0
 16 17  1  0  0  0  0
 16 40  1  0  0  0  0
 16 41  1  0  0  0  0
 17 18  1  0  0  0  0
 17 42  1  0  0  0  0
 17 43  1  0  0  0  0
 18 44  1  0  0  0  0
 19 20  1  0  0  0  0
 19 45  1  0  0  0  0
 19 46  1  0  0  0  0
 20 47  1  0  0  0  0
 20 48  1  0  0  0  0
 21 22  1  0  0  0  0
 22 23  2  0  0  0  0
 22 49  1  0  0  0  0
 23 24  1  0  0  0  0
 24 50  1  0  0  0  0
 24 51  1  0  0  0  0
 24 52  1  0  0  0  0
M  CHG  1  12   1
M  CHG  1  15   1
M  END
> <s_m_source_file>
AV-unprocessed.smi

> <i_m_source_file_index>
1046

> <i_lp_mmshare_version>
43012

> <i_f3d_flags>
0

> <s_epik_input>
W0NIM11jKFtjSF0xKWMoW0NIM10pW2NIXWMoYzEyKW4oW2NIXW4yKVtDSDJdW0NASF0oW09IXSlbQ0gyXU4zW0NIMl1bQ0gyXU4oW0NIMl1bQ0gyXTMpW0NIMl1bQ0gyXVtPSF0=

> <s_epik_cmdline>
J2VwaWtfcHl0aG9uJywgJy1waCcsICc3LjAnLCAnLXRuJywgJzgnLCAnLW1hJywgJzIwMCcsICctbWV0YWxfYmluZGluZycsICctaW1hZScsICc8aW5maWxlLm1hZT4nLCAnLW9tYWUnLCAnPG91dGZpbGUubWFlPic=

> <r_epik_Ionization_Penalty>
3.17398

> <r_epik_Ionization_Penalty_Charging>
3.09061

> <r_epik_Ionization_Penalty_Neutral>
0.0833726

> <r_epik_State_Penalty>
2.17606

> <r_epik_Charging_Adjusted_Penalty>
5.26667

> <i_epik_Tot_Q>
2

> <i_epik_Tot_abs_Q>
2

> <r_epik_Metal_State_Penalty>
2.08587

> <b_epik_Metal_Only>
0

> <s_lp_Force_Field>
OPLS_2005

> <r_lp_Energy>
27.7872

> <b_lp_Chiralities_Consistent>
1

> <s_lp_Variant>
AV-unprocessed.smi:1046-8

> <Gold.Version>
5.8.1

> <Gold.Id.Protein>
6NUR|6NUR_protein|mol2

> <Gold.PLP.Fitness>
57.8024

> <Gold.PLP.PLP>
-49.1070

> <Gold.PLP.part.hbond>
-5.2670

> <Gold.PLP.part.metal>
0.0000

> <Gold.PLP.part.buried>
-0.3917

> <Gold.PLP.part.nonpolar>
-43.5504

> <Gold.PLP.part.repulsive>
0.0698

> <Gold.PLP.ligand.clash>
0.0000

> <Gold.PLP.ligand.torsion>
1.8187

> <Gold.PLP.Chemscore.Hbond>
4.0707

> <Gold.PLP.Chemscore.CHOScore>
0.0000

> <Gold.PLP.Chemscore.Metal>
0.0000

> <Gold.Chemscore.Hbonds>
donor molecule, donor type, donor heavy atom, donor atom, acceptor molecule, acceptor atom, score
      L1  H    10    33       P1  8028  1.00
      L1  H    15    54       P1  7948  2.00
      L1  H    18    44       P1  7921  1.00
      P1  H  8011  8017       L1    10  0.07

> <Gold.PLP.Chemscore.Internal.Correction>
0.1207

> <Gold.Rescore>
     Score         DG    S(hbond)    S(metal)    S(lipo)     H(rot)  DE(clash)    DE(int)     intcor
     19.68     -23.65       3.00        0.00     141.56       3.28       2.27       1.70       ----

> <Gold.Chemscore.Fitness>
19.6824

> <Gold.Chemscore.DG>
-23.6528

> <Gold.Chemscore.ZeroCoef>
-5.4800

> <Gold.Chemscore.Hbond>
2.9984

> <Gold.Chemscore.Metal>
0.0000

> <Gold.Chemscore.Lipo>
141.5569

> <Gold.Chemscore.Internal_Hbond>
0.0000

> <Gold.Chemscore.DEClash>
2.2673

> <Gold.Chemscore.DEInternal>
1.7030

> <Gold.Chemscore.Rot>
3.2828

> <Gold.Chemscore.Internal.Correction>
   9.000000E+99

> <Gold.Chemscore.Hbonds>
donor molecule, donor type, donor heavy atom, donor atom, acceptor molecule, acceptor atom, score
      L1  H    10    33       P1  8028  1.00
      L1  H    15    54       P1  7948  1.00
      L1  H    18    44       P1  7921  1.00
      P1  H  8011  8017       L1    10  0.02

> <Gold.Chemscore.Hbond.Weighted>
-10.0146

> <Gold.Chemscore.Metal.Weighted>
-0.0000

> <Gold.Chemscore.Lipo.Weighted>
-16.5622

> <Gold.Chemscore.Internal_Hbond.Weighted>
0.0000

> <Gold.Chemscore.DEClash.Weighted>
2.2673

> <Gold.Chemscore.DEInternal.Weighted>
1.7030

> <Gold.Chemscore.Rot.Weighted>
8.4039

> <Gold.Chemscore.Internal.Correction.Weighted>
   9.000000E+99

> <Gold.Protein.RotatedTorsions>
[ 6907 6896 6895 6894 ] final   92.07 input  -60.11 | X-H torsion
[ 7974 7965 7964 7962 ] final  -45.05 input  175.53 | X-H torsion
[ 8008 7997 7996 7995 ] final  179.77 input   59.86 | X-H torsion
[ 10167 10162 10161 10158 ] final  154.02 input  -65.29 | X-H torsion
[ 10718 10713 10712 10709 ] final  -94.74 input   66.30 | X-H torsion
[ 10763 10752 10751 10750 ] final -155.62 input  -60.55 | X-H torsion
[ 11005 11000 10999 10996 ] final  153.35 input  -57.11 | X-H torsion

> <Gold.Protein.ActiveResidues>
 VAL166  LYS551  ARG553  GLY616  TRP617  ASP618  TYR619  PRO620  LYS621  CYS622 
 ASP623  PHE694  ASN695  SER759  ASP760  ASP761  ALA762  ILE779  LEU786  VAL792 
 PHE793  MET794  SER795  GLU796  ALA797  LYS798  CYS799  TRP800  GLU811  SER814 

> <Gold.Protein.RotatedAtoms>
  152.5452  134.1559  159.8537 H   0  0  0  0  0  0  0  0  0  0  0  0  # atno 6907 bound_to 6896
  151.1581  133.4856  159.2602 H   0  0  0  0  0  0  0  0  0  0  0  0  # atno 6908 bound_to 6896
  151.1401  135.0186  159.8677 H   0  0  0  0  0  0  0  0  0  0  0  0  # atno 6909 bound_to 6896
  145.9859  140.7233  142.9340 H   0  0  0  0  0  0  0  0  0  0  0  0  # atno 7974 bound_to 7965
  156.0396  140.1300  157.0170 H   0  0  0  0  0  0  0  0  0  0  0  0  # atno 8008 bound_to 7997
  154.4385  140.1033  156.6288 H   0  0  0  0  0  0  0  0  0  0  0  0  # atno 8009 bound_to 7997
  155.5686  140.3466  155.4511 H   0  0  0  0  0  0  0  0  0  0  0  0  # atno 8010 bound_to 7997
  139.4825  144.5223  151.7856 H   0  0  0  0  0  0  0  0  0  0  0  0  # atno 10167 bound_to 10162
  156.0032  130.5080  150.5972 H   0  0  0  0  0  0  0  0  0  0  0  0  # atno 10718 bound_to 10713
  154.7774  135.3164  154.8064 H   0  0  0  0  0  0  0  0  0  0  0  0  # atno 10763 bound_to 10752
  153.8784  135.6837  153.4773 H   0  0  0  0  0  0  0  0  0  0  0  0  # atno 10764 bound_to 10752
  153.1401  135.4743  154.9418 H   0  0  0  0  0  0  0  0  0  0  0  0  # atno 10765 bound_to 10752
  140.1389  134.8752  157.2305 H   0  0  0  0  0  0  0  0  0  0  0  0  # atno 11005 bound_to 11000
  144.6875  140.2988  143.7266 LP  0  0  0  0  0  0  0  0  0  0  0  0  # atno 17320 bound_to 7965
  145.7701  139.1854  143.2217 LP  0  0  0  0  0  0  0  0  0  0  0  0  # atno 17321 bound_to 7965
  140.4739  144.1547  150.5922 LP  0  0  0  0  0  0  0  0  0  0  0  0  # atno 17342 bound_to 10162
  140.4352  143.2550  151.9544 LP  0  0  0  0  0  0  0  0  0  0  0  0  # atno 17343 bound_to 10162
  157.3827  131.0783  151.1462 LP  0  0  0  0  0  0  0  0  0  0  0  0  # atno 17370 bound_to 10713
  157.2180  130.6468  149.5800 LP  0  0  0  0  0  0  0  0  0  0  0  0  # atno 17371 bound_to 10713
  140.2747  134.3420  155.7362 LP  0  0  0  0  0  0  0  0  0  0  0  0  # atno 17394 bound_to 11000
  141.2183  133.7443  156.9274 LP  0  0  0  0  0  0  0  0  0  0  0  0  # atno 17395 bound_to 11000

$$$$
