AV-unprocessed.smi:2624|AV-procd|sdf|10233|dock5
  -GOLD-   2272014243D 1   1.00000     0.00000
 Structure written by MMmdl.
 39 40  0  0  0  0  0  0  0  0  1 V2000
  151.8277  143.1794  159.3150 C   0  0  0  0  0  0  0  0  0  0  0  0
  150.5642  142.5979  159.0449 O   0  0  0  0  0  0  0  0  0  0  0  0
  150.0098  143.0485  157.8210 C   0  0  0  0  0  0  0  0  0  0  0  0
  150.9952  142.7353  156.6854 C   0  0  0  0  0  0  0  0  0  0  0  0
  150.5328  141.6058  155.8679 N   0  0  0  0  0  0  0  0  0  0  0  0
  149.3760  141.8130  155.0918 C   0  0  0  0  0  0  0  0  0  0  0  0
  148.8633  140.8536  154.2990 C   0  0  0  0  0  0  0  0  0  0  0  0
  147.6448  141.1126  153.4951 C   0  0  0  0  0  0  0  0  0  0  0  0
  147.4031  140.4597  152.4789 O   0  0  0  0  0  0  0  0  0  0  0  0
  146.7216  142.2006  153.9318 C   0  0  0  0  0  0  0  0  0  0  0  0
  146.2696  143.1153  152.9538 C   0  0  0  0  0  0  0  0  0  0  0  0
  145.4078  144.1752  153.3001 C   0  0  0  0  0  0  0  0  0  0  0  0
  144.9464  145.1524  152.2388 C   0  0  0  0  0  0  0  0  0  0  0  0
  144.9856  144.3244  154.6351 C   0  0  0  0  0  0  0  0  0  0  0  0
  145.4153  143.4108  155.6148 C   0  0  0  0  0  0  0  0  0  0  0  0
  146.2750  142.3475  155.2730 C   0  0  0  0  0  0  0  0  0  0  0  0
  146.6305  141.4658  156.2561 O   0  0  0  0  0  0  0  0  0  0  0  0
  149.5341  139.5685  154.2760 C   0  0  0  0  0  0  0  0  0  0  0  0
  150.6362  139.3612  155.0234 C   0  0  0  0  0  0  0  0  0  0  0  0
  151.3093  138.1047  155.0178 C   0  0  0  0  0  0  0  0  0  0  0  0
  151.8368  137.0745  154.9994 N   0  0  0  0  0  0  0  0  0  0  0  0
  151.1987  140.4112  155.8844 C   0  0  0  0  0  0  0  0  0  0  0  0
  152.2000  140.2345  156.5803 O   0  0  0  0  0  0  0  0  0  0  0  0
  152.2117  142.7986  160.2613 H   0  0  0  0  0  0  0  0  0  0  0  0
  151.7533  144.2647  159.3947 H   0  0  0  0  0  0  0  0  0  0  0  0
  152.5500  142.9338  158.5357 H   0  0  0  0  0  0  0  0  0  0  0  0
  149.0537  142.5536  157.6424 H   0  0  0  0  0  0  0  0  0  0  0  0
  149.8222  144.1225  157.8701 H   0  0  0  0  0  0  0  0  0  0  0  0
  151.1260  143.6219  156.0631 H   0  0  0  0  0  0  0  0  0  0  0  0
  151.9853  142.5323  157.0973 H   0  0  0  0  0  0  0  0  0  0  0  0
  148.9429  142.7995  155.1836 H   0  0  0  0  0  0  0  0  0  0  0  0
  146.5937  143.0139  151.9274 H   0  0  0  0  0  0  0  0  0  0  0  0
  144.0576  145.6953  152.5620 H   0  0  0  0  0  0  0  0  0  0  0  0
  144.7039  144.6280  151.3139 H   0  0  0  0  0  0  0  0  0  0  0  0
  145.7331  145.8769  152.0276 H   0  0  0  0  0  0  0  0  0  0  0  0
  144.3266  145.1346  154.9115 H   0  0  0  0  0  0  0  0  0  0  0  0
  145.0746  143.5253  156.6338 H   0  0  0  0  0  0  0  0  0  0  0  0
  145.8877  141.0908  156.7040 H   0  0  0  0  0  0  0  0  0  0  0  0
  149.1532  138.7627  153.6653 H   0  0  0  0  0  0  0  0  0  0  0  0
  1  2  1  0  0  0  0
  1 24  1  0  0  0  0
  1 25  1  0  0  0  0
  1 26  1  0  0  0  0
  2  3  1  0  0  0  0
  3  4  1  0  0  0  0
  3 27  1  0  0  0  0
  3 28  1  0  0  0  0
  4  5  1  0  0  0  0
  4 29  1  0  0  0  0
  4 30  1  0  0  0  0
  5 22  1  0  0  0  0
  5  6  1  0  0  0  0
  6  7  2  0  0  0  0
  6 31  1  0  0  0  0
  7  8  1  0  0  0  0
  7 18  1  0  0  0  0
  8  9  2  0  0  0  0
  8 10  1  0  0  0  0
 10 16  1  0  0  0  0
 10 11  2  0  0  0  0
 11 12  1  0  0  0  0
 11 32  1  0  0  0  0
 12 13  1  0  0  0  0
 12 14  2  0  0  0  0
 13 33  1  0  0  0  0
 13 34  1  0  0  0  0
 13 35  1  0  0  0  0
 14 15  1  0  0  0  0
 14 36  1  0  0  0  0
 15 16  2  0  0  0  0
 15 37  1  0  0  0  0
 16 17  1  0  0  0  0
 17 38  1  0  0  0  0
 18 19  2  0  0  0  0
 18 39  1  0  0  0  0
 19 20  1  0  0  0  0
 19 22  1  0  0  0  0
 20 21  3  0  0  0  0
 22 23  2  0  0  0  0
M  END
> <s_m_source_file>
AV-unprocessed.smi

> <i_m_source_file_index>
2624

> <i_lp_mmshare_version>
43012

> <i_f3d_flags>
0

> <s_epik_input>
W0NIM11PW0NIMl1bQ0gyXW4xW2NIXWMoW2NIXWMoQyNOKWMxPU8pQyg9TyljMltjSF1jKFtDSDNdKVtjSF1bY0hdYzJbT0hd

> <s_epik_cmdline>
J2VwaWtfcHl0aG9uJywgJy1waCcsICc3LjAnLCAnLXRuJywgJzgnLCAnLW1hJywgJzIwMCcsICctbWV0YWxfYmluZGluZycsICctaW1hZScsICc8aW5maWxlLm1hZT4nLCAnLW9tYWUnLCAnPG91dGZpbGUubWFlPic=

> <r_epik_Ionization_Penalty>
0.124493

> <r_epik_Ionization_Penalty_Charging>
5.62591e-11

> <r_epik_Ionization_Penalty_Neutral>
0.124493

> <r_epik_State_Penalty>
0.113971

> <r_epik_Charging_Adjusted_Penalty>
0.113971

> <i_epik_Tot_Q>
0

> <i_epik_Tot_abs_Q>
0

> <r_epik_Metal_State_Penalty>
0.113971

> <b_epik_Metal_Only>
0

> <s_lp_Force_Field>
OPLS_2005

> <r_lp_Energy>
23.5595

> <b_lp_Chiralities_Consistent>
1

> <s_lp_Variant>
AV-unprocessed.smi:2624-1

> <Gold.Version>
5.8.1

> <Gold.Id.Protein>
6NUR|6NUR_protein|mol2

> <Gold.PLP.Fitness>
56.3581

> <Gold.PLP.PLP>
-48.5003

> <Gold.PLP.part.hbond>
-2.5421

> <Gold.PLP.part.metal>
0.0000

> <Gold.PLP.part.buried>
-6.0257

> <Gold.PLP.part.nonpolar>
-41.3221

> <Gold.PLP.part.repulsive>
0.8527

> <Gold.PLP.ligand.clash>
0.0000

> <Gold.PLP.ligand.torsion>
1.4334

> <Gold.PLP.Chemscore.Hbond>
2.0000

> <Gold.PLP.Chemscore.CHOScore>
1.0000

> <Gold.PLP.Chemscore.Metal>
0.0000

> <Gold.Chemscore.Hbonds>
donor molecule, donor type, donor heavy atom, donor atom, acceptor molecule, acceptor atom, score
      P1  H  7997  8008       L1    23  0.73
      P1  H 10752 10765       L1    21  0.85
      L1  C     6    31       P1  8028  0.85

> <Gold.PLP.Chemscore.Internal.Correction>
1.7246

> <Gold.Rescore>
     Score         DG    S(hbond)    S(metal)    S(lipo)     H(rot)  DE(clash)    DE(int)     intcor
     13.91     -16.78       1.85        0.00      86.31       1.94       0.25       2.62       ----

> <Gold.Chemscore.Fitness>
13.9138

> <Gold.Chemscore.DG>
-16.7767

> <Gold.Chemscore.ZeroCoef>
-5.4800

> <Gold.Chemscore.Hbond>
1.8463

> <Gold.Chemscore.Metal>
0.0000

> <Gold.Chemscore.Lipo>
86.3109

> <Gold.Chemscore.Internal_Hbond>
0.0000

> <Gold.Chemscore.DEClash>
0.2459

> <Gold.Chemscore.DEInternal>
2.6170

> <Gold.Chemscore.Rot>
1.9407

> <Gold.Chemscore.Internal.Correction>
   9.000000E+99

> <Gold.Chemscore.Hbonds>
donor molecule, donor type, donor heavy atom, donor atom, acceptor molecule, acceptor atom, score
      P1  H  7997  8008       L1    23  0.71
      P1  H 10752 10765       L1    21  0.82

> <Gold.Chemscore.Hbond.Weighted>
-6.1666

> <Gold.Chemscore.Metal.Weighted>
-0.0000

> <Gold.Chemscore.Lipo.Weighted>
-10.0984

> <Gold.Chemscore.Internal_Hbond.Weighted>
0.0000

> <Gold.Chemscore.DEClash.Weighted>
0.2459

> <Gold.Chemscore.DEInternal.Weighted>
2.6170

> <Gold.Chemscore.Rot.Weighted>
4.9682

> <Gold.Chemscore.Internal.Correction.Weighted>
   9.000000E+99

> <Gold.Protein.RotatedTorsions>
[ 6907 6896 6895 6894 ] final -118.91 input  -60.11 | X-H torsion
[ 7974 7965 7964 7962 ] final   96.82 input  175.53 | X-H torsion
[ 8008 7997 7996 7995 ] final  -46.36 input   59.86 | X-H torsion
[ 10167 10162 10161 10158 ] final   69.72 input  -65.29 | X-H torsion
[ 10718 10713 10712 10709 ] final   18.70 input   66.30 | X-H torsion
[ 10763 10752 10751 10750 ] final  157.47 input  -60.55 | X-H torsion
[ 11005 11000 10999 10996 ] final -101.27 input  -57.11 | X-H torsion

> <Gold.Protein.ActiveResidues>
 VAL166  LYS551  ARG553  GLY616  TRP617  ASP618  TYR619  PRO620  LYS621  CYS622 
 ASP623  PHE694  ASN695  SER759  ASP760  ASP761  ALA762  ILE779  LEU786  VAL792 
 PHE793  MET794  SER795  GLU796  ALA797  LYS798  CYS799  TRP800  GLU811  SER814 

> <Gold.Protein.RotatedAtoms>
  150.8259  133.8172  159.3118 H   0  0  0  0  0  0  0  0  0  0  0  0  # atno 6907 bound_to 6896
  151.5916  135.1051  160.0050 H   0  0  0  0  0  0  0  0  0  0  0  0  # atno 6908 bound_to 6896
  152.4344  133.7294  159.6635 H   0  0  0  0  0  0  0  0  0  0  0  0  # atno 6909 bound_to 6896
  145.4338  139.2308  143.3130 H   0  0  0  0  0  0  0  0  0  0  0  0  # atno 7974 bound_to 7965
  154.4007  140.1373  156.3998 H   0  0  0  0  0  0  0  0  0  0  0  0  # atno 8008 bound_to 7997
  155.7835  140.3481  155.5289 H   0  0  0  0  0  0  0  0  0  0  0  0  # atno 8009 bound_to 7997
  155.8651  140.0962  157.1578 H   0  0  0  0  0  0  0  0  0  0  0  0  # atno 8010 bound_to 7997
  140.0647  144.5203  150.7269 H   0  0  0  0  0  0  0  0  0  0  0  0  # atno 10167 bound_to 10162
  157.1001  130.6464  149.5870 H   0  0  0  0  0  0  0  0  0  0  0  0  # atno 10718 bound_to 10713
  154.2007  135.2790  155.2991 H   0  0  0  0  0  0  0  0  0  0  0  0  # atno 10763 bound_to 10752
  154.5856  135.5576  153.7231 H   0  0  0  0  0  0  0  0  0  0  0  0  # atno 10764 bound_to 10752
  153.0088  135.6355  154.2146 H   0  0  0  0  0  0  0  0  0  0  0  0  # atno 10765 bound_to 10752
  141.1237  133.8465  157.1211 H   0  0  0  0  0  0  0  0  0  0  0  0  # atno 11005 bound_to 11000
  146.2593  140.5078  142.8860 LP  0  0  0  0  0  0  0  0  0  0  0  0  # atno 17320 bound_to 7965
  144.8166  140.6478  143.6380 LP  0  0  0  0  0  0  0  0  0  0  0  0  # atno 17321 bound_to 7965
  140.7155  143.2541  151.4448 LP  0  0  0  0  0  0  0  0  0  0  0  0  # atno 17342 bound_to 10162
  139.5872  144.1578  152.2044 LP  0  0  0  0  0  0  0  0  0  0  0  0  # atno 17343 bound_to 10162
  155.9876  130.4916  150.7132 LP  0  0  0  0  0  0  0  0  0  0  0  0  # atno 17370 bound_to 10713
  157.4648  131.0887  151.0706 LP  0  0  0  0  0  0  0  0  0  0  0  0  # atno 17371 bound_to 10713
  140.0217  134.9943  157.0604 LP  0  0  0  0  0  0  0  0  0  0  0  0  # atno 17394 bound_to 11000
  140.4430  134.1662  155.7175 LP  0  0  0  0  0  0  0  0  0  0  0  0  # atno 17395 bound_to 11000

$$$$
