AV-unprocessed.smi:178|AV-procd|sdf|1448|dock7
  -GOLD-   2262019243D 1   1.00000     0.00000
 Structure written by MMmdl.
 50 52  0  0  0  0  0  0  0  0  1 V2000
  142.3969  131.4821  159.4044 C   0  0  0  0  0  0  0  0  0  0  0  0
  143.2660  132.2276  160.2420 O   0  0  0  0  0  0  0  0  0  0  0  0
  144.6414  132.1468  159.8859 C   0  0  0  0  0  0  0  0  0  0  0  0
  145.5433  133.1099  160.6908 C   0  0  0  0  0  0  0  0  0  0  0  0
  146.8079  133.4380  160.0303 N   0  0  0  0  0  0  0  0  0  0  0  0
  147.9063  133.7724  160.9340 C   0  0  0  0  0  0  0  0  0  0  0  0
  147.4717  134.6408  162.1255 C   0  0  0  0  0  0  0  0  0  0  0  0
  147.4254  136.0706  161.7867 C   0  0  0  0  0  0  0  0  0  0  0  0
  147.3891  137.1957  161.5196 N   0  0  0  0  0  0  0  0  0  0  0  0
  146.6734  134.3212  159.0155 C   0  0  0  0  0  0  0  0  0  0  0  0
  145.4920  134.3256  158.3503 N   0  0  0  0  0  0  0  0  0  0  0  0
  145.2891  135.1982  157.3588 C   0  0  0  0  0  0  0  0  0  0  0  0
  146.1172  136.1320  156.8851 N   0  0  0  0  0  0  0  0  0  0  0  0
  147.3083  136.1241  157.5502 C   0  0  0  0  0  0  0  0  0  0  0  0
  147.6716  135.2534  158.6147 C   0  0  0  0  0  0  0  0  0  0  0  0
  148.9647  135.5345  159.0387 N   0  0  0  0  0  0  0  0  0  0  0  0
  149.3416  136.5216  158.2728 C   0  0  0  0  0  0  0  0  0  0  0  0
  148.4045  136.9463  157.3577 N   0  0  0  0  0  0  0  0  0  0  0  0
  148.5524  138.0282  156.3963 C   0  0  0  0  0  0  0  0  0  0  0  0
  149.7148  137.8025  155.3938 C   0  0  2  0  0  0  0  0  0  0  0  0
  149.4594  136.5912  154.7015 O   0  0  0  0  0  0  0  0  0  0  0  0
  151.0839  137.6812  156.0557 C   0  0  0  0  0  0  0  0  0  0  0  0
  152.0317  138.1402  154.9583 C   0  0  0  0  0  0  0  0  0  0  0  0
  151.3289  139.2242  154.3762 O   0  0  0  0  0  0  0  0  0  0  0  0
  149.9377  138.9130  154.3286 C   0  0  2  0  0  0  0  0  0  0  0  0
  149.1696  140.2285  154.5320 C   0  0  0  0  0  0  0  0  0  0  0  0
  141.3678  131.6294  159.7318 H   0  0  0  0  0  0  0  0  0  0  0  0
  142.6046  130.4135  159.4464 H   0  0  0  0  0  0  0  0  0  0  0  0
  142.4684  131.8125  158.3676 H   0  0  0  0  0  0  0  0  0  0  0  0
  144.9862  131.1194  160.0117 H   0  0  0  0  0  0  0  0  0  0  0  0
  144.7346  132.3664  158.8217 H   0  0  0  0  0  0  0  0  0  0  0  0
  145.0109  134.0181  160.9710 H   0  0  0  0  0  0  0  0  0  0  0  0
  145.7945  132.6170  161.6306 H   0  0  0  0  0  0  0  0  0  0  0  0
  148.3814  132.8584  161.2927 H   0  0  0  0  0  0  0  0  0  0  0  0
  148.6670  134.3100  160.3670 H   0  0  0  0  0  0  0  0  0  0  0  0
  146.4792  134.3485  162.4690 H   0  0  0  0  0  0  0  0  0  0  0  0
  148.1554  134.5284  162.9673 H   0  0  0  0  0  0  0  0  0  0  0  0
  144.3229  135.1439  156.8794 H   0  0  0  0  0  0  0  0  0  0  0  0
  150.3172  136.9776  158.3605 H   0  0  0  0  0  0  0  0  0  0  0  0
  147.6069  138.1437  155.8647 H   0  0  0  0  0  0  0  0  0  0  0  0
  148.7044  138.9491  156.9593 H   0  0  0  0  0  0  0  0  0  0  0  0
  149.1710  136.8027  153.8267 H   0  0  0  0  0  0  0  0  0  0  0  0
  151.1579  138.3746  156.8943 H   0  0  0  0  0  0  0  0  0  0  0  0
  151.3083  136.6813  156.4298 H   0  0  0  0  0  0  0  0  0  0  0  0
  153.0044  138.4498  155.3412 H   0  0  0  0  0  0  0  0  0  0  0  0
  152.1843  137.3567  154.2144 H   0  0  0  0  0  0  0  0  0  0  0  0
  149.7123  138.5352  153.3296 H   0  0  0  0  0  0  0  0  0  0  0  0
  148.0916  140.0709  154.4959 H   0  0  0  0  0  0  0  0  0  0  0  0
  149.4201  140.9442  153.7487 H   0  0  0  0  0  0  0  0  0  0  0  0
  149.4167  140.6921  155.4875 H   0  0  0  0  0  0  0  0  0  0  0  0
  1  2  1  0  0  0  0
  1 27  1  0  0  0  0
  1 28  1  0  0  0  0
  1 29  1  0  0  0  0
  2  3  1  0  0  0  0
  3  4  1  0  0  0  0
  3 30  1  0  0  0  0
  3 31  1  0  0  0  0
  4  5  1  0  0  0  0
  4 32  1  0  0  0  0
  4 33  1  0  0  0  0
  5  6  1  0  0  0  0
  5 10  1  0  0  0  0
  6  7  1  0  0  0  0
  6 34  1  0  0  0  0
  6 35  1  0  0  0  0
  7  8  1  0  0  0  0
  7 36  1  0  0  0  0
  7 37  1  0  0  0  0
  8  9  3  0  0  0  0
 10 15  1  0  0  0  0
 10 11  2  0  0  0  0
 11 12  1  0  0  0  0
 12 13  2  0  0  0  0
 12 38  1  0  0  0  0
 13 14  1  0  0  0  0
 14 18  1  0  0  0  0
 14 15  2  0  0  0  0
 15 16  1  0  0  0  0
 16 17  2  0  0  0  0
 17 18  1  0  0  0  0
 17 39  1  0  0  0  0
 18 19  1  0  0  0  0
 19 20  1  0  0  0  0
 19 40  1  0  0  0  0
 19 41  1  0  0  0  0
 20 25  1  0  0  0  0
 20 21  1  0  0  0  0
 20 22  1  0  0  0  0
 21 42  1  0  0  0  0
 22 23  1  0  0  0  0
 22 43  1  0  0  0  0
 22 44  1  0  0  0  0
 23 24  1  0  0  0  0
 23 45  1  0  0  0  0
 23 46  1  0  0  0  0
 24 25  1  0  0  0  0
 25 26  1  0  0  0  0
 25 47  1  0  0  0  0
 26 48  1  0  0  0  0
 26 49  1  0  0  0  0
 26 50  1  0  0  0  0
M  END
> <s_m_source_file>
AV-unprocessed.smi

> <i_m_source_file_index>
178

> <i_lp_mmshare_version>
43012

> <i_f3d_flags>
0

> <s_epik_input>
W0NIM11PW0NIMl1bQ0gyXU4oW0NIMl1bQ0gyXUMjTiljKG5bY0hdbjEpYyhjMTIpbltjSF1uMltDSDJdW0NAQF0zKFtPSF0pW0NIMl1bQ0gyXU9bQ0BIXTNbQ0gzXQ==

> <s_epik_cmdline>
J2VwaWtfcHl0aG9uJywgJy1waCcsICc3LjAnLCAnLXRuJywgJzgnLCAnLW1hJywgJzIwMCcsICctbWV0YWxfYmluZGluZycsICctaW1hZScsICc8aW5maWxlLm1hZT4nLCAnLW9tYWUnLCAnPG91dGZpbGUubWFlPic=

> <r_lp_tautomer_probability>
1

> <r_epik_Ionization_Penalty>
0.000885317

> <r_epik_Ionization_Penalty_Charging>
0

> <r_epik_Ionization_Penalty_Neutral>
0.000885317

> <r_epik_State_Penalty>
0.00047273

> <r_epik_Charging_Adjusted_Penalty>
0.00047273

> <i_epik_Tot_Q>
0

> <i_epik_Tot_abs_Q>
0

> <r_epik_Metal_State_Penalty>
-0

> <b_epik_Metal_Only>
0

> <s_lp_Force_Field>
OPLS_2005

> <r_lp_Energy>
31.3349

> <b_lp_Chiralities_Consistent>
1

> <s_lp_Variant>
AV-unprocessed.smi:178-4

> <Gold.Version>
5.8.1

> <Gold.Id.Protein>
6NUR|6NUR_protein|mol2

> <Gold.PLP.Fitness>
40.3496

> <Gold.PLP.PLP>
-28.3968

> <Gold.PLP.part.hbond>
-5.0000

> <Gold.PLP.part.metal>
0.0000

> <Gold.PLP.part.buried>
-4.5983

> <Gold.PLP.part.nonpolar>
-19.1277

> <Gold.PLP.part.repulsive>
0.1782

> <Gold.PLP.ligand.clash>
0.0000

> <Gold.PLP.ligand.torsion>
1.3967

> <Gold.PLP.Chemscore.Hbond>
4.7830

> <Gold.PLP.Chemscore.CHOScore>
0.0000

> <Gold.PLP.Chemscore.Metal>
0.0000

> <Gold.Chemscore.Hbonds>
donor molecule, donor type, donor heavy atom, donor atom, acceptor molecule, acceptor atom, score
      L1  H    21    42       P1  7948  0.94
      P1  H  6896  6908       L1    16  1.00
      P1  H  6931  6943       L1     9  0.91
      P1  H  6934  6947       L1     9  0.90
      P1  H  7989  7998       L1    24  1.00

> <Gold.PLP.Chemscore.Internal.Correction>
0.3972

> <Gold.Rescore>
     Score         DG    S(hbond)    S(metal)    S(lipo)     H(rot)  DE(clash)    DE(int)     intcor
     12.85     -17.51       4.37        0.00      58.71       3.69       0.42       4.24       ----

> <Gold.Chemscore.Fitness>
12.8515

> <Gold.Chemscore.DG>
-17.5065

> <Gold.Chemscore.ZeroCoef>
-5.4800

> <Gold.Chemscore.Hbond>
4.3740

> <Gold.Chemscore.Metal>
0.0000

> <Gold.Chemscore.Lipo>
58.7139

> <Gold.Chemscore.Internal_Hbond>
0.0000

> <Gold.Chemscore.DEClash>
0.4158

> <Gold.Chemscore.DEInternal>
4.2392

> <Gold.Chemscore.Rot>
3.6923

> <Gold.Chemscore.Internal.Correction>
   9.000000E+99

> <Gold.Chemscore.Hbonds>
donor molecule, donor type, donor heavy atom, donor atom, acceptor molecule, acceptor atom, score
      L1  H    21    42       P1  7948  0.84
      P1  H  6896  6908       L1    16  0.52
      P1  H  6931  6943       L1     9  0.81
      P1  H  6934  6947       L1     9  0.88
      P1  H  7989  7998       L1    24  0.74

> <Gold.Chemscore.Hbond.Weighted>
-14.6093

> <Gold.Chemscore.Metal.Weighted>
-0.0000

> <Gold.Chemscore.Lipo.Weighted>
-6.8695

> <Gold.Chemscore.Internal_Hbond.Weighted>
0.0000

> <Gold.Chemscore.DEClash.Weighted>
0.4158

> <Gold.Chemscore.DEInternal.Weighted>
4.2392

> <Gold.Chemscore.Rot.Weighted>
9.4524

> <Gold.Chemscore.Internal.Correction.Weighted>
   9.000000E+99

> <Gold.Protein.RotatedTorsions>
[ 6907 6896 6895 6894 ] final  168.17 input  -60.11 | X-H torsion
[ 7974 7965 7964 7962 ] final -169.25 input  175.53 | X-H torsion
[ 8008 7997 7996 7995 ] final  -25.52 input   59.86 | X-H torsion
[ 10167 10162 10161 10158 ] final -144.49 input  -65.29 | X-H torsion
[ 10718 10713 10712 10709 ] final  -66.34 input   66.30 | X-H torsion
[ 10763 10752 10751 10750 ] final -143.72 input  -60.55 | X-H torsion
[ 11005 11000 10999 10996 ] final -138.71 input  -57.11 | X-H torsion

> <Gold.Protein.ActiveResidues>
 VAL166  LYS551  ARG553  GLY616  TRP617  ASP618  TYR619  PRO620  LYS621  CYS622 
 ASP623  PHE694  ASN695  SER759  ASP760  ASP761  ALA762  ILE779  LEU786  VAL792 
 PHE793  MET794  SER795  GLU796  ALA797  LYS798  CYS799  TRP800  GLU811  SER814 

> <Gold.Protein.RotatedAtoms>
  151.8518  133.3441  159.3675 H   0  0  0  0  0  0  0  0  0  0  0  0  # atno 6907 bound_to 6896
  150.7204  134.5291  159.5701 H   0  0  0  0  0  0  0  0  0  0  0  0  # atno 6908 bound_to 6896
  152.2786  134.7854  160.0452 H   0  0  0  0  0  0  0  0  0  0  0  0  # atno 6909 bound_to 6896
  144.7188  140.2248  143.6311 H   0  0  0  0  0  0  0  0  0  0  0  0  # atno 7974 bound_to 7965
  154.4472  140.1924  156.0632 H   0  0  0  0  0  0  0  0  0  0  0  0  # atno 8008 bound_to 7997
  156.0567  140.3302  155.7387 H   0  0  0  0  0  0  0  0  0  0  0  0  # atno 8009 bound_to 7997
  155.5474  140.0592  157.2848 H   0  0  0  0  0  0  0  0  0  0  0  0  # atno 8010 bound_to 7997
  139.7894  143.7987  152.2648 H   0  0  0  0  0  0  0  0  0  0  0  0  # atno 10167 bound_to 10162
  156.0618  130.4260  150.1694 H   0  0  0  0  0  0  0  0  0  0  0  0  # atno 10718 bound_to 10713
  154.8458  135.3460  154.6233 H   0  0  0  0  0  0  0  0  0  0  0  0  # atno 10763 bound_to 10752
  153.6842  135.6978  153.5113 H   0  0  0  0  0  0  0  0  0  0  0  0  # atno 10764 bound_to 10752
  153.2645  135.4312  155.0882 H   0  0  0  0  0  0  0  0  0  0  0  0  # atno 10765 bound_to 10752
  140.8590  134.2193  157.4718 H   0  0  0  0  0  0  0  0  0  0  0  0  # atno 11005 bound_to 11000
  145.8466  139.2155  143.1796 LP  0  0  0  0  0  0  0  0  0  0  0  0  # atno 17320 bound_to 7965
  146.0298  140.8269  142.9881 LP  0  0  0  0  0  0  0  0  0  0  0  0  # atno 17321 bound_to 7965
  139.8074  144.7350  150.9743 LP  0  0  0  0  0  0  0  0  0  0  0  0  # atno 17342 bound_to 10162
  140.7820  143.4284  151.0732 LP  0  0  0  0  0  0  0  0  0  0  0  0  # atno 17343 bound_to 10162
  156.9761  130.9850  151.3448 LP  0  0  0  0  0  0  0  0  0  0  0  0  # atno 17370 bound_to 10713
  157.5632  130.8260  149.8293 LP  0  0  0  0  0  0  0  0  0  0  0  0  # atno 17371 bound_to 10713
  139.8706  134.9720  156.4757 LP  0  0  0  0  0  0  0  0  0  0  0  0  # atno 17394 bound_to 11000
  140.8705  133.7992  155.9359 LP  0  0  0  0  0  0  0  0  0  0  0  0  # atno 17395 bound_to 11000

$$$$
