AV-unprocessed.smi:3287|AV-procd|sdf|12593|dock5
  -GOLD-   2272018513D 1   1.00000     0.00000
 Structure written by MMmdl.
 43 44  0  0  0  0  0  0  0  0  2 V2000
  151.7891  145.0088  160.0672 C   0  0  0  0  0  0  0  0  0  0  0  0
  151.4347  143.7098  159.3250 C   0  0  1  0  0  0  0  0  0  0  0  0
  151.7837  143.7920  157.8262 C   0  0  0  0  0  0  0  0  0  0  0  0
  151.3492  142.5237  157.0741 C   0  0  0  0  0  0  0  0  0  0  0  0
  151.9466  141.2492  157.7059 C   0  0  2  0  0  0  0  0  0  0  0  0
  151.4574  140.0279  157.0288 N   0  3  0  0  0  0  0  0  0  0  0  0
  151.2922  140.1384  155.5634 C   0  0  0  0  0  0  0  0  0  0  0  0
  150.2044  139.1803  155.0474 C   0  0  2  0  0  0  0  0  0  0  0  0
  150.7678  138.3350  154.0629 O   0  0  0  0  0  0  0  0  0  0  0  0
  149.0076  139.9491  154.5108 C   0  0  0  0  0  0  0  0  0  0  0  0
  148.9541  141.3547  154.6173 C   0  0  0  0  0  0  0  0  0  0  0  0
  147.8293  142.0273  154.0991 C   0  0  0  0  0  0  0  0  0  0  0  0
  146.7970  141.3943  153.5019 N   0  0  0  0  0  0  0  0  0  0  0  0
  146.8535  140.0493  153.4005 C   0  0  0  0  0  0  0  0  0  0  0  0
  147.9319  139.2822  153.8849 C   0  0  0  0  0  0  0  0  0  0  0  0
  151.5967  141.1830  159.2060 C   0  0  0  0  0  0  0  0  0  0  0  0
  152.0399  142.4423  159.9805 C   0  0  1  0  0  0  0  0  0  0  0  0
  153.5706  142.4927  160.1617 C   0  0  0  0  0  0  0  0  0  0  0  0
  152.8490  145.2482  159.9811 H   0  0  0  0  0  0  0  0  0  0  0  0
  151.5456  144.9360  161.1274 H   0  0  0  0  0  0  0  0  0  0  0  0
  151.2317  145.8532  159.6605 H   0  0  0  0  0  0  0  0  0  0  0  0
  150.3500  143.6096  159.3914 H   0  0  0  0  0  0  0  0  0  0  0  0
  151.2950  144.6591  157.3804 H   0  0  0  0  0  0  0  0  0  0  0  0
  152.8547  143.9492  157.6962 H   0  0  0  0  0  0  0  0  0  0  0  0
  150.2601  142.4596  157.0785 H   0  0  0  0  0  0  0  0  0  0  0  0
  151.6483  142.6137  156.0300 H   0  0  0  0  0  0  0  0  0  0  0  0
  153.0325  141.2744  157.6067 H   0  0  0  0  0  0  0  0  0  0  0  0
  152.1331  139.2946  157.1923 H   0  0  0  0  0  0  0  0  0  0  0  0
  151.0174  141.1627  155.3114 H   0  0  0  0  0  0  0  0  0  0  0  0
  152.2435  139.9315  155.0708 H   0  0  0  0  0  0  0  0  0  0  0  0
  149.8663  138.5448  155.8673 H   0  0  0  0  0  0  0  0  0  0  0  0
  150.1567  137.6362  153.8830 H   0  0  0  0  0  0  0  0  0  0  0  0
  149.7537  141.9109  155.0844 H   0  0  0  0  0  0  0  0  0  0  0  0
  147.7582  143.1032  154.1644 H   0  0  0  0  0  0  0  0  0  0  0  0
  146.0156  139.5695  152.9170 H   0  0  0  0  0  0  0  0  0  0  0  0
  147.9289  138.2076  153.7752 H   0  0  0  0  0  0  0  0  0  0  0  0
  150.5178  141.0631  159.3174 H   0  0  0  0  0  0  0  0  0  0  0  0
  152.0442  140.2956  159.6556 H   0  0  0  0  0  0  0  0  0  0  0  0
  151.6172  142.3609  160.9830 H   0  0  0  0  0  0  0  0  0  0  0  0
  154.0938  142.6481  159.2187 H   0  0  0  0  0  0  0  0  0  0  0  0
  153.9419  141.5623  160.5923 H   0  0  0  0  0  0  0  0  0  0  0  0
  153.8659  143.2939  160.8389 H   0  0  0  0  0  0  0  0  0  0  0  0
  150.5799  139.7505  157.4447 H   0  0  0  0  0  0  0  0  0  0  0  0
  1  2  1  0  0  0  0
  1 19  1  0  0  0  0
  1 20  1  0  0  0  0
  1 21  1  0  0  0  0
  2 17  1  0  0  0  0
  2  3  1  0  0  0  0
  2 22  1  0  0  0  0
  3  4  1  0  0  0  0
  3 23  1  0  0  0  0
  3 24  1  0  0  0  0
  4  5  1  0  0  0  0
  4 25  1  0  0  0  0
  4 26  1  0  0  0  0
  5  6  1  0  0  0  0
  5 16  1  0  0  0  0
  5 27  1  0  0  0  0
  6  7  1  0  0  0  0
  6 28  1  0  0  0  0
  6 43  1  0  0  0  0
  7  8  1  0  0  0  0
  7 29  1  0  0  0  0
  7 30  1  0  0  0  0
  8  9  1  0  0  0  0
  8 10  1  0  0  0  0
  8 31  1  0  0  0  0
  9 32  1  0  0  0  0
 10 15  1  0  0  0  0
 10 11  2  0  0  0  0
 11 12  1  0  0  0  0
 11 33  1  0  0  0  0
 12 13  2  0  0  0  0
 12 34  1  0  0  0  0
 13 14  1  0  0  0  0
 14 15  2  0  0  0  0
 14 35  1  0  0  0  0
 15 36  1  0  0  0  0
 16 17  1  0  0  0  0
 16 37  1  0  0  0  0
 16 38  1  0  0  0  0
 17 18  1  0  0  0  0
 17 39  1  0  0  0  0
 18 40  1  0  0  0  0
 18 41  1  0  0  0  0
 18 42  1  0  0  0  0
M  CHG  1   6   1
M  END
> <s_m_source_file>
AV-unprocessed.smi

> <i_m_source_file_index>
3287

> <i_lp_mmshare_version>
43012

> <i_f3d_flags>
0

> <s_epik_input>
W0NIM11bQ0BASF0xW0NIMl1bQ0gyXVtDQEhdKFtDSDJdW0NASF0xW0NIM10pW05IXVtDSDJdW0NASF0oW09IXSljMltjSF1bY0hdbltjSF1bY0hdMg==

> <s_epik_cmdline>
J2VwaWtfcHl0aG9uJywgJy1waCcsICc3LjAnLCAnLXRuJywgJzgnLCAnLW1hJywgJzIwMCcsICctbWV0YWxfYmluZGluZycsICctaW1hZScsICc8aW5maWxlLm1hZT4nLCAnLW9tYWUnLCAnPG91dGZpbGUubWFlPic=

> <r_lp_tautomer_probability>
1

> <r_epik_Ionization_Penalty>
0.00537262

> <r_epik_Ionization_Penalty_Charging>
0.00321624

> <r_epik_Ionization_Penalty_Neutral>
0.00215638

> <r_epik_State_Penalty>
-0

> <r_epik_Charging_Adjusted_Penalty>
0.00321624

> <i_epik_Tot_Q>
1

> <i_epik_Tot_abs_Q>
1

> <r_epik_Metal_State_Penalty>
-0

> <b_epik_Metal_Only>
0

> <s_lp_Force_Field>
OPLS_2005

> <r_lp_Energy>
18.3798

> <b_lp_Chiralities_Consistent>
1

> <s_lp_Variant>
AV-unprocessed.smi:3287-4

> <Gold.Version>
5.8.1

> <Gold.Id.Protein>
6NUR|6NUR_protein|mol2

> <Gold.PLP.Fitness>
43.6361

> <Gold.PLP.PLP>
-40.0937

> <Gold.PLP.part.hbond>
0.0000

> <Gold.PLP.part.metal>
0.0000

> <Gold.PLP.part.buried>
-4.0319

> <Gold.PLP.part.nonpolar>
-36.1099

> <Gold.PLP.part.repulsive>
0.2815

> <Gold.PLP.ligand.clash>
0.0000

> <Gold.PLP.ligand.torsion>
1.1845

> <Gold.PLP.Chemscore.Hbond>
0.0000

> <Gold.PLP.Chemscore.CHOScore>
1.9640

> <Gold.PLP.Chemscore.Metal>
0.0000

> <Gold.Chemscore.Hbonds>
donor molecule, donor type, donor heavy atom, donor atom, acceptor molecule, acceptor atom, score
      L1  C    12    34       P1  8028  1.00
      L1  C    14    35       P1 10175  0.96

> <Gold.PLP.Chemscore.Internal.Correction>
0.0196

> <Gold.Rescore>
     Score         DG    S(hbond)    S(metal)    S(lipo)     H(rot)  DE(clash)    DE(int)     intcor
     14.00     -15.28       0.00        0.00     125.38       1.90       0.06       1.22       ----

> <Gold.Chemscore.Fitness>
13.9969

> <Gold.Chemscore.DG>
-15.2766

> <Gold.Chemscore.ZeroCoef>
-5.4800

> <Gold.Chemscore.Hbond>
0.0000

> <Gold.Chemscore.Metal>
0.0000

> <Gold.Chemscore.Lipo>
125.3805

> <Gold.Chemscore.Internal_Hbond>
0.0000

> <Gold.Chemscore.DEClash>
0.0598

> <Gold.Chemscore.DEInternal>
1.2199

> <Gold.Chemscore.Rot>
1.9035

> <Gold.Chemscore.Internal.Correction>
   9.000000E+99

> <Gold.Chemscore.Hbond.Weighted>
-0.0000

> <Gold.Chemscore.Metal.Weighted>
-0.0000

> <Gold.Chemscore.Lipo.Weighted>
-14.6695

> <Gold.Chemscore.Internal_Hbond.Weighted>
0.0000

> <Gold.Chemscore.DEClash.Weighted>
0.0598

> <Gold.Chemscore.DEInternal.Weighted>
1.2199

> <Gold.Chemscore.Rot.Weighted>
4.8729

> <Gold.Chemscore.Internal.Correction.Weighted>
   9.000000E+99

> <Gold.Protein.RotatedTorsions>
[ 6907 6896 6895 6894 ] final  -99.98 input  -60.11 | X-H torsion
[ 7974 7965 7964 7962 ] final  170.64 input  175.53 | X-H torsion
[ 8008 7997 7996 7995 ] final  166.03 input   59.86 | X-H torsion
[ 10167 10162 10161 10158 ] final -163.52 input  -65.29 | X-H torsion
[ 10718 10713 10712 10709 ] final   34.85 input   66.30 | X-H torsion
[ 10763 10752 10751 10750 ] final -104.94 input  -60.55 | X-H torsion
[ 11005 11000 10999 10996 ] final  -60.12 input  -57.11 | X-H torsion

> <Gold.Protein.ActiveResidues>
 VAL166  LYS551  ARG553  GLY616  TRP617  ASP618  TYR619  PRO620  LYS621  CYS622 
 ASP623  PHE694  ASN695  SER759  ASP760  ASP761  ALA762  ILE779  LEU786  VAL792 
 PHE793  MET794  SER795  GLU796  ALA797  LYS798  CYS799  TRP800  GLU811  SER814 

> <Gold.Protein.RotatedAtoms>
  150.7099  134.0957  159.3947 H   0  0  0  0  0  0  0  0  0  0  0  0  # atno 6907 bound_to 6896
  151.8943  135.0401  160.0510 H   0  0  0  0  0  0  0  0  0  0  0  0  # atno 6908 bound_to 6896
  152.2466  133.5144  159.5337 H   0  0  0  0  0  0  0  0  0  0  0  0  # atno 6909 bound_to 6896
  144.7318  139.9231  143.6421 H   0  0  0  0  0  0  0  0  0  0  0  0  # atno 7974 bound_to 7965
  156.1752  140.1654  156.8376 H   0  0  0  0  0  0  0  0  0  0  0  0  # atno 8008 bound_to 7997
  154.5299  140.0759  156.8360 H   0  0  0  0  0  0  0  0  0  0  0  0  # atno 8009 bound_to 7997
  155.3429  140.3385  155.4241 H   0  0  0  0  0  0  0  0  0  0  0  0  # atno 8010 bound_to 7997
  139.6315  144.0431  152.2019 H   0  0  0  0  0  0  0  0  0  0  0  0  # atno 10167 bound_to 10162
  157.3154  130.7421  149.6751 H   0  0  0  0  0  0  0  0  0  0  0  0  # atno 10718 bound_to 10713
  154.7913  135.4767  154.0058 H   0  0  0  0  0  0  0  0  0  0  0  0  # atno 10763 bound_to 10752
  153.1635  135.6813  153.8716 H   0  0  0  0  0  0  0  0  0  0  0  0  # atno 10764 bound_to 10752
  153.8322  135.3190  155.3397 H   0  0  0  0  0  0  0  0  0  0  0  0  # atno 10765 bound_to 10752
  141.1275  133.6620  156.5176 H   0  0  0  0  0  0  0  0  0  0  0  0  # atno 11005 bound_to 11000
  146.0914  139.3904  143.0403 LP  0  0  0  0  0  0  0  0  0  0  0  0  # atno 17320 bound_to 7965
  145.7706  140.9898  143.1152 LP  0  0  0  0  0  0  0  0  0  0  0  0  # atno 17321 bound_to 7965
  140.0097  144.6232  150.7657 LP  0  0  0  0  0  0  0  0  0  0  0  0  # atno 17342 bound_to 10162
  140.7441  143.2856  151.3472 LP  0  0  0  0  0  0  0  0  0  0  0  0  # atno 17343 bound_to 10162
  155.9681  130.4239  150.4582 LP  0  0  0  0  0  0  0  0  0  0  0  0  # atno 17370 bound_to 10713
  157.2588  131.0562  151.2333 LP  0  0  0  0  0  0  0  0  0  0  0  0  # atno 17371 bound_to 10713
  140.4318  134.7094  157.4946 LP  0  0  0  0  0  0  0  0  0  0  0  0  # atno 17394 bound_to 11000
  140.0288  134.6437  155.9135 LP  0  0  0  0  0  0  0  0  0  0  0  0  # atno 17395 bound_to 11000

$$$$
