AV-unprocessed.smi:261|AV-procd|sdf|1993|dock6
  -GOLD-   2262021183D 1   1.00000     0.00000
 Structure written by MMmdl.
 51 54  0  0  0  0  0  0  0  0  1 V2000
  146.6488  128.9888  151.5650 C   0  0  0  0  0  0  0  0  0  0  0  0
  146.4283  130.2284  152.2176 O   0  0  0  0  0  0  0  0  0  0  0  0
  145.9578  131.2502  151.3509 C   0  0  1  0  0  0  0  0  0  0  0  0
  144.4712  131.1216  151.0084 C   0  0  0  0  0  0  0  0  0  0  0  0
  144.0449  132.5524  150.6345 C   0  0  2  0  0  0  0  0  0  0  0  0
  144.1819  132.8037  149.1176 C   0  0  0  0  0  0  0  0  0  0  0  0
  143.4247  133.7477  148.5482 N   0  0  0  0  0  0  0  0  0  0  0  0
  144.9710  132.1309  148.4582 O   0  0  0  0  0  0  0  0  0  0  0  0
  144.9250  133.3888  151.4556 N   0  0  0  0  0  0  0  0  0  0  0  0
  144.6306  134.6506  151.8782 C   0  0  0  0  0  0  0  0  0  0  0  0
  145.4375  135.6621  151.4593 N   0  0  0  0  0  0  0  0  0  0  0  0
  145.2074  136.9231  151.8330 C   0  0  0  0  0  0  0  0  0  0  0  0
  144.2348  137.3961  152.6113 N   0  0  0  0  0  0  0  0  0  0  0  0
  143.4141  136.3941  153.0353 C   0  0  0  0  0  0  0  0  0  0  0  0
  143.5333  135.0079  152.7217 C   0  0  0  0  0  0  0  0  0  0  0  0
  142.5009  134.3094  153.3406 N   0  0  0  0  0  0  0  0  0  0  0  0
  141.8213  135.2204  153.9802 C   0  0  0  0  0  0  0  0  0  0  0  0
  142.3030  136.5013  153.8515 N   0  0  0  0  0  0  0  0  0  0  0  0
  141.7545  137.7058  154.4492 C   0  0  0  0  0  0  0  0  0  0  0  0
  140.6561  138.3452  153.5767 C   0  0  2  0  0  0  0  0  0  0  0  0
  140.8880  139.7386  153.4893 O   0  0  0  0  0  0  0  0  0  0  0  0
  139.2435  138.1074  154.1431 C   0  0  1  0  0  0  0  0  0  0  0  0
  138.8452  136.6319  154.2426 C   0  0  0  0  0  0  0  0  0  0  0  0
  137.8424  136.6527  155.3725 C   0  0  0  0  0  0  0  0  0  0  0  0
  138.4745  137.6688  156.3161 C   0  0  0  0  0  0  0  0  0  0  0  0
  139.1541  138.6006  155.4798 O   0  0  0  0  0  0  0  0  0  0  0  0
  146.0139  132.6128  152.0415 C   0  0  0  0  0  0  0  0  0  0  0  0
  146.5518  131.2893  150.4357 H   0  0  0  0  0  0  0  0  0  0  0  0
  143.0010  132.6840  150.9191 H   0  0  0  0  0  0  0  0  0  0  0  0
  147.0332  128.2638  152.2824 H   0  0  0  0  0  0  0  0  0  0  0  0
  147.3828  129.0896  150.7645 H   0  0  0  0  0  0  0  0  0  0  0  0
  145.7265  128.5853  151.1461 H   0  0  0  0  0  0  0  0  0  0  0  0
  144.2818  130.3877  150.2238 H   0  0  0  0  0  0  0  0  0  0  0  0
  143.9180  130.7995  151.8919 H   0  0  0  0  0  0  0  0  0  0  0  0
  143.5033  133.9245  147.5571 H   0  0  0  0  0  0  0  0  0  0  0  0
  142.7782  134.2801  149.1122 H   0  0  0  0  0  0  0  0  0  0  0  0
  145.9024  137.6577  151.4536 H   0  0  0  0  0  0  0  0  0  0  0  0
  140.9477  134.9804  154.5687 H   0  0  0  0  0  0  0  0  0  0  0  0
  141.3556  137.4421  155.4295 H   0  0  0  0  0  0  0  0  0  0  0  0
  142.5668  138.4129  154.6239 H   0  0  0  0  0  0  0  0  0  0  0  0
  140.7109  137.9314  152.5688 H   0  0  0  0  0  0  0  0  0  0  0  0
  140.9556  139.9747  152.5770 H   0  0  0  0  0  0  0  0  0  0  0  0
  138.5004  138.6400  153.5470 H   0  0  0  0  0  0  0  0  0  0  0  0
  138.4327  136.2391  153.3127 H   0  0  0  0  0  0  0  0  0  0  0  0
  139.7031  136.0180  154.5212 H   0  0  0  0  0  0  0  0  0  0  0  0
  136.8784  137.0170  155.0141 H   0  0  0  0  0  0  0  0  0  0  0  0
  137.6924  135.6765  155.8342 H   0  0  0  0  0  0  0  0  0  0  0  0
  137.7395  138.1631  156.9516 H   0  0  0  0  0  0  0  0  0  0  0  0
  139.2091  137.1836  156.9602 H   0  0  0  0  0  0  0  0  0  0  0  0
  145.8385  132.5068  153.1134 H   0  0  0  0  0  0  0  0  0  0  0  0
  146.9834  133.0919  151.8972 H   0  0  0  0  0  0  0  0  0  0  0  0
  1  2  1  0  0  0  0
  1 30  1  0  0  0  0
  1 31  1  0  0  0  0
  1 32  1  0  0  0  0
  2  3  1  0  0  0  0
  3 28  1  0  0  0  0
  3 27  1  0  0  0  0
  3  4  1  0  0  0  0
  4  5  1  0  0  0  0
  4 33  1  0  0  0  0
  4 34  1  0  0  0  0
  5 29  1  0  0  0  0
  5  6  1  0  0  0  0
  5  9  1  0  0  0  0
  6  7  1  0  0  0  0
  6  8  2  0  0  0  0
  7 35  1  0  0  0  0
  7 36  1  0  0  0  0
  9 10  1  0  0  0  0
  9 27  1  0  0  0  0
 10 15  1  0  0  0  0
 10 11  2  0  0  0  0
 11 12  1  0  0  0  0
 12 13  2  0  0  0  0
 12 37  1  0  0  0  0
 13 14  1  0  0  0  0
 14 18  1  0  0  0  0
 14 15  2  0  0  0  0
 15 16  1  0  0  0  0
 16 17  2  0  0  0  0
 17 18  1  0  0  0  0
 17 38  1  0  0  0  0
 18 19  1  0  0  0  0
 19 20  1  0  0  0  0
 19 39  1  0  0  0  0
 19 40  1  0  0  0  0
 20 21  1  0  0  0  0
 20 22  1  0  0  0  0
 20 41  1  0  0  0  0
 21 42  1  0  0  0  0
 22 26  1  0  0  0  0
 22 23  1  0  0  0  0
 22 43  1  0  0  0  0
 23 24  1  0  0  0  0
 23 44  1  0  0  0  0
 23 45  1  0  0  0  0
 24 25  1  0  0  0  0
 24 46  1  0  0  0  0
 24 47  1  0  0  0  0
 25 26  1  0  0  0  0
 25 48  1  0  0  0  0
 25 49  1  0  0  0  0
 27 50  1  0  0  0  0
 27 51  1  0  0  0  0
M  END
> <s_m_source_file>
AV-unprocessed.smi

> <i_m_source_file_index>
261

> <i_lp_mmshare_version>
43012

> <i_f3d_flags>
0

> <s_epik_input>
W0NIM11PW0NASF0xW0NIMl1bQ0BASF0oQyg9TylbTkgyXSlOKFtDSDJdMSljKG5bY0hdbjIpYyhjMjMpbltjSF1uM1tDSDJdW0NASF0oW09IXSlbQ0BASF00W0NIMl1bQ0gyXVtDSDJdTzQ=

> <s_epik_cmdline>
J2VwaWtfcHl0aG9uJywgJy1waCcsICc3LjAnLCAnLXRuJywgJzgnLCAnLW1hJywgJzIwMCcsICctbWV0YWxfYmluZGluZycsICctaW1hZScsICc8aW5maWxlLm1hZT4nLCAnLW9tYWUnLCAnPG91dGZpbGUubWFlPic=

> <r_lp_tautomer_probability>
1

> <r_epik_Ionization_Penalty>
0.000713824

> <r_epik_Ionization_Penalty_Charging>
0

> <r_epik_Ionization_Penalty_Neutral>
0.000713824

> <r_epik_State_Penalty>
0.000402132

> <r_epik_Charging_Adjusted_Penalty>
0.000402132

> <i_epik_Tot_Q>
0

> <i_epik_Tot_abs_Q>
0

> <r_epik_Metal_State_Penalty>
-0

> <b_epik_Metal_Only>
0

> <s_lp_Force_Field>
OPLS_2005

> <r_lp_Energy>
43.0256

> <b_lp_Chiralities_Consistent>
1

> <s_lp_Variant>
AV-unprocessed.smi:261-11

> <Gold.Version>
5.8.1

> <Gold.Id.Protein>
6NUR|6NUR_protein|mol2

> <Gold.PLP.Fitness>
49.1963

> <Gold.PLP.PLP>
-46.9824

> <Gold.PLP.part.hbond>
-6.0619

> <Gold.PLP.part.metal>
0.0000

> <Gold.PLP.part.buried>
-7.7197

> <Gold.PLP.part.nonpolar>
-37.2098

> <Gold.PLP.part.repulsive>
2.9009

> <Gold.PLP.ligand.clash>
0.0000

> <Gold.PLP.ligand.torsion>
3.1399

> <Gold.PLP.Chemscore.Hbond>
1.8320

> <Gold.PLP.Chemscore.CHOScore>
0.9611

> <Gold.PLP.Chemscore.Metal>
0.0000

> <Gold.Chemscore.Hbonds>
donor molecule, donor type, donor heavy atom, donor atom, acceptor molecule, acceptor atom, score
      L1  H     7    36       P1 10186  0.85
      L1  H    21    42       P1 10160  1.00
      L1  C    12    37       P1 10171  0.07
      L1  C    17    38       P1 11000  1.00

> <Gold.PLP.Chemscore.Internal.Correction>
0.1146

> <Gold.Rescore>
     Score         DG    S(hbond)    S(metal)    S(lipo)     H(rot)  DE(clash)    DE(int)     intcor
     10.38     -13.64       1.94        0.00      83.97       3.18       0.40       2.86       ----

> <Gold.Chemscore.Fitness>
10.3817

> <Gold.Chemscore.DG>
-13.6411

> <Gold.Chemscore.ZeroCoef>
-5.4800

> <Gold.Chemscore.Hbond>
1.9418

> <Gold.Chemscore.Metal>
0.0000

> <Gold.Chemscore.Lipo>
83.9684

> <Gold.Chemscore.Internal_Hbond>
0.0000

> <Gold.Chemscore.DEClash>
0.3979

> <Gold.Chemscore.DEInternal>
2.8615

> <Gold.Chemscore.Rot>
3.1831

> <Gold.Chemscore.Internal.Correction>
   9.000000E+99

> <Gold.Chemscore.Hbonds>
donor molecule, donor type, donor heavy atom, donor atom, acceptor molecule, acceptor atom, score
      L1  H     7    36       P1 10186  0.85
      L1  H    21    42       P1 10160  1.00

> <Gold.Chemscore.Hbond.Weighted>
-6.4855

> <Gold.Chemscore.Metal.Weighted>
-0.0000

> <Gold.Chemscore.Lipo.Weighted>
-9.8243

> <Gold.Chemscore.Internal_Hbond.Weighted>
0.0000

> <Gold.Chemscore.DEClash.Weighted>
0.3979

> <Gold.Chemscore.DEInternal.Weighted>
2.8615

> <Gold.Chemscore.Rot.Weighted>
8.1486

> <Gold.Chemscore.Internal.Correction.Weighted>
   9.000000E+99

> <Gold.Protein.RotatedTorsions>
[ 6907 6896 6895 6894 ] final  -52.10 input  -60.11 | X-H torsion
[ 7974 7965 7964 7962 ] final  -23.86 input  175.53 | X-H torsion
[ 8008 7997 7996 7995 ] final  110.59 input   59.86 | X-H torsion
[ 10167 10162 10161 10158 ] final   24.71 input  -65.29 | X-H torsion
[ 10718 10713 10712 10709 ] final -112.05 input   66.30 | X-H torsion
[ 10763 10752 10751 10750 ] final  -26.58 input  -60.55 | X-H torsion
[ 11005 11000 10999 10996 ] final -120.56 input  -57.11 | X-H torsion

> <Gold.Protein.ActiveResidues>
 VAL166  LYS551  ARG553  GLY616  TRP617  ASP618  TYR619  PRO620  LYS621  CYS622 
 ASP623  PHE694  ASN695  SER759  ASP760  ASP761  ALA762  ILE779  LEU786  VAL792 
 PHE793  MET794  SER795  GLU796  ALA797  LYS798  CYS799  TRP800  GLU811  SER814 

> <Gold.Protein.RotatedAtoms>
  150.8550  134.7886  159.7037 H   0  0  0  0  0  0  0  0  0  0  0  0  # atno 6907 bound_to 6896
  152.4604  134.5194  159.9788 H   0  0  0  0  0  0  0  0  0  0  0  0  # atno 6908 bound_to 6896
  151.5308  133.3411  159.2953 H   0  0  0  0  0  0  0  0  0  0  0  0  # atno 6909 bound_to 6896
  146.1590  140.4673  142.8579 H   0  0  0  0  0  0  0  0  0  0  0  0  # atno 7974 bound_to 7965
  156.2064  140.3036  155.9635 H   0  0  0  0  0  0  0  0  0  0  0  0  # atno 8008 bound_to 7997
  155.2832  140.0438  157.3034 H   0  0  0  0  0  0  0  0  0  0  0  0  # atno 8009 bound_to 7997
  154.5638  140.2328  155.8303 H   0  0  0  0  0  0  0  0  0  0  0  0  # atno 8010 bound_to 7997
  140.5166  144.0072  150.6397 H   0  0  0  0  0  0  0  0  0  0  0  0  # atno 10167 bound_to 10162
  156.0682  130.5899  150.8456 H   0  0  0  0  0  0  0  0  0  0  0  0  # atno 10718 bound_to 10713
  153.7182  135.6946  153.5019 H   0  0  0  0  0  0  0  0  0  0  0  0  # atno 10763 bound_to 10752
  153.2223  135.4365  155.0502 H   0  0  0  0  0  0  0  0  0  0  0  0  # atno 10764 bound_to 10752
  154.8293  135.3463  154.6716 H   0  0  0  0  0  0  0  0  0  0  0  0  # atno 10765 bound_to 10752
  141.0135  134.0230  157.3382 H   0  0  0  0  0  0  0  0  0  0  0  0  # atno 11005 bound_to 11000
  144.8002  140.6198  143.6483 LP  0  0  0  0  0  0  0  0  0  0  0  0  # atno 17320 bound_to 7965
  145.4635  139.1510  143.3853 LP  0  0  0  0  0  0  0  0  0  0  0  0  # atno 17321 bound_to 7965
  140.3410  143.3020  152.0588 LP  0  0  0  0  0  0  0  0  0  0  0  0  # atno 17342 bound_to 10162
  139.4911  144.6442  151.6812 LP  0  0  0  0  0  0  0  0  0  0  0  0  # atno 17343 bound_to 10162
  157.5738  131.0946  150.9378 LP  0  0  0  0  0  0  0  0  0  0  0  0  # atno 17370 bound_to 10713
  156.9588  130.5447  149.5285 LP  0  0  0  0  0  0  0  0  0  0  0  0  # atno 17371 bound_to 10713
  139.9103  135.0189  156.7664 LP  0  0  0  0  0  0  0  0  0  0  0  0  # atno 17394 bound_to 11000
  140.6694  133.9573  155.7848 LP  0  0  0  0  0  0  0  0  0  0  0  0  # atno 17395 bound_to 11000

$$$$
