AV-unprocessed.smi:781|AV-procd|sdf|3710|dock7
  -GOLD-   22720 1133D 1   1.00000     0.00000
 Structure written by MMmdl.
 38 40  0  0  0  0  0  0  0  0  1 V2000
  151.8468  136.8408  157.7560 C   0  0  0  0  0  0  0  0  0  0  0  0
  150.8150  136.1141  156.9632 C   0  0  0  0  0  0  0  0  0  0  0  0
  150.3664  136.2437  155.6789 C   0  0  0  0  0  0  0  0  0  0  0  0
  149.3760  135.2303  155.5820 C   0  0  0  0  0  0  0  0  0  0  0  0
  148.6557  135.0293  154.3768 N   0  0  0  0  0  0  0  0  0  0  0  0
  147.4965  134.3683  154.2164 C   0  0  0  0  0  0  0  0  0  0  0  0
  146.8603  133.8220  155.1179 O   0  0  0  0  0  0  0  0  0  0  0  0
  147.1112  134.3667  152.9319 N   0  0  0  0  0  0  0  0  0  0  0  0
  145.8899  133.7468  152.4148 C   0  0  1  0  0  0  0  0  0  0  0  0
  145.7301  134.0587  150.9111 C   0  0  2  0  0  0  0  0  0  0  0  0
  144.2847  133.7462  150.4828 C   0  0  0  0  0  0  0  0  0  0  0  0
  144.2539  132.2061  150.5110 C   0  0  0  0  0  0  0  0  0  0  0  0
  145.6866  131.8415  150.9494 C   0  0  1  0  0  0  0  0  0  0  0  0
  146.5009  132.9225  150.2502 C   0  0  0  0  0  0  0  0  0  0  0  0
  145.8696  132.1877  152.4481 C   0  0  1  0  0  0  0  0  0  0  0  0
  147.0978  131.5010  153.0885 C   0  0  0  0  0  0  0  0  0  0  0  0
  148.2918  131.9857  152.5109 O   0  0  0  0  0  0  0  0  0  0  0  0
  149.2330  134.5440  156.7054 N   0  0  0  0  0  0  0  0  0  0  0  0
  150.1544  135.1070  157.5965 O   0  0  0  0  0  0  0  0  0  0  0  0
  152.2633  137.6709  157.1853 H   0  0  0  0  0  0  0  0  0  0  0  0
  152.6649  136.1740  158.0290 H   0  0  0  0  0  0  0  0  0  0  0  0
  151.4176  137.2433  158.6736 H   0  0  0  0  0  0  0  0  0  0  0  0
  150.6965  136.9500  154.9317 H   0  0  0  0  0  0  0  0  0  0  0  0
  149.0691  135.4291  153.5475 H   0  0  0  0  0  0  0  0  0  0  0  0
  147.6976  134.8381  152.2590 H   0  0  0  0  0  0  0  0  0  0  0  0
  145.0342  134.1480  152.9613 H   0  0  0  0  0  0  0  0  0  0  0  0
  146.0532  135.0613  150.6276 H   0  0  0  0  0  0  0  0  0  0  0  0
  143.5452  134.1916  151.1495 H   0  0  0  0  0  0  0  0  0  0  0  0
  144.0900  134.1145  149.4748 H   0  0  0  0  0  0  0  0  0  0  0  0
  143.4979  131.8160  151.1933 H   0  0  0  0  0  0  0  0  0  0  0  0
  144.0403  131.8104  149.5172 H   0  0  0  0  0  0  0  0  0  0  0  0
  145.9644  130.8200  150.6884 H   0  0  0  0  0  0  0  0  0  0  0  0
  146.3994  132.9059  149.1636 H   0  0  0  0  0  0  0  0  0  0  0  0
  147.5608  132.9077  150.5074 H   0  0  0  0  0  0  0  0  0  0  0  0
  144.9910  131.8609  153.0069 H   0  0  0  0  0  0  0  0  0  0  0  0
  147.1323  131.6621  154.1663 H   0  0  0  0  0  0  0  0  0  0  0  0
  147.0653  130.4246  152.9201 H   0  0  0  0  0  0  0  0  0  0  0  0
  148.3633  131.6410  151.6337 H   0  0  0  0  0  0  0  0  0  0  0  0
  1  2  1  0  0  0  0
  1 20  1  0  0  0  0
  1 21  1  0  0  0  0
  1 22  1  0  0  0  0
  2 19  1  0  0  0  0
  2  3  2  0  0  0  0
  3  4  1  0  0  0  0
  3 23  1  0  0  0  0
  4  5  1  0  0  0  0
  4 18  2  0  0  0  0
  5  6  1  0  0  0  0
  5 24  1  0  0  0  0
  6  7  2  0  0  0  0
  6  8  1  0  0  0  0
  8  9  1  0  0  0  0
  8 25  1  0  0  0  0
  9 15  1  0  0  0  0
  9 10  1  0  0  0  0
  9 26  1  0  0  0  0
 10 14  1  0  0  0  0
 10 11  1  0  0  0  0
 10 27  1  0  0  0  0
 11 12  1  0  0  0  0
 11 28  1  0  0  0  0
 11 29  1  0  0  0  0
 12 13  1  0  0  0  0
 12 30  1  0  0  0  0
 12 31  1  0  0  0  0
 13 14  1  0  0  0  0
 13 15  1  0  0  0  0
 13 32  1  0  0  0  0
 14 33  1  0  0  0  0
 14 34  1  0  0  0  0
 15 16  1  0  0  0  0
 15 35  1  0  0  0  0
 16 17  1  0  0  0  0
 16 36  1  0  0  0  0
 16 37  1  0  0  0  0
 17 38  1  0  0  0  0
 18 19  1  0  0  0  0
M  END
> <s_m_source_file>
AV-unprocessed.smi

> <i_m_source_file_index>
781

> <i_lp_mmshare_version>
43012

> <i_f3d_flags>
0

> <s_epik_input>
W0NIM11jMVtjSF1jKG5vMSlbTkhdQyg9TylbTkhdW0NASF0oW0NAQEhdMjMpW0NASF0oW0NIMl1bT0hdKVtDQEBIXShbQ0gyXTMpW0NIMl1bQ0gyXTI=

> <s_epik_cmdline>
J2VwaWtfcHl0aG9uJywgJy1waCcsICc3LjAnLCAnLXRuJywgJzgnLCAnLW1hJywgJzIwMCcsICctbWV0YWxfYmluZGluZycsICctaW1hZScsICc8aW5maWxlLm1hZT4nLCAnLW9tYWUnLCAnPG91dGZpbGUubWFlPic=

> <r_lp_tautomer_probability>
1

> <r_epik_Ionization_Penalty>
2.32222e-05

> <r_epik_Ionization_Penalty_Charging>
0

> <r_epik_Ionization_Penalty_Neutral>
2.32222e-05

> <r_epik_State_Penalty>
-0

> <r_epik_Charging_Adjusted_Penalty>
0

> <i_epik_Tot_Q>
0

> <i_epik_Tot_abs_Q>
0

> <r_epik_Metal_State_Penalty>
-0

> <b_epik_Metal_Only>
0

> <s_lp_Force_Field>
OPLS_2005

> <r_lp_Energy>
48.1353

> <b_lp_Chiralities_Consistent>
1

> <s_lp_Variant>
AV-unprocessed.smi:781-4

> <Gold.Version>
5.8.1

> <Gold.Id.Protein>
6NUR|6NUR_protein|mol2

> <Gold.PLP.Fitness>
37.9617

> <Gold.PLP.PLP>
-27.0777

> <Gold.PLP.part.hbond>
-4.0000

> <Gold.PLP.part.metal>
0.0000

> <Gold.PLP.part.buried>
-4.5814

> <Gold.PLP.part.nonpolar>
-18.6903

> <Gold.PLP.part.repulsive>
0.0365

> <Gold.PLP.ligand.clash>
0.0000

> <Gold.PLP.ligand.torsion>
0.1459

> <Gold.PLP.Chemscore.Hbond>
3.7210

> <Gold.PLP.Chemscore.CHOScore>
0.0000

> <Gold.PLP.Chemscore.Metal>
0.0000

> <Gold.Chemscore.Hbonds>
donor molecule, donor type, donor heavy atom, donor atom, acceptor molecule, acceptor atom, score
      L1  H     5    24       P1  7948  1.00
      L1  H     8    25       P1  7948  1.00
      L1  H    17    38       P1 10747  1.00
      P1  H  6896  6907       L1    19  0.72

> <Gold.PLP.Chemscore.Internal.Correction>
0.0129

> <Gold.Rescore>
     Score         DG    S(hbond)    S(metal)    S(lipo)     H(rot)  DE(clash)    DE(int)     intcor
     17.10     -20.96       3.75        0.00      65.81       1.86       0.07       3.79       ----

> <Gold.Chemscore.Fitness>
17.0988

> <Gold.Chemscore.DG>
-20.9587

> <Gold.Chemscore.ZeroCoef>
-5.4800

> <Gold.Chemscore.Hbond>
3.7538

> <Gold.Chemscore.Metal>
0.0000

> <Gold.Chemscore.Lipo>
65.8065

> <Gold.Chemscore.Internal_Hbond>
0.0000

> <Gold.Chemscore.DEClash>
0.0738

> <Gold.Chemscore.DEInternal>
3.7862

> <Gold.Chemscore.Rot>
1.8587

> <Gold.Chemscore.Internal.Correction>
   9.000000E+99

> <Gold.Chemscore.Hbonds>
donor molecule, donor type, donor heavy atom, donor atom, acceptor molecule, acceptor atom, score
      L1  H     5    24       P1  7948  0.59
      L1  H     8    25       P1  7948  0.78
      L1  H    17    38       P1 10747  0.99
      P1  H  6896  6907       L1    19  0.68

> <Gold.Chemscore.Hbond.Weighted>
-12.5377

> <Gold.Chemscore.Metal.Weighted>
-0.0000

> <Gold.Chemscore.Lipo.Weighted>
-7.6994

> <Gold.Chemscore.Internal_Hbond.Weighted>
0.0000

> <Gold.Chemscore.DEClash.Weighted>
0.0738

> <Gold.Chemscore.DEInternal.Weighted>
3.7862

> <Gold.Chemscore.Rot.Weighted>
4.7583

> <Gold.Chemscore.Internal.Correction.Weighted>
   9.000000E+99

> <Gold.Protein.RotatedTorsions>
[ 6907 6896 6895 6894 ] final  -82.09 input  -60.11 | X-H torsion
[ 7974 7965 7964 7962 ] final  -79.08 input  175.53 | X-H torsion
[ 8008 7997 7996 7995 ] final -111.56 input   59.86 | X-H torsion
[ 10167 10162 10161 10158 ] final  -98.64 input  -65.29 | X-H torsion
[ 10718 10713 10712 10709 ] final   45.31 input   66.30 | X-H torsion
[ 10763 10752 10751 10750 ] final   22.92 input  -60.55 | X-H torsion
[ 11005 11000 10999 10996 ] final  -79.00 input  -57.11 | X-H torsion

> <Gold.Protein.ActiveResidues>
 VAL166  LYS551  ARG553  GLY616  TRP617  ASP618  TYR619  PRO620  LYS621  CYS622 
 ASP623  PHE694  ASN695  SER759  ASP760  ASP761  ALA762  ILE779  LEU786  VAL792 
 PHE793  MET794  SER795  GLU796  ALA797  LYS798  CYS799  TRP800  GLU811  SER814 

> <Gold.Protein.RotatedAtoms>
  150.6902  134.3717  159.4994 H   0  0  0  0  0  0  0  0  0  0  0  0  # atno 6907 bound_to 6896
  152.1532  134.8969  160.0556 H   0  0  0  0  0  0  0  0  0  0  0  0  # atno 6908 bound_to 6896
  152.0058  133.3808  159.4237 H   0  0  0  0  0  0  0  0  0  0  0  0  # atno 6909 bound_to 6896
  145.5780  140.9454  143.1359 H   0  0  0  0  0  0  0  0  0  0  0  0  # atno 7974 bound_to 7965
  154.9917  140.0395  157.2322 H   0  0  0  0  0  0  0  0  0  0  0  0  # atno 8008 bound_to 7997
  154.7622  140.2786  155.6182 H   0  0  0  0  0  0  0  0  0  0  0  0  # atno 8009 bound_to 7997
  156.2906  140.2626  156.2404 H   0  0  0  0  0  0  0  0  0  0  0  0  # atno 8010 bound_to 7997
  140.2709  143.3345  152.0535 H   0  0  0  0  0  0  0  0  0  0  0  0  # atno 10167 bound_to 10162
  157.4362  130.8054  149.7650 H   0  0  0  0  0  0  0  0  0  0  0  0  # atno 10718 bound_to 10713
  153.0878  135.6638  153.9914 H   0  0  0  0  0  0  0  0  0  0  0  0  # atno 10763 bound_to 10752
  153.9518  135.2983  155.3439 H   0  0  0  0  0  0  0  0  0  0  0  0  # atno 10764 bound_to 10752
  154.7289  135.5132  153.9004 H   0  0  0  0  0  0  0  0  0  0  0  0  # atno 10765 bound_to 10752
  141.1666  133.7087  156.8057 H   0  0  0  0  0  0  0  0  0  0  0  0  # atno 11005 bound_to 11000
  144.7407  139.7457  143.7312 LP  0  0  0  0  0  0  0  0  0  0  0  0  # atno 17320 bound_to 7965
  146.1737  139.4898  142.9911 LP  0  0  0  0  0  0  0  0  0  0  0  0  # atno 17321 bound_to 7965
  139.4989  144.6657  151.6362 LP  0  0  0  0  0  0  0  0  0  0  0  0  # atno 17342 bound_to 10162
  140.5890  143.9812  150.6313 LP  0  0  0  0  0  0  0  0  0  0  0  0  # atno 17343 bound_to 10162
  155.9931  130.3926  150.2913 LP  0  0  0  0  0  0  0  0  0  0  0  0  # atno 17370 bound_to 10713
  157.1074  131.0212  151.3062 LP  0  0  0  0  0  0  0  0  0  0  0  0  # atno 17371 bound_to 10713
  140.2224  134.8747  157.3391 LP  0  0  0  0  0  0  0  0  0  0  0  0  # atno 17394 bound_to 11000
  140.1974  134.4296  155.7681 LP  0  0  0  0  0  0  0  0  0  0  0  0  # atno 17395 bound_to 11000

$$$$
