AV-unprocessed.smi:1047|AV-procd|sdf|4564|dock6
  -GOLD-   22720 3 13D 1   1.00000     0.00000
 Structure written by MMmdl.
 57 59  0  0  0  0  0  0  0  0  3 V2000
  148.3462  132.5381  152.8738 C   0  0  0  0  0  0  0  0  0  0  0  0
  149.3344  131.8205  153.8045 C   0  0  0  0  0  0  0  0  0  0  0  0
  149.8463  132.6987  154.8867 N   0  3  1  0  0  0  0  0  0  0  0  0
  150.8768  132.0257  155.7132 C   0  0  0  0  0  0  0  0  0  0  0  0
  151.3393  132.9440  156.8568 C   0  0  0  0  0  0  0  0  0  0  0  0
  151.8299  134.1678  156.3220 O   0  0  0  0  0  0  0  0  0  0  0  0
  150.8336  134.8723  155.5887 C   0  0  1  0  0  0  0  0  0  0  0  0
  151.3984  136.2384  155.1626 C   0  0  0  0  0  0  0  0  0  0  0  0
  150.3566  137.1220  154.5988 N   0  3  0  0  0  0  0  0  0  0  0  0
  150.7728  138.5320  154.4671 C   0  0  0  0  0  0  0  0  0  0  0  0
  151.7504  138.9372  155.5869 C   0  0  1  0  0  0  0  0  0  0  0  0
  153.0002  139.2496  155.0023 O   0  0  0  0  0  0  0  0  0  0  0  0
  151.2648  140.1432  156.4210 C   0  0  0  0  0  0  0  0  0  0  0  0
  151.9702  140.2979  157.6833 N   0  0  0  0  0  0  0  0  0  0  0  0
  152.8423  139.4336  158.2382 C   0  0  0  0  0  0  0  0  0  0  0  0
  153.3852  139.7781  159.4017 N   0  0  0  0  0  0  0  0  0  0  0  0
  152.7899  141.0055  159.6348 C   0  0  0  0  0  0  0  0  0  0  0  0
  152.9395  141.9069  160.7111 C   0  0  0  0  0  0  0  0  0  0  0  0
  152.2205  143.1228  160.7436 C   0  0  0  0  0  0  0  0  0  0  0  0
  152.4095  144.0605  161.9230 C   0  0  0  0  0  0  0  0  0  0  0  0
  151.3335  143.4523  159.6876 C   0  0  0  0  0  0  0  0  0  0  0  0
  150.5469  144.7510  159.7038 C   0  0  0  0  0  0  0  0  0  0  0  0
  151.1735  142.5640  158.6037 C   0  0  0  0  0  0  0  0  0  0  0  0
  151.8956  141.3574  158.5820 C   0  0  0  0  0  0  0  0  0  0  0  0
  150.3475  134.0102  154.4045 C   0  0  0  0  0  0  0  0  0  0  0  0
  147.9135  131.8343  152.1623 H   0  0  0  0  0  0  0  0  0  0  0  0
  148.8273  133.3248  152.2929 H   0  0  0  0  0  0  0  0  0  0  0  0
  147.5253  132.9849  153.4353 H   0  0  0  0  0  0  0  0  0  0  0  0
  148.8143  130.9737  154.2543 H   0  0  0  0  0  0  0  0  0  0  0  0
  150.1660  131.4048  153.2335 H   0  0  0  0  0  0  0  0  0  0  0  0
  150.4735  131.1012  156.1286 H   0  0  0  0  0  0  0  0  0  0  0  0
  151.7272  131.7510  155.0871 H   0  0  0  0  0  0  0  0  0  0  0  0
  150.5240  133.1381  157.5556 H   0  0  0  0  0  0  0  0  0  0  0  0
  152.1361  132.4628  157.4244 H   0  0  0  0  0  0  0  0  0  0  0  0
  149.9878  135.0618  156.2526 H   0  0  0  0  0  0  0  0  0  0  0  0
  151.8606  136.7279  156.0209 H   0  0  0  0  0  0  0  0  0  0  0  0
  152.1825  136.0968  154.4179 H   0  0  0  0  0  0  0  0  0  0  0  0
  150.0945  136.7756  153.6868 H   0  0  0  0  0  0  0  0  0  0  0  0
  151.2254  138.6823  153.4859 H   0  0  0  0  0  0  0  0  0  0  0  0
  149.8831  139.1615  154.5105 H   0  0  0  0  0  0  0  0  0  0  0  0
  151.8994  138.0928  156.2611 H   0  0  0  0  0  0  0  0  0  0  0  0
  152.9341  139.1277  154.0668 H   0  0  0  0  0  0  0  0  0  0  0  0
  151.3878  141.0622  155.8468 H   0  0  0  0  0  0  0  0  0  0  0  0
  150.1974  140.0567  156.6294 H   0  0  0  0  0  0  0  0  0  0  0  0
  153.0988  138.5012  157.7565 H   0  0  0  0  0  0  0  0  0  0  0  0
  153.6131  141.6545  161.5170 H   0  0  0  0  0  0  0  0  0  0  0  0
  151.4758  144.1692  162.4749 H   0  0  0  0  0  0  0  0  0  0  0  0
  152.7294  145.0460  161.5841 H   0  0  0  0  0  0  0  0  0  0  0  0
  153.1650  143.6841  162.6133 H   0  0  0  0  0  0  0  0  0  0  0  0
  149.8832  144.8256  158.8421 H   0  0  0  0  0  0  0  0  0  0  0  0
  151.2228  145.6061  159.6820 H   0  0  0  0  0  0  0  0  0  0  0  0
  149.9344  144.8165  160.6031 H   0  0  0  0  0  0  0  0  0  0  0  0
  150.4998  142.8039  157.7946 H   0  0  0  0  0  0  0  0  0  0  0  0
  151.1572  133.8437  153.6923 H   0  0  0  0  0  0  0  0  0  0  0  0
  149.5596  134.5443  153.8740 H   0  0  0  0  0  0  0  0  0  0  0  0
  149.5455  137.0948  155.2006 H   0  0  0  0  0  0  0  0  0  0  0  0
  149.0656  132.8845  155.5007 H   0  0  0  0  0  0  0  0  0  0  0  0
  1  2  1  0  0  0  0
  1 26  1  0  0  0  0
  1 27  1  0  0  0  0
  1 28  1  0  0  0  0
  2  3  1  0  0  0  0
  2 29  1  0  0  0  0
  2 30  1  0  0  0  0
  3 25  1  0  0  0  0
  3  4  1  0  0  0  0
  3 57  1  0  0  0  0
  4  5  1  0  0  0  0
  4 31  1  0  0  0  0
  4 32  1  0  0  0  0
  5  6  1  0  0  0  0
  5 33  1  0  0  0  0
  5 34  1  0  0  0  0
  6  7  1  0  0  0  0
  7  8  1  0  0  0  0
  7 25  1  0  0  0  0
  7 35  1  0  0  0  0
  8  9  1  0  0  0  0
  8 36  1  0  0  0  0
  8 37  1  0  0  0  0
  9 10  1  0  0  0  0
  9 38  1  0  0  0  0
  9 56  1  0  0  0  0
 10 11  1  0  0  0  0
 10 39  1  0  0  0  0
 10 40  1  0  0  0  0
 11 12  1  0  0  0  0
 11 13  1  0  0  0  0
 11 41  1  0  0  0  0
 12 42  1  0  0  0  0
 13 14  1  0  0  0  0
 13 43  1  0  0  0  0
 13 44  1  0  0  0  0
 14 24  1  0  0  0  0
 14 15  1  0  0  0  0
 15 16  2  0  0  0  0
 15 45  1  0  0  0  0
 16 17  1  0  0  0  0
 17 24  2  0  0  0  0
 17 18  1  0  0  0  0
 18 19  2  0  0  0  0
 18 46  1  0  0  0  0
 19 20  1  0  0  0  0
 19 21  1  0  0  0  0
 20 47  1  0  0  0  0
 20 48  1  0  0  0  0
 20 49  1  0  0  0  0
 21 22  1  0  0  0  0
 21 23  2  0  0  0  0
 22 50  1  0  0  0  0
 22 51  1  0  0  0  0
 22 52  1  0  0  0  0
 23 24  1  0  0  0  0
 23 53  1  0  0  0  0
 25 54  1  0  0  0  0
 25 55  1  0  0  0  0
M  CHG  1   3   1
M  CHG  1   9   1
M  END
> <s_m_source_file>
AV-unprocessed.smi

> <i_m_source_file_index>
1047

> <i_lp_mmshare_version>
43012

> <i_f3d_flags>
0

> <s_epik_input>
W0NIM11bQ0gyXU4xW0NIMl1bQ0gyXU9bQ0BIXShbQ0gyXTEpW0NIMl1bTkhdW0NIMl1bQ0BIXShbT0hdKVtDSDJdbihbY0hdbjIpYyhjMjMpW2NIXWMoW0NIM10pYyhbY0hdMylbQ0gzXQ==

> <s_epik_cmdline>
J2VwaWtfcHl0aG9uJywgJy1waCcsICc3LjAnLCAnLXRuJywgJzgnLCAnLW1hJywgJzIwMCcsICctbWV0YWxfYmluZGluZycsICctaW1hZScsICc8aW5maWxlLm1hZT4nLCAnLW9tYWUnLCAnPG91dGZpbGUubWFlPic=

> <r_epik_Ionization_Penalty>
0.528991

> <r_epik_Ionization_Penalty_Charging>
0.438567

> <r_epik_Ionization_Penalty_Neutral>
0.0904237

> <r_epik_State_Penalty>
0.533036

> <r_epik_Charging_Adjusted_Penalty>
0.971603

> <i_epik_Tot_Q>
2

> <i_epik_Tot_abs_Q>
2

> <r_epik_Metal_State_Penalty>
0.448985

> <b_epik_Metal_Only>
0

> <s_lp_Force_Field>
OPLS_2005

> <r_lp_Energy>
29.0334

> <b_lp_Chiralities_Consistent>
1

> <s_lp_Variant>
AV-unprocessed.smi:1047-5

> <Gold.Version>
5.8.1

> <Gold.Id.Protein>
6NUR|6NUR_protein|mol2

> <Gold.PLP.Fitness>
58.5803

> <Gold.PLP.PLP>
-51.6713

> <Gold.PLP.part.hbond>
-2.0000

> <Gold.PLP.part.metal>
0.0000

> <Gold.PLP.part.buried>
-6.1679

> <Gold.PLP.part.nonpolar>
-43.5860

> <Gold.PLP.part.repulsive>
0.0465

> <Gold.PLP.ligand.clash>
0.0000

> <Gold.PLP.ligand.torsion>
1.2112

> <Gold.PLP.Chemscore.Hbond>
3.0000

> <Gold.PLP.Chemscore.CHOScore>
0.0000

> <Gold.PLP.Chemscore.Metal>
0.0000

> <Gold.Chemscore.Hbonds>
donor molecule, donor type, donor heavy atom, donor atom, acceptor molecule, acceptor atom, score
      L1  H     9    38       P1  7948  1.14
      P1  H  7997  8008       L1    12  1.00

> <Gold.PLP.Chemscore.Internal.Correction>
0.3315

> <Gold.Rescore>
     Score         DG    S(hbond)    S(metal)    S(lipo)     H(rot)  DE(clash)    DE(int)     intcor
     17.75     -19.75       1.64        0.00     134.16       2.70       0.40       1.60       ----

> <Gold.Chemscore.Fitness>
17.7488

> <Gold.Chemscore.DG>
-19.7470

> <Gold.Chemscore.ZeroCoef>
-5.4800

> <Gold.Chemscore.Hbond>
1.6404

> <Gold.Chemscore.Metal>
0.0000

> <Gold.Chemscore.Lipo>
134.1561

> <Gold.Chemscore.Internal_Hbond>
0.0000

> <Gold.Chemscore.DEClash>
0.3965

> <Gold.Chemscore.DEInternal>
1.6017

> <Gold.Chemscore.Rot>
2.6985

> <Gold.Chemscore.Internal.Correction>
   9.000000E+99

> <Gold.Chemscore.Hbonds>
donor molecule, donor type, donor heavy atom, donor atom, acceptor molecule, acceptor atom, score
      L1  H     9    38       P1  7948  0.11
      P1  H  7997  8008       L1    12  0.99

> <Gold.Chemscore.Hbond.Weighted>
-5.4789

> <Gold.Chemscore.Metal.Weighted>
-0.0000

> <Gold.Chemscore.Lipo.Weighted>
-15.6963

> <Gold.Chemscore.Internal_Hbond.Weighted>
0.0000

> <Gold.Chemscore.DEClash.Weighted>
0.3965

> <Gold.Chemscore.DEInternal.Weighted>
1.6017

> <Gold.Chemscore.Rot.Weighted>
6.9081

> <Gold.Chemscore.Internal.Correction.Weighted>
   9.000000E+99

> <Gold.Protein.RotatedTorsions>
[ 6907 6896 6895 6894 ] final  161.07 input  -60.11 | X-H torsion
[ 7974 7965 7964 7962 ] final   78.42 input  175.53 | X-H torsion
[ 8008 7997 7996 7995 ] final  -19.52 input   59.86 | X-H torsion
[ 10167 10162 10161 10158 ] final  -92.49 input  -65.29 | X-H torsion
[ 10718 10713 10712 10709 ] final  -62.50 input   66.30 | X-H torsion
[ 10763 10752 10751 10750 ] final  -48.12 input  -60.55 | X-H torsion
[ 11005 11000 10999 10996 ] final   86.42 input  -57.11 | X-H torsion

> <Gold.Protein.ActiveResidues>
 VAL166  LYS551  ARG553  GLY616  TRP617  ASP618  TYR619  PRO620  LYS621  CYS622 
 ASP623  PHE694  ASN695  SER759  ASP760  ASP761  ALA762  ILE779  LEU786  VAL792 
 PHE793  MET794  SER795  GLU796  ALA797  LYS798  CYS799  TRP800  GLU811  SER814 

> <Gold.Protein.RotatedAtoms>
  151.9612  133.3696  159.4035 H   0  0  0  0  0  0  0  0  0  0  0  0  # atno 6907 bound_to 6896
  150.6964  134.4239  159.5227 H   0  0  0  0  0  0  0  0  0  0  0  0  # atno 6908 bound_to 6896
  152.1928  134.8657  160.0566 H   0  0  0  0  0  0  0  0  0  0  0  0  # atno 6909 bound_to 6896
  145.6774  139.2514  143.1833 H   0  0  0  0  0  0  0  0  0  0  0  0  # atno 7974 bound_to 7965
  154.4831  140.2086  155.9717 H   0  0  0  0  0  0  0  0  0  0  0  0  # atno 8008 bound_to 7997
  156.1195  140.3215  155.8157 H   0  0  0  0  0  0  0  0  0  0  0  0  # atno 8009 bound_to 7997
  155.4492  140.0516  157.2993 H   0  0  0  0  0  0  0  0  0  0  0  0  # atno 8010 bound_to 7997
  140.3343  143.2977  151.9907 H   0  0  0  0  0  0  0  0  0  0  0  0  # atno 10167 bound_to 10162
  156.0851  130.4210  150.1144 H   0  0  0  0  0  0  0  0  0  0  0  0  # atno 10718 bound_to 10713
  154.0726  135.6602  153.4826 H   0  0  0  0  0  0  0  0  0  0  0  0  # atno 10763 bound_to 10752
  153.0385  135.5161  154.7552 H   0  0  0  0  0  0  0  0  0  0  0  0  # atno 10764 bound_to 10752
  154.6623  135.3017  154.9818 H   0  0  0  0  0  0  0  0  0  0  0  0  # atno 10765 bound_to 10752
  139.8945  134.8354  156.2718 H   0  0  0  0  0  0  0  0  0  0  0  0  # atno 11005 bound_to 11000
  146.0993  140.7563  142.9557 LP  0  0  0  0  0  0  0  0  0  0  0  0  # atno 17320 bound_to 7965
  144.7037  140.3762  143.7135 LP  0  0  0  0  0  0  0  0  0  0  0  0  # atno 17321 bound_to 7965
  139.4851  144.6209  151.7257 LP  0  0  0  0  0  0  0  0  0  0  0  0  # atno 17342 bound_to 10162
  140.5368  144.0643  150.6073 LP  0  0  0  0  0  0  0  0  0  0  0  0  # atno 17343 bound_to 10162
  156.9166  130.9669  151.3555 LP  0  0  0  0  0  0  0  0  0  0  0  0  # atno 17370 bound_to 10713
  157.5983  130.8493  149.8762 LP  0  0  0  0  0  0  0  0  0  0  0  0  # atno 17371 bound_to 10713
  141.0095  133.7104  156.1089 LP  0  0  0  0  0  0  0  0  0  0  0  0  # atno 17394 bound_to 11000
  140.7386  134.4175  157.5557 LP  0  0  0  0  0  0  0  0  0  0  0  0  # atno 17395 bound_to 11000

$$$$
