AV-unprocessed.smi:174|AV-procd|sdf|1425|dock2
  -GOLD-   2262019193D 1   1.00000     0.00000
 Structure written by MMmdl.
 51 54  0  0  0  0  0  0  0  0  1 V2000
  146.8114  133.0172  150.2638 N   0  0  0  0  0  0  0  0  0  0  0  0
  146.5143  133.3540  151.5236 C   0  0  0  0  0  0  0  0  0  0  0  0
  147.1108  132.8592  152.4771 O   0  0  0  0  0  0  0  0  0  0  0  0
  145.4023  134.3863  151.7806 C   0  0  0  0  0  0  0  0  0  0  0  0
  145.8575  135.6741  152.3341 N   0  0  0  0  0  0  0  0  0  0  0  0
  145.5739  136.8704  151.5336 C   0  0  0  0  0  0  0  0  0  0  0  0
  146.6512  137.9463  151.7018 C   0  0  0  0  0  0  0  0  0  0  0  0
  146.8555  138.2390  153.1150 N   0  0  0  0  0  0  0  0  0  0  0  0
  147.4224  139.4192  153.4927 C   0  0  0  0  0  0  0  0  0  0  0  0
  146.8489  140.5661  153.0394 N   0  0  0  0  0  0  0  0  0  0  0  0
  147.3544  141.7593  153.3617 C   0  0  0  0  0  0  0  0  0  0  0  0
  148.4158  142.0372  154.1186 N   0  0  0  0  0  0  0  0  0  0  0  0
  148.9965  140.8969  154.5875 C   0  0  0  0  0  0  0  0  0  0  0  0
  148.5728  139.5597  154.3302 C   0  0  0  0  0  0  0  0  0  0  0  0
  149.4150  138.6755  154.9994 N   0  0  0  0  0  0  0  0  0  0  0  0
  150.2867  139.4397  155.5977 C   0  0  0  0  0  0  0  0  0  0  0  0
  150.1085  140.7885  155.4023 N   0  0  0  0  0  0  0  0  0  0  0  0
  150.9225  141.8624  155.9431 C   0  0  0  0  0  0  0  0  0  0  0  0
  150.6872  142.0720  157.4512 C   0  0  2  0  0  0  0  0  0  0  0  0
  149.3976  142.6065  157.6846 O   0  0  0  0  0  0  0  0  0  0  0  0
  151.7707  142.9511  158.1081 C   0  0  2  0  0  0  0  0  0  0  0  0
  151.8381  142.9235  159.6373 C   0  0  0  0  0  0  0  0  0  0  0  0
  152.5333  144.2357  159.9238 C   0  0  0  0  0  0  0  0  0  0  0  0
  151.9172  145.1516  158.8687 C   0  0  0  0  0  0  0  0  0  0  0  0
  151.6447  144.3230  157.7413 O   0  0  0  0  0  0  0  0  0  0  0  0
  146.9303  137.1229  154.0719 C   0  0  0  0  0  0  0  0  0  0  0  0
  146.4548  135.7545  153.5483 C   0  0  0  0  0  0  0  0  0  0  0  0
  146.6442  134.7679  154.2599 O   0  0  0  0  0  0  0  0  0  0  0  0
  147.5343  132.3353  150.0854 H   0  0  0  0  0  0  0  0  0  0  0  0
  146.3084  133.4389  149.4967 H   0  0  0  0  0  0  0  0  0  0  0  0
  144.8605  134.5471  150.8468 H   0  0  0  0  0  0  0  0  0  0  0  0
  144.6725  133.9310  152.4506 H   0  0  0  0  0  0  0  0  0  0  0  0
  145.4808  136.6223  150.4760 H   0  0  0  0  0  0  0  0  0  0  0  0
  144.6058  137.2663  151.8435 H   0  0  0  0  0  0  0  0  0  0  0  0
  147.5917  137.6131  151.2603 H   0  0  0  0  0  0  0  0  0  0  0  0
  146.3285  138.8392  151.1652 H   0  0  0  0  0  0  0  0  0  0  0  0
  146.8335  142.6130  152.9541 H   0  0  0  0  0  0  0  0  0  0  0  0
  151.0894  139.0384  156.1992 H   0  0  0  0  0  0  0  0  0  0  0  0
  151.9700  141.6250  155.7534 H   0  0  0  0  0  0  0  0  0  0  0  0
  150.7041  142.7765  155.3895 H   0  0  0  0  0  0  0  0  0  0  0  0
  150.7103  141.0982  157.9423 H   0  0  0  0  0  0  0  0  0  0  0  0
  149.2376  143.2895  157.0514 H   0  0  0  0  0  0  0  0  0  0  0  0
  152.7432  142.6321  157.7293 H   0  0  0  0  0  0  0  0  0  0  0  0
  150.8443  142.9329  160.0858 H   0  0  0  0  0  0  0  0  0  0  0  0
  152.3786  142.0587  160.0229 H   0  0  0  0  0  0  0  0  0  0  0  0
  152.3772  144.5930  160.9421 H   0  0  0  0  0  0  0  0  0  0  0  0
  153.6067  144.1367  159.7558 H   0  0  0  0  0  0  0  0  0  0  0  0
  150.9739  145.5636  159.2298 H   0  0  0  0  0  0  0  0  0  0  0  0
  152.5713  145.9831  158.6049 H   0  0  0  0  0  0  0  0  0  0  0  0
  147.9598  137.0167  154.4180 H   0  0  0  0  0  0  0  0  0  0  0  0
  146.3214  137.3561  154.9465 H   0  0  0  0  0  0  0  0  0  0  0  0
  1  2  1  0  0  0  0
  1 29  1  0  0  0  0
  1 30  1  0  0  0  0
  2  3  2  0  0  0  0
  2  4  1  0  0  0  0
  4  5  1  0  0  0  0
  4 31  1  0  0  0  0
  4 32  1  0  0  0  0
  5 27  1  0  0  0  0
  5  6  1  0  0  0  0
  6  7  1  0  0  0  0
  6 33  1  0  0  0  0
  6 34  1  0  0  0  0
  7  8  1  0  0  0  0
  7 35  1  0  0  0  0
  7 36  1  0  0  0  0
  8  9  1  0  0  0  0
  8 26  1  0  0  0  0
  9 14  1  0  0  0  0
  9 10  2  0  0  0  0
 10 11  1  0  0  0  0
 11 12  2  0  0  0  0
 11 37  1  0  0  0  0
 12 13  1  0  0  0  0
 13 17  1  0  0  0  0
 13 14  2  0  0  0  0
 14 15  1  0  0  0  0
 15 16  2  0  0  0  0
 16 17  1  0  0  0  0
 16 38  1  0  0  0  0
 17 18  1  0  0  0  0
 18 19  1  0  0  0  0
 18 39  1  0  0  0  0
 18 40  1  0  0  0  0
 19 20  1  0  0  0  0
 19 21  1  0  0  0  0
 19 41  1  0  0  0  0
 20 42  1  0  0  0  0
 21 25  1  0  0  0  0
 21 22  1  0  0  0  0
 21 43  1  0  0  0  0
 22 23  1  0  0  0  0
 22 44  1  0  0  0  0
 22 45  1  0  0  0  0
 23 24  1  0  0  0  0
 23 46  1  0  0  0  0
 23 47  1  0  0  0  0
 24 25  1  0  0  0  0
 24 48  1  0  0  0  0
 24 49  1  0  0  0  0
 26 27  1  0  0  0  0
 26 50  1  0  0  0  0
 26 51  1  0  0  0  0
 27 28  2  0  0  0  0
M  END
> <s_m_source_file>
AV-unprocessed.smi

> <i_m_source_file_index>
174

> <i_lp_mmshare_version>
43012

> <i_f3d_flags>
0

> <s_epik_input>
W05IMl1DKD1PKVtDSDJdTjFbQ0gyXVtDSDJdTihbQ0gyXUMxPU8pYyhuW2NIXW4yKWMoYzIzKW5bY0hdbjNbQ0gyXVtDQEhdKFtPSF0pW0NAQEhdNFtDSDJdW0NIMl1bQ0gyXU80

> <s_epik_cmdline>
J2VwaWtfcHl0aG9uJywgJy1waCcsICc3LjAnLCAnLXRuJywgJzgnLCAnLW1hJywgJzIwMCcsICctbWV0YWxfYmluZGluZycsICctaW1hZScsICc8aW5maWxlLm1hZT4nLCAnLW9tYWUnLCAnPG91dGZpbGUubWFlPic=

> <r_lp_tautomer_probability>
1

> <r_epik_Ionization_Penalty>
0.000250477

> <r_epik_Ionization_Penalty_Charging>
0

> <r_epik_Ionization_Penalty_Neutral>
0.000250477

> <r_epik_State_Penalty>
-0

> <r_epik_Charging_Adjusted_Penalty>
0

> <i_epik_Tot_Q>
0

> <i_epik_Tot_abs_Q>
0

> <r_epik_Metal_State_Penalty>
-0

> <b_epik_Metal_Only>
0

> <s_lp_Force_Field>
OPLS_2005

> <r_lp_Energy>
38.8972

> <b_lp_Chiralities_Consistent>
1

> <s_lp_Variant>
AV-unprocessed.smi:174-1

> <Gold.Version>
5.8.1

> <Gold.Id.Protein>
6NUR|6NUR_protein|mol2

> <Gold.PLP.Fitness>
47.2499

> <Gold.PLP.PLP>
-42.8573

> <Gold.PLP.part.hbond>
-3.0000

> <Gold.PLP.part.metal>
0.0000

> <Gold.PLP.part.buried>
-1.5440

> <Gold.PLP.part.nonpolar>
-38.4590

> <Gold.PLP.part.repulsive>
0.9451

> <Gold.PLP.ligand.clash>
0.0000

> <Gold.PLP.ligand.torsion>
1.1428

> <Gold.PLP.Chemscore.Hbond>
2.1332

> <Gold.PLP.Chemscore.CHOScore>
0.0000

> <Gold.PLP.Chemscore.Metal>
0.0000

> <Gold.Chemscore.Hbonds>
donor molecule, donor type, donor heavy atom, donor atom, acceptor molecule, acceptor atom, score
      L1  H     1    29       P1 10747  0.93
      L1  H     1    30       P1  7921  0.08
      L1  H    20    42       P1  8028  1.00
      P1  H  8011  8017       L1    12  0.10

> <Gold.PLP.Chemscore.Internal.Correction>
0.2784

> <Gold.Rescore>
     Score         DG    S(hbond)    S(metal)    S(lipo)     H(rot)  DE(clash)    DE(int)     intcor
      7.99     -13.56       1.93        0.00      89.54       3.46       2.82       2.74       ----

> <Gold.Chemscore.Fitness>
7.9939

> <Gold.Chemscore.DG>
-13.5556

> <Gold.Chemscore.ZeroCoef>
-5.4800

> <Gold.Chemscore.Hbond>
1.9327

> <Gold.Chemscore.Metal>
0.0000

> <Gold.Chemscore.Lipo>
89.5361

> <Gold.Chemscore.Internal_Hbond>
0.0000

> <Gold.Chemscore.DEClash>
2.8182

> <Gold.Chemscore.DEInternal>
2.7435

> <Gold.Chemscore.Rot>
3.4591

> <Gold.Chemscore.Internal.Correction>
   9.000000E+99

> <Gold.Chemscore.Hbonds>
donor molecule, donor type, donor heavy atom, donor atom, acceptor molecule, acceptor atom, score
      L1  H     1    29       P1 10747  0.89
      L1  H    20    42       P1  8028  0.83

> <Gold.Chemscore.Hbond.Weighted>
-6.4552

> <Gold.Chemscore.Metal.Weighted>
-0.0000

> <Gold.Chemscore.Lipo.Weighted>
-10.4757

> <Gold.Chemscore.Internal_Hbond.Weighted>
0.0000

> <Gold.Chemscore.DEClash.Weighted>
2.8182

> <Gold.Chemscore.DEInternal.Weighted>
2.7435

> <Gold.Chemscore.Rot.Weighted>
8.8553

> <Gold.Chemscore.Internal.Correction.Weighted>
   9.000000E+99

> <Gold.Protein.RotatedTorsions>
[ 6907 6896 6895 6894 ] final   16.89 input  -60.11 | X-H torsion
[ 7974 7965 7964 7962 ] final  -31.04 input  175.53 | X-H torsion
[ 8008 7997 7996 7995 ] final  -87.82 input   59.86 | X-H torsion
[ 10167 10162 10161 10158 ] final  -97.58 input  -65.29 | X-H torsion
[ 10718 10713 10712 10709 ] final  135.91 input   66.30 | X-H torsion
[ 10763 10752 10751 10750 ] final -153.79 input  -60.55 | X-H torsion
[ 11005 11000 10999 10996 ] final  107.74 input  -57.11 | X-H torsion

> <Gold.Protein.ActiveResidues>
 VAL166  LYS551  ARG553  GLY616  TRP617  ASP618  TYR619  PRO620  LYS621  CYS622 
 ASP623  PHE694  ASN695  SER759  ASP760  ASP761  ALA762  ILE779  LEU786  VAL792 
 PHE793  MET794  SER795  GLU796  ALA797  LYS798  CYS799  TRP800  GLU811  SER814 

> <Gold.Protein.RotatedAtoms>
  151.8410  135.0590  160.0447 H   0  0  0  0  0  0  0  0  0  0  0  0  # atno 6907 bound_to 6896
  152.2809  133.5465  159.5505 H   0  0  0  0  0  0  0  0  0  0  0  0  # atno 6908 bound_to 6896
  150.7189  134.0482  159.3831 H   0  0  0  0  0  0  0  0  0  0  0  0  # atno 6909 bound_to 6896
  146.1098  140.5616  142.8783 H   0  0  0  0  0  0  0  0  0  0  0  0  # atno 7974 bound_to 7965
  154.6677  140.0561  157.0131 H   0  0  0  0  0  0  0  0  0  0  0  0  # atno 8008 bound_to 7997
  155.1135  140.3240  155.4497 H   0  0  0  0  0  0  0  0  0  0  0  0  # atno 8009 bound_to 7997
  156.2644  140.2010  156.6259 H   0  0  0  0  0  0  0  0  0  0  0  0  # atno 8010 bound_to 7997
  140.2819  143.3276  152.0433 H   0  0  0  0  0  0  0  0  0  0  0  0  # atno 10167 bound_to 10162
  157.4522  131.1067  151.0020 H   0  0  0  0  0  0  0  0  0  0  0  0  # atno 10718 bound_to 10713
  154.7904  135.3205  154.7791 H   0  0  0  0  0  0  0  0  0  0  0  0  # atno 10763 bound_to 10752
  153.8481  135.6865  153.4799 H   0  0  0  0  0  0  0  0  0  0  0  0  # atno 10764 bound_to 10752
  153.1571  135.4675  154.9660 H   0  0  0  0  0  0  0  0  0  0  0  0  # atno 10765 bound_to 10752
  139.8833  134.9410  156.5865 H   0  0  0  0  0  0  0  0  0  0  0  0  # atno 11005 bound_to 11000
  144.7501  140.5170  143.6807 LP  0  0  0  0  0  0  0  0  0  0  0  0  # atno 17320 bound_to 7965
  145.5687  139.1482  143.3300 LP  0  0  0  0  0  0  0  0  0  0  0  0  # atno 17321 bound_to 7965
  139.4960  144.6586  151.6517 LP  0  0  0  0  0  0  0  0  0  0  0  0  # atno 17342 bound_to 10162
  140.5805  143.9955  150.6265 LP  0  0  0  0  0  0  0  0  0  0  0  0  # atno 17343 bound_to 10162
  157.0846  130.5917  149.5427 LP  0  0  0  0  0  0  0  0  0  0  0  0  # atno 17370 bound_to 10713
  155.9992  130.5067  150.7598 LP  0  0  0  0  0  0  0  0  0  0  0  0  # atno 17371 bound_to 10713
  140.7988  133.8522  155.8708 LP  0  0  0  0  0  0  0  0  0  0  0  0  # atno 17394 bound_to 11000
  140.9611  134.1654  157.4653 LP  0  0  0  0  0  0  0  0  0  0  0  0  # atno 17395 bound_to 11000

$$$$
