AV-unprocessed.smi:1268|AV-procd|sdf|5325|dock1
  -GOLD-   22720 4453D 1   1.00000     0.00000
 Structure written by MMmdl.
 39 40  0  0  0  0  0  0  0  0  3 V2000
  148.1305  140.0538  155.6798 O   0  0  0  0  0  0  0  0  0  0  0  0
  148.9305  140.1057  154.7431 C   0  0  0  0  0  0  0  0  0  0  0  0
  148.4977  139.9472  153.4860 N   0  0  0  0  0  0  0  0  0  0  0  0
  147.1112  139.7288  153.0932 C   0  0  0  0  0  0  0  0  0  0  0  0
  146.9899  138.4835  152.1993 C   0  0  2  0  0  0  0  0  0  0  0  0
  146.6450  138.9119  150.8959 O   0  0  0  0  0  0  0  0  0  0  0  0
  145.8722  137.5423  152.6909 C   0  0  0  0  0  0  0  0  0  0  0  0
  146.1190  136.1240  152.3244 N   0  3  0  0  0  0  0  0  0  0  0  0
  145.1798  135.6402  151.2796 C   0  0  0  0  0  0  0  0  0  0  0  0
  145.5512  134.2231  150.8112 C   0  0  0  0  0  0  0  0  0  0  0  0
  145.5975  133.2478  151.9942 C   0  0  0  0  0  0  0  0  0  0  0  0
  146.5448  133.7821  153.0760 C   0  0  0  0  0  0  0  0  0  0  0  0
  146.1534  135.2090  153.4969 C   0  0  0  0  0  0  0  0  0  0  0  0
  150.2625  140.3177  154.8338 N   0  5  0  0  0  0  0  0  0  0  0  0
  150.8286  140.5348  156.0324 C   0  0  0  0  0  0  0  0  0  0  0  0
  150.3757  141.4479  156.8990 N   0  0  0  0  0  0  0  0  0  0  0  0
  151.1098  141.4991  158.0855 C   0  0  0  0  0  0  0  0  0  0  0  0
  152.1399  140.5975  158.1273 C   0  0  0  0  0  0  0  0  0  0  0  0
  152.2195  139.6518  156.6684 S   0  0  0  0  0  0  0  0  0  0  0  0
  149.1864  139.9899  152.7495 H   0  0  0  0  0  0  0  0  0  0  0  0
  146.5342  139.5870  154.0080 H   0  0  0  0  0  0  0  0  0  0  0  0
  146.6987  140.6067  152.5923 H   0  0  0  0  0  0  0  0  0  0  0  0
  147.9467  137.9623  152.1692 H   0  0  0  0  0  0  0  0  0  0  0  0
  145.8364  138.4882  150.6474 H   0  0  0  0  0  0  0  0  0  0  0  0
  145.7527  137.6179  153.7728 H   0  0  0  0  0  0  0  0  0  0  0  0
  144.9275  137.8775  152.2591 H   0  0  0  0  0  0  0  0  0  0  0  0
  144.1607  135.6549  151.6695 H   0  0  0  0  0  0  0  0  0  0  0  0
  145.2022  136.3145  150.4226 H   0  0  0  0  0  0  0  0  0  0  0  0
  144.8322  133.8751  150.0691 H   0  0  0  0  0  0  0  0  0  0  0  0
  146.5226  134.2442  150.3155 H   0  0  0  0  0  0  0  0  0  0  0  0
  144.5964  133.1225  152.4088 H   0  0  0  0  0  0  0  0  0  0  0  0
  145.9237  132.2627  151.6589 H   0  0  0  0  0  0  0  0  0  0  0  0
  146.5304  133.1203  153.9424 H   0  0  0  0  0  0  0  0  0  0  0  0
  147.5691  133.7791  152.7011 H   0  0  0  0  0  0  0  0  0  0  0  0
  146.8674  135.5659  154.2380 H   0  0  0  0  0  0  0  0  0  0  0  0
  145.1755  135.2002  153.9809 H   0  0  0  0  0  0  0  0  0  0  0  0
  150.8270  142.2086  158.8488 H   0  0  0  0  0  0  0  0  0  0  0  0
  152.8514  140.4313  158.9219 H   0  0  0  0  0  0  0  0  0  0  0  0
  147.0380  136.1027  151.9049 H   0  0  0  0  0  0  0  0  0  0  0  0
  1  2  2  0  0  0  0
  2  3  1  0  0  0  0
  2 14  1  0  0  0  0
  3  4  1  0  0  0  0
  3 20  1  0  0  0  0
  4  5  1  0  0  0  0
  4 21  1  0  0  0  0
  4 22  1  0  0  0  0
  5  6  1  0  0  0  0
  5  7  1  0  0  0  0
  5 23  1  0  0  0  0
  6 24  1  0  0  0  0
  7  8  1  0  0  0  0
  7 25  1  0  0  0  0
  7 26  1  0  0  0  0
  8 13  1  0  0  0  0
  8  9  1  0  0  0  0
  8 39  1  0  0  0  0
  9 10  1  0  0  0  0
  9 27  1  0  0  0  0
  9 28  1  0  0  0  0
 10 11  1  0  0  0  0
 10 29  1  0  0  0  0
 10 30  1  0  0  0  0
 11 12  1  0  0  0  0
 11 31  1  0  0  0  0
 11 32  1  0  0  0  0
 12 13  1  0  0  0  0
 12 33  1  0  0  0  0
 12 34  1  0  0  0  0
 13 35  1  0  0  0  0
 13 36  1  0  0  0  0
 14 15  1  0  0  0  0
 15 19  1  0  0  0  0
 15 16  2  0  0  0  0
 16 17  1  0  0  0  0
 17 18  2  0  0  0  0
 17 37  1  0  0  0  0
 18 19  1  0  0  0  0
 18 38  1  0  0  0  0
M  CHG  1   8   1
M  CHG  1  14  -1
M  END
> <s_m_source_file>
AV-unprocessed.smi

> <i_m_source_file_index>
1268

> <i_lp_mmshare_version>
43012

> <i_f3d_flags>
0

> <s_epik_input>
czFbY0hdW2NIXW5jMVtOSF1DKD1PKVtOSF1bQ0gyXVtDQEhdKFtPSF0pW0NIMl1OMltDSDJdW0NIMl1bQ0gyXVtDSDJdW0NIMl0y

> <s_epik_cmdline>
J2VwaWtfcHl0aG9uJywgJy1waCcsICc3LjAnLCAnLXRuJywgJzgnLCAnLW1hJywgJzIwMCcsICctbWV0YWxfYmluZGluZycsICctaW1hZScsICc8aW5maWxlLm1hZT4nLCAnLW9tYWUnLCAnPG91dGZpbGUubWFlPic=

> <r_lp_tautomer_probability>
0.999

> <r_epik_Ionization_Penalty>
6.36291

> <r_epik_Ionization_Penalty_Charging>
5.4816

> <r_epik_Ionization_Penalty_Neutral>
0.881305

> <r_epik_State_Penalty>
5.4805

> <r_epik_Charging_Adjusted_Penalty>
10.9621

> <i_epik_Tot_Q>
0

> <i_epik_Tot_abs_Q>
2

> <r_epik_Metal_State_Penalty>
1.48871

> <b_epik_Metal_Only>
1

> <s_lp_Force_Field>
OPLS_2005

> <r_lp_Energy>
11.3564

> <b_lp_Chiralities_Consistent>
1

> <s_lp_Variant>
AV-unprocessed.smi:1268-3

> <Gold.Version>
5.8.1

> <Gold.Id.Protein>
6NUR|6NUR_protein|mol2

> <Gold.PLP.Fitness>
44.6881

> <Gold.PLP.PLP>
-32.8829

> <Gold.PLP.part.hbond>
-5.3974

> <Gold.PLP.part.metal>
0.0000

> <Gold.PLP.part.buried>
-1.6999

> <Gold.PLP.part.nonpolar>
-26.1856

> <Gold.PLP.part.repulsive>
0.3598

> <Gold.PLP.ligand.clash>
0.0000

> <Gold.PLP.ligand.torsion>
2.2530

> <Gold.PLP.Chemscore.Hbond>
5.3706

> <Gold.PLP.Chemscore.CHOScore>
0.0000

> <Gold.PLP.Chemscore.Metal>
0.0000

> <Gold.Chemscore.Hbonds>
donor molecule, donor type, donor heavy atom, donor atom, acceptor molecule, acceptor atom, score
      L1  H     3    20       P1  7957  1.00
      L1  H     6    24       P1 10171  0.76
      L1  H     8    39       P1  7948  2.00
      P1  H  7954  7966       L1     6  0.60
      P1  H  7989  7998       L1    14  1.00

> <Gold.PLP.Chemscore.Internal.Correction>
0.1994

> <Gold.Rescore>
     Score         DG    S(hbond)    S(metal)    S(lipo)     H(rot)  DE(clash)    DE(int)     intcor
     14.20     -17.85       3.46        0.00      61.36       2.48       0.02       3.64       ----

> <Gold.Chemscore.Fitness>
14.1997

> <Gold.Chemscore.DG>
-17.8525

> <Gold.Chemscore.ZeroCoef>
-5.4800

> <Gold.Chemscore.Hbond>
3.4583

> <Gold.Chemscore.Metal>
0.0000

> <Gold.Chemscore.Lipo>
61.3622

> <Gold.Chemscore.Internal_Hbond>
0.0000

> <Gold.Chemscore.DEClash>
0.0163

> <Gold.Chemscore.DEInternal>
3.6365

> <Gold.Chemscore.Rot>
2.4834

> <Gold.Chemscore.Internal.Correction>
   9.000000E+99

> <Gold.Chemscore.Hbonds>
donor molecule, donor type, donor heavy atom, donor atom, acceptor molecule, acceptor atom, score
      L1  H     3    20       P1  7957  0.96
      L1  H     6    24       P1 10171  0.72
      L1  H     8    39       P1  7948  0.99
      P1  H  7954  7966       L1     6  0.06
      P1  H  7989  7998       L1    14  0.52

> <Gold.Chemscore.Hbond.Weighted>
-11.5506

> <Gold.Chemscore.Metal.Weighted>
-0.0000

> <Gold.Chemscore.Lipo.Weighted>
-7.1794

> <Gold.Chemscore.Internal_Hbond.Weighted>
0.0000

> <Gold.Chemscore.DEClash.Weighted>
0.0163

> <Gold.Chemscore.DEInternal.Weighted>
3.6365

> <Gold.Chemscore.Rot.Weighted>
6.3575

> <Gold.Chemscore.Internal.Correction.Weighted>
   9.000000E+99

> <Gold.Protein.RotatedTorsions>
[ 6907 6896 6895 6894 ] final  104.97 input  -60.11 | X-H torsion
[ 7974 7965 7964 7962 ] final   -5.76 input  175.53 | X-H torsion
[ 8008 7997 7996 7995 ] final   69.30 input   59.86 | X-H torsion
[ 10167 10162 10161 10158 ] final  -11.33 input  -65.29 | X-H torsion
[ 10718 10713 10712 10709 ] final  -29.91 input   66.30 | X-H torsion
[ 10763 10752 10751 10750 ] final  -79.72 input  -60.55 | X-H torsion
[ 11005 11000 10999 10996 ] final  -86.44 input  -57.11 | X-H torsion

> <Gold.Protein.ActiveResidues>
 VAL166  LYS551  ARG553  GLY616  TRP617  ASP618  TYR619  PRO620  LYS621  CYS622 
 ASP623  PHE694  ASN695  SER759  ASP760  ASP761  ALA762  ILE779  LEU786  VAL792 
 PHE793  MET794  SER795  GLU796  ALA797  LYS798  CYS799  TRP800  GLU811  SER814 

> <Gold.Protein.RotatedAtoms>
  152.5246  133.9597  159.7710 H   0  0  0  0  0  0  0  0  0  0  0  0  # atno 6907 bound_to 6896
  150.9890  133.6160  159.2718 H   0  0  0  0  0  0  0  0  0  0  0  0  # atno 6908 bound_to 6896
  151.3310  135.0848  159.9392 H   0  0  0  0  0  0  0  0  0  0  0  0  # atno 6909 bound_to 6896
  146.2346  140.2069  142.8334 H   0  0  0  0  0  0  0  0  0  0  0  0  # atno 7974 bound_to 7965
  155.7215  140.3493  155.5018 H   0  0  0  0  0  0  0  0  0  0  0  0  # atno 8008 bound_to 7997
  155.9266  140.1076  157.1187 H   0  0  0  0  0  0  0  0  0  0  0  0  # atno 8009 bound_to 7997
  154.4078  140.1239  156.4734 H   0  0  0  0  0  0  0  0  0  0  0  0  # atno 8010 bound_to 7997
  140.7136  143.5651  150.9153 H   0  0  0  0  0  0  0  0  0  0  0  0  # atno 10167 bound_to 10162
  156.4065  130.4400  149.7284 H   0  0  0  0  0  0  0  0  0  0  0  0  # atno 10718 bound_to 10713
  154.5422  135.5686  153.6849 H   0  0  0  0  0  0  0  0  0  0  0  0  # atno 10763 bound_to 10752
  152.9966  135.6230  154.2486 H   0  0  0  0  0  0  0  0  0  0  0  0  # atno 10764 bound_to 10752
  154.2418  135.2862  155.2831 H   0  0  0  0  0  0  0  0  0  0  0  0  # atno 10765 bound_to 10752
  141.1630  133.7455  156.9162 H   0  0  0  0  0  0  0  0  0  0  0  0  # atno 11005 bound_to 11000
  144.9737  140.8393  143.5439 LP  0  0  0  0  0  0  0  0  0  0  0  0  # atno 17320 bound_to 7965
  145.2054  139.2231  143.5171 LP  0  0  0  0  0  0  0  0  0  0  0  0  # atno 17321 bound_to 7965
  139.9376  143.6419  152.3061 LP  0  0  0  0  0  0  0  0  0  0  0  0  # atno 17342 bound_to 10162
  139.6892  144.7648  151.1468 LP  0  0  0  0  0  0  0  0  0  0  0  0  # atno 17343 bound_to 10162
  156.4279  130.7801  151.2820 LP  0  0  0  0  0  0  0  0  0  0  0  0  # atno 17370 bound_to 10713
  157.7506  131.0163  150.3538 LP  0  0  0  0  0  0  0  0  0  0  0  0  # atno 17371 bound_to 10713
  140.1483  134.9247  157.2558 LP  0  0  0  0  0  0  0  0  0  0  0  0  # atno 17394 bound_to 11000
  140.2754  134.3412  155.7360 LP  0  0  0  0  0  0  0  0  0  0  0  0  # atno 17395 bound_to 11000

$$$$
