AV-unprocessed.smi:1001|AV-procd|sdf|4357|dock5
  -GOLD-   22720 2253D 1   1.00000     0.00000
 Structure written by MMmdl.
 47 48  0  0  0  0  0  0  0  0  1 V2000
  146.9510  132.2238  151.5031 N   0  0  0  0  0  0  0  0  0  0  0  0
  146.6839  133.2092  152.3690 C   0  0  0  0  0  0  0  0  0  0  0  0
  145.5944  133.7809  152.3815 O   0  0  0  0  0  0  0  0  0  0  0  0
  147.7826  133.5663  153.3088 C   0  0  0  0  0  0  0  0  0  0  0  0
  148.7555  132.5331  153.6211 C   0  0  0  0  0  0  0  0  0  0  0  0
  149.7594  132.8335  154.4737 C   0  0  0  0  0  0  0  0  0  0  0  0
  149.8890  134.1587  155.0815 C   0  0  0  0  0  0  0  0  0  0  0  0
  150.7927  134.4561  155.8624 O   0  0  0  0  0  0  0  0  0  0  0  0
  148.9139  135.0407  154.7024 N   0  0  0  0  0  0  0  0  0  0  0  0
  148.9038  136.4227  155.2038 C   0  0  0  0  0  0  0  0  0  0  0  0
  150.2189  137.1698  154.9370 C   0  0  0  0  0  0  0  0  0  0  0  0
  151.1540  136.6099  154.3629 O   0  0  0  0  0  0  0  0  0  0  0  0
  150.2688  138.4453  155.3497 N   0  0  0  0  0  0  0  0  0  0  0  0
  151.4283  139.3202  155.2208 C   0  0  0  0  0  0  0  0  0  0  0  0
  151.9073  139.8201  156.5937 C   0  0  0  0  0  0  0  0  0  0  0  0
  151.1386  141.0641  157.0698 C   0  0  0  0  0  0  0  0  0  0  0  0
  151.9624  141.9987  157.9800 C   0  0  0  0  0  0  0  0  0  0  0  0
  151.9942  141.5205  159.4488 C   0  0  0  0  0  0  0  0  0  0  0  0
  152.8099  142.4715  160.3399 C   0  0  0  0  0  0  0  0  0  0  0  0
  152.2799  143.9102  160.2545 C   0  0  0  0  0  0  0  0  0  0  0  0
  152.2444  144.3985  158.7987 C   0  0  0  0  0  0  0  0  0  0  0  0
  151.4290  143.4448  157.9102 C   0  0  0  0  0  0  0  0  0  0  0  0
  147.8757  134.7455  153.8333 N   0  0  0  0  0  0  0  0  0  0  0  0
  146.2468  131.9323  150.8409 H   0  0  0  0  0  0  0  0  0  0  0  0
  147.8551  131.7741  151.5174 H   0  0  0  0  0  0  0  0  0  0  0  0
  148.6846  131.5468  153.1859 H   0  0  0  0  0  0  0  0  0  0  0  0
  150.4900  132.0753  154.7142 H   0  0  0  0  0  0  0  0  0  0  0  0
  148.0942  136.9878  154.7388 H   0  0  0  0  0  0  0  0  0  0  0  0
  148.6870  136.4272  156.2738 H   0  0  0  0  0  0  0  0  0  0  0  0
  149.4542  138.8306  155.8055 H   0  0  0  0  0  0  0  0  0  0  0  0
  152.2334  138.8016  154.6975 H   0  0  0  0  0  0  0  0  0  0  0  0
  151.1463  140.1670  154.5946 H   0  0  0  0  0  0  0  0  0  0  0  0
  151.8001  139.0143  157.3196 H   0  0  0  0  0  0  0  0  0  0  0  0
  152.9718  140.0536  156.5464 H   0  0  0  0  0  0  0  0  0  0  0  0
  150.8200  141.6234  156.1892 H   0  0  0  0  0  0  0  0  0  0  0  0
  150.2239  140.7610  157.5810 H   0  0  0  0  0  0  0  0  0  0  0  0
  152.9870  142.0108  157.6053 H   0  0  0  0  0  0  0  0  0  0  0  0
  150.9765  141.4450  159.8343 H   0  0  0  0  0  0  0  0  0  0  0  0
  152.4240  140.5218  159.5177 H   0  0  0  0  0  0  0  0  0  0  0  0
  152.7822  142.1264  161.3737 H   0  0  0  0  0  0  0  0  0  0  0  0
  153.8570  142.4484  160.0349 H   0  0  0  0  0  0  0  0  0  0  0  0
  151.2772  143.9567  160.6809 H   0  0  0  0  0  0  0  0  0  0  0  0
  152.9036  144.5730  160.8552 H   0  0  0  0  0  0  0  0  0  0  0  0
  151.8200  145.4018  158.7544 H   0  0  0  0  0  0  0  0  0  0  0  0
  153.2621  144.4758  158.4140 H   0  0  0  0  0  0  0  0  0  0  0  0
  151.4545  143.8032  156.8806 H   0  0  0  0  0  0  0  0  0  0  0  0
  150.3827  143.4670  158.2182 H   0  0  0  0  0  0  0  0  0  0  0  0
  1  2  1  0  0  0  0
  1 24  1  0  0  0  0
  1 25  1  0  0  0  0
  2  3  2  0  0  0  0
  2  4  1  0  0  0  0
  4 23  2  0  0  0  0
  4  5  1  0  0  0  0
  5  6  2  0  0  0  0
  5 26  1  0  0  0  0
  6  7  1  0  0  0  0
  6 27  1  0  0  0  0
  7  8  2  0  0  0  0
  7  9  1  0  0  0  0
  9 10  1  0  0  0  0
  9 23  1  0  0  0  0
 10 11  1  0  0  0  0
 10 28  1  0  0  0  0
 10 29  1  0  0  0  0
 11 12  2  0  0  0  0
 11 13  1  0  0  0  0
 13 14  1  0  0  0  0
 13 30  1  0  0  0  0
 14 15  1  0  0  0  0
 14 31  1  0  0  0  0
 14 32  1  0  0  0  0
 15 16  1  0  0  0  0
 15 33  1  0  0  0  0
 15 34  1  0  0  0  0
 16 17  1  0  0  0  0
 16 35  1  0  0  0  0
 16 36  1  0  0  0  0
 17 22  1  0  0  0  0
 17 18  1  0  0  0  0
 17 37  1  0  0  0  0
 18 19  1  0  0  0  0
 18 38  1  0  0  0  0
 18 39  1  0  0  0  0
 19 20  1  0  0  0  0
 19 40  1  0  0  0  0
 19 41  1  0  0  0  0
 20 21  1  0  0  0  0
 20 42  1  0  0  0  0
 20 43  1  0  0  0  0
 21 22  1  0  0  0  0
 21 44  1  0  0  0  0
 21 45  1  0  0  0  0
 22 46  1  0  0  0  0
 22 47  1  0  0  0  0
M  END
> <s_m_source_file>
AV-unprocessed.smi

> <i_m_source_file_index>
1001

> <i_lp_mmshare_version>
43012

> <i_f3d_flags>
0

> <s_epik_input>
W05IMl1DKD1PKWMxW2NIXVtjSF1jKD1PKW4objEpW0NIMl1DKD1PKVtOSF1bQ0gyXVtDSDJdW0NIMl1bQ0hdMltDSDJdW0NIMl1bQ0gyXVtDSDJdW0NIMl0y

> <s_epik_cmdline>
J2VwaWtfcHl0aG9uJywgJy1waCcsICc3LjAnLCAnLXRuJywgJzgnLCAnLW1hJywgJzIwMCcsICctbWV0YWxfYmluZGluZycsICctaW1hZScsICc8aW5maWxlLm1hZT4nLCAnLW9tYWUnLCAnPG91dGZpbGUubWFlPic=

> <r_lp_tautomer_probability>
1

> <r_epik_Ionization_Penalty>
2.90452e-06

> <r_epik_Ionization_Penalty_Charging>
3.08996e-10

> <r_epik_Ionization_Penalty_Neutral>
2.90421e-06

> <r_epik_State_Penalty>
-0

> <r_epik_Charging_Adjusted_Penalty>
3.08996e-10

> <i_epik_Tot_Q>
0

> <i_epik_Tot_abs_Q>
0

> <r_epik_Metal_State_Penalty>
-0

> <b_epik_Metal_Only>
0

> <s_lp_Force_Field>
OPLS_2005

> <r_lp_Energy>
27.0219

> <b_lp_Chiralities_Consistent>
1

> <s_lp_Variant>
AV-unprocessed.smi:1001-1

> <Gold.Version>
5.8.1

> <Gold.Id.Protein>
6NUR|6NUR_protein|mol2

> <Gold.PLP.Fitness>
46.6520

> <Gold.PLP.PLP>
-43.7666

> <Gold.PLP.part.hbond>
-2.1332

> <Gold.PLP.part.metal>
0.0000

> <Gold.PLP.part.buried>
-7.0334

> <Gold.PLP.part.nonpolar>
-37.1667

> <Gold.PLP.part.repulsive>
2.4295

> <Gold.PLP.ligand.clash>
0.0000

> <Gold.PLP.ligand.torsion>
0.8769

> <Gold.PLP.Chemscore.Hbond>
1.4640

> <Gold.PLP.Chemscore.CHOScore>
0.0000

> <Gold.PLP.Chemscore.Metal>
0.0000

> <Gold.Chemscore.Hbonds>
donor molecule, donor type, donor heavy atom, donor atom, acceptor molecule, acceptor atom, score
      L1  H     1    25       P1 10747  0.75
      P1  H 10752 10764       L1    12  0.88

> <Gold.PLP.Chemscore.Internal.Correction>
0.2472

> <Gold.Rescore>
     Score         DG    S(hbond)    S(metal)    S(lipo)     H(rot)  DE(clash)    DE(int)     intcor
     11.40     -16.66       1.76        0.00      99.14       2.46       0.05       5.21       ----

> <Gold.Chemscore.Fitness>
11.3995

> <Gold.Chemscore.DG>
-16.6623

> <Gold.Chemscore.ZeroCoef>
-5.4800

> <Gold.Chemscore.Hbond>
1.7603

> <Gold.Chemscore.Metal>
0.0000

> <Gold.Chemscore.Lipo>
99.1359

> <Gold.Chemscore.Internal_Hbond>
0.0000

> <Gold.Chemscore.DEClash>
0.0519

> <Gold.Chemscore.DEInternal>
5.2109

> <Gold.Chemscore.Rot>
2.4593

> <Gold.Chemscore.Internal.Correction>
   9.000000E+99

> <Gold.Chemscore.Hbonds>
donor molecule, donor type, donor heavy atom, donor atom, acceptor molecule, acceptor atom, score
      L1  H     1    25       P1 10747  0.74
      P1  H 10752 10764       L1    12  0.84

> <Gold.Chemscore.Hbond.Weighted>
-5.8793

> <Gold.Chemscore.Metal.Weighted>
-0.0000

> <Gold.Chemscore.Lipo.Weighted>
-11.5989

> <Gold.Chemscore.Internal_Hbond.Weighted>
0.0000

> <Gold.Chemscore.DEClash.Weighted>
0.0519

> <Gold.Chemscore.DEInternal.Weighted>
5.2109

> <Gold.Chemscore.Rot.Weighted>
6.2958

> <Gold.Chemscore.Internal.Correction.Weighted>
   9.000000E+99

> <Gold.Protein.RotatedTorsions>
[ 6907 6896 6895 6894 ] final -141.61 input  -60.11 | X-H torsion
[ 7974 7965 7964 7962 ] final -128.25 input  175.53 | X-H torsion
[ 8008 7997 7996 7995 ] final  -52.88 input   59.86 | X-H torsion
[ 10167 10162 10161 10158 ] final   90.75 input  -65.29 | X-H torsion
[ 10718 10713 10712 10709 ] final -178.69 input   66.30 | X-H torsion
[ 10763 10752 10751 10750 ] final  -56.05 input  -60.55 | X-H torsion
[ 11005 11000 10999 10996 ] final  150.99 input  -57.11 | X-H torsion

> <Gold.Protein.ActiveResidues>
 VAL166  LYS551  ARG553  GLY616  TRP617  ASP618  TYR619  PRO620  LYS621  CYS622 
 ASP623  PHE694  ASN695  SER759  ASP760  ASP761  ALA762  ILE779  LEU786  VAL792 
 PHE793  MET794  SER795  GLU796  ALA797  LYS798  CYS799  TRP800  GLU811  SER814 

> <Gold.Protein.RotatedAtoms>
  151.0761  133.5427  159.2623 H   0  0  0  0  0  0  0  0  0  0  0  0  # atno 6907 bound_to 6896
  151.2348  135.0567  159.9012 H   0  0  0  0  0  0  0  0  0  0  0  0  # atno 6908 bound_to 6896
  152.5418  134.0545  159.8178 H   0  0  0  0  0  0  0  0  0  0  0  0  # atno 6909 bound_to 6896
  144.9689  140.7525  143.4683 H   0  0  0  0  0  0  0  0  0  0  0  0  # atno 7974 bound_to 7965
  154.4118  140.1213  156.5063 H   0  0  0  0  0  0  0  0  0  0  0  0  # atno 8008 bound_to 7997
  155.6844  140.3496  155.4848 H   0  0  0  0  0  0  0  0  0  0  0  0  # atno 8009 bound_to 7997
  155.9524  140.1107  157.0956 H   0  0  0  0  0  0  0  0  0  0  0  0  # atno 8010 bound_to 7997
  139.8443  144.6626  150.9246 H   0  0  0  0  0  0  0  0  0  0  0  0  # atno 10167 bound_to 10162
  156.8480  130.9709  151.3094 H   0  0  0  0  0  0  0  0  0  0  0  0  # atno 10718 bound_to 10713
  154.2004  135.6412  153.5085 H   0  0  0  0  0  0  0  0  0  0  0  0  # atno 10763 bound_to 10752
  153.0013  135.5450  154.6321 H   0  0  0  0  0  0  0  0  0  0  0  0  # atno 10764 bound_to 10752
  154.5732  135.2918  155.0779 H   0  0  0  0  0  0  0  0  0  0  0  0  # atno 10765 bound_to 10752
  140.1180  134.8882  157.2031 H   0  0  0  0  0  0  0  0  0  0  0  0  # atno 11005 bound_to 11000
  145.2588  139.2001  143.4903 LP  0  0  0  0  0  0  0  0  0  0  0  0  # atno 17320 bound_to 7965
  146.3376  140.2514  142.8598 LP  0  0  0  0  0  0  0  0  0  0  0  0  # atno 17321 bound_to 7965
  140.7795  143.3885  151.1352 LP  0  0  0  0  0  0  0  0  0  0  0  0  # atno 17342 bound_to 10162
  139.7528  143.8752  152.3081 LP  0  0  0  0  0  0  0  0  0  0  0  0  # atno 17343 bound_to 10162
  157.6319  130.8736  149.9289 LP  0  0  0  0  0  0  0  0  0  0  0  0  # atno 17370 bound_to 10713
  156.0843  130.3669  150.0517 LP  0  0  0  0  0  0  0  0  0  0  0  0  # atno 17371 bound_to 10713
  140.3003  134.3139  155.7291 LP  0  0  0  0  0  0  0  0  0  0  0  0  # atno 17394 bound_to 11000
  141.2145  133.7588  156.9631 LP  0  0  0  0  0  0  0  0  0  0  0  0  # atno 17395 bound_to 11000

$$$$
