AV-unprocessed.smi:2822|AV-procd|sdf|10869|dock3
  -GOLD-   2272015313D 1   1.00000     0.00000
 Structure written by MMmdl.
 40 42  0  0  0  0  0  0  0  0  2 V2000
  147.9114  141.7549  154.5277 Cl  0  0  0  0  0  0  0  0  0  0  0  0
  149.3240  140.9585  155.1285 C   0  0  0  0  0  0  0  0  0  0  0  0
  149.8172  139.8154  154.4664 C   0  0  0  0  0  0  0  0  0  0  0  0
  150.9140  139.1391  154.8678 N   0  0  0  0  0  0  0  0  0  0  0  0
  151.5635  139.5877  155.9619 C   0  0  0  0  0  0  0  0  0  0  0  0
  151.1559  140.7189  156.6972 C   0  0  0  0  0  0  0  0  0  0  0  0
  150.0074  141.4282  156.2736 C   0  0  0  0  0  0  0  0  0  0  0  0
  149.5327  142.5654  156.9442 N   0  0  0  0  0  0  0  0  0  0  0  0
  150.0162  142.9117  158.2714 C   0  0  0  0  0  0  0  0  0  0  0  0
  151.3574  143.6684  158.2009 C   0  0  1  0  0  0  0  0  0  0  0  0
  151.6569  144.4909  159.4681 C   0  0  0  0  0  0  0  0  0  0  0  0
  152.0030  143.6153  160.6123 N   0  3  2  0  0  0  0  0  0  0  0  0
  152.2588  144.3915  161.8525 C   0  0  0  0  0  0  0  0  0  0  0  0
  152.5313  143.4617  163.0451 C   0  0  0  0  0  0  0  0  0  0  0  0
  153.6972  142.5133  162.7410 C   0  0  0  0  0  0  0  0  0  0  0  0
  153.4194  141.7407  161.4449 C   0  0  0  0  0  0  0  0  0  0  0  0
  153.1233  142.6968  160.2714 C   0  0  1  0  0  0  0  0  0  0  0  0
  152.7895  141.9109  158.9892 C   0  0  0  0  0  0  0  0  0  0  0  0
  152.4602  142.8028  157.9295 O   0  0  0  0  0  0  0  0  0  0  0  0
  149.3175  139.4338  153.5883 H   0  0  0  0  0  0  0  0  0  0  0  0
  152.4366  139.0276  156.2625 H   0  0  0  0  0  0  0  0  0  0  0  0
  151.7240  141.0163  157.5656 H   0  0  0  0  0  0  0  0  0  0  0  0
  149.0039  143.2542  156.4269 H   0  0  0  0  0  0  0  0  0  0  0  0
  149.2694  143.5459  158.7506 H   0  0  0  0  0  0  0  0  0  0  0  0
  150.1031  142.0145  158.8837 H   0  0  0  0  0  0  0  0  0  0  0  0
  151.2949  144.3661  157.3646 H   0  0  0  0  0  0  0  0  0  0  0  0
  152.4909  145.1674  159.2731 H   0  0  0  0  0  0  0  0  0  0  0  0
  150.7989  145.1145  159.7224 H   0  0  0  0  0  0  0  0  0  0  0  0
  153.1084  145.0586  161.6975 H   0  0  0  0  0  0  0  0  0  0  0  0
  151.3967  145.0223  162.0721 H   0  0  0  0  0  0  0  0  0  0  0  0
  152.7539  144.0521  163.9345 H   0  0  0  0  0  0  0  0  0  0  0  0
  151.6353  142.8828  163.2734 H   0  0  0  0  0  0  0  0  0  0  0  0
  154.6217  143.0834  162.6407 H   0  0  0  0  0  0  0  0  0  0  0  0
  153.8451  141.8198  163.5695 H   0  0  0  0  0  0  0  0  0  0  0  0
  154.2741  141.1066  161.2053 H   0  0  0  0  0  0  0  0  0  0  0  0
  152.5725  141.0704  161.5996 H   0  0  0  0  0  0  0  0  0  0  0  0
  154.0111  143.3033  160.0820 H   0  0  0  0  0  0  0  0  0  0  0  0
  153.6523  141.3199  158.6808 H   0  0  0  0  0  0  0  0  0  0  0  0
  151.9798  141.2011  159.1598 H   0  0  0  0  0  0  0  0  0  0  0  0
  151.1957  143.0355  160.7920 H   0  0  0  0  0  0  0  0  0  0  0  0
  1  2  1  0  0  0  0
  2  7  1  0  0  0  0
  2  3  2  0  0  0  0
  3  4  1  0  0  0  0
  3 20  1  0  0  0  0
  4  5  2  0  0  0  0
  5  6  1  0  0  0  0
  5 21  1  0  0  0  0
  6  7  2  0  0  0  0
  6 22  1  0  0  0  0
  7  8  1  0  0  0  0
  8  9  1  0  0  0  0
  8 23  1  0  0  0  0
  9 10  1  0  0  0  0
  9 24  1  0  0  0  0
  9 25  1  0  0  0  0
 10 19  1  0  0  0  0
 10 11  1  0  0  0  0
 10 26  1  0  0  0  0
 11 12  1  0  0  0  0
 11 27  1  0  0  0  0
 11 28  1  0  0  0  0
 12 17  1  0  0  0  0
 12 13  1  0  0  0  0
 12 40  1  0  0  0  0
 13 14  1  0  0  0  0
 13 29  1  0  0  0  0
 13 30  1  0  0  0  0
 14 15  1  0  0  0  0
 14 31  1  0  0  0  0
 14 32  1  0  0  0  0
 15 16  1  0  0  0  0
 15 33  1  0  0  0  0
 15 34  1  0  0  0  0
 16 17  1  0  0  0  0
 16 35  1  0  0  0  0
 16 36  1  0  0  0  0
 17 18  1  0  0  0  0
 17 37  1  0  0  0  0
 18 19  1  0  0  0  0
 18 38  1  0  0  0  0
 18 39  1  0  0  0  0
M  CHG  1  12   1
M  END
> <s_m_source_file>
AV-unprocessed.smi

> <i_m_source_file_index>
2822

> <i_lp_mmshare_version>
43012

> <i_f3d_flags>
0

> <s_epik_input>
Q2xjMVtjSF1uW2NIXVtjSF1jMVtOSF1bQ0gyXVtDQEhdKFtDSDJdMilPW0NIMl1bQ0BASF0oTjIzKVtDSDJdW0NIMl1bQ0gyXVtDSDJdMw==

> <s_epik_cmdline>
J2VwaWtfcHl0aG9uJywgJy1waCcsICc3LjAnLCAnLXRuJywgJzgnLCAnLW1hJywgJzIwMCcsICctbWV0YWxfYmluZGluZycsICctaW1hZScsICc8aW5maWxlLm1hZT4nLCAnLW9tYWUnLCAnPG91dGZpbGUubWFlPic=

> <r_lp_tautomer_probability>
0.999999

> <r_epik_Ionization_Penalty>
0.88937

> <r_epik_Ionization_Penalty_Charging>
0.0803403

> <r_epik_Ionization_Penalty_Neutral>
0.80903

> <r_epik_State_Penalty>
0.931884

> <r_epik_Charging_Adjusted_Penalty>
1.01222

> <i_epik_Tot_Q>
1

> <i_epik_Tot_abs_Q>
1

> <r_epik_Metal_State_Penalty>
0.0782275

> <b_epik_Metal_Only>
0

> <s_lp_Force_Field>
OPLS_2005

> <r_lp_Energy>
31.9591

> <b_lp_Chiralities_Consistent>
1

> <s_lp_Variant>
AV-unprocessed.smi:2822-10

> <Gold.Version>
5.8.1

> <Gold.Id.Protein>
6NUR|6NUR_protein|mol2

> <Gold.PLP.Fitness>
45.9194

> <Gold.PLP.PLP>
-40.6490

> <Gold.PLP.part.hbond>
-1.6026

> <Gold.PLP.part.metal>
0.0000

> <Gold.PLP.part.buried>
4.8165

> <Gold.PLP.part.nonpolar>
-44.0063

> <Gold.PLP.part.repulsive>
0.1812

> <Gold.PLP.ligand.clash>
0.0011

> <Gold.PLP.ligand.torsion>
0.3678

> <Gold.PLP.Chemscore.Hbond>
1.0000

> <Gold.PLP.Chemscore.CHOScore>
1.0000

> <Gold.PLP.Chemscore.Metal>
0.0000

> <Gold.Chemscore.Hbonds>
donor molecule, donor type, donor heavy atom, donor atom, acceptor molecule, acceptor atom, score
      L1  H     8    23       P1  8028  1.00
      L1  C     3    20       P1  7957  1.00

> <Gold.PLP.Chemscore.Internal.Correction>
0.0071

> <Gold.Rescore>
     Score         DG    S(hbond)    S(metal)    S(lipo)     H(rot)  DE(clash)    DE(int)     intcor
     17.20     -21.82       0.98        0.00     137.16       1.17       3.16       1.46       ----

> <Gold.Chemscore.Fitness>
17.2014

> <Gold.Chemscore.DG>
-21.8231

> <Gold.Chemscore.ZeroCoef>
-5.4800

> <Gold.Chemscore.Hbond>
0.9848

> <Gold.Chemscore.Metal>
0.0000

> <Gold.Chemscore.Lipo>
137.1568

> <Gold.Chemscore.Internal_Hbond>
0.0000

> <Gold.Chemscore.DEClash>
3.1630

> <Gold.Chemscore.DEInternal>
1.4588

> <Gold.Chemscore.Rot>
1.1693

> <Gold.Chemscore.Internal.Correction>
   9.000000E+99

> <Gold.Chemscore.Hbonds>
donor molecule, donor type, donor heavy atom, donor atom, acceptor molecule, acceptor atom, score
      L1  H     8    23       P1  8028  0.95

> <Gold.Chemscore.Hbond.Weighted>
-3.2891

> <Gold.Chemscore.Metal.Weighted>
-0.0000

> <Gold.Chemscore.Lipo.Weighted>
-16.0473

> <Gold.Chemscore.Internal_Hbond.Weighted>
0.0000

> <Gold.Chemscore.DEClash.Weighted>
3.1630

> <Gold.Chemscore.DEInternal.Weighted>
1.4588

> <Gold.Chemscore.Rot.Weighted>
2.9934

> <Gold.Chemscore.Internal.Correction.Weighted>
   9.000000E+99

> <Gold.Protein.RotatedTorsions>
[ 6907 6896 6895 6894 ] final   26.62 input  -60.11 | X-H torsion
[ 7974 7965 7964 7962 ] final  -73.75 input  175.53 | X-H torsion
[ 8008 7997 7996 7995 ] final -147.26 input   59.86 | X-H torsion
[ 10167 10162 10161 10158 ] final   82.56 input  -65.29 | X-H torsion
[ 10718 10713 10712 10709 ] final -117.95 input   66.30 | X-H torsion
[ 10763 10752 10751 10750 ] final   18.48 input  -60.55 | X-H torsion
[ 11005 11000 10999 10996 ] final -132.96 input  -57.11 | X-H torsion

> <Gold.Protein.ActiveResidues>
 VAL166  LYS551  ARG553  GLY616  TRP617  ASP618  TYR619  PRO620  LYS621  CYS622 
 ASP623  PHE694  ASN695  SER759  ASP760  ASP761  ALA762  ILE779  LEU786  VAL792 
 PHE793  MET794  SER795  GLU796  ALA797  LYS798  CYS799  TRP800  GLU811  SER814 

> <Gold.Protein.RotatedAtoms>
  151.9902  134.9983  160.0560 H   0  0  0  0  0  0  0  0  0  0  0  0  # atno 6907 bound_to 6896
  152.1616  133.4580  159.4872 H   0  0  0  0  0  0  0  0  0  0  0  0  # atno 6908 bound_to 6896
  150.6888  134.1983  159.4355 H   0  0  0  0  0  0  0  0  0  0  0  0  # atno 6909 bound_to 6896
  145.6481  140.9291  143.0999 H   0  0  0  0  0  0  0  0  0  0  0  0  # atno 7974 bound_to 7965
  155.5727  140.0636  157.2802 H   0  0  0  0  0  0  0  0  0  0  0  0  # atno 8008 bound_to 7997
  154.4356  140.1866  156.0942 H   0  0  0  0  0  0  0  0  0  0  0  0  # atno 8009 bound_to 7997
  156.0364  140.3300  155.7199 H   0  0  0  0  0  0  0  0  0  0  0  0  # atno 8010 bound_to 7997
  139.9275  144.6173  150.8378 H   0  0  0  0  0  0  0  0  0  0  0  0  # atno 10167 bound_to 10162
  156.1071  130.6219  150.9229 H   0  0  0  0  0  0  0  0  0  0  0  0  # atno 10718 bound_to 10713
  153.1246  135.6727  153.9279 H   0  0  0  0  0  0  0  0  0  0  0  0  # atno 10763 bound_to 10752
  153.8784  135.3061  155.3446 H   0  0  0  0  0  0  0  0  0  0  0  0  # atno 10764 bound_to 10752
  154.7653  135.4967  153.9622 H   0  0  0  0  0  0  0  0  0  0  0  0  # atno 10765 bound_to 10752
  140.9124  134.1551  157.4379 H   0  0  0  0  0  0  0  0  0  0  0  0  # atno 11005 bound_to 11000
  144.7132  139.8291  143.7407 LP  0  0  0  0  0  0  0  0  0  0  0  0  # atno 17320 bound_to 7965
  146.1226  139.4246  143.0219 LP  0  0  0  0  0  0  0  0  0  0  0  0  # atno 17321 bound_to 7965
  140.7646  143.3253  151.2529 LP  0  0  0  0  0  0  0  0  0  0  0  0  # atno 17342 bound_to 10162
  139.6810  143.9855  152.2808 LP  0  0  0  0  0  0  0  0  0  0  0  0  # atno 17343 bound_to 10162
  157.6249  131.0926  150.8553 LP  0  0  0  0  0  0  0  0  0  0  0  0  # atno 17370 bound_to 10713
  156.8671  130.5133  149.5299 LP  0  0  0  0  0  0  0  0  0  0  0  0  # atno 17371 bound_to 10713
  139.8760  134.9941  156.5675 LP  0  0  0  0  0  0  0  0  0  0  0  0  # atno 17394 bound_to 11000
  140.8093  133.8442  155.8796 LP  0  0  0  0  0  0  0  0  0  0  0  0  # atno 17395 bound_to 11000

$$$$
