AV-unprocessed.smi:2772|AV-procd|sdf|10667|dock8
  -GOLD-   2272015113D 1   1.00000     0.00000
 Structure written by MMmdl.
 55 57  0  0  0  0  0  0  0  0  3 V2000
  144.1382  145.3893  157.8683 C   0  0  0  0  0  0  0  0  0  0  0  0
  144.0284  144.0438  157.1825 C   0  0  0  0  0  0  0  0  0  0  0  0
  144.5300  142.8761  157.7929 C   0  0  0  0  0  0  0  0  0  0  0  0
  144.3954  141.6502  157.1130 C   0  0  0  0  0  0  0  0  0  0  0  0
  143.7557  141.6345  155.8500 C   0  0  0  0  0  0  0  0  0  0  0  0
  143.5682  140.4662  155.0624 N   0  0  0  0  0  0  0  0  0  0  0  0
  143.4268  139.1950  155.4761 C   0  0  0  0  0  0  0  0  0  0  0  0
  143.4398  138.8211  156.6486 O   0  0  0  0  0  0  0  0  0  0  0  0
  143.2431  138.3628  154.4404 N   0  0  0  0  0  0  0  0  0  0  0  0
  143.0446  136.9200  154.5513 C   0  0  2  0  0  0  0  0  0  0  0  0
  144.3416  136.2454  155.0336 C   0  0  0  0  0  0  0  0  0  0  0  0
  144.2009  134.7102  155.0364 C   0  0  0  0  0  0  0  0  0  0  0  0
  143.8211  134.1810  153.6943 N   0  3  2  0  0  0  0  0  0  0  0  0
  144.9099  134.2234  152.6556 C   0  0  2  0  0  0  0  0  0  0  0  0
  144.5139  133.5624  151.3126 C   0  0  0  0  0  0  0  0  0  0  0  0
  144.3388  132.0386  151.4518 C   0  0  0  0  0  0  0  0  0  0  0  0
  145.5819  131.4053  151.9589 N   0  3  2  0  0  0  0  0  0  0  0  0
  145.4777  129.9317  152.0274 C   0  0  0  0  0  0  0  0  0  0  0  0
  146.0366  132.0013  153.2402 C   0  0  0  0  0  0  0  0  0  0  0  0
  146.2156  133.5254  153.1084 C   0  0  0  0  0  0  0  0  0  0  0  0
  142.5191  134.7817  153.2846 C   0  0  0  0  0  0  0  0  0  0  0  0
  142.5961  136.3181  153.2036 C   0  0  0  0  0  0  0  0  0  0  0  0
  143.3084  142.8654  155.3250 C   0  0  0  0  0  0  0  0  0  0  0  0
  143.4326  144.0447  155.9706 N   0  0  0  0  0  0  0  0  0  0  0  0
  144.5850  145.2937  158.8582 H   0  0  0  0  0  0  0  0  0  0  0  0
  143.1511  145.8379  157.9839 H   0  0  0  0  0  0  0  0  0  0  0  0
  144.7573  146.0659  157.2789 H   0  0  0  0  0  0  0  0  0  0  0  0
  145.0108  142.9150  158.7595 H   0  0  0  0  0  0  0  0  0  0  0  0
  144.7938  140.7563  157.5667 H   0  0  0  0  0  0  0  0  0  0  0  0
  143.4580  140.6278  154.0721 H   0  0  0  0  0  0  0  0  0  0  0  0
  143.2447  138.7557  153.5104 H   0  0  0  0  0  0  0  0  0  0  0  0
  142.2697  136.7269  155.2960 H   0  0  0  0  0  0  0  0  0  0  0  0
  145.1804  136.5429  154.4035 H   0  0  0  0  0  0  0  0  0  0  0  0
  144.5832  136.5903  156.0397 H   0  0  0  0  0  0  0  0  0  0  0  0
  145.0990  134.2385  155.4280 H   0  0  0  0  0  0  0  0  0  0  0  0
  143.4164  134.4316  155.7418 H   0  0  0  0  0  0  0  0  0  0  0  0
  145.1426  135.2683  152.4520 H   0  0  0  0  0  0  0  0  0  0  0  0
  143.6303  134.0170  150.8680 H   0  0  0  0  0  0  0  0  0  0  0  0
  145.3052  133.7504  150.5852 H   0  0  0  0  0  0  0  0  0  0  0  0
  143.5074  131.8099  152.1202 H   0  0  0  0  0  0  0  0  0  0  0  0
  144.0881  131.6118  150.4797 H   0  0  0  0  0  0  0  0  0  0  0  0
  144.7175  129.6252  152.7470 H   0  0  0  0  0  0  0  0  0  0  0  0
  146.4297  129.4916  152.3267 H   0  0  0  0  0  0  0  0  0  0  0  0
  145.2135  129.5183  151.0535 H   0  0  0  0  0  0  0  0  0  0  0  0
  145.3215  131.7692  154.0310 H   0  0  0  0  0  0  0  0  0  0  0  0
  146.9854  131.5487  153.5311 H   0  0  0  0  0  0  0  0  0  0  0  0
  146.9892  133.7161  152.3632 H   0  0  0  0  0  0  0  0  0  0  0  0
  146.6183  133.9478  154.0266 H   0  0  0  0  0  0  0  0  0  0  0  0
  142.1411  134.3586  152.3568 H   0  0  0  0  0  0  0  0  0  0  0  0
  141.7719  134.5077  154.0308 H   0  0  0  0  0  0  0  0  0  0  0  0
  141.6183  136.7133  152.9260 H   0  0  0  0  0  0  0  0  0  0  0  0
  143.2796  136.6179  152.4085 H   0  0  0  0  0  0  0  0  0  0  0  0
  142.8275  142.9070  154.3587 H   0  0  0  0  0  0  0  0  0  0  0  0
  143.6298  133.1994  153.8353 H   0  0  0  0  0  0  0  0  0  0  0  0
  146.3023  131.6062  151.2793 H   0  0  0  0  0  0  0  0  0  0  0  0
  1  2  1  0  0  0  0
  1 25  1  0  0  0  0
  1 26  1  0  0  0  0
  1 27  1  0  0  0  0
  2 24  1  0  0  0  0
  2  3  2  0  0  0  0
  3  4  1  0  0  0  0
  3 28  1  0  0  0  0
  4  5  2  0  0  0  0
  4 29  1  0  0  0  0
  5  6  1  0  0  0  0
  5 23  1  0  0  0  0
  6  7  1  0  0  0  0
  6 30  1  0  0  0  0
  7  8  2  0  0  0  0
  7  9  1  0  0  0  0
  9 10  1  0  0  0  0
  9 31  1  0  0  0  0
 10 22  1  0  0  0  0
 10 11  1  0  0  0  0
 10 32  1  0  0  0  0
 11 12  1  0  0  0  0
 11 33  1  0  0  0  0
 11 34  1  0  0  0  0
 12 13  1  0  0  0  0
 12 35  1  0  0  0  0
 12 36  1  0  0  0  0
 13 14  1  0  0  0  0
 13 21  1  0  0  0  0
 13 54  1  0  0  0  0
 14 20  1  0  0  0  0
 14 15  1  0  0  0  0
 14 37  1  0  0  0  0
 15 16  1  0  0  0  0
 15 38  1  0  0  0  0
 15 39  1  0  0  0  0
 16 17  1  0  0  0  0
 16 40  1  0  0  0  0
 16 41  1  0  0  0  0
 17 18  1  0  0  0  0
 17 19  1  0  0  0  0
 17 55  1  0  0  0  0
 18 42  1  0  0  0  0
 18 43  1  0  0  0  0
 18 44  1  0  0  0  0
 19 20  1  0  0  0  0
 19 45  1  0  0  0  0
 19 46  1  0  0  0  0
 20 47  1  0  0  0  0
 20 48  1  0  0  0  0
 21 22  1  0  0  0  0
 21 49  1  0  0  0  0
 21 50  1  0  0  0  0
 22 51  1  0  0  0  0
 22 52  1  0  0  0  0
 23 24  2  0  0  0  0
 23 53  1  0  0  0  0
M  CHG  1  13   1
M  CHG  1  17   1
M  END
> <s_m_source_file>
AV-unprocessed.smi

> <i_m_source_file_index>
2772

> <i_lp_mmshare_version>
43012

> <i_f3d_flags>
0

> <s_epik_input>
W0NIM11jMVtjSF1bY0hdYyhbY0hdbjEpW05IXUMoPU8pW05IXVtDSF0yW0NIMl1bQ0gyXU4oW0NIMl1bQ0gyXTIpW0NIXTNbQ0gyXVtDSDJdTihbQ0gzXSlbQ0gyXVtDSDJdMw==

> <s_epik_cmdline>
J2VwaWtfcHl0aG9uJywgJy1waCcsICc3LjAnLCAnLXRuJywgJzgnLCAnLW1hJywgJzIwMCcsICctbWV0YWxfYmluZGluZycsICctaW1hZScsICc8aW5maWxlLm1hZT4nLCAnLW9tYWUnLCAnPG91dGZpbGUubWFlPic=

> <r_epik_Ionization_Penalty>
0.196786

> <r_epik_Ionization_Penalty_Charging>
0.180787

> <r_epik_Ionization_Penalty_Neutral>
0.0159988

> <r_epik_State_Penalty>
0.163322

> <r_epik_Charging_Adjusted_Penalty>
0.344109

> <i_epik_Tot_Q>
2

> <i_epik_Tot_abs_Q>
2

> <r_epik_Metal_State_Penalty>
0.163596

> <b_epik_Metal_Only>
0

> <s_lp_Force_Field>
OPLS_2005

> <r_lp_Energy>
49.9042

> <b_lp_Chiralities_Consistent>
1

> <s_lp_Variant>
AV-unprocessed.smi:2772-4

> <Gold.Version>
5.8.1

> <Gold.Id.Protein>
6NUR|6NUR_protein|mol2

> <Gold.PLP.Fitness>
38.5917

> <Gold.PLP.PLP>
-24.5201

> <Gold.PLP.part.hbond>
-3.0000

> <Gold.PLP.part.metal>
0.0000

> <Gold.PLP.part.buried>
-5.1945

> <Gold.PLP.part.nonpolar>
-17.5261

> <Gold.PLP.part.repulsive>
0.1058

> <Gold.PLP.ligand.clash>
0.0000

> <Gold.PLP.ligand.torsion>
0.2800

> <Gold.PLP.Chemscore.Hbond>
3.8625

> <Gold.PLP.Chemscore.CHOScore>
1.0000

> <Gold.PLP.Chemscore.Metal>
0.0000

> <Gold.Chemscore.Hbonds>
donor molecule, donor type, donor heavy atom, donor atom, acceptor molecule, acceptor atom, score
      L1  H     6    30       P1 10175  1.00
      L1  H     9    31       P1 10175  0.86
      L1  H    13    54       P1 10957  2.00
      L1  C    23    53       P1 10174  1.00

> <Gold.PLP.Chemscore.Internal.Correction>
0.0441

> <Gold.Rescore>
     Score         DG    S(hbond)    S(metal)    S(lipo)     H(rot)  DE(clash)    DE(int)     intcor
     18.22     -18.66       2.81        0.00      58.92       1.21       0.00       0.43       ----

> <Gold.Chemscore.Fitness>
18.2239

> <Gold.Chemscore.DG>
-18.6569

> <Gold.Chemscore.ZeroCoef>
-5.4800

> <Gold.Chemscore.Hbond>
2.8080

> <Gold.Chemscore.Metal>
0.0000

> <Gold.Chemscore.Lipo>
58.9207

> <Gold.Chemscore.Internal_Hbond>
0.0000

> <Gold.Chemscore.DEClash>
0.0000

> <Gold.Chemscore.DEInternal>
0.4330

> <Gold.Chemscore.Rot>
1.2092

> <Gold.Chemscore.Internal.Correction>
   9.000000E+99

> <Gold.Chemscore.Hbonds>
donor molecule, donor type, donor heavy atom, donor atom, acceptor molecule, acceptor atom, score
      L1  H     6    30       P1 10175  0.94
      L1  H     9    31       P1 10175  0.81
      L1  H    13    54       P1 10957  0.93

> <Gold.Chemscore.Hbond.Weighted>
-9.3787

> <Gold.Chemscore.Metal.Weighted>
-0.0000

> <Gold.Chemscore.Lipo.Weighted>
-6.8937

> <Gold.Chemscore.Internal_Hbond.Weighted>
0.0000

> <Gold.Chemscore.DEClash.Weighted>
0.0000

> <Gold.Chemscore.DEInternal.Weighted>
0.4330

> <Gold.Chemscore.Rot.Weighted>
3.0955

> <Gold.Chemscore.Internal.Correction.Weighted>
   9.000000E+99

> <Gold.Protein.RotatedTorsions>
[ 6907 6896 6895 6894 ] final   17.14 input  -60.11 | X-H torsion
[ 7974 7965 7964 7962 ] final -162.01 input  175.53 | X-H torsion
[ 8008 7997 7996 7995 ] final  143.31 input   59.86 | X-H torsion
[ 10167 10162 10161 10158 ] final -118.32 input  -65.29 | X-H torsion
[ 10718 10713 10712 10709 ] final    3.16 input   66.30 | X-H torsion
[ 10763 10752 10751 10750 ] final   42.88 input  -60.55 | X-H torsion
[ 11005 11000 10999 10996 ] final   13.25 input  -57.11 | X-H torsion

> <Gold.Protein.ActiveResidues>
 VAL166  LYS551  ARG553  GLY616  TRP617  ASP618  TYR619  PRO620  LYS621  CYS622 
 ASP623  PHE694  ASN695  SER759  ASP760  ASP761  ALA762  ILE779  LEU786  VAL792 
 PHE793  MET794  SER795  GLU796  ALA797  LYS798  CYS799  TRP800  GLU811  SER814 

> <Gold.Protein.RotatedAtoms>
  151.8449  135.0577  160.0452 H   0  0  0  0  0  0  0  0  0  0  0  0  # atno 6907 bound_to 6896
  152.2781  133.5440  159.5489 H   0  0  0  0  0  0  0  0  0  0  0  0  # atno 6908 bound_to 6896
  150.7178  134.0519  159.3843 H   0  0  0  0  0  0  0  0  0  0  0  0  # atno 6909 bound_to 6896
  144.7371  140.3315  143.6152 H   0  0  0  0  0  0  0  0  0  0  0  0  # atno 7974 bound_to 7965
  156.2932  140.2265  156.4871 H   0  0  0  0  0  0  0  0  0  0  0  0  # atno 8008 bound_to 7997
  154.7803  140.0460  157.1143 H   0  0  0  0  0  0  0  0  0  0  0  0  # atno 8009 bound_to 7997
  154.9767  140.3073  155.4968 H   0  0  0  0  0  0  0  0  0  0  0  0  # atno 8010 bound_to 7997
  140.0588  143.4988  152.2043 H   0  0  0  0  0  0  0  0  0  0  0  0  # atno 10167 bound_to 10162
  156.8737  130.5629  149.5656 H   0  0  0  0  0  0  0  0  0  0  0  0  # atno 10718 bound_to 10713
  152.9873  135.6118  154.3021 H   0  0  0  0  0  0  0  0  0  0  0  0  # atno 10763 bound_to 10752
  154.2741  135.2779  155.2727 H   0  0  0  0  0  0  0  0  0  0  0  0  # atno 10764 bound_to 10752
  154.5096  135.5844  153.6651 H   0  0  0  0  0  0  0  0  0  0  0  0  # atno 10765 bound_to 10752
  140.4828  134.0918  155.7754 H   0  0  0  0  0  0  0  0  0  0  0  0  # atno 11005 bound_to 11000
  145.7467  139.1781  143.2345 LP  0  0  0  0  0  0  0  0  0  0  0  0  # atno 17320 bound_to 7965
  146.1092  140.7449  142.9511 LP  0  0  0  0  0  0  0  0  0  0  0  0  # atno 17321 bound_to 7965
  139.5907  144.7549  151.3409 LP  0  0  0  0  0  0  0  0  0  0  0  0  # atno 17342 bound_to 10162
  140.7182  143.7209  150.7696 LP  0  0  0  0  0  0  0  0  0  0  0  0  # atno 17343 bound_to 10162
  156.0713  130.5745  150.9388 LP  0  0  0  0  0  0  0  0  0  0  0  0  # atno 17370 bound_to 10713
  157.6181  131.0932  150.8673 LP  0  0  0  0  0  0  0  0  0  0  0  0  # atno 17371 bound_to 10713
  141.1523  133.8947  157.2068 LP  0  0  0  0  0  0  0  0  0  0  0  0  # atno 17394 bound_to 11000
  139.9816  135.0096  156.9763 LP  0  0  0  0  0  0  0  0  0  0  0  0  # atno 17395 bound_to 11000

$$$$
