AV-unprocessed.smi:1728|AV-procd|sdf|6967|dock9
  -GOLD-   22720 8183D 1   1.00000     0.00000
 Structure written by MMmdl.
 46 47  0  0  0  0  0  0  0  0  1 V2000
  148.9188  145.3580  160.6195 C   0  0  0  0  0  0  0  0  0  0  0  0
  149.6230  144.8165  159.5073 O   0  0  0  0  0  0  0  0  0  0  0  0
  150.7915  144.1166  159.7419 C   0  0  0  0  0  0  0  0  0  0  0  0
  151.4371  144.3167  160.9185 N   0  0  0  0  0  0  0  0  0  0  0  0
  152.5750  143.6317  161.1518 C   0  0  0  0  0  0  0  0  0  0  0  0
  153.1223  142.7140  160.2370 C   0  0  0  0  0  0  0  0  0  0  0  0
  152.4545  142.5036  159.0165 C   0  0  0  0  0  0  0  0  0  0  0  0
  151.2646  143.2252  158.7500 C   0  0  0  0  0  0  0  0  0  0  0  0
  150.4960  143.0884  157.5595 N   0  0  0  0  0  0  0  0  0  0  0  0
  150.4442  142.0644  156.6907 C   0  0  0  0  0  0  0  0  0  0  0  0
  151.0878  141.0188  156.7730 O   0  0  0  0  0  0  0  0  0  0  0  0
  149.5943  142.3266  155.6907 N   0  0  0  0  0  0  0  0  0  0  0  0
  149.2975  141.4129  154.5917 C   0  0  0  0  0  0  0  0  0  0  0  0
  148.0093  140.5809  154.8514 C   0  0  0  0  0  0  0  0  0  0  0  0
  147.8557  139.6314  153.6357 C   0  0  0  0  0  0  0  0  0  0  0  0
  148.2754  139.6967  156.0935 C   0  0  0  0  0  0  0  0  0  0  0  0
  146.8121  141.4549  155.0029 N   0  0  0  0  0  0  0  0  0  0  0  0
  146.6688  142.0866  156.3195 C   0  0  0  0  0  0  0  0  0  0  0  0
  145.3516  142.8717  156.4441 C   0  0  0  0  0  0  0  0  0  0  0  0
  145.2730  143.8455  155.4103 O   0  0  0  0  0  0  0  0  0  0  0  0
  145.3498  143.2669  154.1132 C   0  0  0  0  0  0  0  0  0  0  0  0
  146.6680  142.4880  153.9704 C   0  0  0  0  0  0  0  0  0  0  0  0
  148.0271  145.8739  160.2639 H   0  0  0  0  0  0  0  0  0  0  0  0
  149.5253  146.0836  161.1633 H   0  0  0  0  0  0  0  0  0  0  0  0
  148.5954  144.5744  161.3060 H   0  0  0  0  0  0  0  0  0  0  0  0
  153.0614  143.8167  162.0980 H   0  0  0  0  0  0  0  0  0  0  0  0
  154.0323  142.1803  160.4680 H   0  0  0  0  0  0  0  0  0  0  0  0
  152.8649  141.7872  158.3232 H   0  0  0  0  0  0  0  0  0  0  0  0
  149.9451  143.8987  157.3150 H   0  0  0  0  0  0  0  0  0  0  0  0
  149.1036  143.2092  155.6927 H   0  0  0  0  0  0  0  0  0  0  0  0
  149.1912  141.9907  153.6715 H   0  0  0  0  0  0  0  0  0  0  0  0
  150.1599  140.7664  154.4249 H   0  0  0  0  0  0  0  0  0  0  0  0
  148.7885  139.1123  153.4123 H   0  0  0  0  0  0  0  0  0  0  0  0
  147.5628  140.1729  152.7354 H   0  0  0  0  0  0  0  0  0  0  0  0
  147.1123  138.8535  153.8098 H   0  0  0  0  0  0  0  0  0  0  0  0
  149.1548  139.0687  155.9453 H   0  0  0  0  0  0  0  0  0  0  0  0
  147.4442  139.0255  156.3079 H   0  0  0  0  0  0  0  0  0  0  0  0
  148.4613  140.2901  156.9884 H   0  0  0  0  0  0  0  0  0  0  0  0
  146.6865  141.3417  157.1129 H   0  0  0  0  0  0  0  0  0  0  0  0
  147.5007  142.7664  156.5036 H   0  0  0  0  0  0  0  0  0  0  0  0
  144.4940  142.1994  156.3871 H   0  0  0  0  0  0  0  0  0  0  0  0
  145.3009  143.3740  157.4102 H   0  0  0  0  0  0  0  0  0  0  0  0
  144.4943  142.6104  153.9471 H   0  0  0  0  0  0  0  0  0  0  0  0
  145.2952  144.0587  153.3661 H   0  0  0  0  0  0  0  0  0  0  0  0
  147.4990  143.1915  154.0218 H   0  0  0  0  0  0  0  0  0  0  0  0
  146.6854  142.0495  152.9744 H   0  0  0  0  0  0  0  0  0  0  0  0
  1  2  1  0  0  0  0
  1 23  1  0  0  0  0
  1 24  1  0  0  0  0
  1 25  1  0  0  0  0
  2  3  1  0  0  0  0
  3  8  1  0  0  0  0
  3  4  2  0  0  0  0
  4  5  1  0  0  0  0
  5  6  2  0  0  0  0
  5 26  1  0  0  0  0
  6  7  1  0  0  0  0
  6 27  1  0  0  0  0
  7  8  2  0  0  0  0
  7 28  1  0  0  0  0
  8  9  1  0  0  0  0
  9 10  1  0  0  0  0
  9 29  1  0  0  0  0
 10 11  2  0  0  0  0
 10 12  1  0  0  0  0
 12 13  1  0  0  0  0
 12 30  1  0  0  0  0
 13 14  1  0  0  0  0
 13 31  1  0  0  0  0
 13 32  1  0  0  0  0
 14 15  1  0  0  0  0
 14 16  1  0  0  0  0
 14 17  1  0  0  0  0
 15 33  1  0  0  0  0
 15 34  1  0  0  0  0
 15 35  1  0  0  0  0
 16 36  1  0  0  0  0
 16 37  1  0  0  0  0
 16 38  1  0  0  0  0
 17 22  1  0  0  0  0
 17 18  1  0  0  0  0
 18 19  1  0  0  0  0
 18 39  1  0  0  0  0
 18 40  1  0  0  0  0
 19 20  1  0  0  0  0
 19 41  1  0  0  0  0
 19 42  1  0  0  0  0
 20 21  1  0  0  0  0
 21 22  1  0  0  0  0
 21 43  1  0  0  0  0
 21 44  1  0  0  0  0
 22 45  1  0  0  0  0
 22 46  1  0  0  0  0
M  END
> <s_m_source_file>
AV-unprocessed.smi

> <i_m_source_file_index>
1728

> <i_lp_mmshare_version>
43012

> <i_f3d_flags>
0

> <s_epik_input>
W0NIM11PYzFuW2NIXVtjSF1bY0hdYzFbTkhdQyg9TylbTkhdW0NIMl1DKFtDSDNdKShbQ0gzXSlOMltDSDJdW0NIMl1PW0NIMl1bQ0gyXTI=

> <s_epik_cmdline>
J2VwaWtfcHl0aG9uJywgJy1waCcsICc3LjAnLCAnLXRuJywgJzgnLCAnLW1hJywgJzIwMCcsICctbWV0YWxfYmluZGluZycsICctaW1hZScsICc8aW5maWxlLm1hZT4nLCAnLW9tYWUnLCAnPG91dGZpbGUubWFlPic=

> <r_lp_tautomer_probability>
1

> <r_epik_Ionization_Penalty>
0.266086

> <r_epik_Ionization_Penalty_Charging>
0

> <r_epik_Ionization_Penalty_Neutral>
0.266086

> <r_epik_State_Penalty>
0.257924

> <r_epik_Charging_Adjusted_Penalty>
0.257924

> <i_epik_Tot_Q>
0

> <i_epik_Tot_abs_Q>
0

> <r_epik_Metal_State_Penalty>
0.257921

> <b_epik_Metal_Only>
0

> <s_lp_Force_Field>
OPLS_2005

> <r_lp_Energy>
44.4816

> <b_lp_Chiralities_Consistent>
1

> <s_lp_Variant>
AV-unprocessed.smi:1728-1

> <Gold.Version>
5.8.1

> <Gold.Id.Protein>
6NUR|6NUR_protein|mol2

> <Gold.PLP.Fitness>
41.2812

> <Gold.PLP.PLP>
-38.2739

> <Gold.PLP.part.hbond>
-1.9257

> <Gold.PLP.part.metal>
0.0000

> <Gold.PLP.part.buried>
-5.5705

> <Gold.PLP.part.nonpolar>
-31.2878

> <Gold.PLP.part.repulsive>
1.2328

> <Gold.PLP.ligand.clash>
0.0000

> <Gold.PLP.ligand.torsion>
0.9181

> <Gold.PLP.Chemscore.Hbond>
1.5967

> <Gold.PLP.Chemscore.CHOScore>
0.0000

> <Gold.PLP.Chemscore.Metal>
0.0000

> <Gold.Chemscore.Hbonds>
donor molecule, donor type, donor heavy atom, donor atom, acceptor molecule, acceptor atom, score
      L1  H     9    29       P1  8028  0.66
      L1  H    12    30       P1  8028  0.99

> <Gold.PLP.Chemscore.Internal.Correction>
0.0534

> <Gold.Rescore>
     Score         DG    S(hbond)    S(metal)    S(lipo)     H(rot)  DE(clash)    DE(int)     intcor
     16.25     -17.50       1.71        0.00      91.02       1.70       0.07       1.18       ----

> <Gold.Chemscore.Fitness>
16.2536

> <Gold.Chemscore.DG>
-17.4986

> <Gold.Chemscore.ZeroCoef>
-5.4800

> <Gold.Chemscore.Hbond>
1.7148

> <Gold.Chemscore.Metal>
0.0000

> <Gold.Chemscore.Lipo>
91.0207

> <Gold.Chemscore.Internal_Hbond>
0.0000

> <Gold.Chemscore.DEClash>
0.0656

> <Gold.Chemscore.DEInternal>
1.1794

> <Gold.Chemscore.Rot>
1.7024

> <Gold.Chemscore.Internal.Correction>
   9.000000E+99

> <Gold.Chemscore.Hbonds>
donor molecule, donor type, donor heavy atom, donor atom, acceptor molecule, acceptor atom, score
      L1  H     9    29       P1  8028  0.50
      L1  H    12    30       P1  8028  0.92

> <Gold.Chemscore.Hbond.Weighted>
-5.7275

> <Gold.Chemscore.Metal.Weighted>
-0.0000

> <Gold.Chemscore.Lipo.Weighted>
-10.6494

> <Gold.Chemscore.Internal_Hbond.Weighted>
0.0000

> <Gold.Chemscore.DEClash.Weighted>
0.0656

> <Gold.Chemscore.DEInternal.Weighted>
1.1794

> <Gold.Chemscore.Rot.Weighted>
4.3583

> <Gold.Chemscore.Internal.Correction.Weighted>
   9.000000E+99

> <Gold.Protein.RotatedTorsions>
[ 6907 6896 6895 6894 ] final -102.91 input  -60.11 | X-H torsion
[ 7974 7965 7964 7962 ] final  -15.08 input  175.53 | X-H torsion
[ 8008 7997 7996 7995 ] final  148.38 input   59.86 | X-H torsion
[ 10167 10162 10161 10158 ] final -178.80 input  -65.29 | X-H torsion
[ 10718 10713 10712 10709 ] final  -21.87 input   66.30 | X-H torsion
[ 10763 10752 10751 10750 ] final -167.61 input  -60.55 | X-H torsion
[ 11005 11000 10999 10996 ] final  -66.41 input  -57.11 | X-H torsion

> <Gold.Protein.ActiveResidues>
 VAL166  LYS551  ARG553  GLY616  TRP617  ASP618  TYR619  PRO620  LYS621  CYS622 
 ASP623  PHE694  ASN695  SER759  ASP760  ASP761  ALA762  ILE779  LEU786  VAL792 
 PHE793  MET794  SER795  GLU796  ALA797  LYS798  CYS799  TRP800  GLU811  SER814 

> <Gold.Protein.RotatedAtoms>
  150.7217  134.0509  159.3797 H   0  0  0  0  0  0  0  0  0  0  0  0  # atno 6907 bound_to 6896
  151.8486  135.0563  160.0465 H   0  0  0  0  0  0  0  0  0  0  0  0  # atno 6908 bound_to 6896
  152.2808  133.5433  159.5533 H   0  0  0  0  0  0  0  0  0  0  0  0  # atno 6909 bound_to 6896
  146.2047  140.3442  142.8411 H   0  0  0  0  0  0  0  0  0  0  0  0  # atno 7974 bound_to 7965
  156.2793  140.2130  156.5689 H   0  0  0  0  0  0  0  0  0  0  0  0  # atno 8008 bound_to 7997
  154.7152  140.0508  157.0611 H   0  0  0  0  0  0  0  0  0  0  0  0  # atno 8009 bound_to 7997
  155.0552  140.3160  155.4682 H   0  0  0  0  0  0  0  0  0  0  0  0  # atno 8010 bound_to 7997
  139.5415  144.2349  152.0905 H   0  0  0  0  0  0  0  0  0  0  0  0  # atno 10167 bound_to 10162
  156.5122  130.4613  149.6642 H   0  0  0  0  0  0  0  0  0  0  0  0  # atno 10718 bound_to 10713
  154.6714  135.2940  154.9736 H   0  0  0  0  0  0  0  0  0  0  0  0  # atno 10763 bound_to 10752
  154.0762  135.6611  153.4835 H   0  0  0  0  0  0  0  0  0  0  0  0  # atno 10764 bound_to 10752
  153.0489  135.5186  154.7712 H   0  0  0  0  0  0  0  0  0  0  0  0  # atno 10765 bound_to 10752
  141.1481  133.6699  156.6134 H   0  0  0  0  0  0  0  0  0  0  0  0  # atno 11005 bound_to 11000
  144.8764  140.7342  143.6014 LP  0  0  0  0  0  0  0  0  0  0  0  0  # atno 17320 bound_to 7965
  145.3362  139.1745  143.4510 LP  0  0  0  0  0  0  0  0  0  0  0  0  # atno 17321 bound_to 7965
  140.1829  144.4827  150.6519 LP  0  0  0  0  0  0  0  0  0  0  0  0  # atno 17342 bound_to 10162
  140.6647  143.2264  151.5771 LP  0  0  0  0  0  0  0  0  0  0  0  0  # atno 17343 bound_to 10162
  156.3229  130.7290  151.2205 LP  0  0  0  0  0  0  0  0  0  0  0  0  # atno 17370 bound_to 10713
  157.7449  131.0451  150.4824 LP  0  0  0  0  0  0  0  0  0  0  0  0  # atno 17371 bound_to 10713
  140.3596  134.7699  157.4525 LP  0  0  0  0  0  0  0  0  0  0  0  0  # atno 17394 bound_to 11000
  140.0795  134.5750  155.8555 LP  0  0  0  0  0  0  0  0  0  0  0  0  # atno 17395 bound_to 11000

$$$$
