AV-unprocessed.smi:1412|AV-procd|sdf|5746|dock6
  -GOLD-   22720 5383D 1   1.00000     0.00000
 Structure written by MMmdl.
 41 42  0  0  0  0  0  0  0  0  3 V2000
  147.7780  140.7133  153.7816 C   0  0  0  0  0  0  0  0  0  0  0  0
  147.3443  139.3306  153.2636 C   0  0  0  0  0  0  0  0  0  0  0  0
  147.3893  138.1611  154.2938 C   0  0  1  0  0  0  0  0  0  0  0  0
  146.9259  138.6811  155.6812 C   0  0  0  0  0  0  0  0  0  0  0  0
  146.3968  137.0335  153.8773 C   0  0  0  0  0  0  0  0  0  0  0  0
  145.0287  137.5306  153.7187 N   0  0  0  0  0  0  0  0  0  0  0  0
  143.9459  137.1313  154.4009 C   0  0  0  0  0  0  0  0  0  0  0  0
  144.0196  136.1778  155.1781 O   0  0  0  0  0  0  0  0  0  0  0  0
  142.8505  137.8853  154.1644 N   0  5  0  0  0  0  0  0  0  0  0  0
  141.6425  137.3027  154.0914 C   0  0  0  0  0  0  0  0  0  0  0  0
  141.4206  136.0562  154.5395 N   0  0  0  0  0  0  0  0  0  0  0  0
  140.1073  135.6411  154.3681 N   0  0  0  0  0  0  0  0  0  0  0  0
  139.3670  136.5930  153.8004 C   0  0  0  0  0  0  0  0  0  0  0  0
  140.2070  138.0827  153.4235 S   0  0  0  0  0  0  0  0  0  0  0  0
  148.7793  137.5782  154.3833 N   0  3  0  0  0  0  0  0  0  0  0  0
  149.8711  138.5562  154.6458 C   0  0  0  0  0  0  0  0  0  0  0  0
  151.2364  137.8938  154.4135 C   0  0  0  0  0  0  0  0  0  0  0  0
  151.3669  136.7884  155.2977 O   0  0  0  0  0  0  0  0  0  0  0  0
  150.3751  135.7990  155.0562 C   0  0  0  0  0  0  0  0  0  0  0  0
  148.9676  136.3898  155.2610 C   0  0  0  0  0  0  0  0  0  0  0  0
  147.6742  141.4610  152.9951 H   0  0  0  0  0  0  0  0  0  0  0  0
  148.8216  140.7236  154.0944 H   0  0  0  0  0  0  0  0  0  0  0  0
  147.1671  141.0439  154.6210 H   0  0  0  0  0  0  0  0  0  0  0  0
  146.3327  139.4437  152.8737 H   0  0  0  0  0  0  0  0  0  0  0  0
  147.9694  139.0827  152.4052 H   0  0  0  0  0  0  0  0  0  0  0  0
  145.8599  138.9089  155.6919 H   0  0  0  0  0  0  0  0  0  0  0  0
  147.4424  139.5979  155.9673 H   0  0  0  0  0  0  0  0  0  0  0  0
  147.0929  137.9433  156.4669 H   0  0  0  0  0  0  0  0  0  0  0  0
  146.6881  136.6061  152.9180 H   0  0  0  0  0  0  0  0  0  0  0  0
  146.4282  136.1983  154.5773 H   0  0  0  0  0  0  0  0  0  0  0  0
  144.9032  138.3021  153.0792 H   0  0  0  0  0  0  0  0  0  0  0  0
  138.3200  136.4175  153.6036 H   0  0  0  0  0  0  0  0  0  0  0  0
  149.7848  139.4325  154.0066 H   0  0  0  0  0  0  0  0  0  0  0  0
  149.8205  138.9112  155.6757 H   0  0  0  0  0  0  0  0  0  0  0  0
  151.3471  137.5712  153.3766 H   0  0  0  0  0  0  0  0  0  0  0  0
  152.0384  138.6037  154.6156 H   0  0  0  0  0  0  0  0  0  0  0  0
  150.4839  135.4030  154.0449 H   0  0  0  0  0  0  0  0  0  0  0  0
  150.5353  134.9661  155.7410 H   0  0  0  0  0  0  0  0  0  0  0  0
  148.8219  136.6704  156.3047 H   0  0  0  0  0  0  0  0  0  0  0  0
  148.2557  135.5979  155.0363 H   0  0  0  0  0  0  0  0  0  0  0  0
  148.9531  137.2324  153.4493 H   0  0  0  0  0  0  0  0  0  0  0  0
  1  2  1  0  0  0  0
  1 21  1  0  0  0  0
  1 22  1  0  0  0  0
  1 23  1  0  0  0  0
  2  3  1  0  0  0  0
  2 24  1  0  0  0  0
  2 25  1  0  0  0  0
  3  4  1  0  0  0  0
  3  5  1  0  0  0  0
  3 15  1  0  0  0  0
  4 26  1  0  0  0  0
  4 27  1  0  0  0  0
  4 28  1  0  0  0  0
  5  6  1  0  0  0  0
  5 29  1  0  0  0  0
  5 30  1  0  0  0  0
  6  7  1  0  0  0  0
  6 31  1  0  0  0  0
  7  8  2  0  0  0  0
  7  9  1  0  0  0  0
  9 10  1  0  0  0  0
 10 14  1  0  0  0  0
 10 11  2  0  0  0  0
 11 12  1  0  0  0  0
 12 13  2  0  0  0  0
 13 14  1  0  0  0  0
 13 32  1  0  0  0  0
 15 20  1  0  0  0  0
 15 16  1  0  0  0  0
 15 41  1  0  0  0  0
 16 17  1  0  0  0  0
 16 33  1  0  0  0  0
 16 34  1  0  0  0  0
 17 18  1  0  0  0  0
 17 35  1  0  0  0  0
 17 36  1  0  0  0  0
 18 19  1  0  0  0  0
 19 20  1  0  0  0  0
 19 37  1  0  0  0  0
 19 38  1  0  0  0  0
 20 39  1  0  0  0  0
 20 40  1  0  0  0  0
M  CHG  1   9  -1
M  CHG  1  15   1
M  END
> <s_m_source_file>
AV-unprocessed.smi

> <i_m_source_file_index>
1412

> <i_lp_mmshare_version>
43012

> <i_f3d_flags>
0

> <s_epik_input>
W0NIMl0xW0NIMl1PW0NIMl1bQ0gyXU4xW0NAQF0oW0NIM10pKFtDSDJdW0NIM10pW0NIMl1bTkhdQyg9TylbTkhdYzJubltjSF1zMg==

> <s_epik_cmdline>
J2VwaWtfcHl0aG9uJywgJy1waCcsICc3LjAnLCAnLXRuJywgJzgnLCAnLW1hJywgJzIwMCcsICctbWV0YWxfYmluZGluZycsICctaW1hZScsICc8aW5maWxlLm1hZT4nLCAnLW9tYWUnLCAnPG91dGZpbGUubWFlPic=

> <r_lp_tautomer_probability>
1

> <r_epik_Ionization_Penalty>
4.35651

> <r_epik_Ionization_Penalty_Charging>
4.3235

> <r_epik_Ionization_Penalty_Neutral>
0.0330098

> <r_epik_State_Penalty>
4.4846

> <r_epik_Charging_Adjusted_Penalty>
8.8081

> <i_epik_Tot_Q>
0

> <i_epik_Tot_abs_Q>
2

> <r_epik_Metal_State_Penalty>
1.11611

> <b_epik_Metal_Only>
1

> <s_lp_Force_Field>
OPLS_2005

> <r_lp_Energy>
23.2339

> <b_lp_Chiralities_Consistent>
1

> <s_lp_Variant>
AV-unprocessed.smi:1412-7

> <Gold.Version>
5.8.1

> <Gold.Id.Protein>
6NUR|6NUR_protein|mol2

> <Gold.PLP.Fitness>
35.9613

> <Gold.PLP.PLP>
-26.2520

> <Gold.PLP.part.hbond>
-4.0936

> <Gold.PLP.part.metal>
0.0000

> <Gold.PLP.part.buried>
-4.2480

> <Gold.PLP.part.nonpolar>
-18.9789

> <Gold.PLP.part.repulsive>
0.5384

> <Gold.PLP.ligand.clash>
0.0000

> <Gold.PLP.ligand.torsion>
0.7729

> <Gold.PLP.Chemscore.Hbond>
3.6500

> <Gold.PLP.Chemscore.CHOScore>
0.0000

> <Gold.PLP.Chemscore.Metal>
0.0000

> <Gold.Chemscore.Hbonds>
donor molecule, donor type, donor heavy atom, donor atom, acceptor molecule, acceptor atom, score
      L1  H    15    41       P1  7948  2.00
      P1  H 10752 10764       L1    18  0.61
      P1  H 11000 11005       L1    12  0.75

> <Gold.PLP.Chemscore.Internal.Correction>
0.3051

> <Gold.Rescore>
     Score         DG    S(hbond)    S(metal)    S(lipo)     H(rot)  DE(clash)    DE(int)     intcor
     11.88     -14.68       2.24        0.00      55.70       1.88       0.27       2.53       ----

> <Gold.Chemscore.Fitness>
11.8771

> <Gold.Chemscore.DG>
-14.6757

> <Gold.Chemscore.ZeroCoef>
-5.4800

> <Gold.Chemscore.Hbond>
2.2414

> <Gold.Chemscore.Metal>
0.0000

> <Gold.Chemscore.Lipo>
55.6997

> <Gold.Chemscore.Internal_Hbond>
0.0000

> <Gold.Chemscore.DEClash>
0.2690

> <Gold.Chemscore.DEInternal>
2.5297

> <Gold.Chemscore.Rot>
1.8779

> <Gold.Chemscore.Internal.Correction>
   9.000000E+99

> <Gold.Chemscore.Hbonds>
donor molecule, donor type, donor heavy atom, donor atom, acceptor molecule, acceptor atom, score
      L1  H    15    41       P1  7948  1.00
      P1  H 10752 10764       L1    18  0.06
      P1  H 11000 11005       L1    12  0.09

> <Gold.Chemscore.Hbond.Weighted>
-7.4863

> <Gold.Chemscore.Metal.Weighted>
-0.0000

> <Gold.Chemscore.Lipo.Weighted>
-6.5169

> <Gold.Chemscore.Internal_Hbond.Weighted>
0.0000

> <Gold.Chemscore.DEClash.Weighted>
0.2690

> <Gold.Chemscore.DEInternal.Weighted>
2.5297

> <Gold.Chemscore.Rot.Weighted>
4.8074

> <Gold.Chemscore.Internal.Correction.Weighted>
   9.000000E+99

> <Gold.Protein.RotatedTorsions>
[ 6907 6896 6895 6894 ] final -157.10 input  -60.11 | X-H torsion
[ 7974 7965 7964 7962 ] final   16.90 input  175.53 | X-H torsion
[ 8008 7997 7996 7995 ] final  -40.76 input   59.86 | X-H torsion
[ 10167 10162 10161 10158 ] final  -60.88 input  -65.29 | X-H torsion
[ 10718 10713 10712 10709 ] final  -82.52 input   66.30 | X-H torsion
[ 10763 10752 10751 10750 ] final  -46.72 input  -60.55 | X-H torsion
[ 11005 11000 10999 10996 ] final   53.73 input  -57.11 | X-H torsion

> <Gold.Protein.ActiveResidues>
 VAL166  LYS551  ARG553  GLY616  TRP617  ASP618  TYR619  PRO620  LYS621  CYS622 
 ASP623  PHE694  ASN695  SER759  ASP760  ASP761  ALA762  ILE779  LEU786  VAL792 
 PHE793  MET794  SER795  GLU796  ALA797  LYS798  CYS799  TRP800  GLU811  SER814 

> <Gold.Protein.RotatedAtoms>
  151.2977  133.4136  159.2637 H   0  0  0  0  0  0  0  0  0  0  0  0  # atno 6907 bound_to 6896
  151.0222  134.9478  159.8076 H   0  0  0  0  0  0  0  0  0  0  0  0  # atno 6908 bound_to 6896
  152.5327  134.2940  159.9106 H   0  0  0  0  0  0  0  0  0  0  0  0  # atno 6909 bound_to 6896
  146.2235  139.8681  142.8592 H   0  0  0  0  0  0  0  0  0  0  0  0  # atno 7974 bound_to 7965
  154.4009  140.1517  156.3080 H   0  0  0  0  0  0  0  0  0  0  0  0  # atno 8008 bound_to 7997
  155.8641  140.3452  155.5754 H   0  0  0  0  0  0  0  0  0  0  0  0  # atno 8009 bound_to 7997
  155.7848  140.0848  157.2031 H   0  0  0  0  0  0  0  0  0  0  0  0  # atno 8010 bound_to 7997
  140.6042  143.2369  151.5859 H   0  0  0  0  0  0  0  0  0  0  0  0  # atno 10167 bound_to 10162
  156.0032  130.4637  150.4117 H   0  0  0  0  0  0  0  0  0  0  0  0  # atno 10718 bound_to 10713
  154.0496  135.6633  153.4799 H   0  0  0  0  0  0  0  0  0  0  0  0  # atno 10763 bound_to 10752
  153.0469  135.5109  154.7763 H   0  0  0  0  0  0  0  0  0  0  0  0  # atno 10764 bound_to 10752
  154.6765  135.3038  154.9637 H   0  0  0  0  0  0  0  0  0  0  0  0  # atno 10765 bound_to 10752
  140.0743  134.5426  155.9013 H   0  0  0  0  0  0  0  0  0  0  0  0  # atno 11005 bound_to 11000
  145.2636  141.0085  143.3812 LP  0  0  0  0  0  0  0  0  0  0  0  0  # atno 17320 bound_to 7965
  144.9279  139.4333  143.6509 LP  0  0  0  0  0  0  0  0  0  0  0  0  # atno 17321 bound_to 7965
  139.5313  144.2909  152.1153 LP  0  0  0  0  0  0  0  0  0  0  0  0  # atno 17342 bound_to 10162
  140.2095  144.4577  150.6392 LP  0  0  0  0  0  0  0  0  0  0  0  0  # atno 17343 bound_to 10162
  157.2179  131.0476  151.2563 LP  0  0  0  0  0  0  0  0  0  0  0  0  # atno 17370 bound_to 10713
  157.3827  130.7240  149.6642 LP  0  0  0  0  0  0  0  0  0  0  0  0  # atno 17371 bound_to 10713
  141.2024  133.6624  156.6002 LP  0  0  0  0  0  0  0  0  0  0  0  0  # atno 17394 bound_to 11000
  140.3580  134.7712  157.4514 LP  0  0  0  0  0  0  0  0  0  0  0  0  # atno 17395 bound_to 11000

$$$$
