AV-unprocessed.smi:533|AV-procd|sdf|2854|dock2
  -GOLD-   2262023343D 1   1.00000     0.00000
 Structure written by MMmdl.
 36 37  0  0  0  0  0  0  0  0  1 V2000
  151.0125  143.9973  158.7420 C   0  0  0  0  0  0  0  0  0  0  0  0
  151.6950  143.4914  157.4680 C   0  0  0  0  0  0  0  0  0  0  0  0
  150.7520  142.8436  156.5773 N   0  0  0  0  0  0  0  0  0  0  0  0
  150.7203  141.5649  156.0355 C   0  0  0  0  0  0  0  0  0  0  0  0
  151.6414  140.6244  156.2601 N   0  0  0  0  0  0  0  0  0  0  0  0
  151.1757  139.5578  155.5039 C   0  0  0  0  0  0  0  0  0  0  0  0
  150.0217  139.8793  154.8648 C   0  0  0  0  0  0  0  0  0  0  0  0
  149.3196  138.9364  153.9854 C   0  0  0  0  0  0  0  0  0  0  0  0
  148.2789  139.2075  153.3905 O   0  0  0  0  0  0  0  0  0  0  0  0
  149.9396  137.7345  153.8952 N   0  0  0  0  0  0  0  0  0  0  0  0
  151.0970  137.3451  154.5130 C   0  0  0  0  0  0  0  0  0  0  0  0
  151.5340  136.2097  154.3271 O   0  0  0  0  0  0  0  0  0  0  0  0
  151.7250  138.2582  155.3237 N   0  0  0  0  0  0  0  0  0  0  0  0
  152.9697  137.9424  156.0276 C   0  0  0  0  0  0  0  0  0  0  0  0
  149.7088  141.1937  155.2119 N   0  0  0  0  0  0  0  0  0  0  0  0
  148.5679  141.9992  154.7870 C   0  0  0  0  0  0  0  0  0  0  0  0
  147.2288  141.3556  155.1753 C   0  0  0  0  0  0  0  0  0  0  0  0
  146.1863  142.3121  155.0787 O   0  0  0  0  0  0  0  0  0  0  0  0
  146.1309  142.9319  153.8066 C   0  0  0  0  0  0  0  0  0  0  0  0
  149.4970  137.0473  153.3026 H   0  0  0  0  0  0  0  0  0  0  0  0
  151.7347  144.4785  159.4016 H   0  0  0  0  0  0  0  0  0  0  0  0
  150.5527  143.1776  159.2951 H   0  0  0  0  0  0  0  0  0  0  0  0
  150.2354  144.7268  158.5113 H   0  0  0  0  0  0  0  0  0  0  0  0
  152.1655  144.3210  156.9395 H   0  0  0  0  0  0  0  0  0  0  0  0
  152.4846  142.7834  157.7216 H   0  0  0  0  0  0  0  0  0  0  0  0
  149.9834  143.4366  156.2998 H   0  0  0  0  0  0  0  0  0  0  0  0
  153.3260  136.9242  155.8677 H   0  0  0  0  0  0  0  0  0  0  0  0
  152.8336  138.0740  157.1015 H   0  0  0  0  0  0  0  0  0  0  0  0
  153.7611  138.6194  155.7045 H   0  0  0  0  0  0  0  0  0  0  0  0
  148.6497  142.9975  155.2133 H   0  0  0  0  0  0  0  0  0  0  0  0
  148.6142  142.1392  153.7067 H   0  0  0  0  0  0  0  0  0  0  0  0
  147.0221  140.5110  154.5163 H   0  0  0  0  0  0  0  0  0  0  0  0
  147.2845  140.9680  156.1939 H   0  0  0  0  0  0  0  0  0  0  0  0
  145.3190  143.6589  153.7886 H   0  0  0  0  0  0  0  0  0  0  0  0
  145.9450  142.1997  153.0197 H   0  0  0  0  0  0  0  0  0  0  0  0
  147.0596  143.4587  153.5835 H   0  0  0  0  0  0  0  0  0  0  0  0
  1  2  1  0  0  0  0
  1 21  1  0  0  0  0
  1 22  1  0  0  0  0
  1 23  1  0  0  0  0
  2  3  1  0  0  0  0
  2 24  1  0  0  0  0
  2 25  1  0  0  0  0
  3  4  1  0  0  0  0
  3 26  1  0  0  0  0
  4 15  1  0  0  0  0
  4  5  2  0  0  0  0
  5  6  1  0  0  0  0
  6 13  1  0  0  0  0
  6  7  2  0  0  0  0
  7  8  1  0  0  0  0
  7 15  1  0  0  0  0
  8  9  2  0  0  0  0
  8 10  1  0  0  0  0
 10 20  1  0  0  0  0
 10 11  1  0  0  0  0
 11 12  2  0  0  0  0
 11 13  1  0  0  0  0
 13 14  1  0  0  0  0
 14 27  1  0  0  0  0
 14 28  1  0  0  0  0
 14 29  1  0  0  0  0
 15 16  1  0  0  0  0
 16 17  1  0  0  0  0
 16 30  1  0  0  0  0
 16 31  1  0  0  0  0
 17 18  1  0  0  0  0
 17 32  1  0  0  0  0
 17 33  1  0  0  0  0
 18 19  1  0  0  0  0
 19 34  1  0  0  0  0
 19 35  1  0  0  0  0
 19 36  1  0  0  0  0
M  END
> <s_m_source_file>
AV-unprocessed.smi

> <i_m_source_file_index>
533

> <i_lp_mmshare_version>
43012

> <i_f3d_flags>
0

> <s_epik_input>
W0NIM11bQ0gyXVtOSF1jKG4xKW4oW0NIMl1bQ0gyXU9bQ0gzXSljKGMxMiljKD1PKVtuSF1jKD1PKW4yW0NIM10=

> <s_epik_cmdline>
J2VwaWtfcHl0aG9uJywgJy1waCcsICc3LjAnLCAnLXRuJywgJzgnLCAnLW1hJywgJzIwMCcsICctbWV0YWxfYmluZGluZycsICctaW1hZScsICc8aW5maWxlLm1hZT4nLCAnLW9tYWUnLCAnPG91dGZpbGUubWFlPic=

> <r_lp_tautomer_probability>
1

> <r_epik_Ionization_Penalty>
5.47603e-05

> <r_epik_Ionization_Penalty_Charging>
3.02296e-05

> <r_epik_Ionization_Penalty_Neutral>
2.45307e-05

> <r_epik_State_Penalty>
-0

> <r_epik_Charging_Adjusted_Penalty>
3.02296e-05

> <i_epik_Tot_Q>
0

> <i_epik_Tot_abs_Q>
0

> <r_epik_Metal_State_Penalty>
0.0280858

> <b_epik_Metal_Only>
0

> <s_lp_Force_Field>
OPLS_2005

> <r_lp_Energy>
19.3222

> <b_lp_Chiralities_Consistent>
1

> <s_lp_Variant>
AV-unprocessed.smi:533-1

> <Gold.Version>
5.8.1

> <Gold.Id.Protein>
6NUR|6NUR_protein|mol2

> <Gold.PLP.Fitness>
43.5936

> <Gold.PLP.PLP>
-34.7395

> <Gold.PLP.part.hbond>
-2.9939

> <Gold.PLP.part.metal>
0.0000

> <Gold.PLP.part.buried>
-3.1550

> <Gold.PLP.part.nonpolar>
-31.0740

> <Gold.PLP.part.repulsive>
2.4550

> <Gold.PLP.ligand.clash>
0.0000

> <Gold.PLP.ligand.torsion>
0.0739

> <Gold.PLP.Chemscore.Hbond>
3.0000

> <Gold.PLP.Chemscore.CHOScore>
0.0000

> <Gold.PLP.Chemscore.Metal>
0.0000

> <Gold.Chemscore.Hbonds>
donor molecule, donor type, donor heavy atom, donor atom, acceptor molecule, acceptor atom, score
      L1  H     3    26       P1  8028  1.00
      L1  H    10    20       P1  7948  1.00
      P1  H 10752 10764       L1    12  0.94

> <Gold.PLP.Chemscore.Internal.Correction>
0.0019

> <Gold.Rescore>
     Score         DG    S(hbond)    S(metal)    S(lipo)     H(rot)  DE(clash)    DE(int)     intcor
     15.24     -15.99       2.82        0.00      50.10       1.86       0.50       0.25       ----

> <Gold.Chemscore.Fitness>
15.2415

> <Gold.Chemscore.DG>
-15.9944

> <Gold.Chemscore.ZeroCoef>
-5.4800

> <Gold.Chemscore.Hbond>
2.8214

> <Gold.Chemscore.Metal>
0.0000

> <Gold.Chemscore.Lipo>
50.0961

> <Gold.Chemscore.Internal_Hbond>
0.0000

> <Gold.Chemscore.DEClash>
0.4998

> <Gold.Chemscore.DEInternal>
0.2531

> <Gold.Chemscore.Rot>
1.8634

> <Gold.Chemscore.Internal.Correction>
   9.000000E+99

> <Gold.Chemscore.Hbonds>
donor molecule, donor type, donor heavy atom, donor atom, acceptor molecule, acceptor atom, score
      L1  H     3    26       P1  8028  1.00
      L1  H    10    20       P1  7948  0.85
      P1  H 10752 10764       L1    12  0.90

> <Gold.Chemscore.Hbond.Weighted>
-9.4233

> <Gold.Chemscore.Metal.Weighted>
-0.0000

> <Gold.Chemscore.Lipo.Weighted>
-5.8612

> <Gold.Chemscore.Internal_Hbond.Weighted>
0.0000

> <Gold.Chemscore.DEClash.Weighted>
0.4998

> <Gold.Chemscore.DEInternal.Weighted>
0.2531

> <Gold.Chemscore.Rot.Weighted>
4.7702

> <Gold.Chemscore.Internal.Correction.Weighted>
   9.000000E+99

> <Gold.Protein.RotatedTorsions>
[ 6907 6896 6895 6894 ] final   18.84 input  -60.11 | X-H torsion
[ 7974 7965 7964 7962 ] final -141.99 input  175.53 | X-H torsion
[ 8008 7997 7996 7995 ] final -157.82 input   59.86 | X-H torsion
[ 10167 10162 10161 10158 ] final   83.39 input  -65.29 | X-H torsion
[ 10718 10713 10712 10709 ] final  102.95 input   66.30 | X-H torsion
[ 10763 10752 10751 10750 ] final  -79.30 input  -60.55 | X-H torsion
[ 11005 11000 10999 10996 ] final  -27.76 input  -57.11 | X-H torsion

> <Gold.Protein.ActiveResidues>
 VAL166  LYS551  ARG553  GLY616  TRP617  ASP618  TYR619  PRO620  LYS621  CYS622 
 ASP623  PHE694  ASN695  SER759  ASP760  ASP761  ALA762  ILE779  LEU786  VAL792 
 PHE793  MET794  SER795  GLU796  ALA797  LYS798  CYS799  TRP800  GLU811  SER814 

> <Gold.Protein.RotatedAtoms>
  151.8715  135.0487  160.0479 H   0  0  0  0  0  0  0  0  0  0  0  0  # atno 6907 bound_to 6896
  152.2584  133.5271  159.5375 H   0  0  0  0  0  0  0  0  0  0  0  0  # atno 6908 bound_to 6896
  150.7108  134.0780  159.3930 H   0  0  0  0  0  0  0  0  0  0  0  0  # atno 6909 bound_to 6896
  144.8478  140.6013  143.5410 H   0  0  0  0  0  0  0  0  0  0  0  0  # atno 7974 bound_to 7965
  155.7383  140.0811  157.2257 H   0  0  0  0  0  0  0  0  0  0  0  0  # atno 8008 bound_to 7997
  154.4025  140.1582  156.2642 H   0  0  0  0  0  0  0  0  0  0  0  0  # atno 8009 bound_to 7997
  155.9045  140.3408  155.6054 H   0  0  0  0  0  0  0  0  0  0  0  0  # atno 8010 bound_to 7997
  139.9189  144.6225  150.8461 H   0  0  0  0  0  0  0  0  0  0  0  0  # atno 10167 bound_to 10162
  157.6787  131.0766  150.5482 H   0  0  0  0  0  0  0  0  0  0  0  0  # atno 10718 bound_to 10713
  154.5369  135.5700  153.6806 H   0  0  0  0  0  0  0  0  0  0  0  0  # atno 10763 bound_to 10752
  152.9953  135.6218  154.2554 H   0  0  0  0  0  0  0  0  0  0  0  0  # atno 10764 bound_to 10752
  154.2483  135.2860  155.2806 H   0  0  0  0  0  0  0  0  0  0  0  0  # atno 10765 bound_to 10752
  140.9148  133.7437  156.0720 H   0  0  0  0  0  0  0  0  0  0  0  0  # atno 11005 bound_to 11000
  145.4562  139.1518  143.3891 LP  0  0  0  0  0  0  0  0  0  0  0  0  # atno 17320 bound_to 7965
  146.2759  140.4690  142.8796 LP  0  0  0  0  0  0  0  0  0  0  0  0  # atno 17321 bound_to 7965
  140.7667  143.3311  151.2407 LP  0  0  0  0  0  0  0  0  0  0  0  0  # atno 17342 bound_to 10162
  139.6879  143.9742  152.2844 LP  0  0  0  0  0  0  0  0  0  0  0  0  # atno 17343 bound_to 10162
  156.5787  130.4299  149.5987 LP  0  0  0  0  0  0  0  0  0  0  0  0  # atno 17370 bound_to 10713
  156.2679  130.7000  151.1789 LP  0  0  0  0  0  0  0  0  0  0  0  0  # atno 17371 bound_to 10713
  140.8063  134.3450  157.5425 LP  0  0  0  0  0  0  0  0  0  0  0  0  # atno 17394 bound_to 11000
  139.8764  134.9228  156.3308 LP  0  0  0  0  0  0  0  0  0  0  0  0  # atno 17395 bound_to 11000

$$$$
