AV-unprocessed.smi:332|AV-procd|sdf|2356|dock7
  -GOLD-   2262022263D 1   1.00000     0.00000
 Structure written by MMmdl.
 42 44  0  0  0  0  0  0  0  0  1 V2000
  148.7684  141.3592  155.3260 C   0  0  0  0  0  0  0  0  0  0  0  0
  149.9481  140.7086  156.0682 C   0  0  2  0  0  0  0  0  0  0  0  0
  150.6465  141.7069  156.8702 N   0  0  0  0  0  0  0  0  0  0  0  0
  151.4583  141.4604  157.9118 C   0  0  0  0  0  0  0  0  0  0  0  0
  151.6327  140.3330  158.3722 O   0  0  0  0  0  0  0  0  0  0  0  0
  152.2156  142.6502  158.5268 C   0  0  0  0  0  0  0  0  0  0  0  0
  152.7962  142.3852  159.8566 N   0  0  0  0  0  0  0  0  0  0  0  0
  152.4184  143.2475  160.9051 C   0  0  0  0  0  0  0  0  0  0  0  0
  152.9013  143.1058  162.1495 C   0  0  0  0  0  0  0  0  0  0  0  0
  153.8332  142.0324  162.4024 C   0  0  0  0  0  0  0  0  0  0  0  0
  154.2050  141.2046  161.4058 C   0  0  0  0  0  0  0  0  0  0  0  0
  153.6833  141.3583  160.0430 C   0  0  0  0  0  0  0  0  0  0  0  0
  154.0301  140.6171  159.1231 O   0  0  0  0  0  0  0  0  0  0  0  0
  150.9520  140.0466  155.0956 C   0  0  2  0  0  0  0  0  0  0  0  0
  150.3364  138.9932  154.1480 C   0  0  0  0  0  0  0  0  0  0  0  0
  151.2718  137.7822  154.3237 C   0  0  2  0  0  0  0  0  0  0  0  0
  151.0061  137.1348  155.6957 C   0  0  0  0  0  0  0  0  0  0  0  0
  151.6266  138.1482  156.6744 C   0  0  0  0  0  0  0  0  0  0  0  0
  152.1281  139.2641  155.7356 C   0  0  1  0  0  0  0  0  0  0  0  0
  152.6245  138.4495  154.5461 C   0  0  0  0  0  0  0  0  0  0  0  0
  148.2207  140.6250  154.7349 H   0  0  0  0  0  0  0  0  0  0  0  0
  149.1082  142.1438  154.6491 H   0  0  0  0  0  0  0  0  0  0  0  0
  148.0601  141.8058  156.0242 H   0  0  0  0  0  0  0  0  0  0  0  0
  149.5471  139.9425  156.7338 H   0  0  0  0  0  0  0  0  0  0  0  0
  150.5581  142.6658  156.5662 H   0  0  0  0  0  0  0  0  0  0  0  0
  152.9952  142.9507  157.8257 H   0  0  0  0  0  0  0  0  0  0  0  0
  151.5385  143.5047  158.5780 H   0  0  0  0  0  0  0  0  0  0  0  0
  151.7239  144.0286  160.6310 H   0  0  0  0  0  0  0  0  0  0  0  0
  152.6039  143.7796  162.9395 H   0  0  0  0  0  0  0  0  0  0  0  0
  154.2346  141.8926  163.3952 H   0  0  0  0  0  0  0  0  0  0  0  0
  154.9047  140.4080  161.6131 H   0  0  0  0  0  0  0  0  0  0  0  0
  151.3912  140.8373  154.4841 H   0  0  0  0  0  0  0  0  0  0  0  0
  149.3038  138.7447  154.3964 H   0  0  0  0  0  0  0  0  0  0  0  0
  150.3506  139.3523  153.1182 H   0  0  0  0  0  0  0  0  0  0  0  0
  151.2350  137.0768  153.4933 H   0  0  0  0  0  0  0  0  0  0  0  0
  149.9428  136.9765  155.8801 H   0  0  0  0  0  0  0  0  0  0  0  0
  151.5063  136.1689  155.7757 H   0  0  0  0  0  0  0  0  0  0  0  0
  150.9206  138.4988  157.4265 H   0  0  0  0  0  0  0  0  0  0  0  0
  152.4649  137.6958  157.2058 H   0  0  0  0  0  0  0  0  0  0  0  0
  152.8861  139.9044  156.1878 H   0  0  0  0  0  0  0  0  0  0  0  0
  153.4184  137.7460  154.8029 H   0  0  0  0  0  0  0  0  0  0  0  0
  152.9493  139.0628  153.7036 H   0  0  0  0  0  0  0  0  0  0  0  0
  1  2  1  0  0  0  0
  1 21  1  0  0  0  0
  1 22  1  0  0  0  0
  1 23  1  0  0  0  0
  2  3  1  0  0  0  0
  2 14  1  0  0  0  0
  2 24  1  0  0  0  0
  3  4  1  0  0  0  0
  3 25  1  0  0  0  0
  4  5  2  0  0  0  0
  4  6  1  0  0  0  0
  6  7  1  0  0  0  0
  6 26  1  0  0  0  0
  6 27  1  0  0  0  0
  7 12  1  0  0  0  0
  7  8  1  0  0  0  0
  8  9  2  0  0  0  0
  8 28  1  0  0  0  0
  9 10  1  0  0  0  0
  9 29  1  0  0  0  0
 10 11  2  0  0  0  0
 10 30  1  0  0  0  0
 11 12  1  0  0  0  0
 11 31  1  0  0  0  0
 12 13  2  0  0  0  0
 14 19  1  0  0  0  0
 14 15  1  0  0  0  0
 14 32  1  0  0  0  0
 15 16  1  0  0  0  0
 15 33  1  0  0  0  0
 15 34  1  0  0  0  0
 16 20  1  0  0  0  0
 16 17  1  0  0  0  0
 16 35  1  0  0  0  0
 17 18  1  0  0  0  0
 17 36  1  0  0  0  0
 17 37  1  0  0  0  0
 18 19  1  0  0  0  0
 18 38  1  0  0  0  0
 18 39  1  0  0  0  0
 19 20  1  0  0  0  0
 19 40  1  0  0  0  0
 20 41  1  0  0  0  0
 20 42  1  0  0  0  0
M  END
> <s_m_source_file>
AV-unprocessed.smi

> <i_m_source_file_index>
332

> <i_lp_mmshare_version>
43012

> <i_f3d_flags>
0

> <s_epik_input>
W0NIMl0xW0NIMl1bQ0BIXShbQ0gyXTIpW0NAQEhdKFtDSDJdW0NAQEhdMTIpW0NASF0oW0NIM10pW05IXUMoPU8pW0NIMl1uM1tjSF1bY0hdW2NIXVtjSF1jMz1P

> <s_epik_cmdline>
J2VwaWtfcHl0aG9uJywgJy1waCcsICc3LjAnLCAnLXRuJywgJzgnLCAnLW1hJywgJzIwMCcsICctbWV0YWxfYmluZGluZycsICctaW1hZScsICc8aW5maWxlLm1hZT4nLCAnLW9tYWUnLCAnPG91dGZpbGUubWFlPic=

> <r_lp_tautomer_probability>
1

> <r_epik_Ionization_Penalty>
4.05802e-07

> <r_epik_Ionization_Penalty_Charging>
3.84175e-07

> <r_epik_Ionization_Penalty_Neutral>
2.16269e-08

> <r_epik_State_Penalty>
-0

> <r_epik_Charging_Adjusted_Penalty>
3.84175e-07

> <i_epik_Tot_Q>
0

> <i_epik_Tot_abs_Q>
0

> <r_epik_Metal_State_Penalty>
-0

> <b_epik_Metal_Only>
0

> <s_lp_Force_Field>
OPLS_2005

> <r_lp_Energy>
59.3935

> <b_lp_Chiralities_Consistent>
1

> <s_lp_Variant>
AV-unprocessed.smi:332-5

> <Gold.Version>
5.8.1

> <Gold.Id.Protein>
6NUR|6NUR_protein|mol2

> <Gold.PLP.Fitness>
48.3387

> <Gold.PLP.PLP>
-48.1309

> <Gold.PLP.part.hbond>
-0.9823

> <Gold.PLP.part.metal>
0.0000

> <Gold.PLP.part.buried>
-1.8178

> <Gold.PLP.part.nonpolar>
-44.9414

> <Gold.PLP.part.repulsive>
0.0494

> <Gold.PLP.ligand.clash>
0.0000

> <Gold.PLP.ligand.torsion>
0.4793

> <Gold.PLP.Chemscore.Hbond>
0.3827

> <Gold.PLP.Chemscore.CHOScore>
0.0000

> <Gold.PLP.Chemscore.Metal>
0.0000

> <Gold.Chemscore.Hbonds>
donor molecule, donor type, donor heavy atom, donor atom, acceptor molecule, acceptor atom, score
      P1  H  7997  8009       L1    13  0.55

> <Gold.PLP.Chemscore.Internal.Correction>
0.0182

> <Gold.Rescore>
     Score         DG    S(hbond)    S(metal)    S(lipo)     H(rot)  DE(clash)    DE(int)     intcor
      8.12     -16.19       0.31        0.00     116.37       1.54       1.09       6.98       ----

> <Gold.Chemscore.Fitness>
8.1191

> <Gold.Chemscore.DG>
-16.1931

> <Gold.Chemscore.ZeroCoef>
-5.4800

> <Gold.Chemscore.Hbond>
0.3113

> <Gold.Chemscore.Metal>
0.0000

> <Gold.Chemscore.Lipo>
116.3682

> <Gold.Chemscore.Internal_Hbond>
0.0000

> <Gold.Chemscore.DEClash>
1.0920

> <Gold.Chemscore.DEInternal>
6.9820

> <Gold.Chemscore.Rot>
1.5398

> <Gold.Chemscore.Internal.Correction>
   9.000000E+99

> <Gold.Chemscore.Hbonds>
donor molecule, donor type, donor heavy atom, donor atom, acceptor molecule, acceptor atom, score
      P1  H  7997  8009       L1    13  0.54

> <Gold.Chemscore.Hbond.Weighted>
-1.0398

> <Gold.Chemscore.Metal.Weighted>
-0.0000

> <Gold.Chemscore.Lipo.Weighted>
-13.6151

> <Gold.Chemscore.Internal_Hbond.Weighted>
0.0000

> <Gold.Chemscore.DEClash.Weighted>
1.0920

> <Gold.Chemscore.DEInternal.Weighted>
6.9820

> <Gold.Chemscore.Rot.Weighted>
3.9419

> <Gold.Chemscore.Internal.Correction.Weighted>
   9.000000E+99

> <Gold.Protein.RotatedTorsions>
[ 6907 6896 6895 6894 ] final   40.31 input  -60.11 | X-H torsion
[ 7974 7965 7964 7962 ] final  -57.71 input  175.53 | X-H torsion
[ 8008 7997 7996 7995 ] final  133.26 input   59.86 | X-H torsion
[ 10167 10162 10161 10158 ] final   27.13 input  -65.29 | X-H torsion
[ 10718 10713 10712 10709 ] final   36.06 input   66.30 | X-H torsion
[ 10763 10752 10751 10750 ] final   -6.51 input  -60.55 | X-H torsion
[ 11005 11000 10999 10996 ] final   90.57 input  -57.11 | X-H torsion

> <Gold.Protein.ActiveResidues>
 VAL166  LYS551  ARG553  GLY616  TRP617  ASP618  TYR619  PRO620  LYS621  CYS622 
 ASP623  PHE694  ASN695  SER759  ASP760  ASP761  ALA762  ILE779  LEU786  VAL792 
 PHE793  MET794  SER795  GLU796  ALA797  LYS798  CYS799  TRP800  GLU811  SER814 

> <Gold.Protein.RotatedAtoms>
  152.1809  134.8755  160.0526 H   0  0  0  0  0  0  0  0  0  0  0  0  # atno 6907 bound_to 6896
  151.9680  133.3711  159.4068 H   0  0  0  0  0  0  0  0  0  0  0  0  # atno 6908 bound_to 6896
  150.6917  134.4094  159.5198 H   0  0  0  0  0  0  0  0  0  0  0  0  # atno 6909 bound_to 6896
  145.8479  140.8372  143.0001 H   0  0  0  0  0  0  0  0  0  0  0  0  # atno 7974 bound_to 7965
  156.2990  140.2526  156.3224 H   0  0  0  0  0  0  0  0  0  0  0  0  # atno 8008 bound_to 7997
  154.9223  140.0400  157.2023 H   0  0  0  0  0  0  0  0  0  0  0  0  # atno 8009 bound_to 7997
  154.8299  140.2874  155.5733 H   0  0  0  0  0  0  0  0  0  0  0  0  # atno 8010 bound_to 7997
  140.4965  144.0384  150.6316 H   0  0  0  0  0  0  0  0  0  0  0  0  # atno 10167 bound_to 10162
  157.3303  130.7494  149.6843 H   0  0  0  0  0  0  0  0  0  0  0  0  # atno 10718 bound_to 10713
  153.4134  135.7008  153.6343 H   0  0  0  0  0  0  0  0  0  0  0  0  # atno 10763 bound_to 10752
  153.4828  135.3690  155.2451 H   0  0  0  0  0  0  0  0  0  0  0  0  # atno 10764 bound_to 10752
  154.8718  135.4070  154.3490 H   0  0  0  0  0  0  0  0  0  0  0  0  # atno 10765 bound_to 10752
  139.8854  134.8621  156.3303 H   0  0  0  0  0  0  0  0  0  0  0  0  # atno 11005 bound_to 11000
  144.6730  140.0909  143.7465 LP  0  0  0  0  0  0  0  0  0  0  0  0  # atno 17320 bound_to 7965
  145.9391  139.2657  143.1279 LP  0  0  0  0  0  0  0  0  0  0  0  0  # atno 17321 bound_to 7965
  140.3668  143.2877  152.0323 LP  0  0  0  0  0  0  0  0  0  0  0  0  # atno 17342 bound_to 10162
  139.4862  144.6261  151.7162 LP  0  0  0  0  0  0  0  0  0  0  0  0  # atno 17343 bound_to 10162
  155.9695  130.4197  150.4388 LP  0  0  0  0  0  0  0  0  0  0  0  0  # atno 17370 bound_to 10713
  157.2419  131.0527  151.2431 LP  0  0  0  0  0  0  0  0  0  0  0  0  # atno 17371 bound_to 10713
  140.9727  133.7317  156.0558 LP  0  0  0  0  0  0  0  0  0  0  0  0  # atno 17394 bound_to 11000
  140.7850  134.3682  157.5478 LP  0  0  0  0  0  0  0  0  0  0  0  0  # atno 17395 bound_to 11000

$$$$
