AV-unprocessed.smi:3284|AV-procd|sdf|12574|dock9
  -GOLD-   2272018493D 1   1.00000     0.00000
 Structure written by MMmdl.
 44 45  0  0  0  0  0  0  0  0  2 V2000
  154.4723  141.0217  160.1715 C   0  0  0  0  0  0  0  0  0  0  0  0
  153.5013  142.1228  160.5648 C   0  0  0  0  0  0  0  0  0  0  0  0
  153.2604  142.3666  161.8671 C   0  0  0  0  0  0  0  0  0  0  0  0
  152.3757  143.4806  162.3758 C   0  0  0  0  0  0  0  0  0  0  0  0
  152.2102  144.5747  161.3189 C   0  0  0  0  0  0  0  0  0  0  0  0
  151.8093  143.9839  159.9575 C   0  0  1  0  0  0  0  0  0  0  0  0
  151.5676  145.1287  158.9546 C   0  0  0  0  0  0  0  0  0  0  0  0
  152.8434  142.9396  159.4334 C   0  0  2  0  0  0  0  0  0  0  0  0
  152.1879  142.0433  158.3491 C   0  0  0  0  0  0  0  0  0  0  0  0
  151.0735  141.2266  158.8721 N   0  3  0  0  0  0  0  0  0  0  0  0
  150.6513  140.1365  157.9721 C   0  0  0  0  0  0  0  0  0  0  0  0
  150.7650  140.5606  156.5026 C   0  0  0  0  0  0  0  0  0  0  0  0
  151.4847  139.5447  155.6716 C   0  0  0  0  0  0  0  0  0  0  0  0
  152.7709  139.2482  155.8276 N   0  0  0  0  0  0  0  0  0  0  0  0
  153.0238  138.2569  154.8855 C   0  0  0  0  0  0  0  0  0  0  0  0
  151.8694  137.9811  154.1936 C   0  0  0  0  0  0  0  0  0  0  0  0
  150.8855  138.8117  154.7132 N   0  0  0  0  0  0  0  0  0  0  0  0
  149.4995  138.8577  154.2898 C   0  0  0  0  0  0  0  0  0  0  0  0
  155.2139  141.3985  159.4668 H   0  0  0  0  0  0  0  0  0  0  0  0
  153.9459  140.1813  159.7197 H   0  0  0  0  0  0  0  0  0  0  0  0
  155.0089  140.6381  161.0401 H   0  0  0  0  0  0  0  0  0  0  0  0
  153.7258  141.7539  162.6256 H   0  0  0  0  0  0  0  0  0  0  0  0
  151.4094  143.0607  162.6565 H   0  0  0  0  0  0  0  0  0  0  0  0
  152.8167  143.9044  163.2784 H   0  0  0  0  0  0  0  0  0  0  0  0
  151.4646  145.2944  161.6589 H   0  0  0  0  0  0  0  0  0  0  0  0
  153.1462  145.1260  161.2163 H   0  0  0  0  0  0  0  0  0  0  0  0
  150.8582  143.4697  160.1073 H   0  0  0  0  0  0  0  0  0  0  0  0
  152.4885  145.6759  158.7509 H   0  0  0  0  0  0  0  0  0  0  0  0
  150.8434  145.8433  159.3468 H   0  0  0  0  0  0  0  0  0  0  0  0
  151.1762  144.7739  158.0026 H   0  0  0  0  0  0  0  0  0  0  0  0
  153.6577  143.4984  158.9692 H   0  0  0  0  0  0  0  0  0  0  0  0
  151.8333  142.6647  157.5254 H   0  0  0  0  0  0  0  0  0  0  0  0
  152.9113  141.3520  157.9198 H   0  0  0  0  0  0  0  0  0  0  0  0
  151.3531  140.8289  159.7573 H   0  0  0  0  0  0  0  0  0  0  0  0
  151.2745  139.2599  158.1546 H   0  0  0  0  0  0  0  0  0  0  0  0
  149.6228  139.8560  158.2023 H   0  0  0  0  0  0  0  0  0  0  0  0
  149.7764  140.7457  156.0818 H   0  0  0  0  0  0  0  0  0  0  0  0
  151.3060  141.5051  156.4319 H   0  0  0  0  0  0  0  0  0  0  0  0
  154.0068  137.8220  154.7803 H   0  0  0  0  0  0  0  0  0  0  0  0
  151.6728  137.2783  153.3971 H   0  0  0  0  0  0  0  0  0  0  0  0
  149.3028  138.0714  153.5603 H   0  0  0  0  0  0  0  0  0  0  0  0
  149.2859  139.8238  153.8323 H   0  0  0  0  0  0  0  0  0  0  0  0
  148.8443  138.7122  155.1486 H   0  0  0  0  0  0  0  0  0  0  0  0
  150.2819  141.8349  159.0267 H   0  0  0  0  0  0  0  0  0  0  0  0
  1  2  1  0  0  0  0
  1 19  1  0  0  0  0
  1 20  1  0  0  0  0
  1 21  1  0  0  0  0
  2  8  1  0  0  0  0
  2  3  2  0  0  0  0
  3  4  1  0  0  0  0
  3 22  1  0  0  0  0
  4  5  1  0  0  0  0
  4 23  1  0  0  0  0
  4 24  1  0  0  0  0
  5  6  1  0  0  0  0
  5 25  1  0  0  0  0
  5 26  1  0  0  0  0
  6  7  1  0  0  0  0
  6  8  1  0  0  0  0
  6 27  1  0  0  0  0
  7 28  1  0  0  0  0
  7 29  1  0  0  0  0
  7 30  1  0  0  0  0
  8  9  1  0  0  0  0
  8 31  1  0  0  0  0
  9 10  1  0  0  0  0
  9 32  1  0  0  0  0
  9 33  1  0  0  0  0
 10 11  1  0  0  0  0
 10 34  1  0  0  0  0
 10 44  1  0  0  0  0
 11 12  1  0  0  0  0
 11 35  1  0  0  0  0
 11 36  1  0  0  0  0
 12 13  1  0  0  0  0
 12 37  1  0  0  0  0
 12 38  1  0  0  0  0
 13 17  1  0  0  0  0
 13 14  2  0  0  0  0
 14 15  1  0  0  0  0
 15 16  2  0  0  0  0
 15 39  1  0  0  0  0
 16 17  1  0  0  0  0
 16 40  1  0  0  0  0
 17 18  1  0  0  0  0
 18 41  1  0  0  0  0
 18 42  1  0  0  0  0
 18 43  1  0  0  0  0
M  CHG  1  10   1
M  END
> <s_m_source_file>
AV-unprocessed.smi

> <i_m_source_file_index>
3284

> <i_lp_mmshare_version>
43012

> <i_f3d_flags>
0

> <s_epik_input>
W0NIM11DMT1bQ0hdW0NIMl1bQ0gyXVtDQEBIXShbQ0gzXSlbQ0BIXTFbQ0gyXVtOSF1bQ0gyXVtDSDJdYzJuW2NIXVtjSF1uMltDSDNd

> <s_epik_cmdline>
J2VwaWtfcHl0aG9uJywgJy1waCcsICc3LjAnLCAnLXRuJywgJzgnLCAnLW1hJywgJzIwMCcsICctbWV0YWxfYmluZGluZycsICctaW1hZScsICc8aW5maWxlLm1hZT4nLCAnLW9tYWUnLCAnPG91dGZpbGUubWFlPic=

> <r_lp_tautomer_probability>
1

> <r_epik_Ionization_Penalty>
0.150779

> <r_epik_Ionization_Penalty_Charging>
0.150779

> <r_epik_Ionization_Penalty_Neutral>
1.39452e-13

> <r_epik_State_Penalty>
0.349447

> <r_epik_Charging_Adjusted_Penalty>
0.500226

> <i_epik_Tot_Q>
1

> <i_epik_Tot_abs_Q>
1

> <r_epik_Metal_State_Penalty>
0.000470967

> <b_epik_Metal_Only>
0

> <s_lp_Force_Field>
OPLS_2005

> <r_lp_Energy>
12.7203

> <b_lp_Chiralities_Consistent>
1

> <s_lp_Variant>
AV-unprocessed.smi:3284-3

> <Gold.Version>
5.8.1

> <Gold.Id.Protein>
6NUR|6NUR_protein|mol2

> <Gold.PLP.Fitness>
54.0094

> <Gold.PLP.PLP>
-49.1476

> <Gold.PLP.part.hbond>
-1.0000

> <Gold.PLP.part.metal>
0.0000

> <Gold.PLP.part.buried>
-4.6471

> <Gold.PLP.part.nonpolar>
-44.1693

> <Gold.PLP.part.repulsive>
0.1723

> <Gold.PLP.ligand.clash>
0.0000

> <Gold.PLP.ligand.torsion>
0.5860

> <Gold.PLP.Chemscore.Hbond>
1.0000

> <Gold.PLP.Chemscore.CHOScore>
1.0000

> <Gold.PLP.Chemscore.Metal>
0.0000

> <Gold.Chemscore.Hbonds>
donor molecule, donor type, donor heavy atom, donor atom, acceptor molecule, acceptor atom, score
      P1  H  7997  8008       L1    14  1.00
      L1  C    16    40       P1  7949  1.00

> <Gold.PLP.Chemscore.Internal.Correction>
0.0339

> <Gold.Rescore>
     Score         DG    S(hbond)    S(metal)    S(lipo)     H(rot)  DE(clash)    DE(int)     intcor
     19.70     -20.78       0.95        0.00     138.98       1.61       0.56       0.52       ----

> <Gold.Chemscore.Fitness>
19.7017

> <Gold.Chemscore.DG>
-20.7783

> <Gold.Chemscore.ZeroCoef>
-5.4800

> <Gold.Chemscore.Hbond>
0.9464

> <Gold.Chemscore.Metal>
0.0000

> <Gold.Chemscore.Lipo>
138.9772

> <Gold.Chemscore.Internal_Hbond>
0.0000

> <Gold.Chemscore.DEClash>
0.5567

> <Gold.Chemscore.DEInternal>
0.5200

> <Gold.Chemscore.Rot>
1.6105

> <Gold.Chemscore.Internal.Correction>
   9.000000E+99

> <Gold.Chemscore.Hbonds>
donor molecule, donor type, donor heavy atom, donor atom, acceptor molecule, acceptor atom, score
      P1  H  7997  8008       L1    14  0.82

> <Gold.Chemscore.Hbond.Weighted>
-3.1610

> <Gold.Chemscore.Metal.Weighted>
-0.0000

> <Gold.Chemscore.Lipo.Weighted>
-16.2603

> <Gold.Chemscore.Internal_Hbond.Weighted>
0.0000

> <Gold.Chemscore.DEClash.Weighted>
0.5567

> <Gold.Chemscore.DEInternal.Weighted>
0.5200

> <Gold.Chemscore.Rot.Weighted>
4.1230

> <Gold.Chemscore.Internal.Correction.Weighted>
   9.000000E+99

> <Gold.Protein.RotatedTorsions>
[ 6907 6896 6895 6894 ] final  -46.99 input  -60.11 | X-H torsion
[ 7974 7965 7964 7962 ] final  145.53 input  175.53 | X-H torsion
[ 8008 7997 7996 7995 ] final  -45.88 input   59.86 | X-H torsion
[ 10167 10162 10161 10158 ] final -132.03 input  -65.29 | X-H torsion
[ 10718 10713 10712 10709 ] final -106.85 input   66.30 | X-H torsion
[ 10763 10752 10751 10750 ] final  158.03 input  -60.55 | X-H torsion
[ 11005 11000 10999 10996 ] final   35.16 input  -57.11 | X-H torsion

> <Gold.Protein.ActiveResidues>
 VAL166  LYS551  ARG553  GLY616  TRP617  ASP618  TYR619  PRO620  LYS621  CYS622 
 ASP623  PHE694  ASN695  SER759  ASP760  ASP761  ALA762  ILE779  LEU786  VAL792 
 PHE793  MET794  SER795  GLU796  ALA797  LYS798  CYS799  TRP800  GLU811  SER814 

> <Gold.Protein.RotatedAtoms>
  150.9055  134.8469  159.7389 H   0  0  0  0  0  0  0  0  0  0  0  0  # atno 6907 bound_to 6896
  152.4916  134.4438  159.9562 H   0  0  0  0  0  0  0  0  0  0  0  0  # atno 6908 bound_to 6896
  151.4486  133.3584  159.2827 H   0  0  0  0  0  0  0  0  0  0  0  0  # atno 6909 bound_to 6896
  144.8745  139.5794  143.5871 H   0  0  0  0  0  0  0  0  0  0  0  0  # atno 7974 bound_to 7965
  154.4003  140.1385  156.3920 H   0  0  0  0  0  0  0  0  0  0  0  0  # atno 8008 bound_to 7997
  155.7905  140.3479  155.5326 H   0  0  0  0  0  0  0  0  0  0  0  0  # atno 8009 bound_to 7997
  155.8584  140.0952  157.1620 H   0  0  0  0  0  0  0  0  0  0  0  0  # atno 8010 bound_to 7997
  139.9128  143.6474  152.2571 H   0  0  0  0  0  0  0  0  0  0  0  0  # atno 10167 bound_to 10162
  156.0409  130.5633  150.7739 H   0  0  0  0  0  0  0  0  0  0  0  0  # atno 10718 bound_to 10713
  154.2096  135.2786  155.2963 H   0  0  0  0  0  0  0  0  0  0  0  0  # atno 10763 bound_to 10752
  154.5789  135.5595  153.7170 H   0  0  0  0  0  0  0  0  0  0  0  0  # atno 10764 bound_to 10752
  153.0067  135.6340  154.2235 H   0  0  0  0  0  0  0  0  0  0  0  0  # atno 10765 bound_to 10752
  140.2455  134.3364  155.7909 H   0  0  0  0  0  0  0  0  0  0  0  0  # atno 11005 bound_to 11000
  146.2953  139.7259  142.9131 LP  0  0  0  0  0  0  0  0  0  0  0  0  # atno 17320 bound_to 7965
  145.4069  141.0392  143.3039 LP  0  0  0  0  0  0  0  0  0  0  0  0  # atno 17321 bound_to 7965
  139.6928  144.7645  151.1409 LP  0  0  0  0  0  0  0  0  0  0  0  0  # atno 17342 bound_to 10162
  140.7681  143.5565  150.9146 LP  0  0  0  0  0  0  0  0  0  0  0  0  # atno 17343 bound_to 10162
  157.5225  131.0932  151.0060 LP  0  0  0  0  0  0  0  0  0  0  0  0  # atno 17370 bound_to 10713
  157.0387  130.5740  149.5353 LP  0  0  0  0  0  0  0  0  0  0  0  0  # atno 17371 bound_to 10713
  141.2206  133.7323  156.8954 LP  0  0  0  0  0  0  0  0  0  0  0  0  # atno 17394 bound_to 11000
  140.1610  134.9165  157.2714 LP  0  0  0  0  0  0  0  0  0  0  0  0  # atno 17395 bound_to 11000

$$$$
