AV-unprocessed.smi:1697|AV-procd|sdf|6805|dock10
  -GOLD-   22720 7573D 1   1.00000     0.00000
 Structure written by MMmdl.
 54 56  0  0  0  0  0  0  0  0  2 V2000
  146.3785  136.4728  158.1400 C   0  0  0  0  0  0  0  0  0  0  0  0
  145.2686  136.8386  157.1450 C   0  0  0  0  0  0  0  0  0  0  0  0
  145.7878  137.1275  155.8530 O   0  0  0  0  0  0  0  0  0  0  0  0
  144.8582  137.6939  154.9347 C   0  0  2  0  0  0  0  0  0  0  0  0
  145.5630  137.9003  153.5856 C   0  0  0  0  0  0  0  0  0  0  0  0
  146.6622  138.9735  153.6742 C   0  0  0  0  0  0  0  0  0  0  0  0
  146.1214  140.2581  154.1885 N   0  3  2  0  0  0  0  0  0  0  0  0
  147.1292  141.3486  154.1468 C   0  0  0  0  0  0  0  0  0  0  0  0
  148.1182  141.2959  155.3330 C   0  0  2  0  0  0  0  0  0  0  0  0
  147.6437  142.1542  156.3523 O   0  0  0  0  0  0  0  0  0  0  0  0
  149.5575  141.7078  154.9513 C   0  0  0  0  0  0  0  0  0  0  0  0
  150.5683  141.2240  155.8780 N   0  0  0  0  0  0  0  0  0  0  0  0
  151.2713  140.0782  155.7874 C   0  0  0  0  0  0  0  0  0  0  0  0
  152.1434  139.8198  156.7571 N   0  0  0  0  0  0  0  0  0  0  0  0
  151.9959  140.9313  157.5685 C   0  0  0  0  0  0  0  0  0  0  0  0
  152.6361  141.2734  158.7794 C   0  0  0  0  0  0  0  0  0  0  0  0
  152.3210  142.4758  159.4513 C   0  0  0  0  0  0  0  0  0  0  0  0
  153.0287  142.7999  160.7551 C   0  0  0  0  0  0  0  0  0  0  0  0
  151.3565  143.3618  158.9075 C   0  0  0  0  0  0  0  0  0  0  0  0
  151.0045  144.6616  159.6094 C   0  0  0  0  0  0  0  0  0  0  0  0
  150.7081  143.0357  157.6982 C   0  0  0  0  0  0  0  0  0  0  0  0
  151.0243  141.8324  157.0430 C   0  0  0  0  0  0  0  0  0  0  0  0
  145.4936  140.0861  155.5254 C   0  0  0  0  0  0  0  0  0  0  0  0
  144.3628  139.0440  155.4777 C   0  0  0  0  0  0  0  0  0  0  0  0
  145.9541  136.1889  159.1032 H   0  0  0  0  0  0  0  0  0  0  0  0
  147.0562  137.3082  158.3150 H   0  0  0  0  0  0  0  0  0  0  0  0
  146.9684  135.6314  157.7759 H   0  0  0  0  0  0  0  0  0  0  0  0
  144.5900  135.9914  157.0453 H   0  0  0  0  0  0  0  0  0  0  0  0
  144.6686  137.6719  157.5136 H   0  0  0  0  0  0  0  0  0  0  0  0
  144.0032  137.0329  154.7814 H   0  0  0  0  0  0  0  0  0  0  0  0
  145.9874  136.9576  153.2380 H   0  0  0  0  0  0  0  0  0  0  0  0
  144.8286  138.1996  152.8366 H   0  0  0  0  0  0  0  0  0  0  0  0
  147.4730  138.6340  154.3209 H   0  0  0  0  0  0  0  0  0  0  0  0
  147.0908  139.1233  152.6824 H   0  0  0  0  0  0  0  0  0  0  0  0
  147.6659  141.3038  153.1981 H   0  0  0  0  0  0  0  0  0  0  0  0
  146.6173  142.3119  154.1615 H   0  0  0  0  0  0  0  0  0  0  0  0
  148.1640  140.2890  155.7459 H   0  0  0  0  0  0  0  0  0  0  0  0
  147.8939  143.0411  156.1408 H   0  0  0  0  0  0  0  0  0  0  0  0
  149.8029  141.3444  153.9523 H   0  0  0  0  0  0  0  0  0  0  0  0
  149.6298  142.7950  154.9040 H   0  0  0  0  0  0  0  0  0  0  0  0
  151.1283  139.3904  154.9666 H   0  0  0  0  0  0  0  0  0  0  0  0
  153.3734  140.5998  159.1912 H   0  0  0  0  0  0  0  0  0  0  0  0
  153.6295  143.7032  160.6479 H   0  0  0  0  0  0  0  0  0  0  0  0
  153.6922  141.9903  161.0601 H   0  0  0  0  0  0  0  0  0  0  0  0
  152.3052  142.9570  161.5554 H   0  0  0  0  0  0  0  0  0  0  0  0
  150.3110  145.2586  159.0168 H   0  0  0  0  0  0  0  0  0  0  0  0
  151.8989  145.2613  159.7788 H   0  0  0  0  0  0  0  0  0  0  0  0
  150.5359  144.4588  160.5725 H   0  0  0  0  0  0  0  0  0  0  0  0
  149.9710  143.7021  157.2755 H   0  0  0  0  0  0  0  0  0  0  0  0
  146.2526  139.7840  156.2488 H   0  0  0  0  0  0  0  0  0  0  0  0
  145.0840  141.0308  155.8803 H   0  0  0  0  0  0  0  0  0  0  0  0
  143.5587  139.4157  154.8412 H   0  0  0  0  0  0  0  0  0  0  0  0
  143.9320  138.9167  156.4710 H   0  0  0  0  0  0  0  0  0  0  0  0
  145.3891  140.5307  153.5480 H   0  0  0  0  0  0  0  0  0  0  0  0
  1  2  1  0  0  0  0
  1 25  1  0  0  0  0
  1 26  1  0  0  0  0
  1 27  1  0  0  0  0
  2  3  1  0  0  0  0
  2 28  1  0  0  0  0
  2 29  1  0  0  0  0
  3  4  1  0  0  0  0
  4 24  1  0  0  0  0
  4  5  1  0  0  0  0
  4 30  1  0  0  0  0
  5  6  1  0  0  0  0
  5 31  1  0  0  0  0
  5 32  1  0  0  0  0
  6  7  1  0  0  0  0
  6 33  1  0  0  0  0
  6 34  1  0  0  0  0
  7  8  1  0  0  0  0
  7 23  1  0  0  0  0
  7 54  1  0  0  0  0
  8  9  1  0  0  0  0
  8 35  1  0  0  0  0
  8 36  1  0  0  0  0
  9 10  1  0  0  0  0
  9 11  1  0  0  0  0
  9 37  1  0  0  0  0
 10 38  1  0  0  0  0
 11 12  1  0  0  0  0
 11 39  1  0  0  0  0
 11 40  1  0  0  0  0
 12 22  1  0  0  0  0
 12 13  1  0  0  0  0
 13 14  2  0  0  0  0
 13 41  1  0  0  0  0
 14 15  1  0  0  0  0
 15 22  2  0  0  0  0
 15 16  1  0  0  0  0
 16 17  2  0  0  0  0
 16 42  1  0  0  0  0
 17 18  1  0  0  0  0
 17 19  1  0  0  0  0
 18 43  1  0  0  0  0
 18 44  1  0  0  0  0
 18 45  1  0  0  0  0
 19 20  1  0  0  0  0
 19 21  2  0  0  0  0
 20 46  1  0  0  0  0
 20 47  1  0  0  0  0
 20 48  1  0  0  0  0
 21 22  1  0  0  0  0
 21 49  1  0  0  0  0
 23 24  1  0  0  0  0
 23 50  1  0  0  0  0
 23 51  1  0  0  0  0
 24 52  1  0  0  0  0
 24 53  1  0  0  0  0
M  CHG  1   7   1
M  END
> <s_m_source_file>
AV-unprocessed.smi

> <i_m_source_file_index>
1697

> <i_lp_mmshare_version>
43012

> <i_f3d_flags>
0

> <s_epik_input>
W0NIM11bQ0gyXU9bQ0hdMVtDSDJdW0NIMl1OKFtDSDJdW0NIMl0xKVtDSDJdW0NASF0oW09IXSlbQ0gyXW4oW2NIXW4yKWMoYzIzKVtjSF1jKFtDSDNdKWMoW2NIXTMpW0NIM10=

> <s_epik_cmdline>
J2VwaWtfcHl0aG9uJywgJy1waCcsICc3LjAnLCAnLXRuJywgJzgnLCAnLW1hJywgJzIwMCcsICctbWV0YWxfYmluZGluZycsICctaW1hZScsICc8aW5maWxlLm1hZT4nLCAnLW9tYWUnLCAnPG91dGZpbGUubWFlPic=

> <r_epik_Ionization_Penalty>
0.112476

> <r_epik_Ionization_Penalty_Charging>
0.0244612

> <r_epik_Ionization_Penalty_Neutral>
0.0880147

> <r_epik_State_Penalty>
0.0961447

> <r_epik_Charging_Adjusted_Penalty>
0.120606

> <i_epik_Tot_Q>
1

> <i_epik_Tot_abs_Q>
1

> <r_epik_Metal_State_Penalty>
0.0206204

> <b_epik_Metal_Only>
0

> <s_lp_Force_Field>
OPLS_2005

> <r_lp_Energy>
22.8908

> <b_lp_Chiralities_Consistent>
1

> <s_lp_Variant>
AV-unprocessed.smi:1697-3

> <Gold.Version>
5.8.1

> <Gold.Id.Protein>
6NUR|6NUR_protein|mol2

> <Gold.PLP.Fitness>
46.3135

> <Gold.PLP.PLP>
-37.8512

> <Gold.PLP.part.hbond>
-2.5980

> <Gold.PLP.part.metal>
0.0000

> <Gold.PLP.part.buried>
-2.5521

> <Gold.PLP.part.nonpolar>
-33.0408

> <Gold.PLP.part.repulsive>
0.0000

> <Gold.PLP.ligand.clash>
0.0000

> <Gold.PLP.ligand.torsion>
1.2069

> <Gold.PLP.Chemscore.Hbond>
3.5850

> <Gold.PLP.Chemscore.CHOScore>
0.0000

> <Gold.PLP.Chemscore.Metal>
0.0000

> <Gold.Chemscore.Hbonds>
donor molecule, donor type, donor heavy atom, donor atom, acceptor molecule, acceptor atom, score
      L1  H     7    54       P1 10175  2.00
      L1  H    10    38       P1  8028  1.00
      P1  H  7997  8008       L1    14  0.35

> <Gold.PLP.Chemscore.Internal.Correction>
0.1210

> <Gold.Rescore>
     Score         DG    S(hbond)    S(metal)    S(lipo)     H(rot)  DE(clash)    DE(int)     intcor
     16.92     -18.48       1.74        0.00     111.26       2.27       0.31       1.26       ----

> <Gold.Chemscore.Fitness>
16.9237

> <Gold.Chemscore.DG>
-18.4838

> <Gold.Chemscore.ZeroCoef>
-5.4800

> <Gold.Chemscore.Hbond>
1.7365

> <Gold.Chemscore.Metal>
0.0000

> <Gold.Chemscore.Lipo>
111.2619

> <Gold.Chemscore.Internal_Hbond>
0.0000

> <Gold.Chemscore.DEClash>
0.3050

> <Gold.Chemscore.DEInternal>
1.2551

> <Gold.Chemscore.Rot>
2.2710

> <Gold.Chemscore.Internal.Correction>
   9.000000E+99

> <Gold.Chemscore.Hbonds>
donor molecule, donor type, donor heavy atom, donor atom, acceptor molecule, acceptor atom, score
      L1  H     7    54       P1 10175  0.93
      L1  H    10    38       P1  8028  0.34
      P1  H  7997  8008       L1    14  0.05

> <Gold.Chemscore.Hbond.Weighted>
-5.7999

> <Gold.Chemscore.Metal.Weighted>
-0.0000

> <Gold.Chemscore.Lipo.Weighted>
-13.0176

> <Gold.Chemscore.Internal_Hbond.Weighted>
0.0000

> <Gold.Chemscore.DEClash.Weighted>
0.3050

> <Gold.Chemscore.DEInternal.Weighted>
1.2551

> <Gold.Chemscore.Rot.Weighted>
5.8137

> <Gold.Chemscore.Internal.Correction.Weighted>
   9.000000E+99

> <Gold.Protein.RotatedTorsions>
[ 6907 6896 6895 6894 ] final  122.17 input  -60.11 | X-H torsion
[ 7974 7965 7964 7962 ] final -112.71 input  175.53 | X-H torsion
[ 8008 7997 7996 7995 ] final  -40.83 input   59.86 | X-H torsion
[ 10167 10162 10161 10158 ] final   93.49 input  -65.29 | X-H torsion
[ 10718 10713 10712 10709 ] final   -3.80 input   66.30 | X-H torsion
[ 10763 10752 10751 10750 ] final  148.01 input  -60.55 | X-H torsion
[ 11005 11000 10999 10996 ] final  179.33 input  -57.11 | X-H torsion

> <Gold.Protein.ActiveResidues>
 VAL166  LYS551  ARG553  GLY616  TRP617  ASP618  TYR619  PRO620  LYS621  CYS622 
 ASP623  PHE694  ASN695  SER759  ASP760  ASP761  ALA762  ILE779  LEU786  VAL792 
 PHE793  MET794  SER795  GLU796  ALA797  LYS798  CYS799  TRP800  GLU811  SER814 

> <Gold.Protein.RotatedAtoms>
  152.4264  133.7202  159.6528 H   0  0  0  0  0  0  0  0  0  0  0  0  # atno 6907 bound_to 6896
  150.8140  133.8359  159.3175 H   0  0  0  0  0  0  0  0  0  0  0  0  # atno 6908 bound_to 6896
  151.6060  135.1046  160.0122 H   0  0  0  0  0  0  0  0  0  0  0  0  # atno 6909 bound_to 6896
  145.1407  140.8776  143.3704 H   0  0  0  0  0  0  0  0  0  0  0  0  # atno 7974 bound_to 7965
  154.4009  140.1515  156.3092 H   0  0  0  0  0  0  0  0  0  0  0  0  # atno 8008 bound_to 7997
  155.8631  140.3452  155.5748 H   0  0  0  0  0  0  0  0  0  0  0  0  # atno 8009 bound_to 7997
  155.7858  140.0850  157.2026 H   0  0  0  0  0  0  0  0  0  0  0  0  # atno 8010 bound_to 7997
  139.8174  144.6746  150.9562 H   0  0  0  0  0  0  0  0  0  0  0  0  # atno 10167 bound_to 10162
  156.7707  130.5299  149.5768 H   0  0  0  0  0  0  0  0  0  0  0  0  # atno 10718 bound_to 10713
  154.0478  135.2884  155.3345 H   0  0  0  0  0  0  0  0  0  0  0  0  # atno 10763 bound_to 10752
  154.6888  135.5234  153.8367 H   0  0  0  0  0  0  0  0  0  0  0  0  # atno 10764 bound_to 10752
  153.0573  135.6600  154.0677 H   0  0  0  0  0  0  0  0  0  0  0  0  # atno 10765 bound_to 10752
  140.4050  134.6743  157.4583 H   0  0  0  0  0  0  0  0  0  0  0  0  # atno 11005 bound_to 11000
  145.0535  139.3162  143.5916 LP  0  0  0  0  0  0  0  0  0  0  0  0  # atno 17320 bound_to 7965
  146.3505  139.9952  142.8681 LP  0  0  0  0  0  0  0  0  0  0  0  0  # atno 17321 bound_to 7965
  140.7815  143.4125  151.0970 LP  0  0  0  0  0  0  0  0  0  0  0  0  # atno 17342 bound_to 10162
  139.7787  143.8387  152.3134 LP  0  0  0  0  0  0  0  0  0  0  0  0  # atno 17343 bound_to 10162
  156.1280  130.6157  151.0292 LP  0  0  0  0  0  0  0  0  0  0  0  0  # atno 17370 bound_to 10713
  157.6692  131.0865  150.7653 LP  0  0  0  0  0  0  0  0  0  0  0  0  # atno 17371 bound_to 10713
  140.0308  134.6408  155.9109 LP  0  0  0  0  0  0  0  0  0  0  0  0  # atno 17394 bound_to 11000
  141.1842  133.6552  156.5149 LP  0  0  0  0  0  0  0  0  0  0  0  0  # atno 17395 bound_to 11000

$$$$
