AV-unprocessed.smi:1295|AV-procd|sdf|5412|dock6
  -GOLD-   22720 4573D 1   1.00000     0.00000
 Structure written by MMmdl.
 42 43  0  0  0  0  0  0  0  0  2 V2000
  146.4619  138.3651  152.1923 C   0  0  0  0  0  0  0  0  0  0  0  0
  147.2682  139.3738  152.9818 C   0  0  0  0  0  0  0  0  0  0  0  0
  146.7759  140.5327  153.2028 N   0  0  0  0  0  0  0  0  0  0  0  0
  147.5233  141.4737  153.9314 C   0  0  0  0  0  0  0  0  0  0  0  0
  146.8607  142.8235  154.1473 C   0  0  0  0  0  0  0  0  0  0  0  0
  148.7664  141.1733  154.4056 C   0  0  0  0  0  0  0  0  0  0  0  0
  149.6172  142.1623  155.2015 C   0  0  0  0  0  0  0  0  0  0  0  0
  150.0470  141.6949  156.5936 C   0  0  0  0  0  0  0  0  0  0  0  0
  149.5979  140.6500  157.0645 O   0  0  0  0  0  0  0  0  0  0  0  0
  150.9230  142.4824  157.2369 N   0  0  0  0  0  0  0  0  0  0  0  0
  151.5097  142.2223  158.5505 C   0  0  1  0  0  0  0  0  0  0  0  0
  152.2273  140.8590  158.5040 C   0  0  0  0  0  0  0  0  0  0  0  0
  152.9322  140.5392  159.8299 C   0  0  0  0  0  0  0  0  0  0  0  0
  153.9088  141.6578  160.2161 C   0  0  0  0  0  0  0  0  0  0  0  0
  153.1907  143.0133  160.2862 C   0  0  0  0  0  0  0  0  0  0  0  0
  152.4811  143.3594  158.9614 C   0  0  2  0  0  0  0  0  0  0  0  0
  151.7850  144.7281  159.0688 C   0  0  0  0  0  0  0  0  0  0  0  0
  149.2980  139.8270  154.1274 C   0  0  0  0  0  0  0  0  0  0  0  0
  150.4183  139.5067  154.5228 O   0  0  0  0  0  0  0  0  0  0  0  0
  148.5077  138.9682  153.4223 N   0  5  0  0  0  0  0  0  0  0  0  0
  145.5934  138.8334  151.7274 H   0  0  0  0  0  0  0  0  0  0  0  0
  146.1129  137.5673  152.8482 H   0  0  0  0  0  0  0  0  0  0  0  0
  147.0723  137.9232  151.4038 H   0  0  0  0  0  0  0  0  0  0  0  0
  146.7103  143.0105  155.2106 H   0  0  0  0  0  0  0  0  0  0  0  0
  145.8865  142.8675  153.6587 H   0  0  0  0  0  0  0  0  0  0  0  0
  147.4759  143.6241  153.7361 H   0  0  0  0  0  0  0  0  0  0  0  0
  150.5073  142.3917  154.6148 H   0  0  0  0  0  0  0  0  0  0  0  0
  149.1056  143.1190  155.3085 H   0  0  0  0  0  0  0  0  0  0  0  0
  151.2270  143.3225  156.7667 H   0  0  0  0  0  0  0  0  0  0  0  0
  150.7237  142.1547  159.3051 H   0  0  0  0  0  0  0  0  0  0  0  0
  151.5110  140.0696  158.2719 H   0  0  0  0  0  0  0  0  0  0  0  0
  152.9620  140.8547  157.6973 H   0  0  0  0  0  0  0  0  0  0  0  0
  152.1897  140.4115  160.6187 H   0  0  0  0  0  0  0  0  0  0  0  0
  153.4650  139.5915  159.7486 H   0  0  0  0  0  0  0  0  0  0  0  0
  154.3714  141.4318  161.1774 H   0  0  0  0  0  0  0  0  0  0  0  0
  154.7183  141.7079  159.4867 H   0  0  0  0  0  0  0  0  0  0  0  0
  152.4630  142.9953  161.0988 H   0  0  0  0  0  0  0  0  0  0  0  0
  153.9119  143.7919  160.5372 H   0  0  0  0  0  0  0  0  0  0  0  0
  153.2486  143.4434  158.1902 H   0  0  0  0  0  0  0  0  0  0  0  0
  150.9695  144.7004  159.7922 H   0  0  0  0  0  0  0  0  0  0  0  0
  151.3703  145.0465  158.1123 H   0  0  0  0  0  0  0  0  0  0  0  0
  152.4856  145.5004  159.3874 H   0  0  0  0  0  0  0  0  0  0  0  0
  1  2  1  0  0  0  0
  1 21  1  0  0  0  0
  1 22  1  0  0  0  0
  1 23  1  0  0  0  0
  2 20  1  0  0  0  0
  2  3  2  0  0  0  0
  3  4  1  0  0  0  0
  4  5  1  0  0  0  0
  4  6  2  0  0  0  0
  5 24  1  0  0  0  0
  5 25  1  0  0  0  0
  5 26  1  0  0  0  0
  6  7  1  0  0  0  0
  6 18  1  0  0  0  0
  7  8  1  0  0  0  0
  7 27  1  0  0  0  0
  7 28  1  0  0  0  0
  8  9  2  0  0  0  0
  8 10  1  0  0  0  0
 10 11  1  0  0  0  0
 10 29  1  0  0  0  0
 11 16  1  0  0  0  0
 11 12  1  0  0  0  0
 11 30  1  0  0  0  0
 12 13  1  0  0  0  0
 12 31  1  0  0  0  0
 12 32  1  0  0  0  0
 13 14  1  0  0  0  0
 13 33  1  0  0  0  0
 13 34  1  0  0  0  0
 14 15  1  0  0  0  0
 14 35  1  0  0  0  0
 14 36  1  0  0  0  0
 15 16  1  0  0  0  0
 15 37  1  0  0  0  0
 15 38  1  0  0  0  0
 16 17  1  0  0  0  0
 16 39  1  0  0  0  0
 17 40  1  0  0  0  0
 17 41  1  0  0  0  0
 17 42  1  0  0  0  0
 18 19  2  0  0  0  0
 18 20  1  0  0  0  0
M  CHG  1  20  -1
M  END
> <s_m_source_file>
AV-unprocessed.smi

> <i_m_source_file_index>
1295

> <i_lp_mmshare_version>
43012

> <i_f3d_flags>
0

> <s_epik_input>
W0NIM11jMW5jKFtDSDNdKWMoYyg9TylbbkhdMSlbQ0gyXUMoPU8pW05IXVtDQEBIXTJbQ0gyXVtDSDJdW0NIMl1bQ0gyXVtDQEhdMltDSDNd

> <s_epik_cmdline>
J2VwaWtfcHl0aG9uJywgJy1waCcsICc3LjAnLCAnLXRuJywgJzgnLCAnLW1hJywgJzIwMCcsICctbWV0YWxfYmluZGluZycsICctaW1hZScsICc8aW5maWxlLm1hZT4nLCAnLW9tYWUnLCAnPG91dGZpbGUubWFlPic=

> <r_lp_tautomer_probability>
0.839158

> <r_epik_Ionization_Penalty>
6.67742

> <r_epik_Ionization_Penalty_Charging>
7.78154e-08

> <r_epik_Ionization_Penalty_Neutral>
6.67742

> <r_epik_State_Penalty>
4.51991

> <r_epik_Charging_Adjusted_Penalty>
4.51991

> <i_epik_Tot_Q>
-1

> <i_epik_Tot_abs_Q>
1

> <r_epik_Metal_State_Penalty>
0.853272

> <b_epik_Metal_Only>
1

> <s_lp_Force_Field>
OPLS_2005

> <r_lp_Energy>
15.3241

> <b_lp_Chiralities_Consistent>
1

> <s_lp_Variant>
AV-unprocessed.smi:1295-12

> <Gold.Version>
5.8.1

> <Gold.Id.Protein>
6NUR|6NUR_protein|mol2

> <Gold.PLP.Fitness>
42.8828

> <Gold.PLP.PLP>
-40.0083

> <Gold.PLP.part.hbond>
-1.0000

> <Gold.PLP.part.metal>
0.0000

> <Gold.PLP.part.buried>
0.9105

> <Gold.PLP.part.nonpolar>
-42.8609

> <Gold.PLP.part.repulsive>
3.3493

> <Gold.PLP.ligand.clash>
0.0000

> <Gold.PLP.ligand.torsion>
0.0652

> <Gold.PLP.Chemscore.Hbond>
1.0000

> <Gold.PLP.Chemscore.CHOScore>
0.0000

> <Gold.PLP.Chemscore.Metal>
0.0000

> <Gold.Chemscore.Hbonds>
donor molecule, donor type, donor heavy atom, donor atom, acceptor molecule, acceptor atom, score
      P1  H  7989  7998       L1    19  0.84

> <Gold.PLP.Chemscore.Internal.Correction>
0.0050

> <Gold.Rescore>
     Score         DG    S(hbond)    S(metal)    S(lipo)     H(rot)  DE(clash)    DE(int)     intcor
     14.37     -17.39       0.97        0.00     105.72       1.45       1.94       1.07       ----

> <Gold.Chemscore.Fitness>
14.3736

> <Gold.Chemscore.DG>
-17.3868

> <Gold.Chemscore.ZeroCoef>
-5.4800

> <Gold.Chemscore.Hbond>
0.9690

> <Gold.Chemscore.Metal>
0.0000

> <Gold.Chemscore.Lipo>
105.7239

> <Gold.Chemscore.Internal_Hbond>
0.0000

> <Gold.Chemscore.DEClash>
1.9386

> <Gold.Chemscore.DEInternal>
1.0747

> <Gold.Chemscore.Rot>
1.4450

> <Gold.Chemscore.Internal.Correction>
   9.000000E+99

> <Gold.Chemscore.Hbonds>
donor molecule, donor type, donor heavy atom, donor atom, acceptor molecule, acceptor atom, score
      P1  H  7989  7998       L1    19  0.25

> <Gold.Chemscore.Hbond.Weighted>
-3.2364

> <Gold.Chemscore.Metal.Weighted>
-0.0000

> <Gold.Chemscore.Lipo.Weighted>
-12.3697

> <Gold.Chemscore.Internal_Hbond.Weighted>
0.0000

> <Gold.Chemscore.DEClash.Weighted>
1.9386

> <Gold.Chemscore.DEInternal.Weighted>
1.0747

> <Gold.Chemscore.Rot.Weighted>
3.6992

> <Gold.Chemscore.Internal.Correction.Weighted>
   9.000000E+99

> <Gold.Protein.RotatedTorsions>
[ 6907 6896 6895 6894 ] final  108.82 input  -60.11 | X-H torsion
[ 7974 7965 7964 7962 ] final   86.76 input  175.53 | X-H torsion
[ 8008 7997 7996 7995 ] final  -58.80 input   59.86 | X-H torsion
[ 10167 10162 10161 10158 ] final  -91.69 input  -65.29 | X-H torsion
[ 10718 10713 10712 10709 ] final   12.19 input   66.30 | X-H torsion
[ 10763 10752 10751 10750 ] final   27.66 input  -60.55 | X-H torsion
[ 11005 11000 10999 10996 ] final  -26.86 input  -57.11 | X-H torsion

> <Gold.Protein.ActiveResidues>
 VAL166  LYS551  ARG553  GLY616  TRP617  ASP618  TYR619  PRO620  LYS621  CYS622 
 ASP623  PHE694  ASN695  SER759  ASP760  ASP761  ALA762  ILE779  LEU786  VAL792 
 PHE793  MET794  SER795  GLU796  ALA797  LYS798  CYS799  TRP800  GLU811  SER814 

> <Gold.Protein.RotatedAtoms>
  152.5095  133.9034  159.7451 H   0  0  0  0  0  0  0  0  0  0  0  0  # atno 6907 bound_to 6896
  150.9444  133.6611  159.2791 H   0  0  0  0  0  0  0  0  0  0  0  0  # atno 6908 bound_to 6896
  151.3911  135.0961  159.9579 H   0  0  0  0  0  0  0  0  0  0  0  0  # atno 6909 bound_to 6896
  145.5680  139.2310  143.2422 H   0  0  0  0  0  0  0  0  0  0  0  0  # atno 7974 bound_to 7965
  154.4324  140.1076  156.6014 H   0  0  0  0  0  0  0  0  0  0  0  0  # atno 8008 bound_to 7997
  155.5907  140.3492  155.4547 H   0  0  0  0  0  0  0  0  0  0  0  0  # atno 8009 bound_to 7997
  156.0249  140.1248  157.0308 H   0  0  0  0  0  0  0  0  0  0  0  0  # atno 8010 bound_to 7997
  140.3423  143.2935  151.9821 H   0  0  0  0  0  0  0  0  0  0  0  0  # atno 10167 bound_to 10162
  157.0065  130.6100  149.5703 H   0  0  0  0  0  0  0  0  0  0  0  0  # atno 10718 bound_to 10713
  153.0541  135.6532  154.0619 H   0  0  0  0  0  0  0  0  0  0  0  0  # atno 10763 bound_to 10752
  154.0301  135.2912  155.3371 H   0  0  0  0  0  0  0  0  0  0  0  0  # atno 10764 bound_to 10752
  154.6847  135.5306  153.8377 H   0  0  0  0  0  0  0  0  0  0  0  0  # atno 10765 bound_to 10752
  140.9067  133.7487  156.0616 H   0  0  0  0  0  0  0  0  0  0  0  0  # atno 11005 bound_to 11000
  146.1804  140.6506  142.9192 LP  0  0  0  0  0  0  0  0  0  0  0  0  # atno 17320 bound_to 7965
  144.7451  140.5047  143.6841 LP  0  0  0  0  0  0  0  0  0  0  0  0  # atno 17321 bound_to 7965
  139.4838  144.6146  151.7370 LP  0  0  0  0  0  0  0  0  0  0  0  0  # atno 17342 bound_to 10162
  140.5297  144.0749  150.6049 LP  0  0  0  0  0  0  0  0  0  0  0  0  # atno 17343 bound_to 10162
  156.0151  130.5245  150.8111 LP  0  0  0  0  0  0  0  0  0  0  0  0  # atno 17370 bound_to 10713
  157.5352  131.0938  150.9902 LP  0  0  0  0  0  0  0  0  0  0  0  0  # atno 17371 bound_to 10713
  140.8161  134.3343  157.5396 LP  0  0  0  0  0  0  0  0  0  0  0  0  # atno 17394 bound_to 11000
  139.8750  134.9282  156.3445 LP  0  0  0  0  0  0  0  0  0  0  0  0  # atno 17395 bound_to 11000

$$$$
