AV-unprocessed.smi:3|AV-procd|sdf|27|dock5
  -GOLD-   2262015143D 1   1.00000     0.00000
 Structure written by MMmdl.
 33 35  0  0  0  0  0  0  0  0  1 V2000
  152.5005  139.7329  158.5647 C   0  0  0  0  0  0  0  0  0  0  0  0
  151.7000  140.7828  157.9511 N   0  0  0  0  0  0  0  0  0  0  0  0
  150.7204  140.3878  156.9363 C   0  0  0  0  0  0  0  0  0  0  0  0
  151.3768  139.7603  155.7068 C   0  0  1  0  0  0  0  0  0  0  0  0
  152.2120  138.4782  155.8442 C   0  0  0  0  0  0  0  0  0  0  0  0
  151.6850  138.0313  154.4771 C   0  0  1  0  0  0  0  0  0  0  0  0
  151.3850  136.6629  154.3165 O   0  0  0  0  0  0  0  0  0  0  0  0
  150.5068  138.9836  154.7086 C   0  0  0  0  0  0  0  0  0  0  0  0
  151.6668  142.0758  158.5311 C   0  0  0  0  0  0  0  0  0  0  0  0
  151.0598  143.0657  157.8249 N   0  0  0  0  0  0  0  0  0  0  0  0
  150.9901  144.3059  158.3127 C   0  0  0  0  0  0  0  0  0  0  0  0
  151.4593  144.7719  159.4697 N   0  0  0  0  0  0  0  0  0  0  0  0
  152.0774  143.7899  160.1825 C   0  0  0  0  0  0  0  0  0  0  0  0
  152.6772  143.9267  161.4162 N   0  0  0  0  0  0  0  0  0  0  0  0
  153.2040  142.7185  161.8298 C   0  0  0  0  0  0  0  0  0  0  0  0
  152.9549  141.7723  160.8693 C   0  0  0  0  0  0  0  0  0  0  0  0
  152.2322  142.4228  159.7999 C   0  0  0  0  0  0  0  0  0  0  0  0
  151.9521  140.5008  155.1471 H   0  0  0  0  0  0  0  0  0  0  0  0
  152.3265  138.3715  153.6622 H   0  0  0  0  0  0  0  0  0  0  0  0
  152.7380  144.7763  161.9586 H   0  0  0  0  0  0  0  0  0  0  0  0
  153.5628  139.9499  158.4545 H   0  0  0  0  0  0  0  0  0  0  0  0
  152.3127  138.7699  158.0893 H   0  0  0  0  0  0  0  0  0  0  0  0
  152.2588  139.6286  159.6225 H   0  0  0  0  0  0  0  0  0  0  0  0
  149.9582  139.7277  157.3505 H   0  0  0  0  0  0  0  0  0  0  0  0
  150.1754  141.2839  156.6378 H   0  0  0  0  0  0  0  0  0  0  0  0
  153.2884  138.6466  155.8879 H   0  0  0  0  0  0  0  0  0  0  0  0
  151.8756  137.8318  156.6566 H   0  0  0  0  0  0  0  0  0  0  0  0
  150.8702  136.5835  153.5280 H   0  0  0  0  0  0  0  0  0  0  0  0
  149.6510  138.4953  155.1784 H   0  0  0  0  0  0  0  0  0  0  0  0
  150.2063  139.5576  153.8315 H   0  0  0  0  0  0  0  0  0  0  0  0
  150.4869  145.0272  157.6859 H   0  0  0  0  0  0  0  0  0  0  0  0
  153.7159  142.6292  162.7769 H   0  0  0  0  0  0  0  0  0  0  0  0
  153.2501  140.7359  160.9168 H   0  0  0  0  0  0  0  0  0  0  0  0
  1  2  1  0  0  0  0
  1 21  1  0  0  0  0
  1 22  1  0  0  0  0
  1 23  1  0  0  0  0
  2  3  1  0  0  0  0
  2  9  1  0  0  0  0
  3  4  1  0  0  0  0
  3 24  1  0  0  0  0
  3 25  1  0  0  0  0
  4 18  1  0  0  0  0
  4  8  1  0  0  0  0
  4  5  1  0  0  0  0
  5  6  1  0  0  0  0
  5 26  1  0  0  0  0
  5 27  1  0  0  0  0
  6 19  1  0  0  0  0
  6  7  1  0  0  0  0
  6  8  1  0  0  0  0
  7 28  1  0  0  0  0
  8 29  1  0  0  0  0
  8 30  1  0  0  0  0
  9 17  1  0  0  0  0
  9 10  2  0  0  0  0
 10 11  1  0  0  0  0
 11 12  2  0  0  0  0
 11 31  1  0  0  0  0
 12 13  1  0  0  0  0
 13 17  2  0  0  0  0
 13 14  1  0  0  0  0
 14 20  1  0  0  0  0
 14 15  1  0  0  0  0
 15 16  2  0  0  0  0
 15 32  1  0  0  0  0
 16 17  1  0  0  0  0
 16 33  1  0  0  0  0
M  END
> <s_m_source_file>
AV-unprocessed.smi

> <i_m_source_file_index>
3

> <i_lp_mmshare_version>
43012

> <i_f3d_flags>
0

> <s_epik_input>
W25IXTFbY0hdW2NIXWMoYzEyKWMobltjSF1uMilOKFtDSDNdKVtDSDJdW0NASF0zW0NIMl1bQ0BASF0oW09IXSlbQ0gyXTM=

> <s_epik_cmdline>
J2VwaWtfcHl0aG9uJywgJy1waCcsICc3LjAnLCAnLXRuJywgJzgnLCAnLW1hJywgJzIwMCcsICctbWV0YWxfYmluZGluZycsICctaW1hZScsICc8aW5maWxlLm1hZT4nLCAnLW9tYWUnLCAnPG91dGZpbGUubWFlPic=

> <r_lp_tautomer_probability>
0.999998

> <r_epik_Ionization_Penalty>
0.0134605

> <r_epik_Ionization_Penalty_Charging>
0

> <r_epik_Ionization_Penalty_Neutral>
0.0134605

> <r_epik_State_Penalty>
0.00982199

> <r_epik_Charging_Adjusted_Penalty>
0.00982199

> <i_epik_Tot_Q>
0

> <i_epik_Tot_abs_Q>
0

> <r_epik_Metal_State_Penalty>
0.00963912

> <b_epik_Metal_Only>
0

> <s_lp_Force_Field>
OPLS_2005

> <r_lp_Energy>
10.8509

> <b_lp_Chiralities_Consistent>
1

> <s_lp_Variant>
AV-unprocessed.smi:3-1

> <Gold.Version>
5.8.1

> <Gold.Id.Protein>
6NUR|6NUR_protein|mol2

> <Gold.PLP.Fitness>
48.3707

> <Gold.PLP.PLP>
-39.9395

> <Gold.PLP.part.hbond>
-2.0000

> <Gold.PLP.part.metal>
0.0000

> <Gold.PLP.part.buried>
-5.1918

> <Gold.PLP.part.nonpolar>
-33.3150

> <Gold.PLP.part.repulsive>
0.2582

> <Gold.PLP.ligand.clash>
0.0000

> <Gold.PLP.ligand.torsion>
0.2438

> <Gold.PLP.Chemscore.Hbond>
2.0000

> <Gold.PLP.Chemscore.CHOScore>
0.9057

> <Gold.PLP.Chemscore.Metal>
0.0000

> <Gold.Chemscore.Hbonds>
donor molecule, donor type, donor heavy atom, donor atom, acceptor molecule, acceptor atom, score
      L1  H     7    28       P1  7949  0.47
      P1  H 10752 10765       L1     7  0.93
      L1  C    11    31       P1  8028  0.72
      L1  C    11    31       P1  8029  0.13

> <Gold.PLP.Chemscore.Internal.Correction>
0.2019

> <Gold.Rescore>
     Score         DG    S(hbond)    S(metal)    S(lipo)     H(rot)  DE(clash)    DE(int)     intcor
     14.45     -14.76       1.55        0.00      75.34       1.84       0.12       0.19       ----

> <Gold.Chemscore.Fitness>
14.4492

> <Gold.Chemscore.DG>
-14.7650

> <Gold.Chemscore.ZeroCoef>
-5.4800

> <Gold.Chemscore.Hbond>
1.5507

> <Gold.Chemscore.Metal>
0.0000

> <Gold.Chemscore.Lipo>
75.3425

> <Gold.Chemscore.Internal_Hbond>
0.0000

> <Gold.Chemscore.DEClash>
0.1234

> <Gold.Chemscore.DEInternal>
0.1923

> <Gold.Chemscore.Rot>
1.8396

> <Gold.Chemscore.Internal.Correction>
   9.000000E+99

> <Gold.Chemscore.Hbonds>
donor molecule, donor type, donor heavy atom, donor atom, acceptor molecule, acceptor atom, score
      L1  H     7    28       P1  7949  0.08
      P1  H 10752 10765       L1     7  0.32

> <Gold.Chemscore.Hbond.Weighted>
-5.1793

> <Gold.Chemscore.Metal.Weighted>
-0.0000

> <Gold.Chemscore.Lipo.Weighted>
-8.8151

> <Gold.Chemscore.Internal_Hbond.Weighted>
0.0000

> <Gold.Chemscore.DEClash.Weighted>
0.1234

> <Gold.Chemscore.DEInternal.Weighted>
0.1923

> <Gold.Chemscore.Rot.Weighted>
4.7095

> <Gold.Chemscore.Internal.Correction.Weighted>
   9.000000E+99

> <Gold.Protein.RotatedTorsions>
[ 6907 6896 6895 6894 ] final   53.41 input  -60.11 | X-H torsion
[ 7974 7965 7964 7962 ] final    3.77 input  175.53 | X-H torsion
[ 8008 7997 7996 7995 ] final   25.47 input   59.86 | X-H torsion
[ 10167 10162 10161 10158 ] final   95.34 input  -65.29 | X-H torsion
[ 10718 10713 10712 10709 ] final  138.56 input   66.30 | X-H torsion
[ 10763 10752 10751 10750 ] final  140.03 input  -60.55 | X-H torsion
[ 11005 11000 10999 10996 ] final  -77.43 input  -57.11 | X-H torsion

> <Gold.Protein.ActiveResidues>
 VAL166  LYS551  ARG553  GLY616  TRP617  ASP618  TYR619  PRO620  LYS621  CYS622 
 ASP623  PHE694  ASN695  SER759  ASP760  ASP761  ALA762  ILE779  LEU786  VAL792 
 PHE793  MET794  SER795  GLU796  ALA797  LYS798  CYS799  TRP800  GLU811  SER814 

> <Gold.Protein.RotatedAtoms>
  152.3334  134.7230  160.0283 H   0  0  0  0  0  0  0  0  0  0  0  0  # atno 6907 bound_to 6896
  151.7639  133.3330  159.3433 H   0  0  0  0  0  0  0  0  0  0  0  0  # atno 6908 bound_to 6896
  150.7436  134.6013  159.6082 H   0  0  0  0  0  0  0  0  0  0  0  0  # atno 6909 bound_to 6896
  146.2445  140.0634  142.8367 H   0  0  0  0  0  0  0  0  0  0  0  0  # atno 7974 bound_to 7965
  155.0123  140.3138  155.4825 H   0  0  0  0  0  0  0  0  0  0  0  0  # atno 8008 bound_to 7997
  156.2907  140.2212  156.5179 H   0  0  0  0  0  0  0  0  0  0  0  0  # atno 8009 bound_to 7997
  154.7524  140.0465  157.0892 H   0  0  0  0  0  0  0  0  0  0  0  0  # atno 8010 bound_to 7997
  139.7997  144.6819  150.9781 H   0  0  0  0  0  0  0  0  0  0  0  0  # atno 10167 bound_to 10162
  157.4240  131.1041  151.0322 H   0  0  0  0  0  0  0  0  0  0  0  0  # atno 10718 bound_to 10713
  153.9159  135.3006  155.3448 H   0  0  0  0  0  0  0  0  0  0  0  0  # atno 10763 bound_to 10752
  154.7600  135.4939  153.9449 H   0  0  0  0  0  0  0  0  0  0  0  0  # atno 10764 bound_to 10752
  153.1168  135.6772  153.9507 H   0  0  0  0  0  0  0  0  0  0  0  0  # atno 10765 bound_to 10752
  141.1660  133.7022  156.7819 H   0  0  0  0  0  0  0  0  0  0  0  0  # atno 11005 bound_to 11000
  145.0879  140.9265  143.4786 LP  0  0  0  0  0  0  0  0  0  0  0  0  # atno 17320 bound_to 7965
  145.0801  139.2966  143.5788 LP  0  0  0  0  0  0  0  0  0  0  0  0  # atno 17321 bound_to 7965
  140.7820  143.4294  151.0718 LP  0  0  0  0  0  0  0  0  0  0  0  0  # atno 17342 bound_to 10162
  139.7966  143.8142  152.3158 LP  0  0  0  0  0  0  0  0  0  0  0  0  # atno 17343 bound_to 10162
  157.1242  130.6075  149.5513 LP  0  0  0  0  0  0  0  0  0  0  0  0  # atno 17370 bound_to 10713
  155.9890  130.4936  150.7196 LP  0  0  0  0  0  0  0  0  0  0  0  0  # atno 17371 bound_to 10713
  140.2388  134.8629  157.3552 LP  0  0  0  0  0  0  0  0  0  0  0  0  # atno 17394 bound_to 11000
  140.1817  134.4482  155.7768 LP  0  0  0  0  0  0  0  0  0  0  0  0  # atno 17395 bound_to 11000

$$$$
