AV-unprocessed.smi:2959|AV-procd|sdf|11310|dock5
  -GOLD-   2272016213D 1   1.00000     0.00000
 Structure written by MMmdl.
 46 48  0  0  0  0  0  0  0  0  2 V2000
  146.1750  145.0780  159.6949 C   0  0  0  0  0  0  0  0  0  0  0  0
  147.5306  144.8280  160.3468 C   0  0  0  0  0  0  0  0  0  0  0  0
  147.6043  144.1929  161.3981 O   0  0  0  0  0  0  0  0  0  0  0  0
  148.5975  145.3327  159.7117 N   0  0  0  0  0  0  0  0  0  0  0  0
  149.9703  145.1897  160.1761 C   0  0  0  0  0  0  0  0  0  0  0  0
  150.8269  144.4757  159.1227 C   0  0  0  0  0  0  0  0  0  0  0  0
  151.6486  143.3861  159.7321 C   0  0  0  0  0  0  0  0  0  0  0  0
  152.4609  143.5119  160.8196 N   0  3  0  0  0  0  0  0  0  0  0  0
  153.0657  142.2863  161.1023 C   0  0  0  0  0  0  0  0  0  0  0  0
  153.9670  141.9221  162.0981 C   0  0  0  0  0  0  0  0  0  0  0  0
  154.3937  140.5778  162.1047 C   0  0  0  0  0  0  0  0  0  0  0  0
  153.9269  139.6543  161.1466 C   0  0  0  0  0  0  0  0  0  0  0  0
  153.0133  140.0354  160.1416 C   0  0  0  0  0  0  0  0  0  0  0  0
  152.5954  141.3658  160.1436 C   0  0  0  0  0  0  0  0  0  0  0  0
  151.7210  142.0861  159.3232 N   0  0  0  0  0  0  0  0  0  0  0  0
  151.0613  141.4005  158.2025 C   0  0  0  0  0  0  0  0  0  0  0  0
  151.0804  142.2416  156.9185 C   0  0  0  0  0  0  0  0  0  0  0  0
  150.3369  141.5650  155.9134 O   0  0  0  0  0  0  0  0  0  0  0  0
  150.8212  140.3690  155.4316 C   0  0  0  0  0  0  0  0  0  0  0  0
  150.0571  139.7268  154.4355 C   0  0  0  0  0  0  0  0  0  0  0  0
  150.4764  138.5011  153.8841 C   0  0  0  0  0  0  0  0  0  0  0  0
  151.6699  137.9023  154.3275 C   0  0  0  0  0  0  0  0  0  0  0  0
  152.4415  138.5316  155.3219 C   0  0  0  0  0  0  0  0  0  0  0  0
  152.0222  139.7582  155.8734 C   0  0  0  0  0  0  0  0  0  0  0  0
  145.9886  146.1481  159.6002 H   0  0  0  0  0  0  0  0  0  0  0  0
  145.3722  144.6435  160.2913 H   0  0  0  0  0  0  0  0  0  0  0  0
  146.1418  144.6312  158.7009 H   0  0  0  0  0  0  0  0  0  0  0  0
  148.4490  145.8391  158.8508 H   0  0  0  0  0  0  0  0  0  0  0  0
  150.3871  146.1749  160.3920 H   0  0  0  0  0  0  0  0  0  0  0  0
  149.9736  144.6265  161.1106 H   0  0  0  0  0  0  0  0  0  0  0  0
  150.1933  144.0521  158.3427 H   0  0  0  0  0  0  0  0  0  0  0  0
  151.4913  145.1877  158.6316 H   0  0  0  0  0  0  0  0  0  0  0  0
  154.3273  142.6277  162.8324 H   0  0  0  0  0  0  0  0  0  0  0  0
  155.0940  140.2485  162.8587 H   0  0  0  0  0  0  0  0  0  0  0  0
  154.2768  138.6327  161.1827 H   0  0  0  0  0  0  0  0  0  0  0  0
  152.6633  139.3213  159.4109 H   0  0  0  0  0  0  0  0  0  0  0  0
  151.5376  140.4319  158.0473 H   0  0  0  0  0  0  0  0  0  0  0  0
  150.0320  141.1937  158.4964 H   0  0  0  0  0  0  0  0  0  0  0  0
  150.6442  143.2222  157.1154 H   0  0  0  0  0  0  0  0  0  0  0  0
  152.1112  142.3891  156.5933 H   0  0  0  0  0  0  0  0  0  0  0  0
  149.1394  140.1797  154.0897 H   0  0  0  0  0  0  0  0  0  0  0  0
  149.8821  138.0203  153.1211 H   0  0  0  0  0  0  0  0  0  0  0  0
  151.9929  136.9621  153.9054 H   0  0  0  0  0  0  0  0  0  0  0  0
  153.3574  138.0723  155.6635 H   0  0  0  0  0  0  0  0  0  0  0  0
  152.6389  140.2095  156.6354 H   0  0  0  0  0  0  0  0  0  0  0  0
  152.5936  144.3770  161.3275 H   0  0  0  0  0  0  0  0  0  0  0  0
  1  2  1  0  0  0  0
  1 25  1  0  0  0  0
  1 26  1  0  0  0  0
  1 27  1  0  0  0  0
  2  3  2  0  0  0  0
  2  4  1  0  0  0  0
  4  5  1  0  0  0  0
  4 28  1  0  0  0  0
  5  6  1  0  0  0  0
  5 29  1  0  0  0  0
  5 30  1  0  0  0  0
  6  7  1  0  0  0  0
  6 31  1  0  0  0  0
  6 32  1  0  0  0  0
  7 15  1  0  0  0  0
  7  8  2  0  0  0  0
  8  9  1  0  0  0  0
  8 46  1  0  0  0  0
  9 14  2  0  0  0  0
  9 10  1  0  0  0  0
 10 11  2  0  0  0  0
 10 33  1  0  0  0  0
 11 12  1  0  0  0  0
 11 34  1  0  0  0  0
 12 13  2  0  0  0  0
 12 35  1  0  0  0  0
 13 14  1  0  0  0  0
 13 36  1  0  0  0  0
 14 15  1  0  0  0  0
 15 16  1  0  0  0  0
 16 17  1  0  0  0  0
 16 37  1  0  0  0  0
 16 38  1  0  0  0  0
 17 18  1  0  0  0  0
 17 39  1  0  0  0  0
 17 40  1  0  0  0  0
 18 19  1  0  0  0  0
 19 24  1  0  0  0  0
 19 20  2  0  0  0  0
 20 21  1  0  0  0  0
 20 41  1  0  0  0  0
 21 22  2  0  0  0  0
 21 42  1  0  0  0  0
 22 23  1  0  0  0  0
 22 43  1  0  0  0  0
 23 24  2  0  0  0  0
 23 44  1  0  0  0  0
 24 45  1  0  0  0  0
M  CHG  1   8   1
M  END
> <s_m_source_file>
AV-unprocessed.smi

> <i_m_source_file_index>
2959

> <i_lp_mmshare_version>
43012

> <i_f3d_flags>
0

> <s_epik_input>
W0NIM11DKD1PKVtOSF1bQ0gyXVtDSDJdYyhuMSluKGMoYzEyKVtjSF1bY0hdW2NIXVtjSF0yKVtDSDJdW0NIMl1PYzNbY0hdW2NIXVtjSF1bY0hdW2NIXTM=

> <s_epik_cmdline>
J2VwaWtfcHl0aG9uJywgJy1waCcsICc3LjAnLCAnLXRuJywgJzgnLCAnLW1hJywgJzIwMCcsICctbWV0YWxfYmluZGluZycsICctaW1hZScsICc8aW5maWxlLm1hZT4nLCAnLW9tYWUnLCAnPG91dGZpbGUubWFlPic=

> <r_lp_tautomer_probability>
1

> <r_epik_Ionization_Penalty>
1.04698

> <r_epik_Ionization_Penalty_Charging>
1.04698

> <r_epik_Ionization_Penalty_Neutral>
3.05925e-07

> <r_epik_State_Penalty>
1.0995

> <r_epik_Charging_Adjusted_Penalty>
2.14648

> <i_epik_Tot_Q>
1

> <i_epik_Tot_abs_Q>
1

> <r_epik_Metal_State_Penalty>
1.19436

> <b_epik_Metal_Only>
0

> <s_lp_Force_Field>
OPLS_2005

> <r_lp_Energy>
17.9669

> <b_lp_Chiralities_Consistent>
1

> <s_lp_Variant>
AV-unprocessed.smi:2959-2

> <Gold.Version>
5.8.1

> <Gold.Id.Protein>
6NUR|6NUR_protein|mol2

> <Gold.PLP.Fitness>
56.5671

> <Gold.PLP.PLP>
-51.7416

> <Gold.PLP.part.hbond>
-2.0000

> <Gold.PLP.part.metal>
0.0000

> <Gold.PLP.part.buried>
-2.3161

> <Gold.PLP.part.nonpolar>
-46.8741

> <Gold.PLP.part.repulsive>
0.5187

> <Gold.PLP.ligand.clash>
0.0000

> <Gold.PLP.ligand.torsion>
0.6365

> <Gold.PLP.Chemscore.Hbond>
2.0000

> <Gold.PLP.Chemscore.CHOScore>
0.0000

> <Gold.PLP.Chemscore.Metal>
0.0000

> <Gold.Chemscore.Hbonds>
donor molecule, donor type, donor heavy atom, donor atom, acceptor molecule, acceptor atom, score
      L1  H     4    28       P1  8029  1.00
      P1  H  6933  6944       L1     3  0.99

> <Gold.PLP.Chemscore.Internal.Correction>
0.0985

> <Gold.Rescore>
     Score         DG    S(hbond)    S(metal)    S(lipo)     H(rot)  DE(clash)    DE(int)     intcor
     20.57     -21.68       1.86        0.00     133.58       2.21       0.43       0.68       ----

> <Gold.Chemscore.Fitness>
20.5717

> <Gold.Chemscore.DG>
-21.6788

> <Gold.Chemscore.ZeroCoef>
-5.4800

> <Gold.Chemscore.Hbond>
1.8640

> <Gold.Chemscore.Metal>
0.0000

> <Gold.Chemscore.Lipo>
133.5816

> <Gold.Chemscore.Internal_Hbond>
0.0000

> <Gold.Chemscore.DEClash>
0.4304

> <Gold.Chemscore.DEInternal>
0.6767

> <Gold.Chemscore.Rot>
2.2093

> <Gold.Chemscore.Internal.Correction>
   9.000000E+99

> <Gold.Chemscore.Hbonds>
donor molecule, donor type, donor heavy atom, donor atom, acceptor molecule, acceptor atom, score
      L1  H     4    28       P1  8029  0.97
      P1  H  6933  6944       L1     3  0.92

> <Gold.Chemscore.Hbond.Weighted>
-6.2257

> <Gold.Chemscore.Metal.Weighted>
-0.0000

> <Gold.Chemscore.Lipo.Weighted>
-15.6290

> <Gold.Chemscore.Internal_Hbond.Weighted>
0.0000

> <Gold.Chemscore.DEClash.Weighted>
0.4304

> <Gold.Chemscore.DEInternal.Weighted>
0.6767

> <Gold.Chemscore.Rot.Weighted>
5.6559

> <Gold.Chemscore.Internal.Correction.Weighted>
   9.000000E+99

> <Gold.Protein.RotatedTorsions>
[ 6907 6896 6895 6894 ] final  135.70 input  -60.11 | X-H torsion
[ 7974 7965 7964 7962 ] final   82.43 input  175.53 | X-H torsion
[ 8008 7997 7996 7995 ] final  -19.85 input   59.86 | X-H torsion
[ 10167 10162 10161 10158 ] final    8.31 input  -65.29 | X-H torsion
[ 10718 10713 10712 10709 ] final  -50.24 input   66.30 | X-H torsion
[ 10763 10752 10751 10750 ] final  107.18 input  -60.55 | X-H torsion
[ 11005 11000 10999 10996 ] final  118.87 input  -57.11 | X-H torsion

> <Gold.Protein.ActiveResidues>
 VAL166  LYS551  ARG553  GLY616  TRP617  ASP618  TYR619  PRO620  LYS621  CYS622 
 ASP623  PHE694  ASN695  SER759  ASP760  ASP761  ALA762  ILE779  LEU786  VAL792 
 PHE793  MET794  SER795  GLU796  ALA797  LYS798  CYS799  TRP800  GLU811  SER814 

> <Gold.Protein.RotatedAtoms>
  152.2975  133.5622  159.5596 H   0  0  0  0  0  0  0  0  0  0  0  0  # atno 6907 bound_to 6896
  150.7263  134.0339  159.3751 H   0  0  0  0  0  0  0  0  0  0  0  0  # atno 6908 bound_to 6896
  151.8241  135.0643  160.0479 H   0  0  0  0  0  0  0  0  0  0  0  0  # atno 6909 bound_to 6896
  145.6252  139.2394  143.2116 H   0  0  0  0  0  0  0  0  0  0  0  0  # atno 7974 bound_to 7965
  154.4809  140.2078  155.9766 H   0  0  0  0  0  0  0  0  0  0  0  0  # atno 8008 bound_to 7997
  156.1163  140.3221  155.8113 H   0  0  0  0  0  0  0  0  0  0  0  0  # atno 8009 bound_to 7997
  155.4547  140.0519  157.2988 H   0  0  0  0  0  0  0  0  0  0  0  0  # atno 8010 bound_to 7997
  140.6321  143.7969  150.7310 H   0  0  0  0  0  0  0  0  0  0  0  0  # atno 10167 bound_to 10162
  156.1819  130.4150  149.9495 H   0  0  0  0  0  0  0  0  0  0  0  0  # atno 10718 bound_to 10713
  153.4032  135.3852  155.2002 H   0  0  0  0  0  0  0  0  0  0  0  0  # atno 10763 bound_to 10752
  154.8731  135.3776  154.4592 H   0  0  0  0  0  0  0  0  0  0  0  0  # atno 10764 bound_to 10752
  153.5092  135.7087  153.5852 H   0  0  0  0  0  0  0  0  0  0  0  0  # atno 10765 bound_to 10752
  139.9125  134.9624  156.7569 H   0  0  0  0  0  0  0  0  0  0  0  0  # atno 11005 bound_to 11000
  146.1400  140.7071  142.9371 LP  0  0  0  0  0  0  0  0  0  0  0  0  # atno 17320 bound_to 7965
  144.7215  140.4388  143.7004 LP  0  0  0  0  0  0  0  0  0  0  0  0  # atno 17321 bound_to 7965
  140.1582  143.4298  152.2085 LP  0  0  0  0  0  0  0  0  0  0  0  0  # atno 17342 bound_to 10162
  139.5535  144.7355  151.4365 LP  0  0  0  0  0  0  0  0  0  0  0  0  # atno 17343 bound_to 10162
  156.7262  130.9026  151.3622 LP  0  0  0  0  0  0  0  0  0  0  0  0  # atno 17370 bound_to 10713
  157.6873  130.9199  150.0421 LP  0  0  0  0  0  0  0  0  0  0  0  0  # atno 17371 bound_to 10713
  140.6729  133.9543  155.7866 LP  0  0  0  0  0  0  0  0  0  0  0  0  # atno 17394 bound_to 11000
  141.0565  134.0409  157.3716 LP  0  0  0  0  0  0  0  0  0  0  0  0  # atno 17395 bound_to 11000

$$$$
