AV-unprocessed.smi:358|AV-procd|sdf|2417|dock6
  -GOLD-   2262022353D 1   1.00000     0.00000
 Structure written by MMmdl.
 37 39  0  0  0  0  0  0  0  0  1 V2000
  150.1330  137.3501  154.1049 N   0  0  0  0  0  0  0  0  0  0  0  0
  150.3301  138.4887  154.7734 C   0  0  0  0  0  0  0  0  0  0  0  0
  151.1720  139.3138  154.4234 O   0  0  0  0  0  0  0  0  0  0  0  0
  149.4546  138.7236  156.0090 C   0  0  0  0  0  0  0  0  0  0  0  0
  150.2274  138.7022  157.2459 N   0  0  0  0  0  0  0  0  0  0  0  0
  150.2284  137.7867  158.2370 C   0  0  0  0  0  0  0  0  0  0  0  0
  149.2152  136.3486  158.2121 S   0  0  0  0  0  0  0  0  0  0  0  0
  147.7694  137.0757  159.0366 C   0  0  0  0  0  0  0  0  0  0  0  0
  147.5902  136.6312  160.4892 C   0  0  0  0  0  0  0  0  0  0  0  0
  147.4928  137.4604  161.3945 O   0  0  0  0  0  0  0  0  0  0  0  0
  147.5348  135.3066  160.6924 N   0  0  0  0  0  0  0  0  0  0  0  0
  147.3644  134.6667  161.9566 C   0  0  0  0  0  0  0  0  0  0  0  0
  146.0755  133.9086  162.1906 C   0  0  0  0  0  0  0  0  0  0  0  0
  146.3080  135.2203  162.8884 C   0  0  0  0  0  0  0  0  0  0  0  0
  151.0787  138.0661  159.2275 N   0  0  0  0  0  0  0  0  0  0  0  0
  151.6843  139.2502  158.8698 N   0  0  0  0  0  0  0  0  0  0  0  0
  151.1339  139.5910  157.7022 C   0  0  0  0  0  0  0  0  0  0  0  0
  151.5249  140.8119  156.9313 C   0  0  0  0  0  0  0  0  0  0  0  0
  151.3553  142.1963  157.5180 C   0  0  0  0  0  0  0  0  0  0  0  0
  150.4799  141.7542  156.3754 C   0  0  0  0  0  0  0  0  0  0  0  0
  150.6849  137.1517  153.2827 H   0  0  0  0  0  0  0  0  0  0  0  0
  149.4345  136.6925  154.4195 H   0  0  0  0  0  0  0  0  0  0  0  0
  148.9499  139.6852  155.9148 H   0  0  0  0  0  0  0  0  0  0  0  0
  148.6715  137.9668  156.0690 H   0  0  0  0  0  0  0  0  0  0  0  0
  147.8621  138.1618  159.0153 H   0  0  0  0  0  0  0  0  0  0  0  0
  146.8782  136.8177  158.4629 H   0  0  0  0  0  0  0  0  0  0  0  0
  147.6217  134.7032  159.8877 H   0  0  0  0  0  0  0  0  0  0  0  0
  148.2523  134.2514  162.4311 H   0  0  0  0  0  0  0  0  0  0  0  0
  145.3414  133.8907  161.3872 H   0  0  0  0  0  0  0  0  0  0  0  0
  146.1282  133.0034  162.7922 H   0  0  0  0  0  0  0  0  0  0  0  0
  146.5172  135.1921  163.9558 H   0  0  0  0  0  0  0  0  0  0  0  0
  145.7302  136.0786  162.5504 H   0  0  0  0  0  0  0  0  0  0  0  0
  152.4110  140.6196  156.3297 H   0  0  0  0  0  0  0  0  0  0  0  0
  150.8900  142.2817  158.4981 H   0  0  0  0  0  0  0  0  0  0  0  0
  152.1295  142.9301  157.3037 H   0  0  0  0  0  0  0  0  0  0  0  0
  150.6684  142.1913  155.3970 H   0  0  0  0  0  0  0  0  0  0  0  0
  149.4356  141.5483  156.6013 H   0  0  0  0  0  0  0  0  0  0  0  0
  1  2  1  0  0  0  0
  1 21  1  0  0  0  0
  1 22  1  0  0  0  0
  2  3  2  0  0  0  0
  2  4  1  0  0  0  0
  4  5  1  0  0  0  0
  4 23  1  0  0  0  0
  4 24  1  0  0  0  0
  5 17  1  0  0  0  0
  5  6  1  0  0  0  0
  6  7  1  0  0  0  0
  6 15  2  0  0  0  0
  7  8  1  0  0  0  0
  8  9  1  0  0  0  0
  8 25  1  0  0  0  0
  8 26  1  0  0  0  0
  9 10  2  0  0  0  0
  9 11  1  0  0  0  0
 11 12  1  0  0  0  0
 11 27  1  0  0  0  0
 12 14  1  0  0  0  0
 12 13  1  0  0  0  0
 12 28  1  0  0  0  0
 13 14  1  0  0  0  0
 13 29  1  0  0  0  0
 13 30  1  0  0  0  0
 14 31  1  0  0  0  0
 14 32  1  0  0  0  0
 15 16  1  0  0  0  0
 16 17  2  0  0  0  0
 17 18  1  0  0  0  0
 18 20  1  0  0  0  0
 18 19  1  0  0  0  0
 18 33  1  0  0  0  0
 19 20  1  0  0  0  0
 19 34  1  0  0  0  0
 19 35  1  0  0  0  0
 20 36  1  0  0  0  0
 20 37  1  0  0  0  0
M  END
> <s_m_source_file>
AV-unprocessed.smi

> <i_m_source_file_index>
358

> <i_lp_mmshare_version>
43012

> <i_f3d_flags>
0

> <s_epik_input>
W0NIMl0xW0NIMl1bQ0hdMWMybm5jKG4yW0NIMl1DKD1PKVtOSDJdKVNbQ0gyXUMoPU8pW05IXVtDSF0zW0NIMl1bQ0gyXTM=

> <s_epik_cmdline>
J2VwaWtfcHl0aG9uJywgJy1waCcsICc3LjAnLCAnLXRuJywgJzgnLCAnLW1hJywgJzIwMCcsICctbWV0YWxfYmluZGluZycsICctaW1hZScsICc8aW5maWxlLm1hZT4nLCAnLW9tYWUnLCAnPG91dGZpbGUubWFlPic=

> <r_lp_tautomer_probability>
1

> <r_epik_Ionization_Penalty>
5.83215e-07

> <r_epik_Ionization_Penalty_Charging>
0

> <r_epik_Ionization_Penalty_Neutral>
5.83215e-07

> <r_epik_State_Penalty>
-0

> <r_epik_Charging_Adjusted_Penalty>
0

> <i_epik_Tot_Q>
0

> <i_epik_Tot_abs_Q>
0

> <r_epik_Metal_State_Penalty>
-0

> <b_epik_Metal_Only>
0

> <s_lp_Force_Field>
OPLS_2005

> <r_lp_Energy>
18.9456

> <b_lp_Chiralities_Consistent>
1

> <s_lp_Variant>
AV-unprocessed.smi:358-1

> <Gold.Version>
5.8.1

> <Gold.Id.Protein>
6NUR|6NUR_protein|mol2

> <Gold.PLP.Fitness>
41.8611

> <Gold.PLP.PLP>
-32.8333

> <Gold.PLP.part.hbond>
-5.0000

> <Gold.PLP.part.metal>
0.0000

> <Gold.PLP.part.buried>
-4.3236

> <Gold.PLP.part.nonpolar>
-23.4605

> <Gold.PLP.part.repulsive>
0.2697

> <Gold.PLP.ligand.clash>
0.0000

> <Gold.PLP.ligand.torsion>
1.0942

> <Gold.PLP.Chemscore.Hbond>
3.6539

> <Gold.PLP.Chemscore.CHOScore>
0.0000

> <Gold.PLP.Chemscore.Metal>
0.0000

> <Gold.Chemscore.Hbonds>
donor molecule, donor type, donor heavy atom, donor atom, acceptor molecule, acceptor atom, score
      L1  H     1    21       P1  7949  0.39
      P1  H  6931  6943       L1    10  0.78
      P1  H  6934  6947       L1    10  0.85
      P1  H  7989  7998       L1     3  1.00

> <Gold.PLP.Chemscore.Internal.Correction>
0.2545

> <Gold.Rescore>
     Score         DG    S(hbond)    S(metal)    S(lipo)     H(rot)  DE(clash)    DE(int)     intcor
     11.14     -13.43       3.04        0.00      53.21       3.30       0.04       2.25       ----

> <Gold.Chemscore.Fitness>
11.1409

> <Gold.Chemscore.DG>
-13.4252

> <Gold.Chemscore.ZeroCoef>
-5.4800

> <Gold.Chemscore.Hbond>
3.0428

> <Gold.Chemscore.Metal>
0.0000

> <Gold.Chemscore.Lipo>
53.2143

> <Gold.Chemscore.Internal_Hbond>
0.0000

> <Gold.Chemscore.DEClash>
0.0363

> <Gold.Chemscore.DEInternal>
2.2480

> <Gold.Chemscore.Rot>
3.2984

> <Gold.Chemscore.Internal.Correction>
   9.000000E+99

> <Gold.Chemscore.Hbonds>
donor molecule, donor type, donor heavy atom, donor atom, acceptor molecule, acceptor atom, score
      L1  H     1    21       P1  7949  0.03
      P1  H  6931  6943       L1    10  0.72
      P1  H  6934  6947       L1    10  0.78
      P1  H  7989  7998       L1     3  1.00

> <Gold.Chemscore.Hbond.Weighted>
-10.1629

> <Gold.Chemscore.Metal.Weighted>
-0.0000

> <Gold.Chemscore.Lipo.Weighted>
-6.2261

> <Gold.Chemscore.Internal_Hbond.Weighted>
0.0000

> <Gold.Chemscore.DEClash.Weighted>
0.0363

> <Gold.Chemscore.DEInternal.Weighted>
2.2480

> <Gold.Chemscore.Rot.Weighted>
8.4438

> <Gold.Chemscore.Internal.Correction.Weighted>
   9.000000E+99

> <Gold.Protein.RotatedTorsions>
[ 6907 6896 6895 6894 ] final  106.00 input  -60.11 | X-H torsion
[ 7974 7965 7964 7962 ] final -144.62 input  175.53 | X-H torsion
[ 8008 7997 7996 7995 ] final   89.38 input   59.86 | X-H torsion
[ 10167 10162 10161 10158 ] final -116.26 input  -65.29 | X-H torsion
[ 10718 10713 10712 10709 ] final   33.73 input   66.30 | X-H torsion
[ 10763 10752 10751 10750 ] final -128.05 input  -60.55 | X-H torsion
[ 11005 11000 10999 10996 ] final  -66.67 input  -57.11 | X-H torsion

> <Gold.Protein.ActiveResidues>
 VAL166  LYS551  ARG553  GLY616  TRP617  ASP618  TYR619  PRO620  LYS621  CYS622 
 ASP623  PHE694  ASN695  SER759  ASP760  ASP761  ALA762  ILE779  LEU786  VAL792 
 PHE793  MET794  SER795  GLU796  ALA797  LYS798  CYS799  TRP800  GLU811  SER814 

> <Gold.Protein.RotatedAtoms>
  152.5210  133.9446  159.7642 H   0  0  0  0  0  0  0  0  0  0  0  0  # atno 6907 bound_to 6896
  150.9769  133.6278  159.2736 H   0  0  0  0  0  0  0  0  0  0  0  0  # atno 6908 bound_to 6896
  151.3469  135.0882  159.9443 H   0  0  0  0  0  0  0  0  0  0  0  0  # atno 6909 bound_to 6896
  144.8284  140.5686  143.5531 H   0  0  0  0  0  0  0  0  0  0  0  0  # atno 7974 bound_to 7965
  155.9992  140.3361  155.6829 H   0  0  0  0  0  0  0  0  0  0  0  0  # atno 8008 bound_to 7997
  155.6313  140.0685  157.2666 H   0  0  0  0  0  0  0  0  0  0  0  0  # atno 8009 bound_to 7997
  154.4244  140.1759  156.1463 H   0  0  0  0  0  0  0  0  0  0  0  0  # atno 8010 bound_to 7997
  140.0812  143.4786  152.1924 H   0  0  0  0  0  0  0  0  0  0  0  0  # atno 10167 bound_to 10162
  157.3015  130.7353  149.6670 H   0  0  0  0  0  0  0  0  0  0  0  0  # atno 10718 bound_to 10713
  154.8755  135.3941  154.3694 H   0  0  0  0  0  0  0  0  0  0  0  0  # atno 10763 bound_to 10752
  153.4456  135.7027  153.6146 H   0  0  0  0  0  0  0  0  0  0  0  0  # atno 10764 bound_to 10752
  153.4709  135.3791  155.2359 H   0  0  0  0  0  0  0  0  0  0  0  0  # atno 10765 bound_to 10752
  141.1488  133.6704  156.6174 H   0  0  0  0  0  0  0  0  0  0  0  0  # atno 11005 bound_to 11000
  145.4949  139.1486  143.3689 LP  0  0  0  0  0  0  0  0  0  0  0  0  # atno 17320 bound_to 7965
  146.2589  140.5087  142.8862 LP  0  0  0  0  0  0  0  0  0  0  0  0  # atno 17321 bound_to 7965
  139.5778  144.7496  151.3718 LP  0  0  0  0  0  0  0  0  0  0  0  0  # atno 17342 bound_to 10162
  140.7077  143.7472  150.7510 LP  0  0  0  0  0  0  0  0  0  0  0  0  # atno 17343 bound_to 10162
  155.9672  130.4278  150.4761 LP  0  0  0  0  0  0  0  0  0  0  0  0  # atno 17370 bound_to 10713
  157.2743  131.0593  151.2239 LP  0  0  0  0  0  0  0  0  0  0  0  0  # atno 17371 bound_to 10713
  140.3567  134.7723  157.4505 LP  0  0  0  0  0  0  0  0  0  0  0  0  # atno 17394 bound_to 11000
  140.0818  134.5721  155.8533 LP  0  0  0  0  0  0  0  0  0  0  0  0  # atno 17395 bound_to 11000

$$$$
