AV-unprocessed.smi:2149|AV-procd|sdf|8754|dock7
  -GOLD-   2272011533D 1   1.00000     0.00000
 Structure written by MMmdl.
 43 44  0  0  0  0  0  0  0  0  2 V2000
  150.7486  131.1846  155.4580 C   0  0  0  0  0  0  0  0  0  0  0  0
  149.7103  132.4563  156.2871 S   0  0  0  0  0  0  0  0  0  0  0  0
  148.3488  131.9174  156.4242 O   0  0  0  0  0  0  0  0  0  0  0  0
  150.4316  132.9305  157.4786 O   0  0  0  0  0  0  0  0  0  0  0  0
  149.6491  133.7674  155.1444 N   0  0  0  0  0  0  0  0  0  0  0  0
  150.5181  134.9494  155.3213 C   0  0  0  0  0  0  0  0  0  0  0  0
  149.7403  136.1510  155.8901 C   0  0  0  0  0  0  0  0  0  0  0  0
  148.4869  136.4542  155.0587 C   0  0  0  0  0  0  0  0  0  0  0  0
  147.6062  135.1958  154.9859 C   0  0  1  0  0  0  0  0  0  0  0  0
  146.3292  135.4335  154.1710 C   0  0  0  0  0  0  0  0  0  0  0  0
  145.2266  135.1460  154.6368 O   0  0  0  0  0  0  0  0  0  0  0  0
  146.4936  136.0040  152.9680 N   0  0  0  0  0  0  0  0  0  0  0  0
  145.4160  136.4652  152.0979 C   0  0  0  0  0  0  0  0  0  0  0  0
  144.2758  135.4334  151.9546 C   0  0  0  0  0  0  0  0  0  0  0  0
  144.6351  134.2414  151.0818 C   0  0  0  0  0  0  0  0  0  0  0  0
  145.8924  133.6037  151.1658 C   0  0  0  0  0  0  0  0  0  0  0  0
  146.1520  132.4783  150.3566 C   0  0  0  0  0  0  0  0  0  0  0  0
  145.1528  132.0196  149.4739 C   0  0  0  0  0  0  0  0  0  0  0  0
  143.9189  132.6999  149.4221 C   0  0  0  0  0  0  0  0  0  0  0  0
  143.7068  133.7722  150.2171 N   0  3  0  0  0  0  0  0  0  0  0  0
  148.4103  134.0229  154.3855 C   0  0  0  0  0  0  0  0  0  0  0  0
  150.8137  130.3062  156.0997 H   0  0  0  0  0  0  0  0  0  0  0  0
  151.7512  131.5731  155.2905 H   0  0  0  0  0  0  0  0  0  0  0  0
  150.2956  130.8959  154.5110 H   0  0  0  0  0  0  0  0  0  0  0  0
  151.3640  134.7060  155.9635 H   0  0  0  0  0  0  0  0  0  0  0  0
  150.9361  135.2146  154.3495 H   0  0  0  0  0  0  0  0  0  0  0  0
  149.4550  135.9563  156.9234 H   0  0  0  0  0  0  0  0  0  0  0  0
  150.3874  137.0281  155.9153 H   0  0  0  0  0  0  0  0  0  0  0  0
  147.9359  137.2822  155.5071 H   0  0  0  0  0  0  0  0  0  0  0  0
  148.7805  136.7759  154.0582 H   0  0  0  0  0  0  0  0  0  0  0  0
  147.3098  134.9359  156.0020 H   0  0  0  0  0  0  0  0  0  0  0  0
  147.4372  136.1896  152.6599 H   0  0  0  0  0  0  0  0  0  0  0  0
  145.0193  137.3773  152.5442 H   0  0  0  0  0  0  0  0  0  0  0  0
  145.8065  136.7465  151.1187 H   0  0  0  0  0  0  0  0  0  0  0  0
  143.9712  135.0788  152.9402 H   0  0  0  0  0  0  0  0  0  0  0  0
  143.3978  135.9212  151.5292 H   0  0  0  0  0  0  0  0  0  0  0  0
  146.6447  133.9613  151.8540 H   0  0  0  0  0  0  0  0  0  0  0  0
  147.1040  131.9710  150.4163 H   0  0  0  0  0  0  0  0  0  0  0  0
  145.3312  131.1580  148.8469 H   0  0  0  0  0  0  0  0  0  0  0  0
  143.0998  132.4178  148.7768 H   0  0  0  0  0  0  0  0  0  0  0  0
  148.6842  134.2438  153.3526 H   0  0  0  0  0  0  0  0  0  0  0  0
  147.8032  133.1194  154.3524 H   0  0  0  0  0  0  0  0  0  0  0  0
  142.8036  134.2439  150.1677 H   0  0  0  0  0  0  0  0  0  0  0  0
  1  2  1  0  0  0  0
  1 22  1  0  0  0  0
  1 23  1  0  0  0  0
  1 24  1  0  0  0  0
  2  3  2  0  0  0  0
  2  4  2  0  0  0  0
  2  5  1  0  0  0  0
  5 21  1  0  0  0  0
  5  6  1  0  0  0  0
  6  7  1  0  0  0  0
  6 25  1  0  0  0  0
  6 26  1  0  0  0  0
  7  8  1  0  0  0  0
  7 27  1  0  0  0  0
  7 28  1  0  0  0  0
  8  9  1  0  0  0  0
  8 29  1  0  0  0  0
  8 30  1  0  0  0  0
  9 10  1  0  0  0  0
  9 21  1  0  0  0  0
  9 31  1  0  0  0  0
 10 11  2  0  0  0  0
 10 12  1  0  0  0  0
 12 13  1  0  0  0  0
 12 32  1  0  0  0  0
 13 14  1  0  0  0  0
 13 33  1  0  0  0  0
 13 34  1  0  0  0  0
 14 15  1  0  0  0  0
 14 35  1  0  0  0  0
 14 36  1  0  0  0  0
 15 20  1  0  0  0  0
 15 16  2  0  0  0  0
 16 17  1  0  0  0  0
 16 37  1  0  0  0  0
 17 18  2  0  0  0  0
 17 38  1  0  0  0  0
 18 19  1  0  0  0  0
 18 39  1  0  0  0  0
 19 20  2  0  0  0  0
 19 40  1  0  0  0  0
 20 43  1  0  0  0  0
 21 41  1  0  0  0  0
 21 42  1  0  0  0  0
M  CHG  1  20   1
M  END
> <s_m_source_file>
AV-unprocessed.smi

> <i_m_source_file_index>
2149

> <i_lp_mmshare_version>
43012

> <i_f3d_flags>
0

> <s_epik_input>
W0NIM11TKD1PKSg9TylOMVtDSDJdW0NIMl1bQ0gyXVtDQEhdKFtDSDJdMSlDKD1PKVtOSF1bQ0gyXVtDSDJdYzJbY0hdW2NIXVtjSF1bY0hdbjI=

> <s_epik_cmdline>
J2VwaWtfcHl0aG9uJywgJy1waCcsICc3LjAnLCAnLXRuJywgJzgnLCAnLW1hJywgJzIwMCcsICctbWV0YWxfYmluZGluZycsICctaW1hZScsICc8aW5maWxlLm1hZT4nLCAnLW9tYWUnLCAnPG91dGZpbGUubWFlPic=

> <r_epik_Ionization_Penalty>
1.83523

> <r_epik_Ionization_Penalty_Charging>
1.83523

> <r_epik_Ionization_Penalty_Neutral>
2.62835e-08

> <r_epik_State_Penalty>
1.95153

> <r_epik_Charging_Adjusted_Penalty>
3.78676

> <i_epik_Tot_Q>
1

> <i_epik_Tot_abs_Q>
1

> <r_epik_Metal_State_Penalty>
1.97791

> <b_epik_Metal_Only>
0

> <s_lp_Force_Field>
OPLS_2005

> <r_lp_Energy>
6.48015

> <b_lp_Chiralities_Consistent>
1

> <s_lp_Variant>
AV-unprocessed.smi:2149-3

> <Gold.Version>
5.8.1

> <Gold.Id.Protein>
6NUR|6NUR_protein|mol2

> <Gold.PLP.Fitness>
44.1315

> <Gold.PLP.PLP>
-33.2555

> <Gold.PLP.part.hbond>
-3.0000

> <Gold.PLP.part.metal>
0.0000

> <Gold.PLP.part.buried>
-4.4065

> <Gold.PLP.part.nonpolar>
-26.7735

> <Gold.PLP.part.repulsive>
0.0828

> <Gold.PLP.ligand.clash>
0.0000

> <Gold.PLP.ligand.torsion>
1.6193

> <Gold.PLP.Chemscore.Hbond>
4.0000

> <Gold.PLP.Chemscore.CHOScore>
0.0000

> <Gold.PLP.Chemscore.Metal>
0.0000

> <Gold.Chemscore.Hbonds>
donor molecule, donor type, donor heavy atom, donor atom, acceptor molecule, acceptor atom, score
      L1  H    12    32       P1  7948  1.00
      L1  H    20    43       P1 10186  2.00
      P1  H  6896  6908       L1     4  1.00

> <Gold.PLP.Chemscore.Internal.Correction>
2.1145

> <Gold.Rescore>
     Score         DG    S(hbond)    S(metal)    S(lipo)     H(rot)  DE(clash)    DE(int)     intcor
     17.97     -20.88       2.97        0.00      82.96       1.65       0.03       2.89       ----

> <Gold.Chemscore.Fitness>
17.9664

> <Gold.Chemscore.DG>
-20.8835

> <Gold.Chemscore.ZeroCoef>
-5.4800

> <Gold.Chemscore.Hbond>
2.9732

> <Gold.Chemscore.Metal>
0.0000

> <Gold.Chemscore.Lipo>
82.9624

> <Gold.Chemscore.Internal_Hbond>
0.0000

> <Gold.Chemscore.DEClash>
0.0279

> <Gold.Chemscore.DEInternal>
2.8891

> <Gold.Chemscore.Rot>
1.6538

> <Gold.Chemscore.Internal.Correction>
   9.000000E+99

> <Gold.Chemscore.Hbonds>
donor molecule, donor type, donor heavy atom, donor atom, acceptor molecule, acceptor atom, score
      L1  H    12    32       P1  7948  1.00
      L1  H    20    43       P1 10186  0.90
      P1  H  6896  6908       L1     4  0.99

> <Gold.Chemscore.Hbond.Weighted>
-9.9305

> <Gold.Chemscore.Metal.Weighted>
-0.0000

> <Gold.Chemscore.Lipo.Weighted>
-9.7066

> <Gold.Chemscore.Internal_Hbond.Weighted>
0.0000

> <Gold.Chemscore.DEClash.Weighted>
0.0279

> <Gold.Chemscore.DEInternal.Weighted>
2.8891

> <Gold.Chemscore.Rot.Weighted>
4.2337

> <Gold.Chemscore.Internal.Correction.Weighted>
   9.000000E+99

> <Gold.Protein.RotatedTorsions>
[ 6907 6896 6895 6894 ] final   94.07 input  -60.11 | X-H torsion
[ 7974 7965 7964 7962 ] final  -26.31 input  175.53 | X-H torsion
[ 8008 7997 7996 7995 ] final   82.62 input   59.86 | X-H torsion
[ 10167 10162 10161 10158 ] final  -14.50 input  -65.29 | X-H torsion
[ 10718 10713 10712 10709 ] final -140.08 input   66.30 | X-H torsion
[ 10763 10752 10751 10750 ] final   48.13 input  -60.55 | X-H torsion
[ 11005 11000 10999 10996 ] final  157.07 input  -57.11 | X-H torsion

> <Gold.Protein.ActiveResidues>
 VAL166  LYS551  ARG553  GLY616  TRP617  ASP618  TYR619  PRO620  LYS621  CYS622 
 ASP623  PHE694  ASN695  SER759  ASP760  ASP761  ALA762  ILE779  LEU786  VAL792 
 PHE793  MET794  SER795  GLU796  ALA797  LYS798  CYS799  TRP800  GLU811  SER814 

> <Gold.Protein.RotatedAtoms>
  152.5451  134.1250  159.8414 H   0  0  0  0  0  0  0  0  0  0  0  0  # atno 6907 bound_to 6896
  151.1302  133.5035  159.2607 H   0  0  0  0  0  0  0  0  0  0  0  0  # atno 6908 bound_to 6896
  151.1683  135.0316  159.8795 H   0  0  0  0  0  0  0  0  0  0  0  0  # atno 6909 bound_to 6896
  146.1433  140.5003  142.8642 H   0  0  0  0  0  0  0  0  0  0  0  0  # atno 7974 bound_to 7965
  155.9131  140.3426  155.6114 H   0  0  0  0  0  0  0  0  0  0  0  0  # atno 8008 bound_to 7997
  155.7364  140.0802  157.2284 H   0  0  0  0  0  0  0  0  0  0  0  0  # atno 8009 bound_to 7997
  154.4058  140.1579  156.2553 H   0  0  0  0  0  0  0  0  0  0  0  0  # atno 8010 bound_to 7997
  140.7202  143.5315  150.9514 H   0  0  0  0  0  0  0  0  0  0  0  0  # atno 10167 bound_to 10162
  156.3182  130.7519  151.1611 H   0  0  0  0  0  0  0  0  0  0  0  0  # atno 10718 bound_to 10713
  152.9794  135.5954  154.3875 H   0  0  0  0  0  0  0  0  0  0  0  0  # atno 10763 bound_to 10752
  154.3533  135.2767  155.2362 H   0  0  0  0  0  0  0  0  0  0  0  0  # atno 10764 bound_to 10752
  154.4391  135.6017  153.6173 H   0  0  0  0  0  0  0  0  0  0  0  0  # atno 10765 bound_to 10752
  140.1735  134.8526  157.2718 H   0  0  0  0  0  0  0  0  0  0  0  0  # atno 11005 bound_to 11000
  144.7818  140.5855  143.6600 LP  0  0  0  0  0  0  0  0  0  0  0  0  # atno 17320 bound_to 7965
  145.4995  139.1484  143.3665 LP  0  0  0  0  0  0  0  0  0  0  0  0  # atno 17321 bound_to 7965
  139.9036  143.6806  152.3127 LP  0  0  0  0  0  0  0  0  0  0  0  0  # atno 17342 bound_to 10162
  139.7164  144.7611  151.1027 LP  0  0  0  0  0  0  0  0  0  0  0  0  # atno 17343 bound_to 10162
  157.7406  131.0515  150.5154 LP  0  0  0  0  0  0  0  0  0  0  0  0  # atno 17370 bound_to 10713
  156.5303  130.4183  149.6205 LP  0  0  0  0  0  0  0  0  0  0  0  0  # atno 17371 bound_to 10713
  140.2350  134.3863  155.7505 LP  0  0  0  0  0  0  0  0  0  0  0  0  # atno 17394 bound_to 11000
  141.2219  133.7235  156.8700 LP  0  0  0  0  0  0  0  0  0  0  0  0  # atno 17395 bound_to 11000

$$$$
