AV-unprocessed.smi:3298|AV-procd|sdf|12644|dock9
  -GOLD-   2272018573D 1   1.00000     0.00000
 Structure written by MMmdl.
 36 37  0  0  0  0  0  0  0  0  2 V2000
  146.4559  143.0125  154.0863 C   0  0  0  0  0  0  0  0  0  0  0  0
  147.3726  141.8073  154.0835 C   0  0  0  0  0  0  0  0  0  0  0  0
  147.0324  140.6033  153.4303 C   0  0  0  0  0  0  0  0  0  0  0  0
  147.9244  139.5092  153.4761 C   0  0  0  0  0  0  0  0  0  0  0  0
  147.5512  138.3181  152.7987 N   0  0  0  0  0  0  0  0  0  0  0  0
  146.3098  137.8646  152.5547 C   0  0  0  0  0  0  0  0  0  0  0  0
  145.2702  138.4337  152.8880 O   0  0  0  0  0  0  0  0  0  0  0  0
  146.3354  136.7131  151.8692 N   0  0  0  0  0  0  0  0  0  0  0  0
  145.1527  135.9990  151.4009 C   0  0  2  0  0  0  0  0  0  0  0  0
  144.3330  135.5150  152.5652 C   0  0  0  0  0  0  0  0  0  0  0  0
  144.1379  134.1987  152.5451 C   0  0  0  0  0  0  0  0  0  0  0  0
  144.7962  133.5268  151.3671 C   0  0  2  0  0  0  0  0  0  0  0  0
  145.7587  132.4012  151.7846 C   0  0  0  0  0  0  0  0  0  0  0  0
  146.3207  131.7793  150.6482 O   0  0  0  0  0  0  0  0  0  0  0  0
  145.5074  134.6953  150.6376 C   0  0  0  0  0  0  0  0  0  0  0  0
  149.1585  139.6661  154.1554 C   0  0  0  0  0  0  0  0  0  0  0  0
  149.4467  140.8933  154.7856 C   0  0  0  0  0  0  0  0  0  0  0  0
  148.5547  141.9054  154.7306 N   0  3  0  0  0  0  0  0  0  0  0  0
  144.5287  136.6529  150.7891 H   0  0  0  0  0  0  0  0  0  0  0  0
  144.0116  133.1213  150.7266 H   0  0  0  0  0  0  0  0  0  0  0  0
  145.4492  142.7391  153.7686 H   0  0  0  0  0  0  0  0  0  0  0  0
  146.8342  143.7764  153.4067 H   0  0  0  0  0  0  0  0  0  0  0  0
  146.3896  143.4426  155.0861 H   0  0  0  0  0  0  0  0  0  0  0  0
  146.0905  140.5176  152.9077 H   0  0  0  0  0  0  0  0  0  0  0  0
  148.3073  137.7964  152.3799 H   0  0  0  0  0  0  0  0  0  0  0  0
  147.2316  136.3122  151.6340 H   0  0  0  0  0  0  0  0  0  0  0  0
  143.9424  136.1886  153.3140 H   0  0  0  0  0  0  0  0  0  0  0  0
  143.5672  133.6456  153.2767 H   0  0  0  0  0  0  0  0  0  0  0  0
  146.5687  132.8035  152.3934 H   0  0  0  0  0  0  0  0  0  0  0  0
  145.2432  131.6517  152.3862 H   0  0  0  0  0  0  0  0  0  0  0  0
  147.2346  131.6097  150.8190 H   0  0  0  0  0  0  0  0  0  0  0  0
  145.1795  134.7575  149.5994 H   0  0  0  0  0  0  0  0  0  0  0  0
  146.5865  134.5345  150.6115 H   0  0  0  0  0  0  0  0  0  0  0  0
  149.8900  138.8730  154.1931 H   0  0  0  0  0  0  0  0  0  0  0  0
  150.3607  141.0950  155.3246 H   0  0  0  0  0  0  0  0  0  0  0  0
  148.7852  142.7843  155.1951 H   0  0  0  0  0  0  0  0  0  0  0  0
  1  2  1  0  0  0  0
  1 21  1  0  0  0  0
  1 22  1  0  0  0  0
  1 23  1  0  0  0  0
  2 18  1  0  0  0  0
  2  3  2  0  0  0  0
  3  4  1  0  0  0  0
  3 24  1  0  0  0  0
  4  5  1  0  0  0  0
  4 16  2  0  0  0  0
  5  6  1  0  0  0  0
  5 25  1  0  0  0  0
  6  7  2  0  0  0  0
  6  8  1  0  0  0  0
  8  9  1  0  0  0  0
  8 26  1  0  0  0  0
  9 19  1  0  0  0  0
  9 15  1  0  0  0  0
  9 10  1  0  0  0  0
 10 11  2  0  0  0  0
 10 27  1  0  0  0  0
 11 12  1  0  0  0  0
 11 28  1  0  0  0  0
 12 20  1  0  0  0  0
 12 13  1  0  0  0  0
 12 15  1  0  0  0  0
 13 14  1  0  0  0  0
 13 29  1  0  0  0  0
 13 30  1  0  0  0  0
 14 31  1  0  0  0  0
 15 32  1  0  0  0  0
 15 33  1  0  0  0  0
 16 17  1  0  0  0  0
 16 34  1  0  0  0  0
 17 18  2  0  0  0  0
 17 35  1  0  0  0  0
 18 36  1  0  0  0  0
M  CHG  1  18   1
M  END
> <s_m_source_file>
AV-unprocessed.smi

> <i_m_source_file_index>
3298

> <i_lp_mmshare_version>
43012

> <i_f3d_flags>
0

> <s_epik_input>
W0NIM11jMVtjSF1jKFtjSF1bY0hdbjEpW05IXUMoPU8pW05IXVtDQEBIXTJbQ0hdPVtDSF1bQ0BASF0oW0NIMl0yKVtDSDJdW09IXQ==

> <s_epik_cmdline>
J2VwaWtfcHl0aG9uJywgJy1waCcsICc3LjAnLCAnLXRuJywgJzgnLCAnLW1hJywgJzIwMCcsICctbWV0YWxfYmluZGluZycsICctaW1hZScsICc8aW5maWxlLm1hZT4nLCAnLW9tYWUnLCAnPG91dGZpbGUubWFlPic=

> <r_epik_Ionization_Penalty>
0.443901

> <r_epik_Ionization_Penalty_Charging>
0.443881

> <r_epik_Ionization_Penalty_Neutral>
1.94967e-05

> <r_epik_State_Penalty>
0.446172

> <r_epik_Charging_Adjusted_Penalty>
0.890053

> <i_epik_Tot_Q>
1

> <i_epik_Tot_abs_Q>
1

> <r_epik_Metal_State_Penalty>
0.675842

> <b_epik_Metal_Only>
0

> <s_lp_Force_Field>
OPLS_2005

> <r_lp_Energy>
26.7826

> <b_lp_Chiralities_Consistent>
1

> <s_lp_Variant>
AV-unprocessed.smi:3298-5

> <Gold.Version>
5.8.1

> <Gold.Id.Protein>
6NUR|6NUR_protein|mol2

> <Gold.PLP.Fitness>
45.8876

> <Gold.PLP.PLP>
-31.2257

> <Gold.PLP.part.hbond>
-4.6645

> <Gold.PLP.part.metal>
0.0000

> <Gold.PLP.part.buried>
-1.7872

> <Gold.PLP.part.nonpolar>
-28.9689

> <Gold.PLP.part.repulsive>
3.7645

> <Gold.PLP.ligand.clash>
0.0000

> <Gold.PLP.ligand.torsion>
0.1764

> <Gold.PLP.Chemscore.Hbond>
5.0000

> <Gold.PLP.Chemscore.CHOScore>
0.0000

> <Gold.PLP.Chemscore.Metal>
0.0000

> <Gold.Chemscore.Hbonds>
donor molecule, donor type, donor heavy atom, donor atom, acceptor molecule, acceptor atom, score
      L1  H     5    25       P1  7948  0.99
      L1  H     8    26       P1  7948  1.00
      L1  H    14    31       P1 10747  1.00
      L1  H    18    36       P1  8028  2.00

> <Gold.PLP.Chemscore.Internal.Correction>
0.0147

> <Gold.Rescore>
     Score         DG    S(hbond)    S(metal)    S(lipo)     H(rot)  DE(clash)    DE(int)     intcor
     19.02     -22.37       3.91        0.00      72.19       1.81       1.77       1.58       ----

> <Gold.Chemscore.Fitness>
19.0243

> <Gold.Chemscore.DG>
-22.3740

> <Gold.Chemscore.ZeroCoef>
-5.4800

> <Gold.Chemscore.Hbond>
3.9137

> <Gold.Chemscore.Metal>
0.0000

> <Gold.Chemscore.Lipo>
72.1866

> <Gold.Chemscore.Internal_Hbond>
0.0000

> <Gold.Chemscore.DEClash>
1.7707

> <Gold.Chemscore.DEInternal>
1.5790

> <Gold.Chemscore.Rot>
1.8061

> <Gold.Chemscore.Internal.Correction>
   9.000000E+99

> <Gold.Chemscore.Hbonds>
donor molecule, donor type, donor heavy atom, donor atom, acceptor molecule, acceptor atom, score
      L1  H     5    25       P1  7948  0.94
      L1  H     8    26       P1  7948  0.96
      L1  H    14    31       P1 10747  0.92
      L1  H    18    36       P1  8028  0.97

> <Gold.Chemscore.Hbond.Weighted>
-13.0718

> <Gold.Chemscore.Metal.Weighted>
-0.0000

> <Gold.Chemscore.Lipo.Weighted>
-8.4458

> <Gold.Chemscore.Internal_Hbond.Weighted>
0.0000

> <Gold.Chemscore.DEClash.Weighted>
1.7707

> <Gold.Chemscore.DEInternal.Weighted>
1.5790

> <Gold.Chemscore.Rot.Weighted>
4.6237

> <Gold.Chemscore.Internal.Correction.Weighted>
   9.000000E+99

> <Gold.Protein.RotatedTorsions>
[ 6907 6896 6895 6894 ] final  162.44 input  -60.11 | X-H torsion
[ 7974 7965 7964 7962 ] final  -93.31 input  175.53 | X-H torsion
[ 8008 7997 7996 7995 ] final  -32.10 input   59.86 | X-H torsion
[ 10167 10162 10161 10158 ] final  -94.97 input  -65.29 | X-H torsion
[ 10718 10713 10712 10709 ] final   71.61 input   66.30 | X-H torsion
[ 10763 10752 10751 10750 ] final    0.17 input  -60.55 | X-H torsion
[ 11005 11000 10999 10996 ] final -123.77 input  -57.11 | X-H torsion

> <Gold.Protein.ActiveResidues>
 VAL166  LYS551  ARG553  GLY616  TRP617  ASP618  TYR619  PRO620  LYS621  CYS622 
 ASP623  PHE694  ASN695  SER759  ASP760  ASP761  ALA762  ILE779  LEU786  VAL792 
 PHE793  MET794  SER795  GLU796  ALA797  LYS798  CYS799  TRP800  GLU811  SER814 

> <Gold.Protein.RotatedAtoms>
  151.9404  133.3636  159.3962 H   0  0  0  0  0  0  0  0  0  0  0  0  # atno 6907 bound_to 6896
  150.6999  134.4445  159.5317 H   0  0  0  0  0  0  0  0  0  0  0  0  # atno 6908 bound_to 6896
  152.2101  134.8509  160.0549 H   0  0  0  0  0  0  0  0  0  0  0  0  # atno 6909 bound_to 6896
  145.3883  140.9525  143.2355 H   0  0  0  0  0  0  0  0  0  0  0  0  # atno 7974 bound_to 7965
  154.4191  140.1746  156.1672 H   0  0  0  0  0  0  0  0  0  0  0  0  # atno 8008 bound_to 7997
  155.9790  140.3379  155.6621 H   0  0  0  0  0  0  0  0  0  0  0  0  # atno 8009 bound_to 7997
  155.6526  140.0692  157.2572 H   0  0  0  0  0  0  0  0  0  0  0  0  # atno 8010 bound_to 7997
  140.3089  143.3117  152.0169 H   0  0  0  0  0  0  0  0  0  0  0  0  # atno 10167 bound_to 10162
  157.6460  130.9537  150.0813 H   0  0  0  0  0  0  0  0  0  0  0  0  # atno 10718 bound_to 10713
  153.3241  135.6971  153.7004 H   0  0  0  0  0  0  0  0  0  0  0  0  # atno 10763 bound_to 10752
  153.5833  135.3494  155.2884 H   0  0  0  0  0  0  0  0  0  0  0  0  # atno 10764 bound_to 10752
  154.8604  135.4300  154.2413 H   0  0  0  0  0  0  0  0  0  0  0  0  # atno 10765 bound_to 10752
  140.9893  134.0562  157.3674 H   0  0  0  0  0  0  0  0  0  0  0  0  # atno 11005 bound_to 11000
  144.8458  139.5399  143.6879 LP  0  0  0  0  0  0  0  0  0  0  0  0  # atno 17320 bound_to 7965
  146.2810  139.6876  142.9229 LP  0  0  0  0  0  0  0  0  0  0  0  0  # atno 17321 bound_to 7965
  139.4898  144.6399  151.6898 LP  0  0  0  0  0  0  0  0  0  0  0  0  # atno 17342 bound_to 10162
  140.5585  144.0307  150.6159 LP  0  0  0  0  0  0  0  0  0  0  0  0  # atno 17343 bound_to 10162
  156.1789  130.3649  149.9063 LP  0  0  0  0  0  0  0  0  0  0  0  0  # atno 17370 bound_to 10713
  156.7020  130.8937  151.3600 LP  0  0  0  0  0  0  0  0  0  0  0  0  # atno 17371 bound_to 10713
  139.8985  135.0155  156.7150 LP  0  0  0  0  0  0  0  0  0  0  0  0  # atno 17394 bound_to 11000
  140.7065  133.9260  155.8057 LP  0  0  0  0  0  0  0  0  0  0  0  0  # atno 17395 bound_to 11000

$$$$
