AV-unprocessed.smi:560|AV-procd|sdf|2931|dock9
  -GOLD-   2262023423D 1   1.00000     0.00000
 Structure written by MMmdl.
 42 43  0  0  0  0  0  0  0  0  2 V2000
  149.4862  141.0858  158.3860 C   0  0  0  0  0  0  0  0  0  0  0  0
  150.9699  141.0504  157.9661 C   0  0  1  0  0  0  0  0  0  0  0  0
  151.1742  140.5189  156.5380 C   0  0  0  0  0  0  0  0  0  0  0  0
  152.3026  140.2716  156.1115 O   0  0  0  0  0  0  0  0  0  0  0  0
  150.0626  140.3513  155.8034 N   0  0  0  0  0  0  0  0  0  0  0  0
  150.0207  139.8353  154.4359 C   0  0  2  0  0  0  0  0  0  0  0  0
  148.5940  139.4277  154.0170 C   0  0  0  0  0  0  0  0  0  0  0  0
  148.1175  138.1650  154.7552 C   0  0  0  0  0  0  0  0  0  0  0  0
  149.0634  137.0363  154.5475 N   0  3  2  0  0  0  0  0  0  0  0  0
  148.5762  135.7550  155.1207 C   0  0  0  0  0  0  0  0  0  0  0  0
  147.1623  135.3902  154.6561 C   0  0  0  0  0  0  0  0  0  0  0  0
  146.9722  135.2708  153.3402 N   0  0  0  0  0  0  0  0  0  0  0  0
  146.2515  135.2322  155.4668 O   0  0  0  0  0  0  0  0  0  0  0  0
  150.4331  137.3798  155.0083 C   0  0  0  0  0  0  0  0  0  0  0  0
  150.9680  138.6318  154.2882 C   0  0  0  0  0  0  0  0  0  0  0  0
  151.6159  142.3490  158.1226 N   0  0  0  0  0  0  0  0  0  0  0  0
  151.2874  143.5401  157.5074 C   0  0  0  0  0  0  0  0  0  0  0  0
  152.1376  144.4968  157.9830 C   0  0  0  0  0  0  0  0  0  0  0  0
  152.9578  143.7909  158.9061 C   0  0  0  0  0  0  0  0  0  0  0  0
  152.6386  142.5103  158.9942 N   0  0  0  0  0  0  0  0  0  0  0  0
  149.0354  140.0950  158.3205 H   0  0  0  0  0  0  0  0  0  0  0  0
  148.8979  141.7576  157.7594 H   0  0  0  0  0  0  0  0  0  0  0  0
  149.3828  141.4232  159.4176 H   0  0  0  0  0  0  0  0  0  0  0  0
  151.4759  140.3577  158.6404 H   0  0  0  0  0  0  0  0  0  0  0  0
  149.1775  140.5708  156.2363 H   0  0  0  0  0  0  0  0  0  0  0  0
  150.3716  140.6257  153.7697 H   0  0  0  0  0  0  0  0  0  0  0  0
  147.8928  140.2458  154.1845 H   0  0  0  0  0  0  0  0  0  0  0  0
  148.5789  139.2366  152.9431 H   0  0  0  0  0  0  0  0  0  0  0  0
  148.0157  138.3669  155.8226 H   0  0  0  0  0  0  0  0  0  0  0  0
  147.1251  137.8959  154.3925 H   0  0  0  0  0  0  0  0  0  0  0  0
  149.2275  134.9394  154.8036 H   0  0  0  0  0  0  0  0  0  0  0  0
  148.6251  135.7900  156.2103 H   0  0  0  0  0  0  0  0  0  0  0  0
  146.0619  135.0280  152.9767 H   0  0  0  0  0  0  0  0  0  0  0  0
  147.7457  135.4205  152.7075 H   0  0  0  0  0  0  0  0  0  0  0  0
  150.4267  137.5337  156.0886 H   0  0  0  0  0  0  0  0  0  0  0  0
  151.1063  136.5445  154.8130 H   0  0  0  0  0  0  0  0  0  0  0  0
  151.0920  138.4046  153.2284 H   0  0  0  0  0  0  0  0  0  0  0  0
  151.9616  138.8841  154.6610 H   0  0  0  0  0  0  0  0  0  0  0  0
  150.4839  143.6081  156.7891 H   0  0  0  0  0  0  0  0  0  0  0  0
  152.1673  145.5425  157.7153 H   0  0  0  0  0  0  0  0  0  0  0  0
  153.7665  144.1685  159.5140 H   0  0  0  0  0  0  0  0  0  0  0  0
  149.1288  136.8873  153.5501 H   0  0  0  0  0  0  0  0  0  0  0  0
  1  2  1  0  0  0  0
  1 21  1  0  0  0  0
  1 22  1  0  0  0  0
  1 23  1  0  0  0  0
  2  3  1  0  0  0  0
  2 16  1  0  0  0  0
  2 24  1  0  0  0  0
  3  4  2  0  0  0  0
  3  5  1  0  0  0  0
  5  6  1  0  0  0  0
  5 25  1  0  0  0  0
  6 15  1  0  0  0  0
  6  7  1  0  0  0  0
  6 26  1  0  0  0  0
  7  8  1  0  0  0  0
  7 27  1  0  0  0  0
  7 28  1  0  0  0  0
  8  9  1  0  0  0  0
  8 29  1  0  0  0  0
  8 30  1  0  0  0  0
  9 10  1  0  0  0  0
  9 14  1  0  0  0  0
  9 42  1  0  0  0  0
 10 11  1  0  0  0  0
 10 31  1  0  0  0  0
 10 32  1  0  0  0  0
 11 12  1  0  0  0  0
 11 13  2  0  0  0  0
 12 33  1  0  0  0  0
 12 34  1  0  0  0  0
 14 15  1  0  0  0  0
 14 35  1  0  0  0  0
 14 36  1  0  0  0  0
 15 37  1  0  0  0  0
 15 38  1  0  0  0  0
 16 20  1  0  0  0  0
 16 17  1  0  0  0  0
 17 18  2  0  0  0  0
 17 39  1  0  0  0  0
 18 19  1  0  0  0  0
 18 40  1  0  0  0  0
 19 20  2  0  0  0  0
 19 41  1  0  0  0  0
M  CHG  1   9   1
M  END
> <s_m_source_file>
AV-unprocessed.smi

> <i_m_source_file_index>
560

> <i_lp_mmshare_version>
43012

> <i_f3d_flags>
0

> <s_epik_input>
bjFbY0hdW2NIXVtjSF1uMVtDQEhdKFtDSDNdKUMoPU8pW05IXVtDSF0yW0NIMl1bQ0gyXU4oW0NIMl1bQ0gyXTIpW0NIMl1DKD1PKVtOSDJd

> <s_epik_cmdline>
J2VwaWtfcHl0aG9uJywgJy1waCcsICc3LjAnLCAnLXRuJywgJzgnLCAnLW1hJywgJzIwMCcsICctbWV0YWxfYmluZGluZycsICctaW1hZScsICc8aW5maWxlLm1hZT4nLCAnLW9tYWUnLCAnPG91dGZpbGUubWFlPic=

> <r_lp_tautomer_probability>
1

> <r_epik_Ionization_Penalty>
1.02943

> <r_epik_Ionization_Penalty_Charging>
1.02936

> <r_epik_Ionization_Penalty_Neutral>
7.4537e-05

> <r_epik_State_Penalty>
1.08036

> <r_epik_Charging_Adjusted_Penalty>
2.10972

> <i_epik_Tot_Q>
1

> <i_epik_Tot_abs_Q>
1

> <r_epik_Metal_State_Penalty>
1.09347

> <b_epik_Metal_Only>
0

> <s_lp_Force_Field>
OPLS_2005

> <r_lp_Energy>
15.8217

> <b_lp_Chiralities_Consistent>
1

> <s_lp_Variant>
AV-unprocessed.smi:560-6

> <Gold.Version>
5.8.1

> <Gold.Id.Protein>
6NUR|6NUR_protein|mol2

> <Gold.PLP.Fitness>
46.2894

> <Gold.PLP.PLP>
-31.9884

> <Gold.PLP.part.hbond>
-3.0000

> <Gold.PLP.part.metal>
0.0000

> <Gold.PLP.part.buried>
-1.5093

> <Gold.PLP.part.nonpolar>
-27.6108

> <Gold.PLP.part.repulsive>
0.0890

> <Gold.PLP.ligand.clash>
0.1376

> <Gold.PLP.ligand.torsion>
0.3448

> <Gold.PLP.Chemscore.Hbond>
4.0000

> <Gold.PLP.Chemscore.CHOScore>
1.0000

> <Gold.PLP.Chemscore.Metal>
0.0000

> <Gold.Chemscore.Hbonds>
donor molecule, donor type, donor heavy atom, donor atom, acceptor molecule, acceptor atom, score
      L1  H     9    42       P1  7948  2.00
      L1  H    12    34       P1  7948  1.00
      P1  H  7997  8009       L1     4  0.94
      L1  C    17    39       P1  8028  1.00

> <Gold.PLP.Chemscore.Internal.Correction>
0.1282

> <Gold.Rescore>
     Score         DG    S(hbond)    S(metal)    S(lipo)     H(rot)  DE(clash)    DE(int)     intcor
     16.44     -18.27       2.98        0.00      79.56       2.52       0.05       1.78       ----

> <Gold.Chemscore.Fitness>
16.4421

> <Gold.Chemscore.DG>
-18.2747

> <Gold.Chemscore.ZeroCoef>
-5.4800

> <Gold.Chemscore.Hbond>
2.9784

> <Gold.Chemscore.Metal>
0.0000

> <Gold.Chemscore.Lipo>
79.5636

> <Gold.Chemscore.Internal_Hbond>
0.0000

> <Gold.Chemscore.DEClash>
0.0527

> <Gold.Chemscore.DEInternal>
1.7799

> <Gold.Chemscore.Rot>
2.5243

> <Gold.Chemscore.Internal.Correction>
   9.000000E+99

> <Gold.Chemscore.Hbonds>
donor molecule, donor type, donor heavy atom, donor atom, acceptor molecule, acceptor atom, score
      L1  H     9    42       P1  7948  0.99
      L1  H    12    34       P1  7948  1.00
      P1  H  7997  8009       L1     4  0.87

> <Gold.Chemscore.Hbond.Weighted>
-9.9480

> <Gold.Chemscore.Metal.Weighted>
-0.0000

> <Gold.Chemscore.Lipo.Weighted>
-9.3089

> <Gold.Chemscore.Internal_Hbond.Weighted>
0.0000

> <Gold.Chemscore.DEClash.Weighted>
0.0527

> <Gold.Chemscore.DEInternal.Weighted>
1.7799

> <Gold.Chemscore.Rot.Weighted>
6.4622

> <Gold.Chemscore.Internal.Correction.Weighted>
   9.000000E+99

> <Gold.Protein.RotatedTorsions>
[ 6907 6896 6895 6894 ] final   46.81 input  -60.11 | X-H torsion
[ 7974 7965 7964 7962 ] final  126.08 input  175.53 | X-H torsion
[ 8008 7997 7996 7995 ] final -167.22 input   59.86 | X-H torsion
[ 10167 10162 10161 10158 ] final   93.45 input  -65.29 | X-H torsion
[ 10718 10713 10712 10709 ] final -146.50 input   66.30 | X-H torsion
[ 10763 10752 10751 10750 ] final  -46.84 input  -60.55 | X-H torsion
[ 11005 11000 10999 10996 ] final  116.13 input  -57.11 | X-H torsion

> <Gold.Protein.ActiveResidues>
 VAL166  LYS551  ARG553  GLY616  TRP617  ASP618  TYR619  PRO620  LYS621  CYS622 
 ASP623  PHE694  ASN695  SER759  ASP760  ASP761  ALA762  ILE779  LEU786  VAL792 
 PHE793  MET794  SER795  GLU796  ALA797  LYS798  CYS799  TRP800  GLU811  SER814 

> <Gold.Protein.RotatedAtoms>
  152.2608  134.8036  160.0430 H   0  0  0  0  0  0  0  0  0  0  0  0  # atno 6907 bound_to 6896
  151.8683  133.3465  159.3734 H   0  0  0  0  0  0  0  0  0  0  0  0  # atno 6908 bound_to 6896
  150.7116  134.5065  159.5631 H   0  0  0  0  0  0  0  0  0  0  0  0  # atno 6909 bound_to 6896
  145.0657  139.3769  143.4983 H   0  0  0  0  0  0  0  0  0  0  0  0  # atno 7974 bound_to 7965
  155.8746  140.0999  157.1527 H   0  0  0  0  0  0  0  0  0  0  0  0  # atno 8008 bound_to 7997
  154.4000  140.1340  156.4184 H   0  0  0  0  0  0  0  0  0  0  0  0  # atno 8009 bound_to 7997
  155.7711  140.3461  155.5250 H   0  0  0  0  0  0  0  0  0  0  0  0  # atno 8010 bound_to 7997
  139.8179  144.6744  150.9556 H   0  0  0  0  0  0  0  0  0  0  0  0  # atno 10167 bound_to 10162
  156.3957  130.7908  151.2115 H   0  0  0  0  0  0  0  0  0  0  0  0  # atno 10718 bound_to 10713
  154.0516  135.6630  153.4801 H   0  0  0  0  0  0  0  0  0  0  0  0  # atno 10763 bound_to 10752
  153.0461  135.5113  154.7745 H   0  0  0  0  0  0  0  0  0  0  0  0  # atno 10764 bound_to 10752
  154.6753  135.3036  154.9653 H   0  0  0  0  0  0  0  0  0  0  0  0  # atno 10765 bound_to 10752
  139.9031  134.9594  156.7151 H   0  0  0  0  0  0  0  0  0  0  0  0  # atno 11005 bound_to 11000
  146.3526  140.0378  142.8645 LP  0  0  0  0  0  0  0  0  0  0  0  0  # atno 17320 bound_to 7965
  145.1353  140.9541  143.4520 LP  0  0  0  0  0  0  0  0  0  0  0  0  # atno 17321 bound_to 7965
  140.7815  143.4120  151.0977 LP  0  0  0  0  0  0  0  0  0  0  0  0  # atno 17342 bound_to 10162
  139.7783  143.8393  152.3133 LP  0  0  0  0  0  0  0  0  0  0  0  0  # atno 17343 bound_to 10162
  157.7501  131.0302  150.4126 LP  0  0  0  0  0  0  0  0  0  0  0  0  # atno 17370 bound_to 10713
  156.4396  130.3989  149.6706 LP  0  0  0  0  0  0  0  0  0  0  0  0  # atno 17371 bound_to 10713
  140.7045  133.9277  155.8045 LP  0  0  0  0  0  0  0  0  0  0  0  0  # atno 17394 bound_to 11000
  141.0347  134.0706  157.3973 LP  0  0  0  0  0  0  0  0  0  0  0  0  # atno 17395 bound_to 11000

$$$$
