AV-unprocessed.smi:2773|AV-procd|sdf|10676|dock3
  -GOLD-   2272015123D 1   1.00000     0.00000
 Structure written by MMmdl.
 30 31  0  0  0  0  0  0  0  0  1 V2000
  147.8679  138.7699  153.9842 C   0  0  0  0  0  0  0  0  0  0  0  0
  147.9016  140.1600  154.5809 C   0  0  2  0  0  0  0  0  0  0  0  0
  147.4489  141.3391  153.7623 C   0  0  0  0  0  0  0  0  0  0  0  0
  148.9133  141.1849  154.1099 C   0  0  1  0  0  0  0  0  0  0  0  0
  149.4414  142.1078  155.0695 N   0  0  0  0  0  0  0  0  0  0  0  0
  150.2886  141.8553  156.0837 C   0  0  0  0  0  0  0  0  0  0  0  0
  150.7378  140.7251  156.2665 O   0  0  0  0  0  0  0  0  0  0  0  0
  150.6087  142.9361  156.8234 N   0  0  0  0  0  0  0  0  0  0  0  0
  151.4412  143.0033  157.9717 C   0  0  0  0  0  0  0  0  0  0  0  0
  151.4607  144.2560  158.6237 C   0  0  0  0  0  0  0  0  0  0  0  0
  152.2537  144.4241  159.7744 C   0  0  0  0  0  0  0  0  0  0  0  0
  153.0073  143.3346  160.2457 C   0  0  0  0  0  0  0  0  0  0  0  0
  152.9335  142.1147  159.5400 C   0  0  0  0  0  0  0  0  0  0  0  0
  153.7111  140.8850  159.9878 C   0  0  0  0  0  0  0  0  0  0  0  0
  153.3034  139.8181  159.3001 F   0  0  0  0  0  0  0  0  0  0  0  0
  155.0223  141.0337  159.7954 F   0  0  0  0  0  0  0  0  0  0  0  0
  153.4977  140.6676  161.2857 F   0  0  0  0  0  0  0  0  0  0  0  0
  152.1701  141.9584  158.4347 N   0  0  0  0  0  0  0  0  0  0  0  0
  148.1330  138.7948  152.9267 H   0  0  0  0  0  0  0  0  0  0  0  0
  146.8689  138.3447  154.0824 H   0  0  0  0  0  0  0  0  0  0  0  0
  148.5749  138.1231  154.5040 H   0  0  0  0  0  0  0  0  0  0  0  0
  147.6433  140.1872  155.6382 H   0  0  0  0  0  0  0  0  0  0  0  0
  147.1602  141.1597  152.7284 H   0  0  0  0  0  0  0  0  0  0  0  0
  146.8804  142.1136  154.2738 H   0  0  0  0  0  0  0  0  0  0  0  0
  149.5514  140.8983  153.2753 H   0  0  0  0  0  0  0  0  0  0  0  0
  149.1915  143.0758  154.9273 H   0  0  0  0  0  0  0  0  0  0  0  0
  150.1934  143.8100  156.5367 H   0  0  0  0  0  0  0  0  0  0  0  0
  150.8749  145.0828  158.2490 H   0  0  0  0  0  0  0  0  0  0  0  0
  152.2818  145.3741  160.2875 H   0  0  0  0  0  0  0  0  0  0  0  0
  153.6219  143.4399  161.1273 H   0  0  0  0  0  0  0  0  0  0  0  0
  1  2  1  0  0  0  0
  1 19  1  0  0  0  0
  1 20  1  0  0  0  0
  1 21  1  0  0  0  0
  2  4  1  0  0  0  0
  2  3  1  0  0  0  0
  2 22  1  0  0  0  0
  3  4  1  0  0  0  0
  3 23  1  0  0  0  0
  3 24  1  0  0  0  0
  4  5  1  0  0  0  0
  4 25  1  0  0  0  0
  5  6  1  0  0  0  0
  5 26  1  0  0  0  0
  6  7  2  0  0  0  0
  6  8  1  0  0  0  0
  8  9  1  0  0  0  0
  8 27  1  0  0  0  0
  9 18  1  0  0  0  0
  9 10  2  0  0  0  0
 10 11  1  0  0  0  0
 10 28  1  0  0  0  0
 11 12  2  0  0  0  0
 11 29  1  0  0  0  0
 12 13  1  0  0  0  0
 12 30  1  0  0  0  0
 13 14  1  0  0  0  0
 13 18  2  0  0  0  0
 14 15  1  0  0  0  0
 14 16  1  0  0  0  0
 14 17  1  0  0  0  0
M  END
> <s_m_source_file>
AV-unprocessed.smi

> <i_m_source_file_index>
2773

> <i_lp_mmshare_version>
43012

> <i_f3d_flags>
0

> <s_epik_input>
W0NIM11bQ0BASF0xW0NIMl1bQ0BIXTFbTkhdQyg9TylbTkhdYzJbY0hdW2NIXVtjSF1jKG4yKUMoRikoRilG

> <s_epik_cmdline>
J2VwaWtfcHl0aG9uJywgJy1waCcsICc3LjAnLCAnLXRuJywgJzgnLCAnLW1hJywgJzIwMCcsICctbWV0YWxfYmluZGluZycsICctaW1hZScsICc8aW5maWxlLm1hZT4nLCAnLW9tYWUnLCAnPG91dGZpbGUubWFlPic=

> <r_lp_tautomer_probability>
1

> <r_epik_Ionization_Penalty>
4.04275e-05

> <r_epik_Ionization_Penalty_Charging>
0

> <r_epik_Ionization_Penalty_Neutral>
4.04275e-05

> <r_epik_State_Penalty>
-0

> <r_epik_Charging_Adjusted_Penalty>
0

> <i_epik_Tot_Q>
0

> <i_epik_Tot_abs_Q>
0

> <r_epik_Metal_State_Penalty>
-0

> <b_epik_Metal_Only>
0

> <s_lp_Force_Field>
OPLS_2005

> <r_lp_Energy>
31.927

> <b_lp_Chiralities_Consistent>
1

> <s_lp_Variant>
AV-unprocessed.smi:2773-1

> <Gold.Version>
5.8.1

> <Gold.Id.Protein>
6NUR|6NUR_protein|mol2

> <Gold.PLP.Fitness>
44.9695

> <Gold.PLP.PLP>
-39.8720

> <Gold.PLP.part.hbond>
-2.0000

> <Gold.PLP.part.metal>
0.0000

> <Gold.PLP.part.buried>
-5.0685

> <Gold.PLP.part.nonpolar>
-33.7604

> <Gold.PLP.part.repulsive>
0.2761

> <Gold.PLP.ligand.clash>
0.0000

> <Gold.PLP.ligand.torsion>
0.4684

> <Gold.PLP.Chemscore.Hbond>
2.0000

> <Gold.PLP.Chemscore.CHOScore>
0.0000

> <Gold.PLP.Chemscore.Metal>
0.0000

> <Gold.Chemscore.Hbonds>
donor molecule, donor type, donor heavy atom, donor atom, acceptor molecule, acceptor atom, score
      L1  H     5    26       P1  8028  0.99
      L1  H     8    27       P1  8028  1.00

> <Gold.PLP.Chemscore.Internal.Correction>
0.0343

> <Gold.Rescore>
     Score         DG    S(hbond)    S(metal)    S(lipo)     H(rot)  DE(clash)    DE(int)     intcor
     17.38     -18.96       1.94        0.00      81.65       1.00       0.03       1.55       ----

> <Gold.Chemscore.Fitness>
17.3752

> <Gold.Chemscore.DG>
-18.9592

> <Gold.Chemscore.ZeroCoef>
-5.4800

> <Gold.Chemscore.Hbond>
1.9420

> <Gold.Chemscore.Metal>
0.0000

> <Gold.Chemscore.Lipo>
81.6493

> <Gold.Chemscore.Internal_Hbond>
0.0000

> <Gold.Chemscore.DEClash>
0.0334

> <Gold.Chemscore.DEInternal>
1.5505

> <Gold.Chemscore.Rot>
1.0000

> <Gold.Chemscore.Internal.Correction>
   9.000000E+99

> <Gold.Chemscore.Hbonds>
donor molecule, donor type, donor heavy atom, donor atom, acceptor molecule, acceptor atom, score
      L1  H     5    26       P1  8028  0.93
      L1  H     8    27       P1  8028  0.95

> <Gold.Chemscore.Hbond.Weighted>
-6.4862

> <Gold.Chemscore.Metal.Weighted>
-0.0000

> <Gold.Chemscore.Lipo.Weighted>
-9.5530

> <Gold.Chemscore.Internal_Hbond.Weighted>
0.0000

> <Gold.Chemscore.DEClash.Weighted>
0.0334

> <Gold.Chemscore.DEInternal.Weighted>
1.5505

> <Gold.Chemscore.Rot.Weighted>
2.5600

> <Gold.Chemscore.Internal.Correction.Weighted>
   9.000000E+99

> <Gold.Protein.RotatedTorsions>
[ 6907 6896 6895 6894 ] final -104.89 input  -60.11 | X-H torsion
[ 7974 7965 7964 7962 ] final -130.24 input  175.53 | X-H torsion
[ 8008 7997 7996 7995 ] final  151.94 input   59.86 | X-H torsion
[ 10167 10162 10161 10158 ] final  143.07 input  -65.29 | X-H torsion
[ 10718 10713 10712 10709 ] final  -58.49 input   66.30 | X-H torsion
[ 10763 10752 10751 10750 ] final   69.77 input  -60.55 | X-H torsion
[ 11005 11000 10999 10996 ] final  162.64 input  -57.11 | X-H torsion

> <Gold.Protein.ActiveResidues>
 VAL166  LYS551  ARG553  GLY616  TRP617  ASP618  TYR619  PRO620  LYS621  CYS622 
 ASP623  PHE694  ASN695  SER759  ASP760  ASP761  ALA762  ILE779  LEU786  VAL792 
 PHE793  MET794  SER795  GLU796  ALA797  LYS798  CYS799  TRP800  GLU811  SER814 

> <Gold.Protein.RotatedAtoms>
  150.7309  134.0210  159.3700 H   0  0  0  0  0  0  0  0  0  0  0  0  # atno 6907 bound_to 6896
  151.8174  135.0660  160.0430 H   0  0  0  0  0  0  0  0  0  0  0  0  # atno 6908 bound_to 6896
  152.3028  133.5637  159.5666 H   0  0  0  0  0  0  0  0  0  0  0  0  # atno 6909 bound_to 6896
  144.9493  140.7327  143.4797 H   0  0  0  0  0  0  0  0  0  0  0  0  # atno 7974 bound_to 7965
  156.2651  140.2034  156.6255 H   0  0  0  0  0  0  0  0  0  0  0  0  # atno 8008 bound_to 7997
  154.6724  140.0549  157.0203 H   0  0  0  0  0  0  0  0  0  0  0  0  # atno 8009 bound_to 7997
  155.1118  140.3216  155.4522 H   0  0  0  0  0  0  0  0  0  0  0  0  # atno 8010 bound_to 7997
  139.4978  144.6065  151.6367 H   0  0  0  0  0  0  0  0  0  0  0  0  # atno 10167 bound_to 10162
  156.1131  130.4173  150.0584 H   0  0  0  0  0  0  0  0  0  0  0  0  # atno 10718 bound_to 10713
  153.0305  135.5198  154.7339 H   0  0  0  0  0  0  0  0  0  0  0  0  # atno 10763 bound_to 10752
  154.6358  135.2906  155.0164 H   0  0  0  0  0  0  0  0  0  0  0  0  # atno 10764 bound_to 10752
  154.1100  135.6623  153.4936 H   0  0  0  0  0  0  0  0  0  0  0  0  # atno 10765 bound_to 10752
  140.2278  134.8147  157.3286 H   0  0  0  0  0  0  0  0  0  0  0  0  # atno 11005 bound_to 11000
  145.2868  139.1898  143.4761 LP  0  0  0  0  0  0  0  0  0  0  0  0  # atno 17320 bound_to 7965
  146.3315  140.2839  142.8611 LP  0  0  0  0  0  0  0  0  0  0  0  0  # atno 17321 bound_to 7965
  140.5728  144.0080  150.6225 LP  0  0  0  0  0  0  0  0  0  0  0  0  # atno 17342 bound_to 10162
  140.3203  143.3141  152.0791 LP  0  0  0  0  0  0  0  0  0  0  0  0  # atno 17343 bound_to 10162
  156.8542  130.9469  151.3623 LP  0  0  0  0  0  0  0  0  0  0  0  0  # atno 17370 bound_to 10713
  157.6313  130.8732  149.9280 LP  0  0  0  0  0  0  0  0  0  0  0  0  # atno 17371 bound_to 10713
  140.1782  134.4523  155.7788 LP  0  0  0  0  0  0  0  0  0  0  0  0  # atno 17394 bound_to 11000
  141.2219  133.6972  156.7824 LP  0  0  0  0  0  0  0  0  0  0  0  0  # atno 17395 bound_to 11000

$$$$
