AV-unprocessed.smi:1482|AV-procd|sdf|5988|dock7
  -GOLD-   22720 6 83D 1   1.00000     0.00000
 Structure written by MMmdl.
 36 37  0  0  0  0  0  0  0  0  1 V2000
  144.6299  140.9006  159.4768 C   0  0  0  0  0  0  0  0  0  0  0  0
  145.8603  141.5242  159.8014 O   0  0  0  0  0  0  0  0  0  0  0  0
  145.9501  142.8439  159.2912 C   0  0  0  0  0  0  0  0  0  0  0  0
  146.0121  142.7870  157.7626 C   0  0  0  0  0  0  0  0  0  0  0  0
  147.2712  142.2420  157.3817 O   0  0  0  0  0  0  0  0  0  0  0  0
  147.4311  141.7729  156.0928 C   0  0  0  0  0  0  0  0  0  0  0  0
  146.3428  141.7320  155.2828 N   0  0  0  0  0  0  0  0  0  0  0  0
  146.4958  141.2853  154.0188 C   0  0  0  0  0  0  0  0  0  0  0  0
  147.7305  140.8573  153.4964 C   0  0  0  0  0  0  0  0  0  0  0  0
  148.8590  140.8973  154.3354 C   0  0  0  0  0  0  0  0  0  0  0  0
  148.7148  141.3608  155.6602 C   0  0  0  0  0  0  0  0  0  0  0  0
  149.9257  141.4164  156.5814 C   0  0  0  0  0  0  0  0  0  0  0  0
  150.2236  142.7655  157.0480 N   0  0  0  0  0  0  0  0  0  0  0  0
  151.1988  143.0798  157.9143 C   0  0  0  0  0  0  0  0  0  0  0  0
  151.9558  142.2410  158.4055 O   0  0  0  0  0  0  0  0  0  0  0  0
  151.2825  144.5376  158.2292 C   0  0  0  0  0  0  0  0  0  0  0  0
  152.3652  144.9880  159.1889 C   0  0  0  0  0  0  0  0  0  0  0  0
  150.9249  144.9758  159.6350 C   0  0  0  0  0  0  0  0  0  0  0  0
  144.6108  139.8916  159.8883 H   0  0  0  0  0  0  0  0  0  0  0  0
  144.4978  140.8261  158.3966 H   0  0  0  0  0  0  0  0  0  0  0  0
  143.7866  141.4508  159.8956 H   0  0  0  0  0  0  0  0  0  0  0  0
  145.0850  143.4289  159.6074 H   0  0  0  0  0  0  0  0  0  0  0  0
  146.8423  143.3357  159.6815 H   0  0  0  0  0  0  0  0  0  0  0  0
  145.2004  142.1638  157.3838 H   0  0  0  0  0  0  0  0  0  0  0  0
  145.8899  143.7910  157.3531 H   0  0  0  0  0  0  0  0  0  0  0  0
  145.6071  141.2697  153.4053 H   0  0  0  0  0  0  0  0  0  0  0  0
  147.8094  140.5082  152.4776 H   0  0  0  0  0  0  0  0  0  0  0  0
  149.8223  140.5771  153.9662 H   0  0  0  0  0  0  0  0  0  0  0  0
  149.8148  140.7477  157.4357 H   0  0  0  0  0  0  0  0  0  0  0  0
  150.7913  141.0527  156.0274 H   0  0  0  0  0  0  0  0  0  0  0  0
  149.6477  143.5127  156.6884 H   0  0  0  0  0  0  0  0  0  0  0  0
  151.0251  145.2248  157.4243 H   0  0  0  0  0  0  0  0  0  0  0  0
  153.0274  144.2372  159.6169 H   0  0  0  0  0  0  0  0  0  0  0  0
  152.8311  145.9510  158.9906 H   0  0  0  0  0  0  0  0  0  0  0  0
  150.4136  145.9306  159.7387 H   0  0  0  0  0  0  0  0  0  0  0  0
  150.6325  144.2174  160.3591 H   0  0  0  0  0  0  0  0  0  0  0  0
  1  2  1  0  0  0  0
  1 19  1  0  0  0  0
  1 20  1  0  0  0  0
  1 21  1  0  0  0  0
  2  3  1  0  0  0  0
  3  4  1  0  0  0  0
  3 22  1  0  0  0  0
  3 23  1  0  0  0  0
  4  5  1  0  0  0  0
  4 24  1  0  0  0  0
  4 25  1  0  0  0  0
  5  6  1  0  0  0  0
  6 11  1  0  0  0  0
  6  7  2  0  0  0  0
  7  8  1  0  0  0  0
  8  9  2  0  0  0  0
  8 26  1  0  0  0  0
  9 10  1  0  0  0  0
  9 27  1  0  0  0  0
 10 11  2  0  0  0  0
 10 28  1  0  0  0  0
 11 12  1  0  0  0  0
 12 13  1  0  0  0  0
 12 29  1  0  0  0  0
 12 30  1  0  0  0  0
 13 14  1  0  0  0  0
 13 31  1  0  0  0  0
 14 15  2  0  0  0  0
 14 16  1  0  0  0  0
 16 18  1  0  0  0  0
 16 17  1  0  0  0  0
 16 32  1  0  0  0  0
 17 18  1  0  0  0  0
 17 33  1  0  0  0  0
 17 34  1  0  0  0  0
 18 35  1  0  0  0  0
 18 36  1  0  0  0  0
M  END
> <s_m_source_file>
AV-unprocessed.smi

> <i_m_source_file_index>
1482

> <i_lp_mmshare_version>
43012

> <i_f3d_flags>
0

> <s_epik_input>
W0NIM11PW0NIMl1bQ0gyXU9jMW5bY0hdW2NIXVtjSF1jMVtDSDJdW05IXUMoPU8pW0NIXTJbQ0gyXVtDSDJdMg==

> <s_epik_cmdline>
J2VwaWtfcHl0aG9uJywgJy1waCcsICc3LjAnLCAnLXRuJywgJzgnLCAnLW1hJywgJzIwMCcsICctbWV0YWxfYmluZGluZycsICctaW1hZScsICc8aW5maWxlLm1hZT4nLCAnLW9tYWUnLCAnPG91dGZpbGUubWFlPic=

> <r_lp_tautomer_probability>
1

> <r_epik_Ionization_Penalty>
6.12052e-05

> <r_epik_Ionization_Penalty_Charging>
0

> <r_epik_Ionization_Penalty_Neutral>
6.12052e-05

> <r_epik_State_Penalty>
-0

> <r_epik_Charging_Adjusted_Penalty>
0

> <i_epik_Tot_Q>
0

> <i_epik_Tot_abs_Q>
0

> <r_epik_Metal_State_Penalty>
-0

> <b_epik_Metal_Only>
0

> <s_lp_Force_Field>
OPLS_2005

> <r_lp_Energy>
6.94905

> <b_lp_Chiralities_Consistent>
1

> <s_lp_Variant>
AV-unprocessed.smi:1482-1

> <Gold.Version>
5.8.1

> <Gold.Id.Protein>
6NUR|6NUR_protein|mol2

> <Gold.PLP.Fitness>
40.4804

> <Gold.PLP.PLP>
-31.7518

> <Gold.PLP.part.hbond>
-2.0000

> <Gold.PLP.part.metal>
0.0000

> <Gold.PLP.part.buried>
-4.6209

> <Gold.PLP.part.nonpolar>
-26.0312

> <Gold.PLP.part.repulsive>
0.3126

> <Gold.PLP.ligand.clash>
0.0000

> <Gold.PLP.ligand.torsion>
0.2100

> <Gold.PLP.Chemscore.Hbond>
2.0000

> <Gold.PLP.Chemscore.CHOScore>
1.0000

> <Gold.PLP.Chemscore.Metal>
0.0000

> <Gold.Chemscore.Hbonds>
donor molecule, donor type, donor heavy atom, donor atom, acceptor molecule, acceptor atom, score
      L1  H    13    31       P1  8028  1.00
      P1  H  6934  6946       L1     2  1.00
      L1  C     8    26       P1 10175  1.00

> <Gold.PLP.Chemscore.Internal.Correction>
0.1486

> <Gold.Rescore>
     Score         DG    S(hbond)    S(metal)    S(lipo)     H(rot)  DE(clash)    DE(int)     intcor
     14.79     -15.19       1.98        0.00      74.79       2.21       0.17       0.22       ----

> <Gold.Chemscore.Fitness>
14.7950

> <Gold.Chemscore.DG>
-15.1900

> <Gold.Chemscore.ZeroCoef>
-5.4800

> <Gold.Chemscore.Hbond>
1.9838

> <Gold.Chemscore.Metal>
0.0000

> <Gold.Chemscore.Lipo>
74.7896

> <Gold.Chemscore.Internal_Hbond>
0.0000

> <Gold.Chemscore.DEClash>
0.1711

> <Gold.Chemscore.DEInternal>
0.2239

> <Gold.Chemscore.Rot>
2.2134

> <Gold.Chemscore.Internal.Correction>
   9.000000E+99

> <Gold.Chemscore.Hbonds>
donor molecule, donor type, donor heavy atom, donor atom, acceptor molecule, acceptor atom, score
      L1  H    13    31       P1  8028  1.00
      P1  H  6934  6946       L1     2  0.90

> <Gold.Chemscore.Hbond.Weighted>
-6.6259

> <Gold.Chemscore.Metal.Weighted>
-0.0000

> <Gold.Chemscore.Lipo.Weighted>
-8.7504

> <Gold.Chemscore.Internal_Hbond.Weighted>
0.0000

> <Gold.Chemscore.DEClash.Weighted>
0.1711

> <Gold.Chemscore.DEInternal.Weighted>
0.2239

> <Gold.Chemscore.Rot.Weighted>
5.6663

> <Gold.Chemscore.Internal.Correction.Weighted>
   9.000000E+99

> <Gold.Protein.RotatedTorsions>
[ 6907 6896 6895 6894 ] final  123.02 input  -60.11 | X-H torsion
[ 7974 7965 7964 7962 ] final  137.33 input  175.53 | X-H torsion
[ 8008 7997 7996 7995 ] final  144.67 input   59.86 | X-H torsion
[ 10167 10162 10161 10158 ] final  -85.66 input  -65.29 | X-H torsion
[ 10718 10713 10712 10709 ] final  -85.90 input   66.30 | X-H torsion
[ 10763 10752 10751 10750 ] final -155.23 input  -60.55 | X-H torsion
[ 11005 11000 10999 10996 ] final -113.66 input  -57.11 | X-H torsion

> <Gold.Protein.ActiveResidues>
 VAL166  LYS551  ARG553  GLY616  TRP617  ASP618  TYR619  PRO620  LYS621  CYS622 
 ASP623  PHE694  ASN695  SER759  ASP760  ASP761  ALA762  ILE779  LEU786  VAL792 
 PHE793  MET794  SER795  GLU796  ALA797  LYS798  CYS799  TRP800  GLU811  SER814 

> <Gold.Protein.RotatedAtoms>
  152.4196  133.7094  159.6469 H   0  0  0  0  0  0  0  0  0  0  0  0  # atno 6907 bound_to 6896
  150.8072  133.8477  159.3205 H   0  0  0  0  0  0  0  0  0  0  0  0  # atno 6908 bound_to 6896
  151.6198  135.1035  160.0150 H   0  0  0  0  0  0  0  0  0  0  0  0  # atno 6909 bound_to 6896
  144.9479  139.4853  143.5540 H   0  0  0  0  0  0  0  0  0  0  0  0  # atno 7974 bound_to 7965
  156.2902  140.2229  156.5091 H   0  0  0  0  0  0  0  0  0  0  0  0  # atno 8008 bound_to 7997
  154.7624  140.0472  157.1006 H   0  0  0  0  0  0  0  0  0  0  0  0  # atno 8009 bound_to 7997
  154.9974  140.3097  155.4884 H   0  0  0  0  0  0  0  0  0  0  0  0  # atno 8010 bound_to 7997
  140.4016  143.2660  151.9135 H   0  0  0  0  0  0  0  0  0  0  0  0  # atno 10167 bound_to 10162
  155.9993  130.4747  150.4633 H   0  0  0  0  0  0  0  0  0  0  0  0  # atno 10718 bound_to 10713
  154.7802  135.3172  154.8005 H   0  0  0  0  0  0  0  0  0  0  0  0  # atno 10763 bound_to 10752
  153.8719  135.6843  153.4778 H   0  0  0  0  0  0  0  0  0  0  0  0  # atno 10764 bound_to 10752
  153.1437  135.4728  154.9471 H   0  0  0  0  0  0  0  0  0  0  0  0  # atno 10765 bound_to 10752
  141.0600  133.9550  157.2684 H   0  0  0  0  0  0  0  0  0  0  0  0  # atno 11005 bound_to 11000
  146.3310  139.8543  142.8867 LP  0  0  0  0  0  0  0  0  0  0  0  0  # atno 17320 bound_to 7965
  145.2890  141.0161  143.3674 LP  0  0  0  0  0  0  0  0  0  0  0  0  # atno 17321 bound_to 7965
  139.4784  144.5628  151.8212 LP  0  0  0  0  0  0  0  0  0  0  0  0  # atno 17342 bound_to 10162
  140.4734  144.1554  150.5921 LP  0  0  0  0  0  0  0  0  0  0  0  0  # atno 17343 bound_to 10162
  157.2655  131.0576  151.2293 LP  0  0  0  0  0  0  0  0  0  0  0  0  # atno 17370 bound_to 10713
  157.3392  130.7025  149.6371 LP  0  0  0  0  0  0  0  0  0  0  0  0  # atno 17371 bound_to 10713
  139.9424  135.0189  156.8750 LP  0  0  0  0  0  0  0  0  0  0  0  0  # atno 17394 bound_to 11000
  140.5887  134.0282  155.7491 LP  0  0  0  0  0  0  0  0  0  0  0  0  # atno 17395 bound_to 11000

$$$$
