AV-unprocessed.smi:906|AV-procd|sdf|4102|dock6
  -GOLD-   22720 1593D 1   1.00000     0.00000
 Structure written by MMmdl.
 48 49  0  0  0  0  0  0  0  0  2 V2000
  143.7809  132.8486  151.6052 C   0  0  0  0  0  0  0  0  0  0  0  0
  144.0834  134.1709  152.2770 C   0  0  0  0  0  0  0  0  0  0  0  0
  144.5314  135.2984  151.5560 C   0  0  0  0  0  0  0  0  0  0  0  0
  144.7993  136.4968  152.2493 C   0  0  0  0  0  0  0  0  0  0  0  0
  144.6149  136.5440  153.6489 C   0  0  0  0  0  0  0  0  0  0  0  0
  144.9296  137.8066  154.4323 C   0  0  0  0  0  0  0  0  0  0  0  0
  146.0899  137.6391  155.4329 C   0  0  0  0  0  0  0  0  0  0  0  0
  146.7944  138.8944  155.6845 N   0  0  0  0  0  0  0  0  0  0  0  0
  147.6007  139.5329  154.8182 C   0  0  0  0  0  0  0  0  0  0  0  0
  147.8190  139.1026  153.6847 O   0  0  0  0  0  0  0  0  0  0  0  0
  148.0833  140.7173  155.2666 N   0  0  0  0  0  0  0  0  0  0  0  0
  147.7566  141.3693  156.5430 C   0  0  0  0  0  0  0  0  0  0  0  0
  148.9750  141.2649  157.4807 C   0  0  0  0  0  0  0  0  0  0  0  0
  150.1463  141.8992  156.8599 N   0  0  0  0  0  0  0  0  0  0  0  0
  151.3439  141.9730  157.7141 C   0  0  2  0  0  0  0  0  0  0  0  0
  151.4456  140.8293  158.7474 C   0  0  0  0  0  0  0  0  0  0  0  0
  151.5060  143.3691  158.3624 C   0  0  0  0  0  0  0  0  0  0  0  0
  150.3990  143.7004  159.0283 F   0  0  0  0  0  0  0  0  0  0  0  0
  152.5455  143.4221  159.1951 F   0  0  0  0  0  0  0  0  0  0  0  0
  151.6960  144.2752  157.4034 F   0  0  0  0  0  0  0  0  0  0  0  0
  150.4434  141.2868  155.5592 C   0  0  0  0  0  0  0  0  0  0  0  0
  149.2172  141.3956  154.6335 C   0  0  0  0  0  0  0  0  0  0  0  0
  144.1575  135.3868  154.3153 C   0  0  0  0  0  0  0  0  0  0  0  0
  143.9140  134.2577  153.6155 N   0  3  0  0  0  0  0  0  0  0  0  0
  144.0056  132.8894  150.5389 H   0  0  0  0  0  0  0  0  0  0  0  0
  142.7269  132.5953  151.7221 H   0  0  0  0  0  0  0  0  0  0  0  0
  144.3789  132.0514  152.0478 H   0  0  0  0  0  0  0  0  0  0  0  0
  144.6739  135.2472  150.4863 H   0  0  0  0  0  0  0  0  0  0  0  0
  145.1542  137.3644  151.7122 H   0  0  0  0  0  0  0  0  0  0  0  0
  145.1601  138.6138  153.7356 H   0  0  0  0  0  0  0  0  0  0  0  0
  144.0301  138.1162  154.9657 H   0  0  0  0  0  0  0  0  0  0  0  0
  145.6984  137.2780  156.3842 H   0  0  0  0  0  0  0  0  0  0  0  0
  146.7837  136.8728  155.0830 H   0  0  0  0  0  0  0  0  0  0  0  0
  146.6511  139.3202  156.5890 H   0  0  0  0  0  0  0  0  0  0  0  0
  147.5118  142.4169  156.3605 H   0  0  0  0  0  0  0  0  0  0  0  0
  146.8838  140.9485  157.0415 H   0  0  0  0  0  0  0  0  0  0  0  0
  148.7319  141.7498  158.4238 H   0  0  0  0  0  0  0  0  0  0  0  0
  149.1789  140.2159  157.6982 H   0  0  0  0  0  0  0  0  0  0  0  0
  152.1962  141.8704  157.0410 H   0  0  0  0  0  0  0  0  0  0  0  0
  152.4011  140.8709  159.2704 H   0  0  0  0  0  0  0  0  0  0  0  0
  151.3827  139.8468  158.2811 H   0  0  0  0  0  0  0  0  0  0  0  0
  150.6646  140.8933  159.5051 H   0  0  0  0  0  0  0  0  0  0  0  0
  151.2895  141.7948  155.0953 H   0  0  0  0  0  0  0  0  0  0  0  0
  150.7227  140.2400  155.6817 H   0  0  0  0  0  0  0  0  0  0  0  0
  149.4560  140.9848  153.6517 H   0  0  0  0  0  0  0  0  0  0  0  0
  148.9646  142.4430  154.4615 H   0  0  0  0  0  0  0  0  0  0  0  0
  143.9952  135.3260  155.3815 H   0  0  0  0  0  0  0  0  0  0  0  0
  143.5925  133.4318  154.1210 H   0  0  0  0  0  0  0  0  0  0  0  0
  1  2  1  0  0  0  0
  1 25  1  0  0  0  0
  1 26  1  0  0  0  0
  1 27  1  0  0  0  0
  2 24  1  0  0  0  0
  2  3  2  0  0  0  0
  3  4  1  0  0  0  0
  3 28  1  0  0  0  0
  4  5  2  0  0  0  0
  4 29  1  0  0  0  0
  5  6  1  0  0  0  0
  5 23  1  0  0  0  0
  6  7  1  0  0  0  0
  6 30  1  0  0  0  0
  6 31  1  0  0  0  0
  7  8  1  0  0  0  0
  7 32  1  0  0  0  0
  7 33  1  0  0  0  0
  8  9  1  0  0  0  0
  8 34  1  0  0  0  0
  9 10  2  0  0  0  0
  9 11  1  0  0  0  0
 11 22  1  0  0  0  0
 11 12  1  0  0  0  0
 12 13  1  0  0  0  0
 12 35  1  0  0  0  0
 12 36  1  0  0  0  0
 13 14  1  0  0  0  0
 13 37  1  0  0  0  0
 13 38  1  0  0  0  0
 14 15  1  0  0  0  0
 14 21  1  0  0  0  0
 15 16  1  0  0  0  0
 15 17  1  0  0  0  0
 15 39  1  0  0  0  0
 16 40  1  0  0  0  0
 16 41  1  0  0  0  0
 16 42  1  0  0  0  0
 17 18  1  0  0  0  0
 17 19  1  0  0  0  0
 17 20  1  0  0  0  0
 21 22  1  0  0  0  0
 21 43  1  0  0  0  0
 21 44  1  0  0  0  0
 22 45  1  0  0  0  0
 22 46  1  0  0  0  0
 23 24  2  0  0  0  0
 23 47  1  0  0  0  0
 24 48  1  0  0  0  0
M  CHG  1  24   1
M  END
> <s_m_source_file>
AV-unprocessed.smi

> <i_m_source_file_index>
906

> <i_lp_mmshare_version>
43012

> <i_f3d_flags>
0

> <s_epik_input>
W0NIM11jMVtjSF1bY0hdYyhbY0hdbjEpW0NIMl1bQ0gyXVtOSF1DKD1PKU4yW0NIMl1bQ0gyXU4oW0NASF0oW0NIM10pQyhGKShGKUYpW0NIMl1bQ0gyXTI=

> <s_epik_cmdline>
J2VwaWtfcHl0aG9uJywgJy1waCcsICc3LjAnLCAnLXRuJywgJzgnLCAnLW1hJywgJzIwMCcsICctbWV0YWxfYmluZGluZycsICctaW1hZScsICc8aW5maWxlLm1hZT4nLCAnLW9tYWUnLCAnPG91dGZpbGUubWFlPic=

> <r_epik_Ionization_Penalty>
1.4413

> <r_epik_Ionization_Penalty_Charging>
1.42075

> <r_epik_Ionization_Penalty_Neutral>
0.0205507

> <r_epik_State_Penalty>
1.52216

> <r_epik_Charging_Adjusted_Penalty>
2.94291

> <i_epik_Tot_Q>
1

> <i_epik_Tot_abs_Q>
1

> <r_epik_Metal_State_Penalty>
1.57308

> <b_epik_Metal_Only>
0

> <s_lp_Force_Field>
OPLS_2005

> <r_lp_Energy>
52.9553

> <b_lp_Chiralities_Consistent>
1

> <s_lp_Variant>
AV-unprocessed.smi:906-3

> <Gold.Version>
5.8.1

> <Gold.Id.Protein>
6NUR|6NUR_protein|mol2

> <Gold.PLP.Fitness>
39.8552

> <Gold.PLP.PLP>
-36.2800

> <Gold.PLP.part.hbond>
-0.9553

> <Gold.PLP.part.metal>
0.0000

> <Gold.PLP.part.buried>
-6.5200

> <Gold.PLP.part.nonpolar>
-30.7213

> <Gold.PLP.part.repulsive>
0.2978

> <Gold.PLP.ligand.clash>
0.0000

> <Gold.PLP.ligand.torsion>
1.5365

> <Gold.PLP.Chemscore.Hbond>
1.9825

> <Gold.PLP.Chemscore.CHOScore>
0.0000

> <Gold.PLP.Chemscore.Metal>
0.0000

> <Gold.Chemscore.Hbonds>
donor molecule, donor type, donor heavy atom, donor atom, acceptor molecule, acceptor atom, score
      L1  H    24    48       P1 10957  2.00

> <Gold.PLP.Chemscore.Internal.Correction>
0.7007

> <Gold.Rescore>
     Score         DG    S(hbond)    S(metal)    S(lipo)     H(rot)  DE(clash)    DE(int)     intcor
     11.69     -12.81       1.00        0.00      70.47       1.66       0.08       1.04       ----

> <Gold.Chemscore.Fitness>
11.6935

> <Gold.Chemscore.DG>
-12.8117

> <Gold.Chemscore.ZeroCoef>
-5.4800

> <Gold.Chemscore.Hbond>
0.9952

> <Gold.Chemscore.Metal>
0.0000

> <Gold.Chemscore.Lipo>
70.4740

> <Gold.Chemscore.Internal_Hbond>
0.0000

> <Gold.Chemscore.DEClash>
0.0752

> <Gold.Chemscore.DEInternal>
1.0431

> <Gold.Chemscore.Rot>
1.6553

> <Gold.Chemscore.Internal.Correction>
   9.000000E+99

> <Gold.Chemscore.Hbonds>
donor molecule, donor type, donor heavy atom, donor atom, acceptor molecule, acceptor atom, score
      L1  H    24    48       P1 10957  0.94

> <Gold.Chemscore.Hbond.Weighted>
-3.3239

> <Gold.Chemscore.Metal.Weighted>
-0.0000

> <Gold.Chemscore.Lipo.Weighted>
-8.2455

> <Gold.Chemscore.Internal_Hbond.Weighted>
0.0000

> <Gold.Chemscore.DEClash.Weighted>
0.0752

> <Gold.Chemscore.DEInternal.Weighted>
1.0431

> <Gold.Chemscore.Rot.Weighted>
4.2376

> <Gold.Chemscore.Internal.Correction.Weighted>
   9.000000E+99

> <Gold.Protein.RotatedTorsions>
[ 6907 6896 6895 6894 ] final   23.29 input  -60.11 | X-H torsion
[ 7974 7965 7964 7962 ] final -163.27 input  175.53 | X-H torsion
[ 8008 7997 7996 7995 ] final  166.83 input   59.86 | X-H torsion
[ 10167 10162 10161 10158 ] final  157.54 input  -65.29 | X-H torsion
[ 10718 10713 10712 10709 ] final   97.83 input   66.30 | X-H torsion
[ 10763 10752 10751 10750 ] final  149.76 input  -60.55 | X-H torsion
[ 11005 11000 10999 10996 ] final  118.85 input  -57.11 | X-H torsion

> <Gold.Protein.ActiveResidues>
 VAL166  LYS551  ARG553  GLY616  TRP617  ASP618  TYR619  PRO620  LYS621  CYS622 
 ASP623  PHE694  ASN695  SER759  ASP760  ASP761  ALA762  ILE779  LEU786  VAL792 
 PHE793  MET794  SER795  GLU796  ALA797  LYS798  CYS799  TRP800  GLU811  SER814 

> <Gold.Protein.RotatedAtoms>
  151.9402  135.0217  160.0535 H   0  0  0  0  0  0  0  0  0  0  0  0  # atno 6907 bound_to 6896
  152.2043  133.4859  159.5084 H   0  0  0  0  0  0  0  0  0  0  0  0  # atno 6908 bound_to 6896
  150.6961  134.1467  159.4168 H   0  0  0  0  0  0  0  0  0  0  0  0  # atno 6909 bound_to 6896
  144.7331  140.3131  143.6184 H   0  0  0  0  0  0  0  0  0  0  0  0  # atno 7974 bound_to 7965
  156.1686  140.1633  156.8488 H   0  0  0  0  0  0  0  0  0  0  0  0  # atno 8008 bound_to 7997
  154.5233  140.0773  156.8246 H   0  0  0  0  0  0  0  0  0  0  0  0  # atno 8009 bound_to 7997
  155.3560  140.3392  155.4242 H   0  0  0  0  0  0  0  0  0  0  0  0  # atno 8010 bound_to 7997
  139.4823  144.4908  151.8311 H   0  0  0  0  0  0  0  0  0  0  0  0  # atno 10167 bound_to 10162
  157.6906  131.0621  150.4704 H   0  0  0  0  0  0  0  0  0  0  0  0  # atno 10718 bound_to 10713
  154.0764  135.2863  155.3298 H   0  0  0  0  0  0  0  0  0  0  0  0  # atno 10763 bound_to 10752
  154.6713  135.5298  153.8145 H   0  0  0  0  0  0  0  0  0  0  0  0  # atno 10764 bound_to 10752
  153.0465  135.6558  154.0942 H   0  0  0  0  0  0  0  0  0  0  0  0  # atno 10765 bound_to 10752
  139.9124  134.9624  156.7566 H   0  0  0  0  0  0  0  0  0  0  0  0  # atno 11005 bound_to 11000
  145.7644  139.1836  143.2248 LP  0  0  0  0  0  0  0  0  0  0  0  0  # atno 17320 bound_to 7965
  146.0960  140.7600  142.9572 LP  0  0  0  0  0  0  0  0  0  0  0  0  # atno 17321 bound_to 7965
  140.4392  144.2010  150.5890 LP  0  0  0  0  0  0  0  0  0  0  0  0  # atno 17342 bound_to 10162
  140.4701  143.2416  151.9101 LP  0  0  0  0  0  0  0  0  0  0  0  0  # atno 17343 bound_to 10162
  156.5042  130.4124  149.6336 LP  0  0  0  0  0  0  0  0  0  0  0  0  # atno 17370 bound_to 10713
  156.3300  130.7326  151.2254 LP  0  0  0  0  0  0  0  0  0  0  0  0  # atno 17371 bound_to 10713
  140.6731  133.9541  155.7868 LP  0  0  0  0  0  0  0  0  0  0  0  0  # atno 17394 bound_to 11000
  141.0563  134.0411  157.3718 LP  0  0  0  0  0  0  0  0  0  0  0  0  # atno 17395 bound_to 11000

$$$$
