AV-unprocessed.smi:1053|AV-procd|sdf|4617|dock10
  -GOLD-   22720 3123D 1   1.00000     0.00000
 Structure written by MMmdl.
 38 39  0  0  0  0  0  0  0  0  2 V2000
  149.9760  134.4180  154.9864 C   0  0  0  0  0  0  0  0  0  0  0  0
  148.8604  135.4377  155.2550 C   0  0  0  0  0  0  0  0  0  0  0  0
  149.1260  136.7540  154.6226 N   0  3  1  0  0  0  0  0  0  0  0  0
  147.9434  137.6463  154.6641 C   0  0  0  0  0  0  0  0  0  0  0  0
  148.2495  138.9784  153.9618 C   0  0  0  0  0  0  0  0  0  0  0  0
  149.3842  139.5803  154.5695 O   0  0  0  0  0  0  0  0  0  0  0  0
  150.5571  138.7831  154.4401 C   0  0  1  0  0  0  0  0  0  0  0  0
  151.7488  139.5499  155.0381 C   0  0  0  0  0  0  0  0  0  0  0  0
  151.9290  139.2722  156.4570 N   0  0  0  0  0  0  0  0  0  0  0  0
  151.8698  140.2191  157.4637 C   0  0  0  0  0  0  0  0  0  0  0  0
  150.9639  141.1988  157.3671 N   0  0  0  0  0  0  0  0  0  0  0  0
  150.9313  142.1065  158.3663 C   0  0  0  0  0  0  0  0  0  0  0  0
  151.8097  142.0318  159.4649 C   0  0  0  0  0  0  0  0  0  0  0  0
  152.7244  140.9550  159.4634 C   0  0  0  0  0  0  0  0  0  0  0  0
  153.7322  140.7478  160.5841 C   0  0  0  0  0  0  0  0  0  0  0  0
  154.9668  140.9393  160.1189 F   0  0  0  0  0  0  0  0  0  0  0  0
  153.5241  141.5953  161.5924 F   0  0  0  0  0  0  0  0  0  0  0  0
  153.6361  139.5030  161.0515 F   0  0  0  0  0  0  0  0  0  0  0  0
  152.7466  140.0516  158.4555 N   0  0  0  0  0  0  0  0  0  0  0  0
  150.3169  137.4485  155.1733 C   0  0  0  0  0  0  0  0  0  0  0  0
  149.7020  133.4396  155.3820 H   0  0  0  0  0  0  0  0  0  0  0  0
  150.9154  134.7041  155.4586 H   0  0  0  0  0  0  0  0  0  0  0  0
  150.1561  134.3026  153.9172 H   0  0  0  0  0  0  0  0  0  0  0  0
  147.9325  135.0309  154.8506 H   0  0  0  0  0  0  0  0  0  0  0  0
  148.7023  135.5613  156.3272 H   0  0  0  0  0  0  0  0  0  0  0  0
  147.0946  137.1634  154.1786 H   0  0  0  0  0  0  0  0  0  0  0  0
  147.6592  137.8290  155.7017 H   0  0  0  0  0  0  0  0  0  0  0  0
  148.4259  138.8291  152.8953 H   0  0  0  0  0  0  0  0  0  0  0  0
  147.4000  139.6554  154.0524 H   0  0  0  0  0  0  0  0  0  0  0  0
  150.7542  138.5847  153.3845 H   0  0  0  0  0  0  0  0  0  0  0  0
  152.6639  139.3427  154.4820 H   0  0  0  0  0  0  0  0  0  0  0  0
  151.5723  140.6217  154.9451 H   0  0  0  0  0  0  0  0  0  0  0  0
  152.2335  138.3465  156.7217 H   0  0  0  0  0  0  0  0  0  0  0  0
  150.2002  142.8976  158.2881 H   0  0  0  0  0  0  0  0  0  0  0  0
  151.7768  142.7620  160.2598 H   0  0  0  0  0  0  0  0  0  0  0  0
  150.1740  137.6260  156.2406 H   0  0  0  0  0  0  0  0  0  0  0  0
  151.2002  136.8190  155.0696 H   0  0  0  0  0  0  0  0  0  0  0  0
  149.3118  136.5748  153.6460 H   0  0  0  0  0  0  0  0  0  0  0  0
  1  2  1  0  0  0  0
  1 21  1  0  0  0  0
  1 22  1  0  0  0  0
  1 23  1  0  0  0  0
  2  3  1  0  0  0  0
  2 24  1  0  0  0  0
  2 25  1  0  0  0  0
  3 20  1  0  0  0  0
  3  4  1  0  0  0  0
  3 38  1  0  0  0  0
  4  5  1  0  0  0  0
  4 26  1  0  0  0  0
  4 27  1  0  0  0  0
  5  6  1  0  0  0  0
  5 28  1  0  0  0  0
  5 29  1  0  0  0  0
  6  7  1  0  0  0  0
  7  8  1  0  0  0  0
  7 20  1  0  0  0  0
  7 30  1  0  0  0  0
  8  9  1  0  0  0  0
  8 31  1  0  0  0  0
  8 32  1  0  0  0  0
  9 10  1  0  0  0  0
  9 33  1  0  0  0  0
 10 19  1  0  0  0  0
 10 11  2  0  0  0  0
 11 12  1  0  0  0  0
 12 13  2  0  0  0  0
 12 34  1  0  0  0  0
 13 14  1  0  0  0  0
 13 35  1  0  0  0  0
 14 15  1  0  0  0  0
 14 19  2  0  0  0  0
 15 16  1  0  0  0  0
 15 17  1  0  0  0  0
 15 18  1  0  0  0  0
 20 36  1  0  0  0  0
 20 37  1  0  0  0  0
M  CHG  1   3   1
M  END
> <s_m_source_file>
AV-unprocessed.smi

> <i_m_source_file_index>
1053

> <i_lp_mmshare_version>
43012

> <i_f3d_flags>
0

> <s_epik_input>
W0NIM11bQ0gyXU4xW0NIMl1bQ0gyXU9bQ0BIXShbQ0gyXTEpW0NIMl1bTkhdYzJuW2NIXVtjSF1jKG4yKUMoRikoRilG

> <s_epik_cmdline>
J2VwaWtfcHl0aG9uJywgJy1waCcsICc3LjAnLCAnLXRuJywgJzgnLCAnLW1hJywgJzIwMCcsICctbWV0YWxfYmluZGluZycsICctaW1hZScsICc8aW5maWxlLm1hZT4nLCAnLW9tYWUnLCAnPG91dGZpbGUubWFlPic=

> <r_lp_tautomer_probability>
1

> <r_epik_Ionization_Penalty>
0.178506

> <r_epik_Ionization_Penalty_Charging>
0.178504

> <r_epik_Ionization_Penalty_Neutral>
2.47619e-06

> <r_epik_State_Penalty>
0.167974

> <r_epik_Charging_Adjusted_Penalty>
0.346478

> <i_epik_Tot_Q>
1

> <i_epik_Tot_abs_Q>
1

> <r_epik_Metal_State_Penalty>
0.167974

> <b_epik_Metal_Only>
0

> <s_lp_Force_Field>
OPLS_2005

> <r_lp_Energy>
10.9386

> <b_lp_Chiralities_Consistent>
1

> <s_lp_Variant>
AV-unprocessed.smi:1053-1

> <Gold.Version>
5.8.1

> <Gold.Id.Protein>
6NUR|6NUR_protein|mol2

> <Gold.PLP.Fitness>
40.2276

> <Gold.PLP.PLP>
-33.0683

> <Gold.PLP.part.hbond>
-2.0000

> <Gold.PLP.part.metal>
0.0000

> <Gold.PLP.part.buried>
-1.9096

> <Gold.PLP.part.nonpolar>
-28.3950

> <Gold.PLP.part.repulsive>
0.2845

> <Gold.PLP.ligand.clash>
0.0000

> <Gold.PLP.ligand.torsion>
0.8466

> <Gold.PLP.Chemscore.Hbond>
2.9440

> <Gold.PLP.Chemscore.CHOScore>
0.0000

> <Gold.PLP.Chemscore.Metal>
0.0000

> <Gold.Chemscore.Hbonds>
donor molecule, donor type, donor heavy atom, donor atom, acceptor molecule, acceptor atom, score
      L1  H     3    38       P1  7948  2.00
      P1  H  7997  8009       L1    19  0.18

> <Gold.PLP.Chemscore.Internal.Correction>
0.0205

> <Gold.Rescore>
     Score         DG    S(hbond)    S(metal)    S(lipo)     H(rot)  DE(clash)    DE(int)     intcor
     12.32     -14.68       1.40        0.00      72.50       1.55       1.37       0.98       ----

> <Gold.Chemscore.Fitness>
12.3204

> <Gold.Chemscore.DG>
-14.6751

> <Gold.Chemscore.ZeroCoef>
-5.4800

> <Gold.Chemscore.Hbond>
1.4050

> <Gold.Chemscore.Metal>
0.0000

> <Gold.Chemscore.Lipo>
72.5045

> <Gold.Chemscore.Internal_Hbond>
0.0000

> <Gold.Chemscore.DEClash>
1.3729

> <Gold.Chemscore.DEInternal>
0.9819

> <Gold.Chemscore.Rot>
1.5549

> <Gold.Chemscore.Internal.Correction>
   9.000000E+99

> <Gold.Chemscore.Hbonds>
donor molecule, donor type, donor heavy atom, donor atom, acceptor molecule, acceptor atom, score
      L1  H     3    38       P1  7948  0.92
      P1  H  7997  8009       L1    19  0.03

> <Gold.Chemscore.Hbond.Weighted>
-4.6927

> <Gold.Chemscore.Metal.Weighted>
-0.0000

> <Gold.Chemscore.Lipo.Weighted>
-8.4830

> <Gold.Chemscore.Internal_Hbond.Weighted>
0.0000

> <Gold.Chemscore.DEClash.Weighted>
1.3729

> <Gold.Chemscore.DEInternal.Weighted>
0.9819

> <Gold.Chemscore.Rot.Weighted>
3.9806

> <Gold.Chemscore.Internal.Correction.Weighted>
   9.000000E+99

> <Gold.Protein.RotatedTorsions>
[ 6907 6896 6895 6894 ] final  -43.16 input  -60.11 | X-H torsion
[ 7974 7965 7964 7962 ] final -177.38 input  175.53 | X-H torsion
[ 8008 7997 7996 7995 ] final  146.96 input   59.86 | X-H torsion
[ 10167 10162 10161 10158 ] final  124.56 input  -65.29 | X-H torsion
[ 10718 10713 10712 10709 ] final    6.53 input   66.30 | X-H torsion
[ 10763 10752 10751 10750 ] final  -46.46 input  -60.55 | X-H torsion
[ 11005 11000 10999 10996 ] final  -16.76 input  -57.11 | X-H torsion

> <Gold.Protein.ActiveResidues>
 VAL166  LYS551  ARG553  GLY616  TRP617  ASP618  TYR619  PRO620  LYS621  CYS622 
 ASP623  PHE694  ASN695  SER759  ASP760  ASP761  ALA762  ILE779  LEU786  VAL792 
 PHE793  MET794  SER795  GLU796  ALA797  LYS798  CYS799  TRP800  GLU811  SER814 

> <Gold.Protein.RotatedAtoms>
  150.9470  134.8874  159.7647 H   0  0  0  0  0  0  0  0  0  0  0  0  # atno 6907 bound_to 6896
  152.5104  134.3860  159.9377 H   0  0  0  0  0  0  0  0  0  0  0  0  # atno 6908 bound_to 6896
  151.3878  133.3759  159.2752 H   0  0  0  0  0  0  0  0  0  0  0  0  # atno 6909 bound_to 6896
  144.7127  140.1027  143.6415 H   0  0  0  0  0  0  0  0  0  0  0  0  # atno 7974 bound_to 7965
  156.2839  140.2168  156.5461 H   0  0  0  0  0  0  0  0  0  0  0  0  # atno 8008 bound_to 7997
  154.7329  140.0494  157.0765 H   0  0  0  0  0  0  0  0  0  0  0  0  # atno 8009 bound_to 7997
  155.0330  140.3137  155.4755 H   0  0  0  0  0  0  0  0  0  0  0  0  # atno 8010 bound_to 7997
  139.5735  144.6951  151.3716 H   0  0  0  0  0  0  0  0  0  0  0  0  # atno 10167 bound_to 10162
  156.9235  130.5799  149.5648 H   0  0  0  0  0  0  0  0  0  0  0  0  # atno 10718 bound_to 10713
  154.0453  135.6638  153.4794 H   0  0  0  0  0  0  0  0  0  0  0  0  # atno 10763 bound_to 10752
  153.0485  135.5099  154.7803 H   0  0  0  0  0  0  0  0  0  0  0  0  # atno 10764 bound_to 10752
  154.6792  135.3042  154.9603 H   0  0  0  0  0  0  0  0  0  0  0  0  # atno 10765 bound_to 10752
  140.8100  133.8148  155.9554 H   0  0  0  0  0  0  0  0  0  0  0  0  # atno 11005 bound_to 11000
  145.9523  139.2742  143.1204 LP  0  0  0  0  0  0  0  0  0  0  0  0  # atno 17320 bound_to 7965
  145.9309  140.9049  143.0357 LP  0  0  0  0  0  0  0  0  0  0  0  0  # atno 17321 bound_to 7965
  140.7018  143.7612  150.7416 LP  0  0  0  0  0  0  0  0  0  0  0  0  # atno 17342 bound_to 10162
  140.1125  143.4686  152.2362 LP  0  0  0  0  0  0  0  0  0  0  0  0  # atno 17343 bound_to 10162
  156.0480  130.5554  150.8925 LP  0  0  0  0  0  0  0  0  0  0  0  0  # atno 17370 bound_to 10713
  157.5893  131.0945  150.9145 LP  0  0  0  0  0  0  0  0  0  0  0  0  # atno 17371 bound_to 10713
  140.9207  134.2145  157.4928 LP  0  0  0  0  0  0  0  0  0  0  0  0  # atno 17394 bound_to 11000
  139.8715  134.9791  156.5023 LP  0  0  0  0  0  0  0  0  0  0  0  0  # atno 17395 bound_to 11000

$$$$
