AV-unprocessed.smi:515|AV-procd|sdf|2782|dock10
  -GOLD-   2262023253D 1   1.00000     0.00000
 Structure written by MMmdl.
 46 48  0  0  0  0  0  0  0  0  2 V2000
  139.1587  135.0221  164.3703 C   0  0  0  0  0  0  0  0  0  0  0  0
  139.2407  136.4233  163.7604 C   0  0  0  0  0  0  0  0  0  0  0  0
  139.9936  136.3596  162.5610 O   0  0  0  0  0  0  0  0  0  0  0  0
  141.2554  135.7391  162.7406 C   0  0  0  0  0  0  0  0  0  0  0  0
  141.9701  135.6647  161.3859 C   0  0  0  0  0  0  0  0  0  0  0  0
  143.2955  135.0676  161.5127 N   0  0  0  0  0  0  0  0  0  0  0  0
  143.6029  133.7451  161.5804 C   0  0  0  0  0  0  0  0  0  0  0  0
  142.5541  132.6641  161.5388 C   0  0  0  0  0  0  0  0  0  0  0  0
  142.7349  131.6655  160.4840 N   0  0  0  0  0  0  0  0  0  0  0  0
  142.0439  130.4232  160.8089 C   0  0  0  0  0  0  0  0  0  0  0  0
  142.2298  129.3616  159.7109 C   0  0  0  0  0  0  0  0  0  0  0  0
  141.7799  129.8809  158.4634 O   0  0  0  0  0  0  0  0  0  0  0  0
  142.4575  131.0758  158.0877 C   0  0  0  0  0  0  0  0  0  0  0  0
  142.2688  132.1401  159.1819 C   0  0  0  0  0  0  0  0  0  0  0  0
  144.9100  133.5010  161.7279 N   0  0  0  0  0  0  0  0  0  0  0  0
  145.4749  134.7664  161.7399 C   0  0  0  0  0  0  0  0  0  0  0  0
  144.5225  135.7277  161.6210 C   0  0  0  0  0  0  0  0  0  0  0  0
  144.8109  137.1786  161.6302 C   0  0  0  0  0  0  0  0  0  0  0  0
  143.9057  138.0064  161.5454 O   0  0  0  0  0  0  0  0  0  0  0  0
  146.1520  137.4376  161.7463 N   0  5  0  0  0  0  0  0  0  0  0  0
  147.1521  136.4955  161.8606 C   0  0  0  0  0  0  0  0  0  0  0  0
  148.3378  136.8147  161.9593 O   0  0  0  0  0  0  0  0  0  0  0  0
  146.8342  135.1624  161.8660 N   0  0  0  0  0  0  0  0  0  0  0  0
  147.8751  134.1381  161.9906 C   0  0  0  0  0  0  0  0  0  0  0  0
  138.5811  135.0328  165.2948 H   0  0  0  0  0  0  0  0  0  0  0  0
  140.1524  134.6375  164.6006 H   0  0  0  0  0  0  0  0  0  0  0  0
  138.6789  134.3239  163.6839 H   0  0  0  0  0  0  0  0  0  0  0  0
  138.2372  136.7995  163.5557 H   0  0  0  0  0  0  0  0  0  0  0  0
  139.7135  137.1086  164.4656 H   0  0  0  0  0  0  0  0  0  0  0  0
  141.8557  136.3079  163.4522 H   0  0  0  0  0  0  0  0  0  0  0  0
  141.1215  134.7362  163.1494 H   0  0  0  0  0  0  0  0  0  0  0  0
  141.3714  135.0933  160.6795 H   0  0  0  0  0  0  0  0  0  0  0  0
  142.0614  136.6553  160.9427 H   0  0  0  0  0  0  0  0  0  0  0  0
  142.5672  132.1719  162.5120 H   0  0  0  0  0  0  0  0  0  0  0  0
  141.5677  133.1134  161.4315 H   0  0  0  0  0  0  0  0  0  0  0  0
  142.4150  130.0300  161.7560 H   0  0  0  0  0  0  0  0  0  0  0  0
  140.9791  130.6168  160.9474 H   0  0  0  0  0  0  0  0  0  0  0  0
  143.2772  129.0661  159.6326 H   0  0  0  0  0  0  0  0  0  0  0  0
  141.6605  128.4634  159.9507 H   0  0  0  0  0  0  0  0  0  0  0  0
  143.5170  130.8682  157.9306 H   0  0  0  0  0  0  0  0  0  0  0  0
  142.0561  131.4312  157.1388 H   0  0  0  0  0  0  0  0  0  0  0  0
  141.2134  132.4098  159.2425 H   0  0  0  0  0  0  0  0  0  0  0  0
  142.8021  133.0448  158.8914 H   0  0  0  0  0  0  0  0  0  0  0  0
  148.5716  134.1992  161.1531 H   0  0  0  0  0  0  0  0  0  0  0  0
  147.4701  133.1264  162.0051 H   0  0  0  0  0  0  0  0  0  0  0  0
  148.4386  134.2752  162.9146 H   0  0  0  0  0  0  0  0  0  0  0  0
  1  2  1  0  0  0  0
  1 25  1  0  0  0  0
  1 26  1  0  0  0  0
  1 27  1  0  0  0  0
  2  3  1  0  0  0  0
  2 28  1  0  0  0  0
  2 29  1  0  0  0  0
  3  4  1  0  0  0  0
  4  5  1  0  0  0  0
  4 30  1  0  0  0  0
  4 31  1  0  0  0  0
  5  6  1  0  0  0  0
  5 32  1  0  0  0  0
  5 33  1  0  0  0  0
  6 17  1  0  0  0  0
  6  7  1  0  0  0  0
  7  8  1  0  0  0  0
  7 15  2  0  0  0  0
  8  9  1  0  0  0  0
  8 34  1  0  0  0  0
  8 35  1  0  0  0  0
  9 14  1  0  0  0  0
  9 10  1  0  0  0  0
 10 11  1  0  0  0  0
 10 36  1  0  0  0  0
 10 37  1  0  0  0  0
 11 12  1  0  0  0  0
 11 38  1  0  0  0  0
 11 39  1  0  0  0  0
 12 13  1  0  0  0  0
 13 14  1  0  0  0  0
 13 40  1  0  0  0  0
 13 41  1  0  0  0  0
 14 42  1  0  0  0  0
 14 43  1  0  0  0  0
 15 16  1  0  0  0  0
 16 23  1  0  0  0  0
 16 17  2  0  0  0  0
 17 18  1  0  0  0  0
 18 19  2  0  0  0  0
 18 20  1  0  0  0  0
 20 21  1  0  0  0  0
 21 22  2  0  0  0  0
 21 23  1  0  0  0  0
 23 24  1  0  0  0  0
 24 44  1  0  0  0  0
 24 45  1  0  0  0  0
 24 46  1  0  0  0  0
M  CHG  1  20  -1
M  END
> <s_m_source_file>
AV-unprocessed.smi

> <i_m_source_file_index>
515

> <i_lp_mmshare_version>
43012

> <i_f3d_flags>
0

> <s_epik_input>
W0NIM11uMWMoPU8pW25IXWMoPU8pYyhjMTIpbihbQ0gyXVtDSDJdT1tDSDJdW0NIM10pYyhuMilbQ0gyXU4zW0NIMl1bQ0gyXU9bQ0gyXVtDSDJdMw==

> <s_epik_cmdline>
J2VwaWtfcHl0aG9uJywgJy1waCcsICc3LjAnLCAnLXRuJywgJzgnLCAnLW1hJywgJzIwMCcsICctbWV0YWxfYmluZGluZycsICctaW1hZScsICc8aW5maWxlLm1hZT4nLCAnLW9tYWUnLCAnPG91dGZpbGUubWFlPic=

> <r_epik_Ionization_Penalty>
4.8833

> <r_epik_Ionization_Penalty_Charging>
0.035962

> <r_epik_Ionization_Penalty_Neutral>
4.84734

> <r_epik_State_Penalty>
4.83718

> <r_epik_Charging_Adjusted_Penalty>
4.87314

> <i_epik_Tot_Q>
-1

> <i_epik_Tot_abs_Q>
1

> <r_epik_Metal_State_Penalty>
1.06056

> <b_epik_Metal_Only>
1

> <s_lp_Force_Field>
OPLS_2005

> <r_lp_Energy>
45.1348

> <b_lp_Chiralities_Consistent>
1

> <s_lp_Variant>
AV-unprocessed.smi:515-3

> <Gold.Version>
5.8.1

> <Gold.Id.Protein>
6NUR|6NUR_protein|mol2

> <Gold.PLP.Fitness>
40.9088

> <Gold.PLP.PLP>
-33.3873

> <Gold.PLP.part.hbond>
-3.0000

> <Gold.PLP.part.metal>
0.0000

> <Gold.PLP.part.buried>
-5.8483

> <Gold.PLP.part.nonpolar>
-23.7816

> <Gold.PLP.part.repulsive>
0.3633

> <Gold.PLP.ligand.clash>
0.0000

> <Gold.PLP.ligand.torsion>
0.5441

> <Gold.PLP.Chemscore.Hbond>
2.8560

> <Gold.PLP.Chemscore.CHOScore>
0.0000

> <Gold.PLP.Chemscore.Metal>
0.0000

> <Gold.Chemscore.Hbonds>
donor molecule, donor type, donor heavy atom, donor atom, acceptor molecule, acceptor atom, score
      P1  H  6931  6943       L1    22  1.00
      P1  H  6934  6947       L1    20  1.84

> <Gold.PLP.Chemscore.Internal.Correction>
0.0418

> <Gold.Rescore>
     Score         DG    S(hbond)    S(metal)    S(lipo)     H(rot)  DE(clash)    DE(int)     intcor
     12.27     -12.89       1.76        0.00      58.91       2.10       0.16       0.46       ----

> <Gold.Chemscore.Fitness>
12.2700

> <Gold.Chemscore.DG>
-12.8860

> <Gold.Chemscore.ZeroCoef>
-5.4800

> <Gold.Chemscore.Hbond>
1.7627

> <Gold.Chemscore.Metal>
0.0000

> <Gold.Chemscore.Lipo>
58.9085

> <Gold.Chemscore.Internal_Hbond>
0.0000

> <Gold.Chemscore.DEClash>
0.1563

> <Gold.Chemscore.DEInternal>
0.4598

> <Gold.Chemscore.Rot>
2.0991

> <Gold.Chemscore.Internal.Correction>
   9.000000E+99

> <Gold.Chemscore.Hbonds>
donor molecule, donor type, donor heavy atom, donor atom, acceptor molecule, acceptor atom, score
      P1  H  6931  6943       L1    22  0.98
      P1  H  6934  6947       L1    20  0.29

> <Gold.Chemscore.Hbond.Weighted>
-5.8875

> <Gold.Chemscore.Metal.Weighted>
-0.0000

> <Gold.Chemscore.Lipo.Weighted>
-6.8923

> <Gold.Chemscore.Internal_Hbond.Weighted>
0.0000

> <Gold.Chemscore.DEClash.Weighted>
0.1563

> <Gold.Chemscore.DEInternal.Weighted>
0.4598

> <Gold.Chemscore.Rot.Weighted>
5.3737

> <Gold.Chemscore.Internal.Correction.Weighted>
   9.000000E+99

> <Gold.Protein.RotatedTorsions>
[ 6907 6896 6895 6894 ] final -157.49 input  -60.11 | X-H torsion
[ 7974 7965 7964 7962 ] final -111.88 input  175.53 | X-H torsion
[ 8008 7997 7996 7995 ] final  172.19 input   59.86 | X-H torsion
[ 10167 10162 10161 10158 ] final -159.03 input  -65.29 | X-H torsion
[ 10718 10713 10712 10709 ] final -132.60 input   66.30 | X-H torsion
[ 10763 10752 10751 10750 ] final  -43.14 input  -60.55 | X-H torsion
[ 11005 11000 10999 10996 ] final  -11.37 input  -57.11 | X-H torsion

> <Gold.Protein.ActiveResidues>
 VAL166  LYS551  ARG553  GLY616  TRP617  ASP618  TYR619  PRO620  LYS621  CYS622 
 ASP623  PHE694  ASN695  SER759  ASP760  ASP761  ALA762  ILE779  LEU786  VAL792 
 PHE793  MET794  SER795  GLU796  ALA797  LYS798  CYS799  TRP800  GLU811  SER814 

> <Gold.Protein.RotatedAtoms>
  151.3036  133.4111  159.2641 H   0  0  0  0  0  0  0  0  0  0  0  0  # atno 6907 bound_to 6896
  151.0174  134.9444  159.8051 H   0  0  0  0  0  0  0  0  0  0  0  0  # atno 6908 bound_to 6896
  152.5316  134.2999  159.9127 H   0  0  0  0  0  0  0  0  0  0  0  0  # atno 6909 bound_to 6896
  145.1507  140.8827  143.3648 H   0  0  0  0  0  0  0  0  0  0  0  0  # atno 7974 bound_to 7965
  156.1198  140.1492  156.9221 H   0  0  0  0  0  0  0  0  0  0  0  0  # atno 8008 bound_to 7997
  154.4827  140.0874  156.7457 H   0  0  0  0  0  0  0  0  0  0  0  0  # atno 8009 bound_to 7997
  155.4448  140.3432  155.4296 H   0  0  0  0  0  0  0  0  0  0  0  0  # atno 8010 bound_to 7997
  139.6646  143.9851  152.2247 H   0  0  0  0  0  0  0  0  0  0  0  0  # atno 10167 bound_to 10162
  156.2362  130.7068  151.0910 H   0  0  0  0  0  0  0  0  0  0  0  0  # atno 10718 bound_to 10713
  153.9906  135.6706  153.4754 H   0  0  0  0  0  0  0  0  0  0  0  0  # atno 10763 bound_to 10752
  153.0707  135.4976  154.8294 H   0  0  0  0  0  0  0  0  0  0  0  0  # atno 10764 bound_to 10752
  154.7111  135.3097  154.9157 H   0  0  0  0  0  0  0  0  0  0  0  0  # atno 10765 bound_to 10752
  140.7546  133.8565  155.9073 H   0  0  0  0  0  0  0  0  0  0  0  0  # atno 11005 bound_to 11000
  145.0433  139.3241  143.5965 LP  0  0  0  0  0  0  0  0  0  0  0  0  # atno 17320 bound_to 7965
  146.3495  139.9815  142.8695 LP  0  0  0  0  0  0  0  0  0  0  0  0  # atno 17321 bound_to 7965
  139.9600  144.6564  150.8089 LP  0  0  0  0  0  0  0  0  0  0  0  0  # atno 17342 bound_to 10162
  140.7594  143.3128  151.2804 LP  0  0  0  0  0  0  0  0  0  0  0  0  # atno 17343 bound_to 10162
  157.7155  131.0712  150.6341 LP  0  0  0  0  0  0  0  0  0  0  0  0  # atno 17370 bound_to 10713
  156.6412  130.4459  149.5752 LP  0  0  0  0  0  0  0  0  0  0  0  0  # atno 17371 bound_to 10713
  140.9720  134.1519  157.4568 LP  0  0  0  0  0  0  0  0  0  0  0  0  # atno 17394 bound_to 11000
  139.8781  134.9981  156.5885 LP  0  0  0  0  0  0  0  0  0  0  0  0  # atno 17395 bound_to 11000

$$$$
