AV-unprocessed.smi:2032|AV-procd|sdf|8253|dock6
  -GOLD-   2272010523D 1   1.00000     0.00000
 Structure written by MMmdl.
 42 43  0  0  0  0  0  0  0  0  3 V2000
  144.6374  135.1524  150.8782 C   0  0  0  0  0  0  0  0  0  0  0  0
  145.6249  135.9264  151.7587 C   0  0  2  0  0  0  0  0  0  0  0  0
  146.2083  135.0460  152.8797 C   0  0  0  0  0  0  0  0  0  0  0  0
  147.0864  135.8426  153.7779 N   0  3  2  0  0  0  0  0  0  0  0  0
  147.7922  135.0808  154.8580 C   0  0  1  0  0  0  0  0  0  0  0  0
  148.6317  133.8886  154.3381 C   0  0  0  0  0  0  0  0  0  0  0  0
  148.6822  136.0463  155.6837 C   0  0  0  0  0  0  0  0  0  0  0  0
  148.0248  136.5345  156.8917 N   0  0  0  0  0  0  0  0  0  0  0  0
  148.3083  136.1489  158.1437 C   0  0  0  0  0  0  0  0  0  0  0  0
  149.1773  135.2963  158.3417 O   0  0  0  0  0  0  0  0  0  0  0  0
  147.5738  136.7812  159.0857 N   0  5  0  0  0  0  0  0  0  0  0  0
  147.4463  136.2439  160.3098 C   0  0  0  0  0  0  0  0  0  0  0  0
  147.4011  136.9770  161.4281 N   0  0  0  0  0  0  0  0  0  0  0  0
  147.2715  136.2115  162.5884 C   0  0  0  0  0  0  0  0  0  0  0  0
  147.2256  134.8638  162.3486 C   0  0  0  0  0  0  0  0  0  0  0  0
  147.3454  134.5136  160.6478 S   0  0  0  0  0  0  0  0  0  0  0  0
  146.3219  137.0013  154.3125 C   0  0  0  0  0  0  0  0  0  0  0  0
  145.7193  137.8540  153.1809 C   0  0  1  0  0  0  0  0  0  0  0  0
  146.7640  138.6819  152.4110 C   0  0  0  0  0  0  0  0  0  0  0  0
  144.9303  137.0339  152.3220 O   0  0  0  0  0  0  0  0  0  0  0  0
  145.1196  134.2966  150.4055 H   0  0  0  0  0  0  0  0  0  0  0  0
  144.2400  135.7880  150.0863 H   0  0  0  0  0  0  0  0  0  0  0  0
  143.7941  134.7814  151.4616 H   0  0  0  0  0  0  0  0  0  0  0  0
  146.4324  136.2862  151.1206 H   0  0  0  0  0  0  0  0  0  0  0  0
  145.4082  134.5875  153.4635 H   0  0  0  0  0  0  0  0  0  0  0  0
  146.7685  134.2427  152.4019 H   0  0  0  0  0  0  0  0  0  0  0  0
  147.0273  134.6568  155.5105 H   0  0  0  0  0  0  0  0  0  0  0  0
  149.1401  133.3709  155.1515 H   0  0  0  0  0  0  0  0  0  0  0  0
  149.3960  134.2150  153.6322 H   0  0  0  0  0  0  0  0  0  0  0  0
  148.0125  133.1346  153.8521 H   0  0  0  0  0  0  0  0  0  0  0  0
  149.5956  135.5338  155.9872 H   0  0  0  0  0  0  0  0  0  0  0  0
  149.0032  136.9082  155.0998 H   0  0  0  0  0  0  0  0  0  0  0  0
  147.3028  137.2304  156.7733 H   0  0  0  0  0  0  0  0  0  0  0  0
  147.2210  136.7101  163.5449 H   0  0  0  0  0  0  0  0  0  0  0  0
  147.1311  134.0600  163.0630 H   0  0  0  0  0  0  0  0  0  0  0  0
  145.5183  136.6293  154.9506 H   0  0  0  0  0  0  0  0  0  0  0  0
  146.9441  137.6342  154.9435 H   0  0  0  0  0  0  0  0  0  0  0  0
  145.0275  138.5645  153.6345 H   0  0  0  0  0  0  0  0  0  0  0  0
  147.2526  139.3970  153.0731 H   0  0  0  0  0  0  0  0  0  0  0  0
  146.2953  139.2472  151.6052 H   0  0  0  0  0  0  0  0  0  0  0  0
  147.5463  138.0613  151.9741 H   0  0  0  0  0  0  0  0  0  0  0  0
  147.8137  136.2178  153.1860 H   0  0  0  0  0  0  0  0  0  0  0  0
  1  2  1  0  0  0  0
  1 21  1  0  0  0  0
  1 22  1  0  0  0  0
  1 23  1  0  0  0  0
  2 20  1  0  0  0  0
  2  3  1  0  0  0  0
  2 24  1  0  0  0  0
  3  4  1  0  0  0  0
  3 25  1  0  0  0  0
  3 26  1  0  0  0  0
  4  5  1  0  0  0  0
  4 17  1  0  0  0  0
  4 42  1  0  0  0  0
  5  6  1  0  0  0  0
  5  7  1  0  0  0  0
  5 27  1  0  0  0  0
  6 28  1  0  0  0  0
  6 29  1  0  0  0  0
  6 30  1  0  0  0  0
  7  8  1  0  0  0  0
  7 31  1  0  0  0  0
  7 32  1  0  0  0  0
  8  9  1  0  0  0  0
  8 33  1  0  0  0  0
  9 10  2  0  0  0  0
  9 11  1  0  0  0  0
 11 12  1  0  0  0  0
 12 16  1  0  0  0  0
 12 13  2  0  0  0  0
 13 14  1  0  0  0  0
 14 15  2  0  0  0  0
 14 34  1  0  0  0  0
 15 16  1  0  0  0  0
 15 35  1  0  0  0  0
 17 18  1  0  0  0  0
 17 36  1  0  0  0  0
 17 37  1  0  0  0  0
 18 19  1  0  0  0  0
 18 20  1  0  0  0  0
 18 38  1  0  0  0  0
 19 39  1  0  0  0  0
 19 40  1  0  0  0  0
 19 41  1  0  0  0  0
M  CHG  1   4   1
M  CHG  1  11  -1
M  END
> <s_m_source_file>
AV-unprocessed.smi

> <i_m_source_file_index>
2032

> <i_lp_mmshare_version>
43012

> <i_f3d_flags>
0

> <s_epik_input>
W0NIM11bQ0BASF0xW0NIMl1OKFtDSDJdW0NASF0oTzEpW0NIM10pW0NASF0oW0NIM10pW0NIMl1bTkhdQyg9TylbTkhdYzJuW2NIXVtjSF1zMg==

> <s_epik_cmdline>
J2VwaWtfcHl0aG9uJywgJy1waCcsICc3LjAnLCAnLXRuJywgJzgnLCAnLW1hJywgJzIwMCcsICctbWV0YWxfYmluZGluZycsICctaW1hZScsICc8aW5maWxlLm1hZT4nLCAnLW9tYWUnLCAnPG91dGZpbGUubWFlPic=

> <r_lp_tautomer_probability>
0.999

> <r_epik_Ionization_Penalty>
6.71699

> <r_epik_Ionization_Penalty_Charging>
5.88592

> <r_epik_Ionization_Penalty_Neutral>
0.831074

> <r_epik_State_Penalty>
6.08365

> <r_epik_Charging_Adjusted_Penalty>
11.9696

> <i_epik_Tot_Q>
0

> <i_epik_Tot_abs_Q>
2

> <r_epik_Metal_State_Penalty>
2.0947

> <b_epik_Metal_Only>
1

> <s_lp_Force_Field>
OPLS_2005

> <r_lp_Energy>
13.0518

> <b_lp_Chiralities_Consistent>
1

> <s_lp_Variant>
AV-unprocessed.smi:2032-23

> <Gold.Version>
5.8.1

> <Gold.Id.Protein>
6NUR|6NUR_protein|mol2

> <Gold.PLP.Fitness>
43.7918

> <Gold.PLP.PLP>
-31.0961

> <Gold.PLP.part.hbond>
-4.0000

> <Gold.PLP.part.metal>
0.0000

> <Gold.PLP.part.buried>
-3.8787

> <Gold.PLP.part.nonpolar>
-23.8567

> <Gold.PLP.part.repulsive>
0.2176

> <Gold.PLP.ligand.clash>
0.0000

> <Gold.PLP.ligand.torsion>
0.9781

> <Gold.PLP.Chemscore.Hbond>
4.8640

> <Gold.PLP.Chemscore.CHOScore>
0.0000

> <Gold.PLP.Chemscore.Metal>
0.0000

> <Gold.Chemscore.Hbonds>
donor molecule, donor type, donor heavy atom, donor atom, acceptor molecule, acceptor atom, score
      L1  H     4    42       P1  7948  2.00
      P1  H  6896  6908       L1    10  0.94
      P1  H  6931  6943       L1    13  0.76
      P1  H  6934  6947       L1    13  0.76

> <Gold.PLP.Chemscore.Internal.Correction>
0.0600

> <Gold.Rescore>
     Score         DG    S(hbond)    S(metal)    S(lipo)     H(rot)  DE(clash)    DE(int)     intcor
     17.13     -18.38       2.98        0.00      59.86       1.58       0.16       1.09       ----

> <Gold.Chemscore.Fitness>
17.1298

> <Gold.Chemscore.DG>
-18.3796

> <Gold.Chemscore.ZeroCoef>
-5.4800

> <Gold.Chemscore.Hbond>
2.9755

> <Gold.Chemscore.Metal>
0.0000

> <Gold.Chemscore.Lipo>
59.8611

> <Gold.Chemscore.Internal_Hbond>
0.0000

> <Gold.Chemscore.DEClash>
0.1625

> <Gold.Chemscore.DEInternal>
1.0872

> <Gold.Chemscore.Rot>
1.5791

> <Gold.Chemscore.Internal.Correction>
   9.000000E+99

> <Gold.Chemscore.Hbonds>
donor molecule, donor type, donor heavy atom, donor atom, acceptor molecule, acceptor atom, score
      L1  H     4    42       P1  7948  0.99
      P1  H  6896  6908       L1    10  0.90
      P1  H  6931  6943       L1    13  0.25
      P1  H  6934  6947       L1    13  0.54

> <Gold.Chemscore.Hbond.Weighted>
-9.9383

> <Gold.Chemscore.Metal.Weighted>
-0.0000

> <Gold.Chemscore.Lipo.Weighted>
-7.0037

> <Gold.Chemscore.Internal_Hbond.Weighted>
0.0000

> <Gold.Chemscore.DEClash.Weighted>
0.1625

> <Gold.Chemscore.DEInternal.Weighted>
1.0872

> <Gold.Chemscore.Rot.Weighted>
4.0425

> <Gold.Chemscore.Internal.Correction.Weighted>
   9.000000E+99

> <Gold.Protein.RotatedTorsions>
[ 6907 6896 6895 6894 ] final  156.64 input  -60.11 | X-H torsion
[ 7974 7965 7964 7962 ] final  -83.45 input  175.53 | X-H torsion
[ 8008 7997 7996 7995 ] final -164.55 input   59.86 | X-H torsion
[ 10167 10162 10161 10158 ] final   55.05 input  -65.29 | X-H torsion
[ 10718 10713 10712 10709 ] final    4.32 input   66.30 | X-H torsion
[ 10763 10752 10751 10750 ] final -112.99 input  -60.55 | X-H torsion
[ 11005 11000 10999 10996 ] final  141.12 input  -57.11 | X-H torsion

> <Gold.Protein.ActiveResidues>
 VAL166  LYS551  ARG553  GLY616  TRP617  ASP618  TYR619  PRO620  LYS621  CYS622 
 ASP623  PHE694  ASN695  SER759  ASP760  ASP761  ALA762  ILE779  LEU786  VAL792 
 PHE793  MET794  SER795  GLU796  ALA797  LYS798  CYS799  TRP800  GLU811  SER814 

> <Gold.Protein.RotatedAtoms>
  152.0267  133.3921  159.4280 H   0  0  0  0  0  0  0  0  0  0  0  0  # atno 6907 bound_to 6896
  150.6885  134.3566  159.4941 H   0  0  0  0  0  0  0  0  0  0  0  0  # atno 6908 bound_to 6896
  152.1347  134.9108  160.0607 H   0  0  0  0  0  0  0  0  0  0  0  0  # atno 6909 bound_to 6896
  145.5199  140.9532  143.1661 H   0  0  0  0  0  0  0  0  0  0  0  0  # atno 7974 bound_to 7965
  155.8372  140.0943  157.1757 H   0  0  0  0  0  0  0  0  0  0  0  0  # atno 8008 bound_to 7997
  154.3981  140.1408  156.3746 H   0  0  0  0  0  0  0  0  0  0  0  0  # atno 8009 bound_to 7997
  155.8103  140.3450  155.5456 H   0  0  0  0  0  0  0  0  0  0  0  0  # atno 8010 bound_to 7997
  140.2236  144.3762  150.6441 H   0  0  0  0  0  0  0  0  0  0  0  0  # atno 10167 bound_to 10162
  156.8909  130.5687  149.5650 H   0  0  0  0  0  0  0  0  0  0  0  0  # atno 10718 bound_to 10713
  154.8376  135.4470  154.1280 H   0  0  0  0  0  0  0  0  0  0  0  0  # atno 10763 bound_to 10752
  153.2498  135.6925  153.7698 H   0  0  0  0  0  0  0  0  0  0  0  0  # atno 10764 bound_to 10752
  153.7014  135.3371  155.3201 H   0  0  0  0  0  0  0  0  0  0  0  0  # atno 10765 bound_to 10752
  140.0377  134.9320  157.0785 H   0  0  0  0  0  0  0  0  0  0  0  0  # atno 11005 bound_to 11000
  144.7682  139.6796  143.7206 LP  0  0  0  0  0  0  0  0  0  0  0  0  # atno 17320 bound_to 7965
  146.2113  139.5471  142.9679 LP  0  0  0  0  0  0  0  0  0  0  0  0  # atno 17321 bound_to 7965
  140.6237  143.2179  151.6642 LP  0  0  0  0  0  0  0  0  0  0  0  0  # atno 17342 bound_to 10162
  139.5135  144.3441  152.0713 LP  0  0  0  0  0  0  0  0  0  0  0  0  # atno 17343 bound_to 10162
  156.0630  130.5678  150.9231 LP  0  0  0  0  0  0  0  0  0  0  0  0  # atno 17370 bound_to 10713
  157.6084  131.0937  150.8838 LP  0  0  0  0  0  0  0  0  0  0  0  0  # atno 17371 bound_to 10713
  140.4120  134.1971  155.7163 LP  0  0  0  0  0  0  0  0  0  0  0  0  # atno 17394 bound_to 11000
  141.1866  133.8298  157.1061 LP  0  0  0  0  0  0  0  0  0  0  0  0  # atno 17395 bound_to 11000

$$$$
