AV-unprocessed.smi:1214|AV-procd|sdf|5092|dock8
  -GOLD-   22720 4143D 1   1.00000     0.00000
 Structure written by MMmdl.
 33 34  0  0  0  0  0  0  0  0  1 V2000
  145.5966  135.7602  150.9823 C   0  0  0  0  0  0  0  0  0  0  0  0
  145.4174  134.2603  150.8092 C   0  0  0  0  0  0  0  0  0  0  0  0
  144.3721  133.7828  149.9902 C   0  0  0  0  0  0  0  0  0  0  0  0
  144.2055  132.3969  149.8288 C   0  0  0  0  0  0  0  0  0  0  0  0
  145.0977  131.5423  150.4971 C   0  0  0  0  0  0  0  0  0  0  0  0
  146.0990  131.9907  151.2816 N   0  0  0  0  0  0  0  0  0  0  0  0
  146.2730  133.3264  151.4541 C   0  0  0  0  0  0  0  0  0  0  0  0
  147.3188  133.8858  152.2518 N   0  0  0  0  0  0  0  0  0  0  0  0
  147.8442  133.5055  153.4360 C   0  0  0  0  0  0  0  0  0  0  0  0
  147.4343  132.5036  154.0197 O   0  0  0  0  0  0  0  0  0  0  0  0
  148.8376  134.2698  153.9180 N   0  0  0  0  0  0  0  0  0  0  0  0
  149.5534  134.0389  155.1675 C   0  0  2  0  0  0  0  0  0  0  0  0
  150.8670  134.8432  155.2372 C   0  0  0  0  0  0  0  0  0  0  0  0
  151.7348  134.2725  156.3659 C   0  0  0  0  0  0  0  0  0  0  0  0
  151.3185  132.4910  156.4799 S   0  0  0  0  0  0  0  0  0  0  0  0
  152.3966  131.6916  155.8784 O   0  0  0  0  0  0  0  0  0  0  0  0
  150.8295  132.2028  157.8366 O   0  0  0  0  0  0  0  0  0  0  0  0
  149.9002  132.5523  155.3225 C   0  0  0  0  0  0  0  0  0  0  0  0
  144.8461  136.3178  150.4213 H   0  0  0  0  0  0  0  0  0  0  0  0
  146.5795  136.0717  150.6276 H   0  0  0  0  0  0  0  0  0  0  0  0
  145.5030  136.0367  152.0330 H   0  0  0  0  0  0  0  0  0  0  0  0
  143.7044  134.4680  149.4890 H   0  0  0  0  0  0  0  0  0  0  0  0
  143.4158  132.0002  149.2082 H   0  0  0  0  0  0  0  0  0  0  0  0
  145.0072  130.4705  150.3996 H   0  0  0  0  0  0  0  0  0  0  0  0
  147.7607  134.6964  151.8439 H   0  0  0  0  0  0  0  0  0  0  0  0
  149.1109  135.0775  153.3758 H   0  0  0  0  0  0  0  0  0  0  0  0
  148.9245  134.3271  156.0120 H   0  0  0  0  0  0  0  0  0  0  0  0
  151.4047  134.7317  154.2943 H   0  0  0  0  0  0  0  0  0  0  0  0
  150.6852  135.9095  155.3741 H   0  0  0  0  0  0  0  0  0  0  0  0
  152.8024  134.4004  156.1875 H   0  0  0  0  0  0  0  0  0  0  0  0
  151.4824  134.7369  157.3192 H   0  0  0  0  0  0  0  0  0  0  0  0
  149.0722  131.9582  155.7096 H   0  0  0  0  0  0  0  0  0  0  0  0
  150.2268  132.1208  154.3755 H   0  0  0  0  0  0  0  0  0  0  0  0
  1  2  1  0  0  0  0
  1 19  1  0  0  0  0
  1 20  1  0  0  0  0
  1 21  1  0  0  0  0
  2  7  1  0  0  0  0
  2  3  2  0  0  0  0
  3  4  1  0  0  0  0
  3 22  1  0  0  0  0
  4  5  2  0  0  0  0
  4 23  1  0  0  0  0
  5  6  1  0  0  0  0
  5 24  1  0  0  0  0
  6  7  2  0  0  0  0
  7  8  1  0  0  0  0
  8  9  1  0  0  0  0
  8 25  1  0  0  0  0
  9 10  2  0  0  0  0
  9 11  1  0  0  0  0
 11 12  1  0  0  0  0
 11 26  1  0  0  0  0
 12 18  1  0  0  0  0
 12 13  1  0  0  0  0
 12 27  1  0  0  0  0
 13 14  1  0  0  0  0
 13 28  1  0  0  0  0
 13 29  1  0  0  0  0
 14 15  1  0  0  0  0
 14 30  1  0  0  0  0
 14 31  1  0  0  0  0
 15 16  2  0  0  0  0
 15 17  2  0  0  0  0
 15 18  1  0  0  0  0
 18 32  1  0  0  0  0
 18 33  1  0  0  0  0
M  END
> <s_m_source_file>
AV-unprocessed.smi

> <i_m_source_file_index>
1214

> <i_lp_mmshare_version>
43012

> <i_f3d_flags>
0

> <s_epik_input>
W0NIM11jMVtjSF1bY0hdW2NIXW5jMVtOSF1DKD1PKVtOSF1bQ0BASF0oW0NIMl0yKVtDSDJdW0NIMl1TMig9Tyk9Tw==

> <s_epik_cmdline>
J2VwaWtfcHl0aG9uJywgJy1waCcsICc3LjAnLCAnLXRuJywgJzgnLCAnLW1hJywgJzIwMCcsICctbWV0YWxfYmluZGluZycsICctaW1hZScsICc8aW5maWxlLm1hZT4nLCAnLW9tYWUnLCAnPG91dGZpbGUubWFlPic=

> <r_lp_tautomer_probability>
1

> <r_epik_Ionization_Penalty>
4.18367e-05

> <r_epik_Ionization_Penalty_Charging>
0

> <r_epik_Ionization_Penalty_Neutral>
4.18367e-05

> <r_epik_State_Penalty>
-0

> <r_epik_Charging_Adjusted_Penalty>
0

> <i_epik_Tot_Q>
0

> <i_epik_Tot_abs_Q>
0

> <r_epik_Metal_State_Penalty>
-0

> <b_epik_Metal_Only>
0

> <s_lp_Force_Field>
OPLS_2005

> <r_lp_Energy>
8.88601

> <b_lp_Chiralities_Consistent>
1

> <s_lp_Variant>
AV-unprocessed.smi:1214-1

> <Gold.Version>
5.8.1

> <Gold.Id.Protein>
6NUR|6NUR_protein|mol2

> <Gold.PLP.Fitness>
38.5769

> <Gold.PLP.PLP>
-30.5906

> <Gold.PLP.part.hbond>
-3.0000

> <Gold.PLP.part.metal>
0.0000

> <Gold.PLP.part.buried>
-1.9103

> <Gold.PLP.part.nonpolar>
-23.7469

> <Gold.PLP.part.repulsive>
0.1960

> <Gold.PLP.ligand.clash>
0.0000

> <Gold.PLP.ligand.torsion>
0.5070

> <Gold.PLP.Chemscore.Hbond>
3.0000

> <Gold.PLP.Chemscore.CHOScore>
0.0000

> <Gold.PLP.Chemscore.Metal>
0.0000

> <Gold.Chemscore.Hbonds>
donor molecule, donor type, donor heavy atom, donor atom, acceptor molecule, acceptor atom, score
      L1  H     8    25       P1  7948  1.00
      L1  H    11    26       P1  7948  0.95
      P1  H  6896  6909       L1    17  1.00

> <Gold.PLP.Chemscore.Internal.Correction>
0.0003

> <Gold.Rescore>
     Score         DG    S(hbond)    S(metal)    S(lipo)     H(rot)  DE(clash)    DE(int)     intcor
     15.50     -18.45       2.49        0.00      61.50       1.00       0.96       1.99       ----

> <Gold.Chemscore.Fitness>
15.4955

> <Gold.Chemscore.DG>
-18.4456

> <Gold.Chemscore.ZeroCoef>
-5.4800

> <Gold.Chemscore.Hbond>
2.4939

> <Gold.Chemscore.Metal>
0.0000

> <Gold.Chemscore.Lipo>
61.5044

> <Gold.Chemscore.Internal_Hbond>
0.0000

> <Gold.Chemscore.DEClash>
0.9583

> <Gold.Chemscore.DEInternal>
1.9917

> <Gold.Chemscore.Rot>
1.0000

> <Gold.Chemscore.Internal.Correction>
   9.000000E+99

> <Gold.Chemscore.Hbonds>
donor molecule, donor type, donor heavy atom, donor atom, acceptor molecule, acceptor atom, score
      L1  H     8    25       P1  7948  0.34
      L1  H    11    26       P1  7948  0.21
      P1  H  6896  6909       L1    17  0.96

> <Gold.Chemscore.Hbond.Weighted>
-8.3295

> <Gold.Chemscore.Metal.Weighted>
-0.0000

> <Gold.Chemscore.Lipo.Weighted>
-7.1960

> <Gold.Chemscore.Internal_Hbond.Weighted>
0.0000

> <Gold.Chemscore.DEClash.Weighted>
0.9583

> <Gold.Chemscore.DEInternal.Weighted>
1.9917

> <Gold.Chemscore.Rot.Weighted>
2.5600

> <Gold.Chemscore.Internal.Correction.Weighted>
   9.000000E+99

> <Gold.Protein.RotatedTorsions>
[ 6907 6896 6895 6894 ] final  -40.28 input  -60.11 | X-H torsion
[ 7974 7965 7964 7962 ] final  152.60 input  175.53 | X-H torsion
[ 8008 7997 7996 7995 ] final  174.09 input   59.86 | X-H torsion
[ 10167 10162 10161 10158 ] final   37.85 input  -65.29 | X-H torsion
[ 10718 10713 10712 10709 ] final -175.14 input   66.30 | X-H torsion
[ 10763 10752 10751 10750 ] final -150.04 input  -60.55 | X-H torsion
[ 11005 11000 10999 10996 ] final -132.28 input  -57.11 | X-H torsion

> <Gold.Protein.ActiveResidues>
 VAL166  LYS551  ARG553  GLY616  TRP617  ASP618  TYR619  PRO620  LYS621  CYS622 
 ASP623  PHE694  ASN695  SER759  ASP760  ASP761  ALA762  ILE779  LEU786  VAL792 
 PHE793  MET794  SER795  GLU796  ALA797  LYS798  CYS799  TRP800  GLU811  SER814 

> <Gold.Protein.RotatedAtoms>
  150.9804  134.9160  159.7840 H   0  0  0  0  0  0  0  0  0  0  0  0  # atno 6907 bound_to 6896
  152.5220  134.3419  159.9230 H   0  0  0  0  0  0  0  0  0  0  0  0  # atno 6908 bound_to 6896
  151.3426  133.3915  159.2707 H   0  0  0  0  0  0  0  0  0  0  0  0  # atno 6909 bound_to 6896
  144.8211  139.6690  143.6100 H   0  0  0  0  0  0  0  0  0  0  0  0  # atno 7974 bound_to 7965
  156.1010  140.1443  156.9468 H   0  0  0  0  0  0  0  0  0  0  0  0  # atno 8008 bound_to 7997
  154.4702  140.0912  156.7170 H   0  0  0  0  0  0  0  0  0  0  0  0  # atno 8009 bound_to 7997
  155.4760  140.3443  155.4335 H   0  0  0  0  0  0  0  0  0  0  0  0  # atno 8010 bound_to 7997
  140.3993  144.1746  150.6133 H   0  0  0  0  0  0  0  0  0  0  0  0  # atno 10167 bound_to 10162
  156.7955  130.9533  151.3119 H   0  0  0  0  0  0  0  0  0  0  0  0  # atno 10718 bound_to 10713
  154.8142  135.3294  154.7222 H   0  0  0  0  0  0  0  0  0  0  0  0  # atno 10763 bound_to 10752
  153.7866  135.6914  153.4883 H   0  0  0  0  0  0  0  0  0  0  0  0  # atno 10764 bound_to 10752
  153.1944  135.4539  155.0137 H   0  0  0  0  0  0  0  0  0  0  0  0  # atno 10765 bound_to 10752
  140.9184  134.1476  157.4334 H   0  0  0  0  0  0  0  0  0  0  0  0  # atno 11005 bound_to 11000
  146.2516  139.6212  142.9423 LP  0  0  0  0  0  0  0  0  0  0  0  0  # atno 17320 bound_to 7965
  145.5103  141.0435  143.2491 LP  0  0  0  0  0  0  0  0  0  0  0  0  # atno 17321 bound_to 7965
  140.4757  143.2397  151.9027 LP  0  0  0  0  0  0  0  0  0  0  0  0  # atno 17342 bound_to 10162
  139.4785  144.5323  151.8649 LP  0  0  0  0  0  0  0  0  0  0  0  0  # atno 17343 bound_to 10162
  157.6579  130.8941  149.9768 LP  0  0  0  0  0  0  0  0  0  0  0  0  # atno 17370 bound_to 10713
  156.1133  130.3649  150.0012 LP  0  0  0  0  0  0  0  0  0  0  0  0  # atno 17371 bound_to 10713
  139.8770  134.9962  156.5783 LP  0  0  0  0  0  0  0  0  0  0  0  0  # atno 17394 bound_to 11000
  140.8020  133.8498  155.8734 LP  0  0  0  0  0  0  0  0  0  0  0  0  # atno 17395 bound_to 11000

$$$$
