AV-unprocessed.smi:2521|AV-procd|sdf|9915|dock7
  -GOLD-   2272013553D 1   1.00000     0.00000
 Structure written by MMmdl.
 36 37  0  0  0  0  0  0  0  0  1 V2000
  152.2201  140.9584  158.1926 C   0  0  0  0  0  0  0  0  0  0  0  0
  151.3283  141.6546  157.1544 C   0  0  0  0  0  0  0  0  0  0  0  0
  150.1446  142.4041  157.7825 C   0  0  0  0  0  0  0  0  0  0  0  0
  150.8935  140.7208  156.0680 C   0  0  0  0  0  0  0  0  0  0  0  0
  151.7556  140.0077  155.3305 N   0  0  0  0  0  0  0  0  0  0  0  0
  151.1160  139.2191  154.3850 N   0  0  0  0  0  0  0  0  0  0  0  0
  149.7845  139.3608  154.4345 C   0  0  0  0  0  0  0  0  0  0  0  0
  148.8855  138.6783  153.5729 N   0  0  0  0  0  0  0  0  0  0  0  0
  147.5427  138.7422  153.5498 C   0  0  0  0  0  0  0  0  0  0  0  0
  146.8515  139.4549  154.2780 O   0  0  0  0  0  0  0  0  0  0  0  0
  147.0345  137.9199  152.6203 N   0  0  0  0  0  0  0  0  0  0  0  0
  145.6144  137.7380  152.3346 C   0  0  0  0  0  0  0  0  0  0  0  0
  145.2344  136.2487  152.2301 C   0  0  2  0  0  0  0  0  0  0  0  0
  145.5424  135.6320  150.8811 C   0  0  0  0  0  0  0  0  0  0  0  0
  144.6766  134.3752  150.8981 C   0  0  0  0  0  0  0  0  0  0  0  0
  143.5495  134.6863  151.7122 O   0  0  0  0  0  0  0  0  0  0  0  0
  143.7391  135.9465  152.3477 C   0  0  0  0  0  0  0  0  0  0  0  0
  149.1994  140.4787  155.6542 S   0  0  0  0  0  0  0  0  0  0  0  0
  153.0946  140.5097  157.7204 H   0  0  0  0  0  0  0  0  0  0  0  0
  151.6798  140.1674  158.7136 H   0  0  0  0  0  0  0  0  0  0  0  0
  152.5763  141.6658  158.9419 H   0  0  0  0  0  0  0  0  0  0  0  0
  151.9503  142.4124  156.6766 H   0  0  0  0  0  0  0  0  0  0  0  0
  149.5831  142.9544  157.0270 H   0  0  0  0  0  0  0  0  0  0  0  0
  150.4857  143.1220  158.5287 H   0  0  0  0  0  0  0  0  0  0  0  0
  149.4557  141.7166  158.2746 H   0  0  0  0  0  0  0  0  0  0  0  0
  149.3159  138.0591  152.9021 H   0  0  0  0  0  0  0  0  0  0  0  0
  147.6792  137.3735  152.0683 H   0  0  0  0  0  0  0  0  0  0  0  0
  144.9993  138.2425  153.0818 H   0  0  0  0  0  0  0  0  0  0  0  0
  145.4047  138.2325  151.3859 H   0  0  0  0  0  0  0  0  0  0  0  0
  145.7676  135.6833  152.9964 H   0  0  0  0  0  0  0  0  0  0  0  0
  145.2207  136.2952  150.0766 H   0  0  0  0  0  0  0  0  0  0  0  0
  146.6015  135.4141  150.7403 H   0  0  0  0  0  0  0  0  0  0  0  0
  144.3729  134.0675  149.8974 H   0  0  0  0  0  0  0  0  0  0  0  0
  145.2164  133.5468  151.3580 H   0  0  0  0  0  0  0  0  0  0  0  0
  143.3954  135.9248  153.3822 H   0  0  0  0  0  0  0  0  0  0  0  0
  143.1513  136.6929  151.8116 H   0  0  0  0  0  0  0  0  0  0  0  0
  1  2  1  0  0  0  0
  1 19  1  0  0  0  0
  1 20  1  0  0  0  0
  1 21  1  0  0  0  0
  2  3  1  0  0  0  0
  2  4  1  0  0  0  0
  2 22  1  0  0  0  0
  3 23  1  0  0  0  0
  3 24  1  0  0  0  0
  3 25  1  0  0  0  0
  4 18  1  0  0  0  0
  4  5  2  0  0  0  0
  5  6  1  0  0  0  0
  6  7  2  0  0  0  0
  7  8  1  0  0  0  0
  7 18  1  0  0  0  0
  8  9  1  0  0  0  0
  8 26  1  0  0  0  0
  9 10  2  0  0  0  0
  9 11  1  0  0  0  0
 11 12  1  0  0  0  0
 11 27  1  0  0  0  0
 12 13  1  0  0  0  0
 12 28  1  0  0  0  0
 12 29  1  0  0  0  0
 13 17  1  0  0  0  0
 13 14  1  0  0  0  0
 13 30  1  0  0  0  0
 14 15  1  0  0  0  0
 14 31  1  0  0  0  0
 14 32  1  0  0  0  0
 15 16  1  0  0  0  0
 15 33  1  0  0  0  0
 15 34  1  0  0  0  0
 16 17  1  0  0  0  0
 17 35  1  0  0  0  0
 17 36  1  0  0  0  0
M  END
> <s_m_source_file>
AV-unprocessed.smi

> <i_m_source_file_index>
2521

> <i_lp_mmshare_version>
43012

> <i_f3d_flags>
0

> <s_epik_input>
W0NIM11bQ0hdKFtDSDNdKWMxbm5jKHMxKVtOSF1DKD1PKVtOSF1bQ0gyXVtDQEBIXTJbQ0gyXVtDSDJdT1tDSDJdMg==

> <s_epik_cmdline>
J2VwaWtfcHl0aG9uJywgJy1waCcsICc3LjAnLCAnLXRuJywgJzgnLCAnLW1hJywgJzIwMCcsICctbWV0YWxfYmluZGluZycsICctaW1hZScsICc8aW5maWxlLm1hZT4nLCAnLW9tYWUnLCAnPG91dGZpbGUubWFlPic=

> <r_lp_tautomer_probability>
1

> <r_epik_Ionization_Penalty>
0.000452582

> <r_epik_Ionization_Penalty_Charging>
0

> <r_epik_Ionization_Penalty_Neutral>
0.000452582

> <r_epik_State_Penalty>
-0

> <r_epik_Charging_Adjusted_Penalty>
0

> <i_epik_Tot_Q>
0

> <i_epik_Tot_abs_Q>
0

> <r_epik_Metal_State_Penalty>
0.207746

> <b_epik_Metal_Only>
0

> <s_lp_Force_Field>
OPLS_2005

> <r_lp_Energy>
11.692

> <b_lp_Chiralities_Consistent>
1

> <s_lp_Variant>
AV-unprocessed.smi:2521-1

> <Gold.Version>
5.8.1

> <Gold.Id.Protein>
6NUR|6NUR_protein|mol2

> <Gold.PLP.Fitness>
35.2407

> <Gold.PLP.PLP>
-30.6814

> <Gold.PLP.part.hbond>
-5.0000

> <Gold.PLP.part.metal>
0.0000

> <Gold.PLP.part.buried>
-5.2130

> <Gold.PLP.part.nonpolar>
-22.0914

> <Gold.PLP.part.repulsive>
0.6096

> <Gold.PLP.ligand.clash>
0.0000

> <Gold.PLP.ligand.torsion>
0.2955

> <Gold.PLP.Chemscore.Hbond>
1.6895

> <Gold.PLP.Chemscore.CHOScore>
0.0000

> <Gold.PLP.Chemscore.Metal>
0.0000

> <Gold.Chemscore.Hbonds>
donor molecule, donor type, donor heavy atom, donor atom, acceptor molecule, acceptor atom, score
      L1  H     8    26       P1  7948  0.70
      L1  H    11    27       P1  7948  1.00

> <Gold.PLP.Chemscore.Internal.Correction>
0.0818

> <Gold.Rescore>
     Score         DG    S(hbond)    S(metal)    S(lipo)     H(rot)  DE(clash)    DE(int)     intcor
     13.27     -14.89       1.94        0.00      56.72       1.45       0.18       1.44       ----

> <Gold.Chemscore.Fitness>
13.2745

> <Gold.Chemscore.DG>
-14.8891

> <Gold.Chemscore.ZeroCoef>
-5.4800

> <Gold.Chemscore.Hbond>
1.9385

> <Gold.Chemscore.Metal>
0.0000

> <Gold.Chemscore.Lipo>
56.7215

> <Gold.Chemscore.Internal_Hbond>
0.0000

> <Gold.Chemscore.DEClash>
0.1785

> <Gold.Chemscore.DEInternal>
1.4360

> <Gold.Chemscore.Rot>
1.4461

> <Gold.Chemscore.Internal.Correction>
   9.000000E+99

> <Gold.Chemscore.Hbonds>
donor molecule, donor type, donor heavy atom, donor atom, acceptor molecule, acceptor atom, score
      L1  H     8    26       P1  7948  0.66
      L1  H    11    27       P1  7948  0.98

> <Gold.Chemscore.Hbond.Weighted>
-6.4746

> <Gold.Chemscore.Metal.Weighted>
-0.0000

> <Gold.Chemscore.Lipo.Weighted>
-6.6364

> <Gold.Chemscore.Internal_Hbond.Weighted>
0.0000

> <Gold.Chemscore.DEClash.Weighted>
0.1785

> <Gold.Chemscore.DEInternal.Weighted>
1.4360

> <Gold.Chemscore.Rot.Weighted>
3.7019

> <Gold.Chemscore.Internal.Correction.Weighted>
   9.000000E+99

> <Gold.Protein.RotatedTorsions>
[ 6907 6896 6895 6894 ] final   85.27 input  -60.11 | X-H torsion
[ 7974 7965 7964 7962 ] final  -63.46 input  175.53 | X-H torsion
[ 8008 7997 7996 7995 ] final -142.98 input   59.86 | X-H torsion
[ 10167 10162 10161 10158 ] final   90.13 input  -65.29 | X-H torsion
[ 10718 10713 10712 10709 ] final  -70.71 input   66.30 | X-H torsion
[ 10763 10752 10751 10750 ] final   44.86 input  -60.55 | X-H torsion
[ 11005 11000 10999 10996 ] final   43.78 input  -57.11 | X-H torsion

> <Gold.Protein.ActiveResidues>
 VAL166  LYS551  ARG553  GLY616  TRP617  ASP618  TYR619  PRO620  LYS621  CYS622 
 ASP623  PHE694  ASN695  SER759  ASP760  ASP761  ALA762  ILE779  LEU786  VAL792 
 PHE793  MET794  SER795  GLU796  ALA797  LYS798  CYS799  TRP800  GLU811  SER814 

> <Gold.Protein.RotatedAtoms>
  152.5371  134.2611  159.8935 H   0  0  0  0  0  0  0  0  0  0  0  0  # atno 6907 bound_to 6896
  151.2571  133.4314  159.2622 H   0  0  0  0  0  0  0  0  0  0  0  0  # atno 6908 bound_to 6896
  151.0486  134.9672  159.8256 H   0  0  0  0  0  0  0  0  0  0  0  0  # atno 6909 bound_to 6896
  145.7787  140.8773  143.0341 H   0  0  0  0  0  0  0  0  0  0  0  0  # atno 7974 bound_to 7965
  155.5030  140.0577  157.2936 H   0  0  0  0  0  0  0  0  0  0  0  0  # atno 8008 bound_to 7997
  154.4580  140.1982  156.0275 H   0  0  0  0  0  0  0  0  0  0  0  0  # atno 8009 bound_to 7997
  156.0836  140.3243  155.7729 H   0  0  0  0  0  0  0  0  0  0  0  0  # atno 8010 bound_to 7997
  139.8504  144.6596  150.9176 H   0  0  0  0  0  0  0  0  0  0  0  0  # atno 10167 bound_to 10162
  156.0395  130.4337  150.2336 H   0  0  0  0  0  0  0  0  0  0  0  0  # atno 10718 bound_to 10713
  152.9834  135.6057  154.3342 H   0  0  0  0  0  0  0  0  0  0  0  0  # atno 10763 bound_to 10752
  154.3043  135.2772  155.2598 H   0  0  0  0  0  0  0  0  0  0  0  0  # atno 10764 bound_to 10752
  154.4836  135.5910  153.6463 H   0  0  0  0  0  0  0  0  0  0  0  0  # atno 10765 bound_to 10752
  140.1613  134.4337  155.8316 H   0  0  0  0  0  0  0  0  0  0  0  0  # atno 11005 bound_to 11000
  144.6800  139.9959  143.7484 LP  0  0  0  0  0  0  0  0  0  0  0  0  # atno 17320 bound_to 7965
  146.0096  139.3158  143.0878 LP  0  0  0  0  0  0  0  0  0  0  0  0  # atno 17321 bound_to 7965
  140.7788  143.3832  151.1439 LP  0  0  0  0  0  0  0  0  0  0  0  0  # atno 17342 bound_to 10162
  139.7471  143.8835  152.3066 LP  0  0  0  0  0  0  0  0  0  0  0  0  # atno 17343 bound_to 10162
  157.0432  131.0041  151.3277 LP  0  0  0  0  0  0  0  0  0  0  0  0  # atno 17370 bound_to 10713
  157.5194  130.7988  149.7792 LP  0  0  0  0  0  0  0  0  0  0  0  0  # atno 17371 bound_to 10713
  141.2209  133.6915  156.7599 LP  0  0  0  0  0  0  0  0  0  0  0  0  # atno 17394 bound_to 11000
  140.2486  134.8558  157.3645 LP  0  0  0  0  0  0  0  0  0  0  0  0  # atno 17395 bound_to 11000

$$$$
