AV-unprocessed.smi:3163|AV-procd|sdf|12072|dock5
  -GOLD-   2272017503D 1   1.00000     0.00000
 Structure written by MMmdl.
 36 37  0  0  0  0  0  0  0  0  2 V2000
  148.4364  136.1757  154.9722 C   0  0  0  0  0  0  0  0  0  0  0  0
  149.2556  137.2288  154.3368 N   0  3  2  0  0  0  0  0  0  0  0  0
  150.6092  137.3738  154.9142 C   0  0  0  0  0  0  0  0  0  0  0  0
  150.9721  138.8448  154.7293 C   0  0  0  0  0  0  0  0  0  0  0  0
  149.6322  139.5447  154.9387 C   0  0  1  0  0  0  0  0  0  0  0  0
  149.5790  140.9791  154.3771 C   0  0  0  0  0  0  0  0  0  0  0  0
  149.6947  141.9887  155.4246 N   0  0  0  0  0  0  0  0  0  0  0  0
  150.5007  141.9005  156.4926 C   0  0  0  0  0  0  0  0  0  0  0  0
  151.2366  140.9372  156.7032 O   0  0  0  0  0  0  0  0  0  0  0  0
  150.3945  142.9922  157.2706 N   0  0  0  0  0  0  0  0  0  0  0  0
  151.0565  143.2961  158.4924 C   0  0  0  0  0  0  0  0  0  0  0  0
  151.7515  142.2483  159.1315 C   0  0  0  0  0  0  0  0  0  0  0  0
  152.4283  142.5163  160.3380 C   0  0  0  0  0  0  0  0  0  0  0  0
  152.4554  143.7343  160.9181 N   0  0  0  0  0  0  0  0  0  0  0  0
  151.7993  144.7391  160.3006 C   0  0  0  0  0  0  0  0  0  0  0  0
  151.0909  144.5787  159.0927 C   0  0  0  0  0  0  0  0  0  0  0  0
  148.6228  138.5688  154.3142 C   0  0  0  0  0  0  0  0  0  0  0  0
  148.2439  136.4068  156.0209 H   0  0  0  0  0  0  0  0  0  0  0  0
  148.9463  135.2133  154.9201 H   0  0  0  0  0  0  0  0  0  0  0  0
  147.4787  136.0774  154.4603 H   0  0  0  0  0  0  0  0  0  0  0  0
  150.5868  137.1382  155.9799 H   0  0  0  0  0  0  0  0  0  0  0  0
  151.3229  136.7017  154.4369 H   0  0  0  0  0  0  0  0  0  0  0  0
  151.7405  139.1808  155.4265 H   0  0  0  0  0  0  0  0  0  0  0  0
  151.3368  139.0133  153.7148 H   0  0  0  0  0  0  0  0  0  0  0  0
  149.4476  139.5758  156.0141 H   0  0  0  0  0  0  0  0  0  0  0  0
  150.3678  141.1243  153.6369 H   0  0  0  0  0  0  0  0  0  0  0  0
  148.6354  141.1431  153.8561 H   0  0  0  0  0  0  0  0  0  0  0  0
  149.1302  142.8194  155.3211 H   0  0  0  0  0  0  0  0  0  0  0  0
  149.7862  143.7195  156.9245 H   0  0  0  0  0  0  0  0  0  0  0  0
  151.7656  141.2532  158.7111 H   0  0  0  0  0  0  0  0  0  0  0  0
  152.9639  141.7302  160.8493 H   0  0  0  0  0  0  0  0  0  0  0  0
  151.8446  145.7051  160.7814 H   0  0  0  0  0  0  0  0  0  0  0  0
  150.6053  145.4380  158.6588 H   0  0  0  0  0  0  0  0  0  0  0  0
  148.4233  138.8267  153.2734 H   0  0  0  0  0  0  0  0  0  0  0  0
  147.6700  138.5939  154.8457 H   0  0  0  0  0  0  0  0  0  0  0  0
  149.3827  136.9645  153.3702 H   0  0  0  0  0  0  0  0  0  0  0  0
  1  2  1  0  0  0  0
  1 18  1  0  0  0  0
  1 19  1  0  0  0  0
  1 20  1  0  0  0  0
  2 17  1  0  0  0  0
  2  3  1  0  0  0  0
  2 36  1  0  0  0  0
  3  4  1  0  0  0  0
  3 21  1  0  0  0  0
  3 22  1  0  0  0  0
  4  5  1  0  0  0  0
  4 23  1  0  0  0  0
  4 24  1  0  0  0  0
  5  6  1  0  0  0  0
  5 17  1  0  0  0  0
  5 25  1  0  0  0  0
  6  7  1  0  0  0  0
  6 26  1  0  0  0  0
  6 27  1  0  0  0  0
  7  8  1  0  0  0  0
  7 28  1  0  0  0  0
  8  9  2  0  0  0  0
  8 10  1  0  0  0  0
 10 11  1  0  0  0  0
 10 29  1  0  0  0  0
 11 16  1  0  0  0  0
 11 12  2  0  0  0  0
 12 13  1  0  0  0  0
 12 30  1  0  0  0  0
 13 14  2  0  0  0  0
 13 31  1  0  0  0  0
 14 15  1  0  0  0  0
 15 16  2  0  0  0  0
 15 32  1  0  0  0  0
 16 33  1  0  0  0  0
 17 34  1  0  0  0  0
 17 35  1  0  0  0  0
M  CHG  1   2   1
M  END
> <s_m_source_file>
AV-unprocessed.smi

> <i_m_source_file_index>
3163

> <i_lp_mmshare_version>
43012

> <i_f3d_flags>
0

> <s_epik_input>
W0NIM11OMVtDSDJdW0NIMl1bQ0BIXShbQ0gyXTEpW0NIMl1bTkhdQyg9TylbTkhdYzJbY0hdW2NIXW5bY0hdW2NIXTI=

> <s_epik_cmdline>
J2VwaWtfcHl0aG9uJywgJy1waCcsICc3LjAnLCAnLXRuJywgJzgnLCAnLW1hJywgJzIwMCcsICctbWV0YWxfYmluZGluZycsICctaW1hZScsICc8aW5maWxlLm1hZT4nLCAnLW9tYWUnLCAnPG91dGZpbGUubWFlPic=

> <r_epik_Ionization_Penalty>
0.103936

> <r_epik_Ionization_Penalty_Charging>
0.0012301

> <r_epik_Ionization_Penalty_Neutral>
0.102706

> <r_epik_State_Penalty>
0.0926275

> <r_epik_Charging_Adjusted_Penalty>
0.0938576

> <i_epik_Tot_Q>
1

> <i_epik_Tot_abs_Q>
1

> <r_epik_Metal_State_Penalty>
0.0788376

> <b_epik_Metal_Only>
0

> <s_lp_Force_Field>
OPLS_2005

> <r_lp_Energy>
31.7685

> <b_lp_Chiralities_Consistent>
1

> <s_lp_Variant>
AV-unprocessed.smi:3163-2

> <Gold.Version>
5.8.1

> <Gold.Id.Protein>
6NUR|6NUR_protein|mol2

> <Gold.PLP.Fitness>
44.0775

> <Gold.PLP.PLP>
-33.6834

> <Gold.PLP.part.hbond>
-3.0000

> <Gold.PLP.part.metal>
0.0000

> <Gold.PLP.part.buried>
-4.8003

> <Gold.PLP.part.nonpolar>
-27.6329

> <Gold.PLP.part.repulsive>
0.2782

> <Gold.PLP.ligand.clash>
0.0000

> <Gold.PLP.ligand.torsion>
0.7918

> <Gold.PLP.Chemscore.Hbond>
3.9920

> <Gold.PLP.Chemscore.CHOScore>
0.0000

> <Gold.PLP.Chemscore.Metal>
0.0000

> <Gold.Chemscore.Hbonds>
donor molecule, donor type, donor heavy atom, donor atom, acceptor molecule, acceptor atom, score
      L1  H     2    36       P1  7948  2.00
      L1  H     7    28       P1  8028  0.99
      L1  H    10    29       P1  8028  1.00

> <Gold.PLP.Chemscore.Internal.Correction>
0.0017

> <Gold.Rescore>
     Score         DG    S(hbond)    S(metal)    S(lipo)     H(rot)  DE(clash)    DE(int)     intcor
     17.29     -22.31       2.96        0.00      86.86       1.26       0.17       4.84       ----

> <Gold.Chemscore.Fitness>
17.2933

> <Gold.Chemscore.DG>
-22.3090

> <Gold.Chemscore.ZeroCoef>
-5.4800

> <Gold.Chemscore.Hbond>
2.9584

> <Gold.Chemscore.Metal>
0.0000

> <Gold.Chemscore.Lipo>
86.8625

> <Gold.Chemscore.Internal_Hbond>
0.0000

> <Gold.Chemscore.DEClash>
0.1739

> <Gold.Chemscore.DEInternal>
4.8418

> <Gold.Chemscore.Rot>
1.2559

> <Gold.Chemscore.Internal.Correction>
   9.000000E+99

> <Gold.Chemscore.Hbonds>
donor molecule, donor type, donor heavy atom, donor atom, acceptor molecule, acceptor atom, score
      L1  H     2    36       P1  7948  0.92
      L1  H     7    28       P1  8028  0.94
      L1  H    10    29       P1  8028  0.97

> <Gold.Chemscore.Hbond.Weighted>
-9.8812

> <Gold.Chemscore.Metal.Weighted>
-0.0000

> <Gold.Chemscore.Lipo.Weighted>
-10.1629

> <Gold.Chemscore.Internal_Hbond.Weighted>
0.0000

> <Gold.Chemscore.DEClash.Weighted>
0.1739

> <Gold.Chemscore.DEInternal.Weighted>
4.8418

> <Gold.Chemscore.Rot.Weighted>
3.2151

> <Gold.Chemscore.Internal.Correction.Weighted>
   9.000000E+99

> <Gold.Protein.RotatedTorsions>
[ 6907 6896 6895 6894 ] final -117.63 input  -60.11 | X-H torsion
[ 7974 7965 7964 7962 ] final   48.31 input  175.53 | X-H torsion
[ 8008 7997 7996 7995 ] final   65.90 input   59.86 | X-H torsion
[ 10167 10162 10161 10158 ] final   39.62 input  -65.29 | X-H torsion
[ 10718 10713 10712 10709 ] final  -49.52 input   66.30 | X-H torsion
[ 10763 10752 10751 10750 ] final  -44.96 input  -60.55 | X-H torsion
[ 11005 11000 10999 10996 ] final  -95.55 input  -57.11 | X-H torsion

> <Gold.Protein.ActiveResidues>
 VAL166  LYS551  ARG553  GLY616  TRP617  ASP618  TYR619  PRO620  LYS621  CYS622 
 ASP623  PHE694  ASN695  SER759  ASP760  ASP761  ALA762  ILE779  LEU786  VAL792 
 PHE793  MET794  SER795  GLU796  ALA797  LYS798  CYS799  TRP800  GLU811  SER814 

> <Gold.Protein.RotatedAtoms>
  150.8152  133.8350  159.3163 H   0  0  0  0  0  0  0  0  0  0  0  0  # atno 6907 bound_to 6896
  151.6124  135.1037  160.0093 H   0  0  0  0  0  0  0  0  0  0  0  0  # atno 6908 bound_to 6896
  152.4244  133.7129  159.6546 H   0  0  0  0  0  0  0  0  0  0  0  0  # atno 6909 bound_to 6896
  146.0216  139.4658  142.9893 H   0  0  0  0  0  0  0  0  0  0  0  0  # atno 7974 bound_to 7965
  155.6690  140.3497  155.4811 H   0  0  0  0  0  0  0  0  0  0  0  0  # atno 8008 bound_to 7997
  155.9705  140.1155  157.0839 H   0  0  0  0  0  0  0  0  0  0  0  0  # atno 8009 bound_to 7997
  154.4165  140.1158  156.5286 H   0  0  0  0  0  0  0  0  0  0  0  0  # atno 8010 bound_to 7997
  140.3822  144.1965  150.6130 H   0  0  0  0  0  0  0  0  0  0  0  0  # atno 10167 bound_to 10162
  156.1886  130.4152  149.9404 H   0  0  0  0  0  0  0  0  0  0  0  0  # atno 10718 bound_to 10713
  154.0207  135.6669  153.4772 H   0  0  0  0  0  0  0  0  0  0  0  0  # atno 10763 bound_to 10752
  153.0581  135.5044  154.8025 H   0  0  0  0  0  0  0  0  0  0  0  0  # atno 10764 bound_to 10752
  154.6939  135.3066  154.9404 H   0  0  0  0  0  0  0  0  0  0  0  0  # atno 10765 bound_to 10752
  141.1438  133.8034  157.0451 H   0  0  0  0  0  0  0  0  0  0  0  0  # atno 11005 bound_to 11000
  145.7183  141.0083  143.1416 LP  0  0  0  0  0  0  0  0  0  0  0  0  # atno 17320 bound_to 7965
  144.6992  139.8840  143.7449 LP  0  0  0  0  0  0  0  0  0  0  0  0  # atno 17321 bound_to 7965
  140.4926  143.2342  151.8796 LP  0  0  0  0  0  0  0  0  0  0  0  0  # atno 17342 bound_to 10162
  139.4794  144.5149  151.8882 LP  0  0  0  0  0  0  0  0  0  0  0  0  # atno 17343 bound_to 10162
  156.7152  130.8985  151.3613 LP  0  0  0  0  0  0  0  0  0  0  0  0  # atno 17370 bound_to 10713
  157.6914  130.9238  150.0525 LP  0  0  0  0  0  0  0  0  0  0  0  0  # atno 17371 bound_to 10713
  140.0668  134.9724  157.1399 LP  0  0  0  0  0  0  0  0  0  0  0  0  # atno 17394 bound_to 11000
  140.3768  134.2330  155.7173 LP  0  0  0  0  0  0  0  0  0  0  0  0  # atno 17395 bound_to 11000

$$$$
