AV-unprocessed.smi:1768|AV-procd|sdf|7150|dock4
  -GOLD-   22720 8393D 1   1.00000     0.00000
 Structure written by MMmdl.
 32 33  0  0  0  0  0  0  0  0  2 V2000
  145.8078  135.9310  161.7760 C   0  0  0  0  0  0  0  0  0  0  0  0
  146.9891  136.2674  160.9323 C   0  0  0  0  0  0  0  0  0  0  0  0
  147.2553  137.5114  160.5271 N   0  0  0  0  0  0  0  0  0  0  0  0
  148.4067  137.5748  159.7556 N   0  0  0  0  0  0  0  0  0  0  0  0
  148.9896  136.3802  159.5817 C   0  0  0  0  0  0  0  0  0  0  0  0
  150.1166  136.2260  158.8674 N   0  5  0  0  0  0  0  0  0  0  0  0
  150.5504  137.2247  158.0651 C   0  0  0  0  0  0  0  0  0  0  0  0
  150.5380  137.2263  156.8321 O   0  0  0  0  0  0  0  0  0  0  0  0
  151.0354  138.2803  158.7359 N   0  0  0  0  0  0  0  0  0  0  0  0
  151.5865  139.5071  158.1607 C   0  0  1  0  0  0  0  0  0  0  0  0
  150.5152  140.1610  157.2758 C   0  0  0  0  0  0  0  0  0  0  0  0
  152.0636  140.4591  159.2771 C   0  0  1  0  0  0  0  0  0  0  0  0
  153.3624  140.0494  159.9722 C   0  0  0  0  0  0  0  0  0  0  0  0
  153.8720  141.3562  160.5542 C   0  0  0  0  0  0  0  0  0  0  0  0
  153.1553  142.4314  159.7318 C   0  0  0  0  0  0  0  0  0  0  0  0
  152.4112  141.7283  158.7448 O   0  0  0  0  0  0  0  0  0  0  0  0
  148.1480  135.0623  160.3973 S   0  0  0  0  0  0  0  0  0  0  0  0
  144.9116  136.4053  161.3753 H   0  0  0  0  0  0  0  0  0  0  0  0
  145.9663  136.2825  162.7957 H   0  0  0  0  0  0  0  0  0  0  0  0
  145.6513  134.8525  161.7971 H   0  0  0  0  0  0  0  0  0  0  0  0
  151.0209  138.2243  159.7434 H   0  0  0  0  0  0  0  0  0  0  0  0
  152.4371  139.2680  157.5202 H   0  0  0  0  0  0  0  0  0  0  0  0
  150.8961  141.0630  156.7966 H   0  0  0  0  0  0  0  0  0  0  0  0
  149.6351  140.4391  157.8567 H   0  0  0  0  0  0  0  0  0  0  0  0
  150.1923  139.4824  156.4855 H   0  0  0  0  0  0  0  0  0  0  0  0
  151.2760  140.5943  160.0211 H   0  0  0  0  0  0  0  0  0  0  0  0
  153.2153  139.2764  160.7273 H   0  0  0  0  0  0  0  0  0  0  0  0
  154.0775  139.6728  159.2395 H   0  0  0  0  0  0  0  0  0  0  0  0
  153.6035  141.4446  161.6076 H   0  0  0  0  0  0  0  0  0  0  0  0
  154.9570  141.4314  160.4760 H   0  0  0  0  0  0  0  0  0  0  0  0
  152.4722  143.0036  160.3609 H   0  0  0  0  0  0  0  0  0  0  0  0
  153.8501  143.1287  159.2634 H   0  0  0  0  0  0  0  0  0  0  0  0
  1  2  1  0  0  0  0
  1 18  1  0  0  0  0
  1 19  1  0  0  0  0
  1 20  1  0  0  0  0
  2 17  1  0  0  0  0
  2  3  2  0  0  0  0
  3  4  1  0  0  0  0
  4  5  2  0  0  0  0
  5  6  1  0  0  0  0
  5 17  1  0  0  0  0
  6  7  1  0  0  0  0
  7  8  2  0  0  0  0
  7  9  1  0  0  0  0
  9 10  1  0  0  0  0
  9 21  1  0  0  0  0
 10 11  1  0  0  0  0
 10 12  1  0  0  0  0
 10 22  1  0  0  0  0
 11 23  1  0  0  0  0
 11 24  1  0  0  0  0
 11 25  1  0  0  0  0
 12 16  1  0  0  0  0
 12 13  1  0  0  0  0
 12 26  1  0  0  0  0
 13 14  1  0  0  0  0
 13 27  1  0  0  0  0
 13 28  1  0  0  0  0
 14 15  1  0  0  0  0
 14 29  1  0  0  0  0
 14 30  1  0  0  0  0
 15 16  1  0  0  0  0
 15 31  1  0  0  0  0
 15 32  1  0  0  0  0
M  CHG  1   6  -1
M  END
> <s_m_source_file>
AV-unprocessed.smi

> <i_m_source_file_index>
1768

> <i_lp_mmshare_version>
43012

> <i_f3d_flags>
0

> <s_epik_input>
W0NIM11jMW5uYyhzMSlbTkhdQyg9TylbTkhdW0NASF0oW0NIM10pW0NAQEhdMltDSDJdW0NIMl1bQ0gyXU8y

> <s_epik_cmdline>
J2VwaWtfcHl0aG9uJywgJy1waCcsICc3LjAnLCAnLXRuJywgJzgnLCAnLW1hJywgJzIwMCcsICctbWV0YWxfYmluZGluZycsICctaW1hZScsICc8aW5maWxlLm1hZT4nLCAnLW9tYWUnLCAnPG91dGZpbGUubWFlPic=

> <r_lp_tautomer_probability>
1

> <r_epik_Ionization_Penalty>
4.3376

> <r_epik_Ionization_Penalty_Charging>
4.19392

> <r_epik_Ionization_Penalty_Neutral>
0.143681

> <r_epik_State_Penalty>
4.19342

> <r_epik_Charging_Adjusted_Penalty>
8.38735

> <i_epik_Tot_Q>
-1

> <i_epik_Tot_abs_Q>
1

> <r_epik_Metal_State_Penalty>
0.686065

> <b_epik_Metal_Only>
1

> <s_lp_Force_Field>
OPLS_2005

> <r_lp_Energy>
15.6479

> <b_lp_Chiralities_Consistent>
1

> <s_lp_Variant>
AV-unprocessed.smi:1768-8

> <Gold.Version>
5.8.1

> <Gold.Id.Protein>
6NUR|6NUR_protein|mol2

> <Gold.PLP.Fitness>
33.4747

> <Gold.PLP.PLP>
-26.6104

> <Gold.PLP.part.hbond>
-4.8650

> <Gold.PLP.part.metal>
0.0000

> <Gold.PLP.part.buried>
-3.0389

> <Gold.PLP.part.nonpolar>
-19.0054

> <Gold.PLP.part.repulsive>
0.1332

> <Gold.PLP.ligand.clash>
0.0000

> <Gold.PLP.ligand.torsion>
0.8629

> <Gold.PLP.Chemscore.Hbond>
2.8500

> <Gold.PLP.Chemscore.CHOScore>
0.0000

> <Gold.PLP.Chemscore.Metal>
0.0000

> <Gold.Chemscore.Hbonds>
donor molecule, donor type, donor heavy atom, donor atom, acceptor molecule, acceptor atom, score
      P1  H  6896  6909       L1     6  1.98
      P1  H  6934  6947       L1     3  0.90

> <Gold.PLP.Chemscore.Internal.Correction>
0.0401

> <Gold.Rescore>
     Score         DG    S(hbond)    S(metal)    S(lipo)     H(rot)  DE(clash)    DE(int)     intcor
     12.74     -13.60       1.27        0.00      60.98       1.28       0.06       0.81       ----

> <Gold.Chemscore.Fitness>
12.7369

> <Gold.Chemscore.DG>
-13.6013

> <Gold.Chemscore.ZeroCoef>
-5.4800

> <Gold.Chemscore.Hbond>
1.2745

> <Gold.Chemscore.Metal>
0.0000

> <Gold.Chemscore.Lipo>
60.9821

> <Gold.Chemscore.Internal_Hbond>
0.0000

> <Gold.Chemscore.DEClash>
0.0588

> <Gold.Chemscore.DEInternal>
0.8056

> <Gold.Chemscore.Rot>
1.2776

> <Gold.Chemscore.Internal.Correction>
   9.000000E+99

> <Gold.Chemscore.Hbonds>
donor molecule, donor type, donor heavy atom, donor atom, acceptor molecule, acceptor atom, score
      P1  H  6896  6909       L1     6  0.24
      P1  H  6934  6947       L1     3  0.17

> <Gold.Chemscore.Hbond.Weighted>
-4.2570

> <Gold.Chemscore.Metal.Weighted>
-0.0000

> <Gold.Chemscore.Lipo.Weighted>
-7.1349

> <Gold.Chemscore.Internal_Hbond.Weighted>
0.0000

> <Gold.Chemscore.DEClash.Weighted>
0.0588

> <Gold.Chemscore.DEInternal.Weighted>
0.8056

> <Gold.Chemscore.Rot.Weighted>
3.2706

> <Gold.Chemscore.Internal.Correction.Weighted>
   9.000000E+99

> <Gold.Protein.RotatedTorsions>
[ 6907 6896 6895 6894 ] final   57.16 input  -60.11 | X-H torsion
[ 7974 7965 7964 7962 ] final  -98.21 input  175.53 | X-H torsion
[ 8008 7997 7996 7995 ] final  107.46 input   59.86 | X-H torsion
[ 10167 10162 10161 10158 ] final   94.17 input  -65.29 | X-H torsion
[ 10718 10713 10712 10709 ] final   -2.64 input   66.30 | X-H torsion
[ 10763 10752 10751 10750 ] final   77.48 input  -60.55 | X-H torsion
[ 11005 11000 10999 10996 ] final   23.07 input  -57.11 | X-H torsion

> <Gold.Protein.ActiveResidues>
 VAL166  LYS551  ARG553  GLY616  TRP617  ASP618  TYR619  PRO620  LYS621  CYS622 
 ASP623  PHE694  ASN695  SER759  ASP760  ASP761  ALA762  ILE779  LEU786  VAL792 
 PHE793  MET794  SER795  GLU796  ALA797  LYS798  CYS799  TRP800  GLU811  SER814 

> <Gold.Protein.RotatedAtoms>
  152.3705  134.6740  160.0177 H   0  0  0  0  0  0  0  0  0  0  0  0  # atno 6907 bound_to 6896
  151.7035  133.3306  159.3280 H   0  0  0  0  0  0  0  0  0  0  0  0  # atno 6908 bound_to 6896
  150.7670  134.6530  159.6343 H   0  0  0  0  0  0  0  0  0  0  0  0  # atno 6909 bound_to 6896
  145.3236  140.9427  143.2701 H   0  0  0  0  0  0  0  0  0  0  0  0  # atno 7974 bound_to 7965
  156.1826  140.3094  155.9178 H   0  0  0  0  0  0  0  0  0  0  0  0  # atno 8008 bound_to 7997
  155.3350  140.0463  157.3060 H   0  0  0  0  0  0  0  0  0  0  0  0  # atno 8009 bound_to 7997
  154.5360  140.2246  155.8732 H   0  0  0  0  0  0  0  0  0  0  0  0  # atno 8010 bound_to 7997
  139.8109  144.6773  150.9641 H   0  0  0  0  0  0  0  0  0  0  0  0  # atno 10167 bound_to 10162
  156.7878  130.5352  149.5740 H   0  0  0  0  0  0  0  0  0  0  0  0  # atno 10718 bound_to 10713
  153.0802  135.4912  154.8487 H   0  0  0  0  0  0  0  0  0  0  0  0  # atno 10763 bound_to 10752
  154.7141  135.3026  154.9154 H   0  0  0  0  0  0  0  0  0  0  0  0  # atno 10764 bound_to 10752
  153.9839  135.6786  153.4804 H   0  0  0  0  0  0  0  0  0  0  0  0  # atno 10765 bound_to 10752
  140.3736  134.1996  155.7666 H   0  0  0  0  0  0  0  0  0  0  0  0  # atno 11005 bound_to 11000
  144.8919  139.4763  143.6673 LP  0  0  0  0  0  0  0  0  0  0  0  0  # atno 17320 bound_to 7965
  146.3073  139.7623  142.9047 LP  0  0  0  0  0  0  0  0  0  0  0  0  # atno 17321 bound_to 7965
  140.7818  143.4186  151.0878 LP  0  0  0  0  0  0  0  0  0  0  0  0  # atno 17342 bound_to 10162
  139.7852  143.8297  152.3144 LP  0  0  0  0  0  0  0  0  0  0  0  0  # atno 17343 bound_to 10162
  156.1178  130.6087  151.0147 LP  0  0  0  0  0  0  0  0  0  0  0  0  # atno 17370 bound_to 10713
  157.6615  131.0880  150.7827 LP  0  0  0  0  0  0  0  0  0  0  0  0  # atno 17371 bound_to 10713
  141.1946  133.8123  157.0748 LP  0  0  0  0  0  0  0  0  0  0  0  0  # atno 17394 bound_to 11000
  140.0533  134.9794  157.1175 LP  0  0  0  0  0  0  0  0  0  0  0  0  # atno 17395 bound_to 11000

$$$$
