AV-unprocessed.smi:3185|AV-procd|sdf|12167|dock4
  -GOLD-   2272018 03D 1   1.00000     0.00000
 Structure written by MMmdl.
 38 39  0  0  0  0  0  0  0  0  2 V2000
  150.6621  132.1579  157.7150 N   0  0  0  0  0  0  0  0  0  0  0  0
  150.5297  132.2356  156.5687 C   0  0  0  0  0  0  0  0  0  0  0  0
  150.3622  132.3333  155.1111 C   0  0  0  0  0  0  0  0  0  0  0  0
  148.9923  132.8931  154.7116 C   0  0  0  0  0  0  0  0  0  0  0  0
  148.8261  132.9916  153.1910 C   0  0  0  0  0  0  0  0  0  0  0  0
  147.6804  133.8569  152.8416 N   0  3  0  0  0  0  0  0  0  0  0  0
  146.5231  133.1710  152.2201 C   0  0  2  0  0  0  0  0  0  0  0  0
  146.8465  132.8261  150.7488 C   0  0  0  0  0  0  0  0  0  0  0  0
  145.6603  132.1576  150.0383 C   0  0  0  0  0  0  0  0  0  0  0  0
  144.3927  133.0175  150.1372 C   0  0  0  0  0  0  0  0  0  0  0  0
  144.0376  133.2994  151.6056 C   0  0  0  0  0  0  0  0  0  0  0  0
  145.1910  133.9655  152.3866 C   0  0  2  0  0  0  0  0  0  0  0  0
  145.2867  135.3977  152.0985 N   0  0  0  0  0  0  0  0  0  0  0  0
  145.6625  135.9846  150.9064 C   0  0  0  0  0  0  0  0  0  0  0  0
  145.6360  137.3379  151.0831 C   0  0  0  0  0  0  0  0  0  0  0  0
  145.2461  137.4919  152.4413 C   0  0  0  0  0  0  0  0  0  0  0  0
  145.0442  136.3326  153.0449 N   0  0  0  0  0  0  0  0  0  0  0  0
  151.1618  132.9658  154.7243 H   0  0  0  0  0  0  0  0  0  0  0  0
  150.5049  131.3368  154.6924 H   0  0  0  0  0  0  0  0  0  0  0  0
  148.2099  132.2548  155.1244 H   0  0  0  0  0  0  0  0  0  0  0  0
  148.8591  133.8781  155.1608 H   0  0  0  0  0  0  0  0  0  0  0  0
  149.7351  133.3933  152.7415 H   0  0  0  0  0  0  0  0  0  0  0  0
  148.6749  131.9931  152.7810 H   0  0  0  0  0  0  0  0  0  0  0  0
  147.3582  134.3261  153.6766 H   0  0  0  0  0  0  0  0  0  0  0  0
  146.4014  132.2185  152.7388 H   0  0  0  0  0  0  0  0  0  0  0  0
  147.1415  133.7170  150.1955 H   0  0  0  0  0  0  0  0  0  0  0  0
  147.7083  132.1590  150.7108 H   0  0  0  0  0  0  0  0  0  0  0  0
  145.9078  131.9800  148.9911 H   0  0  0  0  0  0  0  0  0  0  0  0
  145.4731  131.1785  150.4811 H   0  0  0  0  0  0  0  0  0  0  0  0
  144.5340  133.9534  149.5962 H   0  0  0  0  0  0  0  0  0  0  0  0
  143.5624  132.5058  149.6496 H   0  0  0  0  0  0  0  0  0  0  0  0
  143.1388  133.9148  151.6606 H   0  0  0  0  0  0  0  0  0  0  0  0
  143.7833  132.3551  152.0885 H   0  0  0  0  0  0  0  0  0  0  0  0
  144.9111  133.9008  153.4388 H   0  0  0  0  0  0  0  0  0  0  0  0
  145.9129  135.3956  150.0361 H   0  0  0  0  0  0  0  0  0  0  0  0
  145.8680  138.1014  150.3554 H   0  0  0  0  0  0  0  0  0  0  0  0
  145.1069  138.4036  153.0032 H   0  0  0  0  0  0  0  0  0  0  0  0
  148.0102  134.5552  152.1907 H   0  0  0  0  0  0  0  0  0  0  0  0
  1  2  3  0  0  0  0
  2  3  1  0  0  0  0
  3  4  1  0  0  0  0
  3 18  1  0  0  0  0
  3 19  1  0  0  0  0
  4  5  1  0  0  0  0
  4 20  1  0  0  0  0
  4 21  1  0  0  0  0
  5  6  1  0  0  0  0
  5 22  1  0  0  0  0
  5 23  1  0  0  0  0
  6  7  1  0  0  0  0
  6 24  1  0  0  0  0
  6 38  1  0  0  0  0
  7 12  1  0  0  0  0
  7  8  1  0  0  0  0
  7 25  1  0  0  0  0
  8  9  1  0  0  0  0
  8 26  1  0  0  0  0
  8 27  1  0  0  0  0
  9 10  1  0  0  0  0
  9 28  1  0  0  0  0
  9 29  1  0  0  0  0
 10 11  1  0  0  0  0
 10 30  1  0  0  0  0
 10 31  1  0  0  0  0
 11 12  1  0  0  0  0
 11 32  1  0  0  0  0
 11 33  1  0  0  0  0
 12 13  1  0  0  0  0
 12 34  1  0  0  0  0
 13 17  1  0  0  0  0
 13 14  1  0  0  0  0
 14 15  2  0  0  0  0
 14 35  1  0  0  0  0
 15 16  1  0  0  0  0
 15 36  1  0  0  0  0
 16 17  2  0  0  0  0
 16 37  1  0  0  0  0
M  CHG  1   6   1
M  END
> <s_m_source_file>
AV-unprocessed.smi

> <i_m_source_file_index>
3185

> <i_lp_mmshare_version>
43012

> <i_f3d_flags>
0

> <s_epik_input>
TiNDW0NIMl1bQ0gyXVtDSDJdW05IXVtDQEBIXTFbQ0gyXVtDSDJdW0NIMl1bQ0gyXVtDQEhdMW4yW2NIXVtjSF1bY0hdbjI=

> <s_epik_cmdline>
J2VwaWtfcHl0aG9uJywgJy1waCcsICc3LjAnLCAnLXRuJywgJzgnLCAnLW1hJywgJzIwMCcsICctbWV0YWxfYmluZGluZycsICctaW1hZScsICc8aW5maWxlLm1hZT4nLCAnLW9tYWUnLCAnPG91dGZpbGUubWFlPic=

> <r_lp_tautomer_probability>
1

> <r_epik_Ionization_Penalty>
0.0143465

> <r_epik_Ionization_Penalty_Charging>
0.0143338

> <r_epik_Ionization_Penalty_Neutral>
1.27047e-05

> <r_epik_State_Penalty>
0.0112058

> <r_epik_Charging_Adjusted_Penalty>
0.0255397

> <i_epik_Tot_Q>
1

> <i_epik_Tot_abs_Q>
1

> <r_epik_Metal_State_Penalty>
0.0112253

> <b_epik_Metal_Only>
0

> <s_lp_Force_Field>
OPLS_2005

> <r_lp_Energy>
17.7884

> <b_lp_Chiralities_Consistent>
1

> <s_lp_Variant>
AV-unprocessed.smi:3185-3

> <Gold.Version>
5.8.1

> <Gold.Id.Protein>
6NUR|6NUR_protein|mol2

> <Gold.PLP.Fitness>
43.4651

> <Gold.PLP.PLP>
-29.6497

> <Gold.PLP.part.hbond>
-2.0000

> <Gold.PLP.part.metal>
0.0000

> <Gold.PLP.part.buried>
2.7658

> <Gold.PLP.part.nonpolar>
-30.8972

> <Gold.PLP.part.repulsive>
0.1243

> <Gold.PLP.ligand.clash>
0.0000

> <Gold.PLP.ligand.torsion>
0.6432

> <Gold.PLP.Chemscore.Hbond>
3.0000

> <Gold.PLP.Chemscore.CHOScore>
2.0000

> <Gold.PLP.Chemscore.Metal>
0.0000

> <Gold.Chemscore.Hbonds>
donor molecule, donor type, donor heavy atom, donor atom, acceptor molecule, acceptor atom, score
      L1  H     6    38       P1  7948  2.00
      P1  H  6896  6907       L1     1  0.94
      L1  C    14    35       P1  7921  1.00
      L1  C    16    37       P1 10175  0.92

> <Gold.PLP.Chemscore.Internal.Correction>
0.1018

> <Gold.Rescore>
     Score         DG    S(hbond)    S(metal)    S(lipo)     H(rot)  DE(clash)    DE(int)     intcor
     13.28     -15.59       1.85        0.00      74.58       1.88       1.72       0.60       ----

> <Gold.Chemscore.Fitness>
13.2764

> <Gold.Chemscore.DG>
-15.5939

> <Gold.Chemscore.ZeroCoef>
-5.4800

> <Gold.Chemscore.Hbond>
1.8541

> <Gold.Chemscore.Metal>
0.0000

> <Gold.Chemscore.Lipo>
74.5815

> <Gold.Chemscore.Internal_Hbond>
0.0000

> <Gold.Chemscore.DEClash>
1.7172

> <Gold.Chemscore.DEInternal>
0.6003

> <Gold.Chemscore.Rot>
1.8769

> <Gold.Chemscore.Internal.Correction>
   9.000000E+99

> <Gold.Chemscore.Hbonds>
donor molecule, donor type, donor heavy atom, donor atom, acceptor molecule, acceptor atom, score
      L1  H     6    38       P1  7948  0.24
      P1  H  6896  6907       L1     1  0.90

> <Gold.Chemscore.Hbond.Weighted>
-6.1928

> <Gold.Chemscore.Metal.Weighted>
-0.0000

> <Gold.Chemscore.Lipo.Weighted>
-8.7260

> <Gold.Chemscore.Internal_Hbond.Weighted>
0.0000

> <Gold.Chemscore.DEClash.Weighted>
1.7172

> <Gold.Chemscore.DEInternal.Weighted>
0.6003

> <Gold.Chemscore.Rot.Weighted>
4.8049

> <Gold.Chemscore.Internal.Correction.Weighted>
   9.000000E+99

> <Gold.Protein.RotatedTorsions>
[ 6907 6896 6895 6894 ] final -165.72 input  -60.11 | X-H torsion
[ 7974 7965 7964 7962 ] final  -82.05 input  175.53 | X-H torsion
[ 8008 7997 7996 7995 ] final  143.24 input   59.86 | X-H torsion
[ 10167 10162 10161 10158 ] final  146.33 input  -65.29 | X-H torsion
[ 10718 10713 10712 10709 ] final -118.54 input   66.30 | X-H torsion
[ 10763 10752 10751 10750 ] final  120.26 input  -60.55 | X-H torsion
[ 11005 11000 10999 10996 ] final -136.39 input  -57.11 | X-H torsion

> <Gold.Protein.ActiveResidues>
 VAL166  LYS551  ARG553  GLY616  TRP617  ASP618  TYR619  PRO620  LYS621  CYS622 
 ASP623  PHE694  ASN695  SER759  ASP760  ASP761  ALA762  ILE779  LEU786  VAL792 
 PHE793  MET794  SER795  GLU796  ALA797  LYS798  CYS799  TRP800  GLU811  SER814 

> <Gold.Protein.RotatedAtoms>
  151.4322  133.3667  159.2770 H   0  0  0  0  0  0  0  0  0  0  0  0  # atno 6907 bound_to 6896
  150.9217  134.8636  159.7504 H   0  0  0  0  0  0  0  0  0  0  0  0  # atno 6908 bound_to 6896
  152.4985  134.4260  159.9548 H   0  0  0  0  0  0  0  0  0  0  0  0  # atno 6909 bound_to 6896
  145.5385  140.9512  143.1564 H   0  0  0  0  0  0  0  0  0  0  0  0  # atno 7974 bound_to 7965
  156.2934  140.2267  156.4858 H   0  0  0  0  0  0  0  0  0  0  0  0  # atno 8008 bound_to 7997
  154.7813  140.0460  157.1151 H   0  0  0  0  0  0  0  0  0  0  0  0  # atno 8009 bound_to 7997
  154.9755  140.3072  155.4972 H   0  0  0  0  0  0  0  0  0  0  0  0  # atno 8010 bound_to 7997
  139.4909  144.5837  151.6820 H   0  0  0  0  0  0  0  0  0  0  0  0  # atno 10167 bound_to 10162
  156.1114  130.6251  150.9304 H   0  0  0  0  0  0  0  0  0  0  0  0  # atno 10718 bound_to 10713
  153.5957  135.3457  155.2927 H   0  0  0  0  0  0  0  0  0  0  0  0  # atno 10763 bound_to 10752
  154.8645  135.4215  154.2467 H   0  0  0  0  0  0  0  0  0  0  0  0  # atno 10764 bound_to 10752
  153.3285  135.7043  153.7040 H   0  0  0  0  0  0  0  0  0  0  0  0  # atno 10765 bound_to 10752
  140.8810  134.1932  157.4591 H   0  0  0  0  0  0  0  0  0  0  0  0  # atno 11005 bound_to 11000
  144.7589  139.7005  143.7242 LP  0  0  0  0  0  0  0  0  0  0  0  0  # atno 17320 bound_to 7965
  146.1997  139.5284  142.9751 LP  0  0  0  0  0  0  0  0  0  0  0  0  # atno 17321 bound_to 7965
  140.5449  144.0519  150.6103 LP  0  0  0  0  0  0  0  0  0  0  0  0  # atno 17342 bound_to 10162
  140.3554  143.2939  152.0442 LP  0  0  0  0  0  0  0  0  0  0  0  0  # atno 17343 bound_to 10162
  157.6295  131.0922  150.8469 LP  0  0  0  0  0  0  0  0  0  0  0  0  # atno 17370 bound_to 10713
  156.8579  130.5103  149.5306 LP  0  0  0  0  0  0  0  0  0  0  0  0  # atno 17371 bound_to 10713
  139.8719  134.9817  156.5126 LP  0  0  0  0  0  0  0  0  0  0  0  0  # atno 17394 bound_to 11000
  140.8462  133.8167  155.9123 LP  0  0  0  0  0  0  0  0  0  0  0  0  # atno 17395 bound_to 11000

$$$$
