AV-unprocessed.smi:3263|AV-procd|sdf|12487|dock7
  -GOLD-   2272018383D 1   1.00000     0.00000
 Structure written by MMmdl.
 41 43  0  0  0  0  0  0  0  0  1 V2000
  150.9886  140.6261  155.5829 O   0  0  0  0  0  0  0  0  0  0  0  0
  150.5719  141.7414  155.8974 C   0  0  0  0  0  0  0  0  0  0  0  0
  151.5314  142.8159  156.4223 C   0  0  0  0  0  0  0  0  0  0  0  0
  151.2582  143.2424  157.8828 C   0  0  1  0  0  0  0  0  0  0  0  0
  151.4729  142.1166  158.9236 C   0  0  0  0  0  0  0  0  0  0  0  0
  152.4712  142.7421  159.9139 C   0  0  2  0  0  0  0  0  0  0  0  0
  151.7764  143.8647  160.7069 C   0  0  0  0  0  0  0  0  0  0  0  0
  151.6329  144.9825  159.6566 C   0  0  0  0  0  0  0  0  0  0  0  0
  152.2265  144.3359  158.3900 C   0  0  1  0  0  0  0  0  0  0  0  0
  153.3800  143.5282  158.9780 C   0  0  0  0  0  0  0  0  0  0  0  0
  149.2782  142.0924  155.8233 N   0  0  0  0  0  0  0  0  0  0  0  0
  148.1874  141.2272  155.3796 C   0  0  0  0  0  0  0  0  0  0  0  0
  148.2089  140.9827  153.8578 C   0  0  0  0  0  0  0  0  0  0  0  0
  147.3268  139.8297  153.4090 C   0  0  0  0  0  0  0  0  0  0  0  0
  147.2222  139.4897  152.0428 C   0  0  0  0  0  0  0  0  0  0  0  0
  146.3691  138.4299  151.6790 C   0  0  0  0  0  0  0  0  0  0  0  0
  145.6593  137.7531  152.6894 C   0  0  0  0  0  0  0  0  0  0  0  0
  145.8363  138.1670  154.0247 C   0  0  0  0  0  0  0  0  0  0  0  0
  146.6528  139.1805  154.3849 N   0  0  0  0  0  0  0  0  0  0  0  0
  152.5568  142.4578  156.3222 H   0  0  0  0  0  0  0  0  0  0  0  0
  151.4436  143.6842  155.7683 H   0  0  0  0  0  0  0  0  0  0  0  0
  150.2350  143.6172  157.9450 H   0  0  0  0  0  0  0  0  0  0  0  0
  150.5419  141.8155  159.4052 H   0  0  0  0  0  0  0  0  0  0  0  0
  151.9090  141.2274  158.4658 H   0  0  0  0  0  0  0  0  0  0  0  0
  152.9786  142.0102  160.5428 H   0  0  0  0  0  0  0  0  0  0  0  0
  150.8141  143.5481  161.1113 H   0  0  0  0  0  0  0  0  0  0  0  0
  152.3976  144.1974  161.5393 H   0  0  0  0  0  0  0  0  0  0  0  0
  150.5980  145.2988  159.5209 H   0  0  0  0  0  0  0  0  0  0  0  0
  152.2117  145.8589  159.9504 H   0  0  0  0  0  0  0  0  0  0  0  0
  152.5128  145.0630  157.6295 H   0  0  0  0  0  0  0  0  0  0  0  0
  154.1149  144.1413  159.5030 H   0  0  0  0  0  0  0  0  0  0  0  0
  153.8953  142.9029  158.2473 H   0  0  0  0  0  0  0  0  0  0  0  0
  149.0280  143.0297  156.1034 H   0  0  0  0  0  0  0  0  0  0  0  0
  148.2858  140.2739  155.8991 H   0  0  0  0  0  0  0  0  0  0  0  0
  147.2225  141.6374  155.6823 H   0  0  0  0  0  0  0  0  0  0  0  0
  147.9026  141.8904  153.3364 H   0  0  0  0  0  0  0  0  0  0  0  0
  149.2320  140.7836  153.5366 H   0  0  0  0  0  0  0  0  0  0  0  0
  147.7725  140.0341  151.2897 H   0  0  0  0  0  0  0  0  0  0  0  0
  146.2592  138.1437  150.6436 H   0  0  0  0  0  0  0  0  0  0  0  0
  144.9948  136.9371  152.4470 H   0  0  0  0  0  0  0  0  0  0  0  0
  145.3082  137.6705  154.8252 H   0  0  0  0  0  0  0  0  0  0  0  0
  1  2  2  0  0  0  0
  2  3  1  0  0  0  0
  2 11  1  0  0  0  0
  3  4  1  0  0  0  0
  3 20  1  0  0  0  0
  3 21  1  0  0  0  0
  4  9  1  0  0  0  0
  4  5  1  0  0  0  0
  4 22  1  0  0  0  0
  5  6  1  0  0  0  0
  5 23  1  0  0  0  0
  5 24  1  0  0  0  0
  6 10  1  0  0  0  0
  6  7  1  0  0  0  0
  6 25  1  0  0  0  0
  7  8  1  0  0  0  0
  7 26  1  0  0  0  0
  7 27  1  0  0  0  0
  8  9  1  0  0  0  0
  8 28  1  0  0  0  0
  8 29  1  0  0  0  0
  9 10  1  0  0  0  0
  9 30  1  0  0  0  0
 10 31  1  0  0  0  0
 10 32  1  0  0  0  0
 11 12  1  0  0  0  0
 11 33  1  0  0  0  0
 12 13  1  0  0  0  0
 12 34  1  0  0  0  0
 12 35  1  0  0  0  0
 13 14  1  0  0  0  0
 13 36  1  0  0  0  0
 13 37  1  0  0  0  0
 14 19  1  0  0  0  0
 14 15  2  0  0  0  0
 15 16  1  0  0  0  0
 15 38  1  0  0  0  0
 16 17  2  0  0  0  0
 16 39  1  0  0  0  0
 17 18  1  0  0  0  0
 17 40  1  0  0  0  0
 18 19  2  0  0  0  0
 18 41  1  0  0  0  0
M  END
> <s_m_source_file>
AV-unprocessed.smi

> <i_m_source_file_index>
3263

> <i_lp_mmshare_version>
43012

> <i_f3d_flags>
0

> <s_epik_input>
W0NIMl0xW0NIMl1bQ0BASF0oW0NIMl0yKVtDQEBIXShbQ0gyXVtDQEhdMTIpW0NIMl1DKD1PKVtOSF1bQ0gyXVtDSDJdYzNbY0hdW2NIXVtjSF1bY0hdbjM=

> <s_epik_cmdline>
J2VwaWtfcHl0aG9uJywgJy1waCcsICc3LjAnLCAnLXRuJywgJzgnLCAnLW1hJywgJzIwMCcsICctbWV0YWxfYmluZGluZycsICctaW1hZScsICc8aW5maWxlLm1hZT4nLCAnLW9tYWUnLCAnPG91dGZpbGUubWFlPic=

> <r_epik_Ionization_Penalty>
0.0273541

> <r_epik_Ionization_Penalty_Charging>
0

> <r_epik_Ionization_Penalty_Neutral>
0.0273541

> <r_epik_State_Penalty>
0.0223838

> <r_epik_Charging_Adjusted_Penalty>
0.0223838

> <i_epik_Tot_Q>
0

> <i_epik_Tot_abs_Q>
0

> <r_epik_Metal_State_Penalty>
0.0213927

> <b_epik_Metal_Only>
0

> <s_lp_Force_Field>
OPLS_2005

> <r_lp_Energy>
47.5771

> <b_lp_Chiralities_Consistent>
1

> <s_lp_Variant>
AV-unprocessed.smi:3263-2

> <Gold.Version>
5.8.1

> <Gold.Id.Protein>
6NUR|6NUR_protein|mol2

> <Gold.PLP.Fitness>
44.8097

> <Gold.PLP.PLP>
-40.5857

> <Gold.PLP.part.hbond>
-1.9166

> <Gold.PLP.part.metal>
0.0000

> <Gold.PLP.part.buried>
-0.0061

> <Gold.PLP.part.nonpolar>
-38.5079

> <Gold.PLP.part.repulsive>
0.2685

> <Gold.PLP.ligand.clash>
0.0000

> <Gold.PLP.ligand.torsion>
0.1443

> <Gold.PLP.Chemscore.Hbond>
1.4935

> <Gold.PLP.Chemscore.CHOScore>
0.0000

> <Gold.PLP.Chemscore.Metal>
0.0000

> <Gold.Chemscore.Hbonds>
donor molecule, donor type, donor heavy atom, donor atom, acceptor molecule, acceptor atom, score
      L1  H    11    33       P1  8028  0.96
      P1  H  7989  7998       L1     1  0.52

> <Gold.PLP.Chemscore.Internal.Correction>
0.0321

> <Gold.Rescore>
     Score         DG    S(hbond)    S(metal)    S(lipo)     H(rot)  DE(clash)    DE(int)     intcor
     19.28     -22.83       1.40        0.00     140.22       1.46       3.38       0.17       ----

> <Gold.Chemscore.Fitness>
19.2759

> <Gold.Chemscore.DG>
-22.8266

> <Gold.Chemscore.ZeroCoef>
-5.4800

> <Gold.Chemscore.Hbond>
1.3974

> <Gold.Chemscore.Metal>
0.0000

> <Gold.Chemscore.Lipo>
140.2170

> <Gold.Chemscore.Internal_Hbond>
0.0000

> <Gold.Chemscore.DEClash>
3.3835

> <Gold.Chemscore.DEInternal>
0.1672

> <Gold.Chemscore.Rot>
1.4555

> <Gold.Chemscore.Internal.Correction>
   9.000000E+99

> <Gold.Chemscore.Hbonds>
donor molecule, donor type, donor heavy atom, donor atom, acceptor molecule, acceptor atom, score
      L1  H    11    33       P1  8028  0.92
      P1  H  7989  7998       L1     1  0.20

> <Gold.Chemscore.Hbond.Weighted>
-4.6672

> <Gold.Chemscore.Metal.Weighted>
-0.0000

> <Gold.Chemscore.Lipo.Weighted>
-16.4054

> <Gold.Chemscore.Internal_Hbond.Weighted>
0.0000

> <Gold.Chemscore.DEClash.Weighted>
3.3835

> <Gold.Chemscore.DEInternal.Weighted>
0.1672

> <Gold.Chemscore.Rot.Weighted>
3.7260

> <Gold.Chemscore.Internal.Correction.Weighted>
   9.000000E+99

> <Gold.Protein.RotatedTorsions>
[ 6907 6896 6895 6894 ] final  133.80 input  -60.11 | X-H torsion
[ 7974 7965 7964 7962 ] final  132.60 input  175.53 | X-H torsion
[ 8008 7997 7996 7995 ] final  -90.06 input   59.86 | X-H torsion
[ 10167 10162 10161 10158 ] final  -19.92 input  -65.29 | X-H torsion
[ 10718 10713 10712 10709 ] final   97.85 input   66.30 | X-H torsion
[ 10763 10752 10751 10750 ] final  -79.95 input  -60.55 | X-H torsion
[ 11005 11000 10999 10996 ] final  121.54 input  -57.11 | X-H torsion

> <Gold.Protein.ActiveResidues>
 VAL166  LYS551  ARG553  GLY616  TRP617  ASP618  TYR619  PRO620  LYS621  CYS622 
 ASP623  PHE694  ASN695  SER759  ASP760  ASP761  ALA762  ILE779  LEU786  VAL792 
 PHE793  MET794  SER795  GLU796  ALA797  LYS798  CYS799  TRP800  GLU811  SER814 

> <Gold.Protein.RotatedAtoms>
  152.3181  133.5824  159.5725 H   0  0  0  0  0  0  0  0  0  0  0  0  # atno 6907 bound_to 6896
  150.7357  134.0052  159.3660 H   0  0  0  0  0  0  0  0  0  0  0  0  # atno 6908 bound_to 6896
  151.7939  135.0728  160.0442 H   0  0  0  0  0  0  0  0  0  0  0  0  # atno 6909 bound_to 6896
  144.9951  139.4367  143.5320 H   0  0  0  0  0  0  0  0  0  0  0  0  # atno 7974 bound_to 7965
  154.6940  140.0534  157.0392 H   0  0  0  0  0  0  0  0  0  0  0  0  # atno 8008 bound_to 7997
  155.0777  140.3206  155.4592 H   0  0  0  0  0  0  0  0  0  0  0  0  # atno 8009 bound_to 7997
  156.2738  140.2070  156.5904 H   0  0  0  0  0  0  0  0  0  0  0  0  # atno 8010 bound_to 7997
  140.7272  143.4772  151.0167 H   0  0  0  0  0  0  0  0  0  0  0  0  # atno 10167 bound_to 10162
  157.6906  131.0622  150.4707 H   0  0  0  0  0  0  0  0  0  0  0  0  # atno 10718 bound_to 10713
  154.5451  135.5678  153.6873 H   0  0  0  0  0  0  0  0  0  0  0  0  # atno 10763 bound_to 10752
  152.9974  135.6237  154.2449 H   0  0  0  0  0  0  0  0  0  0  0  0  # atno 10764 bound_to 10752
  154.2382  135.2863  155.2844 H   0  0  0  0  0  0  0  0  0  0  0  0  # atno 10765 bound_to 10752
  139.9230  134.9639  156.7974 H   0  0  0  0  0  0  0  0  0  0  0  0  # atno 11005 bound_to 11000
  146.3440  139.9307  142.8754 LP  0  0  0  0  0  0  0  0  0  0  0  0  # atno 17320 bound_to 7965
  145.2230  140.9943  143.4034 LP  0  0  0  0  0  0  0  0  0  0  0  0  # atno 17321 bound_to 7965
  139.8468  143.7491  152.3179 LP  0  0  0  0  0  0  0  0  0  0  0  0  # atno 17342 bound_to 10162
  139.7659  144.7492  151.0295 LP  0  0  0  0  0  0  0  0  0  0  0  0  # atno 17343 bound_to 10162
  156.5045  130.4125  149.6335 LP  0  0  0  0  0  0  0  0  0  0  0  0  # atno 17370 bound_to 10713
  156.3298  130.7325  151.2252 LP  0  0  0  0  0  0  0  0  0  0  0  0  # atno 17371 bound_to 10713
  140.6418  133.9811  155.7711 LP  0  0  0  0  0  0  0  0  0  0  0  0  # atno 17394 bound_to 11000
  141.0766  134.0125  157.3448 LP  0  0  0  0  0  0  0  0  0  0  0  0  # atno 17395 bound_to 11000

$$$$
