AV-unprocessed.smi:822|AV-procd|sdf|3843|dock7
  -GOLD-   22720 1293D 1   1.00000     0.00000
 Structure written by MMmdl.
 38 39  0  0  0  0  0  0  0  0  1 V2000
  153.8650  139.3829  159.2555 O   0  0  0  0  0  0  0  0  0  0  0  0
  152.9926  140.1522  159.6589 C   0  0  0  0  0  0  0  0  0  0  0  0
  153.3792  141.4910  160.2968 C   0  0  0  0  0  0  0  0  0  0  0  0
  152.3871  142.6367  159.9938 C   0  0  0  0  0  0  0  0  0  0  0  0
  152.9031  143.5076  158.8294 C   0  0  0  0  0  0  0  0  0  0  0  0
  151.9340  144.6542  158.4989 C   0  0  0  0  0  0  0  0  0  0  0  0
  151.6585  145.5223  159.7355 C   0  0  0  0  0  0  0  0  0  0  0  0
  151.1355  144.6698  160.9009 C   0  0  0  0  0  0  0  0  0  0  0  0
  152.1019  143.5207  161.2305 C   0  0  0  0  0  0  0  0  0  0  0  0
  151.6802  139.8850  159.5784 N   0  0  0  0  0  0  0  0  0  0  0  0
  151.1068  138.6717  159.0089 C   0  0  0  0  0  0  0  0  0  0  0  0
  151.6758  138.3829  157.6106 C   0  0  0  0  0  0  0  0  0  0  0  0
  151.0143  139.1760  156.5947 N   0  0  0  0  0  0  0  0  0  0  0  0
  150.1395  140.2353  156.7969 C   0  0  0  0  0  0  0  0  0  0  0  0
  149.7687  140.6819  155.5487 C   0  0  0  0  0  0  0  0  0  0  0  0
  150.4005  139.9179  154.5703 N   0  0  0  0  0  0  0  0  0  0  0  0
  151.1213  139.0469  155.2652 C   0  0  0  0  0  0  0  0  0  0  0  0
  153.4860  141.3717  161.3761 H   0  0  0  0  0  0  0  0  0  0  0  0
  154.3685  141.7545  159.9207 H   0  0  0  0  0  0  0  0  0  0  0  0
  151.4424  142.1941  159.6729 H   0  0  0  0  0  0  0  0  0  0  0  0
  153.8798  143.9214  159.0839 H   0  0  0  0  0  0  0  0  0  0  0  0
  153.0524  142.8929  157.9411 H   0  0  0  0  0  0  0  0  0  0  0  0
  152.3462  145.2691  157.6982 H   0  0  0  0  0  0  0  0  0  0  0  0
  150.9958  144.2443  158.1226 H   0  0  0  0  0  0  0  0  0  0  0  0
  152.5748  146.0317  160.0367 H   0  0  0  0  0  0  0  0  0  0  0  0
  150.9367  146.3020  159.4904 H   0  0  0  0  0  0  0  0  0  0  0  0
  150.9887  145.2955  161.7819 H   0  0  0  0  0  0  0  0  0  0  0  0
  150.1568  144.2618  160.6456 H   0  0  0  0  0  0  0  0  0  0  0  0
  151.6775  142.9247  162.0388 H   0  0  0  0  0  0  0  0  0  0  0  0
  153.0376  143.9328  161.6109 H   0  0  0  0  0  0  0  0  0  0  0  0
  151.0322  140.5736  159.9331 H   0  0  0  0  0  0  0  0  0  0  0  0
  151.3337  137.8436  159.6811 H   0  0  0  0  0  0  0  0  0  0  0  0
  150.0188  138.7514  158.9723 H   0  0  0  0  0  0  0  0  0  0  0  0
  152.7450  138.5970  157.5758 H   0  0  0  0  0  0  0  0  0  0  0  0
  151.5545  137.3284  157.3591 H   0  0  0  0  0  0  0  0  0  0  0  0
  149.8618  140.5744  157.7841 H   0  0  0  0  0  0  0  0  0  0  0  0
  149.1017  141.4885  155.2815 H   0  0  0  0  0  0  0  0  0  0  0  0
  151.7430  138.2987  154.7954 H   0  0  0  0  0  0  0  0  0  0  0  0
  1  2  2  0  0  0  0
  2  3  1  0  0  0  0
  2 10  1  0  0  0  0
  3  4  1  0  0  0  0
  3 18  1  0  0  0  0
  3 19  1  0  0  0  0
  4  9  1  0  0  0  0
  4  5  1  0  0  0  0
  4 20  1  0  0  0  0
  5  6  1  0  0  0  0
  5 21  1  0  0  0  0
  5 22  1  0  0  0  0
  6  7  1  0  0  0  0
  6 23  1  0  0  0  0
  6 24  1  0  0  0  0
  7  8  1  0  0  0  0
  7 25  1  0  0  0  0
  7 26  1  0  0  0  0
  8  9  1  0  0  0  0
  8 27  1  0  0  0  0
  8 28  1  0  0  0  0
  9 29  1  0  0  0  0
  9 30  1  0  0  0  0
 10 11  1  0  0  0  0
 10 31  1  0  0  0  0
 11 12  1  0  0  0  0
 11 32  1  0  0  0  0
 11 33  1  0  0  0  0
 12 13  1  0  0  0  0
 12 34  1  0  0  0  0
 12 35  1  0  0  0  0
 13 17  1  0  0  0  0
 13 14  1  0  0  0  0
 14 15  2  0  0  0  0
 14 36  1  0  0  0  0
 15 16  1  0  0  0  0
 15 37  1  0  0  0  0
 16 17  2  0  0  0  0
 17 38  1  0  0  0  0
M  END
> <s_m_source_file>
AV-unprocessed.smi

> <i_m_source_file_index>
822

> <i_lp_mmshare_version>
43012

> <i_f3d_flags>
0

> <s_epik_input>
W0NIMl0xW0NIMl1bQ0gyXVtDSDJdW0NIMl1bQ0hdMVtDSDJdQyg9TylbTkhdW0NIMl1bQ0gyXW4yW2NIXVtjSF1uW2NIXTI=

> <s_epik_cmdline>
J2VwaWtfcHl0aG9uJywgJy1waCcsICc3LjAnLCAnLXRuJywgJzgnLCAnLW1hJywgJzIwMCcsICctbWV0YWxfYmluZGluZycsICctaW1hZScsICc8aW5maWxlLm1hZT4nLCAnLW9tYWUnLCAnPG91dGZpbGUubWFlPic=

> <r_lp_tautomer_probability>
1

> <r_epik_Ionization_Penalty>
0.600603

> <r_epik_Ionization_Penalty_Charging>
0.600603

> <r_epik_Ionization_Penalty_Neutral>
2.18922e-08

> <r_epik_State_Penalty>
0.614954

> <r_epik_Charging_Adjusted_Penalty>
1.21556

> <i_epik_Tot_Q>
0

> <i_epik_Tot_abs_Q>
0

> <r_epik_Metal_State_Penalty>
0.301281

> <b_epik_Metal_Only>
0

> <s_lp_Force_Field>
OPLS_2005

> <r_lp_Energy>
10.0857

> <b_lp_Chiralities_Consistent>
1

> <s_lp_Variant>
AV-unprocessed.smi:822-2

> <Gold.Version>
5.8.1

> <Gold.Id.Protein>
6NUR|6NUR_protein|mol2

> <Gold.PLP.Fitness>
46.7529

> <Gold.PLP.PLP>
-43.0454

> <Gold.PLP.part.hbond>
-2.0000

> <Gold.PLP.part.metal>
0.0000

> <Gold.PLP.part.buried>
-4.6524

> <Gold.PLP.part.nonpolar>
-37.7118

> <Gold.PLP.part.repulsive>
0.2197

> <Gold.PLP.ligand.clash>
0.0000

> <Gold.PLP.ligand.torsion>
1.1543

> <Gold.PLP.Chemscore.Hbond>
2.0000

> <Gold.PLP.Chemscore.CHOScore>
0.0000

> <Gold.PLP.Chemscore.Metal>
0.0000

> <Gold.Chemscore.Hbonds>
donor molecule, donor type, donor heavy atom, donor atom, acceptor molecule, acceptor atom, score
      P1  H  7989  7998       L1    16  1.00
      P1  H  7997  8010       L1     1  0.24

> <Gold.PLP.Chemscore.Internal.Correction>
0.0162

> <Gold.Rescore>
     Score         DG    S(hbond)    S(metal)    S(lipo)     H(rot)  DE(clash)    DE(int)     intcor
     16.37     -18.70       1.79        0.00     104.99       1.97       0.03       2.31       ----

> <Gold.Chemscore.Fitness>
16.3663

> <Gold.Chemscore.DG>
-18.7040

> <Gold.Chemscore.ZeroCoef>
-5.4800

> <Gold.Chemscore.Hbond>
1.7908

> <Gold.Chemscore.Metal>
0.0000

> <Gold.Chemscore.Lipo>
104.9885

> <Gold.Chemscore.Internal_Hbond>
0.0000

> <Gold.Chemscore.DEClash>
0.0310

> <Gold.Chemscore.DEInternal>
2.3067

> <Gold.Chemscore.Rot>
1.9692

> <Gold.Chemscore.Internal.Correction>
   9.000000E+99

> <Gold.Chemscore.Hbonds>
donor molecule, donor type, donor heavy atom, donor atom, acceptor molecule, acceptor atom, score
      P1  H  7989  7998       L1    16  0.50
      P1  H  7997  8010       L1     1  0.23

> <Gold.Chemscore.Hbond.Weighted>
-5.9814

> <Gold.Chemscore.Metal.Weighted>
-0.0000

> <Gold.Chemscore.Lipo.Weighted>
-12.2837

> <Gold.Chemscore.Internal_Hbond.Weighted>
0.0000

> <Gold.Chemscore.DEClash.Weighted>
0.0310

> <Gold.Chemscore.DEInternal.Weighted>
2.3067

> <Gold.Chemscore.Rot.Weighted>
5.0410

> <Gold.Chemscore.Internal.Correction.Weighted>
   9.000000E+99

> <Gold.Protein.RotatedTorsions>
[ 6907 6896 6895 6894 ] final  -80.71 input  -60.11 | X-H torsion
[ 7974 7965 7964 7962 ] final   42.44 input  175.53 | X-H torsion
[ 8008 7997 7996 7995 ] final   11.80 input   59.86 | X-H torsion
[ 10167 10162 10161 10158 ] final    9.02 input  -65.29 | X-H torsion
[ 10718 10713 10712 10709 ] final   66.96 input   66.30 | X-H torsion
[ 10763 10752 10751 10750 ] final   12.12 input  -60.55 | X-H torsion
[ 11005 11000 10999 10996 ] final   82.82 input  -57.11 | X-H torsion

> <Gold.Protein.ActiveResidues>
 VAL166  LYS551  ARG553  GLY616  TRP617  ASP618  TYR619  PRO620  LYS621  CYS622 
 ASP623  PHE694  ASN695  SER759  ASP760  ASP761  ALA762  ILE779  LEU786  VAL792 
 PHE793  MET794  SER795  GLU796  ALA797  LYS798  CYS799  TRP800  GLU811  SER814 

> <Gold.Protein.RotatedAtoms>
  150.6924  134.3928  159.5083 H   0  0  0  0  0  0  0  0  0  0  0  0  # atno 6907 bound_to 6896
  152.1714  134.8828  160.0543 H   0  0  0  0  0  0  0  0  0  0  0  0  # atno 6908 bound_to 6896
  151.9853  133.3737  159.4160 H   0  0  0  0  0  0  0  0  0  0  0  0  # atno 6909 bound_to 6896
  146.0740  139.5300  142.9579 H   0  0  0  0  0  0  0  0  0  0  0  0  # atno 7974 bound_to 7965
  154.8118  140.2869  155.5848 H   0  0  0  0  0  0  0  0  0  0  0  0  # atno 8008 bound_to 7997
  156.2989  140.2567  156.2938 H   0  0  0  0  0  0  0  0  0  0  0  0  # atno 8009 bound_to 7997
  154.9438  140.0381  157.2100 H   0  0  0  0  0  0  0  0  0  0  0  0  # atno 8010 bound_to 7997
  140.6280  143.8058  150.7258 H   0  0  0  0  0  0  0  0  0  0  0  0  # atno 10167 bound_to 10162
  157.6201  130.9296  150.0179 H   0  0  0  0  0  0  0  0  0  0  0  0  # atno 10718 bound_to 10713
  153.1855  135.6834  153.8421 H   0  0  0  0  0  0  0  0  0  0  0  0  # atno 10763 bound_to 10752
  153.7738  135.3192  155.3357 H   0  0  0  0  0  0  0  0  0  0  0  0  # atno 10764 bound_to 10752
  154.8086  135.4732  154.0553 H   0  0  0  0  0  0  0  0  0  0  0  0  # atno 10765 bound_to 10752
  139.9051  134.8099  156.2226 H   0  0  0  0  0  0  0  0  0  0  0  0  # atno 11005 bound_to 11000
  145.6340  141.0298  143.1848 LP  0  0  0  0  0  0  0  0  0  0  0  0  # atno 17320 bound_to 7965
  144.7249  139.7907  143.7368 LP  0  0  0  0  0  0  0  0  0  0  0  0  # atno 17321 bound_to 7965
  140.1663  143.4233  152.2032 LP  0  0  0  0  0  0  0  0  0  0  0  0  # atno 17342 bound_to 10162
  139.5498  144.7328  151.4471 LP  0  0  0  0  0  0  0  0  0  0  0  0  # atno 17343 bound_to 10162
  156.1343  130.3643  149.9682 LP  0  0  0  0  0  0  0  0  0  0  0  0  # atno 17370 bound_to 10713
  156.7737  130.9196  151.3645 LP  0  0  0  0  0  0  0  0  0  0  0  0  # atno 17371 bound_to 10713
  141.0396  133.6945  156.1574 LP  0  0  0  0  0  0  0  0  0  0  0  0  # atno 17394 bound_to 11000
  140.6975  134.4599  157.5587 LP  0  0  0  0  0  0  0  0  0  0  0  0  # atno 17395 bound_to 11000

$$$$
