AV-unprocessed.smi:79|AV-procd|sdf|782|dock6
  -GOLD-   2262017143D 1   1.00000     0.00000
 Structure written by MMmdl.
 56 59  0  0  0  0  0  0  0  0  2 V2000
  151.7299  143.7384  159.1166 C   0  0  0  0  0  0  0  0  0  0  0  0
  150.9610  143.1130  157.9458 C   0  0  1  0  0  0  0  0  0  0  0  0
  151.2946  143.8217  156.7696 O   0  0  0  0  0  0  0  0  0  0  0  0
  151.3084  141.6237  157.7538 C   0  0  0  0  0  0  0  0  0  0  0  0
  151.0680  141.1555  156.3646 N   0  3  2  0  0  0  0  0  0  0  0  0
  149.6440  141.2591  155.9444 C   0  0  0  0  0  0  0  0  0  0  0  0
  149.4576  140.8139  154.4816 C   0  0  0  0  0  0  0  0  0  0  0  0
  149.9918  139.4718  154.2750 N   0  0  0  0  0  0  0  0  0  0  0  0
  149.0907  138.4980  154.5660 C   0  0  0  0  0  0  0  0  0  0  0  0
  149.3117  137.6296  155.5877 N   0  0  0  0  0  0  0  0  0  0  0  0
  148.4059  136.6928  155.8838 C   0  0  0  0  0  0  0  0  0  0  0  0
  147.2281  136.4586  155.3023 N   0  0  0  0  0  0  0  0  0  0  0  0
  146.9969  137.3335  154.2820 C   0  0  0  0  0  0  0  0  0  0  0  0
  147.8666  138.3748  153.8540 C   0  0  0  0  0  0  0  0  0  0  0  0
  147.2966  139.0636  152.7910 N   0  0  0  0  0  0  0  0  0  0  0  0
  146.1536  138.4625  152.6002 C   0  0  0  0  0  0  0  0  0  0  0  0
  145.8957  137.4068  153.4463 N   0  0  0  0  0  0  0  0  0  0  0  0
  144.7066  136.5681  153.4598 C   0  0  0  0  0  0  0  0  0  0  0  0
  144.7066  135.4681  152.3819 C   0  0  0  0  0  0  0  0  0  0  0  0
  143.3005  134.8374  152.3223 C   0  0  0  0  0  0  0  0  0  0  0  0
  142.8567  134.3833  153.5856 O   0  0  0  0  0  0  0  0  0  0  0  0
  145.3235  135.8808  151.0377 C   0  0  0  0  0  0  0  0  0  0  0  0
  146.2294  134.7555  151.0401 O   0  0  0  0  0  0  0  0  0  0  0  0
  145.8857  134.4854  152.4169 C   0  0  0  0  0  0  0  0  0  0  0  0
  151.4015  139.3459  154.6649 C   0  0  2  0  0  0  0  0  0  0  0  0
  152.0224  137.9723  154.3457 C   0  0  0  0  0  0  0  0  0  0  0  0
  151.6311  139.8006  156.1235 C   0  0  0  0  0  0  0  0  0  0  0  0
  151.4948  143.2315  160.0530 H   0  0  0  0  0  0  0  0  0  0  0  0
  151.4704  144.7905  159.2399 H   0  0  0  0  0  0  0  0  0  0  0  0
  152.8083  143.6757  158.9668 H   0  0  0  0  0  0  0  0  0  0  0  0
  149.8951  143.2409  158.1310 H   0  0  0  0  0  0  0  0  0  0  0  0
  150.5762  144.3943  156.5457 H   0  0  0  0  0  0  0  0  0  0  0  0
  152.3571  141.4763  158.0174 H   0  0  0  0  0  0  0  0  0  0  0  0
  150.7342  141.0038  158.4445 H   0  0  0  0  0  0  0  0  0  0  0  0
  149.0269  140.6444  156.6018 H   0  0  0  0  0  0  0  0  0  0  0  0
  149.2883  142.2832  156.0485 H   0  0  0  0  0  0  0  0  0  0  0  0
  148.4033  140.8659  154.2062 H   0  0  0  0  0  0  0  0  0  0  0  0
  149.9802  141.5005  153.8147 H   0  0  0  0  0  0  0  0  0  0  0  0
  148.6598  136.0392  156.7055 H   0  0  0  0  0  0  0  0  0  0  0  0
  145.4636  138.7773  151.8314 H   0  0  0  0  0  0  0  0  0  0  0  0
  144.6040  136.1288  154.4527 H   0  0  0  0  0  0  0  0  0  0  0  0
  143.8423  137.2223  153.3382 H   0  0  0  0  0  0  0  0  0  0  0  0
  142.5623  135.5537  151.9615 H   0  0  0  0  0  0  0  0  0  0  0  0
  143.2837  133.9917  151.6343 H   0  0  0  0  0  0  0  0  0  0  0  0
  142.9108  133.4399  153.6021 H   0  0  0  0  0  0  0  0  0  0  0  0
  144.6299  135.8606  150.1964 H   0  0  0  0  0  0  0  0  0  0  0  0
  145.8610  136.8297  151.0690 H   0  0  0  0  0  0  0  0  0  0  0  0
  146.6906  134.7770  153.0924 H   0  0  0  0  0  0  0  0  0  0  0  0
  145.5985  133.4467  152.5828 H   0  0  0  0  0  0  0  0  0  0  0  0
  151.9306  140.0585  154.0305 H   0  0  0  0  0  0  0  0  0  0  0  0
  153.1017  137.9946  154.4976 H   0  0  0  0  0  0  0  0  0  0  0  0
  151.8454  137.6950  153.3060 H   0  0  0  0  0  0  0  0  0  0  0  0
  151.6281  137.1764  154.9764 H   0  0  0  0  0  0  0  0  0  0  0  0
  152.7022  139.8170  156.3294 H   0  0  0  0  0  0  0  0  0  0  0  0
  151.1913  139.0951  156.8287 H   0  0  0  0  0  0  0  0  0  0  0  0
  151.5899  141.7788  155.7648 H   0  0  0  0  0  0  0  0  0  0  0  0
  1  2  1  0  0  0  0
  1 28  1  0  0  0  0
  1 29  1  0  0  0  0
  1 30  1  0  0  0  0
  2  3  1  0  0  0  0
  2  4  1  0  0  0  0
  2 31  1  0  0  0  0
  3 32  1  0  0  0  0
  4  5  1  0  0  0  0
  4 33  1  0  0  0  0
  4 34  1  0  0  0  0
  5 27  1  0  0  0  0
  5  6  1  0  0  0  0
  5 56  1  0  0  0  0
  6  7  1  0  0  0  0
  6 35  1  0  0  0  0
  6 36  1  0  0  0  0
  7  8  1  0  0  0  0
  7 37  1  0  0  0  0
  7 38  1  0  0  0  0
  8  9  1  0  0  0  0
  8 25  1  0  0  0  0
  9 14  1  0  0  0  0
  9 10  2  0  0  0  0
 10 11  1  0  0  0  0
 11 12  2  0  0  0  0
 11 39  1  0  0  0  0
 12 13  1  0  0  0  0
 13 17  1  0  0  0  0
 13 14  2  0  0  0  0
 14 15  1  0  0  0  0
 15 16  2  0  0  0  0
 16 17  1  0  0  0  0
 16 40  1  0  0  0  0
 17 18  1  0  0  0  0
 18 19  1  0  0  0  0
 18 41  1  0  0  0  0
 18 42  1  0  0  0  0
 19 24  1  0  0  0  0
 19 20  1  0  0  0  0
 19 22  1  0  0  0  0
 20 21  1  0  0  0  0
 20 43  1  0  0  0  0
 20 44  1  0  0  0  0
 21 45  1  0  0  0  0
 22 23  1  0  0  0  0
 22 46  1  0  0  0  0
 22 47  1  0  0  0  0
 23 24  1  0  0  0  0
 24 48  1  0  0  0  0
 24 49  1  0  0  0  0
 25 26  1  0  0  0  0
 25 27  1  0  0  0  0
 25 50  1  0  0  0  0
 26 51  1  0  0  0  0
 26 52  1  0  0  0  0
 26 53  1  0  0  0  0
 27 54  1  0  0  0  0
 27 55  1  0  0  0  0
M  CHG  1   5   1
M  END
> <s_m_source_file>
AV-unprocessed.smi

> <i_m_source_file_index>
79

> <i_lp_mmshare_version>
43012

> <i_f3d_flags>
0

> <s_epik_input>
W0NIM11bQ0BIXShbT0hdKVtDSDJdTjFbQ0gyXVtDSDJdTihbQ0BASF0oW0NIM10pW0NIMl0xKWMobltjSF1uMiljKGMyMyluW2NIXW4zW0NIMl1DNChbQ0gyXVtPSF0pW0NIMl1PW0NIMl00

> <s_epik_cmdline>
J2VwaWtfcHl0aG9uJywgJy1waCcsICc3LjAnLCAnLXRuJywgJzgnLCAnLW1hJywgJzIwMCcsICctbWV0YWxfYmluZGluZycsICctaW1hZScsICc8aW5maWxlLm1hZT4nLCAnLW9tYWUnLCAnPG91dGZpbGUubWFlPic=

> <r_lp_tautomer_probability>
1

> <r_epik_Ionization_Penalty>
0.00515943

> <r_epik_Ionization_Penalty_Charging>
0.00509693

> <r_epik_Ionization_Penalty_Neutral>
6.25007e-05

> <r_epik_State_Penalty>
-0

> <r_epik_Charging_Adjusted_Penalty>
0.00509693

> <i_epik_Tot_Q>
1

> <i_epik_Tot_abs_Q>
1

> <r_epik_Metal_State_Penalty>
-0

> <b_epik_Metal_Only>
0

> <s_lp_Force_Field>
OPLS_2005

> <r_lp_Energy>
48.9332

> <b_lp_Chiralities_Consistent>
1

> <s_lp_Variant>
AV-unprocessed.smi:79-6

> <Gold.Version>
5.8.1

> <Gold.Id.Protein>
6NUR|6NUR_protein|mol2

> <Gold.PLP.Fitness>
46.4378

> <Gold.PLP.PLP>
-36.8731

> <Gold.PLP.part.hbond>
-2.2433

> <Gold.PLP.part.metal>
0.0000

> <Gold.PLP.part.buried>
-4.2747

> <Gold.PLP.part.nonpolar>
-33.4572

> <Gold.PLP.part.repulsive>
1.6572

> <Gold.PLP.ligand.clash>
0.0000

> <Gold.PLP.ligand.torsion>
1.1476

> <Gold.PLP.Chemscore.Hbond>
2.0000

> <Gold.PLP.Chemscore.CHOScore>
1.6973

> <Gold.PLP.Chemscore.Metal>
0.0000

> <Gold.Chemscore.Hbonds>
donor molecule, donor type, donor heavy atom, donor atom, acceptor molecule, acceptor atom, score
      L1  H     3    32       P1  8028  1.00
      L1  H    21    45       P1 10957  0.83
      L1  C    16    40       P1 10171  0.91
      L1  C    16    40       P1 10175  0.77

> <Gold.PLP.Chemscore.Internal.Correction>
0.7679

> <Gold.Rescore>
     Score         DG    S(hbond)    S(metal)    S(lipo)     H(rot)  DE(clash)    DE(int)     intcor
     10.48     -12.78       1.98        0.00      87.41       3.72       0.28       2.03       ----

> <Gold.Chemscore.Fitness>
10.4764

> <Gold.Chemscore.DG>
-12.7812

> <Gold.Chemscore.ZeroCoef>
-5.4800

> <Gold.Chemscore.Hbond>
1.9772

> <Gold.Chemscore.Metal>
0.0000

> <Gold.Chemscore.Lipo>
87.4124

> <Gold.Chemscore.Internal_Hbond>
0.0000

> <Gold.Chemscore.DEClash>
0.2777

> <Gold.Chemscore.DEInternal>
2.0271

> <Gold.Chemscore.Rot>
3.7226

> <Gold.Chemscore.Internal.Correction>
   9.000000E+99

> <Gold.Chemscore.Hbonds>
donor molecule, donor type, donor heavy atom, donor atom, acceptor molecule, acceptor atom, score
      L1  H     3    32       P1  8028  0.96
      L1  H    21    45       P1 10957  0.78

> <Gold.Chemscore.Hbond.Weighted>
-6.6037

> <Gold.Chemscore.Metal.Weighted>
-0.0000

> <Gold.Chemscore.Lipo.Weighted>
-10.2272

> <Gold.Chemscore.Internal_Hbond.Weighted>
0.0000

> <Gold.Chemscore.DEClash.Weighted>
0.2777

> <Gold.Chemscore.DEInternal.Weighted>
2.0271

> <Gold.Chemscore.Rot.Weighted>
9.5298

> <Gold.Chemscore.Internal.Correction.Weighted>
   9.000000E+99

> <Gold.Protein.RotatedTorsions>
[ 6907 6896 6895 6894 ] final  137.13 input  -60.11 | X-H torsion
[ 7974 7965 7964 7962 ] final  -31.87 input  175.53 | X-H torsion
[ 8008 7997 7996 7995 ] final    3.27 input   59.86 | X-H torsion
[ 10167 10162 10161 10158 ] final -126.29 input  -65.29 | X-H torsion
[ 10718 10713 10712 10709 ] final -133.53 input   66.30 | X-H torsion
[ 10763 10752 10751 10750 ] final  162.50 input  -60.55 | X-H torsion
[ 11005 11000 10999 10996 ] final  -80.32 input  -57.11 | X-H torsion

> <Gold.Protein.ActiveResidues>
 VAL166  LYS551  ARG553  GLY616  TRP617  ASP618  TYR619  PRO620  LYS621  CYS622 
 ASP623  PHE694  ASN695  SER759  ASP760  ASP761  ALA762  ILE779  LEU786  VAL792 
 PHE793  MET794  SER795  GLU796  ALA797  LYS798  CYS799  TRP800  GLU811  SER814 

> <Gold.Protein.RotatedAtoms>
  152.2815  133.5475  159.5500 H   0  0  0  0  0  0  0  0  0  0  0  0  # atno 6907 bound_to 6896
  150.7198  134.0557  159.3823 H   0  0  0  0  0  0  0  0  0  0  0  0  # atno 6908 bound_to 6896
  151.8467  135.0572  160.0505 H   0  0  0  0  0  0  0  0  0  0  0  0  # atno 6909 bound_to 6896
  146.1034  140.5721  142.8810 H   0  0  0  0  0  0  0  0  0  0  0  0  # atno 7974 bound_to 7965
  154.7017  140.2674  155.6713 H   0  0  0  0  0  0  0  0  0  0  0  0  # atno 8008 bound_to 7997
  156.2767  140.2771  156.1553 H   0  0  0  0  0  0  0  0  0  0  0  0  # atno 8009 bound_to 7997
  155.0756  140.0372  157.2612 H   0  0  0  0  0  0  0  0  0  0  0  0  # atno 8010 bound_to 7997
  139.9730  143.5825  152.2406 H   0  0  0  0  0  0  0  0  0  0  0  0  # atno 10167 bound_to 10162
  156.2459  130.7124  151.1004 H   0  0  0  0  0  0  0  0  0  0  0  0  # atno 10718 bound_to 10713
  154.2793  135.2763  155.2704 H   0  0  0  0  0  0  0  0  0  0  0  0  # atno 10763 bound_to 10752
  154.5232  135.5750  153.6701 H   0  0  0  0  0  0  0  0  0  0  0  0  # atno 10764 bound_to 10752
  152.9932  135.6209  154.2951 H   0  0  0  0  0  0  0  0  0  0  0  0  # atno 10765 bound_to 10752
  141.1668  133.7145  156.8255 H   0  0  0  0  0  0  0  0  0  0  0  0  # atno 11005 bound_to 11000
  144.7451  140.5046  143.6841 LP  0  0  0  0  0  0  0  0  0  0  0  0  # atno 17320 bound_to 7965
  145.5809  139.1489  143.3236 LP  0  0  0  0  0  0  0  0  0  0  0  0  # atno 17321 bound_to 7965
  139.6467  144.7658  151.2230 LP  0  0  0  0  0  0  0  0  0  0  0  0  # atno 17342 bound_to 10162
  140.7515  143.6228  150.8497 LP  0  0  0  0  0  0  0  0  0  0  0  0  # atno 17343 bound_to 10162
  157.7195  131.0690  150.6194 LP  0  0  0  0  0  0  0  0  0  0  0  0  # atno 17370 bound_to 10713
  156.6271  130.4421  149.5800 LP  0  0  0  0  0  0  0  0  0  0  0  0  # atno 17371 bound_to 10713
  140.2088  134.8843  157.3251 LP  0  0  0  0  0  0  0  0  0  0  0  0  # atno 17394 bound_to 11000
  140.2108  134.4140  155.7613 LP  0  0  0  0  0  0  0  0  0  0  0  0  # atno 17395 bound_to 11000

$$$$
