AV-unprocessed.smi:21|AV-procd|sdf|164|dock4
  -GOLD-   2262015403D 1   1.00000     0.00000
 Structure written by MMmdl.
 61 64  0  0  0  0  0  0  0  0  1 V2000
  146.1170  132.1442  151.4502 C   0  0  0  0  0  0  0  0  0  0  0  0
  146.9992  133.1571  151.9073 O   0  0  0  0  0  0  0  0  0  0  0  0
  147.7892  132.7602  153.0203 C   0  0  2  0  0  0  0  0  0  0  0  0
  148.6289  133.9281  153.5671 C   0  0  0  0  0  0  0  0  0  0  0  0
  150.0740  133.4068  153.5543 C   0  0  2  0  0  0  0  0  0  0  0  0
  151.1355  134.5276  153.4565 C   0  0  0  0  0  0  0  0  0  0  0  0
  151.2470  135.3334  154.6736 N   0  0  0  0  0  0  0  0  0  0  0  0
  150.7545  134.7388  155.9139 C   0  0  0  0  0  0  0  0  0  0  0  0
  151.2438  136.6914  154.5666 C   0  0  0  0  0  0  0  0  0  0  0  0
  150.9825  137.2543  153.3554 N   0  0  0  0  0  0  0  0  0  0  0  0
  151.0056  138.5801  153.1986 C   0  0  0  0  0  0  0  0  0  0  0  0
  151.2613  139.5218  154.1068 N   0  0  0  0  0  0  0  0  0  0  0  0
  151.5089  138.9721  155.3293 C   0  0  0  0  0  0  0  0  0  0  0  0
  151.5143  137.5828  155.6479 C   0  0  0  0  0  0  0  0  0  0  0  0
  151.7890  137.4200  157.0017 N   0  0  0  0  0  0  0  0  0  0  0  0
  151.9555  138.6333  157.4499 C   0  0  0  0  0  0  0  0  0  0  0  0
  151.8003  139.6275  156.5128 N   0  0  0  0  0  0  0  0  0  0  0  0
  151.9330  141.0567  156.7391 C   0  0  0  0  0  0  0  0  0  0  0  0
  150.9999  141.5912  157.8544 C   0  0  2  0  0  0  0  0  0  0  0  0
  149.5156  141.2759  157.5372 C   0  0  0  0  0  0  0  0  0  0  0  0
  149.0977  141.8806  156.3317 O   0  0  0  0  0  0  0  0  0  0  0  0
  151.2470  143.1086  158.0785 C   0  0  1  0  0  0  0  0  0  0  0  0
  150.5344  143.7264  159.2696 C   0  0  0  0  0  0  0  0  0  0  0  0
  151.3167  145.0164  159.4838 C   0  0  0  0  0  0  0  0  0  0  0  0
  152.6570  144.7116  159.1207 O   0  0  0  0  0  0  0  0  0  0  0  0
  152.6989  143.4779  158.4110 C   0  0  0  0  0  0  0  0  0  0  0  0
  150.0960  132.4635  152.4476 N   0  0  0  0  0  0  0  0  0  0  0  0
  151.2437  131.5658  152.4556 C   0  0  0  0  0  0  0  0  0  0  0  0
  148.8414  131.7436  152.5642 C   0  0  0  0  0  0  0  0  0  0  0  0
  147.1645  132.3128  153.7954 H   0  0  0  0  0  0  0  0  0  0  0  0
  150.2359  132.8497  154.4789 H   0  0  0  0  0  0  0  0  0  0  0  0
  145.5509  132.5132  150.5951 H   0  0  0  0  0  0  0  0  0  0  0  0
  145.4038  131.8508  152.2213 H   0  0  0  0  0  0  0  0  0  0  0  0
  146.6672  131.2586  151.1302 H   0  0  0  0  0  0  0  0  0  0  0  0
  148.5392  134.7929  152.9084 H   0  0  0  0  0  0  0  0  0  0  0  0
  148.3073  134.2333  154.5632 H   0  0  0  0  0  0  0  0  0  0  0  0
  152.1160  134.0840  153.2872 H   0  0  0  0  0  0  0  0  0  0  0  0
  150.9544  135.1389  152.5759 H   0  0  0  0  0  0  0  0  0  0  0  0
  151.2323  135.1971  156.7807 H   0  0  0  0  0  0  0  0  0  0  0  0
  150.9737  133.6713  155.9431 H   0  0  0  0  0  0  0  0  0  0  0  0
  149.6748  134.8646  156.0038 H   0  0  0  0  0  0  0  0  0  0  0  0
  150.7925  138.9363  152.2014 H   0  0  0  0  0  0  0  0  0  0  0  0
  152.1938  138.8380  158.4836 H   0  0  0  0  0  0  0  0  0  0  0  0
  152.9783  141.2416  156.9848 H   0  0  0  0  0  0  0  0  0  0  0  0
  151.7406  141.5824  155.8031 H   0  0  0  0  0  0  0  0  0  0  0  0
  151.2649  141.0647  158.7728 H   0  0  0  0  0  0  0  0  0  0  0  0
  149.3510  140.1994  157.4842 H   0  0  0  0  0  0  0  0  0  0  0  0
  148.8497  141.6558  158.3105 H   0  0  0  0  0  0  0  0  0  0  0  0
  148.8268  142.7666  156.5182 H   0  0  0  0  0  0  0  0  0  0  0  0
  150.9495  143.6564  157.1826 H   0  0  0  0  0  0  0  0  0  0  0  0
  149.4756  143.9136  159.0900 H   0  0  0  0  0  0  0  0  0  0  0  0
  150.6269  143.0833  160.1461 H   0  0  0  0  0  0  0  0  0  0  0  0
  150.9467  145.7999  158.8213 H   0  0  0  0  0  0  0  0  0  0  0  0
  151.2523  145.3796  160.5095 H   0  0  0  0  0  0  0  0  0  0  0  0
  153.1500  142.7276  159.0617 H   0  0  0  0  0  0  0  0  0  0  0  0
  153.3202  143.5677  157.5198 H   0  0  0  0  0  0  0  0  0  0  0  0
  151.1714  130.8470  151.6389 H   0  0  0  0  0  0  0  0  0  0  0  0
  151.3050  131.0093  153.3918 H   0  0  0  0  0  0  0  0  0  0  0  0
  152.1749  132.1162  152.3245 H   0  0  0  0  0  0  0  0  0  0  0  0
  148.9311  130.9675  153.3265 H   0  0  0  0  0  0  0  0  0  0  0  0
  148.5733  131.2514  151.6286 H   0  0  0  0  0  0  0  0  0  0  0  0
  1  2  1  0  0  0  0
  1 32  1  0  0  0  0
  1 33  1  0  0  0  0
  1 34  1  0  0  0  0
  2  3  1  0  0  0  0
  3 30  1  0  0  0  0
  3 29  1  0  0  0  0
  3  4  1  0  0  0  0
  4  5  1  0  0  0  0
  4 35  1  0  0  0  0
  4 36  1  0  0  0  0
  5 31  1  0  0  0  0
  5  6  1  0  0  0  0
  5 27  1  0  0  0  0
  6  7  1  0  0  0  0
  6 37  1  0  0  0  0
  6 38  1  0  0  0  0
  7  8  1  0  0  0  0
  7  9  1  0  0  0  0
  8 39  1  0  0  0  0
  8 40  1  0  0  0  0
  8 41  1  0  0  0  0
  9 14  1  0  0  0  0
  9 10  2  0  0  0  0
 10 11  1  0  0  0  0
 11 12  2  0  0  0  0
 11 42  1  0  0  0  0
 12 13  1  0  0  0  0
 13 17  1  0  0  0  0
 13 14  2  0  0  0  0
 14 15  1  0  0  0  0
 15 16  2  0  0  0  0
 16 17  1  0  0  0  0
 16 43  1  0  0  0  0
 17 18  1  0  0  0  0
 18 19  1  0  0  0  0
 18 44  1  0  0  0  0
 18 45  1  0  0  0  0
 19 20  1  0  0  0  0
 19 22  1  0  0  0  0
 19 46  1  0  0  0  0
 20 21  1  0  0  0  0
 20 47  1  0  0  0  0
 20 48  1  0  0  0  0
 21 49  1  0  0  0  0
 22 26  1  0  0  0  0
 22 23  1  0  0  0  0
 22 50  1  0  0  0  0
 23 24  1  0  0  0  0
 23 51  1  0  0  0  0
 23 52  1  0  0  0  0
 24 25  1  0  0  0  0
 24 53  1  0  0  0  0
 24 54  1  0  0  0  0
 25 26  1  0  0  0  0
 26 55  1  0  0  0  0
 26 56  1  0  0  0  0
 27 28  1  0  0  0  0
 27 29  1  0  0  0  0
 28 57  1  0  0  0  0
 28 58  1  0  0  0  0
 28 59  1  0  0  0  0
 29 60  1  0  0  0  0
 29 61  1  0  0  0  0
M  END
> <s_m_source_file>
AV-unprocessed.smi

> <i_m_source_file_index>
21

> <i_lp_mmshare_version>
43012

> <i_f3d_flags>
0

> <s_epik_input>
W0NIM11PW0NASF0xW0NIMl1bQ0BIXShOKFtDSDNdKVtDSDJdMSlbQ0gyXU4oW0NIM10pYyhuW2NIXW4yKWMoYzIzKW5bY0hdbjNbQ0gyXVtDQEhdKFtDSDJdW09IXSlbQ0BASF00W0NIMl1bQ0gyXU9bQ0gyXTQ=

> <s_epik_cmdline>
J2VwaWtfcHl0aG9uJywgJy1waCcsICc3LjAnLCAnLXRuJywgJzgnLCAnLW1hJywgJzIwMCcsICctbWV0YWxfYmluZGluZycsICctaW1hZScsICc8aW5maWxlLm1hZT4nLCAnLW9tYWUnLCAnPG91dGZpbGUubWFlPic=

> <r_lp_tautomer_probability>
1

> <r_epik_Ionization_Penalty>
2.17574

> <r_epik_Ionization_Penalty_Charging>
0

> <r_epik_Ionization_Penalty_Neutral>
2.17574

> <r_epik_State_Penalty>
2.31336

> <r_epik_Charging_Adjusted_Penalty>
2.31336

> <i_epik_Tot_Q>
0

> <i_epik_Tot_abs_Q>
0

> <r_epik_Metal_State_Penalty>
2.31025

> <b_epik_Metal_Only>
0

> <s_lp_Force_Field>
OPLS_2005

> <r_lp_Energy>
70.4108

> <b_lp_Chiralities_Consistent>
1

> <s_lp_Variant>
AV-unprocessed.smi:21-44

> <Gold.Version>
5.8.1

> <Gold.Id.Protein>
6NUR|6NUR_protein|mol2

> <Gold.PLP.Fitness>
50.4547

> <Gold.PLP.PLP>
-43.9399

> <Gold.PLP.part.hbond>
-2.0000

> <Gold.PLP.part.metal>
0.0000

> <Gold.PLP.part.buried>
-6.5206

> <Gold.PLP.part.nonpolar>
-35.9237

> <Gold.PLP.part.repulsive>
1.5348

> <Gold.PLP.ligand.clash>
0.0000

> <Gold.PLP.ligand.torsion>
0.6139

> <Gold.PLP.Chemscore.Hbond>
1.7500

> <Gold.PLP.Chemscore.CHOScore>
0.5223

> <Gold.PLP.Chemscore.Metal>
0.0000

> <Gold.Chemscore.Hbonds>
donor molecule, donor type, donor heavy atom, donor atom, acceptor molecule, acceptor atom, score
      L1  H    21    49       P1  8028  0.61
      P1  H  7989  7998       L1    12  0.96
      L1  C    11    42       P1  7957  0.17

> <Gold.PLP.Chemscore.Internal.Correction>
0.9257

> <Gold.Rescore>
     Score         DG    S(hbond)    S(metal)    S(lipo)     H(rot)  DE(clash)    DE(int)     intcor
     12.50     -13.45       1.03        0.00     104.45       3.00       0.12       0.83       ----

> <Gold.Chemscore.Fitness>
12.4953

> <Gold.Chemscore.DG>
-13.4476

> <Gold.Chemscore.ZeroCoef>
-5.4800

> <Gold.Chemscore.Hbond>
1.0283

> <Gold.Chemscore.Metal>
0.0000

> <Gold.Chemscore.Lipo>
104.4519

> <Gold.Chemscore.Internal_Hbond>
0.0000

> <Gold.Chemscore.DEClash>
0.1227

> <Gold.Chemscore.DEInternal>
0.8295

> <Gold.Chemscore.Rot>
3.0031

> <Gold.Chemscore.Internal.Correction>
   9.000000E+99

> <Gold.Chemscore.Hbonds>
donor molecule, donor type, donor heavy atom, donor atom, acceptor molecule, acceptor atom, score
      L1  H    21    49       P1  8028  0.60
      P1  H  7989  7998       L1    12  0.75

> <Gold.Chemscore.Hbond.Weighted>
-3.4347

> <Gold.Chemscore.Metal.Weighted>
-0.0000

> <Gold.Chemscore.Lipo.Weighted>
-12.2209

> <Gold.Chemscore.Internal_Hbond.Weighted>
0.0000

> <Gold.Chemscore.DEClash.Weighted>
0.1227

> <Gold.Chemscore.DEInternal.Weighted>
0.8295

> <Gold.Chemscore.Rot.Weighted>
7.6880

> <Gold.Chemscore.Internal.Correction.Weighted>
   9.000000E+99

> <Gold.Protein.RotatedTorsions>
[ 6907 6896 6895 6894 ] final -116.14 input  -60.11 | X-H torsion
[ 7974 7965 7964 7962 ] final  134.64 input  175.53 | X-H torsion
[ 8008 7997 7996 7995 ] final  -59.80 input   59.86 | X-H torsion
[ 10167 10162 10161 10158 ] final   28.91 input  -65.29 | X-H torsion
[ 10718 10713 10712 10709 ] final   -1.38 input   66.30 | X-H torsion
[ 10763 10752 10751 10750 ] final  -62.67 input  -60.55 | X-H torsion
[ 11005 11000 10999 10996 ] final -140.51 input  -57.11 | X-H torsion

> <Gold.Protein.ActiveResidues>
 VAL166  LYS551  ARG553  GLY616  TRP617  ASP618  TYR619  PRO620  LYS621  CYS622 
 ASP623  PHE694  ASN695  SER759  ASP760  ASP761  ALA762  ILE779  LEU786  VAL792 
 PHE793  MET794  SER795  GLU796  ALA797  LYS798  CYS799  TRP800  GLU811  SER814 

> <Gold.Protein.RotatedAtoms>
  150.8033  133.8558  159.3217 H   0  0  0  0  0  0  0  0  0  0  0  0  # atno 6907 bound_to 6896
  151.6364  135.1015  160.0142 H   0  0  0  0  0  0  0  0  0  0  0  0  # atno 6908 bound_to 6896
  152.4122  133.6941  159.6442 H   0  0  0  0  0  0  0  0  0  0  0  0  # atno 6909 bound_to 6896
  144.9743  139.4571  143.5417 H   0  0  0  0  0  0  0  0  0  0  0  0  # atno 7974 bound_to 7965
  154.4369  140.1053  156.6173 H   0  0  0  0  0  0  0  0  0  0  0  0  # atno 8008 bound_to 7997
  155.5745  140.3490  155.4505 H   0  0  0  0  0  0  0  0  0  0  0  0  # atno 8009 bound_to 7997
  156.0364  140.1272  157.0192 H   0  0  0  0  0  0  0  0  0  0  0  0  # atno 8010 bound_to 7997
  140.4812  144.0613  150.6266 H   0  0  0  0  0  0  0  0  0  0  0  0  # atno 10167 bound_to 10162
  156.8064  130.5410  149.5714 H   0  0  0  0  0  0  0  0  0  0  0  0  # atno 10718 bound_to 10713
  154.3034  135.6230  153.5434 H   0  0  0  0  0  0  0  0  0  0  0  0  # atno 10763 bound_to 10752
  152.9838  135.5684  154.5258 H   0  0  0  0  0  0  0  0  0  0  0  0  # atno 10764 bound_to 10752
  154.4893  135.2866  155.1485 H   0  0  0  0  0  0  0  0  0  0  0  0  # atno 10765 bound_to 10752
  140.8416  134.2395  157.4807 H   0  0  0  0  0  0  0  0  0  0  0  0  # atno 11005 bound_to 11000
  146.3391  139.8976  142.8799 LP  0  0  0  0  0  0  0  0  0  0  0  0  # atno 17320 bound_to 7965
  145.2512  141.0045  143.3880 LP  0  0  0  0  0  0  0  0  0  0  0  0  # atno 17321 bound_to 7965
  140.3856  143.2779  152.0120 LP  0  0  0  0  0  0  0  0  0  0  0  0  # atno 17342 bound_to 10162
  139.4834  144.6120  151.7417 LP  0  0  0  0  0  0  0  0  0  0  0  0  # atno 17343 bound_to 10162
  156.1070  130.6012  150.9987 LP  0  0  0  0  0  0  0  0  0  0  0  0  # atno 17370 bound_to 10713
  157.6528  131.0894  150.8014 LP  0  0  0  0  0  0  0  0  0  0  0  0  # atno 17371 bound_to 10713
  139.8703  134.9638  156.4474 LP  0  0  0  0  0  0  0  0  0  0  0  0  # atno 17394 bound_to 11000
  140.8889  133.7862  155.9550 LP  0  0  0  0  0  0  0  0  0  0  0  0  # atno 17395 bound_to 11000

$$$$
