AV-unprocessed.smi:2975|AV-procd|sdf|11355|dock4
  -GOLD-   2272016273D 1   1.00000     0.00000
 Structure written by MMmdl.
 39 41  0  0  0  0  0  0  0  0  1 V2000
  153.3057  139.0278  154.4488 C   0  0  0  0  0  0  0  0  0  0  0  0
  152.1938  138.5678  155.4007 C   0  0  2  0  0  0  0  0  0  0  0  0
  151.9547  137.1942  155.1668 O   0  0  0  0  0  0  0  0  0  0  0  0
  150.9490  139.3998  155.2507 C   0  0  0  0  0  0  0  0  0  0  0  0
  150.3103  139.5211  154.0846 N   0  0  0  0  0  0  0  0  0  0  0  0
  149.2583  140.3595  154.3951 C   0  0  0  0  0  0  0  0  0  0  0  0
  148.2130  140.8598  153.5864 C   0  0  0  0  0  0  0  0  0  0  0  0
  147.2327  141.7127  154.1345 C   0  0  0  0  0  0  0  0  0  0  0  0
  147.2840  142.0770  155.4956 C   0  0  0  0  0  0  0  0  0  0  0  0
  148.3184  141.5910  156.3182 C   0  0  0  0  0  0  0  0  0  0  0  0
  149.2943  140.7399  155.7660 C   0  0  0  0  0  0  0  0  0  0  0  0
  150.4171  140.1025  156.2840 N   0  0  0  0  0  0  0  0  0  0  0  0
  150.8889  140.1877  157.6571 C   0  0  0  0  0  0  0  0  0  0  0  0
  152.2499  140.8888  157.7417 C   0  0  0  0  0  0  0  0  0  0  0  0
  152.0340  142.2586  158.0478 O   0  0  0  0  0  0  0  0  0  0  0  0
  152.2274  142.6757  159.3476 C   0  0  0  0  0  0  0  0  0  0  0  0
  152.7102  141.8402  160.3875 C   0  0  0  0  0  0  0  0  0  0  0  0
  152.8783  142.3477  161.6905 C   0  0  0  0  0  0  0  0  0  0  0  0
  152.5679  143.6909  161.9716 C   0  0  0  0  0  0  0  0  0  0  0  0
  152.0882  144.5273  160.9468 C   0  0  0  0  0  0  0  0  0  0  0  0
  151.9192  144.0210  159.6436 C   0  0  0  0  0  0  0  0  0  0  0  0
  151.4570  144.8369  158.6659 F   0  0  0  0  0  0  0  0  0  0  0  0
  153.5646  140.0720  154.6253 H   0  0  0  0  0  0  0  0  0  0  0  0
  152.9990  138.9337  153.4063 H   0  0  0  0  0  0  0  0  0  0  0  0
  154.2116  138.4363  154.5846 H   0  0  0  0  0  0  0  0  0  0  0  0
  152.5528  138.6374  156.4267 H   0  0  0  0  0  0  0  0  0  0  0  0
  151.0655  136.9986  155.4197 H   0  0  0  0  0  0  0  0  0  0  0  0
  148.1646  140.5855  152.5430 H   0  0  0  0  0  0  0  0  0  0  0  0
  146.4374  142.0884  153.5076 H   0  0  0  0  0  0  0  0  0  0  0  0
  146.5285  142.7297  155.9077 H   0  0  0  0  0  0  0  0  0  0  0  0
  148.3599  141.8678  157.3611 H   0  0  0  0  0  0  0  0  0  0  0  0
  150.1466  140.7049  158.2651 H   0  0  0  0  0  0  0  0  0  0  0  0
  150.9626  139.1787  158.0644 H   0  0  0  0  0  0  0  0  0  0  0  0
  152.8572  140.4179  158.5166 H   0  0  0  0  0  0  0  0  0  0  0  0
  152.7770  140.7956  156.7909 H   0  0  0  0  0  0  0  0  0  0  0  0
  152.9584  140.8047  160.2120 H   0  0  0  0  0  0  0  0  0  0  0  0
  153.2460  141.7036  162.4757 H   0  0  0  0  0  0  0  0  0  0  0  0
  152.6972  144.0789  162.9712 H   0  0  0  0  0  0  0  0  0  0  0  0
  151.8492  145.5590  161.1599 H   0  0  0  0  0  0  0  0  0  0  0  0
  1  2  1  0  0  0  0
  1 23  1  0  0  0  0
  1 24  1  0  0  0  0
  1 25  1  0  0  0  0
  2  3  1  0  0  0  0
  2  4  1  0  0  0  0
  2 26  1  0  0  0  0
  3 27  1  0  0  0  0
  4 12  1  0  0  0  0
  4  5  2  0  0  0  0
  5  6  1  0  0  0  0
  6 11  2  0  0  0  0
  6  7  1  0  0  0  0
  7  8  2  0  0  0  0
  7 28  1  0  0  0  0
  8  9  1  0  0  0  0
  8 29  1  0  0  0  0
  9 10  2  0  0  0  0
  9 30  1  0  0  0  0
 10 11  1  0  0  0  0
 10 31  1  0  0  0  0
 11 12  1  0  0  0  0
 12 13  1  0  0  0  0
 13 14  1  0  0  0  0
 13 32  1  0  0  0  0
 13 33  1  0  0  0  0
 14 15  1  0  0  0  0
 14 34  1  0  0  0  0
 14 35  1  0  0  0  0
 15 16  1  0  0  0  0
 16 21  1  0  0  0  0
 16 17  2  0  0  0  0
 17 18  1  0  0  0  0
 17 36  1  0  0  0  0
 18 19  2  0  0  0  0
 18 37  1  0  0  0  0
 19 20  1  0  0  0  0
 19 38  1  0  0  0  0
 20 21  2  0  0  0  0
 20 39  1  0  0  0  0
 21 22  1  0  0  0  0
M  END
> <s_m_source_file>
AV-unprocessed.smi

> <i_m_source_file_index>
2975

> <i_lp_mmshare_version>
43012

> <i_f3d_flags>
0

> <s_epik_input>
W2NIXTFbY0hdW2NIXVtjSF1jKGMxMiluKGMobjIpW0NASF0oW0NIM10pW09IXSlbQ0gyXVtDSDJdT2MzW2NIXVtjSF1bY0hdW2NIXWMzRg==

> <s_epik_cmdline>
J2VwaWtfcHl0aG9uJywgJy1waCcsICc3LjAnLCAnLXRuJywgJzgnLCAnLW1hJywgJzIwMCcsICctbWV0YWxfYmluZGluZycsICctaW1hZScsICc8aW5maWxlLm1hZT4nLCAnLW9tYWUnLCAnPG91dGZpbGUubWFlPic=

> <r_lp_tautomer_probability>
1

> <r_epik_Ionization_Penalty>
0.0404035

> <r_epik_Ionization_Penalty_Charging>
0

> <r_epik_Ionization_Penalty_Neutral>
0.0404035

> <r_epik_State_Penalty>
0.0340039

> <r_epik_Charging_Adjusted_Penalty>
0.0340039

> <i_epik_Tot_Q>
0

> <i_epik_Tot_abs_Q>
0

> <r_epik_Metal_State_Penalty>
3.49976e-05

> <b_epik_Metal_Only>
0

> <s_lp_Force_Field>
OPLS_2005

> <r_lp_Energy>
15.721

> <b_lp_Chiralities_Consistent>
1

> <s_lp_Variant>
AV-unprocessed.smi:2975-1

> <Gold.Version>
5.8.1

> <Gold.Id.Protein>
6NUR|6NUR_protein|mol2

> <Gold.PLP.Fitness>
54.0085

> <Gold.PLP.PLP>
-50.5064

> <Gold.PLP.part.hbond>
-2.0000

> <Gold.PLP.part.metal>
0.0000

> <Gold.PLP.part.buried>
-0.4557

> <Gold.PLP.part.nonpolar>
-46.8744

> <Gold.PLP.part.repulsive>
0.5161

> <Gold.PLP.ligand.clash>
0.0000

> <Gold.PLP.ligand.torsion>
0.6018

> <Gold.PLP.Chemscore.Hbond>
1.5620

> <Gold.PLP.Chemscore.CHOScore>
0.0000

> <Gold.PLP.Chemscore.Metal>
0.0000

> <Gold.Chemscore.Hbonds>
donor molecule, donor type, donor heavy atom, donor atom, acceptor molecule, acceptor atom, score
      P1  H  7989  7998       L1     5  0.52
      P1  H 10752 10765       L1     3  0.94

> <Gold.PLP.Chemscore.Internal.Correction>
0.0198

> <Gold.Rescore>
     Score         DG    S(hbond)    S(metal)    S(lipo)     H(rot)  DE(clash)    DE(int)     intcor
     16.80     -17.79       0.96        0.00     126.15       2.21       0.24       0.74       ----

> <Gold.Chemscore.Fitness>
16.8002

> <Gold.Chemscore.DG>
-17.7851

> <Gold.Chemscore.ZeroCoef>
-5.4800

> <Gold.Chemscore.Hbond>
0.9559

> <Gold.Chemscore.Metal>
0.0000

> <Gold.Chemscore.Lipo>
126.1523

> <Gold.Chemscore.Internal_Hbond>
0.0000

> <Gold.Chemscore.DEClash>
0.2416

> <Gold.Chemscore.DEInternal>
0.7434

> <Gold.Chemscore.Rot>
2.2060

> <Gold.Chemscore.Internal.Correction>
   9.000000E+99

> <Gold.Chemscore.Hbonds>
donor molecule, donor type, donor heavy atom, donor atom, acceptor molecule, acceptor atom, score
      P1  H  7989  7998       L1     5  0.01
      P1  H 10752 10765       L1     3  0.77

> <Gold.Chemscore.Hbond.Weighted>
-3.1926

> <Gold.Chemscore.Metal.Weighted>
-0.0000

> <Gold.Chemscore.Lipo.Weighted>
-14.7598

> <Gold.Chemscore.Internal_Hbond.Weighted>
0.0000

> <Gold.Chemscore.DEClash.Weighted>
0.2416

> <Gold.Chemscore.DEInternal.Weighted>
0.7434

> <Gold.Chemscore.Rot.Weighted>
5.6473

> <Gold.Chemscore.Internal.Correction.Weighted>
   9.000000E+99

> <Gold.Protein.RotatedTorsions>
[ 6907 6896 6895 6894 ] final   36.19 input  -60.11 | X-H torsion
[ 7974 7965 7964 7962 ] final  -79.94 input  175.53 | X-H torsion
[ 8008 7997 7996 7995 ] final  -82.48 input   59.86 | X-H torsion
[ 10167 10162 10161 10158 ] final  -79.06 input  -65.29 | X-H torsion
[ 10718 10713 10712 10709 ] final  -24.23 input   66.30 | X-H torsion
[ 10763 10752 10751 10750 ] final -175.90 input  -60.55 | X-H torsion
[ 11005 11000 10999 10996 ] final -147.14 input  -57.11 | X-H torsion

> <Gold.Protein.ActiveResidues>
 VAL166  LYS551  ARG553  GLY616  TRP617  ASP618  TYR619  PRO620  LYS621  CYS622 
 ASP623  PHE694  ASN695  SER759  ASP760  ASP761  ALA762  ILE779  LEU786  VAL792 
 PHE793  MET794  SER795  GLU796  ALA797  LYS798  CYS799  TRP800  GLU811  SER814 

> <Gold.Protein.RotatedAtoms>
  152.1264  134.9168  160.0560 H   0  0  0  0  0  0  0  0  0  0  0  0  # atno 6907 bound_to 6896
  152.0289  133.3924  159.4297 H   0  0  0  0  0  0  0  0  0  0  0  0  # atno 6908 bound_to 6896
  150.6853  134.3464  159.4934 H   0  0  0  0  0  0  0  0  0  0  0  0  # atno 6909 bound_to 6896
  145.5666  140.9473  143.1418 H   0  0  0  0  0  0  0  0  0  0  0  0  # atno 7974 bound_to 7965
  154.6090  140.0632  156.9469 H   0  0  0  0  0  0  0  0  0  0  0  0  # atno 8008 bound_to 7997
  155.2004  140.3314  155.4326 H   0  0  0  0  0  0  0  0  0  0  0  0  # atno 8009 bound_to 7997
  156.2365  140.1865  156.7088 H   0  0  0  0  0  0  0  0  0  0  0  0  # atno 8010 bound_to 7997
  140.4627  143.2449  151.8324 H   0  0  0  0  0  0  0  0  0  0  0  0  # atno 10167 bound_to 10162
  156.4804  130.4544  149.6815 H   0  0  0  0  0  0  0  0  0  0  0  0  # atno 10718 bound_to 10713
  154.5788  135.2834  155.0753 H   0  0  0  0  0  0  0  0  0  0  0  0  # atno 10763 bound_to 10752
  154.2097  135.6410  153.5115 H   0  0  0  0  0  0  0  0  0  0  0  0  # atno 10764 bound_to 10752
  153.0081  135.5489  154.6436 H   0  0  0  0  0  0  0  0  0  0  0  0  # atno 10765 bound_to 10752
  140.7748  134.3148  157.5064 H   0  0  0  0  0  0  0  0  0  0  0  0  # atno 11005 bound_to 11000
  144.7458  139.7325  143.7293 LP  0  0  0  0  0  0  0  0  0  0  0  0  # atno 17320 bound_to 7965
  146.1814  139.5008  142.9864 LP  0  0  0  0  0  0  0  0  0  0  0  0  # atno 17321 bound_to 7965
  139.4808  144.4988  151.9088 LP  0  0  0  0  0  0  0  0  0  0  0  0  # atno 17342 bound_to 10162
  140.4074  144.2414  150.5890 LP  0  0  0  0  0  0  0  0  0  0  0  0  # atno 17343 bound_to 10162
  156.3527  130.7440  151.2402 LP  0  0  0  0  0  0  0  0  0  0  0  0  # atno 17370 bound_to 10713
  157.7484  131.0372  150.4447 LP  0  0  0  0  0  0  0  0  0  0  0  0  # atno 17371 bound_to 10713
  139.8750  134.9282  156.3446 LP  0  0  0  0  0  0  0  0  0  0  0  0  # atno 17394 bound_to 11000
  140.9539  133.7432  156.0310 LP  0  0  0  0  0  0  0  0  0  0  0  0  # atno 17395 bound_to 11000

$$$$
