AV-unprocessed.smi:3112|AV-procd|sdf|11850|dock8
  -GOLD-   2272017233D 1   1.00000     0.00000
 Structure written by MMmdl.
 36 36  0  0  0  0  0  0  0  0  1 V2000
  148.3761  141.0402  153.9991 C   0  0  0  0  0  0  0  0  0  0  0  0
  148.6896  141.1099  155.4998 C   0  0  0  0  0  0  0  0  0  0  0  0
  150.1772  141.3845  155.7981 C   0  0  2  0  0  0  0  0  0  0  0  0
  150.9943  140.3459  155.2962 O   0  0  0  0  0  0  0  0  0  0  0  0
  150.4980  141.5992  157.2893 C   0  0  0  0  0  0  0  0  0  0  0  0
  151.7941  141.0297  157.6684 N   0  0  0  0  0  0  0  0  0  0  0  0
  151.9458  140.7289  159.0952 C   0  0  1  0  0  0  0  0  0  0  0  0
  152.8058  139.4580  159.2295 C   0  0  0  0  0  0  0  0  0  0  0  0
  152.5479  141.9344  159.8785 C   0  0  1  0  0  0  0  0  0  0  0  0
  154.0759  142.0790  159.7528 C   0  0  0  0  0  0  0  0  0  0  0  0
  151.9089  143.1931  159.5126 N   0  0  0  0  0  0  0  0  0  0  0  0
  152.5034  144.3493  159.0496 C   0  0  0  0  0  0  0  0  0  0  0  0
  151.5113  145.2638  158.8399 C   0  0  0  0  0  0  0  0  0  0  0  0
  150.3267  144.5667  159.2063 C   0  0  0  0  0  0  0  0  0  0  0  0
  150.5664  143.3293  159.6079 N   0  0  0  0  0  0  0  0  0  0  0  0
  147.3110  140.8772  153.8338 H   0  0  0  0  0  0  0  0  0  0  0  0
  148.9132  140.2223  153.5181 H   0  0  0  0  0  0  0  0  0  0  0  0
  148.6524  141.9663  153.4945 H   0  0  0  0  0  0  0  0  0  0  0  0
  148.0853  141.9030  155.9421 H   0  0  0  0  0  0  0  0  0  0  0  0
  148.3723  140.1818  155.9768 H   0  0  0  0  0  0  0  0  0  0  0  0
  150.4714  142.2923  155.2700 H   0  0  0  0  0  0  0  0  0  0  0  0
  151.6395  140.1285  155.9513 H   0  0  0  0  0  0  0  0  0  0  0  0
  150.4417  142.6600  157.5252 H   0  0  0  0  0  0  0  0  0  0  0  0
  149.7169  141.1223  157.8822 H   0  0  0  0  0  0  0  0  0  0  0  0
  151.9538  140.1869  157.1261 H   0  0  0  0  0  0  0  0  0  0  0  0
  150.9690  140.4891  159.5184 H   0  0  0  0  0  0  0  0  0  0  0  0
  152.8495  139.1034  160.2593 H   0  0  0  0  0  0  0  0  0  0  0  0
  153.8282  139.6325  158.8928 H   0  0  0  0  0  0  0  0  0  0  0  0
  152.3949  138.6423  158.6336 H   0  0  0  0  0  0  0  0  0  0  0  0
  152.3299  141.7792  160.9366 H   0  0  0  0  0  0  0  0  0  0  0  0
  154.5949  141.2604  160.2503 H   0  0  0  0  0  0  0  0  0  0  0  0
  154.4213  142.9995  160.2250 H   0  0  0  0  0  0  0  0  0  0  0  0
  154.3925  142.1021  158.7097 H   0  0  0  0  0  0  0  0  0  0  0  0
  153.5716  144.4249  158.9105 H   0  0  0  0  0  0  0  0  0  0  0  0
  151.6161  146.2762  158.4797 H   0  0  0  0  0  0  0  0  0  0  0  0
  149.3065  144.9207  159.1927 H   0  0  0  0  0  0  0  0  0  0  0  0
  1  2  1  0  0  0  0
  1 16  1  0  0  0  0
  1 17  1  0  0  0  0
  1 18  1  0  0  0  0
  2  3  1  0  0  0  0
  2 19  1  0  0  0  0
  2 20  1  0  0  0  0
  3  4  1  0  0  0  0
  3  5  1  0  0  0  0
  3 21  1  0  0  0  0
  4 22  1  0  0  0  0
  5  6  1  0  0  0  0
  5 23  1  0  0  0  0
  5 24  1  0  0  0  0
  6  7  1  0  0  0  0
  6 25  1  0  0  0  0
  7  8  1  0  0  0  0
  7  9  1  0  0  0  0
  7 26  1  0  0  0  0
  8 27  1  0  0  0  0
  8 28  1  0  0  0  0
  8 29  1  0  0  0  0
  9 10  1  0  0  0  0
  9 11  1  0  0  0  0
  9 30  1  0  0  0  0
 10 31  1  0  0  0  0
 10 32  1  0  0  0  0
 10 33  1  0  0  0  0
 11 15  1  0  0  0  0
 11 12  1  0  0  0  0
 12 13  2  0  0  0  0
 12 34  1  0  0  0  0
 13 14  1  0  0  0  0
 13 35  1  0  0  0  0
 14 15  2  0  0  0  0
 14 36  1  0  0  0  0
M  END
> <s_m_source_file>
AV-unprocessed.smi

> <i_m_source_file_index>
3112

> <i_lp_mmshare_version>
43012

> <i_f3d_flags>
0

> <s_epik_input>
W0NIM11bQ0gyXVtDQEhdKFtPSF0pW0NIMl1bTkhdW0NASF0oW0NIM10pW0NASF0oW0NIM10pbjFbY0hdW2NIXVtjSF1uMQ==

> <s_epik_cmdline>
J2VwaWtfcHl0aG9uJywgJy1waCcsICc3LjAnLCAnLXRuJywgJzgnLCAnLW1hJywgJzIwMCcsICctbWV0YWxfYmluZGluZycsICctaW1hZScsICc8aW5maWxlLm1hZT4nLCAnLW9tYWUnLCAnPG91dGZpbGUubWFlPic=

> <r_lp_tautomer_probability>
1

> <r_epik_Ionization_Penalty>
2.16876

> <r_epik_Ionization_Penalty_Charging>
0

> <r_epik_Ionization_Penalty_Neutral>
2.16876

> <r_epik_State_Penalty>
2.30854

> <r_epik_Charging_Adjusted_Penalty>
2.30854

> <i_epik_Tot_Q>
0

> <i_epik_Tot_abs_Q>
0

> <r_epik_Metal_State_Penalty>
2.3073

> <b_epik_Metal_Only>
0

> <s_lp_Force_Field>
OPLS_2005

> <r_lp_Energy>
23.3331

> <b_lp_Chiralities_Consistent>
1

> <s_lp_Variant>
AV-unprocessed.smi:3112-15

> <Gold.Version>
5.8.1

> <Gold.Id.Protein>
6NUR|6NUR_protein|mol2

> <Gold.PLP.Fitness>
40.5160

> <Gold.PLP.PLP>
-37.1630

> <Gold.PLP.part.hbond>
-1.5272

> <Gold.PLP.part.metal>
0.0000

> <Gold.PLP.part.buried>
-4.0564

> <Gold.PLP.part.nonpolar>
-31.2467

> <Gold.PLP.part.repulsive>
0.0770

> <Gold.PLP.ligand.clash>
0.0000

> <Gold.PLP.ligand.torsion>
1.3970

> <Gold.PLP.Chemscore.Hbond>
1.0000

> <Gold.PLP.Chemscore.CHOScore>
1.0000

> <Gold.PLP.Chemscore.Metal>
0.0000

> <Gold.Chemscore.Hbonds>
donor molecule, donor type, donor heavy atom, donor atom, acceptor molecule, acceptor atom, score
      P1  H  7989  7998       L1     4  1.00
      L1  C    14    36       P1  8029  0.85

> <Gold.PLP.Chemscore.Internal.Correction>
0.1470

> <Gold.Rescore>
     Score         DG    S(hbond)    S(metal)    S(lipo)     H(rot)  DE(clash)    DE(int)     intcor
     12.05     -13.68       0.85        0.00      96.44       2.31       0.20       1.42       ----

> <Gold.Chemscore.Fitness>
12.0518

> <Gold.Chemscore.DG>
-13.6805

> <Gold.Chemscore.ZeroCoef>
-5.4800

> <Gold.Chemscore.Hbond>
0.8482

> <Gold.Chemscore.Metal>
0.0000

> <Gold.Chemscore.Lipo>
96.4368

> <Gold.Chemscore.Internal_Hbond>
0.0000

> <Gold.Chemscore.DEClash>
0.2043

> <Gold.Chemscore.DEInternal>
1.4244

> <Gold.Chemscore.Rot>
2.3108

> <Gold.Chemscore.Internal.Correction>
   9.000000E+99

> <Gold.Chemscore.Hbonds>
donor molecule, donor type, donor heavy atom, donor atom, acceptor molecule, acceptor atom, score
      P1  H  7989  7998       L1     4  0.59

> <Gold.Chemscore.Hbond.Weighted>
-2.8331

> <Gold.Chemscore.Metal.Weighted>
-0.0000

> <Gold.Chemscore.Lipo.Weighted>
-11.2831

> <Gold.Chemscore.Internal_Hbond.Weighted>
0.0000

> <Gold.Chemscore.DEClash.Weighted>
0.2043

> <Gold.Chemscore.DEInternal.Weighted>
1.4244

> <Gold.Chemscore.Rot.Weighted>
5.9157

> <Gold.Chemscore.Internal.Correction.Weighted>
   9.000000E+99

> <Gold.Protein.RotatedTorsions>
[ 6907 6896 6895 6894 ] final -176.20 input  -60.11 | X-H torsion
[ 7974 7965 7964 7962 ] final   58.11 input  175.53 | X-H torsion
[ 8008 7997 7996 7995 ] final -158.04 input   59.86 | X-H torsion
[ 10167 10162 10161 10158 ] final  169.53 input  -65.29 | X-H torsion
[ 10718 10713 10712 10709 ] final  -29.64 input   66.30 | X-H torsion
[ 10763 10752 10751 10750 ] final  115.95 input  -60.55 | X-H torsion
[ 11005 11000 10999 10996 ] final  178.63 input  -57.11 | X-H torsion

> <Gold.Protein.ActiveResidues>
 VAL166  LYS551  ARG553  GLY616  TRP617  ASP618  TYR619  PRO620  LYS621  CYS622 
 ASP623  PHE694  ASN695  SER759  ASP760  ASP761  ALA762  ILE779  LEU786  VAL792 
 PHE793  MET794  SER795  GLU796  ALA797  LYS798  CYS799  TRP800  GLU811  SER814 

> <Gold.Protein.RotatedAtoms>
  151.6010  133.3356  159.3047 H   0  0  0  0  0  0  0  0  0  0  0  0  # atno 6907 bound_to 6896
  150.8208  134.7418  159.6782 H   0  0  0  0  0  0  0  0  0  0  0  0  # atno 6908 bound_to 6896
  152.4301  134.5799  159.9996 H   0  0  0  0  0  0  0  0  0  0  0  0  # atno 6909 bound_to 6896
  145.9217  139.3735  143.0474 H   0  0  0  0  0  0  0  0  0  0  0  0  # atno 7974 bound_to 7965
  155.7415  140.0815  157.2243 H   0  0  0  0  0  0  0  0  0  0  0  0  # atno 8008 bound_to 7997
  154.4021  140.1577  156.2677 H   0  0  0  0  0  0  0  0  0  0  0  0  # atno 8009 bound_to 7997
  155.9016  140.3409  155.6033 H   0  0  0  0  0  0  0  0  0  0  0  0  # atno 8010 bound_to 7997
  139.4995  144.3695  151.9739 H   0  0  0  0  0  0  0  0  0  0  0  0  # atno 10167 bound_to 10162
  156.4099  130.4406  149.7260 H   0  0  0  0  0  0  0  0  0  0  0  0  # atno 10718 bound_to 10713
  153.5299  135.3580  155.2671 H   0  0  0  0  0  0  0  0  0  0  0  0  # atno 10763 bound_to 10752
  154.8728  135.4065  154.3164 H   0  0  0  0  0  0  0  0  0  0  0  0  # atno 10764 bound_to 10752
  153.3850  135.7069  153.6604 H   0  0  0  0  0  0  0  0  0  0  0  0  # atno 10765 bound_to 10752
  140.3973  134.6809  157.4541 H   0  0  0  0  0  0  0  0  0  0  0  0  # atno 11005 bound_to 11000
  145.8541  140.9512  143.0734 LP  0  0  0  0  0  0  0  0  0  0  0  0  # atno 17320 bound_to 7965
  144.6754  140.0445  143.7480 LP  0  0  0  0  0  0  0  0  0  0  0  0  # atno 17321 bound_to 7965
  140.3131  144.3514  150.6028 LP  0  0  0  0  0  0  0  0  0  0  0  0  # atno 17342 bound_to 10162
  140.5782  143.2175  151.7476 LP  0  0  0  0  0  0  0  0  0  0  0  0  # atno 17343 bound_to 10162
  156.4243  130.7784  151.2802 LP  0  0  0  0  0  0  0  0  0  0  0  0  # atno 17370 bound_to 10713
  157.7506  131.0173  150.3581 LP  0  0  0  0  0  0  0  0  0  0  0  0  # atno 17371 bound_to 10713
  140.0362  134.6333  155.9040 LP  0  0  0  0  0  0  0  0  0  0  0  0  # atno 17394 bound_to 11000
  141.1869  133.6558  156.5261 LP  0  0  0  0  0  0  0  0  0  0  0  0  # atno 17395 bound_to 11000

$$$$
