AV-unprocessed.smi:2135|AV-procd|sdf|8698|dock2
  -GOLD-   2272011453D 1   1.00000     0.00000
 Structure written by MMmdl.
 42 43  0  0  0  0  0  0  0  0  1 V2000
  151.3552  137.8617  158.4962 C   0  0  0  0  0  0  0  0  0  0  0  0
  149.6605  137.2931  158.0662 S   0  0  0  0  0  0  0  0  0  0  0  0
  149.4982  135.9119  158.5458 O   0  0  0  0  0  0  0  0  0  0  0  0
  148.7136  138.3326  158.4978 O   0  0  0  0  0  0  0  0  0  0  0  0
  149.6475  137.2704  156.3267 N   0  0  0  0  0  0  0  0  0  0  0  0
  148.4280  137.6292  155.5794 C   0  0  0  0  0  0  0  0  0  0  0  0
  148.6068  138.9499  154.8144 C   0  0  0  0  0  0  0  0  0  0  0  0
  149.8683  138.9274  153.9321 C   0  0  0  0  0  0  0  0  0  0  0  0
  151.1338  138.5642  154.7426 C   0  0  1  0  0  0  0  0  0  0  0  0
  151.6542  139.7154  155.6249 C   0  0  0  0  0  0  0  0  0  0  0  0
  152.6910  139.6054  156.2801 O   0  0  0  0  0  0  0  0  0  0  0  0
  150.8883  140.8171  155.6633 N   0  0  0  0  0  0  0  0  0  0  0  0
  151.1770  142.0144  156.4431 C   0  0  0  0  0  0  0  0  0  0  0  0
  150.8595  141.8084  157.9329 C   0  0  0  0  0  0  0  0  0  0  0  0
  151.2117  143.0257  158.7646 C   0  0  0  0  0  0  0  0  0  0  0  0
  151.7537  142.8864  160.0588 C   0  0  0  0  0  0  0  0  0  0  0  0
  152.0599  144.0474  160.7942 C   0  0  0  0  0  0  0  0  0  0  0  0
  151.8098  145.3017  160.2023 C   0  0  0  0  0  0  0  0  0  0  0  0
  151.2909  145.4473  158.9641 N   0  0  0  0  0  0  0  0  0  0  0  0
  151.0000  144.3287  158.2655 C   0  0  0  0  0  0  0  0  0  0  0  0
  150.8928  137.2517  155.5301 C   0  0  0  0  0  0  0  0  0  0  0  0
  151.4014  138.0689  159.5649 H   0  0  0  0  0  0  0  0  0  0  0  0
  151.5937  138.7697  157.9436 H   0  0  0  0  0  0  0  0  0  0  0  0
  152.0776  137.0832  158.2620 H   0  0  0  0  0  0  0  0  0  0  0  0
  148.2034  136.8243  154.8787 H   0  0  0  0  0  0  0  0  0  0  0  0
  147.5761  137.6997  156.2555 H   0  0  0  0  0  0  0  0  0  0  0  0
  147.7300  139.1311  154.1924 H   0  0  0  0  0  0  0  0  0  0  0  0
  148.6436  139.7780  155.5207 H   0  0  0  0  0  0  0  0  0  0  0  0
  149.7329  138.1932  153.1370 H   0  0  0  0  0  0  0  0  0  0  0  0
  149.9919  139.8887  153.4314 H   0  0  0  0  0  0  0  0  0  0  0  0
  151.9304  138.3732  154.0220 H   0  0  0  0  0  0  0  0  0  0  0  0
  150.0450  140.8282  155.1078 H   0  0  0  0  0  0  0  0  0  0  0  0
  152.2199  142.3073  156.3092 H   0  0  0  0  0  0  0  0  0  0  0  0
  150.5723  142.8289  156.0431 H   0  0  0  0  0  0  0  0  0  0  0  0
  149.7998  141.5842  158.0624 H   0  0  0  0  0  0  0  0  0  0  0  0
  151.4056  140.9478  158.3220 H   0  0  0  0  0  0  0  0  0  0  0  0
  151.9307  141.9086  160.4826 H   0  0  0  0  0  0  0  0  0  0  0  0
  152.4761  143.9786  161.7882 H   0  0  0  0  0  0  0  0  0  0  0  0
  152.0327  146.2126  160.7381 H   0  0  0  0  0  0  0  0  0  0  0  0
  150.5837  144.4785  157.2800 H   0  0  0  0  0  0  0  0  0  0  0  0
  151.7439  137.0208  156.1702 H   0  0  0  0  0  0  0  0  0  0  0  0
  150.8271  136.4224  154.8250 H   0  0  0  0  0  0  0  0  0  0  0  0
  1  2  1  0  0  0  0
  1 22  1  0  0  0  0
  1 23  1  0  0  0  0
  1 24  1  0  0  0  0
  2  3  2  0  0  0  0
  2  4  2  0  0  0  0
  2  5  1  0  0  0  0
  5 21  1  0  0  0  0
  5  6  1  0  0  0  0
  6  7  1  0  0  0  0
  6 25  1  0  0  0  0
  6 26  1  0  0  0  0
  7  8  1  0  0  0  0
  7 27  1  0  0  0  0
  7 28  1  0  0  0  0
  8  9  1  0  0  0  0
  8 29  1  0  0  0  0
  8 30  1  0  0  0  0
  9 10  1  0  0  0  0
  9 21  1  0  0  0  0
  9 31  1  0  0  0  0
 10 11  2  0  0  0  0
 10 12  1  0  0  0  0
 12 13  1  0  0  0  0
 12 32  1  0  0  0  0
 13 14  1  0  0  0  0
 13 33  1  0  0  0  0
 13 34  1  0  0  0  0
 14 15  1  0  0  0  0
 14 35  1  0  0  0  0
 14 36  1  0  0  0  0
 15 20  1  0  0  0  0
 15 16  2  0  0  0  0
 16 17  1  0  0  0  0
 16 37  1  0  0  0  0
 17 18  2  0  0  0  0
 17 38  1  0  0  0  0
 18 19  1  0  0  0  0
 18 39  1  0  0  0  0
 19 20  2  0  0  0  0
 20 40  1  0  0  0  0
 21 41  1  0  0  0  0
 21 42  1  0  0  0  0
M  END
> <s_m_source_file>
AV-unprocessed.smi

> <i_m_source_file_index>
2135

> <i_lp_mmshare_version>
43012

> <i_f3d_flags>
0

> <s_epik_input>
W0NIM11TKD1PKSg9TylOMVtDSDJdW0NIMl1bQ0gyXVtDQEhdKFtDSDJdMSlDKD1PKVtOSF1bQ0gyXVtDSDJdYzJbY0hdW2NIXVtjSF1uW2NIXTI=

> <s_epik_cmdline>
J2VwaWtfcHl0aG9uJywgJy1waCcsICc3LjAnLCAnLXRuJywgJzgnLCAnLW1hJywgJzIwMCcsICctbWV0YWxfYmluZGluZycsICctaW1hZScsICc8aW5maWxlLm1hZT4nLCAnLW9tYWUnLCAnPG91dGZpbGUubWFlPic=

> <r_epik_Ionization_Penalty>
0.0134582

> <r_epik_Ionization_Penalty_Charging>
0

> <r_epik_Ionization_Penalty_Neutral>
0.0134582

> <r_epik_State_Penalty>
0.010475

> <r_epik_Charging_Adjusted_Penalty>
0.010475

> <i_epik_Tot_Q>
0

> <i_epik_Tot_abs_Q>
0

> <r_epik_Metal_State_Penalty>
0.0102416

> <b_epik_Metal_Only>
0

> <s_lp_Force_Field>
OPLS_2005

> <r_lp_Energy>
-1.27584

> <b_lp_Chiralities_Consistent>
1

> <s_lp_Variant>
AV-unprocessed.smi:2135-1

> <Gold.Version>
5.8.1

> <Gold.Id.Protein>
6NUR|6NUR_protein|mol2

> <Gold.PLP.Fitness>
46.5843

> <Gold.PLP.PLP>
-38.7924

> <Gold.PLP.part.hbond>
-3.8704

> <Gold.PLP.part.metal>
0.0000

> <Gold.PLP.part.buried>
-5.3320

> <Gold.PLP.part.nonpolar>
-28.5291

> <Gold.PLP.part.repulsive>
0.2975

> <Gold.PLP.ligand.clash>
0.0000

> <Gold.PLP.ligand.torsion>
1.6502

> <Gold.PLP.Chemscore.Hbond>
2.0000

> <Gold.PLP.Chemscore.CHOScore>
1.0000

> <Gold.PLP.Chemscore.Metal>
0.0000

> <Gold.Chemscore.Hbonds>
donor molecule, donor type, donor heavy atom, donor atom, acceptor molecule, acceptor atom, score
      P1  H  6896  6908       L1     3  1.00
      P1  H  7997  8010       L1    11  1.00
      L1  C    20    40       P1  8028  1.00

> <Gold.PLP.Chemscore.Internal.Correction>
2.0924

> <Gold.Rescore>
     Score         DG    S(hbond)    S(metal)    S(lipo)     H(rot)  DE(clash)    DE(int)     intcor
     17.28     -19.34       2.00        0.00      95.62       1.56       0.01       2.05       ----

> <Gold.Chemscore.Fitness>
17.2802

> <Gold.Chemscore.DG>
-19.3381

> <Gold.Chemscore.ZeroCoef>
-5.4800

> <Gold.Chemscore.Hbond>
1.9984

> <Gold.Chemscore.Metal>
0.0000

> <Gold.Chemscore.Lipo>
95.6226

> <Gold.Chemscore.Internal_Hbond>
0.0000

> <Gold.Chemscore.DEClash>
0.0069

> <Gold.Chemscore.DEInternal>
2.0509

> <Gold.Chemscore.Rot>
1.5643

> <Gold.Chemscore.Internal.Correction>
   9.000000E+99

> <Gold.Chemscore.Hbonds>
donor molecule, donor type, donor heavy atom, donor atom, acceptor molecule, acceptor atom, score
      P1  H  6896  6908       L1     3  0.93
      P1  H  7997  8010       L1    11  1.00

> <Gold.Chemscore.Hbond.Weighted>
-6.6748

> <Gold.Chemscore.Metal.Weighted>
-0.0000

> <Gold.Chemscore.Lipo.Weighted>
-11.1878

> <Gold.Chemscore.Internal_Hbond.Weighted>
0.0000

> <Gold.Chemscore.DEClash.Weighted>
0.0069

> <Gold.Chemscore.DEInternal.Weighted>
2.0509

> <Gold.Chemscore.Rot.Weighted>
4.0046

> <Gold.Chemscore.Internal.Correction.Weighted>
   9.000000E+99

> <Gold.Protein.RotatedTorsions>
[ 6907 6896 6895 6894 ] final  179.83 input  -60.11 | X-H torsion
[ 7974 7965 7964 7962 ] final  174.40 input  175.53 | X-H torsion
[ 8008 7997 7996 7995 ] final   72.41 input   59.86 | X-H torsion
[ 10167 10162 10161 10158 ] final  -60.59 input  -65.29 | X-H torsion
[ 10718 10713 10712 10709 ] final  -43.74 input   66.30 | X-H torsion
[ 10763 10752 10751 10750 ] final   85.63 input  -60.55 | X-H torsion
[ 11005 11000 10999 10996 ] final   65.74 input  -57.11 | X-H torsion

> <Gold.Protein.ActiveResidues>
 VAL166  LYS551  ARG553  GLY616  TRP617  ASP618  TYR619  PRO620  LYS621  CYS622 
 ASP623  PHE694  ASN695  SER759  ASP760  ASP761  ALA762  ILE779  LEU786  VAL792 
 PHE793  MET794  SER795  GLU796  ALA797  LYS798  CYS799  TRP800  GLU811  SER814 

> <Gold.Protein.RotatedAtoms>
  151.6653  133.3315  159.3183 H   0  0  0  0  0  0  0  0  0  0  0  0  # atno 6907 bound_to 6896
  150.7894  134.6909  159.6505 H   0  0  0  0  0  0  0  0  0  0  0  0  # atno 6908 bound_to 6896
  152.3970  134.6352  160.0137 H   0  0  0  0  0  0  0  0  0  0  0  0  # atno 6909 bound_to 6896
  144.7222  139.9791  143.6438 H   0  0  0  0  0  0  0  0  0  0  0  0  # atno 7974 bound_to 7965
  155.7684  140.3485  155.5234 H   0  0  0  0  0  0  0  0  0  0  0  0  # atno 8008 bound_to 7997
  155.8846  140.1008  157.1482 H   0  0  0  0  0  0  0  0  0  0  0  0  # atno 8009 bound_to 7997
  154.4028  140.1316  156.4227 H   0  0  0  0  0  0  0  0  0  0  0  0  # atno 8010 bound_to 7997
  140.6061  143.2374  151.5817 H   0  0  0  0  0  0  0  0  0  0  0  0  # atno 10167 bound_to 10162
  156.2458  130.4184  149.8706 H   0  0  0  0  0  0  0  0  0  0  0  0  # atno 10718 bound_to 10713
  153.1493  135.4610  154.9613 H   0  0  0  0  0  0  0  0  0  0  0  0  # atno 10763 bound_to 10752
  154.7812  135.3189  154.7988 H   0  0  0  0  0  0  0  0  0  0  0  0  # atno 10764 bound_to 10752
  153.8497  135.6922  153.4848 H   0  0  0  0  0  0  0  0  0  0  0  0  # atno 10765 bound_to 10752
  139.9875  134.6644  156.0150 H   0  0  0  0  0  0  0  0  0  0  0  0  # atno 11005 bound_to 11000
  146.0502  139.3503  143.0644 LP  0  0  0  0  0  0  0  0  0  0  0  0  # atno 17320 bound_to 7965
  145.8225  140.9672  143.0891 LP  0  0  0  0  0  0  0  0  0  0  0  0  # atno 17321 bound_to 7965
  139.5326  144.2872  152.1182 LP  0  0  0  0  0  0  0  0  0  0  0  0  # atno 17342 bound_to 10162
  140.2062  144.4609  150.6408 LP  0  0  0  0  0  0  0  0  0  0  0  0  # atno 17343 bound_to 10162
  156.6272  130.8651  151.3488 LP  0  0  0  0  0  0  0  0  0  0  0  0  # atno 17370 bound_to 10713
  157.7194  130.9539  150.1381 LP  0  0  0  0  0  0  0  0  0  0  0  0  # atno 17371 bound_to 10713
  141.1537  133.6545  156.4094 LP  0  0  0  0  0  0  0  0  0  0  0  0  # atno 17394 bound_to 11000
  140.4973  134.6519  157.5235 LP  0  0  0  0  0  0  0  0  0  0  0  0  # atno 17395 bound_to 11000

$$$$
