AV-unprocessed.smi:2837|AV-procd|sdf|10925|dock9
  -GOLD-   2272015373D 1   1.00000     0.00000
 Structure written by MMmdl.
 33 35  0  0  0  0  0  0  0  0  2 V2000
  148.8393  137.5387  156.0880 F   0  0  0  0  0  0  0  0  0  0  0  0
  150.0573  137.3548  155.5243 C   0  0  0  0  0  0  0  0  0  0  0  0
  149.9990  136.2192  154.7864 F   0  0  0  0  0  0  0  0  0  0  0  0
  150.3628  138.4189  154.7348 O   0  0  0  0  0  0  0  0  0  0  0  0
  150.5517  139.6540  155.3117 C   0  0  0  0  0  0  0  0  0  0  0  0
  151.5341  139.7806  156.3156 C   0  0  0  0  0  0  0  0  0  0  0  0
  151.7473  141.0278  156.9378 C   0  0  0  0  0  0  0  0  0  0  0  0
  150.9618  142.1400  156.5527 C   0  0  0  0  0  0  0  0  0  0  0  0
  151.0820  143.4259  157.0979 N   0  0  0  0  0  0  0  0  0  0  0  0
  152.0608  143.7188  158.1386 C   0  0  1  0  0  0  0  0  0  0  0  0
  152.2600  145.2190  158.3683 C   0  0  0  0  0  0  0  0  0  0  0  0
  152.0341  145.3394  159.8820 C   0  0  1  0  0  0  0  0  0  0  0  0
  150.5467  145.2293  160.2397 C   0  0  0  0  0  0  0  0  0  0  0  0
  150.2822  143.7426  160.0108 C   0  0  0  0  0  0  0  0  0  0  0  0
  151.6611  143.2402  159.5492 C   0  0  2  0  0  0  0  0  0  0  0  0
  152.5004  144.0763  160.3271 O   0  0  0  0  0  0  0  0  0  0  0  0
  150.0234  141.9756  155.5944 N   0  3  0  0  0  0  0  0  0  0  0  0
  149.7904  140.7987  154.9734 C   0  0  0  0  0  0  0  0  0  0  0  0
  150.7816  137.2297  156.3295 H   0  0  0  0  0  0  0  0  0  0  0  0
  152.1254  138.9243  156.6054 H   0  0  0  0  0  0  0  0  0  0  0  0
  152.5090  141.1092  157.6985 H   0  0  0  0  0  0  0  0  0  0  0  0
  150.3681  144.1141  156.9071 H   0  0  0  0  0  0  0  0  0  0  0  0
  153.0231  143.2862  157.8624 H   0  0  0  0  0  0  0  0  0  0  0  0
  153.2771  145.5094  158.1026 H   0  0  0  0  0  0  0  0  0  0  0  0
  151.5713  145.8483  157.8026 H   0  0  0  0  0  0  0  0  0  0  0  0
  152.5366  146.1925  160.3386 H   0  0  0  0  0  0  0  0  0  0  0  0
  150.3778  145.4908  161.2850 H   0  0  0  0  0  0  0  0  0  0  0  0
  149.9204  145.8726  159.6206 H   0  0  0  0  0  0  0  0  0  0  0  0
  149.9951  143.2628  160.9470 H   0  0  0  0  0  0  0  0  0  0  0  0
  149.4914  143.5569  159.2838 H   0  0  0  0  0  0  0  0  0  0  0  0
  151.8195  142.1753  159.7200 H   0  0  0  0  0  0  0  0  0  0  0  0
  149.0019  140.8154  154.2350 H   0  0  0  0  0  0  0  0  0  0  0  0
  149.4572  142.7808  155.3257 H   0  0  0  0  0  0  0  0  0  0  0  0
  1  2  1  0  0  0  0
  2  3  1  0  0  0  0
  2  4  1  0  0  0  0
  2 19  1  0  0  0  0
  4  5  1  0  0  0  0
  5 18  1  0  0  0  0
  5  6  2  0  0  0  0
  6  7  1  0  0  0  0
  6 20  1  0  0  0  0
  7  8  2  0  0  0  0
  7 21  1  0  0  0  0
  8  9  1  0  0  0  0
  8 17  1  0  0  0  0
  9 10  1  0  0  0  0
  9 22  1  0  0  0  0
 10 15  1  0  0  0  0
 10 11  1  0  0  0  0
 10 23  1  0  0  0  0
 11 12  1  0  0  0  0
 11 24  1  0  0  0  0
 11 25  1  0  0  0  0
 12 16  1  0  0  0  0
 12 13  1  0  0  0  0
 12 26  1  0  0  0  0
 13 14  1  0  0  0  0
 13 27  1  0  0  0  0
 13 28  1  0  0  0  0
 14 15  1  0  0  0  0
 14 29  1  0  0  0  0
 14 30  1  0  0  0  0
 15 16  1  0  0  0  0
 15 31  1  0  0  0  0
 17 18  2  0  0  0  0
 17 33  1  0  0  0  0
 18 32  1  0  0  0  0
M  CHG  1  17   1
M  END
> <s_m_source_file>
AV-unprocessed.smi

> <i_m_source_file_index>
2837

> <i_lp_mmshare_version>
43012

> <i_f3d_flags>
0

> <s_epik_input>
RltDSF0oRilPYzFbY0hdW2NIXWMobltjSF0xKVtOSF1bQ0BIXShbQ0gyXVtDQEBIXTIzKVtDQEBIXShPMylbQ0gyXVtDSDJdMg==

> <s_epik_cmdline>
J2VwaWtfcHl0aG9uJywgJy1waCcsICc3LjAnLCAnLXRuJywgJzgnLCAnLW1hJywgJzIwMCcsICctbWV0YWxfYmluZGluZycsICctaW1hZScsICc8aW5maWxlLm1hZT4nLCAnLW9tYWUnLCAnPG91dGZpbGUubWFlPic=

> <r_lp_tautomer_probability>
0.999429

> <r_epik_Ionization_Penalty>
2.29716

> <r_epik_Ionization_Penalty_Charging>
2.29716

> <r_epik_Ionization_Penalty_Neutral>
1.42285e-06

> <r_epik_State_Penalty>
2.44762

> <r_epik_Charging_Adjusted_Penalty>
4.74478

> <i_epik_Tot_Q>
1

> <i_epik_Tot_abs_Q>
1

> <r_epik_Metal_State_Penalty>
6.53078

> <b_epik_Metal_Only>
0

> <s_lp_Force_Field>
OPLS_2005

> <r_lp_Energy>
46.8356

> <b_lp_Chiralities_Consistent>
1

> <s_lp_Variant>
AV-unprocessed.smi:2837-6

> <Gold.Version>
5.8.1

> <Gold.Id.Protein>
6NUR|6NUR_protein|mol2

> <Gold.PLP.Fitness>
43.5649

> <Gold.PLP.PLP>
-32.2266

> <Gold.PLP.part.hbond>
-2.0000

> <Gold.PLP.part.metal>
0.0000

> <Gold.PLP.part.buried>
-2.5381

> <Gold.PLP.part.nonpolar>
-26.8593

> <Gold.PLP.part.repulsive>
0.3702

> <Gold.PLP.ligand.clash>
0.0000

> <Gold.PLP.ligand.torsion>
0.2148

> <Gold.PLP.Chemscore.Hbond>
3.9186

> <Gold.PLP.Chemscore.CHOScore>
0.0000

> <Gold.PLP.Chemscore.Metal>
0.0000

> <Gold.Chemscore.Hbonds>
donor molecule, donor type, donor heavy atom, donor atom, acceptor molecule, acceptor atom, score
      L1  H     9    22       P1  8028  1.92
      L1  H    17    33       P1  8028  1.90

> <Gold.PLP.Chemscore.Internal.Correction>
0.0119

> <Gold.Rescore>
     Score         DG    S(hbond)    S(metal)    S(lipo)     H(rot)  DE(clash)    DE(int)     intcor
     17.89     -18.79       1.78        0.00      92.17       1.34       0.75       0.15       ----

> <Gold.Chemscore.Fitness>
17.8879

> <Gold.Chemscore.DG>
-18.7875

> <Gold.Chemscore.ZeroCoef>
-5.4800

> <Gold.Chemscore.Hbond>
1.7803

> <Gold.Chemscore.Metal>
0.0000

> <Gold.Chemscore.Lipo>
92.1665

> <Gold.Chemscore.Internal_Hbond>
0.0000

> <Gold.Chemscore.DEClash>
0.7475

> <Gold.Chemscore.DEInternal>
0.1521

> <Gold.Chemscore.Rot>
1.3368

> <Gold.Chemscore.Internal.Correction>
   9.000000E+99

> <Gold.Chemscore.Hbonds>
donor molecule, donor type, donor heavy atom, donor atom, acceptor molecule, acceptor atom, score
      L1  H     9    22       P1  8028  0.86
      L1  H    17    33       P1  8028  0.86

> <Gold.Chemscore.Hbond.Weighted>
-5.9463

> <Gold.Chemscore.Metal.Weighted>
-0.0000

> <Gold.Chemscore.Lipo.Weighted>
-10.7835

> <Gold.Chemscore.Internal_Hbond.Weighted>
0.0000

> <Gold.Chemscore.DEClash.Weighted>
0.7475

> <Gold.Chemscore.DEInternal.Weighted>
0.1521

> <Gold.Chemscore.Rot.Weighted>
3.4223

> <Gold.Chemscore.Internal.Correction.Weighted>
   9.000000E+99

> <Gold.Protein.RotatedTorsions>
[ 6907 6896 6895 6894 ] final  -86.74 input  -60.11 | X-H torsion
[ 7974 7965 7964 7962 ] final  139.39 input  175.53 | X-H torsion
[ 8008 7997 7996 7995 ] final  -55.75 input   59.86 | X-H torsion
[ 10167 10162 10161 10158 ] final   26.31 input  -65.29 | X-H torsion
[ 10718 10713 10712 10709 ] final   46.86 input   66.30 | X-H torsion
[ 10763 10752 10751 10750 ] final  112.89 input  -60.55 | X-H torsion
[ 11005 11000 10999 10996 ] final  -53.84 input  -57.11 | X-H torsion

> <Gold.Protein.ActiveResidues>
 VAL166  LYS551  ARG553  GLY616  TRP617  ASP618  TYR619  PRO620  LYS621  CYS622 
 ASP623  PHE694  ASN695  SER759  ASP760  ASP761  ALA762  ILE779  LEU786  VAL792 
 PHE793  MET794  SER795  GLU796  ALA797  LYS798  CYS799  TRP800  GLU811  SER814 

> <Gold.Protein.RotatedAtoms>
  150.6866  134.3003  159.4703 H   0  0  0  0  0  0  0  0  0  0  0  0  # atno 6907 bound_to 6896
  152.0900  134.9411  160.0581 H   0  0  0  0  0  0  0  0  0  0  0  0  # atno 6908 bound_to 6896
  152.0731  133.4081  159.4505 H   0  0  0  0  0  0  0  0  0  0  0  0  # atno 6909 bound_to 6896
  144.9283  139.5079  143.5630 H   0  0  0  0  0  0  0  0  0  0  0  0  # atno 7974 bound_to 7965
  154.4206  140.1145  156.5527 H   0  0  0  0  0  0  0  0  0  0  0  0  # atno 8008 bound_to 7997
  155.6393  140.3496  155.4690 H   0  0  0  0  0  0  0  0  0  0  0  0  # atno 8009 bound_to 7997
  155.9883  140.1174  157.0651 H   0  0  0  0  0  0  0  0  0  0  0  0  # atno 8010 bound_to 7997
  140.5034  144.0279  150.6342 H   0  0  0  0  0  0  0  0  0  0  0  0  # atno 10167 bound_to 10162
  157.4525  130.8147  149.7802 H   0  0  0  0  0  0  0  0  0  0  0  0  # atno 10718 bound_to 10713
  153.4845  135.3672  155.2459 H   0  0  0  0  0  0  0  0  0  0  0  0  # atno 10763 bound_to 10752
  154.8754  135.3962  154.3661 H   0  0  0  0  0  0  0  0  0  0  0  0  # atno 10764 bound_to 10752
  153.4270  135.7081  153.6321 H   0  0  0  0  0  0  0  0  0  0  0  0  # atno 10765 bound_to 10752
  141.0996  133.6620  156.4231 H   0  0  0  0  0  0  0  0  0  0  0  0  # atno 11005 bound_to 11000
  146.3236  139.8215  142.8926 LP  0  0  0  0  0  0  0  0  0  0  0  0  # atno 17320 bound_to 7965
  145.3183  141.0237  143.3515 LP  0  0  0  0  0  0  0  0  0  0  0  0  # atno 17321 bound_to 7965
  140.3581  143.2924  152.0414 LP  0  0  0  0  0  0  0  0  0  0  0  0  # atno 17342 bound_to 10162
  139.4877  144.6324  151.7044 LP  0  0  0  0  0  0  0  0  0  0  0  0  # atno 17343 bound_to 10162
  155.9993  130.3889  150.2669 LP  0  0  0  0  0  0  0  0  0  0  0  0  # atno 17370 bound_to 10713
  157.0842  131.0152  151.3145 LP  0  0  0  0  0  0  0  0  0  0  0  0  # atno 17371 bound_to 10713
  140.5055  134.6445  157.5265 LP  0  0  0  0  0  0  0  0  0  0  0  0  # atno 17394 bound_to 11000
  139.9843  134.7087  155.9802 LP  0  0  0  0  0  0  0  0  0  0  0  0  # atno 17395 bound_to 11000

$$$$
