AV-unprocessed.smi:109|AV-procd|sdf|1037|dock3
  -GOLD-   2262018 53D 1   1.00000     0.00000
 Structure written by MMmdl.
 58 61  0  0  0  0  0  0  0  0  1 V2000
  142.6921  132.6459  157.6848 O   0  0  0  0  0  0  0  0  0  0  0  0
  143.9040  133.1836  158.1686 C   0  0  0  0  0  0  0  0  0  0  0  0
  143.7531  134.6986  158.3878 C   0  0  0  0  0  0  0  0  0  0  0  0
  145.0964  135.4652  158.4655 C   0  0  2  0  0  0  0  0  0  0  0  0
  145.8983  135.1649  157.2770 N   0  0  0  0  0  0  0  0  0  0  0  0
  145.4485  135.4038  156.0246 C   0  0  0  0  0  0  0  0  0  0  0  0
  144.5807  136.4155  155.7605 N   0  0  0  0  0  0  0  0  0  0  0  0
  144.1539  136.6242  154.5113 C   0  0  0  0  0  0  0  0  0  0  0  0
  144.4638  135.9525  153.4000 N   0  0  0  0  0  0  0  0  0  0  0  0
  145.3336  134.9345  153.6623 C   0  0  0  0  0  0  0  0  0  0  0  0
  145.8690  134.5976  154.9357 C   0  0  0  0  0  0  0  0  0  0  0  0
  146.7233  133.5096  154.8124 N   0  0  0  0  0  0  0  0  0  0  0  0
  146.6931  133.2262  153.5371 C   0  0  0  0  0  0  0  0  0  0  0  0
  145.8708  134.0290  152.7749 N   0  0  0  0  0  0  0  0  0  0  0  0
  145.6060  133.9960  151.3020 C   0  0  1  0  0  0  0  0  0  0  0  0
  146.2894  132.9078  150.7424 O   0  0  0  0  0  0  0  0  0  0  0  0
  145.3932  131.9893  150.1143 C   0  0  1  0  0  0  0  0  0  0  0  0
  145.0994  130.8209  151.0811 C   0  0  0  0  0  0  0  0  0  0  0  0
  146.3064  130.1878  151.4477 O   0  0  0  0  0  0  0  0  0  0  0  0
  144.1924  132.8836  149.7777 C   0  0  1  0  0  0  0  0  0  0  0  0
  142.9842  132.2009  149.4970 O   0  0  0  0  0  0  0  0  0  0  0  0
  144.1100  133.8344  150.9608 C   0  0  1  0  0  0  0  0  0  0  0  0
  143.3279  133.3124  152.0244 O   0  0  0  0  0  0  0  0  0  0  0  0
  145.9242  135.1418  159.7429 C   0  0  0  0  0  0  0  0  0  0  0  0
  145.0902  135.2308  161.0462 C   0  0  0  0  0  0  0  0  0  0  0  0
  145.9299  134.9567  162.3049 C   0  0  0  0  0  0  0  0  0  0  0  0
  147.1378  135.8970  162.3906 C   0  0  0  0  0  0  0  0  0  0  0  0
  147.9914  135.7924  161.1218 C   0  0  0  0  0  0  0  0  0  0  0  0
  147.1542  136.0786  159.8657 C   0  0  0  0  0  0  0  0  0  0  0  0
  146.0345  134.9255  150.9244 H   0  0  0  0  0  0  0  0  0  0  0  0
  145.8323  131.6018  149.1938 H   0  0  0  0  0  0  0  0  0  0  0  0
  144.4482  133.4678  148.8920 H   0  0  0  0  0  0  0  0  0  0  0  0
  143.6937  134.8004  150.6733 H   0  0  0  0  0  0  0  0  0  0  0  0
  142.6889  132.7127  156.7420 H   0  0  0  0  0  0  0  0  0  0  0  0
  144.1632  132.6722  159.0958 H   0  0  0  0  0  0  0  0  0  0  0  0
  144.6951  132.9770  157.4474 H   0  0  0  0  0  0  0  0  0  0  0  0
  143.1579  135.0761  157.5584 H   0  0  0  0  0  0  0  0  0  0  0  0
  143.1722  134.8840  159.2926 H   0  0  0  0  0  0  0  0  0  0  0  0
  144.8664  136.5294  158.5119 H   0  0  0  0  0  0  0  0  0  0  0  0
  146.8422  134.8562  157.4611 H   0  0  0  0  0  0  0  0  0  0  0  0
  143.4658  137.4469  154.3843 H   0  0  0  0  0  0  0  0  0  0  0  0
  147.2772  132.4186  153.1208 H   0  0  0  0  0  0  0  0  0  0  0  0
  144.5634  131.1448  151.9722 H   0  0  0  0  0  0  0  0  0  0  0  0
  144.4828  130.0646  150.5960 H   0  0  0  0  0  0  0  0  0  0  0  0
  147.0203  130.6261  151.0100 H   0  0  0  0  0  0  0  0  0  0  0  0
  142.2794  132.8306  149.4851 H   0  0  0  0  0  0  0  0  0  0  0  0
  142.4227  133.3102  151.7527 H   0  0  0  0  0  0  0  0  0  0  0  0
  146.2917  134.1177  159.6555 H   0  0  0  0  0  0  0  0  0  0  0  0
  144.6311  136.2174  161.1220 H   0  0  0  0  0  0  0  0  0  0  0  0
  144.2755  134.5088  161.0366 H   0  0  0  0  0  0  0  0  0  0  0  0
  145.3103  135.0684  163.1951 H   0  0  0  0  0  0  0  0  0  0  0  0
  146.2732  133.9215  162.2962 H   0  0  0  0  0  0  0  0  0  0  0  0
  146.7966  136.9247  162.5214 H   0  0  0  0  0  0  0  0  0  0  0  0
  147.7394  135.6544  163.2671 H   0  0  0  0  0  0  0  0  0  0  0  0
  148.8266  136.4911  161.1778 H   0  0  0  0  0  0  0  0  0  0  0  0
  148.4262  134.7946  161.0524 H   0  0  0  0  0  0  0  0  0  0  0  0
  147.8047  135.9800  158.9965 H   0  0  0  0  0  0  0  0  0  0  0  0
  146.8223  137.1177  159.8805 H   0  0  0  0  0  0  0  0  0  0  0  0
  1  2  1  0  0  0  0
  1 34  1  0  0  0  0
  2  3  1  0  0  0  0
  2 35  1  0  0  0  0
  2 36  1  0  0  0  0
  3  4  1  0  0  0  0
  3 37  1  0  0  0  0
  3 38  1  0  0  0  0
  4  5  1  0  0  0  0
  4 24  1  0  0  0  0
  4 39  1  0  0  0  0
  5  6  1  0  0  0  0
  5 40  1  0  0  0  0
  6 11  1  0  0  0  0
  6  7  2  0  0  0  0
  7  8  1  0  0  0  0
  8  9  2  0  0  0  0
  8 41  1  0  0  0  0
  9 10  1  0  0  0  0
 10 14  1  0  0  0  0
 10 11  2  0  0  0  0
 11 12  1  0  0  0  0
 12 13  2  0  0  0  0
 13 14  1  0  0  0  0
 13 42  1  0  0  0  0
 14 15  1  0  0  0  0
 15 30  1  0  0  0  0
 15 22  1  0  0  0  0
 15 16  1  0  0  0  0
 16 17  1  0  0  0  0
 17 31  1  0  0  0  0
 17 18  1  0  0  0  0
 17 20  1  0  0  0  0
 18 19  1  0  0  0  0
 18 43  1  0  0  0  0
 18 44  1  0  0  0  0
 19 45  1  0  0  0  0
 20 32  1  0  0  0  0
 20 21  1  0  0  0  0
 20 22  1  0  0  0  0
 21 46  1  0  0  0  0
 22 33  1  0  0  0  0
 22 23  1  0  0  0  0
 23 47  1  0  0  0  0
 24 29  1  0  0  0  0
 24 25  1  0  0  0  0
 24 48  1  0  0  0  0
 25 26  1  0  0  0  0
 25 49  1  0  0  0  0
 25 50  1  0  0  0  0
 26 27  1  0  0  0  0
 26 51  1  0  0  0  0
 26 52  1  0  0  0  0
 27 28  1  0  0  0  0
 27 53  1  0  0  0  0
 27 54  1  0  0  0  0
 28 29  1  0  0  0  0
 28 55  1  0  0  0  0
 28 56  1  0  0  0  0
 29 57  1  0  0  0  0
 29 58  1  0  0  0  0
M  END
> <s_m_source_file>
AV-unprocessed.smi

> <i_m_source_file_index>
109

> <i_lp_mmshare_version>
43012

> <i_f3d_flags>
0

> <s_epik_input>
W0NIMl0xW0NIMl1bQ0gyXVtDSDJdW0NIMl1bQ0hdMVtDQEhdKFtDSDJdW0NIMl1bT0hdKVtOSF1jKG5bY0hdbjIpYyhjMjMpbltjSF1uM1tDQEBIXTRPW0NASF0oW0NIMl1bT0hdKVtDQEBIXShbT0hdKVtDQEhdNFtPSF0=

> <s_epik_cmdline>
J2VwaWtfcHl0aG9uJywgJy1waCcsICc3LjAnLCAnLXRuJywgJzgnLCAnLW1hJywgJzIwMCcsICctbWV0YWxfYmluZGluZycsICctaW1hZScsICc8aW5maWxlLm1hZT4nLCAnLW9tYWUnLCAnPG91dGZpbGUubWFlPic=

> <r_lp_tautomer_probability>
1

> <r_epik_Ionization_Penalty>
0.000793976

> <r_epik_Ionization_Penalty_Charging>
0

> <r_epik_Ionization_Penalty_Neutral>
0.000793976

> <r_epik_State_Penalty>
-0

> <r_epik_Charging_Adjusted_Penalty>
0

> <i_epik_Tot_Q>
0

> <i_epik_Tot_abs_Q>
0

> <r_epik_Metal_State_Penalty>
-0

> <b_epik_Metal_Only>
0

> <s_epik_Chemistry_Notes>
This compound contains an acetal/aminal-like group ( X-CH(R)-Y where X, Y are N, S, or O) that may be acid/base labile, releasing an aldehyde.

> <s_lp_Force_Field>
OPLS_2005

> <r_lp_Energy>
61.3844

> <b_lp_Chiralities_Consistent>
1

> <s_lp_Variant>
AV-unprocessed.smi:109-7

> <Gold.Version>
5.8.1

> <Gold.Id.Protein>
6NUR|6NUR_protein|mol2

> <Gold.PLP.Fitness>
47.0315

> <Gold.PLP.PLP>
-37.0187

> <Gold.PLP.part.hbond>
-6.1969

> <Gold.PLP.part.metal>
0.0000

> <Gold.PLP.part.buried>
-9.1995

> <Gold.PLP.part.nonpolar>
-22.5809

> <Gold.PLP.part.repulsive>
0.2895

> <Gold.PLP.ligand.clash>
0.0000

> <Gold.PLP.ligand.torsion>
0.4116

> <Gold.PLP.Chemscore.Hbond>
3.5600

> <Gold.PLP.Chemscore.CHOScore>
0.0000

> <Gold.PLP.Chemscore.Metal>
0.0000

> <Gold.Chemscore.Hbonds>
donor molecule, donor type, donor heavy atom, donor atom, acceptor molecule, acceptor atom, score
      L1  H     1    34       P1 10957  0.76
      L1  H    19    45       P1 10747  0.84
      L1  H    21    46       P1 10186  1.00
      P1  H 10785 10796       L1    21  0.57

> <Gold.PLP.Chemscore.Internal.Correction>
0.1560

> <Gold.Rescore>
     Score         DG    S(hbond)    S(metal)    S(lipo)     H(rot)  DE(clash)    DE(int)     intcor
     11.05     -12.13       3.52        0.00      75.98       5.47       0.02       1.05       ----

> <Gold.Chemscore.Fitness>
11.0510

> <Gold.Chemscore.DG>
-12.1255

> <Gold.Chemscore.ZeroCoef>
-5.4800

> <Gold.Chemscore.Hbond>
3.5177

> <Gold.Chemscore.Metal>
0.0000

> <Gold.Chemscore.Lipo>
75.9811

> <Gold.Chemscore.Internal_Hbond>
0.0000

> <Gold.Chemscore.DEClash>
0.0202

> <Gold.Chemscore.DEInternal>
1.0542

> <Gold.Chemscore.Rot>
5.4662

> <Gold.Chemscore.Internal.Correction>
   9.000000E+99

> <Gold.Chemscore.Hbonds>
donor molecule, donor type, donor heavy atom, donor atom, acceptor molecule, acceptor atom, score
      L1  H     1    34       P1 10957  0.71
      L1  H    19    45       P1 10747  0.81
      L1  H    21    46       P1 10186  0.93
      P1  H 10785 10796       L1    21  0.52

> <Gold.Chemscore.Hbond.Weighted>
-11.7492

> <Gold.Chemscore.Metal.Weighted>
-0.0000

> <Gold.Chemscore.Lipo.Weighted>
-8.8898

> <Gold.Chemscore.Internal_Hbond.Weighted>
0.0000

> <Gold.Chemscore.DEClash.Weighted>
0.0202

> <Gold.Chemscore.DEInternal.Weighted>
1.0542

> <Gold.Chemscore.Rot.Weighted>
13.9935

> <Gold.Chemscore.Internal.Correction.Weighted>
   9.000000E+99

> <Gold.Protein.RotatedTorsions>
[ 6907 6896 6895 6894 ] final  168.64 input  -60.11 | X-H torsion
[ 7974 7965 7964 7962 ] final   80.65 input  175.53 | X-H torsion
[ 8008 7997 7996 7995 ] final  -63.51 input   59.86 | X-H torsion
[ 10167 10162 10161 10158 ] final -173.76 input  -65.29 | X-H torsion
[ 10718 10713 10712 10709 ] final  144.62 input   66.30 | X-H torsion
[ 10763 10752 10751 10750 ] final -163.91 input  -60.55 | X-H torsion
[ 11005 11000 10999 10996 ] final  152.99 input  -57.11 | X-H torsion

> <Gold.Protein.ActiveResidues>
 VAL166  LYS551  ARG553  GLY616  TRP617  ASP618  TYR619  PRO620  LYS621  CYS622 
 ASP623  PHE694  ASN695  SER759  ASP760  ASP761  ALA762  ILE779  LEU786  VAL792 
 PHE793  MET794  SER795  GLU796  ALA797  LYS798  CYS799  TRP800  GLU811  SER814 

> <Gold.Protein.RotatedAtoms>
  151.8445  133.3429  159.3653 H   0  0  0  0  0  0  0  0  0  0  0  0  # atno 6907 bound_to 6896
  150.7225  134.5359  159.5733 H   0  0  0  0  0  0  0  0  0  0  0  0  # atno 6908 bound_to 6896
  152.2840  134.7797  160.0442 H   0  0  0  0  0  0  0  0  0  0  0  0  # atno 6909 bound_to 6896
  145.6484  139.2442  143.1990 H   0  0  0  0  0  0  0  0  0  0  0  0  # atno 7974 bound_to 7965
  154.4558  140.0973  156.6754 H   0  0  0  0  0  0  0  0  0  0  0  0  # atno 8008 bound_to 7997
  155.5142  140.3477  155.4376 H   0  0  0  0  0  0  0  0  0  0  0  0  # atno 8009 bound_to 7997
  156.0775  140.1365  156.9742 H   0  0  0  0  0  0  0  0  0  0  0  0  # atno 8010 bound_to 7997
  139.5670  144.1731  152.1328 H   0  0  0  0  0  0  0  0  0  0  0  0  # atno 10167 bound_to 10162
  157.3550  131.0956  151.0967 H   0  0  0  0  0  0  0  0  0  0  0  0  # atno 10718 bound_to 10713
  154.7078  135.3000  154.9244 H   0  0  0  0  0  0  0  0  0  0  0  0  # atno 10763 bound_to 10752
  154.0155  135.6689  153.4772 H   0  0  0  0  0  0  0  0  0  0  0  0  # atno 10764 bound_to 10752
  153.0731  135.5050  154.8258 H   0  0  0  0  0  0  0  0  0  0  0  0  # atno 10765 bound_to 10752
  140.1357  134.8772  157.2264 H   0  0  0  0  0  0  0  0  0  0  0  0  # atno 11005 bound_to 11000
  146.1224  140.7292  142.9451 LP  0  0  0  0  0  0  0  0  0  0  0  0  # atno 17320 bound_to 7965
  144.7131  140.4113  143.7065 LP  0  0  0  0  0  0  0  0  0  0  0  0  # atno 17321 bound_to 7965
  140.1256  144.5334  150.6835 LP  0  0  0  0  0  0  0  0  0  0  0  0  # atno 17342 bound_to 10162
  140.6954  143.2401  151.5015 LP  0  0  0  0  0  0  0  0  0  0  0  0  # atno 17343 bound_to 10162
  157.2128  130.6446  149.5781 LP  0  0  0  0  0  0  0  0  0  0  0  0  # atno 17370 bound_to 10713
  155.9727  130.4654  150.6253 LP  0  0  0  0  0  0  0  0  0  0  0  0  # atno 17371 bound_to 10713
  140.2785  134.3377  155.7350 LP  0  0  0  0  0  0  0  0  0  0  0  0  # atno 17394 bound_to 11000
  141.2178  133.7464  156.9329 LP  0  0  0  0  0  0  0  0  0  0  0  0  # atno 17395 bound_to 11000

$$$$
