AV-unprocessed.smi:3330|AV-procd|sdf|12810|dock9
  -GOLD-   2272019173D 1   1.00000     0.00000
 Structure written by MMmdl.
 38 39  0  0  0  0  0  0  0  0  3 V2000
  145.1950  137.6818  151.9900 C   0  0  0  0  0  0  0  0  0  0  0  0
  145.4982  136.2059  151.6723 C   0  0  1  0  0  0  0  0  0  0  0  0
  146.4905  135.7060  152.6503 N   0  3  0  0  0  0  0  0  0  0  0  0
  146.3243  136.2165  154.0255 C   0  0  0  0  0  0  0  0  0  0  0  0
  147.1165  135.3592  155.0230 C   0  0  0  0  0  0  0  0  0  0  0  0
  148.4829  135.8621  155.1841 N   0  0  0  0  0  0  0  0  0  0  0  0
  148.8019  137.1531  155.3154 C   0  0  0  0  0  0  0  0  0  0  0  0
  148.0414  138.1211  155.3301 O   0  0  0  0  0  0  0  0  0  0  0  0
  150.3056  137.2399  155.4341 C   0  0  0  0  0  0  0  0  0  0  0  0
  150.7035  135.8541  155.3286 N   0  5  0  0  0  0  0  0  0  0  0  0
  149.5914  135.0979  155.1811 C   0  0  0  0  0  0  0  0  0  0  0  0
  149.5431  133.8752  155.0498 O   0  0  0  0  0  0  0  0  0  0  0  0
  144.2269  135.3125  151.6783 C   0  0  2  0  0  0  0  0  0  0  0  0
  143.5017  135.3010  153.0374 C   0  0  0  0  0  0  0  0  0  0  0  0
  144.5138  133.9465  151.2585 N   0  0  0  0  0  0  0  0  0  0  0  0
  143.6210  132.9265  150.9993 C   0  0  0  0  0  0  0  0  0  0  0  0
  144.3485  131.8277  150.6418 C   0  0  0  0  0  0  0  0  0  0  0  0
  145.6966  132.2751  150.7172 C   0  0  0  0  0  0  0  0  0  0  0  0
  145.7928  133.5415  151.0872 N   0  0  0  0  0  0  0  0  0  0  0  0
  144.5474  138.1347  151.2392 H   0  0  0  0  0  0  0  0  0  0  0  0
  146.1116  138.2722  152.0165 H   0  0  0  0  0  0  0  0  0  0  0  0
  144.7052  137.7857  152.9588 H   0  0  0  0  0  0  0  0  0  0  0  0
  145.9397  136.1806  150.6743 H   0  0  0  0  0  0  0  0  0  0  0  0
  146.4188  134.6994  152.6872 H   0  0  0  0  0  0  0  0  0  0  0  0
  146.6607  137.2526  154.0739 H   0  0  0  0  0  0  0  0  0  0  0  0
  145.2643  136.2100  154.2836 H   0  0  0  0  0  0  0  0  0  0  0  0
  146.6069  135.3416  155.9879 H   0  0  0  0  0  0  0  0  0  0  0  0
  147.1446  134.3215  154.6858 H   0  0  0  0  0  0  0  0  0  0  0  0
  150.7056  137.8653  154.6354 H   0  0  0  0  0  0  0  0  0  0  0  0
  150.5779  137.6946  156.3871 H   0  0  0  0  0  0  0  0  0  0  0  0
  143.5316  135.7203  150.9427 H   0  0  0  0  0  0  0  0  0  0  0  0
  143.1265  136.2901  153.3000 H   0  0  0  0  0  0  0  0  0  0  0  0
  144.1608  134.9706  153.8411 H   0  0  0  0  0  0  0  0  0  0  0  0
  142.6430  134.6290  153.0163 H   0  0  0  0  0  0  0  0  0  0  0  0
  142.5536  133.0651  151.0888 H   0  0  0  0  0  0  0  0  0  0  0  0
  143.9749  130.8515  150.3699 H   0  0  0  0  0  0  0  0  0  0  0  0
  146.6017  131.7211  150.5160 H   0  0  0  0  0  0  0  0  0  0  0  0
  147.4141  135.9496  152.3223 H   0  0  0  0  0  0  0  0  0  0  0  0
  1  2  1  0  0  0  0
  1 20  1  0  0  0  0
  1 21  1  0  0  0  0
  1 22  1  0  0  0  0
  2  3  1  0  0  0  0
  2 13  1  0  0  0  0
  2 23  1  0  0  0  0
  3  4  1  0  0  0  0
  3 24  1  0  0  0  0
  3 38  1  0  0  0  0
  4  5  1  0  0  0  0
  4 25  1  0  0  0  0
  4 26  1  0  0  0  0
  5  6  1  0  0  0  0
  5 27  1  0  0  0  0
  5 28  1  0  0  0  0
  6 11  1  0  0  0  0
  6  7  1  0  0  0  0
  7  8  2  0  0  0  0
  7  9  1  0  0  0  0
  9 10  1  0  0  0  0
  9 29  1  0  0  0  0
  9 30  1  0  0  0  0
 10 11  1  0  0  0  0
 11 12  2  0  0  0  0
 13 14  1  0  0  0  0
 13 15  1  0  0  0  0
 13 31  1  0  0  0  0
 14 32  1  0  0  0  0
 14 33  1  0  0  0  0
 14 34  1  0  0  0  0
 15 19  1  0  0  0  0
 15 16  1  0  0  0  0
 16 17  2  0  0  0  0
 16 35  1  0  0  0  0
 17 18  1  0  0  0  0
 17 36  1  0  0  0  0
 18 19  2  0  0  0  0
 18 37  1  0  0  0  0
M  CHG  1   3   1
M  CHG  1  10  -1
M  END
> <s_m_source_file>
AV-unprocessed.smi

> <i_m_source_file_index>
3330

> <i_lp_mmshare_version>
43012

> <i_f3d_flags>
0

> <s_epik_input>
bjFbY0hdW2NIXVtjSF1uMVtDQEBIXShbQ0gzXSlbQ0BIXShbQ0gzXSlbTkhdW0NIMl1bQ0gyXU4yQyg9TylbQ0gyXVtOSF1DMj1P

> <s_epik_cmdline>
J2VwaWtfcHl0aG9uJywgJy1waCcsICc3LjAnLCAnLXRuJywgJzgnLCAnLW1hJywgJzIwMCcsICctbWV0YWxfYmluZGluZycsICctaW1hZScsICc8aW5maWxlLm1hZT4nLCAnLW9tYWUnLCAnPG91dGZpbGUubWFlPic=

> <r_lp_tautomer_probability>
1

> <r_epik_Ionization_Penalty>
5.18149

> <r_epik_Ionization_Penalty_Charging>
5.18148

> <r_epik_Ionization_Penalty_Neutral>
9.83265e-06

> <r_epik_State_Penalty>
5.18201

> <r_epik_Charging_Adjusted_Penalty>
10.3635

> <i_epik_Tot_Q>
0

> <i_epik_Tot_abs_Q>
2

> <r_epik_Metal_State_Penalty>
1.25422

> <b_epik_Metal_Only>
1

> <s_lp_Force_Field>
OPLS_2005

> <r_lp_Energy>
16.6991

> <b_lp_Chiralities_Consistent>
1

> <s_lp_Variant>
AV-unprocessed.smi:3330-10

> <Gold.Version>
5.8.1

> <Gold.Id.Protein>
6NUR|6NUR_protein|mol2

> <Gold.PLP.Fitness>
43.6720

> <Gold.PLP.PLP>
-27.1244

> <Gold.PLP.part.hbond>
-1.9923

> <Gold.PLP.part.metal>
0.0000

> <Gold.PLP.part.buried>
-3.1463

> <Gold.PLP.part.nonpolar>
-22.9885

> <Gold.PLP.part.repulsive>
0.4870

> <Gold.PLP.ligand.clash>
0.0000

> <Gold.PLP.ligand.torsion>
0.7868

> <Gold.PLP.Chemscore.Hbond>
3.9825

> <Gold.PLP.Chemscore.CHOScore>
2.0000

> <Gold.PLP.Chemscore.Metal>
0.0000

> <Gold.Chemscore.Hbonds>
donor molecule, donor type, donor heavy atom, donor atom, acceptor molecule, acceptor atom, score
      L1  H     3    38       P1  7948  2.00
      P1  H 10752 10765       L1    10  0.39
      L1  C    16    35       P1 10186  0.90
      L1  C    18    37       P1 10747  0.99

> <Gold.PLP.Chemscore.Internal.Correction>
0.1738

> <Gold.Rescore>
     Score         DG    S(hbond)    S(metal)    S(lipo)     H(rot)  DE(clash)    DE(int)     intcor
      8.37     -11.12       1.75        0.00      55.02       2.59       0.17       2.58       ----

> <Gold.Chemscore.Fitness>
8.3716

> <Gold.Chemscore.DG>
-11.1239

> <Gold.Chemscore.ZeroCoef>
-5.4800

> <Gold.Chemscore.Hbond>
1.7477

> <Gold.Chemscore.Metal>
0.0000

> <Gold.Chemscore.Lipo>
55.0216

> <Gold.Chemscore.Internal_Hbond>
0.0000

> <Gold.Chemscore.DEClash>
0.1686

> <Gold.Chemscore.DEInternal>
2.5837

> <Gold.Chemscore.Rot>
2.5903

> <Gold.Chemscore.Internal.Correction>
   9.000000E+99

> <Gold.Chemscore.Hbonds>
donor molecule, donor type, donor heavy atom, donor atom, acceptor molecule, acceptor atom, score
      L1  H     3    38       P1  7948  0.99
      P1  H 10752 10765       L1    10  0.17

> <Gold.Chemscore.Hbond.Weighted>
-5.8375

> <Gold.Chemscore.Metal.Weighted>
-0.0000

> <Gold.Chemscore.Lipo.Weighted>
-6.4375

> <Gold.Chemscore.Internal_Hbond.Weighted>
0.0000

> <Gold.Chemscore.DEClash.Weighted>
0.1686

> <Gold.Chemscore.DEInternal.Weighted>
2.5837

> <Gold.Chemscore.Rot.Weighted>
6.6311

> <Gold.Chemscore.Internal.Correction.Weighted>
   9.000000E+99

> <Gold.Protein.RotatedTorsions>
[ 6907 6896 6895 6894 ] final  -94.56 input  -60.11 | X-H torsion
[ 7974 7965 7964 7962 ] final  155.79 input  175.53 | X-H torsion
[ 8008 7997 7996 7995 ] final  -75.66 input   59.86 | X-H torsion
[ 10167 10162 10161 10158 ] final  -99.95 input  -65.29 | X-H torsion
[ 10718 10713 10712 10709 ] final   94.99 input   66.30 | X-H torsion
[ 10763 10752 10751 10750 ] final -177.67 input  -60.55 | X-H torsion
[ 11005 11000 10999 10996 ] final   22.07 input  -57.11 | X-H torsion

> <Gold.Protein.ActiveResidues>
 VAL166  LYS551  ARG553  GLY616  TRP617  ASP618  TYR619  PRO620  LYS621  CYS622 
 ASP623  PHE694  ASN695  SER759  ASP760  ASP761  ALA762  ILE779  LEU786  VAL792 
 PHE793  MET794  SER795  GLU796  ALA797  LYS798  CYS799  TRP800  GLU811  SER814 

> <Gold.Protein.RotatedAtoms>
  150.6944  134.1793  159.4242 H   0  0  0  0  0  0  0  0  0  0  0  0  # atno 6907 bound_to 6896
  151.9768  135.0047  160.0565 H   0  0  0  0  0  0  0  0  0  0  0  0  # atno 6908 bound_to 6896
  152.1792  133.4660  159.4986 H   0  0  0  0  0  0  0  0  0  0  0  0  # atno 6909 bound_to 6896
  144.8003  139.7116  143.6185 H   0  0  0  0  0  0  0  0  0  0  0  0  # atno 7974 bound_to 7965
  154.5436  140.0740  156.8551 H   0  0  0  0  0  0  0  0  0  0  0  0  # atno 8008 bound_to 7997
  155.3132  140.3391  155.4225 H   0  0  0  0  0  0  0  0  0  0  0  0  # atno 8009 bound_to 7997
  156.1897  140.1682  156.8102 H   0  0  0  0  0  0  0  0  0  0  0  0  # atno 8010 bound_to 7997
  140.2570  143.3433  152.0661 H   0  0  0  0  0  0  0  0  0  0  0  0  # atno 10167 bound_to 10162
  157.6943  131.0531  150.4270 H   0  0  0  0  0  0  0  0  0  0  0  0  # atno 10718 bound_to 10713
  154.5573  135.2817  155.0953 H   0  0  0  0  0  0  0  0  0  0  0  0  # atno 10763 bound_to 10752
  154.2375  135.6363  153.5199 H   0  0  0  0  0  0  0  0  0  0  0  0  # atno 10764 bound_to 10752
  153.0019  135.5552  154.6156 H   0  0  0  0  0  0  0  0  0  0  0  0  # atno 10765 bound_to 10752
  140.3846  134.1884  155.7663 H   0  0  0  0  0  0  0  0  0  0  0  0  # atno 11005 bound_to 11000
  146.2282  139.5764  142.9573 LP  0  0  0  0  0  0  0  0  0  0  0  0  # atno 17320 bound_to 7965
  145.5570  141.0408  143.2247 LP  0  0  0  0  0  0  0  0  0  0  0  0  # atno 17321 bound_to 7965
  139.5028  144.6743  151.6167 LP  0  0  0  0  0  0  0  0  0  0  0  0  # atno 17342 bound_to 10162
  140.5996  143.9634  150.6377 LP  0  0  0  0  0  0  0  0  0  0  0  0  # atno 17343 bound_to 10162
  156.4640  130.4038  149.6559 LP  0  0  0  0  0  0  0  0  0  0  0  0  # atno 17370 bound_to 10713
  156.3663  130.7507  151.2486 LP  0  0  0  0  0  0  0  0  0  0  0  0  # atno 17371 bound_to 10713
  141.1912  133.8201  157.0889 LP  0  0  0  0  0  0  0  0  0  0  0  0  # atno 17394 bound_to 11000
  140.0452  134.9834  157.1036 LP  0  0  0  0  0  0  0  0  0  0  0  0  # atno 17395 bound_to 11000

$$$$
