AV-unprocessed.smi:2424|AV-procd|sdf|9560|dock7
  -GOLD-   2272013193D 1   1.00000     0.00000
 Structure written by MMmdl.
 50 51  0  0  0  0  0  0  0  0  1 V2000
  147.4890  137.6345  158.1342 C   0  0  0  0  0  0  0  0  0  0  0  0
  146.7559  137.6824  156.7842 C   0  0  0  0  0  0  0  0  0  0  0  0
  147.5923  138.2143  155.5975 C   0  0  0  0  0  0  0  0  0  0  0  0
  148.8207  137.2886  155.3918 C   0  0  0  0  0  0  0  0  0  0  0  0
  150.0054  137.9253  154.6464 C   0  0  0  0  0  0  0  0  0  0  0  0
  146.7651  138.5653  154.3312 C   0  0  2  0  0  0  0  0  0  0  0  0
  146.8820  137.5961  153.2447 N   0  0  0  0  0  0  0  0  0  0  0  0
  145.9310  136.7264  152.8796 C   0  0  0  0  0  0  0  0  0  0  0  0
  144.8267  136.6675  153.4187 O   0  0  0  0  0  0  0  0  0  0  0  0
  146.3567  135.9535  151.8640 N   0  0  0  0  0  0  0  0  0  0  0  0
  145.6970  134.9003  151.2154 C   0  0  0  0  0  0  0  0  0  0  0  0
  144.5552  135.1840  150.5652 C   0  0  0  0  0  0  0  0  0  0  0  0
  143.8321  134.1987  149.8893 N   0  0  0  0  0  0  0  0  0  0  0  0
  144.1992  132.8990  149.8203 C   0  0  0  0  0  0  0  0  0  0  0  0
  143.5072  132.0881  149.2073 O   0  0  0  0  0  0  0  0  0  0  0  0
  145.4521  132.5578  150.5135 C   0  0  0  0  0  0  0  0  0  0  0  0
  145.9258  131.1160  150.4612 C   0  0  0  0  0  0  0  0  0  0  0  0
  146.1507  133.5136  151.1692 C   0  0  0  0  0  0  0  0  0  0  0  0
  147.6474  139.7967  154.1096 C   0  0  1  0  0  0  0  0  0  0  0  0
  147.0525  141.0566  153.4929 C   0  0  0  0  0  0  0  0  0  0  0  0
  147.9375  139.7338  155.6178 C   0  0  1  0  0  0  0  0  0  0  0  0
  147.0074  140.5340  156.3389 O   0  0  0  0  0  0  0  0  0  0  0  0
  147.3559  141.9081  156.3547 C   0  0  0  0  0  0  0  0  0  0  0  0
  142.9808  134.4879  149.4296 H   0  0  0  0  0  0  0  0  0  0  0  0
  146.8604  137.1661  158.8914 H   0  0  0  0  0  0  0  0  0  0  0  0
  147.7420  138.6291  158.4996 H   0  0  0  0  0  0  0  0  0  0  0  0
  148.4072  137.0525  158.0696 H   0  0  0  0  0  0  0  0  0  0  0  0
  146.4291  136.6644  156.5718 H   0  0  0  0  0  0  0  0  0  0  0  0
  145.8331  138.2491  156.8979 H   0  0  0  0  0  0  0  0  0  0  0  0
  149.1737  136.8920  156.3433 H   0  0  0  0  0  0  0  0  0  0  0  0
  148.5282  136.4056  154.8240 H   0  0  0  0  0  0  0  0  0  0  0  0
  150.7704  137.1766  154.4401 H   0  0  0  0  0  0  0  0  0  0  0  0
  150.4803  138.7111  155.2330 H   0  0  0  0  0  0  0  0  0  0  0  0
  149.7003  138.3530  153.6916 H   0  0  0  0  0  0  0  0  0  0  0  0
  145.7399  138.8543  154.5751 H   0  0  0  0  0  0  0  0  0  0  0  0
  147.7586  137.5801  152.7445 H   0  0  0  0  0  0  0  0  0  0  0  0
  147.2831  136.1495  151.5144 H   0  0  0  0  0  0  0  0  0  0  0  0
  144.1099  136.1671  150.5139 H   0  0  0  0  0  0  0  0  0  0  0  0
  146.8652  130.9845  150.9988 H   0  0  0  0  0  0  0  0  0  0  0  0
  146.0824  130.8037  149.4282 H   0  0  0  0  0  0  0  0  0  0  0  0
  145.1845  130.4550  150.9117 H   0  0  0  0  0  0  0  0  0  0  0  0
  147.0667  133.2141  151.6508 H   0  0  0  0  0  0  0  0  0  0  0  0
  148.5541  139.5154  153.5710 H   0  0  0  0  0  0  0  0  0  0  0  0
  146.1076  141.3282  153.9640 H   0  0  0  0  0  0  0  0  0  0  0  0
  146.8584  140.9169  152.4295 H   0  0  0  0  0  0  0  0  0  0  0  0
  147.7298  141.9043  153.5974 H   0  0  0  0  0  0  0  0  0  0  0  0
  148.9786  139.9735  155.8407 H   0  0  0  0  0  0  0  0  0  0  0  0
  146.6394  142.4605  156.9623 H   0  0  0  0  0  0  0  0  0  0  0  0
  147.3348  142.3264  155.3478 H   0  0  0  0  0  0  0  0  0  0  0  0
  148.3487  142.0681  156.7755 H   0  0  0  0  0  0  0  0  0  0  0  0
  1  2  1  0  0  0  0
  1 25  1  0  0  0  0
  1 26  1  0  0  0  0
  1 27  1  0  0  0  0
  2  3  1  0  0  0  0
  2 28  1  0  0  0  0
  2 29  1  0  0  0  0
  3 21  1  0  0  0  0
  3  4  1  0  0  0  0
  3  6  1  0  0  0  0
  4  5  1  0  0  0  0
  4 30  1  0  0  0  0
  4 31  1  0  0  0  0
  5 32  1  0  0  0  0
  5 33  1  0  0  0  0
  5 34  1  0  0  0  0
  6  7  1  0  0  0  0
  6 19  1  0  0  0  0
  6 35  1  0  0  0  0
  7  8  1  0  0  0  0
  7 36  1  0  0  0  0
  8  9  2  0  0  0  0
  8 10  1  0  0  0  0
 10 11  1  0  0  0  0
 10 37  1  0  0  0  0
 11 18  1  0  0  0  0
 11 12  2  0  0  0  0
 12 13  1  0  0  0  0
 12 38  1  0  0  0  0
 13 24  1  0  0  0  0
 13 14  1  0  0  0  0
 14 15  2  0  0  0  0
 14 16  1  0  0  0  0
 16 17  1  0  0  0  0
 16 18  2  0  0  0  0
 17 39  1  0  0  0  0
 17 40  1  0  0  0  0
 17 41  1  0  0  0  0
 18 42  1  0  0  0  0
 19 20  1  0  0  0  0
 19 21  1  0  0  0  0
 19 43  1  0  0  0  0
 20 44  1  0  0  0  0
 20 45  1  0  0  0  0
 20 46  1  0  0  0  0
 21 22  1  0  0  0  0
 21 47  1  0  0  0  0
 22 23  1  0  0  0  0
 23 48  1  0  0  0  0
 23 49  1  0  0  0  0
 23 50  1  0  0  0  0
M  END
> <s_m_source_file>
AV-unprocessed.smi

> <i_m_source_file_index>
2424

> <i_lp_mmshare_version>
43012

> <i_f3d_flags>
0

> <s_epik_input>
W0NIM11PW0NAQEhdMVtDQEhdKFtDSDNdKVtDQEBIXShDMShbQ0gyXVtDSDNdKVtDSDJdW0NIM10pW05IXUMoPU8pW05IXWMyW2NIXVtuSF1jKD1PKWMoW0NIM10pW2NIXTI=

> <s_epik_cmdline>
J2VwaWtfcHl0aG9uJywgJy1waCcsICc3LjAnLCAnLXRuJywgJzgnLCAnLW1hJywgJzIwMCcsICctbWV0YWxfYmluZGluZycsICctaW1hZScsICc8aW5maWxlLm1hZT4nLCAnLW9tYWUnLCAnPG91dGZpbGUubWFlPic=

> <r_lp_tautomer_probability>
1

> <r_epik_Ionization_Penalty>
4.7326e-05

> <r_epik_Ionization_Penalty_Charging>
2.70169e-05

> <r_epik_Ionization_Penalty_Neutral>
2.0309e-05

> <r_epik_State_Penalty>
-0

> <r_epik_Charging_Adjusted_Penalty>
2.70169e-05

> <i_epik_Tot_Q>
0

> <i_epik_Tot_abs_Q>
0

> <r_epik_Metal_State_Penalty>
0.0198736

> <b_epik_Metal_Only>
0

> <s_lp_Force_Field>
OPLS_2005

> <r_lp_Energy>
37.5965

> <b_lp_Chiralities_Consistent>
1

> <s_lp_Variant>
AV-unprocessed.smi:2424-2

> <Gold.Version>
5.8.1

> <Gold.Id.Protein>
6NUR|6NUR_protein|mol2

> <Gold.PLP.Fitness>
41.3197

> <Gold.PLP.PLP>
-29.5686

> <Gold.PLP.part.hbond>
-4.2450

> <Gold.PLP.part.metal>
0.0000

> <Gold.PLP.part.buried>
-5.9459

> <Gold.PLP.part.nonpolar>
-20.7665

> <Gold.PLP.part.repulsive>
0.5307

> <Gold.PLP.ligand.clash>
0.0000

> <Gold.PLP.ligand.torsion>
1.3900

> <Gold.PLP.Chemscore.Hbond>
3.6080

> <Gold.PLP.Chemscore.CHOScore>
1.0000

> <Gold.PLP.Chemscore.Metal>
0.0000

> <Gold.Chemscore.Hbonds>
donor molecule, donor type, donor heavy atom, donor atom, acceptor molecule, acceptor atom, score
      L1  H     7    36       P1  7948  0.78
      L1  H    10    37       P1  7948  0.98
      L1  H    13    24       P1 10186  0.88
      P1  H 10785 10796       L1    15  0.96
      L1  C    12    38       P1 10171  1.00

> <Gold.PLP.Chemscore.Internal.Correction>
0.7072

> <Gold.Rescore>
     Score         DG    S(hbond)    S(metal)    S(lipo)     H(rot)  DE(clash)    DE(int)     intcor
     19.08     -21.55       3.64        0.00      67.32       1.55       0.02       2.45       ----

> <Gold.Chemscore.Fitness>
19.0751

> <Gold.Chemscore.DG>
-21.5481

> <Gold.Chemscore.ZeroCoef>
-5.4800

> <Gold.Chemscore.Hbond>
3.6409

> <Gold.Chemscore.Metal>
0.0000

> <Gold.Chemscore.Lipo>
67.3152

> <Gold.Chemscore.Internal_Hbond>
0.0000

> <Gold.Chemscore.DEClash>
0.0189

> <Gold.Chemscore.DEInternal>
2.4541

> <Gold.Chemscore.Rot>
1.5502

> <Gold.Chemscore.Internal.Correction>
   9.000000E+99

> <Gold.Chemscore.Hbonds>
donor molecule, donor type, donor heavy atom, donor atom, acceptor molecule, acceptor atom, score
      L1  H     7    36       P1  7948  0.75
      L1  H    10    37       P1  7948  0.92
      L1  H    13    24       P1 10186  0.84
      P1  H 10785 10796       L1    15  0.86

> <Gold.Chemscore.Hbond.Weighted>
-12.1607

> <Gold.Chemscore.Metal.Weighted>
-0.0000

> <Gold.Chemscore.Lipo.Weighted>
-7.8759

> <Gold.Chemscore.Internal_Hbond.Weighted>
0.0000

> <Gold.Chemscore.DEClash.Weighted>
0.0189

> <Gold.Chemscore.DEInternal.Weighted>
2.4541

> <Gold.Chemscore.Rot.Weighted>
3.9685

> <Gold.Chemscore.Internal.Correction.Weighted>
   9.000000E+99

> <Gold.Protein.RotatedTorsions>
[ 6907 6896 6895 6894 ] final  113.84 input  -60.11 | X-H torsion
[ 7974 7965 7964 7962 ] final   70.90 input  175.53 | X-H torsion
[ 8008 7997 7996 7995 ] final    6.47 input   59.86 | X-H torsion
[ 10167 10162 10161 10158 ] final  -98.36 input  -65.29 | X-H torsion
[ 10718 10713 10712 10709 ] final -171.12 input   66.30 | X-H torsion
[ 10763 10752 10751 10750 ] final  -23.06 input  -60.55 | X-H torsion
[ 11005 11000 10999 10996 ] final  -83.12 input  -57.11 | X-H torsion

> <Gold.Protein.ActiveResidues>
 VAL166  LYS551  ARG553  GLY616  TRP617  ASP618  TYR619  PRO620  LYS621  CYS622 
 ASP623  PHE694  ASN695  SER759  ASP760  ASP761  ALA762  ILE779  LEU786  VAL792 
 PHE793  MET794  SER795  GLU796  ALA797  LYS798  CYS799  TRP800  GLU811  SER814 

> <Gold.Protein.RotatedAtoms>
  152.4837  133.8320  159.7107 H   0  0  0  0  0  0  0  0  0  0  0  0  # atno 6907 bound_to 6896
  150.8907  133.7237  159.2912 H   0  0  0  0  0  0  0  0  0  0  0  0  # atno 6908 bound_to 6896
  151.4711  135.1049  159.9804 H   0  0  0  0  0  0  0  0  0  0  0  0  # atno 6909 bound_to 6896
  145.7725  139.2849  143.1313 H   0  0  0  0  0  0  0  0  0  0  0  0  # atno 7974 bound_to 7965
  154.7415  140.2749  155.6369 H   0  0  0  0  0  0  0  0  0  0  0  0  # atno 8008 bound_to 7997
  156.2874  140.2696  156.2069 H   0  0  0  0  0  0  0  0  0  0  0  0  # atno 8009 bound_to 7997
  155.0253  140.0371  157.2443 H   0  0  0  0  0  0  0  0  0  0  0  0  # atno 8010 bound_to 7997
  140.2738  143.3326  152.0509 H   0  0  0  0  0  0  0  0  0  0  0  0  # atno 10167 bound_to 10162
  156.7362  130.9325  151.3107 H   0  0  0  0  0  0  0  0  0  0  0  0  # atno 10718 bound_to 10713
  153.6617  135.6976  153.5175 H   0  0  0  0  0  0  0  0  0  0  0  0  # atno 10763 bound_to 10752
  153.2626  135.4240  155.0908 H   0  0  0  0  0  0  0  0  0  0  0  0  # atno 10764 bound_to 10752
  154.8450  135.3558  154.6162 H   0  0  0  0  0  0  0  0  0  0  0  0  # atno 10765 bound_to 10752
  141.1659  133.7278  156.8672 H   0  0  0  0  0  0  0  0  0  0  0  0  # atno 11005 bound_to 11000
  146.0156  140.8396  142.9949 LP  0  0  0  0  0  0  0  0  0  0  0  0  # atno 17320 bound_to 7965
  144.6810  140.2553  143.7326 LP  0  0  0  0  0  0  0  0  0  0  0  0  # atno 17321 bound_to 7965
  139.4981  144.6638  151.6403 LP  0  0  0  0  0  0  0  0  0  0  0  0  # atno 17342 bound_to 10162
  140.5868  143.9850  150.6300 LP  0  0  0  0  0  0  0  0  0  0  0  0  # atno 17343 bound_to 10162
  157.6838  130.9165  150.0333 LP  0  0  0  0  0  0  0  0  0  0  0  0  # atno 17370 bound_to 10713
  156.1495  130.3642  149.9460 LP  0  0  0  0  0  0  0  0  0  0  0  0  # atno 17371 bound_to 10713
  140.1807  134.9035  157.2944 LP  0  0  0  0  0  0  0  0  0  0  0  0  # atno 17394 bound_to 11000
  140.2399  134.3808  155.7485 LP  0  0  0  0  0  0  0  0  0  0  0  0  # atno 17395 bound_to 11000

$$$$
