AV-unprocessed.smi:109|AV-procd|sdf|1052|dock8
  -GOLD-   2262018113D 1   1.00000     0.00000
 Structure written by MMmdl.
 58 61  0  0  0  0  0  0  0  0  1 V2000
  148.2966  141.9330  155.1138 O   0  0  0  0  0  0  0  0  0  0  0  0
  149.0738  141.2178  156.0496 C   0  0  0  0  0  0  0  0  0  0  0  0
  150.3310  142.0247  156.4113 C   0  0  0  0  0  0  0  0  0  0  0  0
  150.9719  141.5736  157.7426 C   0  0  1  0  0  0  0  0  0  0  0  0
  151.8415  140.4205  157.5091 N   0  0  0  0  0  0  0  0  0  0  0  0
  151.7549  139.3005  158.2609 C   0  0  0  0  0  0  0  0  0  0  0  0
  152.8591  138.7264  158.8059 N   0  0  0  0  0  0  0  0  0  0  0  0
  152.7393  137.6268  159.5552 C   0  0  0  0  0  0  0  0  0  0  0  0
  151.6326  136.9557  159.8801 N   0  0  0  0  0  0  0  0  0  0  0  0
  150.5192  137.5250  159.3342 C   0  0  0  0  0  0  0  0  0  0  0  0
  150.5000  138.6891  158.5156 C   0  0  0  0  0  0  0  0  0  0  0  0
  149.1959  138.9769  158.1361 N   0  0  0  0  0  0  0  0  0  0  0  0
  148.4884  138.0359  158.7010 C   0  0  0  0  0  0  0  0  0  0  0  0
  149.2021  137.1209  159.4431 N   0  0  0  0  0  0  0  0  0  0  0  0
  148.6528  135.9529  160.2069 C   0  0  2  0  0  0  0  0  0  0  0  0
  147.7250  135.2743  159.4129 O   0  0  0  0  0  0  0  0  0  0  0  0
  146.4521  135.2401  160.0529 C   0  0  1  0  0  0  0  0  0  0  0  0
  145.6650  133.9836  159.6417 C   0  0  0  0  0  0  0  0  0  0  0  0
  146.3725  132.8176  160.0068 O   0  0  0  0  0  0  0  0  0  0  0  0
  146.7598  135.4147  161.5474 C   0  0  1  0  0  0  0  0  0  0  0  0
  147.1042  134.1826  162.1540 O   0  0  0  0  0  0  0  0  0  0  0  0
  147.9591  136.3490  161.5270 C   0  0  2  0  0  0  0  0  0  0  0  0
  147.5405  137.7015  161.5763 O   0  0  0  0  0  0  0  0  0  0  0  0
  151.7396  142.6968  158.4920 C   0  0  0  0  0  0  0  0  0  0  0  0
  152.3665  142.2106  159.8167 C   0  0  0  0  0  0  0  0  0  0  0  0
  153.2062  143.3153  160.4791 C   0  0  0  0  0  0  0  0  0  0  0  0
  152.3729  144.5859  160.7086 C   0  0  0  0  0  0  0  0  0  0  0  0
  151.7374  145.0777  159.3987 C   0  0  0  0  0  0  0  0  0  0  0  0
  150.8998  143.9718  158.7354 C   0  0  0  0  0  0  0  0  0  0  0  0
  149.5124  135.3011  160.3672 H   0  0  0  0  0  0  0  0  0  0  0  0
  145.9026  136.1198  159.7162 H   0  0  0  0  0  0  0  0  0  0  0  0
  145.9122  135.8329  162.0921 H   0  0  0  0  0  0  0  0  0  0  0  0
  148.6379  136.1780  162.3636 H   0  0  0  0  0  0  0  0  0  0  0  0
  148.5234  142.8485  155.1729 H   0  0  0  0  0  0  0  0  0  0  0  0
  148.4710  141.0261  156.9377 H   0  0  0  0  0  0  0  0  0  0  0  0
  149.3388  140.2514  155.6197 H   0  0  0  0  0  0  0  0  0  0  0  0
  151.0566  141.9497  155.6003 H   0  0  0  0  0  0  0  0  0  0  0  0
  150.0493  143.0753  156.4715 H   0  0  0  0  0  0  0  0  0  0  0  0
  150.1481  141.2592  158.3841 H   0  0  0  0  0  0  0  0  0  0  0  0
  152.5383  140.5398  156.7878 H   0  0  0  0  0  0  0  0  0  0  0  0
  153.6606  137.2289  159.9539 H   0  0  0  0  0  0  0  0  0  0  0  0
  147.4147  137.9846  158.5931 H   0  0  0  0  0  0  0  0  0  0  0  0
  144.7001  133.9703  160.1493 H   0  0  0  0  0  0  0  0  0  0  0  0
  145.4594  133.9698  158.5713 H   0  0  0  0  0  0  0  0  0  0  0  0
  145.7927  132.0759  159.9231 H   0  0  0  0  0  0  0  0  0  0  0  0
  146.4338  133.9644  162.7836 H   0  0  0  0  0  0  0  0  0  0  0  0
  146.9926  137.8171  162.3375 H   0  0  0  0  0  0  0  0  0  0  0  0
  152.5767  142.9862  157.8546 H   0  0  0  0  0  0  0  0  0  0  0  0
  151.5917  141.8930  160.5141 H   0  0  0  0  0  0  0  0  0  0  0  0
  152.9943  141.3381  159.6332 H   0  0  0  0  0  0  0  0  0  0  0  0
  153.6074  142.9579  161.4280 H   0  0  0  0  0  0  0  0  0  0  0  0
  154.0650  143.5496  159.8490 H   0  0  0  0  0  0  0  0  0  0  0  0
  151.5899  144.3815  161.4400 H   0  0  0  0  0  0  0  0  0  0  0  0
  152.9991  145.3697  161.1358 H   0  0  0  0  0  0  0  0  0  0  0  0
  151.1126  145.9499  159.5940 H   0  0  0  0  0  0  0  0  0  0  0  0
  152.5194  145.4056  158.7127 H   0  0  0  0  0  0  0  0  0  0  0  0
  150.4926  144.3432  157.7946 H   0  0  0  0  0  0  0  0  0  0  0  0
  150.0458  143.7448  159.3740 H   0  0  0  0  0  0  0  0  0  0  0  0
  1  2  1  0  0  0  0
  1 34  1  0  0  0  0
  2  3  1  0  0  0  0
  2 35  1  0  0  0  0
  2 36  1  0  0  0  0
  3  4  1  0  0  0  0
  3 37  1  0  0  0  0
  3 38  1  0  0  0  0
  4  5  1  0  0  0  0
  4 24  1  0  0  0  0
  4 39  1  0  0  0  0
  5  6  1  0  0  0  0
  5 40  1  0  0  0  0
  6 11  1  0  0  0  0
  6  7  2  0  0  0  0
  7  8  1  0  0  0  0
  8  9  2  0  0  0  0
  8 41  1  0  0  0  0
  9 10  1  0  0  0  0
 10 14  1  0  0  0  0
 10 11  2  0  0  0  0
 11 12  1  0  0  0  0
 12 13  2  0  0  0  0
 13 14  1  0  0  0  0
 13 42  1  0  0  0  0
 14 15  1  0  0  0  0
 15 30  1  0  0  0  0
 15 22  1  0  0  0  0
 15 16  1  0  0  0  0
 16 17  1  0  0  0  0
 17 31  1  0  0  0  0
 17 18  1  0  0  0  0
 17 20  1  0  0  0  0
 18 19  1  0  0  0  0
 18 43  1  0  0  0  0
 18 44  1  0  0  0  0
 19 45  1  0  0  0  0
 20 32  1  0  0  0  0
 20 21  1  0  0  0  0
 20 22  1  0  0  0  0
 21 46  1  0  0  0  0
 22 33  1  0  0  0  0
 22 23  1  0  0  0  0
 23 47  1  0  0  0  0
 24 29  1  0  0  0  0
 24 25  1  0  0  0  0
 24 48  1  0  0  0  0
 25 26  1  0  0  0  0
 25 49  1  0  0  0  0
 25 50  1  0  0  0  0
 26 27  1  0  0  0  0
 26 51  1  0  0  0  0
 26 52  1  0  0  0  0
 27 28  1  0  0  0  0
 27 53  1  0  0  0  0
 27 54  1  0  0  0  0
 28 29  1  0  0  0  0
 28 55  1  0  0  0  0
 28 56  1  0  0  0  0
 29 57  1  0  0  0  0
 29 58  1  0  0  0  0
M  END
> <s_m_source_file>
AV-unprocessed.smi

> <i_m_source_file_index>
109

> <i_lp_mmshare_version>
43012

> <i_f3d_flags>
0

> <s_epik_input>
W0NIMl0xW0NIMl1bQ0gyXVtDSDJdW0NIMl1bQ0hdMVtDQEhdKFtDSDJdW0NIMl1bT0hdKVtOSF1jKG5bY0hdbjIpYyhjMjMpbltjSF1uM1tDQEBIXTRPW0NASF0oW0NIMl1bT0hdKVtDQEBIXShbT0hdKVtDQEhdNFtPSF0=

> <s_epik_cmdline>
J2VwaWtfcHl0aG9uJywgJy1waCcsICc3LjAnLCAnLXRuJywgJzgnLCAnLW1hJywgJzIwMCcsICctbWV0YWxfYmluZGluZycsICctaW1hZScsICc8aW5maWxlLm1hZT4nLCAnLW9tYWUnLCAnPG91dGZpbGUubWFlPic=

> <r_lp_tautomer_probability>
1

> <r_epik_Ionization_Penalty>
0.000793976

> <r_epik_Ionization_Penalty_Charging>
0

> <r_epik_Ionization_Penalty_Neutral>
0.000793976

> <r_epik_State_Penalty>
-0

> <r_epik_Charging_Adjusted_Penalty>
0

> <i_epik_Tot_Q>
0

> <i_epik_Tot_abs_Q>
0

> <r_epik_Metal_State_Penalty>
-0

> <b_epik_Metal_Only>
0

> <s_epik_Chemistry_Notes>
This compound contains an acetal/aminal-like group ( X-CH(R)-Y where X, Y are N, S, or O) that may be acid/base labile, releasing an aldehyde.

> <s_lp_Force_Field>
OPLS_2005

> <r_lp_Energy>
55.7279

> <b_lp_Chiralities_Consistent>
1

> <s_lp_Variant>
AV-unprocessed.smi:109-22

> <Gold.Version>
5.8.1

> <Gold.Id.Protein>
6NUR|6NUR_protein|mol2

> <Gold.PLP.Fitness>
50.1592

> <Gold.PLP.PLP>
-43.1598

> <Gold.PLP.part.hbond>
-3.9236

> <Gold.PLP.part.metal>
0.0000

> <Gold.PLP.part.buried>
-6.3442

> <Gold.PLP.part.nonpolar>
-33.1513

> <Gold.PLP.part.repulsive>
0.0879

> <Gold.PLP.ligand.clash>
0.0000

> <Gold.PLP.ligand.torsion>
1.3783

> <Gold.PLP.Chemscore.Hbond>
3.1296

> <Gold.PLP.Chemscore.CHOScore>
0.0000

> <Gold.PLP.Chemscore.Metal>
0.0000

> <Gold.Chemscore.Hbonds>
donor molecule, donor type, donor heavy atom, donor atom, acceptor molecule, acceptor atom, score
      L1  H     1    34       P1  8028  1.00
      P1  H  6896  6907       L1     9  1.00
      P1  H  6931  6943       L1    23  0.47
      P1  H  6934  6947       L1    23  0.48

> <Gold.PLP.Chemscore.Internal.Correction>
0.3671

> <Gold.Rescore>
     Score         DG    S(hbond)    S(metal)    S(lipo)     H(rot)  DE(clash)    DE(int)     intcor
     11.58     -13.23       2.85        0.00     104.41       5.47       0.20       1.45       ----

> <Gold.Chemscore.Fitness>
11.5822

> <Gold.Chemscore.DG>
-13.2270

> <Gold.Chemscore.ZeroCoef>
-5.4800

> <Gold.Chemscore.Hbond>
2.8516

> <Gold.Chemscore.Metal>
0.0000

> <Gold.Chemscore.Lipo>
104.4106

> <Gold.Chemscore.Internal_Hbond>
0.0000

> <Gold.Chemscore.DEClash>
0.1984

> <Gold.Chemscore.DEInternal>
1.4464

> <Gold.Chemscore.Rot>
5.4662

> <Gold.Chemscore.Internal.Correction>
   9.000000E+99

> <Gold.Chemscore.Hbonds>
donor molecule, donor type, donor heavy atom, donor atom, acceptor molecule, acceptor atom, score
      L1  H     1    34       P1  8028  0.99
      P1  H  6896  6907       L1     9  0.92
      P1  H  6931  6943       L1    23  0.03
      P1  H  6934  6947       L1    23  0.06

> <Gold.Chemscore.Hbond.Weighted>
-9.5245

> <Gold.Chemscore.Metal.Weighted>
-0.0000

> <Gold.Chemscore.Lipo.Weighted>
-12.2160

> <Gold.Chemscore.Internal_Hbond.Weighted>
0.0000

> <Gold.Chemscore.DEClash.Weighted>
0.1984

> <Gold.Chemscore.DEInternal.Weighted>
1.4464

> <Gold.Chemscore.Rot.Weighted>
13.9935

> <Gold.Chemscore.Internal.Correction.Weighted>
   9.000000E+99

> <Gold.Protein.RotatedTorsions>
[ 6907 6896 6895 6894 ] final    5.57 input  -60.11 | X-H torsion
[ 7974 7965 7964 7962 ] final  117.63 input  175.53 | X-H torsion
[ 8008 7997 7996 7995 ] final   97.47 input   59.86 | X-H torsion
[ 10167 10162 10161 10158 ] final  -80.64 input  -65.29 | X-H torsion
[ 10718 10713 10712 10709 ] final  154.06 input   66.30 | X-H torsion
[ 10763 10752 10751 10750 ] final  -62.83 input  -60.55 | X-H torsion
[ 11005 11000 10999 10996 ] final -175.68 input  -57.11 | X-H torsion

> <Gold.Protein.ActiveResidues>
 VAL166  LYS551  ARG553  GLY616  TRP617  ASP618  TYR619  PRO620  LYS621  CYS622 
 ASP623  PHE694  ASN695  SER759  ASP760  ASP761  ALA762  ILE779  LEU786  VAL792 
 PHE793  MET794  SER795  GLU796  ALA797  LYS798  CYS799  TRP800  GLU811  SER814 

> <Gold.Protein.RotatedAtoms>
  151.6596  135.0991  160.0176 H   0  0  0  0  0  0  0  0  0  0  0  0  # atno 6907 bound_to 6896
  152.3954  133.6735  159.6280 H   0  0  0  0  0  0  0  0  0  0  0  0  # atno 6908 bound_to 6896
  150.7862  133.8800  159.3324 H   0  0  0  0  0  0  0  0  0  0  0  0  # atno 6909 bound_to 6896
  145.1651  139.3133  143.4497 H   0  0  0  0  0  0  0  0  0  0  0  0  # atno 7974 bound_to 7965
  156.0904  140.3258  155.7809 H   0  0  0  0  0  0  0  0  0  0  0  0  # atno 8008 bound_to 7997
  155.5005  140.0569  157.2957 H   0  0  0  0  0  0  0  0  0  0  0  0  # atno 8009 bound_to 7997
  154.4634  140.1978  156.0198 H   0  0  0  0  0  0  0  0  0  0  0  0  # atno 8010 bound_to 7997
  140.4485  143.2491  151.8524 H   0  0  0  0  0  0  0  0  0  0  0  0  # atno 10167 bound_to 10162
  157.2366  131.0750  151.1819 H   0  0  0  0  0  0  0  0  0  0  0  0  # atno 10718 bound_to 10713
  154.3059  135.6225  153.5444 H   0  0  0  0  0  0  0  0  0  0  0  0  # atno 10763 bound_to 10752
  152.9835  135.5689  154.5232 H   0  0  0  0  0  0  0  0  0  0  0  0  # atno 10764 bound_to 10752
  154.4872  135.2865  155.1501 H   0  0  0  0  0  0  0  0  0  0  0  0  # atno 10765 bound_to 10752
  140.4606  134.6258  157.4841 H   0  0  0  0  0  0  0  0  0  0  0  0  # atno 11005 bound_to 11000
  146.3477  140.1775  142.8589 LP  0  0  0  0  0  0  0  0  0  0  0  0  # atno 17320 bound_to 7965
  145.0291  140.8856  143.5120 LP  0  0  0  0  0  0  0  0  0  0  0  0  # atno 17321 bound_to 7965
  139.4794  144.5148  151.8883 LP  0  0  0  0  0  0  0  0  0  0  0  0  # atno 17342 bound_to 10162
  140.4236  144.2211  150.5887 LP  0  0  0  0  0  0  0  0  0  0  0  0  # atno 17343 bound_to 10162
  157.3422  130.7039  149.6389 LP  0  0  0  0  0  0  0  0  0  0  0  0  # atno 17370 bound_to 10713
  155.9672  130.4276  150.4753 LP  0  0  0  0  0  0  0  0  0  0  0  0  # atno 17371 bound_to 10713
  139.9948  134.6929  155.9628 LP  0  0  0  0  0  0  0  0  0  0  0  0  # atno 17394 bound_to 11000
  141.1623  133.6538  156.4360 LP  0  0  0  0  0  0  0  0  0  0  0  0  # atno 17395 bound_to 11000

$$$$
