AV-unprocessed.smi:1|AV-procd|sdf|2|dock2
  -GOLD-   2262015 83D 1   1.00000     0.00000
 Structure written by MMmdl.
 57 62  0  0  0  0  0  0  0  0  1 V2000
  152.9040  139.8949  158.0447 O   0  0  0  0  0  0  0  0  0  0  0  0
  152.0957  140.7589  157.7034 C   0  0  0  0  0  0  0  0  0  0  0  0
  151.1375  140.5429  156.6337 N   0  0  0  0  0  0  0  0  0  0  0  0
  150.9249  139.4146  155.9164 C   0  0  0  0  0  0  0  0  0  0  0  0
  150.9713  139.3937  154.5581 N   0  0  0  0  0  0  0  0  0  0  0  0
  150.7508  138.2549  153.8950 C   0  0  0  0  0  0  0  0  0  0  0  0
  150.4752  137.0449  154.3859 N   0  0  0  0  0  0  0  0  0  0  0  0
  150.4322  137.0561  155.7488 C   0  0  0  0  0  0  0  0  0  0  0  0
  150.6451  138.1912  156.5795 C   0  0  0  0  0  0  0  0  0  0  0  0
  150.5234  137.8263  157.9142 N   0  0  0  0  0  0  0  0  0  0  0  0
  150.2541  136.5488  157.8695 C   0  0  0  0  0  0  0  0  0  0  0  0
  150.1829  136.0050  156.6065 N   0  0  0  0  0  0  0  0  0  0  0  0
  149.8985  134.5884  156.2387 C   0  0  1  0  0  0  0  0  0  0  0  0
  150.3280  133.7503  157.2606 O   0  0  0  0  0  0  0  0  0  0  0  0
  149.5510  132.5534  157.2338 C   0  0  1  0  0  0  0  0  0  0  0  0
  149.1925  132.1517  158.6725 C   0  0  0  0  0  0  0  0  0  0  0  0
  148.4818  133.2043  159.3058 O   0  0  0  0  0  0  0  0  0  0  0  0
  147.7116  132.9574  160.3813 C   0  0  0  0  0  0  0  0  0  0  0  0
  147.3979  131.8247  160.7531 O   0  0  0  0  0  0  0  0  0  0  0  0
  147.2896  134.2030  161.0837 C   0  0  0  0  0  0  0  0  0  0  0  0
  146.2854  134.1338  162.0768 C   0  0  0  0  0  0  0  0  0  0  0  0
  145.8790  135.2921  162.7674 C   0  0  0  0  0  0  0  0  0  0  0  0
  146.4702  136.5342  162.4709 C   0  0  0  0  0  0  0  0  0  0  0  0
  147.4659  136.6174  161.4804 C   0  0  0  0  0  0  0  0  0  0  0  0
  147.8722  135.4603  160.7883 C   0  0  0  0  0  0  0  0  0  0  0  0
  148.3375  132.8305  156.3281 C   0  0  2  0  0  0  0  0  0  0  0  0
  148.4992  132.1730  155.0821 O   0  0  0  0  0  0  0  0  0  0  0  0
  148.0740  133.2305  153.8599 S   0  0  0  0  0  0  0  0  0  0  0  0
  149.2195  133.3615  152.9467 O   0  0  0  0  0  0  0  0  0  0  0  0
  146.7243  132.8789  153.3935 O   0  0  0  0  0  0  0  0  0  0  0  0
  147.9647  134.6283  154.7680 O   0  0  0  0  0  0  0  0  0  0  0  0
  148.4012  134.3421  156.0840 C   0  0  2  0  0  0  0  0  0  0  0  0
  152.1028  142.1305  158.3132 C   0  0  0  0  0  0  0  0  0  0  0  0
  151.4732  143.2042  157.6444 C   0  0  0  0  0  0  0  0  0  0  0  0
  151.4868  144.4978  158.2020 C   0  0  0  0  0  0  0  0  0  0  0  0
  152.1366  144.7301  159.4287 C   0  0  0  0  0  0  0  0  0  0  0  0
  152.7768  143.6686  160.0957 C   0  0  0  0  0  0  0  0  0  0  0  0
  152.7636  142.3745  159.5396 C   0  0  0  0  0  0  0  0  0  0  0  0
  150.5534  141.3324  156.3992 H   0  0  0  0  0  0  0  0  0  0  0  0
  150.8043  138.3231  152.8183 H   0  0  0  0  0  0  0  0  0  0  0  0
  150.1028  135.9626  158.7644 H   0  0  0  0  0  0  0  0  0  0  0  0
  150.4723  134.3960  155.3307 H   0  0  0  0  0  0  0  0  0  0  0  0
  150.1663  131.7665  156.7957 H   0  0  0  0  0  0  0  0  0  0  0  0
  148.5682  131.2576  158.6657 H   0  0  0  0  0  0  0  0  0  0  0  0
  150.1007  131.9132  159.2276 H   0  0  0  0  0  0  0  0  0  0  0  0
  145.8208  133.1903  162.3247 H   0  0  0  0  0  0  0  0  0  0  0  0
  145.1139  135.2269  163.5268 H   0  0  0  0  0  0  0  0  0  0  0  0
  146.1594  137.4218  163.0019 H   0  0  0  0  0  0  0  0  0  0  0  0
  147.9201  137.5699  161.2505 H   0  0  0  0  0  0  0  0  0  0  0  0
  148.6399  135.5591  160.0352 H   0  0  0  0  0  0  0  0  0  0  0  0
  147.3871  132.5239  156.7670 H   0  0  0  0  0  0  0  0  0  0  0  0
  147.8402  134.8924  156.8396 H   0  0  0  0  0  0  0  0  0  0  0  0
  150.9704  143.0422  156.7019 H   0  0  0  0  0  0  0  0  0  0  0  0
  150.9990  145.3122  157.6869 H   0  0  0  0  0  0  0  0  0  0  0  0
  152.1470  145.7221  159.8556 H   0  0  0  0  0  0  0  0  0  0  0  0
  153.2810  143.8478  161.0339 H   0  0  0  0  0  0  0  0  0  0  0  0
  153.2690  141.5762  160.0634 H   0  0  0  0  0  0  0  0  0  0  0  0
  1  2  2  0  0  0  0
  2  3  1  0  0  0  0
  2 33  1  0  0  0  0
  3  4  1  0  0  0  0
  3 39  1  0  0  0  0
  4  9  1  0  0  0  0
  4  5  2  0  0  0  0
  5  6  1  0  0  0  0
  6  7  2  0  0  0  0
  6 40  1  0  0  0  0
  7  8  1  0  0  0  0
  8 12  1  0  0  0  0
  8  9  2  0  0  0  0
  9 10  1  0  0  0  0
 10 11  2  0  0  0  0
 11 12  1  0  0  0  0
 11 41  1  0  0  0  0
 12 13  1  0  0  0  0
 13 32  1  0  0  0  0
 13 14  1  0  0  0  0
 13 42  1  0  0  0  0
 14 15  1  0  0  0  0
 15 16  1  0  0  0  0
 15 26  1  0  0  0  0
 15 43  1  0  0  0  0
 16 17  1  0  0  0  0
 16 44  1  0  0  0  0
 16 45  1  0  0  0  0
 17 18  1  0  0  0  0
 18 19  2  0  0  0  0
 18 20  1  0  0  0  0
 20 25  1  0  0  0  0
 20 21  2  0  0  0  0
 21 22  1  0  0  0  0
 21 46  1  0  0  0  0
 22 23  2  0  0  0  0
 22 47  1  0  0  0  0
 23 24  1  0  0  0  0
 23 48  1  0  0  0  0
 24 25  2  0  0  0  0
 24 49  1  0  0  0  0
 25 50  1  0  0  0  0
 26 32  1  0  0  0  0
 26 27  1  0  0  0  0
 26 51  1  0  0  0  0
 27 28  1  0  0  0  0
 28 29  2  0  0  0  0
 28 30  2  0  0  0  0
 28 31  1  0  0  0  0
 31 32  1  0  0  0  0
 32 52  1  0  0  0  0
 33 38  1  0  0  0  0
 33 34  2  0  0  0  0
 34 35  1  0  0  0  0
 34 53  1  0  0  0  0
 35 36  2  0  0  0  0
 35 54  1  0  0  0  0
 36 37  1  0  0  0  0
 36 55  1  0  0  0  0
 37 38  2  0  0  0  0
 37 56  1  0  0  0  0
 38 57  1  0  0  0  0
M  END
> <s_m_source_file>
AV-unprocessed.smi

> <i_m_source_file_index>
1

> <i_lp_mmshare_version>
43012

> <i_f3d_flags>
0

> <s_epik_input>
W2NIXTFbY0hdW2NIXVtjSF1bY0hdYzFDKD1PKVtOSF1jKG5bY0hdbjIpYyhjMjMpbltjSF1uM1tDQEBIXShbQ0BIXShbQ0BIXTQ1KU9TKE81KSg9Tyk9TylPW0NASF00W0NIMl1PQyg9TyljNltjSF1bY0hdW2NIXVtjSF1bY0hdNg==

> <s_epik_cmdline>
J2VwaWtfcHl0aG9uJywgJy1waCcsICc3LjAnLCAnLXRuJywgJzgnLCAnLW1hJywgJzIwMCcsICctbWV0YWxfYmluZGluZycsICctaW1hZScsICc8aW5maWxlLm1hZT4nLCAnLW9tYWUnLCAnPG91dGZpbGUubWFlPic=

> <r_lp_tautomer_probability>
1

> <r_epik_Ionization_Penalty>
0.00195722

> <r_epik_Ionization_Penalty_Charging>
0

> <r_epik_Ionization_Penalty_Neutral>
0.00195722

> <r_epik_State_Penalty>
0.00633741

> <r_epik_Charging_Adjusted_Penalty>
0.00633741

> <i_epik_Tot_Q>
0

> <i_epik_Tot_abs_Q>
0

> <r_epik_Metal_State_Penalty>
0.341185

> <b_epik_Metal_Only>
0

> <s_epik_Chemistry_Notes>
This compound has an ester and may undergo hydrolysis at high or low pH. This compound contains an acetal/aminal-like group ( X-CH(R)-Y where X, Y are N, S, or O) that may be acid/base labile, releasing an aldehyde.

> <s_lp_Force_Field>
OPLS_2005

> <r_lp_Energy>
43.8604

> <b_lp_Chiralities_Consistent>
1

> <s_lp_Variant>
AV-unprocessed.smi:1-2

> <Gold.Version>
5.8.1

> <Gold.Id.Protein>
6NUR|6NUR_protein|mol2

> <Gold.PLP.Fitness>
59.4505

> <Gold.PLP.PLP>
-51.4984

> <Gold.PLP.part.hbond>
-3.6861

> <Gold.PLP.part.metal>
0.0000

> <Gold.PLP.part.buried>
-6.0217

> <Gold.PLP.part.nonpolar>
-44.0328

> <Gold.PLP.part.repulsive>
2.1636

> <Gold.PLP.ligand.clash>
0.0000

> <Gold.PLP.ligand.torsion>
1.6779

> <Gold.PLP.Chemscore.Hbond>
2.8320

> <Gold.PLP.Chemscore.CHOScore>
0.8218

> <Gold.PLP.Chemscore.Metal>
0.0000

> <Gold.Chemscore.Hbonds>
donor molecule, donor type, donor heavy atom, donor atom, acceptor molecule, acceptor atom, score
      P1  H  6896  6908       L1    14  0.80
      P1  H  7989  7998       L1     5  1.00
      P1  H  7997  8008       L1     1  1.00
      L1  C     6    40       P1  7948  0.02
      L1  C     6    40       P1  7949  0.35
      L1  C     6    40       P1  7957  0.43

> <Gold.PLP.Chemscore.Internal.Correction>
0.3465

> <Gold.Rescore>
     Score         DG    S(hbond)    S(metal)    S(lipo)     H(rot)  DE(clash)    DE(int)     intcor
     20.40     -22.25       2.12        0.00     129.52       2.13       0.10       1.75       ----

> <Gold.Chemscore.Fitness>
20.4002

> <Gold.Chemscore.DG>
-22.2535

> <Gold.Chemscore.ZeroCoef>
-5.4800

> <Gold.Chemscore.Hbond>
2.1200

> <Gold.Chemscore.Metal>
0.0000

> <Gold.Chemscore.Lipo>
129.5228

> <Gold.Chemscore.Internal_Hbond>
0.0000

> <Gold.Chemscore.DEClash>
0.1021

> <Gold.Chemscore.DEInternal>
1.7512

> <Gold.Chemscore.Rot>
2.1333

> <Gold.Chemscore.Internal.Correction>
   9.000000E+99

> <Gold.Chemscore.Hbonds>
donor molecule, donor type, donor heavy atom, donor atom, acceptor molecule, acceptor atom, score
      P1  H  6896  6908       L1    14  0.22
      P1  H  7989  7998       L1     5  0.90
      P1  H  7997  8008       L1     1  0.59

> <Gold.Chemscore.Hbond.Weighted>
-7.0807

> <Gold.Chemscore.Metal.Weighted>
-0.0000

> <Gold.Chemscore.Lipo.Weighted>
-15.1542

> <Gold.Chemscore.Internal_Hbond.Weighted>
0.0000

> <Gold.Chemscore.DEClash.Weighted>
0.1021

> <Gold.Chemscore.DEInternal.Weighted>
1.7512

> <Gold.Chemscore.Rot.Weighted>
5.4614

> <Gold.Chemscore.Internal.Correction.Weighted>
   9.000000E+99

> <Gold.Protein.RotatedTorsions>
[ 6907 6896 6895 6894 ] final  125.63 input  -60.11 | X-H torsion
[ 7974 7965 7964 7962 ] final   75.67 input  175.53 | X-H torsion
[ 8008 7997 7996 7995 ] final  -73.74 input   59.86 | X-H torsion
[ 10167 10162 10161 10158 ] final  -31.42 input  -65.29 | X-H torsion
[ 10718 10713 10712 10709 ] final  118.14 input   66.30 | X-H torsion
[ 10763 10752 10751 10750 ] final   54.07 input  -60.55 | X-H torsion
[ 11005 11000 10999 10996 ] final   92.73 input  -57.11 | X-H torsion

> <Gold.Protein.ActiveResidues>
 VAL166  LYS551  ARG553  GLY616  TRP617  ASP618  TYR619  PRO620  LYS621  CYS622 
 ASP623  PHE694  ASN695  SER759  ASP760  ASP761  ALA762  ILE779  LEU786  VAL792 
 PHE793  MET794  SER795  GLU796  ALA797  LYS798  CYS799  TRP800  GLU811  SER814 

> <Gold.Protein.RotatedAtoms>
  152.3975  133.6768  159.6288 H   0  0  0  0  0  0  0  0  0  0  0  0  # atno 6907 bound_to 6896
  150.7871  133.8849  159.3305 H   0  0  0  0  0  0  0  0  0  0  0  0  # atno 6908 bound_to 6896
  151.6622  135.0989  160.0233 H   0  0  0  0  0  0  0  0  0  0  0  0  # atno 6909 bound_to 6896
  145.7127  139.2620  143.1641 H   0  0  0  0  0  0  0  0  0  0  0  0  # atno 7974 bound_to 7965
  154.5272  140.0774  156.8280 H   0  0  0  0  0  0  0  0  0  0  0  0  # atno 8008 bound_to 7997
  155.3451  140.3409  155.4221 H   0  0  0  0  0  0  0  0  0  0  0  0  # atno 8009 bound_to 7997
  156.1744  140.1630  156.8376 H   0  0  0  0  0  0  0  0  0  0  0  0  # atno 8010 bound_to 7997
  140.7236  143.3772  151.1667 H   0  0  0  0  0  0  0  0  0  0  0  0  # atno 10167 bound_to 10162
  157.6050  131.1045  150.7714 H   0  0  0  0  0  0  0  0  0  0  0  0  # atno 10718 bound_to 10713
  152.9801  135.5757  154.4844 H   0  0  0  0  0  0  0  0  0  0  0  0  # atno 10763 bound_to 10752
  154.4388  135.2775  155.1864 H   0  0  0  0  0  0  0  0  0  0  0  0  # atno 10764 bound_to 10752
  154.3540  135.6203  153.5711 H   0  0  0  0  0  0  0  0  0  0  0  0  # atno 10765 bound_to 10752
  139.8819  134.8749  156.3615 H   0  0  0  0  0  0  0  0  0  0  0  0  # atno 11005 bound_to 11000
  146.0698  140.7881  142.9694 LP  0  0  0  0  0  0  0  0  0  0  0  0  # atno 17320 bound_to 7965
  144.6937  140.3324  143.7213 LP  0  0  0  0  0  0  0  0  0  0  0  0  # atno 17321 bound_to 7965
  139.7354  143.9006  152.3033 LP  0  0  0  0  0  0  0  0  0  0  0  0  # atno 17342 bound_to 10162
  139.8810  144.7018  150.8878 LP  0  0  0  0  0  0  0  0  0  0  0  0  # atno 17343 bound_to 10162
  156.8104  130.4950  149.5356 LP  0  0  0  0  0  0  0  0  0  0  0  0  # atno 17370 bound_to 10713
  156.1134  130.6057  151.0082 LP  0  0  0  0  0  0  0  0  0  0  0  0  # atno 17371 bound_to 10713
  140.9526  133.7441  156.0292 LP  0  0  0  0  0  0  0  0  0  0  0  0  # atno 17394 bound_to 11000
  140.8087  134.3425  157.5418 LP  0  0  0  0  0  0  0  0  0  0  0  0  # atno 17395 bound_to 11000

$$$$
