AV-unprocessed.smi:1033|AV-procd|sdf|4507|dock7
  -GOLD-   22720 2513D 1   1.00000     0.00000
 Structure written by MMmdl.
 57 59  0  0  0  0  0  0  0  0  3 V2000
  153.4166  142.4086  161.2993 C   0  0  0  0  0  0  0  0  0  0  0  0
  152.6908  142.1541  159.9897 C   0  0  0  0  0  0  0  0  0  0  0  0
  152.6071  140.8325  159.4964 C   0  0  0  0  0  0  0  0  0  0  0  0
  151.9446  140.5538  158.2812 C   0  0  0  0  0  0  0  0  0  0  0  0
  151.7446  139.3536  157.6211 N   0  0  0  0  0  0  0  0  0  0  0  0
  151.0659  139.7470  156.5479 C   0  0  0  0  0  0  0  0  0  0  0  0
  150.7867  141.0608  156.4426 N   0  0  0  0  0  0  0  0  0  0  0  0
  150.0532  141.7181  155.3764 C   0  0  0  0  0  0  0  0  0  0  0  0
  148.6694  141.0838  155.1312 C   0  0  1  0  0  0  0  0  0  0  0  0
  147.6876  142.0074  155.5549 O   0  0  0  0  0  0  0  0  0  0  0  0
  148.4065  140.7196  153.6533 C   0  0  0  0  0  0  0  0  0  0  0  0
  147.4475  139.5941  153.5108 N   0  3  2  0  0  0  0  0  0  0  0  0
  147.8419  138.3801  154.2709 C   0  0  0  0  0  0  0  0  0  0  0  0
  146.7709  137.2812  154.1548 C   0  0  0  0  0  0  0  0  0  0  0  0
  146.4917  136.9501  152.7356 N   0  3  1  0  0  0  0  0  0  0  0  0
  145.5320  135.8243  152.5946 C   0  0  0  0  0  0  0  0  0  0  0  0
  145.5912  135.1685  151.2009 C   0  0  2  0  0  0  0  0  0  0  0  0
  144.3384  134.3356  150.9007 C   0  0  0  0  0  0  0  0  0  0  0  0
  146.7149  134.3137  151.1400 O   0  0  0  0  0  0  0  0  0  0  0  0
  146.0988  138.1642  151.9749 C   0  0  0  0  0  0  0  0  0  0  0  0
  147.1697  139.2635  152.0916 C   0  0  0  0  0  0  0  0  0  0  0  0
  151.3614  141.6418  157.5680 C   0  0  0  0  0  0  0  0  0  0  0  0
  151.4392  142.9613  158.0476 C   0  0  0  0  0  0  0  0  0  0  0  0
  152.1046  143.2221  159.2638 C   0  0  0  0  0  0  0  0  0  0  0  0
  152.1838  144.6502  159.7737 C   0  0  0  0  0  0  0  0  0  0  0  0
  153.8318  141.4880  161.7105 H   0  0  0  0  0  0  0  0  0  0  0  0
  152.7340  142.8276  162.0389 H   0  0  0  0  0  0  0  0  0  0  0  0
  154.2398  143.1079  161.1507 H   0  0  0  0  0  0  0  0  0  0  0  0
  153.0550  140.0189  160.0481 H   0  0  0  0  0  0  0  0  0  0  0  0
  150.7436  139.0369  155.8002 H   0  0  0  0  0  0  0  0  0  0  0  0
  149.9474  142.7724  155.6363 H   0  0  0  0  0  0  0  0  0  0  0  0
  150.6556  141.6790  154.4674 H   0  0  0  0  0  0  0  0  0  0  0  0
  148.5825  140.1977  155.7583 H   0  0  0  0  0  0  0  0  0  0  0  0
  148.1200  142.7779  155.8917 H   0  0  0  0  0  0  0  0  0  0  0  0
  148.0201  141.6045  153.1448 H   0  0  0  0  0  0  0  0  0  0  0  0
  149.3315  140.4560  153.1390 H   0  0  0  0  0  0  0  0  0  0  0  0
  148.7970  138.0090  153.8951 H   0  0  0  0  0  0  0  0  0  0  0  0
  147.9911  138.6198  155.3232 H   0  0  0  0  0  0  0  0  0  0  0  0
  147.1139  136.3892  154.6807 H   0  0  0  0  0  0  0  0  0  0  0  0
  145.8485  137.6025  154.6419 H   0  0  0  0  0  0  0  0  0  0  0  0
  145.7475  135.0607  153.3441 H   0  0  0  0  0  0  0  0  0  0  0  0
  144.5233  136.1816  152.8080 H   0  0  0  0  0  0  0  0  0  0  0  0
  145.6945  135.9238  150.4228 H   0  0  0  0  0  0  0  0  0  0  0  0
  143.4437  134.9589  150.9070 H   0  0  0  0  0  0  0  0  0  0  0  0
  144.1976  133.5448  151.6386 H   0  0  0  0  0  0  0  0  0  0  0  0
  144.4036  133.8661  149.9184 H   0  0  0  0  0  0  0  0  0  0  0  0
  147.4995  134.8376  151.2041 H   0  0  0  0  0  0  0  0  0  0  0  0
  145.9518  137.9244  150.9224 H   0  0  0  0  0  0  0  0  0  0  0  0
  145.1433  138.5355  152.3491 H   0  0  0  0  0  0  0  0  0  0  0  0
  146.8263  140.1557  151.5661 H   0  0  0  0  0  0  0  0  0  0  0  0
  148.0925  138.9429  151.6051 H   0  0  0  0  0  0  0  0  0  0  0  0
  150.9942  143.7673  157.4830 H   0  0  0  0  0  0  0  0  0  0  0  0
  151.6586  145.3398  159.1122 H   0  0  0  0  0  0  0  0  0  0  0  0
  153.2227  144.9747  159.8380 H   0  0  0  0  0  0  0  0  0  0  0  0
  151.7336  144.7287  160.7635 H   0  0  0  0  0  0  0  0  0  0  0  0
  147.3636  136.6218  152.3440 H   0  0  0  0  0  0  0  0  0  0  0  0
  146.5750  139.9207  153.9027 H   0  0  0  0  0  0  0  0  0  0  0  0
  1  2  1  0  0  0  0
  1 26  1  0  0  0  0
  1 27  1  0  0  0  0
  1 28  1  0  0  0  0
  2 24  1  0  0  0  0
  2  3  2  0  0  0  0
  3  4  1  0  0  0  0
  3 29  1  0  0  0  0
  4 22  2  0  0  0  0
  4  5  1  0  0  0  0
  5  6  2  0  0  0  0
  6  7  1  0  0  0  0
  6 30  1  0  0  0  0
  7  8  1  0  0  0  0
  7 22  1  0  0  0  0
  8  9  1  0  0  0  0
  8 31  1  0  0  0  0
  8 32  1  0  0  0  0
  9 10  1  0  0  0  0
  9 11  1  0  0  0  0
  9 33  1  0  0  0  0
 10 34  1  0  0  0  0
 11 12  1  0  0  0  0
 11 35  1  0  0  0  0
 11 36  1  0  0  0  0
 12 21  1  0  0  0  0
 12 13  1  0  0  0  0
 12 57  1  0  0  0  0
 13 14  1  0  0  0  0
 13 37  1  0  0  0  0
 13 38  1  0  0  0  0
 14 15  1  0  0  0  0
 14 39  1  0  0  0  0
 14 40  1  0  0  0  0
 15 16  1  0  0  0  0
 15 20  1  0  0  0  0
 15 56  1  0  0  0  0
 16 17  1  0  0  0  0
 16 41  1  0  0  0  0
 16 42  1  0  0  0  0
 17 18  1  0  0  0  0
 17 19  1  0  0  0  0
 17 43  1  0  0  0  0
 18 44  1  0  0  0  0
 18 45  1  0  0  0  0
 18 46  1  0  0  0  0
 19 47  1  0  0  0  0
 20 21  1  0  0  0  0
 20 48  1  0  0  0  0
 20 49  1  0  0  0  0
 21 50  1  0  0  0  0
 21 51  1  0  0  0  0
 22 23  1  0  0  0  0
 23 24  2  0  0  0  0
 23 52  1  0  0  0  0
 24 25  1  0  0  0  0
 25 53  1  0  0  0  0
 25 54  1  0  0  0  0
 25 55  1  0  0  0  0
M  CHG  1  12   1
M  CHG  1  15   1
M  END
> <s_m_source_file>
AV-unprocessed.smi

> <i_m_source_file_index>
1033

> <i_lp_mmshare_version>
43012

> <i_f3d_flags>
0

> <s_epik_input>
W0NIM11jKFtjSF0xKWMoW0NIM10pW2NIXWMoYzEyKW4oW2NIXW4yKVtDSDJdW0NASF0oW09IXSlbQ0gyXU4zW0NIMl1bQ0gyXU4oW0NIMl1bQ0gyXTMpW0NIMl1bQ0BIXShbQ0gzXSlbT0hd

> <s_epik_cmdline>
J2VwaWtfcHl0aG9uJywgJy1waCcsICc3LjAnLCAnLXRuJywgJzgnLCAnLW1hJywgJzIwMCcsICctbWV0YWxfYmluZGluZycsICctaW1hZScsICc8aW5maWxlLm1hZT4nLCAnLW9tYWUnLCAnPG91dGZpbGUubWFlPic=

> <r_epik_Ionization_Penalty>
3.16016

> <r_epik_Ionization_Penalty_Charging>
3.07679

> <r_epik_Ionization_Penalty_Neutral>
0.083365

> <r_epik_State_Penalty>
2.09701

> <r_epik_Charging_Adjusted_Penalty>
5.1738

> <i_epik_Tot_Q>
2

> <i_epik_Tot_abs_Q>
2

> <r_epik_Metal_State_Penalty>
2.02534

> <b_epik_Metal_Only>
0

> <s_lp_Force_Field>
OPLS_2005

> <r_lp_Energy>
25.863

> <b_lp_Chiralities_Consistent>
1

> <s_lp_Variant>
AV-unprocessed.smi:1033-18

> <Gold.Version>
5.8.1

> <Gold.Id.Protein>
6NUR|6NUR_protein|mol2

> <Gold.PLP.Fitness>
57.3948

> <Gold.PLP.PLP>
-47.9870

> <Gold.PLP.part.hbond>
-3.6389

> <Gold.PLP.part.metal>
0.0000

> <Gold.PLP.part.buried>
2.9479

> <Gold.PLP.part.nonpolar>
-46.1661

> <Gold.PLP.part.repulsive>
0.0449

> <Gold.PLP.ligand.clash>
0.0000

> <Gold.PLP.ligand.torsion>
1.3558

> <Gold.PLP.Chemscore.Hbond>
4.0000

> <Gold.PLP.Chemscore.CHOScore>
0.0000

> <Gold.PLP.Chemscore.Metal>
0.0000

> <Gold.Chemscore.Hbonds>
donor molecule, donor type, donor heavy atom, donor atom, acceptor molecule, acceptor atom, score
      L1  H    10    34       P1  8028  0.86
      L1  H    15    56       P1  7948  2.00
      L1  H    19    47       P1  7948  0.90

> <Gold.PLP.Chemscore.Internal.Correction>
0.1194

> <Gold.Rescore>
     Score         DG    S(hbond)    S(metal)    S(lipo)     H(rot)  DE(clash)    DE(int)     intcor
     18.65     -22.13       2.59        0.00     136.99       3.14       2.06       1.43       ----

> <Gold.Chemscore.Fitness>
18.6505

> <Gold.Chemscore.DG>
-22.1325

> <Gold.Chemscore.ZeroCoef>
-5.4800

> <Gold.Chemscore.Hbond>
2.5922

> <Gold.Chemscore.Metal>
0.0000

> <Gold.Chemscore.Lipo>
136.9893

> <Gold.Chemscore.Internal_Hbond>
0.0000

> <Gold.Chemscore.DEClash>
2.0566

> <Gold.Chemscore.DEInternal>
1.4255

> <Gold.Chemscore.Rot>
3.1380

> <Gold.Chemscore.Internal.Correction>
   9.000000E+99

> <Gold.Chemscore.Hbonds>
donor molecule, donor type, donor heavy atom, donor atom, acceptor molecule, acceptor atom, score
      L1  H    10    34       P1  8028  0.68
      L1  H    15    56       P1  7948  1.00
      L1  H    19    47       P1  7948  0.19

> <Gold.Chemscore.Hbond.Weighted>
-8.6580

> <Gold.Chemscore.Metal.Weighted>
-0.0000

> <Gold.Chemscore.Lipo.Weighted>
-16.0278

> <Gold.Chemscore.Internal_Hbond.Weighted>
0.0000

> <Gold.Chemscore.DEClash.Weighted>
2.0566

> <Gold.Chemscore.DEInternal.Weighted>
1.4255

> <Gold.Chemscore.Rot.Weighted>
8.0332

> <Gold.Chemscore.Internal.Correction.Weighted>
   9.000000E+99

> <Gold.Protein.RotatedTorsions>
[ 6907 6896 6895 6894 ] final   52.36 input  -60.11 | X-H torsion
[ 7974 7965 7964 7962 ] final -102.25 input  175.53 | X-H torsion
[ 8008 7997 7996 7995 ] final  120.38 input   59.86 | X-H torsion
[ 10167 10162 10161 10158 ] final   53.26 input  -65.29 | X-H torsion
[ 10718 10713 10712 10709 ] final -122.22 input   66.30 | X-H torsion
[ 10763 10752 10751 10750 ] final   26.55 input  -60.55 | X-H torsion
[ 11005 11000 10999 10996 ] final -177.41 input  -57.11 | X-H torsion

> <Gold.Protein.ActiveResidues>
 VAL166  LYS551  ARG553  GLY616  TRP617  ASP618  TYR619  PRO620  LYS621  CYS622 
 ASP623  PHE694  ASN695  SER759  ASP760  ASP761  ALA762  ILE779  LEU786  VAL792 
 PHE793  MET794  SER795  GLU796  ALA797  LYS798  CYS799  TRP800  GLU811  SER814 

> <Gold.Protein.RotatedAtoms>
  152.3224  134.7363  160.0310 H   0  0  0  0  0  0  0  0  0  0  0  0  # atno 6907 bound_to 6896
  151.7807  133.3344  159.3479 H   0  0  0  0  0  0  0  0  0  0  0  0  # atno 6908 bound_to 6896
  150.7377  134.5865  159.6010 H   0  0  0  0  0  0  0  0  0  0  0  0  # atno 6909 bound_to 6896
  145.2711  140.9299  143.2986 H   0  0  0  0  0  0  0  0  0  0  0  0  # atno 7974 bound_to 7965
  156.2640  140.2832  156.1140 H   0  0  0  0  0  0  0  0  0  0  0  0  # atno 8008 bound_to 7997
  155.1226  140.0392  157.2771 H   0  0  0  0  0  0  0  0  0  0  0  0  # atno 8009 bound_to 7997
  154.6659  140.2577  155.7065 H   0  0  0  0  0  0  0  0  0  0  0  0  # atno 8010 bound_to 7997
  140.2427  144.3566  150.6375 H   0  0  0  0  0  0  0  0  0  0  0  0  # atno 10167 bound_to 10162
  156.1401  130.6459  150.9757 H   0  0  0  0  0  0  0  0  0  0  0  0  # atno 10718 bound_to 10713
  153.0615  135.6558  154.0452 H   0  0  0  0  0  0  0  0  0  0  0  0  # atno 10763 bound_to 10752
  154.0118  135.2927  155.3393 H   0  0  0  0  0  0  0  0  0  0  0  0  # atno 10764 bound_to 10752
  154.6955  135.5265  153.8521 H   0  0  0  0  0  0  0  0  0  0  0  0  # atno 10765 bound_to 10752
  140.4412  134.6430  157.4758 H   0  0  0  0  0  0  0  0  0  0  0  0  # atno 11005 bound_to 11000
  144.9334  139.4272  143.6484 LP  0  0  0  0  0  0  0  0  0  0  0  0  # atno 17320 bound_to 7965
  146.3246  139.8257  142.8918 LP  0  0  0  0  0  0  0  0  0  0  0  0  # atno 17321 bound_to 7965
  140.6101  143.2169  151.6903 LP  0  0  0  0  0  0  0  0  0  0  0  0  # atno 17342 bound_to 10162
  139.5072  144.3655  152.0521 LP  0  0  0  0  0  0  0  0  0  0  0  0  # atno 17343 bound_to 10162
  157.6568  131.0888  150.7929 LP  0  0  0  0  0  0  0  0  0  0  0  0  # atno 17370 bound_to 10713
  156.8006  130.4920  149.5370 LP  0  0  0  0  0  0  0  0  0  0  0  0  # atno 17371 bound_to 10713
  140.0069  134.6751  155.9442 LP  0  0  0  0  0  0  0  0  0  0  0  0  # atno 17394 bound_to 11000
  141.1705  133.6537  156.4633 LP  0  0  0  0  0  0  0  0  0  0  0  0  # atno 17395 bound_to 11000

$$$$
