AV-unprocessed.smi:72|AV-procd|sdf|715|dock6
  -GOLD-   2262017 43D 1   1.00000     0.00000
 Structure written by MMmdl.
 28 29  0  0  0  0  0  0  0  0  2 V2000
  150.8500  134.6152  157.1529 N   0  0  0  0  0  0  0  0  0  0  0  0
  150.7019  135.7220  156.5681 C   0  0  0  0  0  0  0  0  0  0  0  0
  149.4684  136.4617  156.7134 N   0  0  0  0  0  0  0  0  0  0  0  0
  149.3399  137.5604  156.0352 C   0  0  0  0  0  0  0  0  0  0  0  0
  150.3716  138.0285  155.1133 N   0  0  0  0  0  0  0  0  0  0  0  0
  150.2208  139.3340  154.3395 C   0  0  2  0  0  0  0  0  0  0  0  0
  151.1456  140.2761  154.8149 O   0  0  0  0  0  0  0  0  0  0  0  0
  150.5192  141.2796  155.6136 C   0  0  2  0  0  0  0  0  0  0  0  0
  150.4599  140.8492  157.0978 C   0  0  0  0  0  0  0  0  0  0  0  0
  151.7674  140.7345  157.6177 O   0  0  0  0  0  0  0  0  0  0  0  0
  149.1600  141.4087  154.9192 C   0  0  2  0  0  0  0  0  0  0  0  0
  148.1595  141.9696  155.7465 O   0  0  0  0  0  0  0  0  0  0  0  0
  148.8243  139.9790  154.5171 C   0  0  1  0  0  0  0  0  0  0  0  0
  148.0930  139.9976  153.3073 O   0  0  0  0  0  0  0  0  0  0  0  0
  151.6177  137.3410  155.0905 C   0  0  0  0  0  0  0  0  0  0  0  0
  152.5394  137.8221  154.4321 O   0  0  0  0  0  0  0  0  0  0  0  0
  151.7488  136.1896  155.8067 N   0  5  0  0  0  0  0  0  0  0  0  0
  150.4643  139.0685  153.3094 H   0  0  0  0  0  0  0  0  0  0  0  0
  151.0686  142.2183  155.5317 H   0  0  0  0  0  0  0  0  0  0  0  0
  149.2822  142.0326  154.0319 H   0  0  0  0  0  0  0  0  0  0  0  0
  148.2699  139.4728  155.3092 H   0  0  0  0  0  0  0  0  0  0  0  0
  151.7555  134.2055  156.9750 H   0  0  0  0  0  0  0  0  0  0  0  0
  148.4547  138.1909  156.1162 H   0  0  0  0  0  0  0  0  0  0  0  0
  149.9595  141.6093  157.6970 H   0  0  0  0  0  0  0  0  0  0  0  0
  149.9043  139.9242  157.2441 H   0  0  0  0  0  0  0  0  0  0  0  0
  152.1872  139.9914  157.2118 H   0  0  0  0  0  0  0  0  0  0  0  0
  148.1871  142.9093  155.6472 H   0  0  0  0  0  0  0  0  0  0  0  0
  148.7098  139.9621  152.5911 H   0  0  0  0  0  0  0  0  0  0  0  0
  1  2  2  0  0  0  0
  1 22  1  0  0  0  0
  2 17  1  0  0  0  0
  2  3  1  0  0  0  0
  3  4  2  0  0  0  0
  4  5  1  0  0  0  0
  4 23  1  0  0  0  0
  5  6  1  0  0  0  0
  5 15  1  0  0  0  0
  6 18  1  0  0  0  0
  6 13  1  0  0  0  0
  6  7  1  0  0  0  0
  7  8  1  0  0  0  0
  8 19  1  0  0  0  0
  8  9  1  0  0  0  0
  8 11  1  0  0  0  0
  9 10  1  0  0  0  0
  9 24  1  0  0  0  0
  9 25  1  0  0  0  0
 10 26  1  0  0  0  0
 11 20  1  0  0  0  0
 11 12  1  0  0  0  0
 11 13  1  0  0  0  0
 12 27  1  0  0  0  0
 13 21  1  0  0  0  0
 13 14  1  0  0  0  0
 14 28  1  0  0  0  0
 15 16  2  0  0  0  0
 15 17  1  0  0  0  0
M  CHG  1  17  -1
M  END
> <s_m_source_file>
AV-unprocessed.smi

> <i_m_source_file_index>
72

> <i_lp_mmshare_version>
43012

> <i_f3d_flags>
0

> <s_epik_input>
W05IMl1jMW5bY0hdbihjKD1PKW4xKVtDQEBIXTJPW0NASF0oW0NIMl1bT0hdKVtDQEBIXShbT0hdKVtDQEhdMltPSF0=

> <s_epik_cmdline>
J2VwaWtfcHl0aG9uJywgJy1waCcsICc3LjAnLCAnLXRuJywgJzgnLCAnLW1hJywgJzIwMCcsICctbWV0YWxfYmluZGluZycsICctaW1hZScsICc8aW5maWxlLm1hZT4nLCAnLW9tYWUnLCAnPG91dGZpbGUubWFlPic=

> <r_lp_tautomer_probability>
7.17554e-07

> <r_epik_Ionization_Penalty>
12.8705

> <r_epik_Ionization_Penalty_Charging>
5.64144

> <r_epik_Ionization_Penalty_Neutral>
7.22905

> <r_epik_State_Penalty>
3.30104

> <r_epik_Charging_Adjusted_Penalty>
8.94249

> <i_epik_Tot_Q>
-1

> <i_epik_Tot_abs_Q>
1

> <r_epik_Metal_State_Penalty>
0.529074

> <b_epik_Metal_Only>
1

> <s_epik_Chemistry_Notes>
This compound contains an acetal/aminal-like group ( X-CH(R)-Y where X, Y are N, S, or O) that may be acid/base labile, releasing an aldehyde.

> <s_lp_Force_Field>
OPLS_2005

> <r_lp_Energy>
34.2271

> <b_lp_Chiralities_Consistent>
1

> <s_lp_Variant>
AV-unprocessed.smi:72-53

> <Gold.Version>
5.8.1

> <Gold.Id.Protein>
6NUR|6NUR_protein|mol2

> <Gold.PLP.Fitness>
40.2945

> <Gold.PLP.PLP>
-24.7282

> <Gold.PLP.part.hbond>
-5.8897

> <Gold.PLP.part.metal>
0.0000

> <Gold.PLP.part.buried>
-3.5311

> <Gold.PLP.part.nonpolar>
-15.3050

> <Gold.PLP.part.repulsive>
0.1817

> <Gold.PLP.ligand.clash>
0.0000

> <Gold.PLP.ligand.torsion>
0.0671

> <Gold.PLP.Chemscore.Hbond>
5.2016

> <Gold.PLP.Chemscore.CHOScore>
0.0000

> <Gold.PLP.Chemscore.Metal>
0.0000

> <Gold.Chemscore.Hbonds>
donor molecule, donor type, donor heavy atom, donor atom, acceptor molecule, acceptor atom, score
      L1  H    12    27       P1  8028  1.00
      L1  H    14    28       P1  7957  1.00
      P1  H  6896  6909       L1     1  0.17
      P1  H  7989  7998       L1     7  0.98
      P1  H 10752 10763       L1    17  2.00

> <Gold.PLP.Chemscore.Internal.Correction>
0.0960

> <Gold.Rescore>
     Score         DG    S(hbond)    S(metal)    S(lipo)     H(rot)  DE(clash)    DE(int)     intcor
      7.09      -8.59       3.14        0.00      25.32       4.04       0.12       1.39       ----

> <Gold.Chemscore.Fitness>
7.0869

> <Gold.Chemscore.DG>
-8.5877

> <Gold.Chemscore.ZeroCoef>
-5.4800

> <Gold.Chemscore.Hbond>
3.1403

> <Gold.Chemscore.Metal>
0.0000

> <Gold.Chemscore.Lipo>
25.3193

> <Gold.Chemscore.Internal_Hbond>
0.0000

> <Gold.Chemscore.DEClash>
0.1151

> <Gold.Chemscore.DEInternal>
1.3857

> <Gold.Chemscore.Rot>
4.0403

> <Gold.Chemscore.Internal.Correction>
   9.000000E+99

> <Gold.Chemscore.Hbonds>
donor molecule, donor type, donor heavy atom, donor atom, acceptor molecule, acceptor atom, score
      L1  H    12    27       P1  8028  0.92
      L1  H    14    28       P1  7957  1.00
      P1  H  6896  6909       L1     1  0.03
      P1  H  7989  7998       L1     7  0.20
      P1  H 10752 10763       L1    17  0.26

> <Gold.Chemscore.Hbond.Weighted>
-10.4885

> <Gold.Chemscore.Metal.Weighted>
-0.0000

> <Gold.Chemscore.Lipo.Weighted>
-2.9624

> <Gold.Chemscore.Internal_Hbond.Weighted>
0.0000

> <Gold.Chemscore.DEClash.Weighted>
0.1151

> <Gold.Chemscore.DEInternal.Weighted>
1.3857

> <Gold.Chemscore.Rot.Weighted>
10.3431

> <Gold.Chemscore.Internal.Correction.Weighted>
   9.000000E+99

> <Gold.Protein.RotatedTorsions>
[ 6907 6896 6895 6894 ] final   17.54 input  -60.11 | X-H torsion
[ 7974 7965 7964 7962 ] final  -68.84 input  175.53 | X-H torsion
[ 8008 7997 7996 7995 ] final -134.56 input   59.86 | X-H torsion
[ 10167 10162 10161 10158 ] final -178.88 input  -65.29 | X-H torsion
[ 10718 10713 10712 10709 ] final  115.03 input   66.30 | X-H torsion
[ 10763 10752 10751 10750 ] final   86.31 input  -60.55 | X-H torsion
[ 11005 11000 10999 10996 ] final  109.52 input  -57.11 | X-H torsion

> <Gold.Protein.ActiveResidues>
 VAL166  LYS551  ARG553  GLY616  TRP617  ASP618  TYR619  PRO620  LYS621  CYS622 
 ASP623  PHE694  ASN695  SER759  ASP760  ASP761  ALA762  ILE779  LEU786  VAL792 
 PHE793  MET794  SER795  GLU796  ALA797  LYS798  CYS799  TRP800  GLU811  SER814 

> <Gold.Protein.RotatedAtoms>
  151.8512  135.0557  160.0458 H   0  0  0  0  0  0  0  0  0  0  0  0  # atno 6907 bound_to 6896
  152.2735  133.5399  159.5462 H   0  0  0  0  0  0  0  0  0  0  0  0  # atno 6908 bound_to 6896
  150.7161  134.0581  159.3864 H   0  0  0  0  0  0  0  0  0  0  0  0  # atno 6909 bound_to 6896
  145.7114  140.9077  143.0678 H   0  0  0  0  0  0  0  0  0  0  0  0  # atno 7974 bound_to 7965
  155.3641  140.0484  157.3046 H   0  0  0  0  0  0  0  0  0  0  0  0  # atno 8008 bound_to 7997
  154.5163  140.2209  155.9023 H   0  0  0  0  0  0  0  0  0  0  0  0  # atno 8009 bound_to 7997
  156.1640  140.3110  155.8862 H   0  0  0  0  0  0  0  0  0  0  0  0  # atno 8010 bound_to 7997
  139.5412  144.2359  152.0898 H   0  0  0  0  0  0  0  0  0  0  0  0  # atno 10167 bound_to 10162
  157.6246  131.1007  150.7271 H   0  0  0  0  0  0  0  0  0  0  0  0  # atno 10718 bound_to 10713
  153.1558  135.4585  154.9703 H   0  0  0  0  0  0  0  0  0  0  0  0  # atno 10763 bound_to 10752
  154.7860  135.3204  154.7887 H   0  0  0  0  0  0  0  0  0  0  0  0  # atno 10764 bound_to 10752
  153.8384  135.6932  153.4860 H   0  0  0  0  0  0  0  0  0  0  0  0  # atno 10765 bound_to 10752
  139.8864  134.9460  156.6139 H   0  0  0  0  0  0  0  0  0  0  0  0  # atno 11005 bound_to 11000
  144.6941  139.9080  143.7462 LP  0  0  0  0  0  0  0  0  0  0  0  0  # atno 17320 bound_to 7965
  146.0709  139.3698  143.0524 LP  0  0  0  0  0  0  0  0  0  0  0  0  # atno 17321 bound_to 7965
  140.1838  144.4819  150.6514 LP  0  0  0  0  0  0  0  0  0  0  0  0  # atno 17342 bound_to 10162
  140.6642  143.2262  151.5783 LP  0  0  0  0  0  0  0  0  0  0  0  0  # atno 17343 bound_to 10162
  156.7622  130.4802  149.5435 LP  0  0  0  0  0  0  0  0  0  0  0  0  # atno 17370 bound_to 10713
  156.1411  130.6245  151.0468 LP  0  0  0  0  0  0  0  0  0  0  0  0  # atno 17371 bound_to 10713
  140.7791  133.8675  155.8553 LP  0  0  0  0  0  0  0  0  0  0  0  0  # atno 17394 bound_to 11000
  140.9776  134.1448  157.4522 LP  0  0  0  0  0  0  0  0  0  0  0  0  # atno 17395 bound_to 11000

$$$$
