AV-unprocessed.smi:1484|AV-procd|sdf|5995|dock8
  -GOLD-   22720 6 93D 1   1.00000     0.00000
 Structure written by MMmdl.
 37 38  0  0  0  0  0  0  0  0  2 V2000
  152.8309  142.8099  162.1772 C   0  0  0  0  0  0  0  0  0  0  0  0
  152.7697  143.3516  160.7418 C   0  0  2  0  0  0  0  0  0  0  0  0
  152.1295  144.7519  160.6947 C   0  0  0  0  0  0  0  0  0  0  0  0
  152.0715  145.2943  159.2584 C   0  0  0  0  0  0  0  0  0  0  0  0
  151.3251  144.3260  158.3281 C   0  0  0  0  0  0  0  0  0  0  0  0
  151.9535  142.9208  158.3594 C   0  0  2  0  0  0  0  0  0  0  0  0
  151.1783  142.0219  157.5099 N   0  0  0  0  0  0  0  0  0  0  0  0
  149.8869  141.7033  157.6877 C   0  0  0  0  0  0  0  0  0  0  0  0
  149.2047  142.1535  158.6099 O   0  0  0  0  0  0  0  0  0  0  0  0
  149.2951  140.7344  156.6512 C   0  0  0  0  0  0  0  0  0  0  0  0
  150.0179  139.4596  156.5330 N   0  0  0  0  0  0  0  0  0  0  0  0
  149.9053  138.6062  157.7130 N   0  5  0  0  0  0  0  0  0  0  0  0
  150.5482  137.4085  157.7283 C   0  0  0  0  0  0  0  0  0  0  0  0
  150.5135  136.6460  158.6913 O   0  0  0  0  0  0  0  0  0  0  0  0
  151.3025  137.0216  156.5477 C   0  0  0  0  0  0  0  0  0  0  0  0
  151.3704  137.8192  155.4637 C   0  0  0  0  0  0  0  0  0  0  0  0
  150.7019  139.1137  155.4050 C   0  0  0  0  0  0  0  0  0  0  0  0
  150.7519  139.8428  154.4142 O   0  0  0  0  0  0  0  0  0  0  0  0
  152.0205  142.3840  159.8048 C   0  0  0  0  0  0  0  0  0  0  0  0
  151.8326  142.6951  162.6010 H   0  0  0  0  0  0  0  0  0  0  0  0
  153.3935  143.4811  162.8265 H   0  0  0  0  0  0  0  0  0  0  0  0
  153.3199  141.8359  162.2084 H   0  0  0  0  0  0  0  0  0  0  0  0
  153.7956  143.4389  160.3812 H   0  0  0  0  0  0  0  0  0  0  0  0
  151.1208  144.7107  161.1085 H   0  0  0  0  0  0  0  0  0  0  0  0
  152.6929  145.4423  161.3233 H   0  0  0  0  0  0  0  0  0  0  0  0
  151.5833  146.2692  159.2487 H   0  0  0  0  0  0  0  0  0  0  0  0
  153.0844  145.4520  158.8856 H   0  0  0  0  0  0  0  0  0  0  0  0
  150.2784  144.2700  158.6312 H   0  0  0  0  0  0  0  0  0  0  0  0
  151.3318  144.7166  157.3098 H   0  0  0  0  0  0  0  0  0  0  0  0
  152.9681  142.9943  157.9628 H   0  0  0  0  0  0  0  0  0  0  0  0
  151.6600  141.6094  156.7246 H   0  0  0  0  0  0  0  0  0  0  0  0
  148.2512  140.5530  156.9142 H   0  0  0  0  0  0  0  0  0  0  0  0
  149.2680  141.2309  155.6796 H   0  0  0  0  0  0  0  0  0  0  0  0
  151.8181  136.0726  156.5391 H   0  0  0  0  0  0  0  0  0  0  0  0
  151.9419  137.4913  154.6083 H   0  0  0  0  0  0  0  0  0  0  0  0
  152.5134  141.4110  159.8159 H   0  0  0  0  0  0  0  0  0  0  0  0
  151.0098  142.2202  160.1821 H   0  0  0  0  0  0  0  0  0  0  0  0
  1  2  1  0  0  0  0
  1 20  1  0  0  0  0
  1 21  1  0  0  0  0
  1 22  1  0  0  0  0
  2 19  1  0  0  0  0
  2  3  1  0  0  0  0
  2 23  1  0  0  0  0
  3  4  1  0  0  0  0
  3 24  1  0  0  0  0
  3 25  1  0  0  0  0
  4  5  1  0  0  0  0
  4 26  1  0  0  0  0
  4 27  1  0  0  0  0
  5  6  1  0  0  0  0
  5 28  1  0  0  0  0
  5 29  1  0  0  0  0
  6  7  1  0  0  0  0
  6 19  1  0  0  0  0
  6 30  1  0  0  0  0
  7  8  1  0  0  0  0
  7 31  1  0  0  0  0
  8  9  2  0  0  0  0
  8 10  1  0  0  0  0
 10 32  1  0  0  0  0
 10 33  1  0  0  0  0
 10 11  1  0  0  0  0
 11 12  1  0  0  0  0
 11 17  1  0  0  0  0
 12 13  1  0  0  0  0
 13 14  2  0  0  0  0
 13 15  1  0  0  0  0
 15 34  1  0  0  0  0
 15 16  2  0  0  0  0
 16 35  1  0  0  0  0
 16 17  1  0  0  0  0
 17 18  2  0  0  0  0
 19 36  1  0  0  0  0
 19 37  1  0  0  0  0
M  CHG  1  12  -1
M  END
> <s_m_source_file>
AV-unprocessed.smi

> <i_m_source_file_index>
1484

> <i_lp_mmshare_version>
43012

> <i_f3d_flags>
0

> <s_epik_input>
W0NIM11bQ0BASF0xW0NIMl1bQ0gyXVtDSDJdW0NASF0oW0NIMl0xKVtOSF1DKD1PKVtDSDJdbjJbbkhdYyg9TylbY0hdW2NIXWMyPU8=

> <s_epik_cmdline>
J2VwaWtfcHl0aG9uJywgJy1waCcsICc3LjAnLCAnLXRuJywgJzgnLCAnLW1hJywgJzIwMCcsICctbWV0YWxfYmluZGluZycsICctaW1hZScsICc8aW5maWxlLm1hZT4nLCAnLW9tYWUnLCAnPG91dGZpbGUubWFlPic=

> <r_lp_tautomer_probability>
1

> <r_epik_Ionization_Penalty>
0.101352

> <r_epik_Ionization_Penalty_Charging>
0.101352

> <r_epik_Ionization_Penalty_Neutral>
1.90469e-08

> <r_epik_State_Penalty>
0.0358555

> <r_epik_Charging_Adjusted_Penalty>
0.137208

> <i_epik_Tot_Q>
-1

> <i_epik_Tot_abs_Q>
1

> <r_epik_Metal_State_Penalty>
0.0358555

> <b_epik_Metal_Only>
0

> <s_lp_Force_Field>
OPLS_2005

> <r_lp_Energy>
24.7991

> <b_lp_Chiralities_Consistent>
1

> <s_lp_Variant>
AV-unprocessed.smi:1484-3

> <Gold.Version>
5.8.1

> <Gold.Id.Protein>
6NUR|6NUR_protein|mol2

> <Gold.PLP.Fitness>
43.4188

> <Gold.PLP.PLP>
-37.5505

> <Gold.PLP.part.hbond>
-2.4560

> <Gold.PLP.part.metal>
0.0000

> <Gold.PLP.part.buried>
-7.0411

> <Gold.PLP.part.nonpolar>
-28.8126

> <Gold.PLP.part.repulsive>
0.2581

> <Gold.PLP.ligand.clash>
0.0000

> <Gold.PLP.ligand.torsion>
0.0685

> <Gold.PLP.Chemscore.Hbond>
2.0000

> <Gold.PLP.Chemscore.CHOScore>
0.0000

> <Gold.PLP.Chemscore.Metal>
0.0000

> <Gold.Chemscore.Hbonds>
donor molecule, donor type, donor heavy atom, donor atom, acceptor molecule, acceptor atom, score
      P1  H  6896  6909       L1    14  1.00
      P1  H  7989  7998       L1    18  1.00

> <Gold.PLP.Chemscore.Internal.Correction>
0.0054

> <Gold.Rescore>
     Score         DG    S(hbond)    S(metal)    S(lipo)     H(rot)  DE(clash)    DE(int)     intcor
     18.21     -19.22       1.99        0.00      96.93       1.65       0.00       1.01       ----

> <Gold.Chemscore.Fitness>
18.2071

> <Gold.Chemscore.DG>
-19.2237

> <Gold.Chemscore.ZeroCoef>
-5.4800

> <Gold.Chemscore.Hbond>
1.9877

> <Gold.Chemscore.Metal>
0.0000

> <Gold.Chemscore.Lipo>
96.9344

> <Gold.Chemscore.Internal_Hbond>
0.0000

> <Gold.Chemscore.DEClash>
0.0029

> <Gold.Chemscore.DEInternal>
1.0137

> <Gold.Chemscore.Rot>
1.6549

> <Gold.Chemscore.Internal.Correction>
   9.000000E+99

> <Gold.Chemscore.Hbonds>
donor molecule, donor type, donor heavy atom, donor atom, acceptor molecule, acceptor atom, score
      P1  H  6896  6909       L1    14  0.91
      P1  H  7989  7998       L1    18  0.99

> <Gold.Chemscore.Hbond.Weighted>
-6.6389

> <Gold.Chemscore.Metal.Weighted>
-0.0000

> <Gold.Chemscore.Lipo.Weighted>
-11.3413

> <Gold.Chemscore.Internal_Hbond.Weighted>
0.0000

> <Gold.Chemscore.DEClash.Weighted>
0.0029

> <Gold.Chemscore.DEInternal.Weighted>
1.0137

> <Gold.Chemscore.Rot.Weighted>
4.2364

> <Gold.Chemscore.Internal.Correction.Weighted>
   9.000000E+99

> <Gold.Protein.RotatedTorsions>
[ 6907 6896 6895 6894 ] final   86.44 input  -60.11 | X-H torsion
[ 7974 7965 7964 7962 ] final  -98.55 input  175.53 | X-H torsion
[ 8008 7997 7996 7995 ] final   36.60 input   59.86 | X-H torsion
[ 10167 10162 10161 10158 ] final    7.74 input  -65.29 | X-H torsion
[ 10718 10713 10712 10709 ] final  150.69 input   66.30 | X-H torsion
[ 10763 10752 10751 10750 ] final   17.55 input  -60.55 | X-H torsion
[ 11005 11000 10999 10996 ] final -145.78 input  -57.11 | X-H torsion

> <Gold.Protein.ActiveResidues>
 VAL166  LYS551  ARG553  GLY616  TRP617  ASP618  TYR619  PRO620  LYS621  CYS622 
 ASP623  PHE694  ASN695  SER759  ASP760  ASP761  ALA762  ILE779  LEU786  VAL792 
 PHE793  MET794  SER795  GLU796  ALA797  LYS798  CYS799  TRP800  GLU811  SER814 

> <Gold.Protein.RotatedAtoms>
  152.5394  134.2430  159.8869 H   0  0  0  0  0  0  0  0  0  0  0  0  # atno 6907 bound_to 6896
  151.2397  133.4399  159.2614 H   0  0  0  0  0  0  0  0  0  0  0  0  # atno 6908 bound_to 6896
  151.0638  134.9768  159.8330 H   0  0  0  0  0  0  0  0  0  0  0  0  # atno 6909 bound_to 6896
  145.3191  140.9417  143.2726 H   0  0  0  0  0  0  0  0  0  0  0  0  # atno 7974 bound_to 7965
  155.1900  140.3307  155.4360 H   0  0  0  0  0  0  0  0  0  0  0  0  # atno 8008 bound_to 7997
  156.2445  140.1912  156.6944 H   0  0  0  0  0  0  0  0  0  0  0  0  # atno 8009 bound_to 7997
  154.6212  140.0595  156.9603 H   0  0  0  0  0  0  0  0  0  0  0  0  # atno 8010 bound_to 7997
  140.6354  143.7898  150.7352 H   0  0  0  0  0  0  0  0  0  0  0  0  # atno 10167 bound_to 10162
  157.2803  131.0834  151.1536 H   0  0  0  0  0  0  0  0  0  0  0  0  # atno 10718 bound_to 10713
  153.1329  135.6744  153.9149 H   0  0  0  0  0  0  0  0  0  0  0  0  # atno 10763 bound_to 10752
  153.8630  135.3079  155.3440 H   0  0  0  0  0  0  0  0  0  0  0  0  # atno 10764 bound_to 10752
  154.7723  135.4933  153.9755 H   0  0  0  0  0  0  0  0  0  0  0  0  # atno 10765 bound_to 10752
  140.7887  134.2993  157.5021 H   0  0  0  0  0  0  0  0  0  0  0  0  # atno 11005 bound_to 11000
  144.8954  139.4719  143.6658 LP  0  0  0  0  0  0  0  0  0  0  0  0  # atno 17320 bound_to 7965
  146.3089  139.7676  142.9035 LP  0  0  0  0  0  0  0  0  0  0  0  0  # atno 17321 bound_to 7965
  140.1518  143.4351  152.2126 LP  0  0  0  0  0  0  0  0  0  0  0  0  # atno 17342 bound_to 10162
  139.5565  144.7376  151.4279 LP  0  0  0  0  0  0  0  0  0  0  0  0  # atno 17343 bound_to 10162
  157.2973  130.6825  149.6145 LP  0  0  0  0  0  0  0  0  0  0  0  0  # atno 17370 bound_to 10713
  155.9664  130.4402  150.5292 LP  0  0  0  0  0  0  0  0  0  0  0  0  # atno 17371 bound_to 10713
  139.8733  134.9362  156.3653 LP  0  0  0  0  0  0  0  0  0  0  0  0  # atno 17394 bound_to 11000
  140.9411  133.7514  156.0147 LP  0  0  0  0  0  0  0  0  0  0  0  0  # atno 17395 bound_to 11000

$$$$
