AV-unprocessed.smi:2820|AV-procd|sdf|10854|dock7
  -GOLD-   2272015293D 1   1.00000     0.00000
 Structure written by MMmdl.
 29 30  0  0  0  0  0  0  0  0  1 V2000
  147.5335  140.7361  153.6428 C   0  0  0  0  0  0  0  0  0  0  0  0
  148.9451  140.4032  153.5459 N   0  0  0  0  0  0  0  0  0  0  0  0
  149.8047  140.5849  154.6386 C   0  0  0  0  0  0  0  0  0  0  0  0
  150.8820  139.7172  154.9323 C   0  0  0  0  0  0  0  0  0  0  0  0
  151.6896  139.9861  156.0541 C   0  0  0  0  0  0  0  0  0  0  0  0
  151.3960  141.1135  156.8486 C   0  0  0  0  0  0  0  0  0  0  0  0
  152.1984  141.3869  157.9654 N   0  0  0  0  0  0  0  0  0  0  0  0
  151.7976  142.5890  158.6860 C   0  0  0  0  0  0  0  0  0  0  0  0
  152.8007  142.8851  159.8144 C   0  0  0  0  0  0  0  0  0  0  0  0
  152.9066  141.7508  160.6703 O   0  0  0  0  0  0  0  0  0  0  0  0
  153.3665  140.5958  159.9739 C   0  0  0  0  0  0  0  0  0  0  0  0
  152.3764  140.2423  158.8506 C   0  0  0  0  0  0  0  0  0  0  0  0
  150.3666  141.9492  156.5747 N   0  0  0  0  0  0  0  0  0  0  0  0
  149.5975  141.6848  155.4975 C   0  0  0  0  0  0  0  0  0  0  0  0
  147.0380  140.5277  152.6946 H   0  0  0  0  0  0  0  0  0  0  0  0
  147.3989  141.7938  153.8708 H   0  0  0  0  0  0  0  0  0  0  0  0
  147.0471  140.1427  154.4176 H   0  0  0  0  0  0  0  0  0  0  0  0
  149.3049  140.0403  152.6745 H   0  0  0  0  0  0  0  0  0  0  0  0
  151.1001  138.8557  154.3187 H   0  0  0  0  0  0  0  0  0  0  0  0
  152.5184  139.3377  156.2981 H   0  0  0  0  0  0  0  0  0  0  0  0
  151.7462  143.4337  157.9979 H   0  0  0  0  0  0  0  0  0  0  0  0
  150.7999  142.4524  159.1057 H   0  0  0  0  0  0  0  0  0  0  0  0
  153.7806  143.1391  159.4072 H   0  0  0  0  0  0  0  0  0  0  0  0
  152.4667  143.7419  160.3996 H   0  0  0  0  0  0  0  0  0  0  0  0
  154.3646  140.7747  159.5709 H   0  0  0  0  0  0  0  0  0  0  0  0
  153.4501  139.7668  160.6766 H   0  0  0  0  0  0  0  0  0  0  0  0
  151.4165  139.9557  159.2822 H   0  0  0  0  0  0  0  0  0  0  0  0
  152.7436  139.3877  158.2812 H   0  0  0  0  0  0  0  0  0  0  0  0
  148.7884  142.3774  155.3167 H   0  0  0  0  0  0  0  0  0  0  0  0
  1  2  1  0  0  0  0
  1 15  1  0  0  0  0
  1 16  1  0  0  0  0
  1 17  1  0  0  0  0
  2  3  1  0  0  0  0
  2 18  1  0  0  0  0
  3 14  1  0  0  0  0
  3  4  2  0  0  0  0
  4  5  1  0  0  0  0
  4 19  1  0  0  0  0
  5  6  2  0  0  0  0
  5 20  1  0  0  0  0
  6  7  1  0  0  0  0
  6 13  1  0  0  0  0
  7 12  1  0  0  0  0
  7  8  1  0  0  0  0
  8  9  1  0  0  0  0
  8 21  1  0  0  0  0
  8 22  1  0  0  0  0
  9 10  1  0  0  0  0
  9 23  1  0  0  0  0
  9 24  1  0  0  0  0
 10 11  1  0  0  0  0
 11 12  1  0  0  0  0
 11 25  1  0  0  0  0
 11 26  1  0  0  0  0
 12 27  1  0  0  0  0
 12 28  1  0  0  0  0
 13 14  2  0  0  0  0
 14 29  1  0  0  0  0
M  END
> <s_m_source_file>
AV-unprocessed.smi

> <i_m_source_file_index>
2820

> <i_lp_mmshare_version>
43012

> <i_f3d_flags>
0

> <s_epik_input>
W0NIM11bTkhdYzFbY0hdW2NIXWMobltjSF0xKU4yW0NIMl1bQ0gyXU9bQ0gyXVtDSDJdMg==

> <s_epik_cmdline>
J2VwaWtfcHl0aG9uJywgJy1waCcsICc3LjAnLCAnLXRuJywgJzgnLCAnLW1hJywgJzIwMCcsICctbWV0YWxfYmluZGluZycsICctaW1hZScsICc8aW5maWxlLm1hZT4nLCAnLW9tYWUnLCAnPG91dGZpbGUubWFlPic=

> <r_lp_tautomer_probability>
1

> <r_epik_Ionization_Penalty>
0.0411205

> <r_epik_Ionization_Penalty_Charging>
0

> <r_epik_Ionization_Penalty_Neutral>
0.0411205

> <r_epik_State_Penalty>
0.0346301

> <r_epik_Charging_Adjusted_Penalty>
0.0346301

> <i_epik_Tot_Q>
0

> <i_epik_Tot_abs_Q>
0

> <r_epik_Metal_State_Penalty>
3.56611e-05

> <b_epik_Metal_Only>
0

> <s_lp_Force_Field>
OPLS_2005

> <r_lp_Energy>
22.0638

> <b_lp_Chiralities_Consistent>
1

> <s_lp_Variant>
AV-unprocessed.smi:2820-1

> <Gold.Version>
5.8.1

> <Gold.Id.Protein>
6NUR|6NUR_protein|mol2

> <Gold.PLP.Fitness>
33.1420

> <Gold.PLP.PLP>
-27.7802

> <Gold.PLP.part.hbond>
-0.9023

> <Gold.PLP.part.metal>
0.0000

> <Gold.PLP.part.buried>
-0.9964

> <Gold.PLP.part.nonpolar>
-25.0751

> <Gold.PLP.part.repulsive>
0.2745

> <Gold.PLP.ligand.clash>
0.0000

> <Gold.PLP.ligand.torsion>
0.3327

> <Gold.PLP.Chemscore.Hbond>
0.9760

> <Gold.PLP.Chemscore.CHOScore>
1.0000

> <Gold.PLP.Chemscore.Metal>
0.0000

> <Gold.Chemscore.Hbonds>
donor molecule, donor type, donor heavy atom, donor atom, acceptor molecule, acceptor atom, score
      L1  H     2    18       P1  7957  1.00
      L1  C    14    29       P1  8028  0.92

> <Gold.PLP.Chemscore.Internal.Correction>
0.0992

> <Gold.Rescore>
     Score         DG    S(hbond)    S(metal)    S(lipo)     H(rot)  DE(clash)    DE(int)     intcor
     14.13     -14.70       1.00        0.00      72.24       1.00       0.08       0.49       ----

> <Gold.Chemscore.Fitness>
14.1268

> <Gold.Chemscore.DG>
-14.6959

> <Gold.Chemscore.ZeroCoef>
-5.4800

> <Gold.Chemscore.Hbond>
0.9951

> <Gold.Chemscore.Metal>
0.0000

> <Gold.Chemscore.Lipo>
72.2407

> <Gold.Chemscore.Internal_Hbond>
0.0000

> <Gold.Chemscore.DEClash>
0.0766

> <Gold.Chemscore.DEInternal>
0.4925

> <Gold.Chemscore.Rot>
1.0000

> <Gold.Chemscore.Internal.Correction>
   9.000000E+99

> <Gold.Chemscore.Hbonds>
donor molecule, donor type, donor heavy atom, donor atom, acceptor molecule, acceptor atom, score
      L1  H     2    18       P1  7957  0.93

> <Gold.Chemscore.Hbond.Weighted>
-3.3238

> <Gold.Chemscore.Metal.Weighted>
-0.0000

> <Gold.Chemscore.Lipo.Weighted>
-8.4522

> <Gold.Chemscore.Internal_Hbond.Weighted>
0.0000

> <Gold.Chemscore.DEClash.Weighted>
0.0766

> <Gold.Chemscore.DEInternal.Weighted>
0.4925

> <Gold.Chemscore.Rot.Weighted>
2.5600

> <Gold.Chemscore.Internal.Correction.Weighted>
   9.000000E+99

> <Gold.Protein.RotatedTorsions>
[ 6907 6896 6895 6894 ] final -136.92 input  -60.11 | X-H torsion
[ 7974 7965 7964 7962 ] final  107.93 input  175.53 | X-H torsion
[ 8008 7997 7996 7995 ] final -158.56 input   59.86 | X-H torsion
[ 10167 10162 10161 10158 ] final -130.50 input  -65.29 | X-H torsion
[ 10718 10713 10712 10709 ] final    6.76 input   66.30 | X-H torsion
[ 10763 10752 10751 10750 ] final  -54.48 input  -60.55 | X-H torsion
[ 11005 11000 10999 10996 ] final   95.47 input  -57.11 | X-H torsion

> <Gold.Protein.ActiveResidues>
 VAL166  LYS551  ARG553  GLY616  TRP617  ASP618  TYR619  PRO620  LYS621  CYS622 
 ASP623  PHE694  ASN695  SER759  ASP760  ASP761  ALA762  ILE779  LEU786  VAL792 
 PHE793  MET794  SER795  GLU796  ALA797  LYS798  CYS799  TRP800  GLU811  SER814 

> <Gold.Protein.RotatedAtoms>
  151.0160  133.5921  159.2676 H   0  0  0  0  0  0  0  0  0  0  0  0  # atno 6907 bound_to 6896
  151.3055  135.0779  159.9263 H   0  0  0  0  0  0  0  0  0  0  0  0  # atno 6908 bound_to 6896
  152.5311  133.9834  159.7871 H   0  0  0  0  0  0  0  0  0  0  0  0  # atno 6909 bound_to 6896
  145.2873  139.2612  143.3884 H   0  0  0  0  0  0  0  0  0  0  0  0  # atno 7974 bound_to 7965
  155.7494  140.0824  157.2208 H   0  0  0  0  0  0  0  0  0  0  0  0  # atno 8008 bound_to 7997
  154.4013  140.1563  156.2762 H   0  0  0  0  0  0  0  0  0  0  0  0  # atno 8009 bound_to 7997
  155.8945  140.3413  155.5983 H   0  0  0  0  0  0  0  0  0  0  0  0  # atno 8010 bound_to 7997
  139.9286  143.6298  152.2535 H   0  0  0  0  0  0  0  0  0  0  0  0  # atno 10167 bound_to 10162
  156.9270  130.5812  149.5649 H   0  0  0  0  0  0  0  0  0  0  0  0  # atno 10718 bound_to 10713
  154.1756  135.6452  153.5020 H   0  0  0  0  0  0  0  0  0  0  0  0  # atno 10763 bound_to 10752
  153.0073  135.5393  154.6568 H   0  0  0  0  0  0  0  0  0  0  0  0  # atno 10764 bound_to 10752
  154.5918  135.2935  155.0599 H   0  0  0  0  0  0  0  0  0  0  0  0  # atno 10765 bound_to 10752
  139.8789  134.8901  156.4016 H   0  0  0  0  0  0  0  0  0  0  0  0  # atno 11005 bound_to 11000
  146.3197  140.3355  142.8644 LP  0  0  0  0  0  0  0  0  0  0  0  0  # atno 17320 bound_to 7965
  144.9203  140.7860  143.5753 LP  0  0  0  0  0  0  0  0  0  0  0  0  # atno 17321 bound_to 7965
  139.6801  144.7656  151.1625 LP  0  0  0  0  0  0  0  0  0  0  0  0  # atno 17342 bound_to 10162
  140.7643  143.5738  150.8968 LP  0  0  0  0  0  0  0  0  0  0  0  0  # atno 17343 bound_to 10162
  156.0465  130.5540  150.8892 LP  0  0  0  0  0  0  0  0  0  0  0  0  # atno 17370 bound_to 10713
  157.5871  131.0945  150.9178 LP  0  0  0  0  0  0  0  0  0  0  0  0  # atno 17371 bound_to 10713
  140.9262  133.7610  155.9968 LP  0  0  0  0  0  0  0  0  0  0  0  0  # atno 17394 bound_to 11000
  140.8382  134.3097  157.5323 LP  0  0  0  0  0  0  0  0  0  0  0  0  # atno 17395 bound_to 11000

$$$$
