AV-unprocessed.smi:243|AV-procd|sdf|1855|dock9
  -GOLD-   2262020483D 1   1.00000     0.00000
 Structure written by MMmdl.
 58 61  0  0  0  0  0  0  0  0  2 V2000
  144.2812  131.9461  150.6721 C   0  0  0  0  0  0  0  0  0  0  0  0
  145.7070  131.5920  150.2246 C   0  0  0  0  0  0  0  0  0  0  0  0
  146.6979  131.7145  151.3239 N   0  3  1  0  0  0  0  0  0  0  0  0
  146.8632  133.1076  151.8096 C   0  0  0  0  0  0  0  0  0  0  0  0
  148.0058  133.1936  152.8287 C   0  0  0  0  0  0  0  0  0  0  0  0
  147.7737  132.2439  154.0246 C   0  0  2  0  0  0  0  0  0  0  0  0
  148.8366  132.3499  155.0369 N   0  0  0  0  0  0  0  0  0  0  0  0
  150.0566  131.5888  154.7933 C   0  0  0  0  0  0  0  0  0  0  0  0
  148.4605  132.3887  156.3400 C   0  0  0  0  0  0  0  0  0  0  0  0
  148.8568  131.3674  157.1399 N   0  0  0  0  0  0  0  0  0  0  0  0
  148.5177  131.3527  158.4321 C   0  0  0  0  0  0  0  0  0  0  0  0
  147.7989  132.2445  159.1159 N   0  0  0  0  0  0  0  0  0  0  0  0
  147.3879  133.2690  158.3153 C   0  0  0  0  0  0  0  0  0  0  0  0
  147.6690  133.4187  156.9276 C   0  0  0  0  0  0  0  0  0  0  0  0
  147.0941  134.5931  156.4551 N   0  0  0  0  0  0  0  0  0  0  0  0
  146.5044  135.1044  157.5007 C   0  0  0  0  0  0  0  0  0  0  0  0
  146.6267  134.3723  158.6597 N   0  0  0  0  0  0  0  0  0  0  0  0
  146.0774  134.7070  159.9644 C   0  0  0  0  0  0  0  0  0  0  0  0
  147.1531  135.0949  161.0058 C   0  0  2  0  0  0  0  0  0  0  0  0
  147.9446  133.9575  161.3015 O   0  0  0  0  0  0  0  0  0  0  0  0
  146.5874  135.6433  162.3135 C   0  0  0  0  0  0  0  0  0  0  0  0
  147.6415  136.6536  162.7440 C   0  0  0  0  0  0  0  0  0  0  0  0
  148.0160  137.2478  161.5135 O   0  0  0  0  0  0  0  0  0  0  0  0
  148.0841  136.2258  160.5247 C   0  0  0  0  0  0  0  0  0  0  0  0
  147.5213  130.8003  153.5146 C   0  0  1  0  0  0  0  0  0  0  0  0
  147.1434  129.8408  154.6580 C   0  0  0  0  0  0  0  0  0  0  0  0
  146.4051  130.7896  152.4477 C   0  0  0  0  0  0  0  0  0  0  0  0
  143.5998  131.9349  149.8210 H   0  0  0  0  0  0  0  0  0  0  0  0
  144.2423  132.9434  151.1113 H   0  0  0  0  0  0  0  0  0  0  0  0
  143.8913  131.2391  151.4036 H   0  0  0  0  0  0  0  0  0  0  0  0
  145.7398  130.5874  149.8006 H   0  0  0  0  0  0  0  0  0  0  0  0
  145.9781  132.2756  149.4190 H   0  0  0  0  0  0  0  0  0  0  0  0
  147.0850  133.7776  150.9797 H   0  0  0  0  0  0  0  0  0  0  0  0
  145.9307  133.4560  152.2565 H   0  0  0  0  0  0  0  0  0  0  0  0
  148.9400  132.9466  152.3234 H   0  0  0  0  0  0  0  0  0  0  0  0
  148.1027  134.2234  153.1731 H   0  0  0  0  0  0  0  0  0  0  0  0
  146.8561  132.5699  154.5170 H   0  0  0  0  0  0  0  0  0  0  0  0
  150.7850  131.7463  155.5901 H   0  0  0  0  0  0  0  0  0  0  0  0
  150.5161  131.9114  153.8588 H   0  0  0  0  0  0  0  0  0  0  0  0
  149.8549  130.5206  154.7169 H   0  0  0  0  0  0  0  0  0  0  0  0
  148.8727  130.5050  158.9993 H   0  0  0  0  0  0  0  0  0  0  0  0
  145.9600  136.0364  157.4544 H   0  0  0  0  0  0  0  0  0  0  0  0
  145.3605  135.5196  159.8400 H   0  0  0  0  0  0  0  0  0  0  0  0
  145.5055  133.8486  160.3195 H   0  0  0  0  0  0  0  0  0  0  0  0
  148.8553  134.2064  161.2595 H   0  0  0  0  0  0  0  0  0  0  0  0
  145.6524  136.1731  162.1277 H   0  0  0  0  0  0  0  0  0  0  0  0
  146.3913  134.8779  163.0657 H   0  0  0  0  0  0  0  0  0  0  0  0
  147.2584  137.3919  163.4487 H   0  0  0  0  0  0  0  0  0  0  0  0
  148.5035  136.1577  163.1932 H   0  0  0  0  0  0  0  0  0  0  0  0
  149.1174  135.8907  160.4197 H   0  0  0  0  0  0  0  0  0  0  0  0
  147.7769  136.6377  159.5631 H   0  0  0  0  0  0  0  0  0  0  0  0
  148.4270  130.4253  153.0371 H   0  0  0  0  0  0  0  0  0  0  0  0
  146.2308  130.1644  155.1594 H   0  0  0  0  0  0  0  0  0  0  0  0
  147.9262  129.7762  155.4130 H   0  0  0  0  0  0  0  0  0  0  0  0
  146.9750  128.8312  154.2827 H   0  0  0  0  0  0  0  0  0  0  0  0
  145.4478  131.0614  152.8961 H   0  0  0  0  0  0  0  0  0  0  0  0
  146.2944  129.7756  152.0608 H   0  0  0  0  0  0  0  0  0  0  0  0
  147.5872  131.4241  150.9423 H   0  0  0  0  0  0  0  0  0  0  0  0
  1  2  1  0  0  0  0
  1 28  1  0  0  0  0
  1 29  1  0  0  0  0
  1 30  1  0  0  0  0
  2  3  1  0  0  0  0
  2 31  1  0  0  0  0
  2 32  1  0  0  0  0
  3 27  1  0  0  0  0
  3  4  1  0  0  0  0
  3 58  1  0  0  0  0
  4  5  1  0  0  0  0
  4 33  1  0  0  0  0
  4 34  1  0  0  0  0
  5  6  1  0  0  0  0
  5 35  1  0  0  0  0
  5 36  1  0  0  0  0
  6  7  1  0  0  0  0
  6 25  1  0  0  0  0
  6 37  1  0  0  0  0
  7  8  1  0  0  0  0
  7  9  1  0  0  0  0
  8 38  1  0  0  0  0
  8 39  1  0  0  0  0
  8 40  1  0  0  0  0
  9 14  1  0  0  0  0
  9 10  2  0  0  0  0
 10 11  1  0  0  0  0
 11 12  2  0  0  0  0
 11 41  1  0  0  0  0
 12 13  1  0  0  0  0
 13 17  1  0  0  0  0
 13 14  2  0  0  0  0
 14 15  1  0  0  0  0
 15 16  2  0  0  0  0
 16 17  1  0  0  0  0
 16 42  1  0  0  0  0
 17 18  1  0  0  0  0
 18 19  1  0  0  0  0
 18 43  1  0  0  0  0
 18 44  1  0  0  0  0
 19 24  1  0  0  0  0
 19 20  1  0  0  0  0
 19 21  1  0  0  0  0
 20 45  1  0  0  0  0
 21 22  1  0  0  0  0
 21 46  1  0  0  0  0
 21 47  1  0  0  0  0
 22 23  1  0  0  0  0
 22 48  1  0  0  0  0
 22 49  1  0  0  0  0
 23 24  1  0  0  0  0
 24 50  1  0  0  0  0
 24 51  1  0  0  0  0
 25 26  1  0  0  0  0
 25 27  1  0  0  0  0
 25 52  1  0  0  0  0
 26 53  1  0  0  0  0
 26 54  1  0  0  0  0
 26 55  1  0  0  0  0
 27 56  1  0  0  0  0
 27 57  1  0  0  0  0
M  CHG  1   3   1
M  END
> <s_m_source_file>
AV-unprocessed.smi

> <i_m_source_file_index>
243

> <i_lp_mmshare_version>
43012

> <i_f3d_flags>
0

> <s_epik_input>
W0NIM11bQ0gyXU4xW0NIMl1bQ0gyXVtDQEhdKFtDQEBIXShbQ0gzXSlbQ0gyXTEpTihbQ0gzXSljKG5bY0hdbjIpYyhjMjMpbltjSF1uM1tDSDJdW0NAQF00KFtPSF0pW0NIMl1bQ0gyXU9bQ0gyXTQ=

> <s_epik_cmdline>
J2VwaWtfcHl0aG9uJywgJy1waCcsICc3LjAnLCAnLXRuJywgJzgnLCAnLW1hJywgJzIwMCcsICctbWV0YWxfYmluZGluZycsICctaW1hZScsICc8aW5maWxlLm1hZT4nLCAnLW9tYWUnLCAnPG91dGZpbGUubWFlPic=

> <r_lp_tautomer_probability>
1

> <r_epik_Ionization_Penalty>
0.00253099

> <r_epik_Ionization_Penalty_Charging>
0.00137877

> <r_epik_Ionization_Penalty_Neutral>
0.00115221

> <r_epik_State_Penalty>
-0

> <r_epik_Charging_Adjusted_Penalty>
0.00137877

> <i_epik_Tot_Q>
1

> <i_epik_Tot_abs_Q>
1

> <r_epik_Metal_State_Penalty>
-0

> <b_epik_Metal_Only>
0

> <s_lp_Force_Field>
OPLS_2005

> <r_lp_Energy>
45.753

> <b_lp_Chiralities_Consistent>
1

> <s_lp_Variant>
AV-unprocessed.smi:243-8

> <Gold.Version>
5.8.1

> <Gold.Id.Protein>
6NUR|6NUR_protein|mol2

> <Gold.PLP.Fitness>
42.3924

> <Gold.PLP.PLP>
-36.1015

> <Gold.PLP.part.hbond>
-3.0000

> <Gold.PLP.part.metal>
0.0000

> <Gold.PLP.part.buried>
-3.5785

> <Gold.PLP.part.nonpolar>
-28.0716

> <Gold.PLP.part.repulsive>
0.0221

> <Gold.PLP.ligand.clash>
0.0000

> <Gold.PLP.ligand.torsion>
1.2480

> <Gold.PLP.Chemscore.Hbond>
2.6864

> <Gold.PLP.Chemscore.CHOScore>
0.0000

> <Gold.PLP.Chemscore.Metal>
0.0000

> <Gold.Chemscore.Hbonds>
donor molecule, donor type, donor heavy atom, donor atom, acceptor molecule, acceptor atom, score
      L1  H     3    58       P1 10747  1.00
      P1  H  6931  6943       L1    23  0.88
      P1  H  6934  6947       L1    23  0.62

> <Gold.PLP.Chemscore.Internal.Correction>
0.7277

> <Gold.Rescore>
     Score         DG    S(hbond)    S(metal)    S(lipo)     H(rot)  DE(clash)    DE(int)     intcor
     16.45     -17.69       2.55        0.00      86.95       2.53       0.01       1.23       ----

> <Gold.Chemscore.Fitness>
16.4539

> <Gold.Chemscore.DG>
-17.6863

> <Gold.Chemscore.ZeroCoef>
-5.4800

> <Gold.Chemscore.Hbond>
2.5481

> <Gold.Chemscore.Metal>
0.0000

> <Gold.Chemscore.Lipo>
86.9536

> <Gold.Chemscore.Internal_Hbond>
0.0000

> <Gold.Chemscore.DEClash>
0.0073

> <Gold.Chemscore.DEInternal>
1.2250

> <Gold.Chemscore.Rot>
2.5305

> <Gold.Chemscore.Internal.Correction>
   9.000000E+99

> <Gold.Chemscore.Hbonds>
donor molecule, donor type, donor heavy atom, donor atom, acceptor molecule, acceptor atom, score
      L1  H     3    58       P1 10747  1.00
      P1  H  6931  6943       L1    23  0.33
      P1  H  6934  6947       L1    23  0.53

> <Gold.Chemscore.Hbond.Weighted>
-8.5106

> <Gold.Chemscore.Metal.Weighted>
-0.0000

> <Gold.Chemscore.Lipo.Weighted>
-10.1736

> <Gold.Chemscore.Internal_Hbond.Weighted>
0.0000

> <Gold.Chemscore.DEClash.Weighted>
0.0073

> <Gold.Chemscore.DEInternal.Weighted>
1.2250

> <Gold.Chemscore.Rot.Weighted>
6.4780

> <Gold.Chemscore.Internal.Correction.Weighted>
   9.000000E+99

> <Gold.Protein.RotatedTorsions>
[ 6907 6896 6895 6894 ] final  -15.30 input  -60.11 | X-H torsion
[ 7974 7965 7964 7962 ] final  106.90 input  175.53 | X-H torsion
[ 8008 7997 7996 7995 ] final  -86.12 input   59.86 | X-H torsion
[ 10167 10162 10161 10158 ] final -169.43 input  -65.29 | X-H torsion
[ 10718 10713 10712 10709 ] final  -97.25 input   66.30 | X-H torsion
[ 10763 10752 10751 10750 ] final   89.00 input  -60.55 | X-H torsion
[ 11005 11000 10999 10996 ] final  168.60 input  -57.11 | X-H torsion

> <Gold.Protein.ActiveResidues>
 VAL166  LYS551  ARG553  GLY616  TRP617  ASP618  TYR619  PRO620  LYS621  CYS622 
 ASP623  PHE694  ASN695  SER759  ASP760  ASP761  ALA762  ILE779  LEU786  VAL792 
 PHE793  MET794  SER795  GLU796  ALA797  LYS798  CYS799  TRP800  GLU811  SER814 

> <Gold.Protein.RotatedAtoms>
  151.3261  135.0830  159.9322 H   0  0  0  0  0  0  0  0  0  0  0  0  # atno 6907 bound_to 6896
  152.5245  133.9590  159.7718 H   0  0  0  0  0  0  0  0  0  0  0  0  # atno 6908 bound_to 6896
  150.9920  133.6087  159.2737 H   0  0  0  0  0  0  0  0  0  0  0  0  # atno 6909 bound_to 6896
  145.3006  139.2571  143.3816 H   0  0  0  0  0  0  0  0  0  0  0  0  # atno 7974 bound_to 7965
  154.6483  140.0582  156.9926 H   0  0  0  0  0  0  0  0  0  0  0  0  # atno 8008 bound_to 7997
  155.1410  140.3265  155.4433 H   0  0  0  0  0  0  0  0  0  0  0  0  # atno 8009 bound_to 7997
  156.2564  140.1964  156.6526 H   0  0  0  0  0  0  0  0  0  0  0  0  # atno 8010 bound_to 7997
  139.5923  144.1186  152.1649 H   0  0  0  0  0  0  0  0  0  0  0  0  # atno 10167 bound_to 10162
  156.0079  130.5186  150.6347 H   0  0  0  0  0  0  0  0  0  0  0  0  # atno 10718 bound_to 10713
  153.1826  135.4486  155.0048 H   0  0  0  0  0  0  0  0  0  0  0  0  # atno 10763 bound_to 10752
  154.8040  135.3267  154.7481 H   0  0  0  0  0  0  0  0  0  0  0  0  # atno 10764 bound_to 10752
  153.7944  135.6967  153.4921 H   0  0  0  0  0  0  0  0  0  0  0  0  # atno 10765 bound_to 10752
  140.2889  134.7689  157.3822 H   0  0  0  0  0  0  0  0  0  0  0  0  # atno 11005 bound_to 11000
  146.3153  140.3519  142.8657 LP  0  0  0  0  0  0  0  0  0  0  0  0  # atno 17320 bound_to 7965
  144.9096  140.7742  143.5815 LP  0  0  0  0  0  0  0  0  0  0  0  0  # atno 17321 bound_to 7965
  140.0763  144.5737  150.7154 LP  0  0  0  0  0  0  0  0  0  0  0  0  # atno 17342 bound_to 10162
  140.7183  143.2565  151.4361 LP  0  0  0  0  0  0  0  0  0  0  0  0  # atno 17343 bound_to 10162
  157.4138  131.0827  151.1195 LP  0  0  0  0  0  0  0  0  0  0  0  0  # atno 17370 bound_to 10713
  157.1819  130.6313  149.5674 LP  0  0  0  0  0  0  0  0  0  0  0  0  # atno 17371 bound_to 10713
  140.1213  134.5215  155.8181 LP  0  0  0  0  0  0  0  0  0  0  0  0  # atno 17394 bound_to 11000
  141.2150  133.6757  156.6871 LP  0  0  0  0  0  0  0  0  0  0  0  0  # atno 17395 bound_to 11000

$$$$
