AV-unprocessed.smi:157|AV-procd|sdf|1291|dock1
  -GOLD-   2262018573D 1   1.00000     0.00000
 Structure written by MMmdl.
 35 37  0  0  0  0  0  0  0  0  1 V2000
  148.8306  141.0855  153.1064 O   0  0  0  0  0  0  0  0  0  0  0  0
  148.5993  140.5302  154.3833 C   0  0  0  0  0  0  0  0  0  0  0  0
  149.7889  139.6553  154.8103 C   0  0  1  0  0  0  0  0  0  0  0  0
  150.9829  140.4388  154.8960 O   0  0  0  0  0  0  0  0  0  0  0  0
  151.6966  140.1313  156.0599 C   0  0  1  0  0  0  0  0  0  0  0  0
  151.5129  141.2497  157.0491 N   0  0  0  0  0  0  0  0  0  0  0  0
  150.7318  142.3316  156.9163 C   0  0  0  0  0  0  0  0  0  0  0  0
  150.7558  143.1603  157.9457 N   0  0  0  0  0  0  0  0  0  0  0  0
  151.6564  142.5709  158.8297 C   0  0  0  0  0  0  0  0  0  0  0  0
  152.1509  141.3943  158.2857 C   0  0  0  0  0  0  0  0  0  0  0  0
  153.0468  140.4172  158.6765 N   0  0  0  0  0  0  0  0  0  0  0  0
  153.8756  140.6957  159.6329 C   0  0  0  0  0  0  0  0  0  0  0  0
  153.9724  141.8237  160.4349 N   0  0  0  0  0  0  0  0  0  0  0  0
  152.8331  142.4307  161.1014 C   0  0  0  0  0  0  0  0  0  0  0  0
  151.9232  143.2236  160.1556 C   0  0  1  0  0  0  0  0  0  0  0  0
  152.5106  144.4804  159.8878 O   0  0  0  0  0  0  0  0  0  0  0  0
  151.0846  138.8412  156.6066 C   0  0  0  0  0  0  0  0  0  0  0  0
  149.6384  138.9903  156.1838 C   0  0  2  0  0  0  0  0  0  0  0  0
  149.0074  137.7291  156.1081 O   0  0  0  0  0  0  0  0  0  0  0  0
  149.9832  138.8960  154.0505 H   0  0  0  0  0  0  0  0  0  0  0  0
  152.7719  140.0871  155.8838 H   0  0  0  0  0  0  0  0  0  0  0  0
  150.9803  143.4184  160.6673 H   0  0  0  0  0  0  0  0  0  0  0  0
  149.1045  139.6388  156.8800 H   0  0  0  0  0  0  0  0  0  0  0  0
  148.9606  140.3805  152.4908 H   0  0  0  0  0  0  0  0  0  0  0  0
  148.4654  141.3486  155.0909 H   0  0  0  0  0  0  0  0  0  0  0  0
  147.6708  139.9603  154.3671 H   0  0  0  0  0  0  0  0  0  0  0  0
  150.1247  142.5240  156.0455 H   0  0  0  0  0  0  0  0  0  0  0  0
  154.6335  139.9553  159.8927 H   0  0  0  0  0  0  0  0  0  0  0  0
  154.8231  141.9703  160.9588 H   0  0  0  0  0  0  0  0  0  0  0  0
  152.2540  141.6239  161.5531 H   0  0  0  0  0  0  0  0  0  0  0  0
  153.1756  143.0574  161.9254 H   0  0  0  0  0  0  0  0  0  0  0  0
  153.3535  144.5092  160.3146 H   0  0  0  0  0  0  0  0  0  0  0  0
  151.5580  137.9976  156.1016 H   0  0  0  0  0  0  0  0  0  0  0  0
  151.2232  138.7320  157.6824 H   0  0  0  0  0  0  0  0  0  0  0  0
  148.6575  137.6238  155.2363 H   0  0  0  0  0  0  0  0  0  0  0  0
  1  2  1  0  0  0  0
  1 24  1  0  0  0  0
  2  3  1  0  0  0  0
  2 25  1  0  0  0  0
  2 26  1  0  0  0  0
  3 20  1  0  0  0  0
  3 18  1  0  0  0  0
  3  4  1  0  0  0  0
  4  5  1  0  0  0  0
  5 21  1  0  0  0  0
  5  6  1  0  0  0  0
  5 17  1  0  0  0  0
  6 10  1  0  0  0  0
  6  7  1  0  0  0  0
  7  8  2  0  0  0  0
  7 27  1  0  0  0  0
  8  9  1  0  0  0  0
  9 15  1  0  0  0  0
  9 10  2  0  0  0  0
 10 11  1  0  0  0  0
 11 12  2  0  0  0  0
 12 13  1  0  0  0  0
 12 28  1  0  0  0  0
 13 14  1  0  0  0  0
 13 29  1  0  0  0  0
 14 15  1  0  0  0  0
 14 30  1  0  0  0  0
 14 31  1  0  0  0  0
 15 22  1  0  0  0  0
 15 16  1  0  0  0  0
 16 32  1  0  0  0  0
 17 18  1  0  0  0  0
 17 33  1  0  0  0  0
 17 34  1  0  0  0  0
 18 23  1  0  0  0  0
 18 19  1  0  0  0  0
 19 35  1  0  0  0  0
M  END
> <s_m_source_file>
AV-unprocessed.smi

> <i_m_source_file_index>
157

> <i_lp_mmshare_version>
43012

> <i_f3d_flags>
0

> <s_epik_input>
W09IXVtDSDJdW0NASF0xT1tDQEhdKFtDSDJdW0NAQEhdMVtPSF0pbihbY0hdbjIpYyhjMjMpTj1bQ0hdW05IXVtDSDJdW0NASF0zW09IXQ==

> <s_epik_cmdline>
J2VwaWtfcHl0aG9uJywgJy1waCcsICc3LjAnLCAnLXRuJywgJzgnLCAnLW1hJywgJzIwMCcsICctbWV0YWxfYmluZGluZycsICctaW1hZScsICc8aW5maWxlLm1hZT4nLCAnLW9tYWUnLCAnPG91dGZpbGUubWFlPic=

> <r_lp_tautomer_probability>
1

> <r_epik_Ionization_Penalty>
0.0357149

> <r_epik_Ionization_Penalty_Charging>
0.0355056

> <r_epik_Ionization_Penalty_Neutral>
0.000209255

> <r_epik_State_Penalty>
0.0296046

> <r_epik_Charging_Adjusted_Penalty>
0.0651102

> <i_epik_Tot_Q>
0

> <i_epik_Tot_abs_Q>
0

> <r_epik_Metal_State_Penalty>
3.03559e-05

> <b_epik_Metal_Only>
0

> <s_epik_Chemistry_Notes>
This compound has an imine and may undergo hydrolysis. This compound contains an acetal/aminal-like group ( X-CH(R)-Y where X, Y are N, S, or O) that may be acid/base labile, releasing an aldehyde.

> <s_lp_Force_Field>
OPLS_2005

> <r_lp_Energy>
41.3094

> <b_lp_Chiralities_Consistent>
1

> <s_lp_Variant>
AV-unprocessed.smi:157-1

> <Gold.Version>
5.8.1

> <Gold.Id.Protein>
6NUR|6NUR_protein|mol2

> <Gold.PLP.Fitness>
42.7330

> <Gold.PLP.PLP>
-30.5598

> <Gold.PLP.part.hbond>
-3.4645

> <Gold.PLP.part.metal>
0.0000

> <Gold.PLP.part.buried>
-2.4648

> <Gold.PLP.part.nonpolar>
-22.5292

> <Gold.PLP.part.repulsive>
0.2460

> <Gold.PLP.ligand.clash>
0.0000

> <Gold.PLP.ligand.torsion>
0.1101

> <Gold.PLP.Chemscore.Hbond>
3.2671

> <Gold.PLP.Chemscore.CHOScore>
0.8569

> <Gold.PLP.Chemscore.Metal>
0.0000

> <Gold.Chemscore.Hbonds>
donor molecule, donor type, donor heavy atom, donor atom, acceptor molecule, acceptor atom, score
      L1  H     1    24       P1  7957  0.81
      P1  H  7989  7998       L1     4  1.00
      P1  H  7997  8009       L1    11  0.29
      P1  H  8011  8017       L1     1  1.00
      L1  C     7    27       P1  8028  0.82

> <Gold.PLP.Chemscore.Internal.Correction>
0.0213

> <Gold.Rescore>
     Score         DG    S(hbond)    S(metal)    S(lipo)     H(rot)  DE(clash)    DE(int)     intcor
      9.21      -9.48       2.15        0.00      52.21       3.64       0.15       0.12       ----

> <Gold.Chemscore.Fitness>
9.2089

> <Gold.Chemscore.DG>
-9.4751

> <Gold.Chemscore.ZeroCoef>
-5.4800

> <Gold.Chemscore.Hbond>
2.1542

> <Gold.Chemscore.Metal>
0.0000

> <Gold.Chemscore.Lipo>
52.2126

> <Gold.Chemscore.Internal_Hbond>
0.0000

> <Gold.Chemscore.DEClash>
0.1508

> <Gold.Chemscore.DEInternal>
0.1155

> <Gold.Chemscore.Rot>
3.6362

> <Gold.Chemscore.Internal.Correction>
   9.000000E+99

> <Gold.Chemscore.Hbonds>
donor molecule, donor type, donor heavy atom, donor atom, acceptor molecule, acceptor atom, score
      L1  H     1    24       P1  7957  0.76
      P1  H  7989  7998       L1     4  0.89
      P1  H  7997  8009       L1    11  0.04
      P1  H  8011  8017       L1     1  0.29

> <Gold.Chemscore.Hbond.Weighted>
-7.1950

> <Gold.Chemscore.Metal.Weighted>
-0.0000

> <Gold.Chemscore.Lipo.Weighted>
-6.1089

> <Gold.Chemscore.Internal_Hbond.Weighted>
0.0000

> <Gold.Chemscore.DEClash.Weighted>
0.1508

> <Gold.Chemscore.DEInternal.Weighted>
0.1155

> <Gold.Chemscore.Rot.Weighted>
9.3087

> <Gold.Chemscore.Internal.Correction.Weighted>
   9.000000E+99

> <Gold.Protein.RotatedTorsions>
[ 6907 6896 6895 6894 ] final  -27.71 input  -60.11 | X-H torsion
[ 7974 7965 7964 7962 ] final   47.79 input  175.53 | X-H torsion
[ 8008 7997 7996 7995 ] final  158.16 input   59.86 | X-H torsion
[ 10167 10162 10161 10158 ] final   25.51 input  -65.29 | X-H torsion
[ 10718 10713 10712 10709 ] final   53.90 input   66.30 | X-H torsion
[ 10763 10752 10751 10750 ] final   56.93 input  -60.55 | X-H torsion
[ 11005 11000 10999 10996 ] final   23.69 input  -57.11 | X-H torsion

> <Gold.Protein.ActiveResidues>
 VAL166  LYS551  ARG553  GLY616  TRP617  ASP618  TYR619  PRO620  LYS621  CYS622 
 ASP623  PHE694  ASN695  SER759  ASP760  ASP761  ALA762  ILE779  LEU786  VAL792 
 PHE793  MET794  SER795  GLU796  ALA797  LYS798  CYS799  TRP800  GLU811  SER814 

> <Gold.Protein.RotatedAtoms>
  151.1431  135.0189  159.8634 H   0  0  0  0  0  0  0  0  0  0  0  0  # atno 6907 bound_to 6896
  152.5452  134.1476  159.8515 H   0  0  0  0  0  0  0  0  0  0  0  0  # atno 6908 bound_to 6896
  151.1554  133.4834  159.2627 H   0  0  0  0  0  0  0  0  0  0  0  0  # atno 6909 bound_to 6896
  146.0264  139.4712  142.9865 H   0  0  0  0  0  0  0  0  0  0  0  0  # atno 7974 bound_to 7965
  156.2320  140.1866  156.7218 H   0  0  0  0  0  0  0  0  0  0  0  0  # atno 8008 bound_to 7997
  154.6039  140.0632  156.9433 H   0  0  0  0  0  0  0  0  0  0  0  0  # atno 8009 bound_to 7997
  155.2128  140.3301  155.4329 H   0  0  0  0  0  0  0  0  0  0  0  0  # atno 8010 bound_to 7997
  140.5100  144.0176  150.6368 H   0  0  0  0  0  0  0  0  0  0  0  0  # atno 10167 bound_to 10162
  157.5208  130.8564  149.8557 H   0  0  0  0  0  0  0  0  0  0  0  0  # atno 10718 bound_to 10713
  152.9840  135.5659  154.5308 H   0  0  0  0  0  0  0  0  0  0  0  0  # atno 10763 bound_to 10752
  154.4780  135.2787  155.1594 H   0  0  0  0  0  0  0  0  0  0  0  0  # atno 10764 bound_to 10752
  154.3115  135.6287  153.5521 H   0  0  0  0  0  0  0  0  0  0  0  0  # atno 10765 bound_to 10752
  140.3668  134.2066  155.7669 H   0  0  0  0  0  0  0  0  0  0  0  0  # atno 11005 bound_to 11000
  145.7110  141.0106  143.1453 LP  0  0  0  0  0  0  0  0  0  0  0  0  # atno 17320 bound_to 7965
  144.7011  139.8757  143.7444 LP  0  0  0  0  0  0  0  0  0  0  0  0  # atno 17321 bound_to 7965
  140.3496  143.2971  152.0502 LP  0  0  0  0  0  0  0  0  0  0  0  0  # atno 17342 bound_to 10162
  139.4893  144.6384  151.6928 LP  0  0  0  0  0  0  0  0  0  0  0  0  # atno 17343 bound_to 10162
  156.0352  130.3753  150.1579 LP  0  0  0  0  0  0  0  0  0  0  0  0  # atno 17370 bound_to 10713
  156.9767  130.9851  151.3447 LP  0  0  0  0  0  0  0  0  0  0  0  0  # atno 17371 bound_to 10713
  141.1967  133.8076  157.0660 LP  0  0  0  0  0  0  0  0  0  0  0  0  # atno 17394 bound_to 11000
  140.0583  134.9768  157.1259 LP  0  0  0  0  0  0  0  0  0  0  0  0  # atno 17395 bound_to 11000

$$$$
