AV-unprocessed.smi:2813|AV-procd|sdf|10837|dock9
  -GOLD-   2272015273D 1   1.00000     0.00000
 Structure written by MMmdl.
 41 42  0  0  0  0  0  0  0  0  1 V2000
  145.0780  143.8584  154.8649 C   0  0  0  0  0  0  0  0  0  0  0  0
  146.1899  142.8312  154.9834 C   0  0  0  0  0  0  0  0  0  0  0  0
  147.0015  142.6867  153.8543 N   0  0  0  0  0  0  0  0  0  0  0  0
  147.9687  141.8287  153.8610 C   0  0  0  0  0  0  0  0  0  0  0  0
  148.2321  141.0231  154.9805 N   0  0  0  0  0  0  0  0  0  0  0  0
  149.3566  140.0817  154.8566 C   0  0  0  0  0  0  0  0  0  0  0  0
  150.5519  140.4866  155.7494 C   0  0  2  0  0  0  0  0  0  0  0  0
  151.7417  139.9955  155.1649 O   0  0  0  0  0  0  0  0  0  0  0  0
  150.4560  139.8874  157.1608 C   0  0  0  0  0  0  0  0  0  0  0  0
  151.7686  139.7759  157.6954 O   0  0  0  0  0  0  0  0  0  0  0  0
  152.1810  140.7080  158.6225 C   0  0  0  0  0  0  0  0  0  0  0  0
  153.1238  140.2814  159.5790 C   0  0  0  0  0  0  0  0  0  0  0  0
  153.6025  141.1677  160.5615 C   0  0  0  0  0  0  0  0  0  0  0  0
  153.1388  142.4955  160.5990 C   0  0  0  0  0  0  0  0  0  0  0  0
  152.1908  142.9417  159.6530 C   0  0  0  0  0  0  0  0  0  0  0  0
  151.6748  144.3729  159.6713 C   0  0  0  0  0  0  0  0  0  0  0  0
  150.3461  144.3705  159.7785 F   0  0  0  0  0  0  0  0  0  0  0  0
  152.1772  145.0716  160.6899 F   0  0  0  0  0  0  0  0  0  0  0  0
  152.0121  144.9787  158.5332 F   0  0  0  0  0  0  0  0  0  0  0  0
  151.7184  142.0473  158.6684 C   0  0  0  0  0  0  0  0  0  0  0  0
  147.5028  141.1144  156.1303 C   0  0  0  0  0  0  0  0  0  0  0  0
  147.7605  140.4211  157.1163 O   0  0  0  0  0  0  0  0  0  0  0  0
  146.4004  142.0895  156.1052 C   0  0  0  0  0  0  0  0  0  0  0  0
  145.5505  142.2053  157.3645 C   0  0  0  0  0  0  0  0  0  0  0  0
  144.1047  143.3804  154.9780 H   0  0  0  0  0  0  0  0  0  0  0  0
  145.0959  144.3540  153.8933 H   0  0  0  0  0  0  0  0  0  0  0  0
  145.1821  144.6253  155.6327 H   0  0  0  0  0  0  0  0  0  0  0  0
  148.6343  141.6811  153.0086 H   0  0  0  0  0  0  0  0  0  0  0  0
  149.0013  139.0906  155.1450 H   0  0  0  0  0  0  0  0  0  0  0  0
  149.6743  139.9519  153.8198 H   0  0  0  0  0  0  0  0  0  0  0  0
  150.6312  141.5714  155.8345 H   0  0  0  0  0  0  0  0  0  0  0  0
  151.5872  139.1134  154.8631 H   0  0  0  0  0  0  0  0  0  0  0  0
  149.8299  140.5167  157.7960 H   0  0  0  0  0  0  0  0  0  0  0  0
  150.0020  138.8960  157.1105 H   0  0  0  0  0  0  0  0  0  0  0  0
  153.4858  139.2639  159.5572 H   0  0  0  0  0  0  0  0  0  0  0  0
  154.3270  140.8283  161.2872 H   0  0  0  0  0  0  0  0  0  0  0  0
  153.5175  143.1641  161.3579 H   0  0  0  0  0  0  0  0  0  0  0  0
  150.9962  142.4149  157.9556 H   0  0  0  0  0  0  0  0  0  0  0  0
  146.1664  142.5255  158.2054 H   0  0  0  0  0  0  0  0  0  0  0  0
  145.1136  141.2377  157.6138 H   0  0  0  0  0  0  0  0  0  0  0  0
  144.7321  142.9169  157.2668 H   0  0  0  0  0  0  0  0  0  0  0  0
  1  2  1  0  0  0  0
  1 25  1  0  0  0  0
  1 26  1  0  0  0  0
  1 27  1  0  0  0  0
  2 23  2  0  0  0  0
  2  3  1  0  0  0  0
  3  4  2  0  0  0  0
  4  5  1  0  0  0  0
  4 28  1  0  0  0  0
  5  6  1  0  0  0  0
  5 21  1  0  0  0  0
  6  7  1  0  0  0  0
  6 29  1  0  0  0  0
  6 30  1  0  0  0  0
  7  8  1  0  0  0  0
  7  9  1  0  0  0  0
  7 31  1  0  0  0  0
  8 32  1  0  0  0  0
  9 10  1  0  0  0  0
  9 33  1  0  0  0  0
  9 34  1  0  0  0  0
 10 11  1  0  0  0  0
 11 20  1  0  0  0  0
 11 12  2  0  0  0  0
 12 13  1  0  0  0  0
 12 35  1  0  0  0  0
 13 14  2  0  0  0  0
 13 36  1  0  0  0  0
 14 15  1  0  0  0  0
 14 37  1  0  0  0  0
 15 16  1  0  0  0  0
 15 20  2  0  0  0  0
 16 17  1  0  0  0  0
 16 18  1  0  0  0  0
 16 19  1  0  0  0  0
 20 38  1  0  0  0  0
 21 22  2  0  0  0  0
 21 23  1  0  0  0  0
 23 24  1  0  0  0  0
 24 39  1  0  0  0  0
 24 40  1  0  0  0  0
 24 41  1  0  0  0  0
M  END
> <s_m_source_file>
AV-unprocessed.smi

> <i_m_source_file_index>
2813

> <i_lp_mmshare_version>
43012

> <i_f3d_flags>
0

> <s_epik_input>
W0NIM11jMW5bY0hdbihjKD1PKWMxW0NIM10pW0NIMl1bQ0BIXShbT0hdKVtDSDJdT2MyW2NIXVtjSF1bY0hdYyhDKEYpKEYpRilbY0hdMg==

> <s_epik_cmdline>
J2VwaWtfcHl0aG9uJywgJy1waCcsICc3LjAnLCAnLXRuJywgJzgnLCAnLW1hJywgJzIwMCcsICctbWV0YWxfYmluZGluZycsICctaW1hZScsICc8aW5maWxlLm1hZT4nLCAnLW9tYWUnLCAnPG91dGZpbGUubWFlPic=

> <r_lp_tautomer_probability>
1

> <r_epik_Ionization_Penalty>
3.72236e-05

> <r_epik_Ionization_Penalty_Charging>
8.38864e-08

> <r_epik_Ionization_Penalty_Neutral>
3.71397e-05

> <r_epik_State_Penalty>
-0

> <r_epik_Charging_Adjusted_Penalty>
8.38864e-08

> <i_epik_Tot_Q>
0

> <i_epik_Tot_abs_Q>
0

> <r_epik_Metal_State_Penalty>
-0

> <b_epik_Metal_Only>
0

> <s_lp_Force_Field>
OPLS_2005

> <r_lp_Energy>
22.8491

> <b_lp_Chiralities_Consistent>
1

> <s_lp_Variant>
AV-unprocessed.smi:2813-1

> <Gold.Version>
5.8.1

> <Gold.Id.Protein>
6NUR|6NUR_protein|mol2

> <Gold.PLP.Fitness>
53.2162

> <Gold.PLP.PLP>
-49.9355

> <Gold.PLP.part.hbond>
-1.0000

> <Gold.PLP.part.metal>
0.0000

> <Gold.PLP.part.buried>
-7.4993

> <Gold.PLP.part.nonpolar>
-41.8071

> <Gold.PLP.part.repulsive>
0.1932

> <Gold.PLP.ligand.clash>
0.0659

> <Gold.PLP.ligand.torsion>
1.4063

> <Gold.PLP.Chemscore.Hbond>
0.9920

> <Gold.PLP.Chemscore.CHOScore>
0.9964

> <Gold.PLP.Chemscore.Metal>
0.0000

> <Gold.Chemscore.Hbonds>
donor molecule, donor type, donor heavy atom, donor atom, acceptor molecule, acceptor atom, score
      P1  H  7989  7998       L1     8  0.86
      L1  C     4    28       P1  7957  0.73

> <Gold.PLP.Chemscore.Internal.Correction>
0.1940

> <Gold.Rescore>
     Score         DG    S(hbond)    S(metal)    S(lipo)     H(rot)  DE(clash)    DE(int)     intcor
     10.28     -11.91       0.83        0.00      91.12       2.73       0.02       1.62       ----

> <Gold.Chemscore.Fitness>
10.2758

> <Gold.Chemscore.DG>
-11.9148

> <Gold.Chemscore.ZeroCoef>
-5.4800

> <Gold.Chemscore.Hbond>
0.8270

> <Gold.Chemscore.Metal>
0.0000

> <Gold.Chemscore.Lipo>
91.1238

> <Gold.Chemscore.Internal_Hbond>
0.0000

> <Gold.Chemscore.DEClash>
0.0177

> <Gold.Chemscore.DEInternal>
1.6213

> <Gold.Chemscore.Rot>
2.7300

> <Gold.Chemscore.Internal.Correction>
   9.000000E+99

> <Gold.Chemscore.Hbonds>
donor molecule, donor type, donor heavy atom, donor atom, acceptor molecule, acceptor atom, score
      P1  H  7989  7998       L1     8  0.04

> <Gold.Chemscore.Hbond.Weighted>
-2.7620

> <Gold.Chemscore.Metal.Weighted>
-0.0000

> <Gold.Chemscore.Lipo.Weighted>
-10.6615

> <Gold.Chemscore.Internal_Hbond.Weighted>
0.0000

> <Gold.Chemscore.DEClash.Weighted>
0.0177

> <Gold.Chemscore.DEInternal.Weighted>
1.6213

> <Gold.Chemscore.Rot.Weighted>
6.9888

> <Gold.Chemscore.Internal.Correction.Weighted>
   9.000000E+99

> <Gold.Protein.RotatedTorsions>
[ 6907 6896 6895 6894 ] final   -1.37 input  -60.11 | X-H torsion
[ 7974 7965 7964 7962 ] final  162.60 input  175.53 | X-H torsion
[ 8008 7997 7996 7995 ] final  -28.98 input   59.86 | X-H torsion
[ 10167 10162 10161 10158 ] final  -48.95 input  -65.29 | X-H torsion
[ 10718 10713 10712 10709 ] final   83.15 input   66.30 | X-H torsion
[ 10763 10752 10751 10750 ] final -153.65 input  -60.55 | X-H torsion
[ 11005 11000 10999 10996 ] final   39.62 input  -57.11 | X-H torsion

> <Gold.Protein.ActiveResidues>
 VAL166  LYS551  ARG553  GLY616  TRP617  ASP618  TYR619  PRO620  LYS621  CYS622 
 ASP623  PHE694  ASN695  SER759  ASP760  ASP761  ALA762  ILE779  LEU786  VAL792 
 PHE793  MET794  SER795  GLU796  ALA797  LYS798  CYS799  TRP800  GLU811  SER814 

> <Gold.Protein.RotatedAtoms>
  151.5471  135.1068  159.9940 H   0  0  0  0  0  0  0  0  0  0  0  0  # atno 6907 bound_to 6896
  152.4508  133.7622  159.6763 H   0  0  0  0  0  0  0  0  0  0  0  0  # atno 6908 bound_to 6896
  150.8436  133.7829  159.3075 H   0  0  0  0  0  0  0  0  0  0  0  0  # atno 6909 bound_to 6896
  144.7629  139.8063  143.6326 H   0  0  0  0  0  0  0  0  0  0  0  0  # atno 7974 bound_to 7965
  154.4309  140.1830  156.1175 H   0  0  0  0  0  0  0  0  0  0  0  0  # atno 8008 bound_to 7997
  156.0169  140.3345  155.6973 H   0  0  0  0  0  0  0  0  0  0  0  0  # atno 8009 bound_to 7997
  155.6031  140.0642  157.2718 H   0  0  0  0  0  0  0  0  0  0  0  0  # atno 8010 bound_to 7997
  140.6708  143.2718  151.4144 H   0  0  0  0  0  0  0  0  0  0  0  0  # atno 10167 bound_to 10162
  157.6873  131.0078  150.2480 H   0  0  0  0  0  0  0  0  0  0  0  0  # atno 10718 bound_to 10713
  154.7913  135.3208  154.7770 H   0  0  0  0  0  0  0  0  0  0  0  0  # atno 10763 bound_to 10752
  153.8458  135.6867  153.4802 H   0  0  0  0  0  0  0  0  0  0  0  0  # atno 10764 bound_to 10752
  153.1585  135.4670  154.9679 H   0  0  0  0  0  0  0  0  0  0  0  0  # atno 10765 bound_to 10752
  140.2010  134.3871  155.8096 H   0  0  0  0  0  0  0  0  0  0  0  0  # atno 11005 bound_to 11000
  146.1709  139.4859  142.9928 LP  0  0  0  0  0  0  0  0  0  0  0  0  # atno 17320 bound_to 7965
  145.6563  141.0251  143.1733 LP  0  0  0  0  0  0  0  0  0  0  0  0  # atno 17321 bound_to 7965
  139.5975  144.1366  152.2161 LP  0  0  0  0  0  0  0  0  0  0  0  0  # atno 17342 bound_to 10162
  140.0739  144.5756  150.7171 LP  0  0  0  0  0  0  0  0  0  0  0  0  # atno 17343 bound_to 10162
  156.3082  130.3768  149.7686 LP  0  0  0  0  0  0  0  0  0  0  0  0  # atno 17370 bound_to 10713
  156.5295  130.8251  151.3232 LP  0  0  0  0  0  0  0  0  0  0  0  0  # atno 17371 bound_to 10713
  141.2227  133.7094  156.8257 LP  0  0  0  0  0  0  0  0  0  0  0  0  # atno 17394 bound_to 11000
  140.2054  134.8866  157.3216 LP  0  0  0  0  0  0  0  0  0  0  0  0  # atno 17395 bound_to 11000

$$$$
