AV-unprocessed.smi:1107|AV-procd|sdf|4783|dock8
  -GOLD-   22720 3323D 1   1.00000     0.00000
 Structure written by MMmdl.
 49 50  0  0  0  0  0  0  0  0  2 V2000
  151.1026  143.5897  157.5205 C   0  0  0  0  0  0  0  0  0  0  0  0
  150.9919  142.2663  156.7950 C   0  0  0  0  0  0  0  0  0  0  0  0
  149.9212  142.2007  155.9186 N   0  0  0  0  0  0  0  0  0  0  0  0
  149.7387  141.0290  155.2057 C   0  0  0  0  0  0  0  0  0  0  0  0
  148.5365  141.0336  154.2782 C   0  0  0  0  0  0  0  0  0  0  0  0
  150.5819  139.9767  155.3580 C   0  0  0  0  0  0  0  0  0  0  0  0
  150.4080  138.6547  154.6082 C   0  0  0  0  0  0  0  0  0  0  0  0
  150.2914  137.3825  155.4555 C   0  0  0  0  0  0  0  0  0  0  0  0
  150.5048  137.4413  156.6653 O   0  0  0  0  0  0  0  0  0  0  0  0
  149.9275  136.2503  154.8292 N   0  0  0  0  0  0  0  0  0  0  0  0
  149.7056  134.9468  155.4528 C   0  0  2  0  0  0  0  0  0  0  0  0
  150.9052  134.6118  156.3492 C   0  0  0  0  0  0  0  0  0  0  0  0
  149.4801  133.8546  154.3824 C   0  0  0  0  0  0  0  0  0  0  0  0
  148.2268  134.0513  153.6093 N   0  3  0  0  0  0  0  0  0  0  0  0
  147.9071  132.9034  152.7226 C   0  0  0  0  0  0  0  0  0  0  0  0
  146.6998  133.2221  151.8244 C   0  0  0  0  0  0  0  0  0  0  0  0
  145.4796  133.6257  152.6628 C   0  0  0  0  0  0  0  0  0  0  0  0
  145.8460  134.7848  153.5991 C   0  0  0  0  0  0  0  0  0  0  0  0
  147.0684  134.4292  154.4610 C   0  0  0  0  0  0  0  0  0  0  0  0
  151.7036  140.1022  156.3182 C   0  0  0  0  0  0  0  0  0  0  0  0
  152.4837  139.1720  156.5189 O   0  0  0  0  0  0  0  0  0  0  0  0
  151.8471  141.3137  157.0131 N   0  0  0  0  0  0  0  0  0  0  0  0
  149.2726  142.9613  155.7730 H   0  0  0  0  0  0  0  0  0  0  0  0
  151.9578  143.5935  158.1975 H   0  0  0  0  0  0  0  0  0  0  0  0
  150.2029  143.7785  158.1070 H   0  0  0  0  0  0  0  0  0  0  0  0
  151.2295  144.4047  156.8074 H   0  0  0  0  0  0  0  0  0  0  0  0
  148.8559  140.9311  153.2410 H   0  0  0  0  0  0  0  0  0  0  0  0
  147.9665  141.9600  154.3625 H   0  0  0  0  0  0  0  0  0  0  0  0
  147.8675  140.2064  154.5175 H   0  0  0  0  0  0  0  0  0  0  0  0
  151.2270  138.5216  153.9002 H   0  0  0  0  0  0  0  0  0  0  0  0
  149.5149  138.7136  153.9861 H   0  0  0  0  0  0  0  0  0  0  0  0
  149.7802  136.3005  153.8311 H   0  0  0  0  0  0  0  0  0  0  0  0
  148.8305  135.0011  156.1015 H   0  0  0  0  0  0  0  0  0  0  0  0
  150.7637  133.6547  156.8521 H   0  0  0  0  0  0  0  0  0  0  0  0
  151.0434  135.3704  157.1204 H   0  0  0  0  0  0  0  0  0  0  0  0
  151.8291  134.5514  155.7729 H   0  0  0  0  0  0  0  0  0  0  0  0
  150.3295  133.8769  153.6977 H   0  0  0  0  0  0  0  0  0  0  0  0
  149.4834  132.8611  154.8337 H   0  0  0  0  0  0  0  0  0  0  0  0
  148.7669  132.6729  152.0921 H   0  0  0  0  0  0  0  0  0  0  0  0
  147.7077  132.0177  153.3278 H   0  0  0  0  0  0  0  0  0  0  0  0
  146.9576  134.0317  151.1400 H   0  0  0  0  0  0  0  0  0  0  0  0
  146.4567  132.3588  151.2042 H   0  0  0  0  0  0  0  0  0  0  0  0
  144.6526  133.9126  152.0126 H   0  0  0  0  0  0  0  0  0  0  0  0
  145.1361  132.7722  153.2487 H   0  0  0  0  0  0  0  0  0  0  0  0
  146.0609  135.6785  153.0117 H   0  0  0  0  0  0  0  0  0  0  0  0
  144.9973  135.0307  154.2380 H   0  0  0  0  0  0  0  0  0  0  0  0
  146.8262  133.6070  155.1362 H   0  0  0  0  0  0  0  0  0  0  0  0
  147.3231  135.2848  155.0860 H   0  0  0  0  0  0  0  0  0  0  0  0
  148.4016  134.8340  152.9949 H   0  0  0  0  0  0  0  0  0  0  0  0
  1 24  1  0  0  0  0
  1 25  1  0  0  0  0
  1 26  1  0  0  0  0
  1  2  1  0  0  0  0
  2  3  1  0  0  0  0
  2 22  2  0  0  0  0
  3  4  1  0  0  0  0
  3 23  1  0  0  0  0
  4  6  2  0  0  0  0
  4  5  1  0  0  0  0
  5 27  1  0  0  0  0
  5 28  1  0  0  0  0
  5 29  1  0  0  0  0
  6 20  1  0  0  0  0
  6  7  1  0  0  0  0
  7  8  1  0  0  0  0
  7 30  1  0  0  0  0
  7 31  1  0  0  0  0
  8  9  2  0  0  0  0
  8 10  1  0  0  0  0
 10 11  1  0  0  0  0
 10 32  1  0  0  0  0
 11 12  1  0  0  0  0
 11 13  1  0  0  0  0
 11 33  1  0  0  0  0
 12 34  1  0  0  0  0
 12 35  1  0  0  0  0
 12 36  1  0  0  0  0
 13 14  1  0  0  0  0
 13 37  1  0  0  0  0
 13 38  1  0  0  0  0
 14 19  1  0  0  0  0
 14 15  1  0  0  0  0
 14 49  1  0  0  0  0
 15 16  1  0  0  0  0
 15 39  1  0  0  0  0
 15 40  1  0  0  0  0
 16 17  1  0  0  0  0
 16 41  1  0  0  0  0
 16 42  1  0  0  0  0
 17 18  1  0  0  0  0
 17 43  1  0  0  0  0
 17 44  1  0  0  0  0
 18 19  1  0  0  0  0
 18 45  1  0  0  0  0
 18 46  1  0  0  0  0
 19 47  1  0  0  0  0
 19 48  1  0  0  0  0
 20 21  2  0  0  0  0
 20 22  1  0  0  0  0
M  CHG  1  14   1
M  END
> <s_m_source_file>
AV-unprocessed.smi

> <i_m_source_file_index>
1107

> <i_lp_mmshare_version>
43012

> <i_f3d_flags>
0

> <s_epik_input>
W0NIM11jMW5jKFtDSDNdKWMoYyg9TylbbkhdMSlbQ0gyXUMoPU8pW05IXVtDQEhdKFtDSDNdKVtDSDJdTjJbQ0gyXVtDSDJdW0NIMl1bQ0gyXVtDSDJdMg==

> <s_epik_cmdline>
J2VwaWtfcHl0aG9uJywgJy1waCcsICc3LjAnLCAnLXRuJywgJzgnLCAnLW1hJywgJzIwMCcsICctbWV0YWxfYmluZGluZycsICctaW1hZScsICc8aW5maWxlLm1hZT4nLCAnLW9tYWUnLCAnPG91dGZpbGUubWFlPic=

> <r_lp_tautomer_probability>
0.156392

> <r_epik_Ionization_Penalty>
0.0190033

> <r_epik_Ionization_Penalty_Charging>
0.0189172

> <r_epik_Ionization_Penalty_Neutral>
8.60838e-05

> <r_epik_State_Penalty>
1.15342

> <r_epik_Charging_Adjusted_Penalty>
1.17233

> <i_epik_Tot_Q>
1

> <i_epik_Tot_abs_Q>
1

> <r_epik_Metal_State_Penalty>
1.34593

> <b_epik_Metal_Only>
0

> <s_lp_Force_Field>
OPLS_2005

> <r_lp_Energy>
27.2894

> <b_lp_Chiralities_Consistent>
1

> <s_lp_Variant>
AV-unprocessed.smi:1107-3

> <Gold.Version>
5.8.1

> <Gold.Id.Protein>
6NUR|6NUR_protein|mol2

> <Gold.PLP.Fitness>
51.0273

> <Gold.PLP.PLP>
-36.5404

> <Gold.PLP.part.hbond>
-3.9972

> <Gold.PLP.part.metal>
0.0000

> <Gold.PLP.part.buried>
0.0314

> <Gold.PLP.part.nonpolar>
-32.2002

> <Gold.PLP.part.repulsive>
0.1975

> <Gold.PLP.ligand.clash>
0.0000

> <Gold.PLP.ligand.torsion>
0.2876

> <Gold.PLP.Chemscore.Hbond>
5.0000

> <Gold.PLP.Chemscore.CHOScore>
0.0000

> <Gold.PLP.Chemscore.Metal>
0.0000

> <Gold.Chemscore.Hbonds>
donor molecule, donor type, donor heavy atom, donor atom, acceptor molecule, acceptor atom, score
      L1  H     3    23       P1  8028  1.00
      L1  H    10    32       P1  7948  0.83
      L1  H    14    49       P1  7948  2.00
      P1  H  7997  8008       L1    21  0.88

> <Gold.PLP.Chemscore.Internal.Correction>
0.0621

> <Gold.Rescore>
     Score         DG    S(hbond)    S(metal)    S(lipo)     H(rot)  DE(clash)    DE(int)     intcor
     15.21     -19.47       3.20        0.00      71.66       1.98       1.53       2.73       ----

> <Gold.Chemscore.Fitness>
15.2081

> <Gold.Chemscore.DG>
-19.4675

> <Gold.Chemscore.ZeroCoef>
-5.4800

> <Gold.Chemscore.Hbond>
3.1980

> <Gold.Chemscore.Metal>
0.0000

> <Gold.Chemscore.Lipo>
71.6635

> <Gold.Chemscore.Internal_Hbond>
0.0000

> <Gold.Chemscore.DEClash>
1.5324

> <Gold.Chemscore.DEInternal>
2.7270

> <Gold.Chemscore.Rot>
1.9837

> <Gold.Chemscore.Internal.Correction>
   9.000000E+99

> <Gold.Chemscore.Hbonds>
donor molecule, donor type, donor heavy atom, donor atom, acceptor molecule, acceptor atom, score
      L1  H     3    23       P1  8028  0.96
      L1  H    10    32       P1  7948  0.32
      L1  H    14    49       P1  7948  0.60
      P1  H  7997  8008       L1    21  0.38

> <Gold.Chemscore.Hbond.Weighted>
-10.6812

> <Gold.Chemscore.Metal.Weighted>
-0.0000

> <Gold.Chemscore.Lipo.Weighted>
-8.3846

> <Gold.Chemscore.Internal_Hbond.Weighted>
0.0000

> <Gold.Chemscore.DEClash.Weighted>
1.5324

> <Gold.Chemscore.DEInternal.Weighted>
2.7270

> <Gold.Chemscore.Rot.Weighted>
5.0783

> <Gold.Chemscore.Internal.Correction.Weighted>
   9.000000E+99

> <Gold.Protein.RotatedTorsions>
[ 6907 6896 6895 6894 ] final   56.73 input  -60.11 | X-H torsion
[ 7974 7965 7964 7962 ] final -177.83 input  175.53 | X-H torsion
[ 8008 7997 7996 7995 ] final  -54.07 input   59.86 | X-H torsion
[ 10167 10162 10161 10158 ] final -120.85 input  -65.29 | X-H torsion
[ 10718 10713 10712 10709 ] final   28.53 input   66.30 | X-H torsion
[ 10763 10752 10751 10750 ] final -141.98 input  -60.55 | X-H torsion
[ 11005 11000 10999 10996 ] final  -56.98 input  -57.11 | X-H torsion

> <Gold.Protein.ActiveResidues>
 VAL166  LYS551  ARG553  GLY616  TRP617  ASP618  TYR619  PRO620  LYS621  CYS622 
 ASP623  PHE694  ASN695  SER759  ASP760  ASP761  ALA762  ILE779  LEU786  VAL792 
 PHE793  MET794  SER795  GLU796  ALA797  LYS798  CYS799  TRP800  GLU811  SER814 

> <Gold.Protein.RotatedAtoms>
  152.3664  134.6798  160.0190 H   0  0  0  0  0  0  0  0  0  0  0  0  # atno 6907 bound_to 6896
  151.7105  133.3307  159.3297 H   0  0  0  0  0  0  0  0  0  0  0  0  # atno 6908 bound_to 6896
  150.7641  134.6471  159.6312 H   0  0  0  0  0  0  0  0  0  0  0  0  # atno 6909 bound_to 6896
  144.7129  140.0960  143.6419 H   0  0  0  0  0  0  0  0  0  0  0  0  # atno 7974 bound_to 7965
  154.4151  140.1185  156.5255 H   0  0  0  0  0  0  0  0  0  0  0  0  # atno 8008 bound_to 7997
  155.6659  140.3496  155.4780 H   0  0  0  0  0  0  0  0  0  0  0  0  # atno 8009 bound_to 7997
  155.9674  140.1135  157.0832 H   0  0  0  0  0  0  0  0  0  0  0  0  # atno 8010 bound_to 7997
  140.0314  143.5244  152.2174 H   0  0  0  0  0  0  0  0  0  0  0  0  # atno 10167 bound_to 10162
  157.2346  130.7040  149.6329 H   0  0  0  0  0  0  0  0  0  0  0  0  # atno 10718 bound_to 10713
  154.8526  135.3509  154.5954 H   0  0  0  0  0  0  0  0  0  0  0  0  # atno 10763 bound_to 10752
  153.6563  135.6992  153.5196 H   0  0  0  0  0  0  0  0  0  0  0  0  # atno 10764 bound_to 10752
  153.2853  135.4251  155.1074 H   0  0  0  0  0  0  0  0  0  0  0  0  # atno 10765 bound_to 10752
  141.1144  133.6610  156.4701 H   0  0  0  0  0  0  0  0  0  0  0  0  # atno 11005 bound_to 11000
  145.9579  139.2779  143.1173 LP  0  0  0  0  0  0  0  0  0  0  0  0  # atno 17320 bound_to 7965
  145.9253  140.9087  143.0384 LP  0  0  0  0  0  0  0  0  0  0  0  0  # atno 17321 bound_to 7965
  139.6073  144.7600  151.3031 LP  0  0  0  0  0  0  0  0  0  0  0  0  # atno 17342 bound_to 10162
  140.7300  143.6891  150.7937 LP  0  0  0  0  0  0  0  0  0  0  0  0  # atno 17343 bound_to 10162
  155.9673  130.4477  150.5593 LP  0  0  0  0  0  0  0  0  0  0  0  0  # atno 17370 bound_to 10713
  157.3442  131.0722  151.1764 LP  0  0  0  0  0  0  0  0  0  0  0  0  # atno 17371 bound_to 10713
  140.4686  134.6775  157.5118 LP  0  0  0  0  0  0  0  0  0  0  0  0  # atno 17394 bound_to 11000
  140.0058  134.6767  155.9458 LP  0  0  0  0  0  0  0  0  0  0  0  0  # atno 17395 bound_to 11000

$$$$
