AV-unprocessed.smi:739|AV-procd|sdf|3544|dock5
  -GOLD-   22720 0533D 1   1.00000     0.00000
 Structure written by MMmdl.
 33 35  0  0  0  0  0  0  0  0  2 V2000
  151.9607  139.4938  154.5483 O   0  0  0  0  0  0  0  0  0  0  0  0
  151.1948  139.0749  155.6581 C   0  0  2  0  0  0  0  0  0  0  0  0
  151.8068  139.7026  156.9264 C   0  0  0  0  0  0  0  0  0  0  0  0
  151.3802  141.0927  157.1305 N   0  0  0  0  0  0  0  0  0  0  0  0
  150.6697  141.9181  156.3145 C   0  0  0  0  0  0  0  0  0  0  0  0
  150.5400  143.1142  156.9529 N   0  3  0  0  0  0  0  0  0  0  0  0
  151.1745  143.0509  158.1959 C   0  0  0  0  0  0  0  0  0  0  0  0
  151.3137  144.0042  159.1995 C   0  0  0  0  0  0  0  0  0  0  0  0
  152.0275  143.6139  160.3521 C   0  0  0  0  0  0  0  0  0  0  0  0
  152.1920  144.5031  161.3598 F   0  0  0  0  0  0  0  0  0  0  0  0
  152.5723  142.3177  160.4743 C   0  0  0  0  0  0  0  0  0  0  0  0
  153.2514  141.9842  161.5972 F   0  0  0  0  0  0  0  0  0  0  0  0
  152.4246  141.3597  159.4496 C   0  0  0  0  0  0  0  0  0  0  0  0
  151.7167  141.7544  158.3158 C   0  0  0  0  0  0  0  0  0  0  0  0
  151.1005  137.5583  155.7533 C   0  0  0  0  0  0  0  0  0  0  0  0
  151.6073  136.8752  156.8811 C   0  0  0  0  0  0  0  0  0  0  0  0
  151.5031  135.4733  156.9681 C   0  0  0  0  0  0  0  0  0  0  0  0
  150.8910  134.7462  155.9294 C   0  0  0  0  0  0  0  0  0  0  0  0
  150.7898  133.3987  156.0137 F   0  0  0  0  0  0  0  0  0  0  0  0
  150.3813  135.4219  154.8041 C   0  0  0  0  0  0  0  0  0  0  0  0
  150.4850  136.8239  154.7166 C   0  0  0  0  0  0  0  0  0  0  0  0
  152.0949  138.7515  153.9785 H   0  0  0  0  0  0  0  0  0  0  0  0
  150.1922  139.4770  155.5077 H   0  0  0  0  0  0  0  0  0  0  0  0
  151.5231  139.1344  157.8135 H   0  0  0  0  0  0  0  0  0  0  0  0
  152.8969  139.6856  156.8846 H   0  0  0  0  0  0  0  0  0  0  0  0
  150.2848  141.6703  155.3354 H   0  0  0  0  0  0  0  0  0  0  0  0
  150.8995  144.9974  159.1098 H   0  0  0  0  0  0  0  0  0  0  0  0
  152.8456  140.3705  159.5526 H   0  0  0  0  0  0  0  0  0  0  0  0
  152.0757  137.4243  157.6849 H   0  0  0  0  0  0  0  0  0  0  0  0
  151.8923  134.9561  157.8328 H   0  0  0  0  0  0  0  0  0  0  0  0
  149.9098  134.8647  154.0079 H   0  0  0  0  0  0  0  0  0  0  0  0
  150.0865  137.3333  153.8514 H   0  0  0  0  0  0  0  0  0  0  0  0
  150.0533  143.9127  156.5658 H   0  0  0  0  0  0  0  0  0  0  0  0
  1  2  1  0  0  0  0
  1 22  1  0  0  0  0
  2  3  1  0  0  0  0
  2 15  1  0  0  0  0
  2 23  1  0  0  0  0
  3  4  1  0  0  0  0
  3 24  1  0  0  0  0
  3 25  1  0  0  0  0
  4 14  1  0  0  0  0
  4  5  1  0  0  0  0
  5  6  2  0  0  0  0
  5 26  1  0  0  0  0
  6  7  1  0  0  0  0
  6 33  1  0  0  0  0
  7 14  2  0  0  0  0
  7  8  1  0  0  0  0
  8  9  2  0  0  0  0
  8 27  1  0  0  0  0
  9 10  1  0  0  0  0
  9 11  1  0  0  0  0
 11 12  1  0  0  0  0
 11 13  2  0  0  0  0
 13 14  1  0  0  0  0
 13 28  1  0  0  0  0
 15 21  1  0  0  0  0
 15 16  2  0  0  0  0
 16 17  1  0  0  0  0
 16 29  1  0  0  0  0
 17 18  2  0  0  0  0
 17 30  1  0  0  0  0
 18 19  1  0  0  0  0
 18 20  1  0  0  0  0
 20 21  2  0  0  0  0
 20 31  1  0  0  0  0
 21 32  1  0  0  0  0
M  CHG  1   6   1
M  END
> <s_m_source_file>
AV-unprocessed.smi

> <i_m_source_file_index>
739

> <i_lp_mmshare_version>
43012

> <i_f3d_flags>
0

> <s_epik_input>
W2NIXTFbY0hdYyhGKVtjSF1bY0hdYzFbQ0BIXShbT0hdKVtDSDJdbihbY0hdbjIpYyhjMjMpW2NIXWMoRiljKEYpW2NIXTM=

> <s_epik_cmdline>
J2VwaWtfcHl0aG9uJywgJy1waCcsICc3LjAnLCAnLXRuJywgJzgnLCAnLW1hJywgJzIwMCcsICctbWV0YWxfYmluZGluZycsICctaW1hZScsICc8aW5maWxlLm1hZT4nLCAnLW9tYWUnLCAnPG91dGZpbGUubWFlPic=

> <r_epik_Ionization_Penalty>
2.16139

> <r_epik_Ionization_Penalty_Charging>
2.16138

> <r_epik_Ionization_Penalty_Neutral>
1.79538e-06

> <r_epik_State_Penalty>
2.30198

> <r_epik_Charging_Adjusted_Penalty>
4.46337

> <i_epik_Tot_Q>
1

> <i_epik_Tot_abs_Q>
1

> <r_epik_Metal_State_Penalty>
6.38245

> <b_epik_Metal_Only>
0

> <s_lp_Force_Field>
OPLS_2005

> <r_lp_Energy>
16.88

> <b_lp_Chiralities_Consistent>
1

> <s_lp_Variant>
AV-unprocessed.smi:739-3

> <Gold.Version>
5.8.1

> <Gold.Id.Protein>
6NUR|6NUR_protein|mol2

> <Gold.PLP.Fitness>
50.4332

> <Gold.PLP.PLP>
-42.3347

> <Gold.PLP.part.hbond>
-2.0000

> <Gold.PLP.part.metal>
0.0000

> <Gold.PLP.part.buried>
-3.6314

> <Gold.PLP.part.nonpolar>
-37.5626

> <Gold.PLP.part.repulsive>
0.0218

> <Gold.PLP.ligand.clash>
0.0000

> <Gold.PLP.ligand.torsion>
0.3262

> <Gold.PLP.Chemscore.Hbond>
2.9120

> <Gold.PLP.Chemscore.CHOScore>
0.0000

> <Gold.PLP.Chemscore.Metal>
0.0000

> <Gold.Chemscore.Hbonds>
donor molecule, donor type, donor heavy atom, donor atom, acceptor molecule, acceptor atom, score
      L1  H     6    33       P1  8028  2.00
      P1  H  7989  7998       L1     1  0.93

> <Gold.PLP.Chemscore.Internal.Correction>
0.0150

> <Gold.Rescore>
     Score         DG    S(hbond)    S(metal)    S(lipo)     H(rot)  DE(clash)    DE(int)     intcor
     17.49     -17.95       1.89        0.00      99.05       2.12       0.04       0.42       ----

> <Gold.Chemscore.Fitness>
17.4878

> <Gold.Chemscore.DG>
-17.9483

> <Gold.Chemscore.ZeroCoef>
-5.4800

> <Gold.Chemscore.Hbond>
1.8865

> <Gold.Chemscore.Metal>
0.0000

> <Gold.Chemscore.Lipo>
99.0469

> <Gold.Chemscore.Internal_Hbond>
0.0000

> <Gold.Chemscore.DEClash>
0.0376

> <Gold.Chemscore.DEInternal>
0.4229

> <Gold.Chemscore.Rot>
2.1176

> <Gold.Chemscore.Internal.Correction>
   9.000000E+99

> <Gold.Chemscore.Hbonds>
donor molecule, donor type, donor heavy atom, donor atom, acceptor molecule, acceptor atom, score
      L1  H     6    33       P1  8028  0.99
      P1  H  7989  7998       L1     1  0.49

> <Gold.Chemscore.Hbond.Weighted>
-6.3009

> <Gold.Chemscore.Metal.Weighted>
-0.0000

> <Gold.Chemscore.Lipo.Weighted>
-11.5885

> <Gold.Chemscore.Internal_Hbond.Weighted>
0.0000

> <Gold.Chemscore.DEClash.Weighted>
0.0376

> <Gold.Chemscore.DEInternal.Weighted>
0.4229

> <Gold.Chemscore.Rot.Weighted>
5.4211

> <Gold.Chemscore.Internal.Correction.Weighted>
   9.000000E+99

> <Gold.Protein.RotatedTorsions>
[ 6907 6896 6895 6894 ] final   52.31 input  -60.11 | X-H torsion
[ 7974 7965 7964 7962 ] final   72.03 input  175.53 | X-H torsion
[ 8008 7997 7996 7995 ] final -105.56 input   59.86 | X-H torsion
[ 10167 10162 10161 10158 ] final  131.13 input  -65.29 | X-H torsion
[ 10718 10713 10712 10709 ] final  -24.87 input   66.30 | X-H torsion
[ 10763 10752 10751 10750 ] final    7.28 input  -60.55 | X-H torsion
[ 11005 11000 10999 10996 ] final -138.28 input  -57.11 | X-H torsion

> <Gold.Protein.ActiveResidues>
 VAL166  LYS551  ARG553  GLY616  TRP617  ASP618  TYR619  PRO620  LYS621  CYS622 
 ASP623  PHE694  ASN695  SER759  ASP760  ASP761  ALA762  ILE779  LEU786  VAL792 
 PHE793  MET794  SER795  GLU796  ALA797  LYS798  CYS799  TRP800  GLU811  SER814 

> <Gold.Protein.RotatedAtoms>
  152.3220  134.7369  160.0311 H   0  0  0  0  0  0  0  0  0  0  0  0  # atno 6907 bound_to 6896
  151.7814  133.3345  159.3481 H   0  0  0  0  0  0  0  0  0  0  0  0  # atno 6908 bound_to 6896
  150.7375  134.5858  159.6006 H   0  0  0  0  0  0  0  0  0  0  0  0  # atno 6909 bound_to 6896
  145.7584  139.2790  143.1390 H   0  0  0  0  0  0  0  0  0  0  0  0  # atno 7974 bound_to 7965
  154.9016  140.0412  157.1896 H   0  0  0  0  0  0  0  0  0  0  0  0  # atno 8008 bound_to 7997
  154.8438  140.2918  155.5621 H   0  0  0  0  0  0  0  0  0  0  0  0  # atno 8009 bound_to 7997
  156.2993  140.2478  156.3385 H   0  0  0  0  0  0  0  0  0  0  0  0  # atno 8010 bound_to 7997
  139.5398  144.6719  151.4664 H   0  0  0  0  0  0  0  0  0  0  0  0  # atno 10167 bound_to 10162
  156.4720  130.4526  149.6864 H   0  0  0  0  0  0  0  0  0  0  0  0  # atno 10718 bound_to 10713
  153.2381  135.6900  153.7814 H   0  0  0  0  0  0  0  0  0  0  0  0  # atno 10763 bound_to 10752
  153.6953  135.3306  155.3213 H   0  0  0  0  0  0  0  0  0  0  0  0  # atno 10764 bound_to 10752
  154.8343  135.4555  154.1292 H   0  0  0  0  0  0  0  0  0  0  0  0  # atno 10765 bound_to 10752
  140.8631  134.2144  157.4695 H   0  0  0  0  0  0  0  0  0  0  0  0  # atno 11005 bound_to 11000
  146.0288  140.8278  142.9886 LP  0  0  0  0  0  0  0  0  0  0  0  0  # atno 17320 bound_to 7965
  144.6835  140.2738  143.7302 LP  0  0  0  0  0  0  0  0  0  0  0  0  # atno 17321 bound_to 7965
  140.6622  143.8474  150.6901 LP  0  0  0  0  0  0  0  0  0  0  0  0  # atno 17342 bound_to 10162
  140.1872  143.4066  152.1890 LP  0  0  0  0  0  0  0  0  0  0  0  0  # atno 17343 bound_to 10162
  156.3609  130.7481  151.2453 LP  0  0  0  0  0  0  0  0  0  0  0  0  # atno 17370 bound_to 10713
  157.7490  131.0350  150.4345 LP  0  0  0  0  0  0  0  0  0  0  0  0  # atno 17371 bound_to 10713
  139.8708  134.9739  156.4826 LP  0  0  0  0  0  0  0  0  0  0  0  0  # atno 17394 bound_to 11000
  140.8660  133.8024  155.9314 LP  0  0  0  0  0  0  0  0  0  0  0  0  # atno 17395 bound_to 11000

$$$$
