AV-unprocessed.smi:1648|AV-procd|sdf|6633|dock4
  -GOLD-   22720 7333D 1   1.00000     0.00000
 Structure written by MMmdl.
 41 41  0  0  0  0  0  0  0  0  1 V2000
  150.6590  135.3440  155.4355 C   0  0  0  0  0  0  0  0  0  0  0  0
  149.5279  136.3391  155.7022 C   0  0  0  0  0  0  0  0  0  0  0  0
  149.2932  136.6911  156.8559 O   0  0  0  0  0  0  0  0  0  0  0  0
  148.8066  136.8088  154.6693 N   0  0  0  0  0  0  0  0  0  0  0  0
  147.6923  137.7600  154.7188 C   0  0  2  0  0  0  0  0  0  0  0  0
  146.4080  137.0383  154.2676 C   0  0  0  0  0  0  0  0  0  0  0  0
  145.3765  137.1163  154.9368 O   0  0  0  0  0  0  0  0  0  0  0  0
  146.4955  136.3312  153.1302 N   0  0  0  0  0  0  0  0  0  0  0  0
  145.4091  135.5746  152.5159 C   0  0  1  0  0  0  0  0  0  0  0  0
  144.1907  136.4890  152.2865 C   0  0  0  0  0  0  0  0  0  0  0  0
  145.9284  134.9162  151.2221 C   0  0  0  0  0  0  0  0  0  0  0  0
  145.3241  133.6227  150.9648 N   0  0  0  0  0  0  0  0  0  0  0  0
  143.9733  133.3450  150.7990 C   0  0  0  0  0  0  0  0  0  0  0  0
  143.8752  131.9905  150.5743 C   0  0  0  0  0  0  0  0  0  0  0  0
  145.1455  131.4192  150.5919 N   0  0  0  0  0  0  0  0  0  0  0  0
  145.9516  132.4467  150.8257 C   0  0  0  0  0  0  0  0  0  0  0  0
  148.0003  138.9445  153.7554 C   0  0  0  0  0  0  0  0  0  0  0  0
  149.2363  139.7474  154.2078 C   0  0  0  0  0  0  0  0  0  0  0  0
  146.8088  139.9107  153.5865 C   0  0  0  0  0  0  0  0  0  0  0  0
  150.2701  134.4282  154.9900 H   0  0  0  0  0  0  0  0  0  0  0  0
  151.1606  135.0753  156.3659 H   0  0  0  0  0  0  0  0  0  0  0  0
  151.4053  135.7719  154.7661 H   0  0  0  0  0  0  0  0  0  0  0  0
  149.0436  136.4578  153.7526 H   0  0  0  0  0  0  0  0  0  0  0  0
  147.5705  138.1477  155.7317 H   0  0  0  0  0  0  0  0  0  0  0  0
  147.3837  136.3201  152.6500 H   0  0  0  0  0  0  0  0  0  0  0  0
  145.1120  134.7761  153.1985 H   0  0  0  0  0  0  0  0  0  0  0  0
  143.3393  135.9307  151.8968 H   0  0  0  0  0  0  0  0  0  0  0  0
  144.4213  137.2843  151.5772 H   0  0  0  0  0  0  0  0  0  0  0  0
  143.8662  136.9574  153.2163 H   0  0  0  0  0  0  0  0  0  0  0  0
  145.7357  135.5623  150.3642 H   0  0  0  0  0  0  0  0  0  0  0  0
  147.0098  134.7812  151.2748 H   0  0  0  0  0  0  0  0  0  0  0  0
  143.2144  134.1115  150.8561 H   0  0  0  0  0  0  0  0  0  0  0  0
  142.9956  131.3884  150.4012 H   0  0  0  0  0  0  0  0  0  0  0  0
  147.0241  132.3410  150.9003 H   0  0  0  0  0  0  0  0  0  0  0  0
  148.2288  138.5382  152.7683 H   0  0  0  0  0  0  0  0  0  0  0  0
  149.0965  140.1555  155.2093 H   0  0  0  0  0  0  0  0  0  0  0  0
  149.4299  140.5829  153.5343 H   0  0  0  0  0  0  0  0  0  0  0  0
  150.1393  139.1368  154.2201 H   0  0  0  0  0  0  0  0  0  0  0  0
  146.4943  140.3207  154.5467 H   0  0  0  0  0  0  0  0  0  0  0  0
  145.9451  139.4256  153.1316 H   0  0  0  0  0  0  0  0  0  0  0  0
  147.0729  140.7490  152.9410 H   0  0  0  0  0  0  0  0  0  0  0  0
  1  2  1  0  0  0  0
  1 20  1  0  0  0  0
  1 21  1  0  0  0  0
  1 22  1  0  0  0  0
  2  3  2  0  0  0  0
  2  4  1  0  0  0  0
  4  5  1  0  0  0  0
  4 23  1  0  0  0  0
  5  6  1  0  0  0  0
  5 17  1  0  0  0  0
  5 24  1  0  0  0  0
  6  7  2  0  0  0  0
  6  8  1  0  0  0  0
  8  9  1  0  0  0  0
  8 25  1  0  0  0  0
  9 10  1  0  0  0  0
  9 11  1  0  0  0  0
  9 26  1  0  0  0  0
 10 27  1  0  0  0  0
 10 28  1  0  0  0  0
 10 29  1  0  0  0  0
 11 12  1  0  0  0  0
 11 30  1  0  0  0  0
 11 31  1  0  0  0  0
 12 16  1  0  0  0  0
 12 13  1  0  0  0  0
 13 14  2  0  0  0  0
 13 32  1  0  0  0  0
 14 15  1  0  0  0  0
 14 33  1  0  0  0  0
 15 16  2  0  0  0  0
 16 34  1  0  0  0  0
 17 18  1  0  0  0  0
 17 19  1  0  0  0  0
 17 35  1  0  0  0  0
 18 36  1  0  0  0  0
 18 37  1  0  0  0  0
 18 38  1  0  0  0  0
 19 39  1  0  0  0  0
 19 40  1  0  0  0  0
 19 41  1  0  0  0  0
M  END
> <s_m_source_file>
AV-unprocessed.smi

> <i_m_source_file_index>
1648

> <i_lp_mmshare_version>
43012

> <i_f3d_flags>
0

> <s_epik_input>
W0NIM11DKD1PKVtOSF1bQ0BASF0oW0NIXShbQ0gzXSlbQ0gzXSlDKD1PKVtOSF1bQ0BIXShbQ0gzXSlbQ0gyXW4xW2NIXVtjSF1uW2NIXTE=

> <s_epik_cmdline>
J2VwaWtfcHl0aG9uJywgJy1waCcsICc3LjAnLCAnLXRuJywgJzgnLCAnLW1hJywgJzIwMCcsICctbWV0YWxfYmluZGluZycsICctaW1hZScsICc8aW5maWxlLm1hZT4nLCAnLW9tYWUnLCAnPG91dGZpbGUubWFlPic=

> <r_lp_tautomer_probability>
1

> <r_epik_Ionization_Penalty>
0.628885

> <r_epik_Ionization_Penalty_Charging>
0.628884

> <r_epik_Ionization_Penalty_Neutral>
4.35155e-07

> <r_epik_State_Penalty>
0.64556

> <r_epik_Charging_Adjusted_Penalty>
1.27444

> <i_epik_Tot_Q>
0

> <i_epik_Tot_abs_Q>
0

> <r_epik_Metal_State_Penalty>
0.30874

> <b_epik_Metal_Only>
0

> <s_lp_Force_Field>
OPLS_2005

> <r_lp_Energy>
9.63914

> <b_lp_Chiralities_Consistent>
1

> <s_lp_Variant>
AV-unprocessed.smi:1648-7

> <Gold.Version>
5.8.1

> <Gold.Id.Protein>
6NUR|6NUR_protein|mol2

> <Gold.PLP.Fitness>
40.9564

> <Gold.PLP.PLP>
-27.3777

> <Gold.PLP.part.hbond>
-2.0000

> <Gold.PLP.part.metal>
0.0000

> <Gold.PLP.part.buried>
-3.9561

> <Gold.PLP.part.nonpolar>
-21.8950

> <Gold.PLP.part.repulsive>
0.1405

> <Gold.PLP.ligand.clash>
0.0000

> <Gold.PLP.ligand.torsion>
0.7178

> <Gold.PLP.Chemscore.Hbond>
2.0000

> <Gold.PLP.Chemscore.CHOScore>
2.9719

> <Gold.PLP.Chemscore.Metal>
0.0000

> <Gold.Chemscore.Hbonds>
donor molecule, donor type, donor heavy atom, donor atom, acceptor molecule, acceptor atom, score
      L1  H     4    23       P1  7948  1.00
      L1  H     8    25       P1  7948  1.00
      L1  C    13    32       P1 10186  0.88
      L1  C    14    33       P1 10952  0.95
      L1  C    16    34       P1 10747  1.00

> <Gold.PLP.Chemscore.Internal.Correction>
0.0986

> <Gold.Rescore>
     Score         DG    S(hbond)    S(metal)    S(lipo)     H(rot)  DE(clash)    DE(int)     intcor
     11.65     -12.14       2.00        0.00      55.05       2.52       0.03       0.47       ----

> <Gold.Chemscore.Fitness>
11.6451

> <Gold.Chemscore.DG>
-12.1366

> <Gold.Chemscore.ZeroCoef>
-5.4800

> <Gold.Chemscore.Hbond>
1.9974

> <Gold.Chemscore.Metal>
0.0000

> <Gold.Chemscore.Lipo>
55.0483

> <Gold.Chemscore.Internal_Hbond>
0.0000

> <Gold.Chemscore.DEClash>
0.0256

> <Gold.Chemscore.DEInternal>
0.4659

> <Gold.Chemscore.Rot>
2.5216

> <Gold.Chemscore.Internal.Correction>
   9.000000E+99

> <Gold.Chemscore.Hbonds>
donor molecule, donor type, donor heavy atom, donor atom, acceptor molecule, acceptor atom, score
      L1  H     4    23       P1  7948  0.99
      L1  H     8    25       P1  7948  1.00

> <Gold.Chemscore.Hbond.Weighted>
-6.6712

> <Gold.Chemscore.Metal.Weighted>
-0.0000

> <Gold.Chemscore.Lipo.Weighted>
-6.4406

> <Gold.Chemscore.Internal_Hbond.Weighted>
0.0000

> <Gold.Chemscore.DEClash.Weighted>
0.0256

> <Gold.Chemscore.DEInternal.Weighted>
0.4659

> <Gold.Chemscore.Rot.Weighted>
6.4553

> <Gold.Chemscore.Internal.Correction.Weighted>
   9.000000E+99

> <Gold.Protein.RotatedTorsions>
[ 6907 6896 6895 6894 ] final  -46.18 input  -60.11 | X-H torsion
[ 7974 7965 7964 7962 ] final -115.81 input  175.53 | X-H torsion
[ 8008 7997 7996 7995 ] final    0.59 input   59.86 | X-H torsion
[ 10167 10162 10161 10158 ] final -129.88 input  -65.29 | X-H torsion
[ 10718 10713 10712 10709 ] final  151.60 input   66.30 | X-H torsion
[ 10763 10752 10751 10750 ] final -174.79 input  -60.55 | X-H torsion
[ 11005 11000 10999 10996 ] final -116.49 input  -57.11 | X-H torsion

> <Gold.Protein.ActiveResidues>
 VAL166  LYS551  ARG553  GLY616  TRP617  ASP618  TYR619  PRO620  LYS621  CYS622 
 ASP623  PHE694  ASN695  SER759  ASP760  ASP761  ALA762  ILE779  LEU786  VAL792 
 PHE793  MET794  SER795  GLU796  ALA797  LYS798  CYS799  TRP800  GLU811  SER814 

> <Gold.Protein.RotatedAtoms>
  150.9140  134.8557  159.7444 H   0  0  0  0  0  0  0  0  0  0  0  0  # atno 6907 bound_to 6896
  152.4959  134.4317  159.9524 H   0  0  0  0  0  0  0  0  0  0  0  0  # atno 6908 bound_to 6896
  151.4356  133.3618  159.2810 H   0  0  0  0  0  0  0  0  0  0  0  0  # atno 6909 bound_to 6896
  145.1041  140.8570  143.3909 H   0  0  0  0  0  0  0  0  0  0  0  0  # atno 7974 bound_to 7965
  154.6698  140.2609  155.7019 H   0  0  0  0  0  0  0  0  0  0  0  0  # atno 8008 bound_to 7997
  156.2654  140.2831  156.1125 H   0  0  0  0  0  0  0  0  0  0  0  0  # atno 8009 bound_to 7997
  155.1185  140.0376  157.2733 H   0  0  0  0  0  0  0  0  0  0  0  0  # atno 8010 bound_to 7997
  139.9351  143.6227  152.2519 H   0  0  0  0  0  0  0  0  0  0  0  0  # atno 10167 bound_to 10162
  157.2686  131.0812  151.1616 H   0  0  0  0  0  0  0  0  0  0  0  0  # atno 10718 bound_to 10713
  154.5920  135.2846  155.0625 H   0  0  0  0  0  0  0  0  0  0  0  0  # atno 10763 bound_to 10752
  154.1922  135.6439  153.5067 H   0  0  0  0  0  0  0  0  0  0  0  0  # atno 10764 bound_to 10752
  153.0125  135.5449  154.6609 H   0  0  0  0  0  0  0  0  0  0  0  0  # atno 10765 bound_to 10752
  141.0419  133.9823  157.2981 H   0  0  0  0  0  0  0  0  0  0  0  0  # atno 11005 bound_to 11000
  145.0922  139.2882  143.5729 LP  0  0  0  0  0  0  0  0  0  0  0  0  # atno 17320 bound_to 7965
  146.3529  140.0463  142.8639 LP  0  0  0  0  0  0  0  0  0  0  0  0  # atno 17321 bound_to 7965
  139.6750  144.7659  151.1713 LP  0  0  0  0  0  0  0  0  0  0  0  0  # atno 17342 bound_to 10162
  140.7626  143.5808  150.8896 LP  0  0  0  0  0  0  0  0  0  0  0  0  # atno 17343 bound_to 10162
  157.3097  130.6883  149.6209 LP  0  0  0  0  0  0  0  0  0  0  0  0  # atno 17370 bound_to 10713
  155.9663  130.4367  150.5146 LP  0  0  0  0  0  0  0  0  0  0  0  0  # atno 17371 bound_to 10713
  139.9282  135.0201  156.8308 LP  0  0  0  0  0  0  0  0  0  0  0  0  # atno 17394 bound_to 11000
  140.6219  133.9986  155.7622 LP  0  0  0  0  0  0  0  0  0  0  0  0  # atno 17395 bound_to 11000

$$$$
