AV-unprocessed.smi:2302|AV-procd|sdf|9237|dock5
  -GOLD-   2272012453D 1   1.00000     0.00000
 Structure written by MMmdl.
 40 41  0  0  0  0  0  0  0  0  2 V2000
  145.0313  132.0265  150.2353 C   0  0  0  0  0  0  0  0  0  0  0  0
  144.6733  133.2393  151.0685 C   0  0  0  0  0  0  0  0  0  0  0  0
  143.4324  133.3220  151.7297 C   0  0  0  0  0  0  0  0  0  0  0  0
  143.1594  134.4764  152.4849 C   0  0  0  0  0  0  0  0  0  0  0  0
  144.1305  135.4945  152.5454 C   0  0  0  0  0  0  0  0  0  0  0  0
  145.3500  135.3341  151.8500 C   0  0  0  0  0  0  0  0  0  0  0  0
  146.2613  136.4169  151.9727 N   0  0  0  0  0  0  0  0  0  0  0  0
  145.9954  137.6907  152.3113 C   0  0  0  0  0  0  0  0  0  0  0  0
  144.8803  138.1414  152.5761 O   0  0  0  0  0  0  0  0  0  0  0  0
  147.1105  138.4353  152.3272 N   0  0  0  0  0  0  0  0  0  0  0  0
  147.1607  139.8525  152.6712 C   0  0  0  0  0  0  0  0  0  0  0  0
  147.9317  140.1024  153.9798 C   0  0  1  0  0  0  0  0  0  0  0  0
  148.1981  141.6058  154.2074 C   0  0  0  0  0  0  0  0  0  0  0  0
  148.8492  141.8519  155.5166 N   0  3  2  0  0  0  0  0  0  0  0  0
  150.2995  141.5496  155.5292 C   0  0  0  0  0  0  0  0  0  0  0  0
  148.0958  141.2069  156.6179 C   0  0  0  0  0  0  0  0  0  0  0  0
  147.8187  139.7229  156.3136 C   0  0  0  0  0  0  0  0  0  0  0  0
  147.1496  139.6084  155.0635 O   0  0  0  0  0  0  0  0  0  0  0  0
  145.6045  134.2156  151.1260 N   0  0  0  0  0  0  0  0  0  0  0  0
  144.3852  131.1811  150.4741 H   0  0  0  0  0  0  0  0  0  0  0  0
  146.0632  131.7246  150.4175 H   0  0  0  0  0  0  0  0  0  0  0  0
  144.9213  132.2533  149.1745 H   0  0  0  0  0  0  0  0  0  0  0  0
  142.7074  132.5240  151.6609 H   0  0  0  0  0  0  0  0  0  0  0  0
  142.2205  134.5805  153.0085 H   0  0  0  0  0  0  0  0  0  0  0  0
  143.9355  136.3886  153.1197 H   0  0  0  0  0  0  0  0  0  0  0  0
  147.2277  136.1929  151.7872 H   0  0  0  0  0  0  0  0  0  0  0  0
  147.9867  137.9907  152.0945 H   0  0  0  0  0  0  0  0  0  0  0  0
  147.6191  140.4066  151.8503 H   0  0  0  0  0  0  0  0  0  0  0  0
  146.1390  140.2228  152.7604 H   0  0  0  0  0  0  0  0  0  0  0  0
  148.8807  139.5652  153.9432 H   0  0  0  0  0  0  0  0  0  0  0  0
  148.8076  142.0188  153.4025 H   0  0  0  0  0  0  0  0  0  0  0  0
  147.2528  142.1501  154.1901 H   0  0  0  0  0  0  0  0  0  0  0  0
  150.4968  140.4890  155.3738 H   0  0  0  0  0  0  0  0  0  0  0  0
  150.7407  141.8393  156.4831 H   0  0  0  0  0  0  0  0  0  0  0  0
  150.8133  142.1084  154.7463 H   0  0  0  0  0  0  0  0  0  0  0  0
  148.6307  141.3174  157.5620 H   0  0  0  0  0  0  0  0  0  0  0  0
  147.1474  141.7327  156.7359 H   0  0  0  0  0  0  0  0  0  0  0  0
  148.7402  139.1393  156.3032 H   0  0  0  0  0  0  0  0  0  0  0  0
  147.1850  139.2950  157.0906 H   0  0  0  0  0  0  0  0  0  0  0  0
  148.7886  142.8474  155.6784 H   0  0  0  0  0  0  0  0  0  0  0  0
  1  2  1  0  0  0  0
  1 20  1  0  0  0  0
  1 21  1  0  0  0  0
  1 22  1  0  0  0  0
  2 19  1  0  0  0  0
  2  3  2  0  0  0  0
  3  4  1  0  0  0  0
  3 23  1  0  0  0  0
  4  5  2  0  0  0  0
  4 24  1  0  0  0  0
  5  6  1  0  0  0  0
  5 25  1  0  0  0  0
  6  7  1  0  0  0  0
  6 19  2  0  0  0  0
  7  8  1  0  0  0  0
  7 26  1  0  0  0  0
  8  9  2  0  0  0  0
  8 10  1  0  0  0  0
 10 11  1  0  0  0  0
 10 27  1  0  0  0  0
 11 12  1  0  0  0  0
 11 28  1  0  0  0  0
 11 29  1  0  0  0  0
 12 18  1  0  0  0  0
 12 13  1  0  0  0  0
 12 30  1  0  0  0  0
 13 14  1  0  0  0  0
 13 31  1  0  0  0  0
 13 32  1  0  0  0  0
 14 15  1  0  0  0  0
 14 16  1  0  0  0  0
 14 40  1  0  0  0  0
 15 33  1  0  0  0  0
 15 34  1  0  0  0  0
 15 35  1  0  0  0  0
 16 17  1  0  0  0  0
 16 36  1  0  0  0  0
 16 37  1  0  0  0  0
 17 18  1  0  0  0  0
 17 38  1  0  0  0  0
 17 39  1  0  0  0  0
M  CHG  1  14   1
M  END
> <s_m_source_file>
AV-unprocessed.smi

> <i_m_source_file_index>
2302

> <i_lp_mmshare_version>
43012

> <i_f3d_flags>
0

> <s_epik_input>
W0NIM11jMVtjSF1bY0hdW2NIXWMobjEpW05IXUMoPU8pW05IXVtDSDJdW0NAQEhdMltDSDJdTihbQ0gzXSlbQ0gyXVtDSDJdTzI=

> <s_epik_cmdline>
J2VwaWtfcHl0aG9uJywgJy1waCcsICc3LjAnLCAnLXRuJywgJzgnLCAnLW1hJywgJzIwMCcsICctbWV0YWxfYmluZGluZycsICctaW1hZScsICc8aW5maWxlLm1hZT4nLCAnLW9tYWUnLCAnPG91dGZpbGUubWFlPic=

> <r_epik_Ionization_Penalty>
0.204647

> <r_epik_Ionization_Penalty_Charging>
0.204578

> <r_epik_Ionization_Penalty_Neutral>
6.91954e-05

> <r_epik_State_Penalty>
0.194513

> <r_epik_Charging_Adjusted_Penalty>
0.399091

> <i_epik_Tot_Q>
1

> <i_epik_Tot_abs_Q>
1

> <r_epik_Metal_State_Penalty>
0.194515

> <b_epik_Metal_Only>
0

> <s_lp_Force_Field>
OPLS_2005

> <r_lp_Energy>
17.5871

> <b_lp_Chiralities_Consistent>
1

> <s_lp_Variant>
AV-unprocessed.smi:2302-2

> <Gold.Version>
5.8.1

> <Gold.Id.Protein>
6NUR|6NUR_protein|mol2

> <Gold.PLP.Fitness>
38.9120

> <Gold.PLP.PLP>
-27.4214

> <Gold.PLP.part.hbond>
-3.4321

> <Gold.PLP.part.metal>
0.0000

> <Gold.PLP.part.buried>
-5.4707

> <Gold.PLP.part.nonpolar>
-24.1050

> <Gold.PLP.part.repulsive>
5.0052

> <Gold.PLP.ligand.clash>
0.0000

> <Gold.PLP.ligand.torsion>
0.1723

> <Gold.PLP.Chemscore.Hbond>
3.9440

> <Gold.PLP.Chemscore.CHOScore>
0.0000

> <Gold.PLP.Chemscore.Metal>
0.0000

> <Gold.Chemscore.Hbonds>
donor molecule, donor type, donor heavy atom, donor atom, acceptor molecule, acceptor atom, score
      L1  H     7    26       P1  7948  1.00
      L1  H    10    27       P1  7948  0.93
      L1  H    14    40       P1  8028  2.00

> <Gold.PLP.Chemscore.Internal.Correction>
0.0032

> <Gold.Rescore>
     Score         DG    S(hbond)    S(metal)    S(lipo)     H(rot)  DE(clash)    DE(int)     intcor
     15.97     -19.06       2.91        0.00      60.87       1.27       1.43       1.66       ----

> <Gold.Chemscore.Fitness>
15.9696

> <Gold.Chemscore.DG>
-19.0586

> <Gold.Chemscore.ZeroCoef>
-5.4800

> <Gold.Chemscore.Hbond>
2.9094

> <Gold.Chemscore.Metal>
0.0000

> <Gold.Chemscore.Lipo>
60.8668

> <Gold.Chemscore.Internal_Hbond>
0.0000

> <Gold.Chemscore.DEClash>
1.4322

> <Gold.Chemscore.DEInternal>
1.6568

> <Gold.Chemscore.Rot>
1.2736

> <Gold.Chemscore.Internal.Correction>
   9.000000E+99

> <Gold.Chemscore.Hbonds>
donor molecule, donor type, donor heavy atom, donor atom, acceptor molecule, acceptor atom, score
      L1  H     7    26       P1  7948  1.00
      L1  H    10    27       P1  7948  0.88
      L1  H    14    40       P1  8028  1.00

> <Gold.Chemscore.Hbond.Weighted>
-9.7175

> <Gold.Chemscore.Metal.Weighted>
-0.0000

> <Gold.Chemscore.Lipo.Weighted>
-7.1214

> <Gold.Chemscore.Internal_Hbond.Weighted>
0.0000

> <Gold.Chemscore.DEClash.Weighted>
1.4322

> <Gold.Chemscore.DEInternal.Weighted>
1.6568

> <Gold.Chemscore.Rot.Weighted>
3.2603

> <Gold.Chemscore.Internal.Correction.Weighted>
   9.000000E+99

> <Gold.Protein.RotatedTorsions>
[ 6907 6896 6895 6894 ] final   99.12 input  -60.11 | X-H torsion
[ 7974 7965 7964 7962 ] final  169.53 input  175.53 | X-H torsion
[ 8008 7997 7996 7995 ] final -176.44 input   59.86 | X-H torsion
[ 10167 10162 10161 10158 ] final  -61.66 input  -65.29 | X-H torsion
[ 10718 10713 10712 10709 ] final -146.74 input   66.30 | X-H torsion
[ 10763 10752 10751 10750 ] final   29.04 input  -60.55 | X-H torsion
[ 11005 11000 10999 10996 ] final  164.46 input  -57.11 | X-H torsion

> <Gold.Protein.ActiveResidues>
 VAL166  LYS551  ARG553  GLY616  TRP617  ASP618  TYR619  PRO620  LYS621  CYS622 
 ASP623  PHE694  ASN695  SER759  ASP760  ASP761  ALA762  ILE779  LEU786  VAL792 
 PHE793  MET794  SER795  GLU796  ALA797  LYS798  CYS799  TRP800  GLU811  SER814 

> <Gold.Protein.RotatedAtoms>
  152.5398  134.0477  159.8095 H   0  0  0  0  0  0  0  0  0  0  0  0  # atno 6907 bound_to 6896
  151.0624  133.5526  159.2640 H   0  0  0  0  0  0  0  0  0  0  0  0  # atno 6908 bound_to 6896
  151.2420  135.0600  159.9082 H   0  0  0  0  0  0  0  0  0  0  0  0  # atno 6909 bound_to 6896
  144.7352  139.9068  143.6412 H   0  0  0  0  0  0  0  0  0  0  0  0  # atno 7974 bound_to 7965
  155.9949  140.1208  157.0603 H   0  0  0  0  0  0  0  0  0  0  0  0  # atno 8008 bound_to 7997
  154.4223  140.1118  156.5684 H   0  0  0  0  0  0  0  0  0  0  0  0  # atno 8009 bound_to 7997
  155.6293  140.3473  155.4679 H   0  0  0  0  0  0  0  0  0  0  0  0  # atno 8010 bound_to 7997
  140.5991  143.2357  151.5969 H   0  0  0  0  0  0  0  0  0  0  0  0  # atno 10167 bound_to 10162
  156.3987  130.7923  151.2132 H   0  0  0  0  0  0  0  0  0  0  0  0  # atno 10718 bound_to 10713
  153.0454  135.6498  154.0830 H   0  0  0  0  0  0  0  0  0  0  0  0  # atno 10763 bound_to 10752
  154.0529  135.2894  155.3339 H   0  0  0  0  0  0  0  0  0  0  0  0  # atno 10764 bound_to 10752
  154.6708  135.5357  153.8201 H   0  0  0  0  0  0  0  0  0  0  0  0  # atno 10765 bound_to 10752
  140.2462  134.8012  157.3458 H   0  0  0  0  0  0  0  0  0  0  0  0  # atno 11005 bound_to 11000
  146.1031  139.4028  143.0334 LP  0  0  0  0  0  0  0  0  0  0  0  0  # atno 17320 bound_to 7965
  145.7550  140.9957  143.1230 LP  0  0  0  0  0  0  0  0  0  0  0  0  # atno 17321 bound_to 7965
  139.5279  144.3005  152.1077 LP  0  0  0  0  0  0  0  0  0  0  0  0  # atno 17342 bound_to 10162
  140.2182  144.4493  150.6354 LP  0  0  0  0  0  0  0  0  0  0  0  0  # atno 17343 bound_to 10162
  157.7503  131.0293  150.4088 LP  0  0  0  0  0  0  0  0  0  0  0  0  # atno 17370 bound_to 10713
  156.4363  130.3982  149.6727 LP  0  0  0  0  0  0  0  0  0  0  0  0  # atno 17371 bound_to 10713
  140.1604  134.4736  155.7899 LP  0  0  0  0  0  0  0  0  0  0  0  0  # atno 17394 bound_to 11000
  141.2206  133.6899  156.7533 LP  0  0  0  0  0  0  0  0  0  0  0  0  # atno 17395 bound_to 11000

$$$$
