AV-unprocessed.smi:184|AV-procd|sdf|1461|dock1
  -GOLD-   2262019273D 1   1.00000     0.00000
 Structure written by MMmdl.
 54 58  0  0  0  0  0  0  0  0  1 V2000
  150.5573  141.1370  155.1955 O   0  0  0  0  0  0  0  0  0  0  0  0
  149.4468  140.8105  154.7834 C   0  0  0  0  0  0  0  0  0  0  0  0
  148.9915  139.3455  154.9135 C   0  0  0  0  0  0  0  0  0  0  0  0
  147.6810  139.0649  154.3033 N   0  0  0  0  0  0  0  0  0  0  0  0
  147.2304  137.7835  154.3185 C   0  0  0  0  0  0  0  0  0  0  0  0
  147.7661  136.8965  155.1987 N   0  0  0  0  0  0  0  0  0  0  0  0
  147.3318  135.6338  155.2361 C   0  0  0  0  0  0  0  0  0  0  0  0
  146.3898  135.0539  154.4911 N   0  0  0  0  0  0  0  0  0  0  0  0
  145.8545  135.9334  153.5976 C   0  0  0  0  0  0  0  0  0  0  0  0
  146.2141  137.3027  153.4436 C   0  0  0  0  0  0  0  0  0  0  0  0
  145.4680  137.8718  152.4178 N   0  0  0  0  0  0  0  0  0  0  0  0
  144.7017  136.9009  152.0020 C   0  0  0  0  0  0  0  0  0  0  0  0
  144.8620  135.7028  152.6607 N   0  0  0  0  0  0  0  0  0  0  0  0
  144.1451  134.4628  152.4001 C   0  0  0  0  0  0  0  0  0  0  0  0
  145.0266  133.1877  152.5000 C   0  0  0  0  0  0  0  0  0  0  0  0
  145.0631  132.8001  153.8615 O   0  0  0  0  0  0  0  0  0  0  0  0
  144.4228  132.0120  151.7061 C   0  0  0  0  0  0  0  0  0  0  0  0
  144.6252  132.1859  150.1897 C   0  0  0  0  0  0  0  0  0  0  0  0
  146.0092  132.3474  149.8982 O   0  0  0  0  0  0  0  0  0  0  0  0
  146.5745  133.5052  150.5031 C   0  0  0  0  0  0  0  0  0  0  0  0
  146.4847  133.3917  152.0352 C   0  0  0  0  0  0  0  0  0  0  0  0
  146.6766  140.1302  154.3089 C   0  0  1  0  0  0  0  0  0  0  0  0
  146.1409  140.3935  155.7378 C   0  0  0  0  0  0  0  0  0  0  0  0
  145.1832  141.5931  155.7766 C   0  0  0  0  0  0  0  0  0  0  0  0
  145.8569  142.8516  155.2105 C   0  0  0  0  0  0  0  0  0  0  0  0
  146.3456  142.6096  153.7736 C   0  0  0  0  0  0  0  0  0  0  0  0
  147.2943  141.3990  153.6744 C   0  0  1  0  0  0  0  0  0  0  0  0
  148.6095  141.7078  154.2358 N   0  0  0  0  0  0  0  0  0  0  0  0
  149.7463  138.7071  154.4524 H   0  0  0  0  0  0  0  0  0  0  0  0
  148.9690  139.1033  155.9769 H   0  0  0  0  0  0  0  0  0  0  0  0
  147.8063  134.9970  155.9681 H   0  0  0  0  0  0  0  0  0  0  0  0
  143.9916  137.0328  151.1986 H   0  0  0  0  0  0  0  0  0  0  0  0
  143.3160  134.4007  153.1068 H   0  0  0  0  0  0  0  0  0  0  0  0
  143.6876  134.5410  151.4143 H   0  0  0  0  0  0  0  0  0  0  0  0
  144.3114  132.2552  154.0384 H   0  0  0  0  0  0  0  0  0  0  0  0
  144.9033  131.0797  152.0074 H   0  0  0  0  0  0  0  0  0  0  0  0
  143.3627  131.8962  151.9349 H   0  0  0  0  0  0  0  0  0  0  0  0
  144.2598  131.3043  149.6631 H   0  0  0  0  0  0  0  0  0  0  0  0
  144.0592  133.0350  149.8058 H   0  0  0  0  0  0  0  0  0  0  0  0
  147.6175  133.5855  150.1969 H   0  0  0  0  0  0  0  0  0  0  0  0
  146.0700  134.3999  150.1383 H   0  0  0  0  0  0  0  0  0  0  0  0
  146.9378  134.2624  152.5092 H   0  0  0  0  0  0  0  0  0  0  0  0
  147.0886  132.5374  152.3454 H   0  0  0  0  0  0  0  0  0  0  0  0
  145.8224  139.8518  153.6929 H   0  0  0  0  0  0  0  0  0  0  0  0
  145.6302  139.5060  156.1131 H   0  0  0  0  0  0  0  0  0  0  0  0
  146.9649  140.5822  156.4265 H   0  0  0  0  0  0  0  0  0  0  0  0
  144.2849  141.3650  155.2017 H   0  0  0  0  0  0  0  0  0  0  0  0
  144.8580  141.7747  156.8013 H   0  0  0  0  0  0  0  0  0  0  0  0
  145.1569  143.6872  155.2279 H   0  0  0  0  0  0  0  0  0  0  0  0
  146.6961  143.1384  155.8454 H   0  0  0  0  0  0  0  0  0  0  0  0
  145.4812  142.4378  153.1308 H   0  0  0  0  0  0  0  0  0  0  0  0
  146.8344  143.5053  153.3885 H   0  0  0  0  0  0  0  0  0  0  0  0
  147.4679  141.1984  152.6159 H   0  0  0  0  0  0  0  0  0  0  0  0
  148.9197  142.6668  154.1750 H   0  0  0  0  0  0  0  0  0  0  0  0
  1  2  2  0  0  0  0
  2 28  1  0  0  0  0
  2  3  1  0  0  0  0
  3  4  1  0  0  0  0
  3 29  1  0  0  0  0
  3 30  1  0  0  0  0
  4  5  1  0  0  0  0
  4 22  1  0  0  0  0
  5 10  1  0  0  0  0
  5  6  2  0  0  0  0
  6  7  1  0  0  0  0
  7  8  2  0  0  0  0
  7 31  1  0  0  0  0
  8  9  1  0  0  0  0
  9 13  1  0  0  0  0
  9 10  2  0  0  0  0
 10 11  1  0  0  0  0
 11 12  2  0  0  0  0
 12 13  1  0  0  0  0
 12 32  1  0  0  0  0
 13 14  1  0  0  0  0
 14 15  1  0  0  0  0
 14 33  1  0  0  0  0
 14 34  1  0  0  0  0
 15 21  1  0  0  0  0
 15 16  1  0  0  0  0
 15 17  1  0  0  0  0
 16 35  1  0  0  0  0
 17 18  1  0  0  0  0
 17 36  1  0  0  0  0
 17 37  1  0  0  0  0
 18 19  1  0  0  0  0
 18 38  1  0  0  0  0
 18 39  1  0  0  0  0
 19 20  1  0  0  0  0
 20 21  1  0  0  0  0
 20 40  1  0  0  0  0
 20 41  1  0  0  0  0
 21 42  1  0  0  0  0
 21 43  1  0  0  0  0
 22 27  1  0  0  0  0
 22 23  1  0  0  0  0
 22 44  1  0  0  0  0
 23 24  1  0  0  0  0
 23 45  1  0  0  0  0
 23 46  1  0  0  0  0
 24 25  1  0  0  0  0
 24 47  1  0  0  0  0
 24 48  1  0  0  0  0
 25 26  1  0  0  0  0
 25 49  1  0  0  0  0
 25 50  1  0  0  0  0
 26 27  1  0  0  0  0
 26 51  1  0  0  0  0
 26 52  1  0  0  0  0
 27 28  1  0  0  0  0
 27 53  1  0  0  0  0
 28 54  1  0  0  0  0
M  END
> <s_m_source_file>
AV-unprocessed.smi

> <i_m_source_file_index>
184

> <i_lp_mmshare_version>
43012

> <i_f3d_flags>
0

> <s_epik_input>
W0NIMl0xW0NIMl1bQ0gyXVtDSDJdW0NASF0oW0NASF0xMilbTkhdQyg9TylbQ0gyXU4yYyhuW2NIXW4zKWMoYzM0KW5bY0hdbjRbQ0gyXUM1KFtPSF0pW0NIMl1bQ0gyXU9bQ0gyXVtDSDJdNQ==

> <s_epik_cmdline>
J2VwaWtfcHl0aG9uJywgJy1waCcsICc3LjAnLCAnLXRuJywgJzgnLCAnLW1hJywgJzIwMCcsICctbWV0YWxfYmluZGluZycsICctaW1hZScsICc8aW5maWxlLm1hZT4nLCAnLW9tYWUnLCAnPG91dGZpbGUubWFlPic=

> <r_lp_tautomer_probability>
1

> <r_epik_Ionization_Penalty>
0.000822761

> <r_epik_Ionization_Penalty_Charging>
0

> <r_epik_Ionization_Penalty_Neutral>
0.000822761

> <r_epik_State_Penalty>
0.000403048

> <r_epik_Charging_Adjusted_Penalty>
0.000403048

> <i_epik_Tot_Q>
0

> <i_epik_Tot_abs_Q>
0

> <r_epik_Metal_State_Penalty>
-0

> <b_epik_Metal_Only>
0

> <s_lp_Force_Field>
OPLS_2005

> <r_lp_Energy>
37.4229

> <b_lp_Chiralities_Consistent>
1

> <s_lp_Variant>
AV-unprocessed.smi:184-1

> <Gold.Version>
5.8.1

> <Gold.Id.Protein>
6NUR|6NUR_protein|mol2

> <Gold.PLP.Fitness>
38.2254

> <Gold.PLP.PLP>
-32.3938

> <Gold.PLP.part.hbond>
-2.0000

> <Gold.PLP.part.metal>
0.0000

> <Gold.PLP.part.buried>
-5.1077

> <Gold.PLP.part.nonpolar>
-26.5388

> <Gold.PLP.part.repulsive>
1.2096

> <Gold.PLP.ligand.clash>
0.0000

> <Gold.PLP.ligand.torsion>
1.2033

> <Gold.PLP.Chemscore.Hbond>
1.6720

> <Gold.PLP.Chemscore.CHOScore>
0.9891

> <Gold.PLP.Chemscore.Metal>
0.0000

> <Gold.Chemscore.Hbonds>
donor molecule, donor type, donor heavy atom, donor atom, acceptor molecule, acceptor atom, score
      L1  H    16    35       P1 10957  1.00
      P1  H  7989  7998       L1     1  0.64
      L1  C    12    32       P1 10171  0.99

> <Gold.PLP.Chemscore.Internal.Correction>
0.2548

> <Gold.Rescore>
     Score         DG    S(hbond)    S(metal)    S(lipo)     H(rot)  DE(clash)    DE(int)     intcor
     12.28     -13.86       1.82        0.00      59.52       1.83       0.64       0.94       ----

> <Gold.Chemscore.Fitness>
12.2816

> <Gold.Chemscore.DG>
-13.8595

> <Gold.Chemscore.ZeroCoef>
-5.4800

> <Gold.Chemscore.Hbond>
1.8229

> <Gold.Chemscore.Metal>
0.0000

> <Gold.Chemscore.Lipo>
59.5240

> <Gold.Chemscore.Internal_Hbond>
0.0000

> <Gold.Chemscore.DEClash>
0.6406

> <Gold.Chemscore.DEInternal>
0.9373

> <Gold.Chemscore.Rot>
1.8255

> <Gold.Chemscore.Internal.Correction>
   9.000000E+99

> <Gold.Chemscore.Hbonds>
donor molecule, donor type, donor heavy atom, donor atom, acceptor molecule, acceptor atom, score
      L1  H    16    35       P1 10957  0.30
      L1  H    28    54       P1  8028  0.01
      P1  H  7989  7998       L1     1  0.16

> <Gold.Chemscore.Hbond.Weighted>
-6.0884

> <Gold.Chemscore.Metal.Weighted>
-0.0000

> <Gold.Chemscore.Lipo.Weighted>
-6.9643

> <Gold.Chemscore.Internal_Hbond.Weighted>
0.0000

> <Gold.Chemscore.DEClash.Weighted>
0.6406

> <Gold.Chemscore.DEInternal.Weighted>
0.9373

> <Gold.Chemscore.Rot.Weighted>
4.6732

> <Gold.Chemscore.Internal.Correction.Weighted>
   9.000000E+99

> <Gold.Protein.RotatedTorsions>
[ 6907 6896 6895 6894 ] final  -44.35 input  -60.11 | X-H torsion
[ 7974 7965 7964 7962 ] final  -63.55 input  175.53 | X-H torsion
[ 8008 7997 7996 7995 ] final   18.68 input   59.86 | X-H torsion
[ 10167 10162 10161 10158 ] final  -25.83 input  -65.29 | X-H torsion
[ 10718 10713 10712 10709 ] final  -24.40 input   66.30 | X-H torsion
[ 10763 10752 10751 10750 ] final -117.21 input  -60.55 | X-H torsion
[ 11005 11000 10999 10996 ] final  -37.81 input  -57.11 | X-H torsion

> <Gold.Protein.ActiveResidues>
 VAL166  LYS551  ARG553  GLY616  TRP617  ASP618  TYR619  PRO620  LYS621  CYS622 
 ASP623  PHE694  ASN695  SER759  ASP760  ASP761  ALA762  ILE779  LEU786  VAL792 
 PHE793  MET794  SER795  GLU796  ALA797  LYS798  CYS799  TRP800  GLU811  SER814 

> <Gold.Protein.RotatedAtoms>
  150.9338  134.8751  159.7568 H   0  0  0  0  0  0  0  0  0  0  0  0  # atno 6907 bound_to 6896
  152.5050  134.4041  159.9436 H   0  0  0  0  0  0  0  0  0  0  0  0  # atno 6908 bound_to 6896
  151.4066  133.3701  159.2773 H   0  0  0  0  0  0  0  0  0  0  0  0  # atno 6909 bound_to 6896
  145.7777  140.8779  143.0347 H   0  0  0  0  0  0  0  0  0  0  0  0  # atno 7974 bound_to 7965
  154.9095  140.3012  155.5274 H   0  0  0  0  0  0  0  0  0  0  0  0  # atno 8008 bound_to 7997
  156.3015  140.2391  156.4068 H   0  0  0  0  0  0  0  0  0  0  0  0  # atno 8009 bound_to 7997
  154.8439  140.0412  157.1548 H   0  0  0  0  0  0  0  0  0  0  0  0  # atno 8010 bound_to 7997
  140.7285  143.4231  151.0919 H   0  0  0  0  0  0  0  0  0  0  0  0  # atno 10167 bound_to 10162
  156.4781  130.4539  149.6828 H   0  0  0  0  0  0  0  0  0  0  0  0  # atno 10718 bound_to 10713
  154.8547  135.4318  154.1944 H   0  0  0  0  0  0  0  0  0  0  0  0  # atno 10763 bound_to 10752
  153.3005  135.6968  153.7214 H   0  0  0  0  0  0  0  0  0  0  0  0  # atno 10764 bound_to 10752
  153.6346  135.3479  155.3026 H   0  0  0  0  0  0  0  0  0  0  0  0  # atno 10765 bound_to 10752
  140.9980  133.6970  156.1970 H   0  0  0  0  0  0  0  0  0  0  0  0  # atno 11005 bound_to 11000
  144.6802  139.9944  143.7484 LP  0  0  0  0  0  0  0  0  0  0  0  0  # atno 17320 bound_to 7965
  146.0106  139.3167  143.0872 LP  0  0  0  0  0  0  0  0  0  0  0  0  # atno 17321 bound_to 7965
  139.7879  143.8261  152.3147 LP  0  0  0  0  0  0  0  0  0  0  0  0  # atno 17342 bound_to 10162
  139.8234  144.7285  150.9543 LP  0  0  0  0  0  0  0  0  0  0  0  0  # atno 17343 bound_to 10162
  156.3549  130.7451  151.2416 LP  0  0  0  0  0  0  0  0  0  0  0  0  # atno 17370 bound_to 10713
  157.7485  131.0366  150.4419 LP  0  0  0  0  0  0  0  0  0  0  0  0  # atno 17371 bound_to 10713
  140.6934  134.4641  157.5588 LP  0  0  0  0  0  0  0  0  0  0  0  0  # atno 17394 bound_to 11000
  139.9024  134.8525  156.1840 LP  0  0  0  0  0  0  0  0  0  0  0  0  # atno 17395 bound_to 11000

$$$$
