AV-unprocessed.smi:77|AV-procd|sdf|771|dock2
  -GOLD-   2262017113D 1   1.00000     0.00000
 Structure written by MMmdl.
 57 61  0  0  0  0  0  0  0  0  1 V2000
  150.8902  142.2537  159.3829 O   0  0  0  0  0  0  0  0  0  0  0  0
  150.2444  142.4853  158.3598 C   0  0  0  0  0  0  0  0  0  0  0  0
  149.2118  141.4762  157.8399 C   0  0  0  0  0  0  0  0  0  0  0  0
  149.8245  140.3067  157.2003 N   0  0  0  0  0  0  0  0  0  0  0  0
  149.9903  139.2390  158.0137 C   0  0  0  0  0  0  0  0  0  0  0  0
  151.2304  138.9195  158.4690 N   0  0  0  0  0  0  0  0  0  0  0  0
  151.3928  137.8602  159.2683 C   0  0  0  0  0  0  0  0  0  0  0  0
  150.4718  137.0065  159.7222 N   0  0  0  0  0  0  0  0  0  0  0  0
  149.2278  137.3312  159.2659 C   0  0  0  0  0  0  0  0  0  0  0  0
  148.9006  138.4258  158.4195 C   0  0  0  0  0  0  0  0  0  0  0  0
  147.5345  138.4477  158.1707 N   0  0  0  0  0  0  0  0  0  0  0  0
  147.0787  137.4144  158.8250 C   0  0  0  0  0  0  0  0  0  0  0  0
  148.0290  136.6829  159.5023 N   0  0  0  0  0  0  0  0  0  0  0  0
  147.8075  135.4908  160.3002 C   0  0  0  0  0  0  0  0  0  0  0  0
  146.8071  135.6926  161.4699 C   0  0  2  0  0  0  0  0  0  0  0  0
  147.5194  136.0070  162.8109 C   0  0  0  0  0  0  0  0  0  0  0  0
  148.4478  137.0645  162.6826 O   0  0  0  0  0  0  0  0  0  0  0  0
  145.8804  134.4564  161.6078 C   0  0  2  0  0  0  0  0  0  0  0  0
  146.5811  133.1724  162.0210 C   0  0  0  0  0  0  0  0  0  0  0  0
  145.5693  132.1078  161.6169 C   0  0  0  0  0  0  0  0  0  0  0  0
  144.9492  132.6069  160.4389 O   0  0  0  0  0  0  0  0  0  0  0  0
  145.2179  133.9991  160.3005 C   0  0  0  0  0  0  0  0  0  0  0  0
  149.3003  139.9377  155.8927 C   0  0  0  0  0  0  0  0  0  0  0  0
  150.2643  139.6533  154.7636 C   0  0  0  0  0  0  0  0  0  0  0  0
  149.4423  140.9222  154.7577 C   0  0  0  0  0  0  0  0  0  0  0  0
  150.4020  143.5951  157.6239 N   0  0  0  0  0  0  0  0  0  0  0  0
  151.2990  144.6651  157.9196 C   0  0  0  0  0  0  0  0  0  0  0  0
  152.5617  144.3295  158.6835 C   0  0  0  0  0  0  0  0  0  0  0  0
  151.4509  145.0777  159.3676 C   0  0  0  0  0  0  0  0  0  0  0  0
  148.5466  141.1687  158.6489 H   0  0  0  0  0  0  0  0  0  0  0  0
  148.5856  141.9940  157.1119 H   0  0  0  0  0  0  0  0  0  0  0  0
  152.4063  137.6664  159.5871 H   0  0  0  0  0  0  0  0  0  0  0  0
  146.0311  137.1511  158.8239 H   0  0  0  0  0  0  0  0  0  0  0  0
  147.4558  134.7145  159.6208 H   0  0  0  0  0  0  0  0  0  0  0  0
  148.7695  135.1503  160.6859 H   0  0  0  0  0  0  0  0  0  0  0  0
  146.1684  136.5429  161.2246 H   0  0  0  0  0  0  0  0  0  0  0  0
  146.8082  136.3196  163.5737 H   0  0  0  0  0  0  0  0  0  0  0  0
  148.0238  135.1217  163.1990 H   0  0  0  0  0  0  0  0  0  0  0  0
  149.1187  136.9590  163.3399 H   0  0  0  0  0  0  0  0  0  0  0  0
  145.0981  134.6694  162.3386 H   0  0  0  0  0  0  0  0  0  0  0  0
  147.5060  133.0427  161.4569 H   0  0  0  0  0  0  0  0  0  0  0  0
  146.8190  133.1309  163.0842 H   0  0  0  0  0  0  0  0  0  0  0  0
  146.0296  131.1343  161.4463 H   0  0  0  0  0  0  0  0  0  0  0  0
  144.8085  131.9937  162.3901 H   0  0  0  0  0  0  0  0  0  0  0  0
  144.2999  134.5458  160.0845 H   0  0  0  0  0  0  0  0  0  0  0  0
  145.8946  134.1312  159.4552 H   0  0  0  0  0  0  0  0  0  0  0  0
  148.3854  139.3476  155.8989 H   0  0  0  0  0  0  0  0  0  0  0  0
  151.3299  139.7494  154.9634 H   0  0  0  0  0  0  0  0  0  0  0  0
  149.9915  138.8723  154.0572 H   0  0  0  0  0  0  0  0  0  0  0  0
  148.6222  140.9880  154.0458 H   0  0  0  0  0  0  0  0  0  0  0  0
  149.9610  141.8575  154.9601 H   0  0  0  0  0  0  0  0  0  0  0  0
  149.8351  143.6945  156.7942 H   0  0  0  0  0  0  0  0  0  0  0  0
  151.3882  145.4615  157.1819 H   0  0  0  0  0  0  0  0  0  0  0  0
  152.7216  143.2928  158.9739 H   0  0  0  0  0  0  0  0  0  0  0  0
  153.4624  144.8866  158.4333 H   0  0  0  0  0  0  0  0  0  0  0  0
  151.6091  146.1344  159.5736 H   0  0  0  0  0  0  0  0  0  0  0  0
  150.8682  144.5404  160.1136 H   0  0  0  0  0  0  0  0  0  0  0  0
  1  2  2  0  0  0  0
  2  3  1  0  0  0  0
  2 26  1  0  0  0  0
  3  4  1  0  0  0  0
  3 30  1  0  0  0  0
  3 31  1  0  0  0  0
  4  5  1  0  0  0  0
  4 23  1  0  0  0  0
  5 10  1  0  0  0  0
  5  6  2  0  0  0  0
  6  7  1  0  0  0  0
  7  8  2  0  0  0  0
  7 32  1  0  0  0  0
  8  9  1  0  0  0  0
  9 13  1  0  0  0  0
  9 10  2  0  0  0  0
 10 11  1  0  0  0  0
 11 12  2  0  0  0  0
 12 13  1  0  0  0  0
 12 33  1  0  0  0  0
 13 14  1  0  0  0  0
 14 15  1  0  0  0  0
 14 34  1  0  0  0  0
 14 35  1  0  0  0  0
 15 16  1  0  0  0  0
 15 18  1  0  0  0  0
 15 36  1  0  0  0  0
 16 17  1  0  0  0  0
 16 37  1  0  0  0  0
 16 38  1  0  0  0  0
 17 39  1  0  0  0  0
 18 22  1  0  0  0  0
 18 19  1  0  0  0  0
 18 40  1  0  0  0  0
 19 20  1  0  0  0  0
 19 41  1  0  0  0  0
 19 42  1  0  0  0  0
 20 21  1  0  0  0  0
 20 43  1  0  0  0  0
 20 44  1  0  0  0  0
 21 22  1  0  0  0  0
 22 45  1  0  0  0  0
 22 46  1  0  0  0  0
 23 25  1  0  0  0  0
 23 24  1  0  0  0  0
 23 47  1  0  0  0  0
 24 25  1  0  0  0  0
 24 48  1  0  0  0  0
 24 49  1  0  0  0  0
 25 50  1  0  0  0  0
 25 51  1  0  0  0  0
 26 27  1  0  0  0  0
 26 52  1  0  0  0  0
 27 29  1  0  0  0  0
 27 28  1  0  0  0  0
 27 53  1  0  0  0  0
 28 29  1  0  0  0  0
 28 54  1  0  0  0  0
 28 55  1  0  0  0  0
 29 56  1  0  0  0  0
 29 57  1  0  0  0  0
M  END
> <s_m_source_file>
AV-unprocessed.smi

> <i_m_source_file_index>
77

> <i_lp_mmshare_version>
43012

> <i_f3d_flags>
0

> <s_epik_input>
W0NIMl0xW0NIMl1bQ0hdMVtOSF1DKD1PKVtDSDJdTihbQ0hdMltDSDJdW0NIMl0yKWMobltjSF1uMyljKGMzNCluW2NIXW40W0NIMl1bQ0BIXShbQ0gyXVtPSF0pW0NAQEhdNVtDSDJdW0NIMl1PW0NIMl01

> <s_epik_cmdline>
J2VwaWtfcHl0aG9uJywgJy1waCcsICc3LjAnLCAnLXRuJywgJzgnLCAnLW1hJywgJzIwMCcsICctbWV0YWxfYmluZGluZycsICctaW1hZScsICc8aW5maWxlLm1hZT4nLCAnLW9tYWUnLCAnPG91dGZpbGUubWFlPic=

> <r_lp_tautomer_probability>
1

> <r_epik_Ionization_Penalty>
0.000703847

> <r_epik_Ionization_Penalty_Charging>
0

> <r_epik_Ionization_Penalty_Neutral>
0.000703847

> <r_epik_State_Penalty>
0.00034025

> <r_epik_Charging_Adjusted_Penalty>
0.00034025

> <i_epik_Tot_Q>
0

> <i_epik_Tot_abs_Q>
0

> <r_epik_Metal_State_Penalty>
-0

> <b_epik_Metal_Only>
0

> <s_lp_Force_Field>
OPLS_2005

> <r_lp_Energy>
55.2708

> <b_lp_Chiralities_Consistent>
1

> <s_lp_Variant>
AV-unprocessed.smi:77-1

> <Gold.Version>
5.8.1

> <Gold.Id.Protein>
6NUR|6NUR_protein|mol2

> <Gold.PLP.Fitness>
54.9562

> <Gold.PLP.PLP>
-48.8976

> <Gold.PLP.part.hbond>
-3.6868

> <Gold.PLP.part.metal>
0.0000

> <Gold.PLP.part.buried>
-6.8702

> <Gold.PLP.part.nonpolar>
-39.2428

> <Gold.PLP.part.repulsive>
0.0409

> <Gold.PLP.ligand.clash>
0.0000

> <Gold.PLP.ligand.torsion>
2.5081

> <Gold.PLP.Chemscore.Hbond>
2.9760

> <Gold.PLP.Chemscore.CHOScore>
0.0000

> <Gold.PLP.Chemscore.Metal>
0.0000

> <Gold.Chemscore.Hbonds>
donor molecule, donor type, donor heavy atom, donor atom, acceptor molecule, acceptor atom, score
      L1  H    26    52       P1  8028  0.99
      P1  H  6896  6908       L1     8  0.76
      P1  H  6931  6943       L1    17  0.77

> <Gold.PLP.Chemscore.Internal.Correction>
2.1468

> <Gold.Rescore>
     Score         DG    S(hbond)    S(metal)    S(lipo)     H(rot)  DE(clash)    DE(int)     intcor
     11.50     -16.78       2.40        0.00     110.55       3.77       0.11       5.16       ----

> <Gold.Chemscore.Fitness>
11.5039

> <Gold.Chemscore.DG>
-16.7775

> <Gold.Chemscore.ZeroCoef>
-5.4800

> <Gold.Chemscore.Hbond>
2.4005

> <Gold.Chemscore.Metal>
0.0000

> <Gold.Chemscore.Lipo>
110.5520

> <Gold.Chemscore.Internal_Hbond>
0.0000

> <Gold.Chemscore.DEClash>
0.1087

> <Gold.Chemscore.DEInternal>
5.1650

> <Gold.Chemscore.Rot>
3.7714

> <Gold.Chemscore.Internal.Correction>
   9.000000E+99

> <Gold.Chemscore.Hbonds>
donor molecule, donor type, donor heavy atom, donor atom, acceptor molecule, acceptor atom, score
      L1  H    26    52       P1  8028  0.93
      P1  H  6896  6908       L1     8  0.64
      P1  H  6931  6943       L1    17  0.14

> <Gold.Chemscore.Hbond.Weighted>
-8.0178

> <Gold.Chemscore.Metal.Weighted>
-0.0000

> <Gold.Chemscore.Lipo.Weighted>
-12.9346

> <Gold.Chemscore.Internal_Hbond.Weighted>
0.0000

> <Gold.Chemscore.DEClash.Weighted>
0.1087

> <Gold.Chemscore.DEInternal.Weighted>
5.1650

> <Gold.Chemscore.Rot.Weighted>
9.6548

> <Gold.Chemscore.Internal.Correction.Weighted>
   9.000000E+99

> <Gold.Protein.RotatedTorsions>
[ 6907 6896 6895 6894 ] final -166.01 input  -60.11 | X-H torsion
[ 7974 7965 7964 7962 ] final  126.21 input  175.53 | X-H torsion
[ 8008 7997 7996 7995 ] final  113.76 input   59.86 | X-H torsion
[ 10167 10162 10161 10158 ] final  146.02 input  -65.29 | X-H torsion
[ 10718 10713 10712 10709 ] final   58.29 input   66.30 | X-H torsion
[ 10763 10752 10751 10750 ] final  -97.72 input  -60.55 | X-H torsion
[ 11005 11000 10999 10996 ] final  110.76 input  -57.11 | X-H torsion

> <Gold.Protein.ActiveResidues>
 VAL166  LYS551  ARG553  GLY616  TRP617  ASP618  TYR619  PRO620  LYS621  CYS622 
 ASP623  PHE694  ASN695  SER759  ASP760  ASP761  ALA762  ILE779  LEU786  VAL792 
 PHE793  MET794  SER795  GLU796  ALA797  LYS798  CYS799  TRP800  GLU811  SER814 

> <Gold.Protein.RotatedAtoms>
  151.4368  133.3654  159.2775 H   0  0  0  0  0  0  0  0  0  0  0  0  # atno 6907 bound_to 6896
  150.9186  134.8605  159.7484 H   0  0  0  0  0  0  0  0  0  0  0  0  # atno 6908 bound_to 6896
  152.4970  134.4304  159.9562 H   0  0  0  0  0  0  0  0  0  0  0  0  # atno 6909 bound_to 6896
  145.0642  139.3781  143.4990 H   0  0  0  0  0  0  0  0  0  0  0  0  # atno 7974 bound_to 7965
  156.2278  140.2973  156.0112 H   0  0  0  0  0  0  0  0  0  0  0  0  # atno 8008 bound_to 7997
  155.2308  140.0419  157.2979 H   0  0  0  0  0  0  0  0  0  0  0  0  # atno 8009 bound_to 7997
  154.5945  140.2410  155.7883 H   0  0  0  0  0  0  0  0  0  0  0  0  # atno 8010 bound_to 7997
  139.4915  144.5859  151.6778 H   0  0  0  0  0  0  0  0  0  0  0  0  # atno 10167 bound_to 10162
  157.5584  130.8817  149.9072 H   0  0  0  0  0  0  0  0  0  0  0  0  # atno 10718 bound_to 10713
  154.7352  135.5036  153.9030 H   0  0  0  0  0  0  0  0  0  0  0  0  # atno 10763 bound_to 10752
  153.0988  135.6679  153.9719 H   0  0  0  0  0  0  0  0  0  0  0  0  # atno 10764 bound_to 10752
  153.9511  135.3057  155.3418 H   0  0  0  0  0  0  0  0  0  0  0  0  # atno 10765 bound_to 10752
  139.8889  134.9492  156.6329 H   0  0  0  0  0  0  0  0  0  0  0  0  # atno 11005 bound_to 11000
  146.3526  140.0356  142.8647 LP  0  0  0  0  0  0  0  0  0  0  0  0  # atno 17320 bound_to 7965
  145.1371  140.9550  143.4510 LP  0  0  0  0  0  0  0  0  0  0  0  0  # atno 17321 bound_to 7965
  140.5476  144.0478  150.6113 LP  0  0  0  0  0  0  0  0  0  0  0  0  # atno 17342 bound_to 10162
  140.3521  143.2957  152.0475 LP  0  0  0  0  0  0  0  0  0  0  0  0  # atno 17343 bound_to 10162
  156.0640  130.3695  150.0920 LP  0  0  0  0  0  0  0  0  0  0  0  0  # atno 17370 bound_to 10713
  156.9086  130.9644  151.3566 LP  0  0  0  0  0  0  0  0  0  0  0  0  # atno 17371 bound_to 10713
  140.7653  133.8783  155.8449 LP  0  0  0  0  0  0  0  0  0  0  0  0  # atno 17394 bound_to 11000
  140.9888  134.1307  157.4427 LP  0  0  0  0  0  0  0  0  0  0  0  0  # atno 17395 bound_to 11000

$$$$
