AV-unprocessed.smi:1830|AV-procd|sdf|7446|dock2
  -GOLD-   22720 9133D 1   1.00000     0.00000
 Structure written by MMmdl.
 54 57  0  0  0  0  0  0  0  0  3 V2000
  150.1600  136.7598  155.4199 O   0  0  0  0  0  0  0  0  0  0  0  0
  149.0193  137.2145  155.3449 C   0  0  0  0  0  0  0  0  0  0  0  0
  147.9385  136.4567  155.1208 N   0  0  0  0  0  0  0  0  0  0  0  0
  147.9767  135.0099  154.9395 C   0  0  0  0  0  0  0  0  0  0  0  0
  146.9903  134.5350  153.8587 C   0  0  2  0  0  0  0  0  0  0  0  0
  145.6573  134.0030  154.4276 C   0  0  0  0  0  0  0  0  0  0  0  0
  144.7796  133.4650  153.3621 N   0  3  1  0  0  0  0  0  0  0  0  0
  143.9959  134.4540  152.5895 C   0  0  0  0  0  0  0  0  0  0  0  0
  143.8141  133.8574  151.1850 C   0  0  0  0  0  0  0  0  0  0  0  0
  144.4730  132.4748  151.2384 C   0  0  0  0  0  0  0  0  0  0  0  0
  145.4616  132.5731  152.4014 C   0  0  1  0  0  0  0  0  0  0  0  0
  146.8258  133.1516  151.9606 C   0  0  0  0  0  0  0  0  0  0  0  0
  147.6065  133.5051  153.0943 O   0  0  0  0  0  0  0  0  0  0  0  0
  148.6876  138.5086  155.4895 N   0  0  0  0  0  0  0  0  0  0  0  0
  149.5409  139.6131  155.7765 C   0  0  0  0  0  0  0  0  0  0  0  0
  150.8861  139.4566  156.1994 C   0  0  0  0  0  0  0  0  0  0  0  0
  151.6765  140.5954  156.4520 C   0  0  0  0  0  0  0  0  0  0  0  0
  151.1158  141.8727  156.2699 C   0  0  0  0  0  0  0  0  0  0  0  0
  149.8388  141.9887  155.8500 N   0  3  0  0  0  0  0  0  0  0  0  0
  149.0366  140.9263  155.5927 C   0  0  0  0  0  0  0  0  0  0  0  0
  147.7237  141.1577  155.1468 N   0  0  0  0  0  0  0  0  0  0  0  0
  146.8510  141.8515  156.0792 C   0  0  0  0  0  0  0  0  0  0  0  0
  145.6523  142.3102  155.2458 C   0  0  0  0  0  0  0  0  0  0  0  0
  146.1723  142.3616  153.8040 C   0  0  0  0  0  0  0  0  0  0  0  0
  147.6229  141.8776  153.8881 C   0  0  0  0  0  0  0  0  0  0  0  0
  147.0331  136.9015  155.0836 H   0  0  0  0  0  0  0  0  0  0  0  0
  148.9890  134.7073  154.6665 H   0  0  0  0  0  0  0  0  0  0  0  0
  147.7472  134.5242  155.8892 H   0  0  0  0  0  0  0  0  0  0  0  0
  146.7939  135.3867  153.2051 H   0  0  0  0  0  0  0  0  0  0  0  0
  145.8502  133.1886  155.1264 H   0  0  0  0  0  0  0  0  0  0  0  0
  145.1327  134.7771  154.9890 H   0  0  0  0  0  0  0  0  0  0  0  0
  143.0401  134.6336  153.0822 H   0  0  0  0  0  0  0  0  0  0  0  0
  144.5192  135.4086  152.5241 H   0  0  0  0  0  0  0  0  0  0  0  0
  142.7641  133.7934  150.8968 H   0  0  0  0  0  0  0  0  0  0  0  0
  144.3178  134.4855  150.4492 H   0  0  0  0  0  0  0  0  0  0  0  0
  143.7168  131.7226  151.4676 H   0  0  0  0  0  0  0  0  0  0  0  0
  144.9429  132.1913  150.2959 H   0  0  0  0  0  0  0  0  0  0  0  0
  145.6198  131.5981  152.8642 H   0  0  0  0  0  0  0  0  0  0  0  0
  147.3719  132.4116  151.3750 H   0  0  0  0  0  0  0  0  0  0  0  0
  146.7014  134.0245  151.3174 H   0  0  0  0  0  0  0  0  0  0  0  0
  147.6996  138.7156  155.4844 H   0  0  0  0  0  0  0  0  0  0  0  0
  151.3341  138.4827  156.3222 H   0  0  0  0  0  0  0  0  0  0  0  0
  152.7014  140.4892  156.7765 H   0  0  0  0  0  0  0  0  0  0  0  0
  151.6479  142.7978  156.4380 H   0  0  0  0  0  0  0  0  0  0  0  0
  146.5455  141.1949  156.8945 H   0  0  0  0  0  0  0  0  0  0  0  0
  147.3567  142.7152  156.5128 H   0  0  0  0  0  0  0  0  0  0  0  0
  144.8412  141.5848  155.3205 H   0  0  0  0  0  0  0  0  0  0  0  0
  145.2689  143.2729  155.5853 H   0  0  0  0  0  0  0  0  0  0  0  0
  145.5833  141.6967  153.1710 H   0  0  0  0  0  0  0  0  0  0  0  0
  146.1119  143.3640  153.3789 H   0  0  0  0  0  0  0  0  0  0  0  0
  148.3036  142.7302  153.8794 H   0  0  0  0  0  0  0  0  0  0  0  0
  147.8805  141.2338  153.0466 H   0  0  0  0  0  0  0  0  0  0  0  0
  144.0862  132.8921  153.8218 H   0  0  0  0  0  0  0  0  0  0  0  0
  149.4581  142.9259  155.7177 H   0  0  0  0  0  0  0  0  0  0  0  0
  1  2  2  0  0  0  0
  2  3  1  0  0  0  0
  2 14  1  0  0  0  0
  3  4  1  0  0  0  0
  3 26  1  0  0  0  0
  4  5  1  0  0  0  0
  4 27  1  0  0  0  0
  4 28  1  0  0  0  0
  5 13  1  0  0  0  0
  5  6  1  0  0  0  0
  5 29  1  0  0  0  0
  6  7  1  0  0  0  0
  6 30  1  0  0  0  0
  6 31  1  0  0  0  0
  7 11  1  0  0  0  0
  7  8  1  0  0  0  0
  7 53  1  0  0  0  0
  8  9  1  0  0  0  0
  8 32  1  0  0  0  0
  8 33  1  0  0  0  0
  9 10  1  0  0  0  0
  9 34  1  0  0  0  0
  9 35  1  0  0  0  0
 10 11  1  0  0  0  0
 10 36  1  0  0  0  0
 10 37  1  0  0  0  0
 11 12  1  0  0  0  0
 11 38  1  0  0  0  0
 12 13  1  0  0  0  0
 12 39  1  0  0  0  0
 12 40  1  0  0  0  0
 14 15  1  0  0  0  0
 14 41  1  0  0  0  0
 15 20  1  0  0  0  0
 15 16  2  0  0  0  0
 16 17  1  0  0  0  0
 16 42  1  0  0  0  0
 17 18  2  0  0  0  0
 17 43  1  0  0  0  0
 18 19  1  0  0  0  0
 18 44  1  0  0  0  0
 19 20  2  0  0  0  0
 19 54  1  0  0  0  0
 20 21  1  0  0  0  0
 21 25  1  0  0  0  0
 21 22  1  0  0  0  0
 22 23  1  0  0  0  0
 22 45  1  0  0  0  0
 22 46  1  0  0  0  0
 23 24  1  0  0  0  0
 23 47  1  0  0  0  0
 23 48  1  0  0  0  0
 24 25  1  0  0  0  0
 24 49  1  0  0  0  0
 24 50  1  0  0  0  0
 25 51  1  0  0  0  0
 25 52  1  0  0  0  0
M  CHG  1   7   1
M  CHG  1  19   1
M  END
> <s_m_source_file>
AV-unprocessed.smi

> <i_m_source_file_index>
1830

> <i_lp_mmshare_version>
43012

> <i_f3d_flags>
0

> <s_epik_input>
W0NIMl0xW0NIMl1bQ0gyXVtDQEhdKE4xMilbQ0gyXU9bQ0BASF0oW0NIMl0yKVtDSDJdW05IXUMoPU8pW05IXWMzW2NIXVtjSF1bY0hdbmMzTjRbQ0gyXVtDSDJdW0NIMl1bQ0gyXTQ=

> <s_epik_cmdline>
J2VwaWtfcHl0aG9uJywgJy1waCcsICc3LjAnLCAnLXRuJywgJzgnLCAnLW1hJywgJzIwMCcsICctbWV0YWxfYmluZGluZycsICctaW1hZScsICc8aW5maWxlLm1hZT4nLCAnLW9tYWUnLCAnPG91dGZpbGUubWFlPic=

> <r_lp_tautomer_probability>
0.999994

> <r_epik_Ionization_Penalty>
1.29113

> <r_epik_Ionization_Penalty_Charging>
1.29111

> <r_epik_Ionization_Penalty_Neutral>
1.88144e-05

> <r_epik_State_Penalty>
1.32676

> <r_epik_Charging_Adjusted_Penalty>
2.61787

> <i_epik_Tot_Q>
2

> <i_epik_Tot_abs_Q>
2

> <r_epik_Metal_State_Penalty>
1.40425

> <b_epik_Metal_Only>
0

> <s_lp_Force_Field>
OPLS_2005

> <r_lp_Energy>
78.9005

> <b_lp_Chiralities_Consistent>
1

> <s_lp_Variant>
AV-unprocessed.smi:1830-15

> <Gold.Version>
5.8.1

> <Gold.Id.Protein>
6NUR|6NUR_protein|mol2

> <Gold.PLP.Fitness>
42.7579

> <Gold.PLP.PLP>
-32.2228

> <Gold.PLP.part.hbond>
-1.9688

> <Gold.PLP.part.metal>
0.0000

> <Gold.PLP.part.buried>
-7.3860

> <Gold.PLP.part.nonpolar>
-23.3627

> <Gold.PLP.part.repulsive>
0.4815

> <Gold.PLP.ligand.clash>
0.0000

> <Gold.PLP.ligand.torsion>
0.7490

> <Gold.PLP.Chemscore.Hbond>
4.0000

> <Gold.PLP.Chemscore.CHOScore>
0.0000

> <Gold.PLP.Chemscore.Metal>
0.0000

> <Gold.Chemscore.Hbonds>
donor molecule, donor type, donor heavy atom, donor atom, acceptor molecule, acceptor atom, score
      L1  H     7    53       P1 10957  1.92
      L1  H    19    54       P1  8028  2.00

> <Gold.PLP.Chemscore.Internal.Correction>
0.0331

> <Gold.Rescore>
     Score         DG    S(hbond)    S(metal)    S(lipo)     H(rot)  DE(clash)    DE(int)     intcor
     15.66     -17.61       1.98        0.00      78.30       1.43       0.07       1.88       ----

> <Gold.Chemscore.Fitness>
15.6591

> <Gold.Chemscore.DG>
-17.6115

> <Gold.Chemscore.ZeroCoef>
-5.4800

> <Gold.Chemscore.Hbond>
1.9838

> <Gold.Chemscore.Metal>
0.0000

> <Gold.Chemscore.Lipo>
78.2978

> <Gold.Chemscore.Internal_Hbond>
0.0000

> <Gold.Chemscore.DEClash>
0.0698

> <Gold.Chemscore.DEInternal>
1.8826

> <Gold.Chemscore.Rot>
1.4278

> <Gold.Chemscore.Internal.Correction>
   9.000000E+99

> <Gold.Chemscore.Hbonds>
donor molecule, donor type, donor heavy atom, donor atom, acceptor molecule, acceptor atom, score
      L1  H     7    53       P1 10957  0.80
      L1  H    19    54       P1  8028  1.00

> <Gold.Chemscore.Hbond.Weighted>
-6.6258

> <Gold.Chemscore.Metal.Weighted>
-0.0000

> <Gold.Chemscore.Lipo.Weighted>
-9.1608

> <Gold.Chemscore.Internal_Hbond.Weighted>
0.0000

> <Gold.Chemscore.DEClash.Weighted>
0.0698

> <Gold.Chemscore.DEInternal.Weighted>
1.8826

> <Gold.Chemscore.Rot.Weighted>
3.6551

> <Gold.Chemscore.Internal.Correction.Weighted>
   9.000000E+99

> <Gold.Protein.RotatedTorsions>
[ 6907 6896 6895 6894 ] final -162.21 input  -60.11 | X-H torsion
[ 7974 7965 7964 7962 ] final  -25.59 input  175.53 | X-H torsion
[ 8008 7997 7996 7995 ] final   61.49 input   59.86 | X-H torsion
[ 10167 10162 10161 10158 ] final -159.52 input  -65.29 | X-H torsion
[ 10718 10713 10712 10709 ] final  -35.18 input   66.30 | X-H torsion
[ 10763 10752 10751 10750 ] final -172.74 input  -60.55 | X-H torsion
[ 11005 11000 10999 10996 ] final   -8.52 input  -57.11 | X-H torsion

> <Gold.Protein.ActiveResidues>
 VAL166  LYS551  ARG553  GLY616  TRP617  ASP618  TYR619  PRO620  LYS621  CYS622 
 ASP623  PHE694  ASN695  SER759  ASP760  ASP761  ALA762  ILE779  LEU786  VAL792 
 PHE793  MET794  SER795  GLU796  ALA797  LYS798  CYS799  TRP800  GLU811  SER814 

> <Gold.Protein.RotatedAtoms>
  151.3767  133.3836  159.2705 H   0  0  0  0  0  0  0  0  0  0  0  0  # atno 6907 bound_to 6896
  150.9609  134.8998  159.7740 H   0  0  0  0  0  0  0  0  0  0  0  0  # atno 6908 bound_to 6896
  152.5149  134.3726  159.9375 H   0  0  0  0  0  0  0  0  0  0  0  0  # atno 6909 bound_to 6896
  146.1481  140.4906  142.8623 H   0  0  0  0  0  0  0  0  0  0  0  0  # atno 7974 bound_to 7965
  155.5991  140.3494  155.4588 H   0  0  0  0  0  0  0  0  0  0  0  0  # atno 8008 bound_to 7997
  156.0242  140.1260  157.0350 H   0  0  0  0  0  0  0  0  0  0  0  0  # atno 8009 bound_to 7997
  154.4327  140.1056  156.5993 H   0  0  0  0  0  0  0  0  0  0  0  0  # atno 8010 bound_to 7997
  139.6609  143.9915  152.2224 H   0  0  0  0  0  0  0  0  0  0  0  0  # atno 10167 bound_to 10162
  156.3417  130.4294  149.7781 H   0  0  0  0  0  0  0  0  0  0  0  0  # atno 10718 bound_to 10713
  154.6159  135.2869  155.0381 H   0  0  0  0  0  0  0  0  0  0  0  0  # atno 10763 bound_to 10752
  154.1593  135.6490  153.4986 H   0  0  0  0  0  0  0  0  0  0  0  0  # atno 10764 bound_to 10752
  153.0215  135.5374  154.6930 H   0  0  0  0  0  0  0  0  0  0  0  0  # atno 10765 bound_to 10752
  140.7244  133.8801  155.8845 H   0  0  0  0  0  0  0  0  0  0  0  0  # atno 11005 bound_to 11000
  144.7871  140.5957  143.6566 LP  0  0  0  0  0  0  0  0  0  0  0  0  # atno 17320 bound_to 7965
  145.4889  139.1490  143.3721 LP  0  0  0  0  0  0  0  0  0  0  0  0  # atno 17321 bound_to 7965
  139.9654  144.6530  150.8040 LP  0  0  0  0  0  0  0  0  0  0  0  0  # atno 17342 bound_to 10162
  140.7579  143.3096  151.2876 LP  0  0  0  0  0  0  0  0  0  0  0  0  # atno 17343 bound_to 10162
  156.5015  130.8131  151.3134 LP  0  0  0  0  0  0  0  0  0  0  0  0  # atno 17370 bound_to 10713
  157.7448  130.9943  150.2703 LP  0  0  0  0  0  0  0  0  0  0  0  0  # atno 17371 bound_to 10713
  140.9976  134.1194  157.4349 LP  0  0  0  0  0  0  0  0  0  0  0  0  # atno 17394 bound_to 11000
  139.8840  135.0059  156.6343 LP  0  0  0  0  0  0  0  0  0  0  0  0  # atno 17395 bound_to 11000

$$$$
