AV-unprocessed.smi:3057|AV-procd|sdf|11665|dock2
  -GOLD-   2272017 73D 1   1.00000     0.00000
 Structure written by MMmdl.
 41 43  0  0  0  0  0  0  0  0  2 V2000
  147.7037  138.7862  155.5021 C   0  0  0  0  0  0  0  0  0  0  0  0
  148.4936  139.3799  154.3197 C   0  0  1  0  0  0  0  0  0  0  0  0
  147.5981  139.5682  153.0817 C   0  0  0  0  0  0  0  0  0  0  0  0
  147.1388  141.0319  153.1577 C   0  0  0  0  0  0  0  0  0  0  0  0
  148.2227  141.6706  154.0110 C   0  0  0  0  0  0  0  0  0  0  0  0
  148.4145  142.8845  154.0654 O   0  0  0  0  0  0  0  0  0  0  0  0
  148.9519  140.7238  154.6152 N   0  0  0  0  0  0  0  0  0  0  0  0
  150.2793  140.8847  155.2140 C   0  0  1  0  0  0  0  0  0  0  0  0
  150.1642  141.4250  156.6495 C   0  0  0  0  0  0  0  0  0  0  0  0
  149.1579  142.0317  157.0189 O   0  0  0  0  0  0  0  0  0  0  0  0
  151.2110  141.1863  157.4528 N   0  0  0  0  0  0  0  0  0  0  0  0
  151.3113  141.6228  158.8391 C   0  0  0  0  0  0  0  0  0  0  0  0
  152.7824  141.7361  159.2621 C   0  0  0  0  0  0  0  0  0  0  0  0
  152.9366  142.2712  160.6725 C   0  0  0  0  0  0  0  0  0  0  0  0
  152.3321  143.4767  161.0913 C   0  0  0  0  0  0  0  0  0  0  0  0
  152.5187  143.9156  162.4190 C   0  0  0  0  0  0  0  0  0  0  0  0
  153.3051  143.1423  163.2980 C   0  0  0  0  0  0  0  0  0  0  0  0
  153.8865  141.9476  162.8265 C   0  0  0  0  0  0  0  0  0  0  0  0
  153.6838  141.5601  161.5481 N   0  3  0  0  0  0  0  0  0  0  0  0
  150.9284  139.4782  155.2252 C   0  0  0  0  0  0  0  0  0  0  0  0
  150.0179  138.4684  154.0235 S   0  0  0  0  0  0  0  0  0  0  0  0
  146.8413  139.4031  155.7563 H   0  0  0  0  0  0  0  0  0  0  0  0
  148.3193  138.6971  156.3971 H   0  0  0  0  0  0  0  0  0  0  0  0
  147.3359  137.7882  155.2620 H   0  0  0  0  0  0  0  0  0  0  0  0
  148.1713  139.4154  152.1659 H   0  0  0  0  0  0  0  0  0  0  0  0
  146.7587  138.8723  153.0586 H   0  0  0  0  0  0  0  0  0  0  0  0
  147.0660  141.4960  152.1738 H   0  0  0  0  0  0  0  0  0  0  0  0
  146.1786  141.1241  153.6661 H   0  0  0  0  0  0  0  0  0  0  0  0
  150.8694  141.5603  154.5915 H   0  0  0  0  0  0  0  0  0  0  0  0
  151.9956  140.6768  157.0725 H   0  0  0  0  0  0  0  0  0  0  0  0
  150.8181  142.5881  158.9669 H   0  0  0  0  0  0  0  0  0  0  0  0
  150.7875  140.9071  159.4739 H   0  0  0  0  0  0  0  0  0  0  0  0
  153.2679  140.7616  159.1938 H   0  0  0  0  0  0  0  0  0  0  0  0
  153.3182  142.3955  158.5774 H   0  0  0  0  0  0  0  0  0  0  0  0
  151.7325  144.0591  160.4066 H   0  0  0  0  0  0  0  0  0  0  0  0
  152.0643  144.8347  162.7589 H   0  0  0  0  0  0  0  0  0  0  0  0
  153.4604  143.4611  164.3184 H   0  0  0  0  0  0  0  0  0  0  0  0
  154.5025  141.2952  163.4281 H   0  0  0  0  0  0  0  0  0  0  0  0
  151.9887  139.5135  154.9741 H   0  0  0  0  0  0  0  0  0  0  0  0
  150.8369  138.9911  156.1974 H   0  0  0  0  0  0  0  0  0  0  0  0
  154.1141  140.6920  161.2283 H   0  0  0  0  0  0  0  0  0  0  0  0
  1  2  1  0  0  0  0
  1 22  1  0  0  0  0
  1 23  1  0  0  0  0
  1 24  1  0  0  0  0
  2  7  1  0  0  0  0
  2 21  1  0  0  0  0
  2  3  1  0  0  0  0
  3  4  1  0  0  0  0
  3 25  1  0  0  0  0
  3 26  1  0  0  0  0
  4  5  1  0  0  0  0
  4 27  1  0  0  0  0
  4 28  1  0  0  0  0
  5  6  2  0  0  0  0
  5  7  1  0  0  0  0
  7  8  1  0  0  0  0
  8  9  1  0  0  0  0
  8 20  1  0  0  0  0
  8 29  1  0  0  0  0
  9 10  2  0  0  0  0
  9 11  1  0  0  0  0
 11 12  1  0  0  0  0
 11 30  1  0  0  0  0
 12 13  1  0  0  0  0
 12 31  1  0  0  0  0
 12 32  1  0  0  0  0
 13 14  1  0  0  0  0
 13 33  1  0  0  0  0
 13 34  1  0  0  0  0
 14 19  1  0  0  0  0
 14 15  2  0  0  0  0
 15 16  1  0  0  0  0
 15 35  1  0  0  0  0
 16 17  2  0  0  0  0
 16 36  1  0  0  0  0
 17 18  1  0  0  0  0
 17 37  1  0  0  0  0
 18 19  2  0  0  0  0
 18 38  1  0  0  0  0
 19 41  1  0  0  0  0
 20 21  1  0  0  0  0
 20 39  1  0  0  0  0
 20 40  1  0  0  0  0
M  CHG  1  19   1
M  END
> <s_m_source_file>
AV-unprocessed.smi

> <i_m_source_file_index>
3057

> <i_lp_mmshare_version>
43012

> <i_f3d_flags>
0

> <s_epik_input>
W0NIMl0xW0NIMl1DKD1PKU4oW0NAQF0xMltDSDNdKVtDQEhdKFtDSDJdUzIpQyg9TylbTkhdW0NIMl1bQ0gyXWMzW2NIXVtjSF1bY0hdW2NIXW4z

> <s_epik_cmdline>
J2VwaWtfcHl0aG9uJywgJy1waCcsICc3LjAnLCAnLXRuJywgJzgnLCAnLW1hJywgJzIwMCcsICctbWV0YWxfYmluZGluZycsICctaW1hZScsICc8aW5maWxlLm1hZT4nLCAnLW9tYWUnLCAnPG91dGZpbGUubWFlPic=

> <r_epik_Ionization_Penalty>
1.8888

> <r_epik_Ionization_Penalty_Charging>
1.8888

> <r_epik_Ionization_Penalty_Neutral>
1.66252e-07

> <r_epik_State_Penalty>
2.00916

> <r_epik_Charging_Adjusted_Penalty>
3.89796

> <i_epik_Tot_Q>
1

> <i_epik_Tot_abs_Q>
1

> <r_epik_Metal_State_Penalty>
2.03343

> <b_epik_Metal_Only>
0

> <s_lp_Force_Field>
OPLS_2005

> <r_lp_Energy>
32.3191

> <b_lp_Chiralities_Consistent>
1

> <s_lp_Variant>
AV-unprocessed.smi:3057-5

> <Gold.Version>
5.8.1

> <Gold.Id.Protein>
6NUR|6NUR_protein|mol2

> <Gold.PLP.Fitness>
42.3980

> <Gold.PLP.PLP>
-40.9967

> <Gold.PLP.part.hbond>
-2.0000

> <Gold.PLP.part.metal>
0.0000

> <Gold.PLP.part.buried>
1.0369

> <Gold.PLP.part.nonpolar>
-43.0475

> <Gold.PLP.part.repulsive>
4.5877

> <Gold.PLP.ligand.clash>
0.0000

> <Gold.PLP.ligand.torsion>
0.8047

> <Gold.PLP.Chemscore.Hbond>
0.9913

> <Gold.PLP.Chemscore.CHOScore>
0.0000

> <Gold.PLP.Chemscore.Metal>
0.0000

> <Gold.Chemscore.Hbonds>
donor molecule, donor type, donor heavy atom, donor atom, acceptor molecule, acceptor atom, score
      P1  H  8022  8030       L1     6  1.00

> <Gold.PLP.Chemscore.Internal.Correction>
0.0369

> <Gold.Rescore>
     Score         DG    S(hbond)    S(metal)    S(lipo)     H(rot)  DE(clash)    DE(int)     intcor
     14.79     -18.02       0.96        0.00     115.21       1.62       2.44       0.80       ----

> <Gold.Chemscore.Fitness>
14.7853

> <Gold.Chemscore.DG>
-18.0225

> <Gold.Chemscore.ZeroCoef>
-5.4800

> <Gold.Chemscore.Hbond>
0.9638

> <Gold.Chemscore.Metal>
0.0000

> <Gold.Chemscore.Lipo>
115.2071

> <Gold.Chemscore.Internal_Hbond>
0.0000

> <Gold.Chemscore.DEClash>
2.4354

> <Gold.Chemscore.DEInternal>
0.8018

> <Gold.Chemscore.Rot>
1.6234

> <Gold.Chemscore.Internal.Correction>
   9.000000E+99

> <Gold.Chemscore.Hbonds>
donor molecule, donor type, donor heavy atom, donor atom, acceptor molecule, acceptor atom, score
      P1  H  8022  8030       L1     6  0.96

> <Gold.Chemscore.Hbond.Weighted>
-3.2191

> <Gold.Chemscore.Metal.Weighted>
-0.0000

> <Gold.Chemscore.Lipo.Weighted>
-13.4792

> <Gold.Chemscore.Internal_Hbond.Weighted>
0.0000

> <Gold.Chemscore.DEClash.Weighted>
2.4354

> <Gold.Chemscore.DEInternal.Weighted>
0.8018

> <Gold.Chemscore.Rot.Weighted>
4.1558

> <Gold.Chemscore.Internal.Correction.Weighted>
   9.000000E+99

> <Gold.Protein.RotatedTorsions>
[ 6907 6896 6895 6894 ] final   11.66 input  -60.11 | X-H torsion
[ 7974 7965 7964 7962 ] final  176.22 input  175.53 | X-H torsion
[ 8008 7997 7996 7995 ] final   32.69 input   59.86 | X-H torsion
[ 10167 10162 10161 10158 ] final  130.35 input  -65.29 | X-H torsion
[ 10718 10713 10712 10709 ] final -130.17 input   66.30 | X-H torsion
[ 10763 10752 10751 10750 ] final  111.93 input  -60.55 | X-H torsion
[ 11005 11000 10999 10996 ] final  118.17 input  -57.11 | X-H torsion

> <Gold.Protein.ActiveResidues>
 VAL166  LYS551  ARG553  GLY616  TRP617  ASP618  TYR619  PRO620  LYS621  CYS622 
 ASP623  PHE694  ASN695  SER759  ASP760  ASP761  ALA762  ILE779  LEU786  VAL792 
 PHE793  MET794  SER795  GLU796  ALA797  LYS798  CYS799  TRP800  GLU811  SER814 

> <Gold.Protein.RotatedAtoms>
  151.7579  135.0817  160.0340 H   0  0  0  0  0  0  0  0  0  0  0  0  # atno 6907 bound_to 6896
  152.3373  133.6021  159.5860 H   0  0  0  0  0  0  0  0  0  0  0  0  # atno 6908 bound_to 6896
  150.7458  133.9693  159.3582 H   0  0  0  0  0  0  0  0  0  0  0  0  # atno 6909 bound_to 6896
  144.7188  140.0065  143.6440 H   0  0  0  0  0  0  0  0  0  0  0  0  # atno 7974 bound_to 7965
  155.1266  140.3253  155.4484 H   0  0  0  0  0  0  0  0  0  0  0  0  # atno 8008 bound_to 7997
  156.2647  140.2018  156.6335 H   0  0  0  0  0  0  0  0  0  0  0  0  # atno 8009 bound_to 7997
  154.6644  140.0543  157.0084 H   0  0  0  0  0  0  0  0  0  0  0  0  # atno 8010 bound_to 7997
  139.5434  144.6751  151.4551 H   0  0  0  0  0  0  0  0  0  0  0  0  # atno 10167 bound_to 10162
  156.2118  130.6923  151.0658 H   0  0  0  0  0  0  0  0  0  0  0  0  # atno 10718 bound_to 10713
  153.4704  135.3702  155.2388 H   0  0  0  0  0  0  0  0  0  0  0  0  # atno 10763 bound_to 10752
  154.8757  135.3930  154.3818 H   0  0  0  0  0  0  0  0  0  0  0  0  # atno 10764 bound_to 10752
  153.4406  135.7084  153.6236 H   0  0  0  0  0  0  0  0  0  0  0  0  # atno 10765 bound_to 10752
  139.9100  134.9617  156.7462 H   0  0  0  0  0  0  0  0  0  0  0  0  # atno 11005 bound_to 11000
  146.0293  139.3321  143.0765 LP  0  0  0  0  0  0  0  0  0  0  0  0  # atno 17320 bound_to 7965
  145.8472  140.9549  143.0768 LP  0  0  0  0  0  0  0  0  0  0  0  0  # atno 17321 bound_to 7965
  140.6673  143.8370  150.6957 LP  0  0  0  0  0  0  0  0  0  0  0  0  # atno 17342 bound_to 10162
  140.1783  143.4136  152.1951 LP  0  0  0  0  0  0  0  0  0  0  0  0  # atno 17343 bound_to 10162
  157.7042  131.0763  150.6720 LP  0  0  0  0  0  0  0  0  0  0  0  0  # atno 17370 bound_to 10713
  156.6780  130.4559  149.5636 LP  0  0  0  0  0  0  0  0  0  0  0  0  # atno 17371 bound_to 10713
  140.6810  133.9474  155.7910 LP  0  0  0  0  0  0  0  0  0  0  0  0  # atno 17394 bound_to 11000
  141.0510  134.0485  157.3783 LP  0  0  0  0  0  0  0  0  0  0  0  0  # atno 17395 bound_to 11000

$$$$
