AV-unprocessed.smi:1452|AV-procd|sdf|5909|dock1
  -GOLD-   22720 5593D 1   1.00000     0.00000
 Structure written by MMmdl.
 40 42  0  0  0  0  0  0  0  0  2 V2000
  144.8571  136.5021  153.2457 O   0  0  0  0  0  0  0  0  0  0  0  0
  145.9780  136.3743  152.7567 C   0  0  0  0  0  0  0  0  0  0  0  0
  146.2953  135.2980  152.0065 N   0  0  0  0  0  0  0  0  0  0  0  0
  145.5227  134.1622  151.6233 C   0  0  0  0  0  0  0  0  0  0  0  0
  146.2829  133.0111  151.3158 C   0  0  0  0  0  0  0  0  0  0  0  0
  145.6281  131.8326  150.9089 C   0  0  0  0  0  0  0  0  0  0  0  0
  144.2252  131.8350  150.8149 C   0  0  0  0  0  0  0  0  0  0  0  0
  143.5421  133.0224  151.1332 C   0  0  0  0  0  0  0  0  0  0  0  0
  144.1682  134.1531  151.5236 N   0  0  0  0  0  0  0  0  0  0  0  0
  146.9545  137.2806  152.9296 N   0  0  0  0  0  0  0  0  0  0  0  0
  146.8646  138.4931  153.7394 C   0  0  2  0  0  0  0  0  0  0  0  0
  146.6160  139.7573  152.8935 C   0  0  0  0  0  0  0  0  0  0  0  0
  147.5415  140.8186  153.4968 C   0  0  0  0  0  0  0  0  0  0  0  0
  148.6913  140.0301  153.9545 N   0  3  1  0  0  0  0  0  0  0  0  0
  149.6949  140.6833  154.8189 C   0  0  0  0  0  0  0  0  0  0  0  0
  150.8800  139.7128  155.0105 C   0  0  0  0  0  0  0  0  0  0  0  0
  150.4231  138.3211  155.5041 C   0  0  0  0  0  0  0  0  0  0  0  0
  149.2836  137.7504  154.6329 C   0  0  0  0  0  0  0  0  0  0  0  0
  148.1526  138.7913  154.5416 C   0  0  2  0  0  0  0  0  0  0  0  0
  147.2106  135.3397  151.5818 H   0  0  0  0  0  0  0  0  0  0  0  0
  147.3607  133.0259  151.3900 H   0  0  0  0  0  0  0  0  0  0  0  0
  146.1934  130.9436  150.6718 H   0  0  0  0  0  0  0  0  0  0  0  0
  143.6873  130.9510  150.5054 H   0  0  0  0  0  0  0  0  0  0  0  0
  142.4649  133.0676  151.0718 H   0  0  0  0  0  0  0  0  0  0  0  0
  147.8427  137.0936  152.4855 H   0  0  0  0  0  0  0  0  0  0  0  0
  146.0366  138.3941  154.4442 H   0  0  0  0  0  0  0  0  0  0  0  0
  146.9018  139.5810  151.8552 H   0  0  0  0  0  0  0  0  0  0  0  0
  145.5703  140.0669  152.8977 H   0  0  0  0  0  0  0  0  0  0  0  0
  147.8309  141.5840  152.7763 H   0  0  0  0  0  0  0  0  0  0  0  0
  147.0648  141.3047  154.3495 H   0  0  0  0  0  0  0  0  0  0  0  0
  150.0369  141.6080  154.3528 H   0  0  0  0  0  0  0  0  0  0  0  0
  149.2492  140.9490  155.7788 H   0  0  0  0  0  0  0  0  0  0  0  0
  151.4029  139.5973  154.0601 H   0  0  0  0  0  0  0  0  0  0  0  0
  151.6032  140.1382  155.7070 H   0  0  0  0  0  0  0  0  0  0  0  0
  151.2676  137.6312  155.5151 H   0  0  0  0  0  0  0  0  0  0  0  0
  150.0801  138.4015  156.5365 H   0  0  0  0  0  0  0  0  0  0  0  0
  149.6606  137.5078  153.6383 H   0  0  0  0  0  0  0  0  0  0  0  0
  148.9153  136.8214  155.0693 H   0  0  0  0  0  0  0  0  0  0  0  0
  147.8310  139.0249  155.5591 H   0  0  0  0  0  0  0  0  0  0  0  0
  149.1758  139.7502  153.1137 H   0  0  0  0  0  0  0  0  0  0  0  0
  1  2  2  0  0  0  0
  2  3  1  0  0  0  0
  2 10  1  0  0  0  0
  3  4  1  0  0  0  0
  3 20  1  0  0  0  0
  4  9  1  0  0  0  0
  4  5  2  0  0  0  0
  5  6  1  0  0  0  0
  5 21  1  0  0  0  0
  6  7  2  0  0  0  0
  6 22  1  0  0  0  0
  7  8  1  0  0  0  0
  7 23  1  0  0  0  0
  8  9  2  0  0  0  0
  8 24  1  0  0  0  0
 10 11  1  0  0  0  0
 10 25  1  0  0  0  0
 11 19  1  0  0  0  0
 11 12  1  0  0  0  0
 11 26  1  0  0  0  0
 12 13  1  0  0  0  0
 12 27  1  0  0  0  0
 12 28  1  0  0  0  0
 13 14  1  0  0  0  0
 13 29  1  0  0  0  0
 13 30  1  0  0  0  0
 14 19  1  0  0  0  0
 14 15  1  0  0  0  0
 14 40  1  0  0  0  0
 15 16  1  0  0  0  0
 15 31  1  0  0  0  0
 15 32  1  0  0  0  0
 16 17  1  0  0  0  0
 16 33  1  0  0  0  0
 16 34  1  0  0  0  0
 17 18  1  0  0  0  0
 17 35  1  0  0  0  0
 17 36  1  0  0  0  0
 18 19  1  0  0  0  0
 18 37  1  0  0  0  0
 18 38  1  0  0  0  0
 19 39  1  0  0  0  0
M  CHG  1  14   1
M  END
> <s_m_source_file>
AV-unprocessed.smi

> <i_m_source_file_index>
1452

> <i_lp_mmshare_version>
43012

> <i_f3d_flags>
0

> <s_epik_input>
W0NIMl0xW0NIMl1bQ0gyXVtDSDJdW0NASF0oTjEyKVtDQEBIXShbQ0gyXVtDSDJdMilbTkhdQyg9TylbTkhdYzNbY0hdW2NIXVtjSF1bY0hdbjM=

> <s_epik_cmdline>
J2VwaWtfcHl0aG9uJywgJy1waCcsICc3LjAnLCAnLXRuJywgJzgnLCAnLW1hJywgJzIwMCcsICctbWV0YWxfYmluZGluZycsICctaW1hZScsICc8aW5maWxlLm1hZT4nLCAnLW9tYWUnLCAnPG91dGZpbGUubWFlPic=

> <r_epik_Ionization_Penalty>
0.00100813

> <r_epik_Ionization_Penalty_Charging>
0.000974069

> <r_epik_Ionization_Penalty_Neutral>
3.40643e-05

> <r_epik_State_Penalty>
0.000633842

> <r_epik_Charging_Adjusted_Penalty>
0.00160791

> <i_epik_Tot_Q>
1

> <i_epik_Tot_abs_Q>
1

> <r_epik_Metal_State_Penalty>
-0

> <b_epik_Metal_Only>
0

> <s_lp_Force_Field>
OPLS_2005

> <r_lp_Energy>
45.6992

> <b_lp_Chiralities_Consistent>
1

> <s_lp_Variant>
AV-unprocessed.smi:1452-7

> <Gold.Version>
5.8.1

> <Gold.Id.Protein>
6NUR|6NUR_protein|mol2

> <Gold.PLP.Fitness>
39.3664

> <Gold.PLP.PLP>
-28.6920

> <Gold.PLP.part.hbond>
-2.8721

> <Gold.PLP.part.metal>
0.0000

> <Gold.PLP.part.buried>
-0.2003

> <Gold.PLP.part.nonpolar>
-26.2610

> <Gold.PLP.part.repulsive>
0.4382

> <Gold.PLP.ligand.clash>
0.0000

> <Gold.PLP.ligand.torsion>
0.4111

> <Gold.PLP.Chemscore.Hbond>
2.8320

> <Gold.PLP.Chemscore.CHOScore>
1.0000

> <Gold.PLP.Chemscore.Metal>
0.0000

> <Gold.Chemscore.Hbonds>
donor molecule, donor type, donor heavy atom, donor atom, acceptor molecule, acceptor atom, score
      L1  H     3    20       P1  7948  0.82
      L1  H    10    25       P1  7948  0.99
      L1  H    14    40       P1  7957  1.00
      L1  C     8    24       P1 10186  1.00

> <Gold.PLP.Chemscore.Internal.Correction>
0.0006

> <Gold.Rescore>
     Score         DG    S(hbond)    S(metal)    S(lipo)     H(rot)  DE(clash)    DE(int)     intcor
     18.61     -20.83       2.59        0.00      79.24       1.00       0.73       1.49       ----

> <Gold.Chemscore.Fitness>
18.6085

> <Gold.Chemscore.DG>
-20.8305

> <Gold.Chemscore.ZeroCoef>
-5.4800

> <Gold.Chemscore.Hbond>
2.5865

> <Gold.Chemscore.Metal>
0.0000

> <Gold.Chemscore.Lipo>
79.2434

> <Gold.Chemscore.Internal_Hbond>
0.0000

> <Gold.Chemscore.DEClash>
0.7296

> <Gold.Chemscore.DEInternal>
1.4923

> <Gold.Chemscore.Rot>
1.0000

> <Gold.Chemscore.Internal.Correction>
   9.000000E+99

> <Gold.Chemscore.Hbonds>
donor molecule, donor type, donor heavy atom, donor atom, acceptor molecule, acceptor atom, score
      L1  H     3    20       P1  7948  0.77
      L1  H    10    25       P1  7948  0.92
      L1  H    14    40       P1  7957  0.89

> <Gold.Chemscore.Hbond.Weighted>
-8.6390

> <Gold.Chemscore.Metal.Weighted>
-0.0000

> <Gold.Chemscore.Lipo.Weighted>
-9.2715

> <Gold.Chemscore.Internal_Hbond.Weighted>
0.0000

> <Gold.Chemscore.DEClash.Weighted>
0.7296

> <Gold.Chemscore.DEInternal.Weighted>
1.4923

> <Gold.Chemscore.Rot.Weighted>
2.5600

> <Gold.Chemscore.Internal.Correction.Weighted>
   9.000000E+99

> <Gold.Protein.RotatedTorsions>
[ 6907 6896 6895 6894 ] final   74.21 input  -60.11 | X-H torsion
[ 7974 7965 7964 7962 ] final   95.73 input  175.53 | X-H torsion
[ 8008 7997 7996 7995 ] final   61.14 input   59.86 | X-H torsion
[ 10167 10162 10161 10158 ] final  164.59 input  -65.29 | X-H torsion
[ 10718 10713 10712 10709 ] final   -4.59 input   66.30 | X-H torsion
[ 10763 10752 10751 10750 ] final   41.23 input  -60.55 | X-H torsion
[ 11005 11000 10999 10996 ] final   17.64 input  -57.11 | X-H torsion

> <Gold.Protein.ActiveResidues>
 VAL166  LYS551  ARG553  GLY616  TRP617  ASP618  TYR619  PRO620  LYS621  CYS622 
 ASP623  PHE694  ASN695  SER759  ASP760  ASP761  ALA762  ILE779  LEU786  VAL792 
 PHE793  MET794  SER795  GLU796  ALA797  LYS798  CYS799  TRP800  GLU811  SER814 

> <Gold.Protein.RotatedAtoms>
  152.4964  134.4306  159.9510 H   0  0  0  0  0  0  0  0  0  0  0  0  # atno 6907 bound_to 6896
  151.4284  133.3671  159.2773 H   0  0  0  0  0  0  0  0  0  0  0  0  # atno 6908 bound_to 6896
  150.9172  134.8613  159.7525 H   0  0  0  0  0  0  0  0  0  0  0  0  # atno 6909 bound_to 6896
  145.4483  139.2295  143.3053 H   0  0  0  0  0  0  0  0  0  0  0  0  # atno 7974 bound_to 7965
  155.5935  140.3493  155.4573 H   0  0  0  0  0  0  0  0  0  0  0  0  # atno 8008 bound_to 7997
  156.0283  140.1269  157.0310 H   0  0  0  0  0  0  0  0  0  0  0  0  # atno 8009 bound_to 7997
  154.4342  140.1048  156.6048 H   0  0  0  0  0  0  0  0  0  0  0  0  # atno 8010 bound_to 7997
  139.4891  144.4219  151.9175 H   0  0  0  0  0  0  0  0  0  0  0  0  # atno 10167 bound_to 10162
  156.7591  130.5264  149.5788 H   0  0  0  0  0  0  0  0  0  0  0  0  # atno 10718 bound_to 10713
  152.9914  135.6168  154.2754 H   0  0  0  0  0  0  0  0  0  0  0  0  # atno 10763 bound_to 10752
  154.2485  135.2786  155.2828 H   0  0  0  0  0  0  0  0  0  0  0  0  # atno 10764 bound_to 10752
  154.5308  135.5788  153.6815 H   0  0  0  0  0  0  0  0  0  0  0  0  # atno 10765 bound_to 10752
  140.4337  134.1393  155.7683 H   0  0  0  0  0  0  0  0  0  0  0  0  # atno 11005 bound_to 11000
  146.2518  140.5240  142.8890 LP  0  0  0  0  0  0  0  0  0  0  0  0  # atno 17320 bound_to 7965
  144.8077  140.6330  143.6436 LP  0  0  0  0  0  0  0  0  0  0  0  0  # atno 17321 bound_to 7965
  140.3664  144.2910  150.5926 LP  0  0  0  0  0  0  0  0  0  0  0  0  # atno 17342 bound_to 10162
  140.5358  143.2233  151.8166 LP  0  0  0  0  0  0  0  0  0  0  0  0  # atno 17343 bound_to 10162
  156.1351  130.6205  151.0388 LP  0  0  0  0  0  0  0  0  0  0  0  0  # atno 17370 bound_to 10713
  157.6743  131.0854  150.7535 LP  0  0  0  0  0  0  0  0  0  0  0  0  # atno 17371 bound_to 10713
  141.1735  133.8562  157.1497 LP  0  0  0  0  0  0  0  0  0  0  0  0  # atno 17394 bound_to 11000
  140.0117  134.9985  157.0408 LP  0  0  0  0  0  0  0  0  0  0  0  0  # atno 17395 bound_to 11000

$$$$
