AV-unprocessed.smi:2745|AV-procd|sdf|10570|dock5
  -GOLD-   2272015 23D 1   1.00000     0.00000
 Structure written by MMmdl.
 19 19  0  0  0  0  0  0  0  0  2 V2000
  142.2847  132.6013  148.3048 N   0  3  0  0  0  0  0  0  0  0  0  0
  143.7504  132.7142  148.2179 C   0  0  0  0  0  0  0  0  0  0  0  0
  144.4177  132.3988  149.5640 C   0  0  0  0  0  0  0  0  0  0  0  0
  144.2324  133.5030  150.5603 C   0  0  0  0  0  0  0  0  0  0  0  0
  144.6005  134.8184  150.4124 C   0  0  0  0  0  0  0  0  0  0  0  0
  144.1955  135.7711  151.8151 S   0  0  0  0  0  0  0  0  0  0  0  0
  143.5352  134.3223  152.5574 C   0  0  0  0  0  0  0  0  0  0  0  0
  142.9792  134.3452  153.8245 N   0  0  0  0  0  0  0  0  0  0  0  0
  143.6245  133.2342  151.7913 N   0  0  0  0  0  0  0  0  0  0  0  0
  142.0346  131.6568  148.5608 H   0  0  0  0  0  0  0  0  0  0  0  0
  141.8754  132.8254  147.4089 H   0  0  0  0  0  0  0  0  0  0  0  0
  144.1095  132.0314  147.4471 H   0  0  0  0  0  0  0  0  0  0  0  0
  144.0028  133.7251  147.8961 H   0  0  0  0  0  0  0  0  0  0  0  0
  144.0099  131.4695  149.9644 H   0  0  0  0  0  0  0  0  0  0  0  0
  145.4817  132.2151  149.4082 H   0  0  0  0  0  0  0  0  0  0  0  0
  145.0839  135.2851  149.5670 H   0  0  0  0  0  0  0  0  0  0  0  0
  142.9347  135.1971  154.3649 H   0  0  0  0  0  0  0  0  0  0  0  0
  142.5348  133.5286  154.2193 H   0  0  0  0  0  0  0  0  0  0  0  0
  141.9368  133.2422  149.0036 H   0  0  0  0  0  0  0  0  0  0  0  0
  1  2  1  0  0  0  0
  1 10  1  0  0  0  0
  1 11  1  0  0  0  0
  1 19  1  0  0  0  0
  2  3  1  0  0  0  0
  2 12  1  0  0  0  0
  2 13  1  0  0  0  0
  3  4  1  0  0  0  0
  3 14  1  0  0  0  0
  3 15  1  0  0  0  0
  4  9  1  0  0  0  0
  4  5  2  0  0  0  0
  5  6  1  0  0  0  0
  5 16  1  0  0  0  0
  6  7  1  0  0  0  0
  7  8  1  0  0  0  0
  7  9  2  0  0  0  0
  8 17  1  0  0  0  0
  8 18  1  0  0  0  0
M  CHG  1   1   1
M  END
> <s_m_source_file>
AV-unprocessed.smi

> <i_m_source_file_index>
2745

> <i_lp_mmshare_version>
43012

> <i_f3d_flags>
0

> <s_epik_input>
W05IMl1bQ0gyXVtDSDJdYzFbY0hdc2MobjEpW05IMl0=

> <s_epik_cmdline>
J2VwaWtfcHl0aG9uJywgJy1waCcsICc3LjAnLCAnLXRuJywgJzgnLCAnLW1hJywgJzIwMCcsICctbWV0YWxfYmluZGluZycsICctaW1hZScsICc8aW5maWxlLm1hZT4nLCAnLW9tYWUnLCAnPG91dGZpbGUubWFlPic=

> <r_lp_tautomer_probability>
1

> <r_epik_Ionization_Penalty>
0.00283573

> <r_epik_Ionization_Penalty_Charging>
0.00199846

> <r_epik_Ionization_Penalty_Neutral>
0.000837263

> <r_epik_State_Penalty>
-0

> <r_epik_Charging_Adjusted_Penalty>
0.00199846

> <i_epik_Tot_Q>
1

> <i_epik_Tot_abs_Q>
1

> <r_epik_Metal_State_Penalty>
-0

> <b_epik_Metal_Only>
0

> <s_lp_Force_Field>
OPLS_2005

> <r_lp_Energy>
-1.00424

> <b_lp_Chiralities_Consistent>
1

> <s_lp_Variant>
AV-unprocessed.smi:2745-1

> <Gold.Version>
5.8.1

> <Gold.Id.Protein>
6NUR|6NUR_protein|mol2

> <Gold.PLP.Fitness>
40.5962

> <Gold.PLP.PLP>
-22.7016

> <Gold.PLP.part.hbond>
-3.9546

> <Gold.PLP.part.metal>
0.0000

> <Gold.PLP.part.buried>
-3.2864

> <Gold.PLP.part.nonpolar>
-15.5530

> <Gold.PLP.part.repulsive>
0.3986

> <Gold.PLP.ligand.clash>
0.0000

> <Gold.PLP.ligand.torsion>
0.0528

> <Gold.PLP.Chemscore.Hbond>
5.0000

> <Gold.PLP.Chemscore.CHOScore>
1.0000

> <Gold.PLP.Chemscore.Metal>
0.0000

> <Gold.Chemscore.Hbonds>
donor molecule, donor type, donor heavy atom, donor atom, acceptor molecule, acceptor atom, score
      L1  H     1    10       P1 10952  0.98
      L1  H     1    11       P1 10195  1.00
      L1  H     1    19       P1 10186  2.00
      L1  H     8    18       P1 10957  0.99
      L1  C     5    16       P1  7921  1.00

> <Gold.PLP.Chemscore.Internal.Correction>
0.0001

> <Gold.Rescore>
     Score         DG    S(hbond)    S(metal)    S(lipo)     H(rot)  DE(clash)    DE(int)     intcor
     19.99     -20.10       3.93        0.00      45.25       1.49       0.03       0.09       ----

> <Gold.Chemscore.Fitness>
19.9874

> <Gold.Chemscore.DG>
-20.1038

> <Gold.Chemscore.ZeroCoef>
-5.4800

> <Gold.Chemscore.Hbond>
3.9324

> <Gold.Chemscore.Metal>
0.0000

> <Gold.Chemscore.Lipo>
45.2450

> <Gold.Chemscore.Internal_Hbond>
0.0000

> <Gold.Chemscore.DEClash>
0.0279

> <Gold.Chemscore.DEInternal>
0.0885

> <Gold.Chemscore.Rot>
1.4859

> <Gold.Chemscore.Internal.Correction>
   9.000000E+99

> <Gold.Chemscore.Hbonds>
donor molecule, donor type, donor heavy atom, donor atom, acceptor molecule, acceptor atom, score
      L1  H     1    10       P1 10952  0.87
      L1  H     1    11       P1 10195  0.92
      L1  H     1    19       P1 10186  0.95
      L1  H     8    18       P1 10957  0.94

> <Gold.Chemscore.Hbond.Weighted>
-13.1341

> <Gold.Chemscore.Metal.Weighted>
-0.0000

> <Gold.Chemscore.Lipo.Weighted>
-5.2937

> <Gold.Chemscore.Internal_Hbond.Weighted>
0.0000

> <Gold.Chemscore.DEClash.Weighted>
0.0279

> <Gold.Chemscore.DEInternal.Weighted>
0.0885

> <Gold.Chemscore.Rot.Weighted>
3.8039

> <Gold.Chemscore.Internal.Correction.Weighted>
   9.000000E+99

> <Gold.Protein.RotatedTorsions>
[ 6907 6896 6895 6894 ] final  -53.99 input  -60.11 | X-H torsion
[ 7974 7965 7964 7962 ] final  107.54 input  175.53 | X-H torsion
[ 8008 7997 7996 7995 ] final   38.02 input   59.86 | X-H torsion
[ 10167 10162 10161 10158 ] final  111.02 input  -65.29 | X-H torsion
[ 10718 10713 10712 10709 ] final  120.46 input   66.30 | X-H torsion
[ 10763 10752 10751 10750 ] final  -85.34 input  -60.55 | X-H torsion
[ 11005 11000 10999 10996 ] final   62.68 input  -57.11 | X-H torsion

> <Gold.Protein.ActiveResidues>
 VAL166  LYS551  ARG553  GLY616  TRP617  ASP618  TYR619  PRO620  LYS621  CYS622 
 ASP623  PHE694  ASN695  SER759  ASP760  ASP761  ALA762  ILE779  LEU786  VAL792 
 PHE793  MET794  SER795  GLU796  ALA797  LYS798  CYS799  TRP800  GLU811  SER814 

> <Gold.Protein.RotatedAtoms>
  150.8377  134.7657  159.6906 H   0  0  0  0  0  0  0  0  0  0  0  0  # atno 6907 bound_to 6896
  152.4471  134.5469  159.9865 H   0  0  0  0  0  0  0  0  0  0  0  0  # atno 6908 bound_to 6896
  151.5615  133.3365  159.3008 H   0  0  0  0  0  0  0  0  0  0  0  0  # atno 6909 bound_to 6896
  145.2923  139.2596  143.3858 H   0  0  0  0  0  0  0  0  0  0  0  0  # atno 7974 bound_to 7965
  155.2134  140.3325  155.4325 H   0  0  0  0  0  0  0  0  0  0  0  0  # atno 8008 bound_to 7997
  156.2362  140.1873  156.7162 H   0  0  0  0  0  0  0  0  0  0  0  0  # atno 8009 bound_to 7997
  154.6063  140.0615  156.9421 H   0  0  0  0  0  0  0  0  0  0  0  0  # atno 8010 bound_to 7997
  139.6643  144.7128  151.1806 H   0  0  0  0  0  0  0  0  0  0  0  0  # atno 10167 bound_to 10162
  157.5889  131.1066  150.8038 H   0  0  0  0  0  0  0  0  0  0  0  0  # atno 10718 bound_to 10713
  154.6100  135.5488  153.7463 H   0  0  0  0  0  0  0  0  0  0  0  0  # atno 10763 bound_to 10752
  153.0191  135.6387  154.1592 H   0  0  0  0  0  0  0  0  0  0  0  0  # atno 10764 bound_to 10752
  154.1530  135.2901  155.3110 H   0  0  0  0  0  0  0  0  0  0  0  0  # atno 10765 bound_to 10752
  140.0076  134.6346  155.9831 H   0  0  0  0  0  0  0  0  0  0  0  0  # atno 11005 bound_to 11000
  146.3180  140.3418  142.8648 LP  0  0  0  0  0  0  0  0  0  0  0  0  # atno 17320 bound_to 7965
  144.9162  140.7815  143.5777 LP  0  0  0  0  0  0  0  0  0  0  0  0  # atno 17321 bound_to 7965
  140.7593  143.5944  150.8763 LP  0  0  0  0  0  0  0  0  0  0  0  0  # atno 17342 bound_to 10162
  139.9604  143.6170  152.3004 LP  0  0  0  0  0  0  0  0  0  0  0  0  # atno 17343 bound_to 10162
  156.8465  130.5066  149.5316 LP  0  0  0  0  0  0  0  0  0  0  0  0  # atno 17370 bound_to 10713
  156.0941  130.5919  150.9784 LP  0  0  0  0  0  0  0  0  0  0  0  0  # atno 17371 bound_to 10713
  141.1688  133.6537  156.4575 LP  0  0  0  0  0  0  0  0  0  0  0  0  # atno 17394 bound_to 11000
  140.4613  134.6838  157.5087 LP  0  0  0  0  0  0  0  0  0  0  0  0  # atno 17395 bound_to 11000

$$$$
