AV-unprocessed.smi:1|AV-procd|sdf|10|dock2
  -GOLD-   2262015103D 1   1.00000     0.00000
 Structure written by MMmdl.
 57 62  0  0  0  0  0  0  0  0  1 V2000
  154.8089  140.2187  159.1197 O   0  0  0  0  0  0  0  0  0  0  0  0
  153.5917  140.4083  159.1923 C   0  0  0  0  0  0  0  0  0  0  0  0
  152.5566  139.6092  158.7260 N   0  0  0  0  0  0  0  0  0  0  0  0
  152.8086  138.4269  158.2519 C   0  0  0  0  0  0  0  0  0  0  0  0
  153.9991  137.7101  158.0762 N   0  0  0  0  0  0  0  0  0  0  0  0
  154.1101  136.4167  157.5430 C   0  0  0  0  0  0  0  0  0  0  0  0
  153.1054  135.6881  157.1354 N   0  0  0  0  0  0  0  0  0  0  0  0
  151.8962  136.3479  157.3036 C   0  0  0  0  0  0  0  0  0  0  0  0
  151.6611  137.6095  157.8049 C   0  0  0  0  0  0  0  0  0  0  0  0
  150.3001  137.8854  157.8260 N   0  0  0  0  0  0  0  0  0  0  0  0
  149.7697  136.7672  157.3398 C   0  0  0  0  0  0  0  0  0  0  0  0
  150.6522  135.8029  156.9989 N   0  0  0  0  0  0  0  0  0  0  0  0
  150.4082  134.4349  156.4229 C   0  0  1  0  0  0  0  0  0  0  0  0
  149.6921  133.7107  157.3799 O   0  0  0  0  0  0  0  0  0  0  0  0
  148.3115  133.6204  157.0284 C   0  0  1  0  0  0  0  0  0  0  0  0
  147.3795  133.9738  158.1989 C   0  0  0  0  0  0  0  0  0  0  0  0
  146.1019  133.3605  158.0756 O   0  0  0  0  0  0  0  0  0  0  0  0
  145.0390  133.8349  158.7646 C   0  0  0  0  0  0  0  0  0  0  0  0
  144.9971  134.9558  159.2751 O   0  0  0  0  0  0  0  0  0  0  0  0
  143.9124  132.8620  158.8395 C   0  0  0  0  0  0  0  0  0  0  0  0
  142.8011  133.1532  159.6643 C   0  0  0  0  0  0  0  0  0  0  0  0
  141.7142  132.2615  159.7446 C   0  0  0  0  0  0  0  0  0  0  0  0
  141.7241  131.0696  158.9971 C   0  0  0  0  0  0  0  0  0  0  0  0
  142.8241  130.7685  158.1733 C   0  0  0  0  0  0  0  0  0  0  0  0
  143.9146  131.6563  158.0962 C   0  0  0  0  0  0  0  0  0  0  0  0
  148.1116  134.4397  155.7462 C   0  0  2  0  0  0  0  0  0  0  0  0
  147.2815  133.7720  154.8089 O   0  0  0  0  0  0  0  0  0  0  0  0
  148.2426  132.8136  153.8297 S   0  0  0  0  0  0  0  0  0  0  0  0
  148.0503  131.4086  154.2201 O   0  0  0  0  0  0  0  0  0  0  0  0
  148.0915  133.2788  152.4426 O   0  0  0  0  0  0  0  0  0  0  0  0
  149.7331  133.3148  154.3922 O   0  0  0  0  0  0  0  0  0  0  0  0
  149.5306  134.4801  155.1692 C   0  0  2  0  0  0  0  0  0  0  0  0
  153.1156  141.6414  159.8878 C   0  0  0  0  0  0  0  0  0  0  0  0
  152.3463  142.5956  159.1888 C   0  0  0  0  0  0  0  0  0  0  0  0
  151.8884  143.7532  159.8481 C   0  0  0  0  0  0  0  0  0  0  0  0
  152.1941  143.9578  161.2078 C   0  0  0  0  0  0  0  0  0  0  0  0
  152.9602  143.0058  161.9085 C   0  0  0  0  0  0  0  0  0  0  0  0
  153.4211  141.8494  161.2495 C   0  0  0  0  0  0  0  0  0  0  0  0
  155.1346  136.0462  157.4885 H   0  0  0  0  0  0  0  0  0  0  0  0
  148.7004  136.6621  157.2413 H   0  0  0  0  0  0  0  0  0  0  0  0
  151.4076  134.0323  156.2544 H   0  0  0  0  0  0  0  0  0  0  0  0
  148.1501  132.5686  156.7908 H   0  0  0  0  0  0  0  0  0  0  0  0
  147.8280  133.6216  159.1278 H   0  0  0  0  0  0  0  0  0  0  0  0
  147.2937  135.0565  158.3005 H   0  0  0  0  0  0  0  0  0  0  0  0
  142.7669  134.0670  160.2397 H   0  0  0  0  0  0  0  0  0  0  0  0
  140.8685  132.4970  160.3737 H   0  0  0  0  0  0  0  0  0  0  0  0
  140.8881  130.3881  159.0533 H   0  0  0  0  0  0  0  0  0  0  0  0
  142.8308  129.8552  157.5965 H   0  0  0  0  0  0  0  0  0  0  0  0
  144.7395  131.3988  157.4485 H   0  0  0  0  0  0  0  0  0  0  0  0
  147.7453  135.4443  155.9588 H   0  0  0  0  0  0  0  0  0  0  0  0
  149.7369  135.3450  154.5393 H   0  0  0  0  0  0  0  0  0  0  0  0
  152.1044  142.4436  158.1466 H   0  0  0  0  0  0  0  0  0  0  0  0
  151.3011  144.4833  159.3112 H   0  0  0  0  0  0  0  0  0  0  0  0
  151.8410  144.8447  161.7129 H   0  0  0  0  0  0  0  0  0  0  0  0
  153.1941  143.1625  162.9512 H   0  0  0  0  0  0  0  0  0  0  0  0
  154.0076  141.1236  161.7939 H   0  0  0  0  0  0  0  0  0  0  0  0
  154.8545  138.1673  158.3569 H   0  0  0  0  0  0  0  0  0  0  0  0
  1  2  2  0  0  0  0
  2  3  1  0  0  0  0
  2 33  1  0  0  0  0
  3  4  2  0  0  0  0
  4  9  1  0  0  0  0
  4  5  1  0  0  0  0
  5  6  1  0  0  0  0
  5 57  1  0  0  0  0
  6  7  2  0  0  0  0
  6 39  1  0  0  0  0
  7  8  1  0  0  0  0
  8 12  1  0  0  0  0
  8  9  2  0  0  0  0
  9 10  1  0  0  0  0
 10 11  2  0  0  0  0
 11 12  1  0  0  0  0
 11 40  1  0  0  0  0
 12 13  1  0  0  0  0
 13 32  1  0  0  0  0
 13 14  1  0  0  0  0
 13 41  1  0  0  0  0
 14 15  1  0  0  0  0
 15 16  1  0  0  0  0
 15 26  1  0  0  0  0
 15 42  1  0  0  0  0
 16 17  1  0  0  0  0
 16 43  1  0  0  0  0
 16 44  1  0  0  0  0
 17 18  1  0  0  0  0
 18 19  2  0  0  0  0
 18 20  1  0  0  0  0
 20 25  1  0  0  0  0
 20 21  2  0  0  0  0
 21 22  1  0  0  0  0
 21 45  1  0  0  0  0
 22 23  2  0  0  0  0
 22 46  1  0  0  0  0
 23 24  1  0  0  0  0
 23 47  1  0  0  0  0
 24 25  2  0  0  0  0
 24 48  1  0  0  0  0
 25 49  1  0  0  0  0
 26 32  1  0  0  0  0
 26 27  1  0  0  0  0
 26 50  1  0  0  0  0
 27 28  1  0  0  0  0
 28 29  2  0  0  0  0
 28 30  2  0  0  0  0
 28 31  1  0  0  0  0
 31 32  1  0  0  0  0
 32 51  1  0  0  0  0
 33 38  1  0  0  0  0
 33 34  2  0  0  0  0
 34 35  1  0  0  0  0
 34 52  1  0  0  0  0
 35 36  2  0  0  0  0
 35 53  1  0  0  0  0
 36 37  1  0  0  0  0
 36 54  1  0  0  0  0
 37 38  2  0  0  0  0
 37 55  1  0  0  0  0
 38 56  1  0  0  0  0
M  END
> <s_m_source_file>
AV-unprocessed.smi

> <i_m_source_file_index>
1

> <i_lp_mmshare_version>
43012

> <i_f3d_flags>
0

> <s_epik_input>
W2NIXTFbY0hdW2NIXVtjSF1bY0hdYzFDKD1PKVtOSF1jKG5bY0hdbjIpYyhjMjMpbltjSF1uM1tDQEBIXShbQ0BIXShbQ0BIXTQ1KU9TKE81KSg9Tyk9TylPW0NASF00W0NIMl1PQyg9TyljNltjSF1bY0hdW2NIXVtjSF1bY0hdNg==

> <s_epik_cmdline>
J2VwaWtfcHl0aG9uJywgJy1waCcsICc3LjAnLCAnLXRuJywgJzgnLCAnLW1hJywgJzIwMCcsICctbWV0YWxfYmluZGluZycsICctaW1hZScsICc8aW5maWxlLm1hZT4nLCAnLW9tYWUnLCAnPG91dGZpbGUubWFlPic=

> <r_epik_Ionization_Penalty>
0.122545

> <r_epik_Ionization_Penalty_Charging>
0.122545

> <r_epik_Ionization_Penalty_Neutral>
7.8935e-16

> <r_epik_State_Penalty>
2.69178

> <r_epik_Charging_Adjusted_Penalty>
2.81433

> <i_epik_Tot_Q>
0

> <i_epik_Tot_abs_Q>
0

> <r_epik_Metal_State_Penalty>
3.02665

> <b_epik_Metal_Only>
0

> <s_epik_Chemistry_Notes>
This compound has an ester and may undergo hydrolysis at high or low pH. This compound contains an acetal/aminal-like group ( X-CH(R)-Y where X, Y are N, S, or O) that may be acid/base labile, releasing an aldehyde.

> <s_lp_Force_Field>
OPLS_2005

> <r_lp_Energy>
55.0636

> <b_lp_Chiralities_Consistent>
1

> <s_lp_Variant>
AV-unprocessed.smi:1-10

> <Gold.Version>
5.8.1

> <Gold.Id.Protein>
6NUR|6NUR_protein|mol2

> <Gold.PLP.Fitness>
53.1778

> <Gold.PLP.PLP>
-47.9042

> <Gold.PLP.part.hbond>
-2.9467

> <Gold.PLP.part.metal>
0.0000

> <Gold.PLP.part.buried>
-7.4752

> <Gold.PLP.part.nonpolar>
-38.3958

> <Gold.PLP.part.repulsive>
1.2010

> <Gold.PLP.ligand.clash>
0.0000

> <Gold.PLP.ligand.torsion>
1.8334

> <Gold.PLP.Chemscore.Hbond>
2.8535

> <Gold.PLP.Chemscore.CHOScore>
0.0000

> <Gold.PLP.Chemscore.Metal>
0.0000

> <Gold.Chemscore.Hbonds>
donor molecule, donor type, donor heavy atom, donor atom, acceptor molecule, acceptor atom, score
      P1  H  6896  6907       L1    14  0.65
      P1  H  7997  8008       L1     1  0.91
      P1  H 10752 10765       L1     7  0.90

> <Gold.PLP.Chemscore.Internal.Correction>
0.3798

> <Gold.Rescore>
     Score         DG    S(hbond)    S(metal)    S(lipo)     H(rot)  DE(clash)    DE(int)     intcor
     15.42     -18.33       1.93        0.00     101.29       2.13       1.20       1.71       ----

> <Gold.Chemscore.Fitness>
15.4153

> <Gold.Chemscore.DG>
-18.3255

> <Gold.Chemscore.ZeroCoef>
-5.4800

> <Gold.Chemscore.Hbond>
1.9330

> <Gold.Chemscore.Metal>
0.0000

> <Gold.Chemscore.Lipo>
101.2889

> <Gold.Chemscore.Internal_Hbond>
0.0000

> <Gold.Chemscore.DEClash>
1.1982

> <Gold.Chemscore.DEInternal>
1.7120

> <Gold.Chemscore.Rot>
2.1333

> <Gold.Chemscore.Internal.Correction>
   9.000000E+99

> <Gold.Chemscore.Hbonds>
donor molecule, donor type, donor heavy atom, donor atom, acceptor molecule, acceptor atom, score
      P1  H  6896  6907       L1    14  0.42
      P1  H  7997  8008       L1     1  0.40
      P1  H 10752 10765       L1     7  0.17

> <Gold.Chemscore.Hbond.Weighted>
-6.4561

> <Gold.Chemscore.Metal.Weighted>
-0.0000

> <Gold.Chemscore.Lipo.Weighted>
-11.8508

> <Gold.Chemscore.Internal_Hbond.Weighted>
0.0000

> <Gold.Chemscore.DEClash.Weighted>
1.1982

> <Gold.Chemscore.DEInternal.Weighted>
1.7120

> <Gold.Chemscore.Rot.Weighted>
5.4614

> <Gold.Chemscore.Internal.Correction.Weighted>
   9.000000E+99

> <Gold.Protein.RotatedTorsions>
[ 6907 6896 6895 6894 ] final -116.56 input  -60.11 | X-H torsion
[ 7974 7965 7964 7962 ] final  111.44 input  175.53 | X-H torsion
[ 8008 7997 7996 7995 ] final -121.33 input   59.86 | X-H torsion
[ 10167 10162 10161 10158 ] final -165.60 input  -65.29 | X-H torsion
[ 10718 10713 10712 10709 ] final  113.65 input   66.30 | X-H torsion
[ 10763 10752 10751 10750 ] final -111.57 input  -60.55 | X-H torsion
[ 11005 11000 10999 10996 ] final   63.32 input  -57.11 | X-H torsion

> <Gold.Protein.ActiveResidues>
 VAL166  LYS551  ARG553  GLY616  TRP617  ASP618  TYR619  PRO620  LYS621  CYS622 
 ASP623  PHE694  ASN695  SER759  ASP760  ASP761  ALA762  ILE779  LEU786  VAL792 
 PHE793  MET794  SER795  GLU796  ALA797  LYS798  CYS799  TRP800  GLU811  SER814 

> <Gold.Protein.RotatedAtoms>
  150.8065  133.8500  159.3202 H   0  0  0  0  0  0  0  0  0  0  0  0  # atno 6907 bound_to 6896
  151.6297  135.1022  160.0128 H   0  0  0  0  0  0  0  0  0  0  0  0  # atno 6908 bound_to 6896
  152.4156  133.6993  159.6471 H   0  0  0  0  0  0  0  0  0  0  0  0  # atno 6909 bound_to 6896
  145.2422  139.2774  143.4111 H   0  0  0  0  0  0  0  0  0  0  0  0  # atno 7974 bound_to 7965
  155.1463  140.0403  157.2810 H   0  0  0  0  0  0  0  0  0  0  0  0  # atno 8008 bound_to 7997
  154.6436  140.2553  155.7266 H   0  0  0  0  0  0  0  0  0  0  0  0  # atno 8009 bound_to 7997
  156.2544  140.2850  156.0841 H   0  0  0  0  0  0  0  0  0  0  0  0  # atno 8010 bound_to 7997
  139.6171  144.0698  152.1898 H   0  0  0  0  0  0  0  0  0  0  0  0  # atno 10167 bound_to 10162
  157.6326  131.0987  150.7072 H   0  0  0  0  0  0  0  0  0  0  0  0  # atno 10718 bound_to 10713
  154.8306  135.4522  154.1059 H   0  0  0  0  0  0  0  0  0  0  0  0  # atno 10763 bound_to 10752
  153.2335  135.6908  153.7869 H   0  0  0  0  0  0  0  0  0  0  0  0  # atno 10764 bound_to 10752
  153.7243  135.3337  155.3249 H   0  0  0  0  0  0  0  0  0  0  0  0  # atno 10765 bound_to 10752
  140.0033  134.6409  155.9896 H   0  0  0  0  0  0  0  0  0  0  0  0  # atno 11005 bound_to 11000
  146.3325  140.2789  142.8609 LP  0  0  0  0  0  0  0  0  0  0  0  0  # atno 17320 bound_to 7965
  144.9578  140.8244  143.5532 LP  0  0  0  0  0  0  0  0  0  0  0  0  # atno 17321 bound_to 7965
  140.0330  144.6066  150.7472 LP  0  0  0  0  0  0  0  0  0  0  0  0  # atno 17342 bound_to 10162
  140.7358  143.2745  151.3784 LP  0  0  0  0  0  0  0  0  0  0  0  0  # atno 17343 bound_to 10162
  156.7409  130.4738  149.5478 LP  0  0  0  0  0  0  0  0  0  0  0  0  # atno 17370 bound_to 10713
  156.1540  130.6329  151.0633 LP  0  0  0  0  0  0  0  0  0  0  0  0  # atno 17371 bound_to 10713
  141.1658  133.6537  156.4474 LP  0  0  0  0  0  0  0  0  0  0  0  0  # atno 17394 bound_to 11000
  140.4688  134.6772  157.5120 LP  0  0  0  0  0  0  0  0  0  0  0  0  # atno 17395 bound_to 11000

$$$$
