AV-unprocessed.smi:1388|AV-procd|sdf|5643|dock5
  -GOLD-   22720 5263D 1   1.00000     0.00000
 Structure written by MMmdl.
 46 47  0  0  0  0  0  0  0  0  2 V2000
  148.8857  132.6974  153.3015 C   0  0  0  0  0  0  0  0  0  0  0  0
  148.6278  134.0271  153.8334 N   0  0  0  0  0  0  0  0  0  0  0  0
  148.6381  134.3316  155.1385 C   0  0  0  0  0  0  0  0  0  0  0  0
  148.8631  133.5043  156.0227 O   0  0  0  0  0  0  0  0  0  0  0  0
  148.3295  135.7892  155.4960 C   0  0  0  0  0  0  0  0  0  0  0  0
  149.2313  136.7584  154.8212 N   0  3  2  0  0  0  0  0  0  0  0  0
  150.6470  136.6000  155.2410 C   0  0  0  0  0  0  0  0  0  0  0  0
  151.5780  137.5143  154.4236 C   0  0  0  0  0  0  0  0  0  0  0  0
  151.1489  138.9899  154.4935 C   0  0  2  0  0  0  0  0  0  0  0  0
  151.4249  139.5417  155.8197 N   0  0  0  0  0  0  0  0  0  0  0  0
  151.1572  140.7978  156.2063 C   0  0  0  0  0  0  0  0  0  0  0  0
  150.6343  141.6352  155.4708 O   0  0  0  0  0  0  0  0  0  0  0  0
  151.5237  141.0011  157.4842 N   0  0  0  0  0  0  0  0  0  0  0  0
  151.4242  142.1942  158.2543 C   0  0  0  0  0  0  0  0  0  0  0  0
  150.6057  143.2202  157.9109 N   0  0  0  0  0  0  0  0  0  0  0  0
  150.5644  144.3254  158.6827 C   0  0  0  0  0  0  0  0  0  0  0  0
  151.3365  144.4776  159.8469 C   0  0  0  0  0  0  0  0  0  0  0  0
  152.1894  143.4239  160.2175 C   0  0  0  0  0  0  0  0  0  0  0  0
  152.2400  142.2639  159.4155 C   0  0  0  0  0  0  0  0  0  0  0  0
  153.1618  141.1233  159.8156 C   0  0  0  0  0  0  0  0  0  0  0  0
  149.6584  139.1156  154.1208 C   0  0  0  0  0  0  0  0  0  0  0  0
  148.7755  138.1684  154.9520 C   0  0  0  0  0  0  0  0  0  0  0  0
  148.8443  132.7179  152.2126 H   0  0  0  0  0  0  0  0  0  0  0  0
  148.1401  131.9852  153.6576 H   0  0  0  0  0  0  0  0  0  0  0  0
  149.8742  132.3443  153.5975 H   0  0  0  0  0  0  0  0  0  0  0  0
  148.4259  134.7581  153.1663 H   0  0  0  0  0  0  0  0  0  0  0  0
  147.2886  136.0274  155.2712 H   0  0  0  0  0  0  0  0  0  0  0  0
  148.4435  135.8730  156.5775 H   0  0  0  0  0  0  0  0  0  0  0  0
  150.7383  136.8169  156.3065 H   0  0  0  0  0  0  0  0  0  0  0  0
  150.9578  135.5638  155.1023 H   0  0  0  0  0  0  0  0  0  0  0  0
  152.6080  137.4027  154.7651 H   0  0  0  0  0  0  0  0  0  0  0  0
  151.5682  137.1895  153.3823 H   0  0  0  0  0  0  0  0  0  0  0  0
  151.7420  139.5476  153.7663 H   0  0  0  0  0  0  0  0  0  0  0  0
  151.8616  138.9247  156.4887 H   0  0  0  0  0  0  0  0  0  0  0  0
  151.9220  140.2100  157.9676 H   0  0  0  0  0  0  0  0  0  0  0  0
  149.8959  145.1107  158.3621 H   0  0  0  0  0  0  0  0  0  0  0  0
  151.2759  145.3784  160.4392 H   0  0  0  0  0  0  0  0  0  0  0  0
  152.7962  143.5086  161.1071 H   0  0  0  0  0  0  0  0  0  0  0  0
  153.6879  141.3451  160.7444 H   0  0  0  0  0  0  0  0  0  0  0  0
  153.9084  140.9470  159.0411 H   0  0  0  0  0  0  0  0  0  0  0  0
  152.5923  140.2059  159.9650 H   0  0  0  0  0  0  0  0  0  0  0  0
  149.3172  140.1449  154.2381 H   0  0  0  0  0  0  0  0  0  0  0  0
  149.5344  138.8784  153.0633 H   0  0  0  0  0  0  0  0  0  0  0  0
  147.7423  138.2619  154.6166 H   0  0  0  0  0  0  0  0  0  0  0  0
  148.7903  138.4630  156.0024 H   0  0  0  0  0  0  0  0  0  0  0  0
  149.1998  136.5301  153.8374 H   0  0  0  0  0  0  0  0  0  0  0  0
  1  2  1  0  0  0  0
  1 23  1  0  0  0  0
  1 24  1  0  0  0  0
  1 25  1  0  0  0  0
  2  3  1  0  0  0  0
  2 26  1  0  0  0  0
  3  4  2  0  0  0  0
  3  5  1  0  0  0  0
  5  6  1  0  0  0  0
  5 27  1  0  0  0  0
  5 28  1  0  0  0  0
  6 22  1  0  0  0  0
  6  7  1  0  0  0  0
  6 46  1  0  0  0  0
  7  8  1  0  0  0  0
  7 29  1  0  0  0  0
  7 30  1  0  0  0  0
  8  9  1  0  0  0  0
  8 31  1  0  0  0  0
  8 32  1  0  0  0  0
  9 10  1  0  0  0  0
  9 21  1  0  0  0  0
  9 33  1  0  0  0  0
 10 11  1  0  0  0  0
 10 34  1  0  0  0  0
 11 12  2  0  0  0  0
 11 13  1  0  0  0  0
 13 14  1  0  0  0  0
 13 35  1  0  0  0  0
 14 19  1  0  0  0  0
 14 15  2  0  0  0  0
 15 16  1  0  0  0  0
 16 17  2  0  0  0  0
 16 36  1  0  0  0  0
 17 18  1  0  0  0  0
 17 37  1  0  0  0  0
 18 19  2  0  0  0  0
 18 38  1  0  0  0  0
 19 20  1  0  0  0  0
 20 39  1  0  0  0  0
 20 40  1  0  0  0  0
 20 41  1  0  0  0  0
 21 22  1  0  0  0  0
 21 42  1  0  0  0  0
 21 43  1  0  0  0  0
 22 44  1  0  0  0  0
 22 45  1  0  0  0  0
M  CHG  1   6   1
M  END
> <s_m_source_file>
AV-unprocessed.smi

> <i_m_source_file_index>
1388

> <i_lp_mmshare_version>
43012

> <i_f3d_flags>
0

> <s_epik_input>
W0NIM11bTkhdQyg9TylbQ0gyXU4xW0NIMl1bQ0gyXVtDSF0oW0NIMl1bQ0gyXTEpW05IXUMoPU8pW05IXWMybltjSF1bY0hdW2NIXWMyW0NIM10=

> <s_epik_cmdline>
J2VwaWtfcHl0aG9uJywgJy1waCcsICc3LjAnLCAnLXRuJywgJzgnLCAnLW1hJywgJzIwMCcsICctbWV0YWxfYmluZGluZycsICctaW1hZScsICc8aW5maWxlLm1hZT4nLCAnLW9tYWUnLCAnPG91dGZpbGUubWFlPic=

> <r_epik_Ionization_Penalty>
0.83891

> <r_epik_Ionization_Penalty_Charging>
0.838844

> <r_epik_Ionization_Penalty_Neutral>
6.58477e-05

> <r_epik_State_Penalty>
0.8734

> <r_epik_Charging_Adjusted_Penalty>
1.71224

> <i_epik_Tot_Q>
1

> <i_epik_Tot_abs_Q>
1

> <r_epik_Metal_State_Penalty>
0.877924

> <b_epik_Metal_Only>
0

> <s_lp_Force_Field>
OPLS_2005

> <r_lp_Energy>
16.2558

> <b_lp_Chiralities_Consistent>
1

> <s_lp_Variant>
AV-unprocessed.smi:1388-3

> <Gold.Version>
5.8.1

> <Gold.Id.Protein>
6NUR|6NUR_protein|mol2

> <Gold.PLP.Fitness>
49.9786

> <Gold.PLP.PLP>
-37.6500

> <Gold.PLP.part.hbond>
-3.0000

> <Gold.PLP.part.metal>
0.0000

> <Gold.PLP.part.buried>
-1.2592

> <Gold.PLP.part.nonpolar>
-33.9194

> <Gold.PLP.part.repulsive>
0.4775

> <Gold.PLP.ligand.clash>
0.0000

> <Gold.PLP.ligand.torsion>
0.1366

> <Gold.PLP.Chemscore.Hbond>
3.1697

> <Gold.PLP.Chemscore.CHOScore>
1.0230

> <Gold.PLP.Chemscore.Metal>
0.0000

> <Gold.Chemscore.Hbonds>
donor molecule, donor type, donor heavy atom, donor atom, acceptor molecule, acceptor atom, score
      L1  H     2    26       P1  7948  1.00
      L1  H     6    46       P1  7948  2.00
      P1  H  7989  7998       L1    12  0.10
      L1  C    16    36       P1  8028  0.01
      L1  C    16    36       P1  8029  1.00

> <Gold.PLP.Chemscore.Internal.Correction>
0.0234

> <Gold.Rescore>
     Score         DG    S(hbond)    S(metal)    S(lipo)     H(rot)  DE(clash)    DE(int)     intcor
     15.07     -17.68       1.75        0.00      91.14       1.69       0.06       2.55       ----

> <Gold.Chemscore.Fitness>
15.0653

> <Gold.Chemscore.DG>
-17.6787

> <Gold.Chemscore.ZeroCoef>
-5.4800

> <Gold.Chemscore.Hbond>
1.7515

> <Gold.Chemscore.Metal>
0.0000

> <Gold.Chemscore.Lipo>
91.1365

> <Gold.Chemscore.Internal_Hbond>
0.0000

> <Gold.Chemscore.DEClash>
0.0595

> <Gold.Chemscore.DEInternal>
2.5538

> <Gold.Chemscore.Rot>
1.6853

> <Gold.Chemscore.Internal.Correction>
   9.000000E+99

> <Gold.Chemscore.Hbonds>
donor molecule, donor type, donor heavy atom, donor atom, acceptor molecule, acceptor atom, score
      L1  H     2    26       P1  7948  0.56
      L1  H     6    46       P1  7948  0.94
      P1  H  7989  7998       L1    12  0.02

> <Gold.Chemscore.Hbond.Weighted>
-5.8500

> <Gold.Chemscore.Metal.Weighted>
-0.0000

> <Gold.Chemscore.Lipo.Weighted>
-10.6630

> <Gold.Chemscore.Internal_Hbond.Weighted>
0.0000

> <Gold.Chemscore.DEClash.Weighted>
0.0595

> <Gold.Chemscore.DEInternal.Weighted>
2.5538

> <Gold.Chemscore.Rot.Weighted>
4.3143

> <Gold.Chemscore.Internal.Correction.Weighted>
   9.000000E+99

> <Gold.Protein.RotatedTorsions>
[ 6907 6896 6895 6894 ] final  -49.48 input  -60.11 | X-H torsion
[ 7974 7965 7964 7962 ] final -171.34 input  175.53 | X-H torsion
[ 8008 7997 7996 7995 ] final  -36.26 input   59.86 | X-H torsion
[ 10167 10162 10161 10158 ] final  -83.20 input  -65.29 | X-H torsion
[ 10718 10713 10712 10709 ] final -172.28 input   66.30 | X-H torsion
[ 10763 10752 10751 10750 ] final   46.55 input  -60.55 | X-H torsion
[ 11005 11000 10999 10996 ] final -157.33 input  -57.11 | X-H torsion

> <Gold.Protein.ActiveResidues>
 VAL166  LYS551  ARG553  GLY616  TRP617  ASP618  TYR619  PRO620  LYS621  CYS622 
 ASP623  PHE694  ASN695  SER759  ASP760  ASP761  ALA762  ILE779  LEU786  VAL792 
 PHE793  MET794  SER795  GLU796  ALA797  LYS798  CYS799  TRP800  GLU811  SER814 

> <Gold.Protein.RotatedAtoms>
  150.8801  134.8190  159.7218 H   0  0  0  0  0  0  0  0  0  0  0  0  # atno 6907 bound_to 6896
  152.4772  134.4810  159.9675 H   0  0  0  0  0  0  0  0  0  0  0  0  # atno 6908 bound_to 6896
  151.4886  133.3491  159.2885 H   0  0  0  0  0  0  0  0  0  0  0  0  # atno 6909 bound_to 6896
  144.7158  140.1936  143.6346 H   0  0  0  0  0  0  0  0  0  0  0  0  # atno 7974 bound_to 7965
  154.4077  140.1635  156.2345 H   0  0  0  0  0  0  0  0  0  0  0  0  # atno 8008 bound_to 7997
  155.9254  140.3418  155.6183 H   0  0  0  0  0  0  0  0  0  0  0  0  # atno 8009 bound_to 7997
  155.7172  140.0764  157.2337 H   0  0  0  0  0  0  0  0  0  0  0  0  # atno 8010 bound_to 7997
  140.4249  143.2570  151.8840 H   0  0  0  0  0  0  0  0  0  0  0  0  # atno 10167 bound_to 10162
  156.7533  130.9386  151.3115 H   0  0  0  0  0  0  0  0  0  0  0  0  # atno 10718 bound_to 10713
  152.9809  135.6004  154.3618 H   0  0  0  0  0  0  0  0  0  0  0  0  # atno 10763 bound_to 10752
  154.3299  135.2768  155.2479 H   0  0  0  0  0  0  0  0  0  0  0  0  # atno 10764 bound_to 10752
  154.4608  135.5966  153.6309 H   0  0  0  0  0  0  0  0  0  0  0  0  # atno 10765 bound_to 10752
  140.6658  134.4300  157.5233 H   0  0  0  0  0  0  0  0  0  0  0  0  # atno 11005 bound_to 11000
  145.8745  139.2290  143.1641 LP  0  0  0  0  0  0  0  0  0  0  0  0  # atno 17320 bound_to 7965
  146.0053  140.8484  142.9998 LP  0  0  0  0  0  0  0  0  0  0  0  0  # atno 17321 bound_to 7965
  139.4783  144.5398  151.8545 LP  0  0  0  0  0  0  0  0  0  0  0  0  # atno 17342 bound_to 10162
  140.4493  144.1878  150.5896 LP  0  0  0  0  0  0  0  0  0  0  0  0  # atno 17343 bound_to 10162
  157.6767  130.9101  150.0168 LP  0  0  0  0  0  0  0  0  0  0  0  0  # atno 17370 bound_to 10713
  156.1387  130.3642  149.9616 LP  0  0  0  0  0  0  0  0  0  0  0  0  # atno 17371 bound_to 10713
  139.8997  134.8584  156.1947 LP  0  0  0  0  0  0  0  0  0  0  0  0  # atno 17394 bound_to 11000
  141.0430  133.6928  156.1632 LP  0  0  0  0  0  0  0  0  0  0  0  0  # atno 17395 bound_to 11000

$$$$
