AV-unprocessed.smi:701|AV-procd|sdf|3414|dock4
  -GOLD-   22720 0393D 1   1.00000     0.00000
 Structure written by MMmdl.
 48 50  0  0  0  0  0  0  0  0  2 V2000
  147.6955  140.8876  154.0936 C   0  0  0  0  0  0  0  0  0  0  0  0
  148.9387  141.4746  154.7655 C   0  0  0  0  0  0  0  0  0  0  0  0
  149.6530  140.4227  155.3908 O   0  0  0  0  0  0  0  0  0  0  0  0
  150.9225  140.8217  155.8918 C   0  0  2  0  0  0  0  0  0  0  0  0
  151.9376  139.6723  155.8615 C   0  0  0  0  0  0  0  0  0  0  0  0
  151.5333  139.3451  157.3029 C   0  0  2  0  0  0  0  0  0  0  0  0
  150.5034  138.3071  157.3325 N   0  0  0  0  0  0  0  0  0  0  0  0
  150.5429  137.2131  158.1058 C   0  0  0  0  0  0  0  0  0  0  0  0
  151.4856  136.9478  158.8528 O   0  0  0  0  0  0  0  0  0  0  0  0
  149.3397  136.2682  158.0041 C   0  0  0  0  0  0  0  0  0  0  0  0
  148.4199  136.4121  159.1431 N   0  0  0  0  0  0  0  0  0  0  0  0
  148.3733  135.3684  160.0840 C   0  0  0  0  0  0  0  0  0  0  0  0
  147.5658  135.4183  161.1605 C   0  0  0  0  0  0  0  0  0  0  0  0
  146.7236  136.5950  161.3378 C   0  0  0  0  0  0  0  0  0  0  0  0
  145.9756  136.6548  162.3118 O   0  0  0  0  0  0  0  0  0  0  0  0
  146.8091  137.5837  160.4004 N   0  5  0  0  0  0  0  0  0  0  0  0
  147.6374  137.5207  159.3119 C   0  0  0  0  0  0  0  0  0  0  0  0
  147.7009  138.4258  158.4791 O   0  0  0  0  0  0  0  0  0  0  0  0
  150.9837  140.7942  157.4422 C   0  0  0  0  0  0  0  0  0  0  0  0
  151.9951  141.7791  158.0663 C   0  0  0  0  0  0  0  0  0  0  0  0
  151.5365  143.2470  158.0055 C   0  0  0  0  0  0  0  0  0  0  0  0
  150.1731  143.4339  158.6814 C   0  0  0  0  0  0  0  0  0  0  0  0
  149.1398  142.4510  158.1191 C   0  0  0  0  0  0  0  0  0  0  0  0
  149.6513  141.0036  158.1974 C   0  0  0  0  0  0  0  0  0  0  0  0
  147.1086  141.6675  153.6084 H   0  0  0  0  0  0  0  0  0  0  0  0
  147.0549  140.3905  154.8225 H   0  0  0  0  0  0  0  0  0  0  0  0
  147.9709  140.1544  153.3350 H   0  0  0  0  0  0  0  0  0  0  0  0
  149.5610  141.9748  154.0226 H   0  0  0  0  0  0  0  0  0  0  0  0
  148.6466  142.2193  155.5072 H   0  0  0  0  0  0  0  0  0  0  0  0
  151.2841  141.7524  155.4528 H   0  0  0  0  0  0  0  0  0  0  0  0
  151.7345  138.8867  155.1328 H   0  0  0  0  0  0  0  0  0  0  0  0
  152.9668  140.0251  155.7840 H   0  0  0  0  0  0  0  0  0  0  0  0
  152.3919  139.1348  157.9430 H   0  0  0  0  0  0  0  0  0  0  0  0
  149.6868  138.4540  156.7569 H   0  0  0  0  0  0  0  0  0  0  0  0
  148.8067  136.4343  157.0656 H   0  0  0  0  0  0  0  0  0  0  0  0
  149.7149  135.2459  157.9425 H   0  0  0  0  0  0  0  0  0  0  0  0
  149.0333  134.5376  159.8821 H   0  0  0  0  0  0  0  0  0  0  0  0
  147.5449  134.6099  161.8763 H   0  0  0  0  0  0  0  0  0  0  0  0
  152.1774  141.5082  159.1073 H   0  0  0  0  0  0  0  0  0  0  0  0
  152.9642  141.6979  157.5733 H   0  0  0  0  0  0  0  0  0  0  0  0
  152.2774  143.8876  158.4848 H   0  0  0  0  0  0  0  0  0  0  0  0
  151.4763  143.5730  156.9670 H   0  0  0  0  0  0  0  0  0  0  0  0
  150.2762  143.2745  159.7554 H   0  0  0  0  0  0  0  0  0  0  0  0
  149.8267  144.4595  158.5518 H   0  0  0  0  0  0  0  0  0  0  0  0
  148.2024  142.5437  158.6683 H   0  0  0  0  0  0  0  0  0  0  0  0
  148.9171  142.7042  157.0818 H   0  0  0  0  0  0  0  0  0  0  0  0
  148.8706  140.3498  157.8087 H   0  0  0  0  0  0  0  0  0  0  0  0
  149.7687  140.7211  159.2444 H   0  0  0  0  0  0  0  0  0  0  0  0
  1  2  1  0  0  0  0
  1 25  1  0  0  0  0
  1 26  1  0  0  0  0
  1 27  1  0  0  0  0
  2  3  1  0  0  0  0
  2 28  1  0  0  0  0
  2 29  1  0  0  0  0
  3  4  1  0  0  0  0
  4 19  1  0  0  0  0
  4  5  1  0  0  0  0
  4 30  1  0  0  0  0
  5  6  1  0  0  0  0
  5 31  1  0  0  0  0
  5 32  1  0  0  0  0
  6  7  1  0  0  0  0
  6 19  1  0  0  0  0
  6 33  1  0  0  0  0
  7  8  1  0  0  0  0
  7 34  1  0  0  0  0
  8  9  2  0  0  0  0
  8 10  1  0  0  0  0
 10 11  1  0  0  0  0
 10 35  1  0  0  0  0
 10 36  1  0  0  0  0
 11 17  1  0  0  0  0
 11 12  1  0  0  0  0
 12 13  2  0  0  0  0
 12 37  1  0  0  0  0
 13 14  1  0  0  0  0
 13 38  1  0  0  0  0
 14 15  2  0  0  0  0
 14 16  1  0  0  0  0
 16 17  1  0  0  0  0
 17 18  2  0  0  0  0
 19 24  1  0  0  0  0
 19 20  1  0  0  0  0
 20 21  1  0  0  0  0
 20 39  1  0  0  0  0
 20 40  1  0  0  0  0
 21 22  1  0  0  0  0
 21 41  1  0  0  0  0
 21 42  1  0  0  0  0
 22 23  1  0  0  0  0
 22 43  1  0  0  0  0
 22 44  1  0  0  0  0
 23 24  1  0  0  0  0
 23 45  1  0  0  0  0
 23 46  1  0  0  0  0
 24 47  1  0  0  0  0
 24 48  1  0  0  0  0
M  CHG  1  16  -1
M  END
> <s_m_source_file>
AV-unprocessed.smi

> <i_m_source_file_index>
701

> <i_lp_mmshare_version>
43012

> <i_f3d_flags>
0

> <s_epik_input>
W0NIMl0xW0NIMl1bQ0gyXVtDSDJdW0NIMl1DMTJbQ0BIXShPW0NIMl1bQ0gzXSlbQ0gyXVtDQEhdMltOSF1DKD1PKVtDSDJdbjNbY0hdW2NIXWMoPU8pW25IXWMzPU8=

> <s_epik_cmdline>
J2VwaWtfcHl0aG9uJywgJy1waCcsICc3LjAnLCAnLXRuJywgJzgnLCAnLW1hJywgJzIwMCcsICctbWV0YWxfYmluZGluZycsICctaW1hZScsICc8aW5maWxlLm1hZT4nLCAnLW9tYWUnLCAnPG91dGZpbGUubWFlPic=

> <r_lp_tautomer_probability>
0.999537

> <r_epik_Ionization_Penalty>
3.12423

> <r_epik_Ionization_Penalty_Charging>
2.92877e-08

> <r_epik_Ionization_Penalty_Neutral>
3.12423

> <r_epik_State_Penalty>
3.12332

> <r_epik_Charging_Adjusted_Penalty>
3.12332

> <i_epik_Tot_Q>
-1

> <i_epik_Tot_abs_Q>
1

> <r_epik_Metal_State_Penalty>
0.463873

> <b_epik_Metal_Only>
1

> <s_lp_Force_Field>
OPLS_2005

> <r_lp_Energy>
38.2445

> <b_lp_Chiralities_Consistent>
1

> <s_lp_Variant>
AV-unprocessed.smi:701-7

> <Gold.Version>
5.8.1

> <Gold.Id.Protein>
6NUR|6NUR_protein|mol2

> <Gold.PLP.Fitness>
41.6763

> <Gold.PLP.PLP>
-34.3845

> <Gold.PLP.part.hbond>
-2.7722

> <Gold.PLP.part.metal>
0.0000

> <Gold.PLP.part.buried>
-3.8669

> <Gold.PLP.part.nonpolar>
-28.4612

> <Gold.PLP.part.repulsive>
0.0730

> <Gold.PLP.ligand.clash>
0.0000

> <Gold.PLP.ligand.torsion>
1.0277

> <Gold.PLP.Chemscore.Hbond>
3.0000

> <Gold.PLP.Chemscore.CHOScore>
0.0000

> <Gold.PLP.Chemscore.Metal>
0.0000

> <Gold.Chemscore.Hbonds>
donor molecule, donor type, donor heavy atom, donor atom, acceptor molecule, acceptor atom, score
      P1  H  6896  6907       L1     9  0.83
      P1  H  6934  6947       L1    16  1.90

> <Gold.PLP.Chemscore.Internal.Correction>
0.3472

> <Gold.Rescore>
     Score         DG    S(hbond)    S(metal)    S(lipo)     H(rot)  DE(clash)    DE(int)     intcor
     13.48     -14.45       1.18        0.00      87.55       2.04       0.03       0.94       ----

> <Gold.Chemscore.Fitness>
13.4778

> <Gold.Chemscore.DG>
-14.4503

> <Gold.Chemscore.ZeroCoef>
-5.4800

> <Gold.Chemscore.Hbond>
1.1822

> <Gold.Chemscore.Metal>
0.0000

> <Gold.Chemscore.Lipo>
87.5540

> <Gold.Chemscore.Internal_Hbond>
0.0000

> <Gold.Chemscore.DEClash>
0.0339

> <Gold.Chemscore.DEInternal>
0.9386

> <Gold.Chemscore.Rot>
2.0399

> <Gold.Chemscore.Internal.Correction>
   9.000000E+99

> <Gold.Chemscore.Hbonds>
donor molecule, donor type, donor heavy atom, donor atom, acceptor molecule, acceptor atom, score
      P1  H  6896  6907       L1     9  0.73
      P1  H  6934  6947       L1    16  0.20

> <Gold.Chemscore.Hbond.Weighted>
-3.9486

> <Gold.Chemscore.Metal.Weighted>
-0.0000

> <Gold.Chemscore.Lipo.Weighted>
-10.2438

> <Gold.Chemscore.Internal_Hbond.Weighted>
0.0000

> <Gold.Chemscore.DEClash.Weighted>
0.0339

> <Gold.Chemscore.DEInternal.Weighted>
0.9386

> <Gold.Chemscore.Rot.Weighted>
5.2222

> <Gold.Chemscore.Internal.Correction.Weighted>
   9.000000E+99

> <Gold.Protein.RotatedTorsions>
[ 6907 6896 6895 6894 ] final  -12.52 input  -60.11 | X-H torsion
[ 7974 7965 7964 7962 ] final -121.10 input  175.53 | X-H torsion
[ 8008 7997 7996 7995 ] final   80.34 input   59.86 | X-H torsion
[ 10167 10162 10161 10158 ] final    9.90 input  -65.29 | X-H torsion
[ 10718 10713 10712 10709 ] final -135.05 input   66.30 | X-H torsion
[ 10763 10752 10751 10750 ] final  176.95 input  -60.55 | X-H torsion
[ 11005 11000 10999 10996 ] final -146.85 input  -57.11 | X-H torsion

> <Gold.Protein.ActiveResidues>
 VAL166  LYS551  ARG553  GLY616  TRP617  ASP618  TYR619  PRO620  LYS621  CYS622 
 ASP623  PHE694  ASN695  SER759  ASP760  ASP761  ALA762  ILE779  LEU786  VAL792 
 PHE793  MET794  SER795  GLU796  ALA797  LYS798  CYS799  TRP800  GLU811  SER814 

> <Gold.Protein.RotatedAtoms>
  151.3692  135.0919  159.9459 H   0  0  0  0  0  0  0  0  0  0  0  0  # atno 6907 bound_to 6896
  152.5140  133.9182  159.7531 H   0  0  0  0  0  0  0  0  0  0  0  0  # atno 6908 bound_to 6896
  150.9592  133.6409  159.2786 H   0  0  0  0  0  0  0  0  0  0  0  0  # atno 6909 bound_to 6896
  145.0441  140.8167  143.4248 H   0  0  0  0  0  0  0  0  0  0  0  0  # atno 7974 bound_to 7965
  155.8822  140.3443  155.5895 H   0  0  0  0  0  0  0  0  0  0  0  0  # atno 8008 bound_to 7997
  155.7707  140.0845  157.2128 H   0  0  0  0  0  0  0  0  0  0  0  0  # atno 8009 bound_to 7997
  154.4025  140.1519  156.2926 H   0  0  0  0  0  0  0  0  0  0  0  0  # atno 8010 bound_to 7997
  140.6227  143.8169  150.7195 H   0  0  0  0  0  0  0  0  0  0  0  0  # atno 10167 bound_to 10162
  156.2620  130.7215  151.1153 H   0  0  0  0  0  0  0  0  0  0  0  0  # atno 10718 bound_to 10713
  154.4880  135.2778  155.1519 H   0  0  0  0  0  0  0  0  0  0  0  0  # atno 10763 bound_to 10752
  154.3202  135.6211  153.5508 H   0  0  0  0  0  0  0  0  0  0  0  0  # atno 10764 bound_to 10752
  152.9884  135.5741  154.5295 H   0  0  0  0  0  0  0  0  0  0  0  0  # atno 10765 bound_to 10752
  140.7777  134.3115  157.5055 H   0  0  0  0  0  0  0  0  0  0  0  0  # atno 11005 bound_to 11000
  145.1610  139.2458  143.5391 LP  0  0  0  0  0  0  0  0  0  0  0  0  # atno 17320 bound_to 7965
  146.3512  140.1337  142.8596 LP  0  0  0  0  0  0  0  0  0  0  0  0  # atno 17321 bound_to 7965
  140.1762  143.4153  152.1965 LP  0  0  0  0  0  0  0  0  0  0  0  0  # atno 17342 bound_to 10162
  139.5453  144.7293  151.4604 LP  0  0  0  0  0  0  0  0  0  0  0  0  # atno 17343 bound_to 10162
  157.7254  131.0653  150.5954 LP  0  0  0  0  0  0  0  0  0  0  0  0  # atno 17370 bound_to 10713
  156.6043  130.4363  149.5884 LP  0  0  0  0  0  0  0  0  0  0  0  0  # atno 17371 bound_to 10713
  139.8747  134.9299  156.3489 LP  0  0  0  0  0  0  0  0  0  0  0  0  # atno 17394 bound_to 11000
  140.9513  133.7449  156.0275 LP  0  0  0  0  0  0  0  0  0  0  0  0  # atno 17395 bound_to 11000

$$$$
