AV-unprocessed.smi:1108|AV-procd|sdf|4788|dock10
  -GOLD-   22720 3333D 1   1.00000     0.00000
 Structure written by MMmdl.
 31 32  0  0  0  0  0  0  0  0  1 V2000
  152.2198  144.2441  158.1840 C   0  0  0  0  0  0  0  0  0  0  0  0
  151.8796  142.8118  157.7497 C   0  0  1  0  0  0  0  0  0  0  0  0
  151.4028  141.9615  158.9473 C   0  0  0  0  0  0  0  0  0  0  0  0
  152.2826  142.0663  160.0980 N   0  0  0  0  0  0  0  0  0  0  0  0
  153.5590  141.5663  160.2489 C   0  0  0  0  0  0  0  0  0  0  0  0
  153.9929  141.9292  161.4914 C   0  0  0  0  0  0  0  0  0  0  0  0
  152.8947  142.6529  162.0346 C   0  0  0  0  0  0  0  0  0  0  0  0
  151.8704  142.7288  161.2003 N   0  0  0  0  0  0  0  0  0  0  0  0
  150.8554  142.8625  156.7064 N   0  0  0  0  0  0  0  0  0  0  0  0
  150.4417  141.8232  155.9662 C   0  0  0  0  0  0  0  0  0  0  0  0
  150.8950  140.6825  156.0607 O   0  0  0  0  0  0  0  0  0  0  0  0
  149.4626  142.1748  155.1226 N   0  0  0  0  0  0  0  0  0  0  0  0
  148.7950  141.2932  154.2205 C   0  0  0  0  0  0  0  0  0  0  0  0
  147.3100  141.4953  154.0100 C   0  0  0  0  0  0  0  0  0  0  0  0
  147.7987  140.3140  154.8021 C   0  0  0  0  0  0  0  0  0  0  0  0
  153.0064  144.2477  158.9393 H   0  0  0  0  0  0  0  0  0  0  0  0
  151.3510  144.7498  158.6066 H   0  0  0  0  0  0  0  0  0  0  0  0
  152.5736  144.8370  157.3399 H   0  0  0  0  0  0  0  0  0  0  0  0
  152.7951  142.3723  157.3492 H   0  0  0  0  0  0  0  0  0  0  0  0
  150.4054  142.2760  159.2580 H   0  0  0  0  0  0  0  0  0  0  0  0
  151.3224  140.9113  158.6632 H   0  0  0  0  0  0  0  0  0  0  0  0
  154.0488  141.0072  159.4653 H   0  0  0  0  0  0  0  0  0  0  0  0
  154.9494  141.7120  161.9429 H   0  0  0  0  0  0  0  0  0  0  0  0
  152.8113  143.1216  163.0040 H   0  0  0  0  0  0  0  0  0  0  0  0
  150.4178  143.7581  156.5477 H   0  0  0  0  0  0  0  0  0  0  0  0
  149.1608  143.1380  155.1217 H   0  0  0  0  0  0  0  0  0  0  0  0
  149.3560  140.9466  153.3538 H   0  0  0  0  0  0  0  0  0  0  0  0
  146.8220  142.2995  154.5576 H   0  0  0  0  0  0  0  0  0  0  0  0
  146.9149  141.3041  153.0142 H   0  0  0  0  0  0  0  0  0  0  0  0
  147.7309  139.3331  154.3358 H   0  0  0  0  0  0  0  0  0  0  0  0
  147.6388  140.3292  155.8786 H   0  0  0  0  0  0  0  0  0  0  0  0
  1  2  1  0  0  0  0
  1 16  1  0  0  0  0
  1 17  1  0  0  0  0
  1 18  1  0  0  0  0
  2  3  1  0  0  0  0
  2  9  1  0  0  0  0
  2 19  1  0  0  0  0
  3  4  1  0  0  0  0
  3 20  1  0  0  0  0
  3 21  1  0  0  0  0
  4  8  1  0  0  0  0
  4  5  1  0  0  0  0
  5  6  2  0  0  0  0
  5 22  1  0  0  0  0
  6  7  1  0  0  0  0
  6 23  1  0  0  0  0
  7  8  2  0  0  0  0
  7 24  1  0  0  0  0
  9 10  1  0  0  0  0
  9 25  1  0  0  0  0
 10 11  2  0  0  0  0
 10 12  1  0  0  0  0
 12 13  1  0  0  0  0
 12 26  1  0  0  0  0
 13 15  1  0  0  0  0
 13 14  1  0  0  0  0
 13 27  1  0  0  0  0
 14 15  1  0  0  0  0
 14 28  1  0  0  0  0
 14 29  1  0  0  0  0
 15 30  1  0  0  0  0
 15 31  1  0  0  0  0
M  END
> <s_m_source_file>
AV-unprocessed.smi

> <i_m_source_file_index>
1108

> <i_lp_mmshare_version>
43012

> <i_f3d_flags>
0

> <s_epik_input>
W0NIMl0xW0NIMl1bQ0hdMVtOSF1DKD1PKVtOSF1bQ0BIXShbQ0gzXSlbQ0gyXW4yW2NIXVtjSF1bY0hdbjI=

> <s_epik_cmdline>
J2VwaWtfcHl0aG9uJywgJy1waCcsICc3LjAnLCAnLXRuJywgJzgnLCAnLW1hJywgJzIwMCcsICctbWV0YWxfYmluZGluZycsICctaW1hZScsICc8aW5maWxlLm1hZT4nLCAnLW9tYWUnLCAnPG91dGZpbGUubWFlPic=

> <r_lp_tautomer_probability>
1

> <r_epik_Ionization_Penalty>
7.55353e-05

> <r_epik_Ionization_Penalty_Charging>
0

> <r_epik_Ionization_Penalty_Neutral>
7.55353e-05

> <r_epik_State_Penalty>
-0

> <r_epik_Charging_Adjusted_Penalty>
0

> <i_epik_Tot_Q>
0

> <i_epik_Tot_abs_Q>
0

> <r_epik_Metal_State_Penalty>
-0

> <b_epik_Metal_Only>
0

> <s_lp_Force_Field>
OPLS_2005

> <r_lp_Energy>
13.7301

> <b_lp_Chiralities_Consistent>
1

> <s_lp_Variant>
AV-unprocessed.smi:1108-2

> <Gold.Version>
5.8.1

> <Gold.Id.Protein>
6NUR|6NUR_protein|mol2

> <Gold.PLP.Fitness>
42.8146

> <Gold.PLP.PLP>
-37.0732

> <Gold.PLP.part.hbond>
-3.0000

> <Gold.PLP.part.metal>
0.0000

> <Gold.PLP.part.buried>
-4.3143

> <Gold.PLP.part.nonpolar>
-29.7027

> <Gold.PLP.part.repulsive>
0.3929

> <Gold.PLP.ligand.clash>
0.0000

> <Gold.PLP.ligand.torsion>
0.4637

> <Gold.PLP.Chemscore.Hbond>
2.2080

> <Gold.PLP.Chemscore.CHOScore>
0.0000

> <Gold.PLP.Chemscore.Metal>
0.0000

> <Gold.Chemscore.Hbonds>
donor molecule, donor type, donor heavy atom, donor atom, acceptor molecule, acceptor atom, score
      L1  H     9    25       P1  8028  0.93
      L1  H    12    26       P1  8028  1.00
      P1  H  6933  6945       L1     8  0.15

> <Gold.PLP.Chemscore.Internal.Correction>
0.0449

> <Gold.Rescore>
     Score         DG    S(hbond)    S(metal)    S(lipo)     H(rot)  DE(clash)    DE(int)     intcor
     17.07     -17.73       1.95        0.00      86.38       1.71       0.02       0.64       ----

> <Gold.Chemscore.Fitness>
17.0745

> <Gold.Chemscore.DG>
-17.7347

> <Gold.Chemscore.ZeroCoef>
-5.4800

> <Gold.Chemscore.Hbond>
1.9520

> <Gold.Chemscore.Metal>
0.0000

> <Gold.Chemscore.Lipo>
86.3779

> <Gold.Chemscore.Internal_Hbond>
0.0000

> <Gold.Chemscore.DEClash>
0.0204

> <Gold.Chemscore.DEInternal>
0.6399

> <Gold.Chemscore.Rot>
1.7075

> <Gold.Chemscore.Internal.Correction>
   9.000000E+99

> <Gold.Chemscore.Hbonds>
donor molecule, donor type, donor heavy atom, donor atom, acceptor molecule, acceptor atom, score
      L1  H     9    25       P1  8028  0.86
      L1  H    12    26       P1  8028  1.00
      P1  H  6933  6945       L1     8  0.09

> <Gold.Chemscore.Hbond.Weighted>
-6.5198

> <Gold.Chemscore.Metal.Weighted>
-0.0000

> <Gold.Chemscore.Lipo.Weighted>
-10.1062

> <Gold.Chemscore.Internal_Hbond.Weighted>
0.0000

> <Gold.Chemscore.DEClash.Weighted>
0.0204

> <Gold.Chemscore.DEInternal.Weighted>
0.6399

> <Gold.Chemscore.Rot.Weighted>
4.3713

> <Gold.Chemscore.Internal.Correction.Weighted>
   9.000000E+99

> <Gold.Protein.RotatedTorsions>
[ 6907 6896 6895 6894 ] final   86.32 input  -60.11 | X-H torsion
[ 7974 7965 7964 7962 ] final   35.41 input  175.53 | X-H torsion
[ 8008 7997 7996 7995 ] final  -85.77 input   59.86 | X-H torsion
[ 10167 10162 10161 10158 ] final  -13.02 input  -65.29 | X-H torsion
[ 10718 10713 10712 10709 ] final -174.65 input   66.30 | X-H torsion
[ 10763 10752 10751 10750 ] final -129.42 input  -60.55 | X-H torsion
[ 11005 11000 10999 10996 ] final -133.02 input  -57.11 | X-H torsion

> <Gold.Protein.ActiveResidues>
 VAL166  LYS551  ARG553  GLY616  TRP617  ASP618  TYR619  PRO620  LYS621  CYS622 
 ASP623  PHE694  ASN695  SER759  ASP760  ASP761  ALA762  ILE779  LEU786  VAL792 
 PHE793  MET794  SER795  GLU796  ALA797  LYS798  CYS799  TRP800  GLU811  SER814 

> <Gold.Protein.RotatedAtoms>
  152.5392  134.2449  159.8876 H   0  0  0  0  0  0  0  0  0  0  0  0  # atno 6907 bound_to 6896
  151.2415  133.4390  159.2615 H   0  0  0  0  0  0  0  0  0  0  0  0  # atno 6908 bound_to 6896
  151.0622  134.9758  159.8322 H   0  0  0  0  0  0  0  0  0  0  0  0  # atno 6909 bound_to 6896
  146.1285  139.6146  142.9242 H   0  0  0  0  0  0  0  0  0  0  0  0  # atno 7974 bound_to 7965
  154.6445  140.0587  156.9884 H   0  0  0  0  0  0  0  0  0  0  0  0  # atno 8008 bound_to 7997
  155.1466  140.3270  155.4422 H   0  0  0  0  0  0  0  0  0  0  0  0  # atno 8009 bound_to 7997
  156.2547  140.1954  156.6580 H   0  0  0  0  0  0  0  0  0  0  0  0  # atno 8010 bound_to 7997
  140.7173  143.5470  150.9344 H   0  0  0  0  0  0  0  0  0  0  0  0  # atno 10167 bound_to 10162
  156.7882  130.9508  151.3120 H   0  0  0  0  0  0  0  0  0  0  0  0  # atno 10718 bound_to 10713
  154.8757  135.3896  154.3917 H   0  0  0  0  0  0  0  0  0  0  0  0  # atno 10763 bound_to 10752
  153.4652  135.7029  153.6031 H   0  0  0  0  0  0  0  0  0  0  0  0  # atno 10764 bound_to 10752
  153.4513  135.3833  155.2253 H   0  0  0  0  0  0  0  0  0  0  0  0  # atno 10765 bound_to 10752
  140.9118  134.1558  157.4383 H   0  0  0  0  0  0  0  0  0  0  0  0  # atno 11005 bound_to 11000
  145.5313  141.0427  143.2381 LP  0  0  0  0  0  0  0  0  0  0  0  0  # atno 17320 bound_to 7965
  144.7666  139.6830  143.7212 LP  0  0  0  0  0  0  0  0  0  0  0  0  # atno 17321 bound_to 7965
  139.9194  143.6624  152.3100 LP  0  0  0  0  0  0  0  0  0  0  0  0  # atno 17342 bound_to 10162
  139.7036  144.7631  151.1232 LP  0  0  0  0  0  0  0  0  0  0  0  0  # atno 17343 bound_to 10162
  157.6613  130.8969  149.9836 LP  0  0  0  0  0  0  0  0  0  0  0  0  # atno 17370 bound_to 10713
  156.1175  130.3647  149.9943 LP  0  0  0  0  0  0  0  0  0  0  0  0  # atno 17371 bound_to 10713
  139.8759  134.9939  156.5665 LP  0  0  0  0  0  0  0  0  0  0  0  0  # atno 17394 bound_to 11000
  140.8100  133.8437  155.8801 LP  0  0  0  0  0  0  0  0  0  0  0  0  # atno 17395 bound_to 11000

$$$$
