AV-unprocessed.smi:2564|AV-procd|sdf|10067|dock3
  -GOLD-   2272014103D 1   1.00000     0.00000
 Structure written by MMmdl.
 28 29  0  0  0  0  0  0  0  0  1 V2000
  152.3189  144.6051  158.6406 C   0  0  0  0  0  0  0  0  0  0  0  0
  152.6373  143.6767  159.6483 C   0  0  0  0  0  0  0  0  0  0  0  0
  152.2298  142.3883  159.6063 N   0  0  0  0  0  0  0  0  0  0  0  0
  151.4954  141.9517  158.5768 N   0  0  0  0  0  0  0  0  0  0  0  0
  151.1546  142.7909  157.5659 C   0  0  0  0  0  0  0  0  0  0  0  0
  150.3858  142.3058  156.4980 N   0  0  0  0  0  0  0  0  0  0  0  0
  150.5991  140.9689  155.9554 C   0  0  0  0  0  0  0  0  0  0  0  0
  149.7318  140.6906  154.7159 C   0  0  1  0  0  0  0  0  0  0  0  0
  149.8227  139.2130  154.2847 C   0  0  0  0  0  0  0  0  0  0  0  0
  148.9294  138.9518  153.1570 N   0  0  0  0  0  0  0  0  0  0  0  0
  147.5560  139.3439  153.4653 C   0  0  0  0  0  0  0  0  0  0  0  0
  147.5117  140.8104  153.9279 C   0  0  0  0  0  0  0  0  0  0  0  0
  148.3751  140.9790  155.0468 O   0  0  0  0  0  0  0  0  0  0  0  0
  151.5476  144.1441  157.5597 C   0  0  0  0  0  0  0  0  0  0  0  0
  152.6541  145.6302  158.6956 H   0  0  0  0  0  0  0  0  0  0  0  0
  153.2284  143.9712  160.5029 H   0  0  0  0  0  0  0  0  0  0  0  0
  149.8480  142.9597  155.9478 H   0  0  0  0  0  0  0  0  0  0  0  0
  151.6551  140.8367  155.7171 H   0  0  0  0  0  0  0  0  0  0  0  0
  150.3719  140.2414  156.7349 H   0  0  0  0  0  0  0  0  0  0  0  0
  150.0549  141.3278  153.8904 H   0  0  0  0  0  0  0  0  0  0  0  0
  150.8485  138.9659  154.0103 H   0  0  0  0  0  0  0  0  0  0  0  0
  149.5589  138.5671  155.1231 H   0  0  0  0  0  0  0  0  0  0  0  0
  148.9569  137.9645  152.9229 H   0  0  0  0  0  0  0  0  0  0  0  0
  146.9211  139.2066  152.5899 H   0  0  0  0  0  0  0  0  0  0  0  0
  147.1538  138.7011  154.2492 H   0  0  0  0  0  0  0  0  0  0  0  0
  147.7996  141.4862  153.1208 H   0  0  0  0  0  0  0  0  0  0  0  0
  146.4970  141.0795  154.2218 H   0  0  0  0  0  0  0  0  0  0  0  0
  151.2708  144.8076  156.7536 H   0  0  0  0  0  0  0  0  0  0  0  0
  1 14  1  0  0  0  0
  1  2  2  0  0  0  0
  1 15  1  0  0  0  0
  2  3  1  0  0  0  0
  2 16  1  0  0  0  0
  3  4  2  0  0  0  0
  4  5  1  0  0  0  0
  5  6  1  0  0  0  0
  5 14  2  0  0  0  0
  6  7  1  0  0  0  0
  6 17  1  0  0  0  0
  7  8  1  0  0  0  0
  7 18  1  0  0  0  0
  7 19  1  0  0  0  0
  8 13  1  0  0  0  0
  8  9  1  0  0  0  0
  8 20  1  0  0  0  0
  9 10  1  0  0  0  0
  9 21  1  0  0  0  0
  9 22  1  0  0  0  0
 10 11  1  0  0  0  0
 10 23  1  0  0  0  0
 11 12  1  0  0  0  0
 11 24  1  0  0  0  0
 11 25  1  0  0  0  0
 12 13  1  0  0  0  0
 12 26  1  0  0  0  0
 12 27  1  0  0  0  0
 14 28  1  0  0  0  0
M  END
> <s_m_source_file>
AV-unprocessed.smi

> <i_m_source_file_index>
2564

> <i_lp_mmshare_version>
43012

> <i_f3d_flags>
0

> <s_epik_input>
W2NIXTFbY0hdW2NIXW5uYzFbTkhdW0NIMl1bQ0BASF0yW0NIMl1bTkhdW0NIMl1bQ0gyXU8y

> <s_epik_cmdline>
J2VwaWtfcHl0aG9uJywgJy1waCcsICc3LjAnLCAnLXRuJywgJzgnLCAnLW1hJywgJzIwMCcsICctbWV0YWxfYmluZGluZycsICctaW1hZScsICc8aW5maWxlLm1hZT4nLCAnLW9tYWUnLCAnPG91dGZpbGUubWFlPic=

> <r_lp_tautomer_probability>
0.999978

> <r_epik_Ionization_Penalty>
2.48194

> <r_epik_Ionization_Penalty_Charging>
0

> <r_epik_Ionization_Penalty_Neutral>
2.48194

> <r_epik_State_Penalty>
2.63388

> <r_epik_Charging_Adjusted_Penalty>
2.63388

> <i_epik_Tot_Q>
0

> <i_epik_Tot_abs_Q>
0

> <r_epik_Metal_State_Penalty>
2.61931

> <b_epik_Metal_Only>
0

> <s_lp_Force_Field>
OPLS_2005

> <r_lp_Energy>
19.9467

> <b_lp_Chiralities_Consistent>
1

> <s_lp_Variant>
AV-unprocessed.smi:2564-6

> <Gold.Version>
5.8.1

> <Gold.Id.Protein>
6NUR|6NUR_protein|mol2

> <Gold.PLP.Fitness>
38.3966

> <Gold.PLP.PLP>
-33.0548

> <Gold.PLP.part.hbond>
-2.6633

> <Gold.PLP.part.metal>
0.0000

> <Gold.PLP.part.buried>
-3.2477

> <Gold.PLP.part.nonpolar>
-27.8045

> <Gold.PLP.part.repulsive>
0.1997

> <Gold.PLP.ligand.clash>
0.0000

> <Gold.PLP.ligand.torsion>
0.3323

> <Gold.PLP.Chemscore.Hbond>
2.0000

> <Gold.PLP.Chemscore.CHOScore>
0.0000

> <Gold.PLP.Chemscore.Metal>
0.0000

> <Gold.Chemscore.Hbonds>
donor molecule, donor type, donor heavy atom, donor atom, acceptor molecule, acceptor atom, score
      L1  H     6    17       P1  8028  1.00
      L1  H    10    23       P1  7948  1.00

> <Gold.PLP.Chemscore.Internal.Correction>
0.0064

> <Gold.Rescore>
     Score         DG    S(hbond)    S(metal)    S(lipo)     H(rot)  DE(clash)    DE(int)     intcor
     16.88     -17.45       1.90        0.00      76.54       1.30       0.10       0.46       ----

> <Gold.Chemscore.Fitness>
16.8836

> <Gold.Chemscore.DG>
-17.4455

> <Gold.Chemscore.ZeroCoef>
-5.4800

> <Gold.Chemscore.Hbond>
1.8981

> <Gold.Chemscore.Metal>
0.0000

> <Gold.Chemscore.Lipo>
76.5427

> <Gold.Chemscore.Internal_Hbond>
0.0000

> <Gold.Chemscore.DEClash>
0.0993

> <Gold.Chemscore.DEInternal>
0.4626

> <Gold.Chemscore.Rot>
1.3006

> <Gold.Chemscore.Internal.Correction>
   9.000000E+99

> <Gold.Chemscore.Hbonds>
donor molecule, donor type, donor heavy atom, donor atom, acceptor molecule, acceptor atom, score
      L1  H     6    17       P1  8028  0.91
      L1  H    10    23       P1  7948  0.96

> <Gold.Chemscore.Hbond.Weighted>
-6.3396

> <Gold.Chemscore.Metal.Weighted>
-0.0000

> <Gold.Chemscore.Lipo.Weighted>
-8.9555

> <Gold.Chemscore.Internal_Hbond.Weighted>
0.0000

> <Gold.Chemscore.DEClash.Weighted>
0.0993

> <Gold.Chemscore.DEInternal.Weighted>
0.4626

> <Gold.Chemscore.Rot.Weighted>
3.3296

> <Gold.Chemscore.Internal.Correction.Weighted>
   9.000000E+99

> <Gold.Protein.RotatedTorsions>
[ 6907 6896 6895 6894 ] final -129.86 input  -60.11 | X-H torsion
[ 7974 7965 7964 7962 ] final  112.81 input  175.53 | X-H torsion
[ 8008 7997 7996 7995 ] final   91.91 input   59.86 | X-H torsion
[ 10167 10162 10161 10158 ] final  -15.75 input  -65.29 | X-H torsion
[ 10718 10713 10712 10709 ] final  106.35 input   66.30 | X-H torsion
[ 10763 10752 10751 10750 ] final  124.64 input  -60.55 | X-H torsion
[ 11005 11000 10999 10996 ] final  -79.84 input  -57.11 | X-H torsion

> <Gold.Protein.ActiveResidues>
 VAL166  LYS551  ARG553  GLY616  TRP617  ASP618  TYR619  PRO620  LYS621  CYS622 
 ASP623  PHE694  ASN695  SER759  ASP760  ASP761  ALA762  ILE779  LEU786  VAL792 
 PHE793  MET794  SER795  GLU796  ALA797  LYS798  CYS799  TRP800  GLU811  SER814 

> <Gold.Protein.RotatedAtoms>
  150.9333  133.6741  159.2805 H   0  0  0  0  0  0  0  0  0  0  0  0  # atno 6907 bound_to 6896
  151.4155  135.0989  159.9608 H   0  0  0  0  0  0  0  0  0  0  0  0  # atno 6908 bound_to 6896
  152.5036  133.8797  159.7395 H   0  0  0  0  0  0  0  0  0  0  0  0  # atno 6909 bound_to 6896
  145.2249  139.2845  143.4199 H   0  0  0  0  0  0  0  0  0  0  0  0  # atno 7974 bound_to 7965
  156.0293  140.3332  155.7122 H   0  0  0  0  0  0  0  0  0  0  0  0  # atno 8008 bound_to 7997
  155.5908  140.0646  157.2776 H   0  0  0  0  0  0  0  0  0  0  0  0  # atno 8009 bound_to 7997
  154.4346  140.1827  156.1061 H   0  0  0  0  0  0  0  0  0  0  0  0  # atno 8010 bound_to 7997
  140.7223  143.5187  150.9660 H   0  0  0  0  0  0  0  0  0  0  0  0  # atno 10167 bound_to 10162
  157.6671  131.0848  150.5993 H   0  0  0  0  0  0  0  0  0  0  0  0  # atno 10718 bound_to 10713
  153.6646  135.3340  155.3136 H   0  0  0  0  0  0  0  0  0  0  0  0  # atno 10763 bound_to 10752
  154.8506  135.4372  154.1769 H   0  0  0  0  0  0  0  0  0  0  0  0  # atno 10764 bound_to 10752
  153.2744  135.7003  153.7523 H   0  0  0  0  0  0  0  0  0  0  0  0  # atno 10765 bound_to 10752
  141.1668  133.7124  156.8183 H   0  0  0  0  0  0  0  0  0  0  0  0  # atno 11005 bound_to 11000
  146.3367  140.2566  142.8600 LP  0  0  0  0  0  0  0  0  0  0  0  0  # atno 17320 bound_to 7965
  144.9731  140.8387  143.5443 LP  0  0  0  0  0  0  0  0  0  0  0  0  # atno 17321 bound_to 7965
  139.8903  143.6961  152.3146 LP  0  0  0  0  0  0  0  0  0  0  0  0  # atno 17342 bound_to 10162
  139.7275  144.7590  151.0856 LP  0  0  0  0  0  0  0  0  0  0  0  0  # atno 17343 bound_to 10162
  156.6294  130.4427  149.5792 LP  0  0  0  0  0  0  0  0  0  0  0  0  # atno 17370 bound_to 10713
  156.2294  130.6785  151.1448 LP  0  0  0  0  0  0  0  0  0  0  0  0  # atno 17371 bound_to 10713
  140.2137  134.8808  157.3303 LP  0  0  0  0  0  0  0  0  0  0  0  0  # atno 17394 bound_to 11000
  140.2060  134.4197  155.7637 LP  0  0  0  0  0  0  0  0  0  0  0  0  # atno 17395 bound_to 11000

$$$$
