AV-unprocessed.smi:1828|AV-procd|sdf|7425|dock8
  -GOLD-   22720 9103D 1   1.00000     0.00000
 Structure written by MMmdl.
 39 41  0  0  0  0  0  0  0  0  1 V2000
  151.6281  136.7221  154.4980 O   0  0  0  0  0  0  0  0  0  0  0  0
  152.0793  138.0057  154.1200 C   0  0  0  0  0  0  0  0  0  0  0  0
  151.8574  139.0372  155.1893 C   0  0  0  0  0  0  0  0  0  0  0  0
  151.2043  140.1704  154.9246 N   0  0  0  0  0  0  0  0  0  0  0  0
  151.2292  140.8319  156.1351 C   0  0  0  0  0  0  0  0  0  0  0  0
  150.7079  142.0926  156.5038 C   0  0  0  0  0  0  0  0  0  0  0  0
  150.8589  142.5695  157.8222 C   0  0  0  0  0  0  0  0  0  0  0  0
  151.5321  141.7945  158.7884 C   0  0  0  0  0  0  0  0  0  0  0  0
  152.0583  140.5352  158.4415 C   0  0  0  0  0  0  0  0  0  0  0  0
  151.9040  140.0633  157.1238 C   0  0  0  0  0  0  0  0  0  0  0  0
  152.2941  138.8978  156.4704 N   0  0  0  0  0  0  0  0  0  0  0  0
  153.0260  137.7965  157.0856 C   0  0  0  0  0  0  0  0  0  0  0  0
  152.5177  137.4745  158.5056 C   0  0  1  0  0  0  0  0  0  0  0  0
  151.3718  136.6556  158.3912 O   0  0  0  0  0  0  0  0  0  0  0  0
  153.5926  136.8514  159.3861 C   0  0  0  0  0  0  0  0  0  0  0  0
  154.4873  135.8894  158.8684 C   0  0  0  0  0  0  0  0  0  0  0  0
  155.4888  135.3398  159.6906 C   0  0  0  0  0  0  0  0  0  0  0  0
  155.6069  135.7527  161.0313 C   0  0  0  0  0  0  0  0  0  0  0  0
  154.7254  136.7211  161.5582 C   0  0  0  0  0  0  0  0  0  0  0  0
  154.8505  137.1747  163.0049 C   0  0  0  0  0  0  0  0  0  0  0  0
  155.1573  138.4710  163.0675 F   0  0  0  0  0  0  0  0  0  0  0  0
  153.6891  136.9774  163.6274 F   0  0  0  0  0  0  0  0  0  0  0  0
  155.8010  136.4902  163.6423 F   0  0  0  0  0  0  0  0  0  0  0  0
  153.7149  137.2582  160.7321 C   0  0  0  0  0  0  0  0  0  0  0  0
  151.0073  136.4203  153.8530 H   0  0  0  0  0  0  0  0  0  0  0  0
  153.1459  137.9542  153.9006 H   0  0  0  0  0  0  0  0  0  0  0  0
  151.5784  138.2693  153.1922 H   0  0  0  0  0  0  0  0  0  0  0  0
  150.1919  142.6940  155.7701 H   0  0  0  0  0  0  0  0  0  0  0  0
  150.4569  143.5349  158.0930 H   0  0  0  0  0  0  0  0  0  0  0  0
  151.6440  142.1672  159.7962 H   0  0  0  0  0  0  0  0  0  0  0  0
  152.5753  139.9399  159.1793 H   0  0  0  0  0  0  0  0  0  0  0  0
  152.8934  136.9224  156.4465 H   0  0  0  0  0  0  0  0  0  0  0  0
  154.0963  137.9970  157.0786 H   0  0  0  0  0  0  0  0  0  0  0  0
  152.1823  138.3990  158.9778 H   0  0  0  0  0  0  0  0  0  0  0  0
  151.2266  136.4709  157.4757 H   0  0  0  0  0  0  0  0  0  0  0  0
  154.4138  135.5736  157.8381 H   0  0  0  0  0  0  0  0  0  0  0  0
  156.1701  134.6029  159.2919 H   0  0  0  0  0  0  0  0  0  0  0  0
  156.3795  135.3235  161.6518 H   0  0  0  0  0  0  0  0  0  0  0  0
  153.0360  137.9988  161.1290 H   0  0  0  0  0  0  0  0  0  0  0  0
  1  2  1  0  0  0  0
  1 25  1  0  0  0  0
  2  3  1  0  0  0  0
  2 26  1  0  0  0  0
  2 27  1  0  0  0  0
  3 11  1  0  0  0  0
  3  4  2  0  0  0  0
  4  5  1  0  0  0  0
  5 10  2  0  0  0  0
  5  6  1  0  0  0  0
  6  7  2  0  0  0  0
  6 28  1  0  0  0  0
  7  8  1  0  0  0  0
  7 29  1  0  0  0  0
  8  9  2  0  0  0  0
  8 30  1  0  0  0  0
  9 10  1  0  0  0  0
  9 31  1  0  0  0  0
 10 11  1  0  0  0  0
 11 12  1  0  0  0  0
 12 13  1  0  0  0  0
 12 32  1  0  0  0  0
 12 33  1  0  0  0  0
 13 14  1  0  0  0  0
 13 15  1  0  0  0  0
 13 34  1  0  0  0  0
 14 35  1  0  0  0  0
 15 24  1  0  0  0  0
 15 16  2  0  0  0  0
 16 17  1  0  0  0  0
 16 36  1  0  0  0  0
 17 18  2  0  0  0  0
 17 37  1  0  0  0  0
 18 19  1  0  0  0  0
 18 38  1  0  0  0  0
 19 20  1  0  0  0  0
 19 24  2  0  0  0  0
 20 21  1  0  0  0  0
 20 22  1  0  0  0  0
 20 23  1  0  0  0  0
 24 39  1  0  0  0  0
M  END
> <s_m_source_file>
AV-unprocessed.smi

> <i_m_source_file_index>
1828

> <i_lp_mmshare_version>
43012

> <i_f3d_flags>
0

> <s_epik_input>
W2NIXTFbY0hdW2NIXVtjSF1jKGMxMiluKGMobjIpW0NIMl1bT0hdKVtDSDJdW0NASF0oW09IXSljM1tjSF1bY0hdW2NIXWMoQyhGKShGKUYpW2NIXTM=

> <s_epik_cmdline>
J2VwaWtfcHl0aG9uJywgJy1waCcsICc3LjAnLCAnLXRuJywgJzgnLCAnLW1hJywgJzIwMCcsICctbWV0YWxfYmluZGluZycsICctaW1hZScsICc8aW5maWxlLm1hZT4nLCAnLW9tYWUnLCAnPG91dGZpbGUubWFlPic=

> <r_epik_Ionization_Penalty>
0.0634719

> <r_epik_Ionization_Penalty_Charging>
0

> <r_epik_Ionization_Penalty_Neutral>
0.0634719

> <r_epik_State_Penalty>
0.0551572

> <r_epik_Charging_Adjusted_Penalty>
0.0551572

> <i_epik_Tot_Q>
0

> <i_epik_Tot_abs_Q>
0

> <r_epik_Metal_State_Penalty>
5.78034e-05

> <b_epik_Metal_Only>
0

> <s_lp_Force_Field>
OPLS_2005

> <r_lp_Energy>
14.211

> <b_lp_Chiralities_Consistent>
1

> <s_lp_Variant>
AV-unprocessed.smi:1828-2

> <Gold.Version>
5.8.1

> <Gold.Id.Protein>
6NUR|6NUR_protein|mol2

> <Gold.PLP.Fitness>
46.8827

> <Gold.PLP.PLP>
-41.5064

> <Gold.PLP.part.hbond>
-3.7709

> <Gold.PLP.part.metal>
0.0000

> <Gold.PLP.part.buried>
-6.2155

> <Gold.PLP.part.nonpolar>
-32.6047

> <Gold.PLP.part.repulsive>
0.0577

> <Gold.PLP.ligand.clash>
1.0819

> <Gold.PLP.ligand.torsion>
1.1830

> <Gold.PLP.Chemscore.Hbond>
2.5564

> <Gold.PLP.Chemscore.CHOScore>
0.0000

> <Gold.PLP.Chemscore.Metal>
0.0000

> <Gold.Chemscore.Hbonds>
donor molecule, donor type, donor heavy atom, donor atom, acceptor molecule, acceptor atom, score
      L1  H     1    25       P1  7949  0.04
      P1  H  6896  6909       L1    14  0.43
      P1  H  7989  7998       L1     4  1.00
      P1  H 10752 10763       L1     1  1.00

> <Gold.PLP.Chemscore.Internal.Correction>
1.1551

> <Gold.Rescore>
     Score         DG    S(hbond)    S(metal)    S(lipo)     H(rot)  DE(clash)    DE(int)     intcor
     13.49     -14.72       1.62        0.00      96.59       2.91       0.06       1.17       ----

> <Gold.Chemscore.Fitness>
13.4903

> <Gold.Chemscore.DG>
-14.7203

> <Gold.Chemscore.ZeroCoef>
-5.4800

> <Gold.Chemscore.Hbond>
1.6167

> <Gold.Chemscore.Metal>
0.0000

> <Gold.Chemscore.Lipo>
96.5862

> <Gold.Chemscore.Internal_Hbond>
0.0000

> <Gold.Chemscore.DEClash>
0.0610

> <Gold.Chemscore.DEInternal>
1.1690

> <Gold.Chemscore.Rot>
2.9141

> <Gold.Chemscore.Internal.Correction>
   9.000000E+99

> <Gold.Chemscore.Hbonds>
donor molecule, donor type, donor heavy atom, donor atom, acceptor molecule, acceptor atom, score
      L1  H     1    25       P1  7949  0.02
      P1  H  6896  6909       L1    14  0.39
      P1  H  7989  7998       L1     4  0.87
      P1  H 10752 10763       L1     1  0.11

> <Gold.Chemscore.Hbond.Weighted>
-5.3997

> <Gold.Chemscore.Metal.Weighted>
-0.0000

> <Gold.Chemscore.Lipo.Weighted>
-11.3006

> <Gold.Chemscore.Internal_Hbond.Weighted>
0.0000

> <Gold.Chemscore.DEClash.Weighted>
0.0610

> <Gold.Chemscore.DEInternal.Weighted>
1.1690

> <Gold.Chemscore.Rot.Weighted>
7.4600

> <Gold.Chemscore.Internal.Correction.Weighted>
   9.000000E+99

> <Gold.Protein.RotatedTorsions>
[ 6907 6896 6895 6894 ] final   86.22 input  -60.11 | X-H torsion
[ 7974 7965 7964 7962 ] final -176.73 input  175.53 | X-H torsion
[ 8008 7997 7996 7995 ] final   16.70 input   59.86 | X-H torsion
[ 10167 10162 10161 10158 ] final   31.78 input  -65.29 | X-H torsion
[ 10718 10713 10712 10709 ] final  124.02 input   66.30 | X-H torsion
[ 10763 10752 10751 10750 ] final   32.46 input  -60.55 | X-H torsion
[ 11005 11000 10999 10996 ] final -121.84 input  -57.11 | X-H torsion

> <Gold.Protein.ActiveResidues>
 VAL166  LYS551  ARG553  GLY616  TRP617  ASP618  TYR619  PRO620  LYS621  CYS622 
 ASP623  PHE694  ASN695  SER759  ASP760  ASP761  ALA762  ILE779  LEU786  VAL792 
 PHE793  MET794  SER795  GLU796  ALA797  LYS798  CYS799  TRP800  GLU811  SER814 

> <Gold.Protein.RotatedAtoms>
  152.5390  134.2466  159.8882 H   0  0  0  0  0  0  0  0  0  0  0  0  # atno 6907 bound_to 6896
  151.2431  133.4382  159.2616 H   0  0  0  0  0  0  0  0  0  0  0  0  # atno 6908 bound_to 6896
  151.0608  134.9749  159.8316 H   0  0  0  0  0  0  0  0  0  0  0  0  # atno 6909 bound_to 6896
  144.7127  140.1126  143.6410 H   0  0  0  0  0  0  0  0  0  0  0  0  # atno 7974 bound_to 7965
  154.8807  140.2972  155.5427 H   0  0  0  0  0  0  0  0  0  0  0  0  # atno 8008 bound_to 7997
  156.3022  140.2443  156.3743 H   0  0  0  0  0  0  0  0  0  0  0  0  # atno 8009 bound_to 7997
  154.8720  140.0401  157.1719 H   0  0  0  0  0  0  0  0  0  0  0  0  # atno 8010 bound_to 7997
  140.4558  144.0980  150.6201 H   0  0  0  0  0  0  0  0  0  0  0  0  # atno 10167 bound_to 10162
  157.5618  131.1089  150.8524 H   0  0  0  0  0  0  0  0  0  0  0  0  # atno 10718 bound_to 10713
  153.0261  135.6412  154.1358 H   0  0  0  0  0  0  0  0  0  0  0  0  # atno 10763 bound_to 10752
  154.1087  135.2854  155.3237 H   0  0  0  0  0  0  0  0  0  0  0  0  # atno 10764 bound_to 10752
  154.6347  135.5480  153.7783 H   0  0  0  0  0  0  0  0  0  0  0  0  # atno 10765 bound_to 10752
  141.0040  134.0362  157.3501 H   0  0  0  0  0  0  0  0  0  0  0  0  # atno 11005 bound_to 11000
  145.9442  139.2689  143.1251 LP  0  0  0  0  0  0  0  0  0  0  0  0  # atno 17320 bound_to 7965
  145.9392  140.8992  143.0316 LP  0  0  0  0  0  0  0  0  0  0  0  0  # atno 17321 bound_to 7965
  140.4152  143.2637  151.9783 LP  0  0  0  0  0  0  0  0  0  0  0  0  # atno 17342 bound_to 10162
  139.4801  144.5880  151.7821 LP  0  0  0  0  0  0  0  0  0  0  0  0  # atno 17343 bound_to 10162
  156.9020  130.5250  149.5282 LP  0  0  0  0  0  0  0  0  0  0  0  0  # atno 17370 bound_to 10713
  156.0670  130.5711  150.9308 LP  0  0  0  0  0  0  0  0  0  0  0  0  # atno 17371 bound_to 10713
  139.9053  135.0177  156.7458 LP  0  0  0  0  0  0  0  0  0  0  0  0  # atno 17394 bound_to 11000
  140.6843  133.9446  155.7929 LP  0  0  0  0  0  0  0  0  0  0  0  0  # atno 17395 bound_to 11000

$$$$
