AV-unprocessed.smi:766|AV-procd|sdf|3652|dock4
  -GOLD-   22720 1 53D 1   1.00000     0.00000
 Structure written by MMmdl.
 47 49  0  0  0  0  0  0  0  0  2 V2000
  152.5825  143.5027  161.0494 C   0  0  0  0  0  0  0  0  0  0  0  0
  152.1453  142.8490  159.7502 C   0  0  0  0  0  0  0  0  0  0  0  0
  152.6478  141.5697  159.4219 C   0  0  0  0  0  0  0  0  0  0  0  0
  152.2656  140.9270  158.2240 C   0  0  0  0  0  0  0  0  0  0  0  0
  152.6270  139.6932  157.7107 N   0  0  0  0  0  0  0  0  0  0  0  0
  151.9419  139.6656  156.5712 C   0  0  0  0  0  0  0  0  0  0  0  0
  151.1794  140.7386  156.2839 N   0  0  0  0  0  0  0  0  0  0  0  0
  150.3481  140.9383  155.1105 C   0  0  0  0  0  0  0  0  0  0  0  0
  149.3514  139.7840  154.8915 C   0  0  1  0  0  0  0  0  0  0  0  0
  148.4510  140.1301  153.8560 O   0  0  0  0  0  0  0  0  0  0  0  0
  150.0614  138.4729  154.5172 C   0  0  0  0  0  0  0  0  0  0  0  0
  149.0993  137.3593  154.3982 N   0  3  0  0  0  0  0  0  0  0  0  0
  149.0630  136.4618  155.5705 C   0  0  0  0  0  0  0  0  0  0  0  0
  147.9404  135.4178  155.4532 C   0  0  0  0  0  0  0  0  0  0  0  0
  148.3723  134.2156  154.7624 N   0  0  0  0  0  0  0  0  0  0  0  0
  149.4350  133.3900  155.0643 C   0  0  0  0  0  0  0  0  0  0  0  0
  149.4472  132.3878  154.1370 C   0  0  0  0  0  0  0  0  0  0  0  0
  148.3380  132.6890  153.2984 C   0  0  0  0  0  0  0  0  0  0  0  0
  147.6975  133.7845  153.6745 N   0  0  0  0  0  0  0  0  0  0  0  0
  151.3608  141.6054  157.3560 C   0  0  0  0  0  0  0  0  0  0  0  0
  150.8545  142.8787  157.6709 C   0  0  0  0  0  0  0  0  0  0  0  0
  151.2448  143.5055  158.8730 C   0  0  0  0  0  0  0  0  0  0  0  0
  150.6892  144.8786  159.2071 C   0  0  0  0  0  0  0  0  0  0  0  0
  153.2853  142.8730  161.5955 H   0  0  0  0  0  0  0  0  0  0  0  0
  151.7227  143.6814  161.6954 H   0  0  0  0  0  0  0  0  0  0  0  0
  153.0721  144.4565  160.8517 H   0  0  0  0  0  0  0  0  0  0  0  0
  153.3329  141.0687  160.0900 H   0  0  0  0  0  0  0  0  0  0  0  0
  151.9997  138.8172  155.9051 H   0  0  0  0  0  0  0  0  0  0  0  0
  149.8216  141.8887  155.2109 H   0  0  0  0  0  0  0  0  0  0  0  0
  151.0050  141.0373  154.2454 H   0  0  0  0  0  0  0  0  0  0  0  0
  148.7774  139.6324  155.8070 H   0  0  0  0  0  0  0  0  0  0  0  0
  148.9132  140.1128  153.0316 H   0  0  0  0  0  0  0  0  0  0  0  0
  150.6140  138.5882  153.5834 H   0  0  0  0  0  0  0  0  0  0  0  0
  150.7881  138.2158  155.2892 H   0  0  0  0  0  0  0  0  0  0  0  0
  148.1756  137.7422  154.2553 H   0  0  0  0  0  0  0  0  0  0  0  0
  150.0267  135.9638  155.6855 H   0  0  0  0  0  0  0  0  0  0  0  0
  148.9072  137.0652  156.4656 H   0  0  0  0  0  0  0  0  0  0  0  0
  147.6024  135.1307  156.4495 H   0  0  0  0  0  0  0  0  0  0  0  0
  147.0725  135.8341  154.9390 H   0  0  0  0  0  0  0  0  0  0  0  0
  150.0868  133.5810  155.9040 H   0  0  0  0  0  0  0  0  0  0  0  0
  150.1422  131.5638  154.0691 H   0  0  0  0  0  0  0  0  0  0  0  0
  147.9828  132.1484  152.4335 H   0  0  0  0  0  0  0  0  0  0  0  0
  150.1701  143.3681  156.9940 H   0  0  0  0  0  0  0  0  0  0  0  0
  149.9832  145.2175  158.4484 H   0  0  0  0  0  0  0  0  0  0  0  0
  151.4941  145.6114  159.2682 H   0  0  0  0  0  0  0  0  0  0  0  0
  150.1657  144.8576  160.1631 H   0  0  0  0  0  0  0  0  0  0  0  0
  149.3455  136.8118  153.5850 H   0  0  0  0  0  0  0  0  0  0  0  0
  1  2  1  0  0  0  0
  1 24  1  0  0  0  0
  1 25  1  0  0  0  0
  1 26  1  0  0  0  0
  2 22  1  0  0  0  0
  2  3  2  0  0  0  0
  3  4  1  0  0  0  0
  3 27  1  0  0  0  0
  4 20  2  0  0  0  0
  4  5  1  0  0  0  0
  5  6  2  0  0  0  0
  6  7  1  0  0  0  0
  6 28  1  0  0  0  0
  7  8  1  0  0  0  0
  7 20  1  0  0  0  0
  8  9  1  0  0  0  0
  8 29  1  0  0  0  0
  8 30  1  0  0  0  0
  9 10  1  0  0  0  0
  9 11  1  0  0  0  0
  9 31  1  0  0  0  0
 10 32  1  0  0  0  0
 11 12  1  0  0  0  0
 11 33  1  0  0  0  0
 11 34  1  0  0  0  0
 12 13  1  0  0  0  0
 12 35  1  0  0  0  0
 12 47  1  0  0  0  0
 13 14  1  0  0  0  0
 13 36  1  0  0  0  0
 13 37  1  0  0  0  0
 14 15  1  0  0  0  0
 14 38  1  0  0  0  0
 14 39  1  0  0  0  0
 15 19  1  0  0  0  0
 15 16  1  0  0  0  0
 16 17  2  0  0  0  0
 16 40  1  0  0  0  0
 17 18  1  0  0  0  0
 17 41  1  0  0  0  0
 18 19  2  0  0  0  0
 18 42  1  0  0  0  0
 20 21  1  0  0  0  0
 21 22  2  0  0  0  0
 21 43  1  0  0  0  0
 22 23  1  0  0  0  0
 23 44  1  0  0  0  0
 23 45  1  0  0  0  0
 23 46  1  0  0  0  0
M  CHG  1  12   1
M  END
> <s_m_source_file>
AV-unprocessed.smi

> <i_m_source_file_index>
766

> <i_lp_mmshare_version>
43012

> <i_f3d_flags>
0

> <s_epik_input>
W0NIM11jKFtjSF0xKWMoW0NIM10pW2NIXWMoYzEyKW4oW2NIXW4yKVtDSDJdW0NASF0oW09IXSlbQ0gyXVtOSF1bQ0gyXVtDSDJdbjNbY0hdW2NIXVtjSF1uMw==

> <s_epik_cmdline>
J2VwaWtfcHl0aG9uJywgJy1waCcsICc3LjAnLCAnLXRuJywgJzgnLCAnLW1hJywgJzIwMCcsICctbWV0YWxfYmluZGluZycsICctaW1hZScsICc8aW5maWxlLm1hZT4nLCAnLW9tYWUnLCAnPG91dGZpbGUubWFlPic=

> <r_lp_tautomer_probability>
1

> <r_epik_Ionization_Penalty>
0.127222

> <r_epik_Ionization_Penalty_Charging>
0.043815

> <r_epik_Ionization_Penalty_Neutral>
0.0834074

> <r_epik_State_Penalty>
0.115563

> <r_epik_Charging_Adjusted_Penalty>
0.159378

> <i_epik_Tot_Q>
1

> <i_epik_Tot_abs_Q>
1

> <r_epik_Metal_State_Penalty>
0.102594

> <b_epik_Metal_Only>
0

> <s_lp_Force_Field>
OPLS_2005

> <r_lp_Energy>
11.1584

> <b_lp_Chiralities_Consistent>
1

> <s_lp_Variant>
AV-unprocessed.smi:766-2

> <Gold.Version>
5.8.1

> <Gold.Id.Protein>
6NUR|6NUR_protein|mol2

> <Gold.PLP.Fitness>
59.4183

> <Gold.PLP.PLP>
-45.3534

> <Gold.PLP.part.hbond>
-3.0000

> <Gold.PLP.part.metal>
0.0000

> <Gold.PLP.part.buried>
-4.5182

> <Gold.PLP.part.nonpolar>
-37.4247

> <Gold.PLP.part.repulsive>
0.6635

> <Gold.PLP.ligand.clash>
0.0000

> <Gold.PLP.ligand.torsion>
0.5637

> <Gold.PLP.Chemscore.Hbond>
4.0000

> <Gold.PLP.Chemscore.CHOScore>
1.0000

> <Gold.PLP.Chemscore.Metal>
0.0000

> <Gold.Chemscore.Hbonds>
donor molecule, donor type, donor heavy atom, donor atom, acceptor molecule, acceptor atom, score
      L1  H    10    32       P1  7957  1.00
      L1  H    12    47       P1  7948  2.00
      P1  H  7997  8009       L1     5  0.84
      L1  C    18    42       P1 10747  0.59

> <Gold.PLP.Chemscore.Internal.Correction>
0.1924

> <Gold.Rescore>
     Score         DG    S(hbond)    S(metal)    S(lipo)     H(rot)  DE(clash)    DE(int)     intcor
     17.37     -19.42       2.12        0.00     122.87       2.93       1.31       0.74       ----

> <Gold.Chemscore.Fitness>
17.3713

> <Gold.Chemscore.DG>
-19.4192

> <Gold.Chemscore.ZeroCoef>
-5.4800

> <Gold.Chemscore.Hbond>
2.1176

> <Gold.Chemscore.Metal>
0.0000

> <Gold.Chemscore.Lipo>
122.8718

> <Gold.Chemscore.Internal_Hbond>
0.0000

> <Gold.Chemscore.DEClash>
1.3123

> <Gold.Chemscore.DEInternal>
0.7356

> <Gold.Chemscore.Rot>
2.9335

> <Gold.Chemscore.Internal.Correction>
   9.000000E+99

> <Gold.Chemscore.Hbonds>
donor molecule, donor type, donor heavy atom, donor atom, acceptor molecule, acceptor atom, score
      L1  H    10    32       P1  7957  0.97
      L1  H    12    47       P1  7948  0.90
      P1  H  7997  8009       L1     5  0.10

> <Gold.Chemscore.Hbond.Weighted>
-7.0729

> <Gold.Chemscore.Metal.Weighted>
-0.0000

> <Gold.Chemscore.Lipo.Weighted>
-14.3760

> <Gold.Chemscore.Internal_Hbond.Weighted>
0.0000

> <Gold.Chemscore.DEClash.Weighted>
1.3123

> <Gold.Chemscore.DEInternal.Weighted>
0.7356

> <Gold.Chemscore.Rot.Weighted>
7.5097

> <Gold.Chemscore.Internal.Correction.Weighted>
   9.000000E+99

> <Gold.Protein.RotatedTorsions>
[ 6907 6896 6895 6894 ] final   26.09 input  -60.11 | X-H torsion
[ 7974 7965 7964 7962 ] final   49.86 input  175.53 | X-H torsion
[ 8008 7997 7996 7995 ] final  155.84 input   59.86 | X-H torsion
[ 10167 10162 10161 10158 ] final  127.23 input  -65.29 | X-H torsion
[ 10718 10713 10712 10709 ] final  125.72 input   66.30 | X-H torsion
[ 10763 10752 10751 10750 ] final   51.95 input  -60.55 | X-H torsion
[ 11005 11000 10999 10996 ] final  -91.98 input  -57.11 | X-H torsion

> <Gold.Protein.ActiveResidues>
 VAL166  LYS551  ARG553  GLY616  TRP617  ASP618  TYR619  PRO620  LYS621  CYS622 
 ASP623  PHE694  ASN695  SER759  ASP760  ASP761  ALA762  ILE779  LEU786  VAL792 
 PHE793  MET794  SER795  GLU796  ALA797  LYS798  CYS799  TRP800  GLU811  SER814 

> <Gold.Protein.RotatedAtoms>
  151.9822  135.0022  160.0557 H   0  0  0  0  0  0  0  0  0  0  0  0  # atno 6907 bound_to 6896
  152.1685  133.4623  159.4905 H   0  0  0  0  0  0  0  0  0  0  0  0  # atno 6908 bound_to 6896
  150.6898  134.1900  159.4324 H   0  0  0  0  0  0  0  0  0  0  0  0  # atno 6909 bound_to 6896
  146.0068  139.4499  142.9981 H   0  0  0  0  0  0  0  0  0  0  0  0  # atno 7974 bound_to 7965
  156.2456  140.1929  156.6863 H   0  0  0  0  0  0  0  0  0  0  0  0  # atno 8008 bound_to 7997
  154.6285  140.0599  156.9729 H   0  0  0  0  0  0  0  0  0  0  0  0  # atno 8009 bound_to 7997
  155.1749  140.3271  155.4388 H   0  0  0  0  0  0  0  0  0  0  0  0  # atno 8010 bound_to 7997
  139.5589  144.6868  151.4100 H   0  0  0  0  0  0  0  0  0  0  0  0  # atno 10167 bound_to 10162
  157.5479  131.1095  150.8750 H   0  0  0  0  0  0  0  0  0  0  0  0  # atno 10718 bound_to 10713
  152.9787  135.5829  154.4499 H   0  0  0  0  0  0  0  0  0  0  0  0  # atno 10763 bound_to 10752
  154.4089  135.2770  155.2051 H   0  0  0  0  0  0  0  0  0  0  0  0  # atno 10764 bound_to 10752
  154.3850  135.6138  153.5865 H   0  0  0  0  0  0  0  0  0  0  0  0  # atno 10765 bound_to 10752
  141.1532  133.7791  156.9955 H   0  0  0  0  0  0  0  0  0  0  0  0  # atno 11005 bound_to 11000
  145.7403  141.0010  143.1304 LP  0  0  0  0  0  0  0  0  0  0  0  0  # atno 17320 bound_to 7965
  144.6938  139.9091  143.7462 LP  0  0  0  0  0  0  0  0  0  0  0  0  # atno 17321 bound_to 7965
  140.6866  143.7958  150.7195 LP  0  0  0  0  0  0  0  0  0  0  0  0  # atno 17342 bound_to 10162
  140.1428  143.4426  152.2182 LP  0  0  0  0  0  0  0  0  0  0  0  0  # atno 17343 bound_to 10162
  156.9284  130.5340  149.5279 LP  0  0  0  0  0  0  0  0  0  0  0  0  # atno 17370 bound_to 10713
  156.0552  130.5614  150.9075 LP  0  0  0  0  0  0  0  0  0  0  0  0  # atno 17371 bound_to 10713
  140.0974  134.9556  157.1871 LP  0  0  0  0  0  0  0  0  0  0  0  0  # atno 17394 bound_to 11000
  140.3364  134.2753  155.7219 LP  0  0  0  0  0  0  0  0  0  0  0  0  # atno 17395 bound_to 11000

$$$$
