AV-unprocessed.smi:1830|AV-procd|sdf|7451|dock5
  -GOLD-   22720 9143D 1   1.00000     0.00000
 Structure written by MMmdl.
 54 57  0  0  0  0  0  0  0  0  3 V2000
  150.3694  134.3279  155.6929 O   0  0  0  0  0  0  0  0  0  0  0  0
  149.9583  134.7540  154.6143 C   0  0  0  0  0  0  0  0  0  0  0  0
  150.0938  136.0289  154.2240 N   0  0  0  0  0  0  0  0  0  0  0  0
  150.6814  137.0914  155.0345 C   0  0  0  0  0  0  0  0  0  0  0  0
  150.2445  138.5004  154.5902 C   0  0  1  0  0  0  0  0  0  0  0  0
  148.7444  138.5796  154.2096 C   0  0  0  0  0  0  0  0  0  0  0  0
  148.4034  139.9907  153.9507 N   0  3  1  0  0  0  0  0  0  0  0  0
  147.0205  140.3161  153.5614 C   0  0  0  0  0  0  0  0  0  0  0  0
  146.8408  141.7980  153.9482 C   0  0  0  0  0  0  0  0  0  0  0  0
  148.1145  142.1860  154.7216 C   0  0  0  0  0  0  0  0  0  0  0  0
  148.7087  140.8351  155.1077 C   0  0  2  0  0  0  0  0  0  0  0  0
  150.2129  140.7601  155.3960 C   0  0  0  0  0  0  0  0  0  0  0  0
  150.5277  139.3943  155.6721 O   0  0  0  0  0  0  0  0  0  0  0  0
  149.3062  134.0266  153.6915 N   0  0  0  0  0  0  0  0  0  0  0  0
  148.8989  132.6641  153.7746 C   0  0  0  0  0  0  0  0  0  0  0  0
  149.5185  131.7641  154.6797 C   0  0  0  0  0  0  0  0  0  0  0  0
  149.0783  130.4296  154.7580 C   0  0  0  0  0  0  0  0  0  0  0  0
  148.0261  130.0111  153.9263 C   0  0  0  0  0  0  0  0  0  0  0  0
  147.4710  130.8844  153.0612 N   0  3  0  0  0  0  0  0  0  0  0  0
  147.8601  132.1772  152.9276 C   0  0  0  0  0  0  0  0  0  0  0  0
  147.1912  132.9689  151.9658 N   0  0  0  0  0  0  0  0  0  0  0  0
  146.5876  134.2412  152.3461 C   0  0  0  0  0  0  0  0  0  0  0  0
  145.6801  134.6151  151.1773 C   0  0  0  0  0  0  0  0  0  0  0  0
  145.1709  133.2551  150.7097 C   0  0  0  0  0  0  0  0  0  0  0  0
  146.3557  132.3166  150.9625 C   0  0  0  0  0  0  0  0  0  0  0  0
  149.7273  136.2957  153.3219 H   0  0  0  0  0  0  0  0  0  0  0  0
  150.3913  136.9249  156.0724 H   0  0  0  0  0  0  0  0  0  0  0  0
  151.7693  137.0105  155.0058 H   0  0  0  0  0  0  0  0  0  0  0  0
  150.8481  138.8082  153.7344 H   0  0  0  0  0  0  0  0  0  0  0  0
  148.5371  137.9874  153.3177 H   0  0  0  0  0  0  0  0  0  0  0  0
  148.1206  138.1879  155.0147 H   0  0  0  0  0  0  0  0  0  0  0  0
  146.8596  140.1376  152.4980 H   0  0  0  0  0  0  0  0  0  0  0  0
  146.3196  139.6954  154.1216 H   0  0  0  0  0  0  0  0  0  0  0  0
  146.7118  142.4313  153.0699 H   0  0  0  0  0  0  0  0  0  0  0  0
  145.9548  141.9185  154.5725 H   0  0  0  0  0  0  0  0  0  0  0  0
  148.7985  142.7249  154.0643 H   0  0  0  0  0  0  0  0  0  0  0  0
  147.9090  142.8185  155.5857 H   0  0  0  0  0  0  0  0  0  0  0  0
  148.1613  140.4549  155.9731 H   0  0  0  0  0  0  0  0  0  0  0  0
  150.8025  141.1251  154.5535 H   0  0  0  0  0  0  0  0  0  0  0  0
  150.4683  141.3697  156.2627 H   0  0  0  0  0  0  0  0  0  0  0  0
  148.9514  134.5378  152.8968 H   0  0  0  0  0  0  0  0  0  0  0  0
  150.3326  132.0756  155.3164 H   0  0  0  0  0  0  0  0  0  0  0  0
  149.5403  129.7386  155.4480 H   0  0  0  0  0  0  0  0  0  0  0  0
  147.6196  129.0101  153.9197 H   0  0  0  0  0  0  0  0  0  0  0  0
  145.9892  134.1251  153.2505 H   0  0  0  0  0  0  0  0  0  0  0  0
  147.3454  135.0038  152.5292 H   0  0  0  0  0  0  0  0  0  0  0  0
  144.8794  135.2980  151.4618 H   0  0  0  0  0  0  0  0  0  0  0  0
  146.2640  135.0865  150.3854 H   0  0  0  0  0  0  0  0  0  0  0  0
  144.3231  132.9512  151.3252 H   0  0  0  0  0  0  0  0  0  0  0  0
  144.8457  133.2564  149.6690 H   0  0  0  0  0  0  0  0  0  0  0  0
  146.9364  132.1968  150.0476 H   0  0  0  0  0  0  0  0  0  0  0  0
  146.0180  131.3306  151.2850 H   0  0  0  0  0  0  0  0  0  0  0  0
  148.9962  140.3125  153.1988 H   0  0  0  0  0  0  0  0  0  0  0  0
  146.7157  130.5472  152.4641 H   0  0  0  0  0  0  0  0  0  0  0  0
  1  2  2  0  0  0  0
  2  3  1  0  0  0  0
  2 14  1  0  0  0  0
  3  4  1  0  0  0  0
  3 26  1  0  0  0  0
  4  5  1  0  0  0  0
  4 27  1  0  0  0  0
  4 28  1  0  0  0  0
  5 13  1  0  0  0  0
  5  6  1  0  0  0  0
  5 29  1  0  0  0  0
  6  7  1  0  0  0  0
  6 30  1  0  0  0  0
  6 31  1  0  0  0  0
  7 11  1  0  0  0  0
  7  8  1  0  0  0  0
  7 53  1  0  0  0  0
  8  9  1  0  0  0  0
  8 32  1  0  0  0  0
  8 33  1  0  0  0  0
  9 10  1  0  0  0  0
  9 34  1  0  0  0  0
  9 35  1  0  0  0  0
 10 11  1  0  0  0  0
 10 36  1  0  0  0  0
 10 37  1  0  0  0  0
 11 12  1  0  0  0  0
 11 38  1  0  0  0  0
 12 13  1  0  0  0  0
 12 39  1  0  0  0  0
 12 40  1  0  0  0  0
 14 15  1  0  0  0  0
 14 41  1  0  0  0  0
 15 20  1  0  0  0  0
 15 16  2  0  0  0  0
 16 17  1  0  0  0  0
 16 42  1  0  0  0  0
 17 18  2  0  0  0  0
 17 43  1  0  0  0  0
 18 19  1  0  0  0  0
 18 44  1  0  0  0  0
 19 20  2  0  0  0  0
 19 54  1  0  0  0  0
 20 21  1  0  0  0  0
 21 25  1  0  0  0  0
 21 22  1  0  0  0  0
 22 23  1  0  0  0  0
 22 45  1  0  0  0  0
 22 46  1  0  0  0  0
 23 24  1  0  0  0  0
 23 47  1  0  0  0  0
 23 48  1  0  0  0  0
 24 25  1  0  0  0  0
 24 49  1  0  0  0  0
 24 50  1  0  0  0  0
 25 51  1  0  0  0  0
 25 52  1  0  0  0  0
M  CHG  1   7   1
M  CHG  1  19   1
M  END
> <s_m_source_file>
AV-unprocessed.smi

> <i_m_source_file_index>
1830

> <i_lp_mmshare_version>
43012

> <i_f3d_flags>
0

> <s_epik_input>
W0NIMl0xW0NIMl1bQ0gyXVtDQEhdKE4xMilbQ0gyXU9bQ0BASF0oW0NIMl0yKVtDSDJdW05IXUMoPU8pW05IXWMzW2NIXVtjSF1bY0hdbmMzTjRbQ0gyXVtDSDJdW0NIMl1bQ0gyXTQ=

> <s_epik_cmdline>
J2VwaWtfcHl0aG9uJywgJy1waCcsICc3LjAnLCAnLXRuJywgJzgnLCAnLW1hJywgJzIwMCcsICctbWV0YWxfYmluZGluZycsICctaW1hZScsICc8aW5maWxlLm1hZT4nLCAnLW9tYWUnLCAnPG91dGZpbGUubWFlPic=

> <r_lp_tautomer_probability>
0.999994

> <r_epik_Ionization_Penalty>
1.29113

> <r_epik_Ionization_Penalty_Charging>
1.29111

> <r_epik_Ionization_Penalty_Neutral>
1.88144e-05

> <r_epik_State_Penalty>
1.32676

> <r_epik_Charging_Adjusted_Penalty>
2.61787

> <i_epik_Tot_Q>
2

> <i_epik_Tot_abs_Q>
2

> <r_epik_Metal_State_Penalty>
1.40425

> <b_epik_Metal_Only>
0

> <s_lp_Force_Field>
OPLS_2005

> <r_lp_Energy>
72.9797

> <b_lp_Chiralities_Consistent>
1

> <s_lp_Variant>
AV-unprocessed.smi:1830-20

> <Gold.Version>
5.8.1

> <Gold.Id.Protein>
6NUR|6NUR_protein|mol2

> <Gold.PLP.Fitness>
46.5290

> <Gold.PLP.PLP>
-39.6552

> <Gold.PLP.part.hbond>
-4.0000

> <Gold.PLP.part.metal>
0.0000

> <Gold.PLP.part.buried>
0.5598

> <Gold.PLP.part.nonpolar>
-36.3799

> <Gold.PLP.part.repulsive>
0.3783

> <Gold.PLP.ligand.clash>
0.0000

> <Gold.PLP.ligand.torsion>
0.6211

> <Gold.PLP.Chemscore.Hbond>
2.5736

> <Gold.PLP.Chemscore.CHOScore>
0.0000

> <Gold.PLP.Chemscore.Metal>
0.0000

> <Gold.Chemscore.Hbonds>
donor molecule, donor type, donor heavy atom, donor atom, acceptor molecule, acceptor atom, score
      L1  H     3    26       P1  7948  0.90
      L1  H     7    53       P1  7957  0.66
      L1  H    14    41       P1  7948  0.48

> <Gold.PLP.Chemscore.Internal.Correction>
0.3951

> <Gold.Rescore>
     Score         DG    S(hbond)    S(metal)    S(lipo)     H(rot)  DE(clash)    DE(int)     intcor
     14.40     -17.92       1.72        0.00      88.58       1.43       0.65       2.86       ----

> <Gold.Chemscore.Fitness>
14.4040

> <Gold.Chemscore.DG>
-17.9192

> <Gold.Chemscore.ZeroCoef>
-5.4800

> <Gold.Chemscore.Hbond>
1.7157

> <Gold.Chemscore.Metal>
0.0000

> <Gold.Chemscore.Lipo>
88.5793

> <Gold.Chemscore.Internal_Hbond>
0.0000

> <Gold.Chemscore.DEClash>
0.6547

> <Gold.Chemscore.DEInternal>
2.8605

> <Gold.Chemscore.Rot>
1.4278

> <Gold.Chemscore.Internal.Correction>
   9.000000E+99

> <Gold.Chemscore.Hbonds>
donor molecule, donor type, donor heavy atom, donor atom, acceptor molecule, acceptor atom, score
      L1  H     3    26       P1  7948  0.18
      L1  H     7    53       P1  7957  0.64
      L1  H    14    41       P1  7948  0.02

> <Gold.Chemscore.Hbond.Weighted>
-5.7305

> <Gold.Chemscore.Metal.Weighted>
-0.0000

> <Gold.Chemscore.Lipo.Weighted>
-10.3638

> <Gold.Chemscore.Internal_Hbond.Weighted>
0.0000

> <Gold.Chemscore.DEClash.Weighted>
0.6547

> <Gold.Chemscore.DEInternal.Weighted>
2.8605

> <Gold.Chemscore.Rot.Weighted>
3.6551

> <Gold.Chemscore.Internal.Correction.Weighted>
   9.000000E+99

> <Gold.Protein.RotatedTorsions>
[ 6907 6896 6895 6894 ] final  175.82 input  -60.11 | X-H torsion
[ 7974 7965 7964 7962 ] final   35.77 input  175.53 | X-H torsion
[ 8008 7997 7996 7995 ] final -158.83 input   59.86 | X-H torsion
[ 10167 10162 10161 10158 ] final -134.69 input  -65.29 | X-H torsion
[ 10718 10713 10712 10709 ] final   88.09 input   66.30 | X-H torsion
[ 10763 10752 10751 10750 ] final -119.96 input  -60.55 | X-H torsion
[ 11005 11000 10999 10996 ] final  118.89 input  -57.11 | X-H torsion

> <Gold.Protein.ActiveResidues>
 VAL166  LYS551  ARG553  GLY616  TRP617  ASP618  TYR619  PRO620  LYS621  CYS622 
 ASP623  PHE694  ASN695  SER759  ASP760  ASP761  ALA762  ILE779  LEU786  VAL792 
 PHE793  MET794  SER795  GLU796  ALA797  LYS798  CYS799  TRP800  GLU811  SER814 

> <Gold.Protein.RotatedAtoms>
  151.7301  133.3317  159.3337 H   0  0  0  0  0  0  0  0  0  0  0  0  # atno 6907 bound_to 6896
  150.7616  134.6371  159.6226 H   0  0  0  0  0  0  0  0  0  0  0  0  # atno 6908 bound_to 6896
  152.3597  134.6892  160.0262 H   0  0  0  0  0  0  0  0  0  0  0  0  # atno 6909 bound_to 6896
  146.1259  139.6100  142.9259 H   0  0  0  0  0  0  0  0  0  0  0  0  # atno 7974 bound_to 7965
  155.7535  140.0829  157.2190 H   0  0  0  0  0  0  0  0  0  0  0  0  # atno 8008 bound_to 7997
  154.4010  140.1556  156.2807 H   0  0  0  0  0  0  0  0  0  0  0  0  # atno 8009 bound_to 7997
  155.8908  140.3415  155.5957 H   0  0  0  0  0  0  0  0  0  0  0  0  # atno 8010 bound_to 7997
  139.8854  143.6787  152.2621 H   0  0  0  0  0  0  0  0  0  0  0  0  # atno 10167 bound_to 10162
  157.6946  131.0281  150.3222 H   0  0  0  0  0  0  0  0  0  0  0  0  # atno 10718 bound_to 10713
  154.8631  135.4220  154.2382 H   0  0  0  0  0  0  0  0  0  0  0  0  # atno 10763 bound_to 10752
  153.3353  135.6990  153.6918 H   0  0  0  0  0  0  0  0  0  0  0  0  # atno 10764 bound_to 10752
  153.5919  135.3553  155.2887 H   0  0  0  0  0  0  0  0  0  0  0  0  # atno 10765 bound_to 10752
  139.9126  134.9624  156.7572 H   0  0  0  0  0  0  0  0  0  0  0  0  # atno 11005 bound_to 11000
  145.5366  141.0423  143.2353 LP  0  0  0  0  0  0  0  0  0  0  0  0  # atno 17320 bound_to 7965
  144.7642  139.6885  143.7222 LP  0  0  0  0  0  0  0  0  0  0  0  0  # atno 17321 bound_to 7965
  139.7158  144.7612  151.1037 LP  0  0  0  0  0  0  0  0  0  0  0  0  # atno 17342 bound_to 10162
  140.7737  143.5272  150.9466 LP  0  0  0  0  0  0  0  0  0  0  0  0  # atno 17343 bound_to 10162
  156.3708  130.3863  149.7177 LP  0  0  0  0  0  0  0  0  0  0  0  0  # atno 17370 bound_to 10713
  156.4592  130.7943  151.2964 LP  0  0  0  0  0  0  0  0  0  0  0  0  # atno 17371 bound_to 10713
  140.6726  133.9546  155.7865 LP  0  0  0  0  0  0  0  0  0  0  0  0  # atno 17394 bound_to 11000
  141.0567  134.0406  157.3713 LP  0  0  0  0  0  0  0  0  0  0  0  0  # atno 17395 bound_to 11000

$$$$
