AV-unprocessed.smi:1385|AV-procd|sdf|5632|dock8
  -GOLD-   22720 5253D 1   1.00000     0.00000
 Structure written by MMmdl.
 38 39  0  0  0  0  0  0  0  0  3 V2000
  147.3270  135.7807  162.9530 C   0  0  0  0  0  0  0  0  0  0  0  0
  147.6679  135.9651  161.5140 C   0  0  0  0  0  0  0  0  0  0  0  0
  147.7378  137.1666  160.9354 N   0  0  0  0  0  0  0  0  0  0  0  0
  148.0729  137.0808  159.5919 N   0  0  0  0  0  0  0  0  0  0  0  0
  148.2615  135.8203  159.1764 C   0  0  0  0  0  0  0  0  0  0  0  0
  148.5888  135.5224  157.9081 N   0  5  0  0  0  0  0  0  0  0  0  0
  147.6524  135.0304  157.0664 C   0  0  0  0  0  0  0  0  0  0  0  0
  146.4789  134.7744  157.3458 O   0  0  0  0  0  0  0  0  0  0  0  0
  148.1061  134.8189  155.8226 N   0  0  0  0  0  0  0  0  0  0  0  0
  147.3306  134.2877  154.7059 C   0  0  2  0  0  0  0  0  0  0  0  0
  148.2130  133.4198  153.7897 C   0  0  0  0  0  0  0  0  0  0  0  0
  147.4352  132.9479  152.5510 C   0  0  0  0  0  0  0  0  0  0  0  0
  146.8748  134.1000  151.8002 N   0  3  1  0  0  0  0  0  0  0  0  0
  146.2406  133.6891  150.5212 C   0  0  0  0  0  0  0  0  0  0  0  0
  144.7119  133.6221  150.6033 C   0  0  0  0  0  0  0  0  0  0  0  0
  144.0299  134.1872  149.6046 N   0  0  0  0  0  0  0  0  0  0  0  0
  144.1516  133.0846  151.5570 O   0  0  0  0  0  0  0  0  0  0  0  0
  145.9819  134.9263  152.6562 C   0  0  0  0  0  0  0  0  0  0  0  0
  146.7298  135.4462  153.8943 C   0  0  0  0  0  0  0  0  0  0  0  0
  148.0147  134.6183  160.4429 S   0  0  0  0  0  0  0  0  0  0  0  0
  148.2287  135.8544  163.5611 H   0  0  0  0  0  0  0  0  0  0  0  0
  146.8759  134.8010  163.1112 H   0  0  0  0  0  0  0  0  0  0  0  0
  146.6206  136.5454  163.2773 H   0  0  0  0  0  0  0  0  0  0  0  0
  149.0734  135.0446  155.6422 H   0  0  0  0  0  0  0  0  0  0  0  0
  146.5111  133.6810  155.0965 H   0  0  0  0  0  0  0  0  0  0  0  0
  149.0891  133.9880  153.4729 H   0  0  0  0  0  0  0  0  0  0  0  0
  148.5889  132.5535  154.3354 H   0  0  0  0  0  0  0  0  0  0  0  0
  148.1052  132.3776  151.9067 H   0  0  0  0  0  0  0  0  0  0  0  0
  146.6280  132.2754  152.8458 H   0  0  0  0  0  0  0  0  0  0  0  0
  146.4783  134.4163  149.7438 H   0  0  0  0  0  0  0  0  0  0  0  0
  146.6496  132.7325  150.1914 H   0  0  0  0  0  0  0  0  0  0  0  0
  143.0202  134.1708  149.6045 H   0  0  0  0  0  0  0  0  0  0  0  0
  144.5292  134.6296  148.8460 H   0  0  0  0  0  0  0  0  0  0  0  0
  145.5965  135.7751  152.0908 H   0  0  0  0  0  0  0  0  0  0  0  0
  145.1183  134.3337  152.9624 H   0  0  0  0  0  0  0  0  0  0  0  0
  146.0498  136.0272  154.5186 H   0  0  0  0  0  0  0  0  0  0  0  0
  147.5201  136.1292  153.5785 H   0  0  0  0  0  0  0  0  0  0  0  0
  147.6613  134.6820  151.5479 H   0  0  0  0  0  0  0  0  0  0  0  0
  1  2  1  0  0  0  0
  1 21  1  0  0  0  0
  1 22  1  0  0  0  0
  1 23  1  0  0  0  0
  2 20  1  0  0  0  0
  2  3  2  0  0  0  0
  3  4  1  0  0  0  0
  4  5  2  0  0  0  0
  5  6  1  0  0  0  0
  5 20  1  0  0  0  0
  6  7  1  0  0  0  0
  7  8  2  0  0  0  0
  7  9  1  0  0  0  0
  9 10  1  0  0  0  0
  9 24  1  0  0  0  0
 10 19  1  0  0  0  0
 10 11  1  0  0  0  0
 10 25  1  0  0  0  0
 11 12  1  0  0  0  0
 11 26  1  0  0  0  0
 11 27  1  0  0  0  0
 12 13  1  0  0  0  0
 12 28  1  0  0  0  0
 12 29  1  0  0  0  0
 13 14  1  0  0  0  0
 13 18  1  0  0  0  0
 13 38  1  0  0  0  0
 14 15  1  0  0  0  0
 14 30  1  0  0  0  0
 14 31  1  0  0  0  0
 15 16  1  0  0  0  0
 15 17  2  0  0  0  0
 16 32  1  0  0  0  0
 16 33  1  0  0  0  0
 18 19  1  0  0  0  0
 18 34  1  0  0  0  0
 18 35  1  0  0  0  0
 19 36  1  0  0  0  0
 19 37  1  0  0  0  0
M  CHG  1   6  -1
M  CHG  1  13   1
M  END
> <s_m_source_file>
AV-unprocessed.smi

> <i_m_source_file_index>
1385

> <i_lp_mmshare_version>
43012

> <i_f3d_flags>
0

> <s_epik_input>
W0NIM11jMW5uYyhzMSlbTkhdQyg9TylbTkhdW0NIXTJbQ0gyXVtDSDJdTihbQ0gyXVtDSDJdMilbQ0gyXUMoPU8pW05IMl0=

> <s_epik_cmdline>
J2VwaWtfcHl0aG9uJywgJy1waCcsICc3LjAnLCAnLXRuJywgJzgnLCAnLW1hJywgJzIwMCcsICctbWV0YWxfYmluZGluZycsICctaW1hZScsICc8aW5maWxlLm1hZT4nLCAnLW9tYWUnLCAnPG91dGZpbGUubWFlPic=

> <r_lp_tautomer_probability>
1

> <r_epik_Ionization_Penalty>
3.90109

> <r_epik_Ionization_Penalty_Charging>
3.79141

> <r_epik_Ionization_Penalty_Neutral>
0.109679

> <r_epik_State_Penalty>
3.87237

> <r_epik_Charging_Adjusted_Penalty>
7.66378

> <i_epik_Tot_Q>
0

> <i_epik_Tot_abs_Q>
2

> <r_epik_Metal_State_Penalty>
1.33354

> <b_epik_Metal_Only>
1

> <s_lp_Force_Field>
OPLS_2005

> <r_lp_Energy>
4.67367

> <b_lp_Chiralities_Consistent>
1

> <s_lp_Variant>
AV-unprocessed.smi:1385-5

> <Gold.Version>
5.8.1

> <Gold.Id.Protein>
6NUR|6NUR_protein|mol2

> <Gold.PLP.Fitness>
40.6198

> <Gold.PLP.PLP>
-27.2865

> <Gold.PLP.part.hbond>
-5.2445

> <Gold.PLP.part.metal>
0.0000

> <Gold.PLP.part.buried>
-2.0595

> <Gold.PLP.part.nonpolar>
-19.3689

> <Gold.PLP.part.repulsive>
0.2691

> <Gold.PLP.ligand.clash>
0.2267

> <Gold.PLP.ligand.torsion>
1.7565

> <Gold.PLP.Chemscore.Hbond>
5.6704

> <Gold.PLP.Chemscore.CHOScore>
0.0000

> <Gold.PLP.Chemscore.Metal>
0.0000

> <Gold.Chemscore.Hbonds>
donor molecule, donor type, donor heavy atom, donor atom, acceptor molecule, acceptor atom, score
      L1  H    13    38       P1  7948  2.00
      L1  H    16    32       P1 10186  1.00
      L1  H    16    33       P1  7921  1.00
      P1  H  6931  6943       L1     3  0.90
      P1  H  6934  6947       L1     3  0.75

> <Gold.PLP.Chemscore.Internal.Correction>
0.0619

> <Gold.Rescore>
     Score         DG    S(hbond)    S(metal)    S(lipo)     H(rot)  DE(clash)    DE(int)     intcor
     13.70     -16.89       3.25        0.00      49.41       2.04       0.11       3.09       ----

> <Gold.Chemscore.Fitness>
13.6950

> <Gold.Chemscore.DG>
-16.8882

> <Gold.Chemscore.ZeroCoef>
-5.4800

> <Gold.Chemscore.Hbond>
3.2496

> <Gold.Chemscore.Metal>
0.0000

> <Gold.Chemscore.Lipo>
49.4066

> <Gold.Chemscore.Internal_Hbond>
0.0000

> <Gold.Chemscore.DEClash>
0.1056

> <Gold.Chemscore.DEInternal>
3.0876

> <Gold.Chemscore.Rot>
2.0415

> <Gold.Chemscore.Internal.Correction>
   9.000000E+99

> <Gold.Chemscore.Hbonds>
donor molecule, donor type, donor heavy atom, donor atom, acceptor molecule, acceptor atom, score
      L1  H    13    38       P1  7948  0.24
      L1  H    16    32       P1 10186  0.93
      L1  H    16    33       P1  7921  0.92
      P1  H  6931  6943       L1     3  0.48
      P1  H  6934  6947       L1     3  0.13

> <Gold.Chemscore.Hbond.Weighted>
-10.8538

> <Gold.Chemscore.Metal.Weighted>
-0.0000

> <Gold.Chemscore.Lipo.Weighted>
-5.7806

> <Gold.Chemscore.Internal_Hbond.Weighted>
0.0000

> <Gold.Chemscore.DEClash.Weighted>
0.1056

> <Gold.Chemscore.DEInternal.Weighted>
3.0876

> <Gold.Chemscore.Rot.Weighted>
5.2262

> <Gold.Chemscore.Internal.Correction.Weighted>
   9.000000E+99

> <Gold.Protein.RotatedTorsions>
[ 6907 6896 6895 6894 ] final   17.80 input  -60.11 | X-H torsion
[ 7974 7965 7964 7962 ] final   12.92 input  175.53 | X-H torsion
[ 8008 7997 7996 7995 ] final   43.87 input   59.86 | X-H torsion
[ 10167 10162 10161 10158 ] final   -1.30 input  -65.29 | X-H torsion
[ 10718 10713 10712 10709 ] final  -12.21 input   66.30 | X-H torsion
[ 10763 10752 10751 10750 ] final   73.33 input  -60.55 | X-H torsion
[ 11005 11000 10999 10996 ] final  157.58 input  -57.11 | X-H torsion

> <Gold.Protein.ActiveResidues>
 VAL166  LYS551  ARG553  GLY616  TRP617  ASP618  TYR619  PRO620  LYS621  CYS622 
 ASP623  PHE694  ASN695  SER759  ASP760  ASP761  ALA762  ILE779  LEU786  VAL792 
 PHE793  MET794  SER795  GLU796  ALA797  LYS798  CYS799  TRP800  GLU811  SER814 

> <Gold.Protein.RotatedAtoms>
  151.8552  135.0543  160.0463 H   0  0  0  0  0  0  0  0  0  0  0  0  # atno 6907 bound_to 6896
  152.2705  133.5374  159.5445 H   0  0  0  0  0  0  0  0  0  0  0  0  # atno 6908 bound_to 6896
  150.7150  134.0620  159.3877 H   0  0  0  0  0  0  0  0  0  0  0  0  # atno 6909 bound_to 6896
  146.2341  139.9264  142.8502 H   0  0  0  0  0  0  0  0  0  0  0  0  # atno 7974 bound_to 7965
  155.3099  140.3390  155.4244 H   0  0  0  0  0  0  0  0  0  0  0  0  # atno 8008 bound_to 7997
  156.1960  140.1715  156.8034 H   0  0  0  0  0  0  0  0  0  0  0  0  # atno 8009 bound_to 7997
  154.5500  140.0707  156.8636 H   0  0  0  0  0  0  0  0  0  0  0  0  # atno 8010 bound_to 7997
  140.6804  143.6792  150.8120 H   0  0  0  0  0  0  0  0  0  0  0  0  # atno 10167 bound_to 10162
  156.6479  130.4946  149.6072 H   0  0  0  0  0  0  0  0  0  0  0  0  # atno 10718 bound_to 10713
  153.0515  135.5067  154.7878 H   0  0  0  0  0  0  0  0  0  0  0  0  # atno 10763 bound_to 10752
  154.6736  135.2957  154.9710 H   0  0  0  0  0  0  0  0  0  0  0  0  # atno 10764 bound_to 10752
  154.0520  135.6702  153.4854 H   0  0  0  0  0  0  0  0  0  0  0  0  # atno 10765 bound_to 10752
  140.1783  134.8494  157.2773 H   0  0  0  0  0  0  0  0  0  0  0  0  # atno 11005 bound_to 11000
  145.2086  140.9886  143.4114 LP  0  0  0  0  0  0  0  0  0  0  0  0  # atno 17320 bound_to 7965
  144.9711  139.3879  143.6308 LP  0  0  0  0  0  0  0  0  0  0  0  0  # atno 17321 bound_to 7965
  140.0491  143.5267  152.2682 LP  0  0  0  0  0  0  0  0  0  0  0  0  # atno 17342 bound_to 10162
  139.6123  144.7611  151.2924 LP  0  0  0  0  0  0  0  0  0  0  0  0  # atno 17343 bound_to 10162
  156.2107  130.6677  151.1267 LP  0  0  0  0  0  0  0  0  0  0  0  0  # atno 17370 bound_to 10713
  157.7150  131.0714  150.6360 LP  0  0  0  0  0  0  0  0  0  0  0  0  # atno 17371 bound_to 10713
  140.2297  134.3924  155.7527 LP  0  0  0  0  0  0  0  0  0  0  0  0  # atno 17394 bound_to 11000
  141.2221  133.7208  156.8620 LP  0  0  0  0  0  0  0  0  0  0  0  0  # atno 17395 bound_to 11000

$$$$
