AV-unprocessed.smi:1049|AV-procd|sdf|4611|dock7
  -GOLD-   22720 3113D 1   1.00000     0.00000
 Structure written by MMmdl.
 41 42  0  0  0  0  0  0  0  0  2 V2000
  146.5885  142.5651  153.5701 C   0  0  0  0  0  0  0  0  0  0  0  0
  147.3576  142.2020  154.8480 C   0  0  1  0  0  0  0  0  0  0  0  0
  146.4987  142.4326  156.1107 C   0  0  0  0  0  0  0  0  0  0  0  0
  147.2128  141.9543  157.3889 C   0  0  0  0  0  0  0  0  0  0  0  0
  147.7297  140.5146  157.2226 C   0  0  0  0  0  0  0  0  0  0  0  0
  148.6131  140.4629  156.0450 N   0  0  0  0  0  0  0  0  0  0  0  0
  149.9654  140.3431  156.0576 C   0  0  0  0  0  0  0  0  0  0  0  0
  150.6321  140.0993  155.0508 O   0  0  0  0  0  0  0  0  0  0  0  0
  150.5358  140.4985  157.2649 N   0  0  0  0  0  0  0  0  0  0  0  0
  151.9664  140.4170  157.5347 C   0  0  0  0  0  0  0  0  0  0  0  0
  152.2909  140.8349  158.9798 C   0  0  0  0  0  0  0  0  0  0  0  0
  152.2291  142.3166  159.2080 C   0  0  0  0  0  0  0  0  0  0  0  0
  151.9986  143.2407  158.2666 N   0  3  0  0  0  0  0  0  0  0  0  0
  152.0354  144.4964  158.8073 C   0  0  0  0  0  0  0  0  0  0  0  0
  152.3176  144.3351  160.1380 C   0  0  0  0  0  0  0  0  0  0  0  0
  152.4458  142.9866  160.3540 N   0  0  0  0  0  0  0  0  0  0  0  0
  152.7541  142.3449  161.6361 C   0  0  0  0  0  0  0  0  0  0  0  0
  153.8172  141.5506  161.5118 F   0  0  0  0  0  0  0  0  0  0  0  0
  152.9650  143.2625  162.5803 F   0  0  0  0  0  0  0  0  0  0  0  0
  147.8686  140.7456  154.8102 C   0  0  0  0  0  0  0  0  0  0  0  0
  145.7034  141.9397  153.4486 H   0  0  0  0  0  0  0  0  0  0  0  0
  147.2129  142.4340  152.6861 H   0  0  0  0  0  0  0  0  0  0  0  0
  146.2615  143.6050  153.5913 H   0  0  0  0  0  0  0  0  0  0  0  0
  148.2261  142.8602  154.9070 H   0  0  0  0  0  0  0  0  0  0  0  0
  146.2379  143.4872  156.2039 H   0  0  0  0  0  0  0  0  0  0  0  0
  145.5570  141.8910  156.0096 H   0  0  0  0  0  0  0  0  0  0  0  0
  148.0484  142.6189  157.6127 H   0  0  0  0  0  0  0  0  0  0  0  0
  146.5327  142.0138  158.2391 H   0  0  0  0  0  0  0  0  0  0  0  0
  148.2008  140.1815  158.1469 H   0  0  0  0  0  0  0  0  0  0  0  0
  146.8905  139.8346  157.0686 H   0  0  0  0  0  0  0  0  0  0  0  0
  149.9316  140.6940  158.0501 H   0  0  0  0  0  0  0  0  0  0  0  0
  152.3222  139.4052  157.3326 H   0  0  0  0  0  0  0  0  0  0  0  0
  152.4808  141.0743  156.8333 H   0  0  0  0  0  0  0  0  0  0  0  0
  151.5925  140.3608  159.6685 H   0  0  0  0  0  0  0  0  0  0  0  0
  153.2964  140.5225  159.2637 H   0  0  0  0  0  0  0  0  0  0  0  0
  151.8663  145.3868  158.2193 H   0  0  0  0  0  0  0  0  0  0  0  0
  152.4394  145.0633  160.9269 H   0  0  0  0  0  0  0  0  0  0  0  0
  151.9088  141.7305  161.9484 H   0  0  0  0  0  0  0  0  0  0  0  0
  147.0295  140.0528  154.7284 H   0  0  0  0  0  0  0  0  0  0  0  0
  148.4698  140.5836  153.9143 H   0  0  0  0  0  0  0  0  0  0  0  0
  151.8222  143.0350  157.2911 H   0  0  0  0  0  0  0  0  0  0  0  0
  1  2  1  0  0  0  0
  1 21  1  0  0  0  0
  1 22  1  0  0  0  0
  1 23  1  0  0  0  0
  2 20  1  0  0  0  0
  2  3  1  0  0  0  0
  2 24  1  0  0  0  0
  3  4  1  0  0  0  0
  3 25  1  0  0  0  0
  3 26  1  0  0  0  0
  4  5  1  0  0  0  0
  4 27  1  0  0  0  0
  4 28  1  0  0  0  0
  5  6  1  0  0  0  0
  5 29  1  0  0  0  0
  5 30  1  0  0  0  0
  6  7  1  0  0  0  0
  6 20  1  0  0  0  0
  7  8  2  0  0  0  0
  7  9  1  0  0  0  0
  9 10  1  0  0  0  0
  9 31  1  0  0  0  0
 10 11  1  0  0  0  0
 10 32  1  0  0  0  0
 10 33  1  0  0  0  0
 11 12  1  0  0  0  0
 11 34  1  0  0  0  0
 11 35  1  0  0  0  0
 12 16  1  0  0  0  0
 12 13  2  0  0  0  0
 13 14  1  0  0  0  0
 13 41  1  0  0  0  0
 14 15  2  0  0  0  0
 14 36  1  0  0  0  0
 15 16  1  0  0  0  0
 15 37  1  0  0  0  0
 16 17  1  0  0  0  0
 17 18  1  0  0  0  0
 17 19  1  0  0  0  0
 17 38  1  0  0  0  0
 20 39  1  0  0  0  0
 20 40  1  0  0  0  0
M  CHG  1  13   1
M  END
> <s_m_source_file>
AV-unprocessed.smi

> <i_m_source_file_index>
1049

> <i_lp_mmshare_version>
43012

> <i_f3d_flags>
0

> <s_epik_input>
W0NIM11bQ0BASF0xW0NIMl1bQ0gyXVtDSDJdTihbQ0gyXTEpQyg9TylbTkhdW0NIMl1bQ0gyXWMybltjSF1bY0hdbjJbQ0hdKEYpRg==

> <s_epik_cmdline>
J2VwaWtfcHl0aG9uJywgJy1waCcsICc3LjAnLCAnLXRuJywgJzgnLCAnLW1hJywgJzIwMCcsICctbWV0YWxfYmluZGluZycsICctaW1hZScsICc8aW5maWxlLm1hZT4nLCAnLW9tYWUnLCAnPG91dGZpbGUubWFlPic=

> <r_lp_tautomer_probability>
1

> <r_epik_Ionization_Penalty>
1.09766

> <r_epik_Ionization_Penalty_Charging>
0

> <r_epik_Ionization_Penalty_Neutral>
1.09766

> <r_epik_State_Penalty>
1.15444

> <r_epik_Charging_Adjusted_Penalty>
1.15444

> <i_epik_Tot_Q>
1

> <i_epik_Tot_abs_Q>
1

> <r_epik_Metal_State_Penalty>
1.24204

> <b_epik_Metal_Only>
0

> <s_lp_Force_Field>
OPLS_2005

> <r_lp_Energy>
35.939

> <b_lp_Chiralities_Consistent>
1

> <s_lp_Variant>
AV-unprocessed.smi:1049-4

> <Gold.Version>
5.8.1

> <Gold.Id.Protein>
6NUR|6NUR_protein|mol2

> <Gold.PLP.Fitness>
46.2620

> <Gold.PLP.PLP>
-43.8872

> <Gold.PLP.part.hbond>
-1.0000

> <Gold.PLP.part.metal>
0.0000

> <Gold.PLP.part.buried>
-5.9053

> <Gold.PLP.part.nonpolar>
-36.1689

> <Gold.PLP.part.repulsive>
0.1188

> <Gold.PLP.ligand.clash>
0.1856

> <Gold.PLP.ligand.torsion>
0.2484

> <Gold.PLP.Chemscore.Hbond>
1.0000

> <Gold.PLP.Chemscore.CHOScore>
0.0000

> <Gold.PLP.Chemscore.Metal>
0.0000

> <Gold.Chemscore.Hbonds>
donor molecule, donor type, donor heavy atom, donor atom, acceptor molecule, acceptor atom, score
      P1  H  7989  7998       L1     8  1.00

> <Gold.PLP.Chemscore.Internal.Correction>
0.0573

> <Gold.Rescore>
     Score         DG    S(hbond)    S(metal)    S(lipo)     H(rot)  DE(clash)    DE(int)     intcor
     13.23     -13.47       0.99        0.00      75.12       1.61       0.03       0.22       ----

> <Gold.Chemscore.Fitness>
13.2254

> <Gold.Chemscore.DG>
-13.4737

> <Gold.Chemscore.ZeroCoef>
-5.4800

> <Gold.Chemscore.Hbond>
0.9921

> <Gold.Chemscore.Metal>
0.0000

> <Gold.Chemscore.Lipo>
75.1225

> <Gold.Chemscore.Internal_Hbond>
0.0000

> <Gold.Chemscore.DEClash>
0.0259

> <Gold.Chemscore.DEInternal>
0.2225

> <Gold.Chemscore.Rot>
1.6051

> <Gold.Chemscore.Internal.Correction>
   9.000000E+99

> <Gold.Chemscore.Hbonds>
donor molecule, donor type, donor heavy atom, donor atom, acceptor molecule, acceptor atom, score
      P1  H  7989  7998       L1     8  0.96

> <Gold.Chemscore.Hbond.Weighted>
-3.3135

> <Gold.Chemscore.Metal.Weighted>
-0.0000

> <Gold.Chemscore.Lipo.Weighted>
-8.7893

> <Gold.Chemscore.Internal_Hbond.Weighted>
0.0000

> <Gold.Chemscore.DEClash.Weighted>
0.0259

> <Gold.Chemscore.DEInternal.Weighted>
0.2225

> <Gold.Chemscore.Rot.Weighted>
4.1092

> <Gold.Chemscore.Internal.Correction.Weighted>
   9.000000E+99

> <Gold.Protein.RotatedTorsions>
[ 6907 6896 6895 6894 ] final   59.15 input  -60.11 | X-H torsion
[ 7974 7965 7964 7962 ] final  149.16 input  175.53 | X-H torsion
[ 8008 7997 7996 7995 ] final -109.74 input   59.86 | X-H torsion
[ 10167 10162 10161 10158 ] final  -96.19 input  -65.29 | X-H torsion
[ 10718 10713 10712 10709 ] final  141.27 input   66.30 | X-H torsion
[ 10763 10752 10751 10750 ] final   25.52 input  -60.55 | X-H torsion
[ 11005 11000 10999 10996 ] final  -66.21 input  -57.11 | X-H torsion

> <Gold.Protein.ActiveResidues>
 VAL166  LYS551  ARG553  GLY616  TRP617  ASP618  TYR619  PRO620  LYS621  CYS622 
 ASP623  PHE694  ASN695  SER759  ASP760  ASP761  ALA762  ILE779  LEU786  VAL792 
 PHE793  MET794  SER795  GLU796  ALA797  LYS798  CYS799  TRP800  GLU811  SER814 

> <Gold.Protein.RotatedAtoms>
  152.3888  134.6474  160.0115 H   0  0  0  0  0  0  0  0  0  0  0  0  # atno 6907 bound_to 6896
  151.6714  133.3308  159.3205 H   0  0  0  0  0  0  0  0  0  0  0  0  # atno 6908 bound_to 6896
  150.7809  134.6796  159.6481 H   0  0  0  0  0  0  0  0  0  0  0  0  # atno 6909 bound_to 6896
  144.8459  139.6246  143.5996 H   0  0  0  0  0  0  0  0  0  0  0  0  # atno 7974 bound_to 7965
  154.9640  140.0398  157.2203 H   0  0  0  0  0  0  0  0  0  0  0  0  # atno 8008 bound_to 7997
  154.7863  140.2827  155.6003 H   0  0  0  0  0  0  0  0  0  0  0  0  # atno 8009 bound_to 7997
  156.2943  140.2582  156.2700 H   0  0  0  0  0  0  0  0  0  0  0  0  # atno 8010 bound_to 7997
  140.2964  143.3190  152.0294 H   0  0  0  0  0  0  0  0  0  0  0  0  # atno 10167 bound_to 10162
  157.3938  131.1008  151.0620 H   0  0  0  0  0  0  0  0  0  0  0  0  # atno 10718 bound_to 10713
  153.0686  135.6581  154.0298 H   0  0  0  0  0  0  0  0  0  0  0  0  # atno 10763 bound_to 10752
  153.9949  135.2942  155.3410 H   0  0  0  0  0  0  0  0  0  0  0  0  # atno 10764 bound_to 10752
  154.7053  135.5228  153.8655 H   0  0  0  0  0  0  0  0  0  0  0  0  # atno 10765 bound_to 10752
  141.1476  133.6695  156.6105 H   0  0  0  0  0  0  0  0  0  0  0  0  # atno 11005 bound_to 11000
  146.2743  139.6714  142.9274 LP  0  0  0  0  0  0  0  0  0  0  0  0  # atno 17320 bound_to 7965
  145.4599  141.0432  143.2757 LP  0  0  0  0  0  0  0  0  0  0  0  0  # atno 17321 bound_to 7965
  139.4925  144.6488  151.6721 LP  0  0  0  0  0  0  0  0  0  0  0  0  # atno 17342 bound_to 10162
  140.5689  144.0143  150.6206 LP  0  0  0  0  0  0  0  0  0  0  0  0  # atno 17343 bound_to 10162
  157.1643  130.6239  149.5620 LP  0  0  0  0  0  0  0  0  0  0  0  0  # atno 17370 bound_to 10713
  155.9805  130.4806  150.6777 LP  0  0  0  0  0  0  0  0  0  0  0  0  # atno 17371 bound_to 10713
  140.3618  134.7681  157.4539 LP  0  0  0  0  0  0  0  0  0  0  0  0  # atno 17394 bound_to 11000
  140.0779  134.5772  155.8571 LP  0  0  0  0  0  0  0  0  0  0  0  0  # atno 17395 bound_to 11000

$$$$
