AV-unprocessed.smi:2941|AV-procd|sdf|11264|dock2
  -GOLD-   2272016153D 1   1.00000     0.00000
 Structure written by MMmdl.
 36 37  0  0  0  0  0  0  0  0  1 V2000
  147.5237  135.9502  162.0453 C   0  0  0  0  0  0  0  0  0  0  0  0
  147.4481  136.9994  161.0961 O   0  0  0  0  0  0  0  0  0  0  0  0
  147.8286  136.5846  159.7953 C   0  0  0  0  0  0  0  0  0  0  0  0
  149.3243  136.8758  159.6019 C   0  0  0  0  0  0  0  0  0  0  0  0
  149.7011  136.8430  158.1823 N   0  0  0  0  0  0  0  0  0  0  0  0
  150.0946  138.0634  157.5997 C   0  0  0  0  0  0  0  0  0  0  0  0
  150.4727  138.1536  156.3109 C   0  0  0  0  0  0  0  0  0  0  0  0
  150.8837  139.4570  155.7363 C   0  0  0  0  0  0  0  0  0  0  0  0
  151.0416  139.5936  154.5223 O   0  0  0  0  0  0  0  0  0  0  0  0
  151.1239  140.6024  156.6624 C   0  0  0  0  0  0  0  0  0  0  0  0
  152.0015  140.3974  157.7513 C   0  0  0  0  0  0  0  0  0  0  0  0
  152.2650  141.4330  158.6674 C   0  0  0  0  0  0  0  0  0  0  0  0
  153.1025  141.2184  159.7093 F   0  0  0  0  0  0  0  0  0  0  0  0
  151.6574  142.6903  158.5011 C   0  0  0  0  0  0  0  0  0  0  0  0
  150.7929  142.9126  157.4136 C   0  0  0  0  0  0  0  0  0  0  0  0
  150.5254  141.8808  156.4907 C   0  0  0  0  0  0  0  0  0  0  0  0
  149.7098  142.1626  155.4300 O   0  0  0  0  0  0  0  0  0  0  0  0
  150.4471  136.9422  155.5149 C   0  0  0  0  0  0  0  0  0  0  0  0
  150.0627  135.7732  156.0643 C   0  0  0  0  0  0  0  0  0  0  0  0
  150.0303  134.5708  155.2994 C   0  0  0  0  0  0  0  0  0  0  0  0
  149.9855  133.5851  154.6946 N   0  0  0  0  0  0  0  0  0  0  0  0
  149.6559  135.6744  157.4731 C   0  0  0  0  0  0  0  0  0  0  0  0
  149.2942  134.6149  157.9876 O   0  0  0  0  0  0  0  0  0  0  0  0
  147.2116  136.3176  163.0229 H   0  0  0  0  0  0  0  0  0  0  0  0
  148.5436  135.5751  162.1372 H   0  0  0  0  0  0  0  0  0  0  0  0
  146.8686  135.1220  161.7721 H   0  0  0  0  0  0  0  0  0  0  0  0
  147.6294  135.5189  159.6717 H   0  0  0  0  0  0  0  0  0  0  0  0
  147.2412  137.1196  159.0472 H   0  0  0  0  0  0  0  0  0  0  0  0
  149.5635  137.8495  160.0321 H   0  0  0  0  0  0  0  0  0  0  0  0
  149.9189  136.1617  160.1743 H   0  0  0  0  0  0  0  0  0  0  0  0
  150.0715  138.9106  158.2711 H   0  0  0  0  0  0  0  0  0  0  0  0
  152.4738  139.4364  157.8981 H   0  0  0  0  0  0  0  0  0  0  0  0
  151.8589  143.4860  159.2032 H   0  0  0  0  0  0  0  0  0  0  0  0
  150.3407  143.8852  157.2849 H   0  0  0  0  0  0  0  0  0  0  0  0
  149.6077  143.0895  155.2760 H   0  0  0  0  0  0  0  0  0  0  0  0
  150.7306  136.9660  154.4724 H   0  0  0  0  0  0  0  0  0  0  0  0
  1  2  1  0  0  0  0
  1 24  1  0  0  0  0
  1 25  1  0  0  0  0
  1 26  1  0  0  0  0
  2  3  1  0  0  0  0
  3  4  1  0  0  0  0
  3 27  1  0  0  0  0
  3 28  1  0  0  0  0
  4  5  1  0  0  0  0
  4 29  1  0  0  0  0
  4 30  1  0  0  0  0
  5 22  1  0  0  0  0
  5  6  1  0  0  0  0
  6  7  2  0  0  0  0
  6 31  1  0  0  0  0
  7  8  1  0  0  0  0
  7 18  1  0  0  0  0
  8  9  2  0  0  0  0
  8 10  1  0  0  0  0
 10 16  1  0  0  0  0
 10 11  2  0  0  0  0
 11 12  1  0  0  0  0
 11 32  1  0  0  0  0
 12 13  1  0  0  0  0
 12 14  2  0  0  0  0
 14 15  1  0  0  0  0
 14 33  1  0  0  0  0
 15 16  2  0  0  0  0
 15 34  1  0  0  0  0
 16 17  1  0  0  0  0
 17 35  1  0  0  0  0
 18 19  2  0  0  0  0
 18 36  1  0  0  0  0
 19 20  1  0  0  0  0
 19 22  1  0  0  0  0
 20 21  3  0  0  0  0
 22 23  2  0  0  0  0
M  END
> <s_m_source_file>
AV-unprocessed.smi

> <i_m_source_file_index>
2941

> <i_lp_mmshare_version>
43012

> <i_f3d_flags>
0

> <s_epik_input>
W0NIM11PW0NIMl1bQ0gyXW4xW2NIXWMoW2NIXWMoQyNOKWMxPU8pQyg9TyljMltjSF1jKEYpW2NIXVtjSF1jMltPSF0=

> <s_epik_cmdline>
J2VwaWtfcHl0aG9uJywgJy1waCcsICc3LjAnLCAnLXRuJywgJzgnLCAnLW1hJywgJzIwMCcsICctbWV0YWxfYmluZGluZycsICctaW1hZScsICc8aW5maWxlLm1hZT4nLCAnLW9tYWUnLCAnPG91dGZpbGUubWFlPic=

> <r_epik_Ionization_Penalty>
0.27579

> <r_epik_Ionization_Penalty_Charging>
5.62591e-11

> <r_epik_Ionization_Penalty_Neutral>
0.27579

> <r_epik_State_Penalty>
0.26814

> <r_epik_Charging_Adjusted_Penalty>
0.26814

> <i_epik_Tot_Q>
0

> <i_epik_Tot_abs_Q>
0

> <r_epik_Metal_State_Penalty>
0.26814

> <b_epik_Metal_Only>
0

> <s_lp_Force_Field>
OPLS_2005

> <r_lp_Energy>
22.041

> <b_lp_Chiralities_Consistent>
1

> <s_lp_Variant>
AV-unprocessed.smi:2941-1

> <Gold.Version>
5.8.1

> <Gold.Id.Protein>
6NUR|6NUR_protein|mol2

> <Gold.PLP.Fitness>
52.4471

> <Gold.PLP.PLP>
-38.6409

> <Gold.PLP.part.hbond>
-5.0000

> <Gold.PLP.part.metal>
0.0000

> <Gold.PLP.part.buried>
-6.4976

> <Gold.PLP.part.nonpolar>
-28.3612

> <Gold.PLP.part.repulsive>
0.2094

> <Gold.PLP.ligand.clash>
0.0000

> <Gold.PLP.ligand.torsion>
1.3191

> <Gold.PLP.Chemscore.Hbond>
4.8880

> <Gold.PLP.Chemscore.CHOScore>
0.0000

> <Gold.PLP.Chemscore.Metal>
0.0000

> <Gold.Chemscore.Hbonds>
donor molecule, donor type, donor heavy atom, donor atom, acceptor molecule, acceptor atom, score
      L1  H    17    35       P1  8028  1.00
      P1  H  6896  6909       L1    23  1.00
      P1  H  6931  6943       L1     2  0.55
      P1  H  6934  6947       L1     2  0.96
      P1  H  7989  7998       L1     9  1.00

> <Gold.PLP.Chemscore.Internal.Correction>
1.7803

> <Gold.Rescore>
     Score         DG    S(hbond)    S(metal)    S(lipo)     H(rot)  DE(clash)    DE(int)     intcor
     20.02     -22.01       3.79        0.00      77.59       2.04       0.27       1.72       ----

> <Gold.Chemscore.Fitness>
20.0188

> <Gold.Chemscore.DG>
-22.0098

> <Gold.Chemscore.ZeroCoef>
-5.4800

> <Gold.Chemscore.Hbond>
3.7909

> <Gold.Chemscore.Metal>
0.0000

> <Gold.Chemscore.Lipo>
77.5915

> <Gold.Chemscore.Internal_Hbond>
0.0000

> <Gold.Chemscore.DEClash>
0.2736

> <Gold.Chemscore.DEInternal>
1.7175

> <Gold.Chemscore.Rot>
2.0351

> <Gold.Chemscore.Internal.Correction>
   9.000000E+99

> <Gold.Chemscore.Hbonds>
donor molecule, donor type, donor heavy atom, donor atom, acceptor molecule, acceptor atom, score
      L1  H    17    35       P1  8028  0.97
      P1  H  6896  6909       L1    23  0.63
      P1  H  6931  6943       L1     2  0.07
      P1  H  6934  6947       L1     2  0.43
      P1  H  7989  7998       L1     9  1.00

> <Gold.Chemscore.Hbond.Weighted>
-12.6616

> <Gold.Chemscore.Metal.Weighted>
-0.0000

> <Gold.Chemscore.Lipo.Weighted>
-9.0782

> <Gold.Chemscore.Internal_Hbond.Weighted>
0.0000

> <Gold.Chemscore.DEClash.Weighted>
0.2736

> <Gold.Chemscore.DEInternal.Weighted>
1.7175

> <Gold.Chemscore.Rot.Weighted>
5.2099

> <Gold.Chemscore.Internal.Correction.Weighted>
   9.000000E+99

> <Gold.Protein.RotatedTorsions>
[ 6907 6896 6895 6894 ] final   19.66 input  -60.11 | X-H torsion
[ 7974 7965 7964 7962 ] final -155.20 input  175.53 | X-H torsion
[ 8008 7997 7996 7995 ] final  -15.24 input   59.86 | X-H torsion
[ 10167 10162 10161 10158 ] final  -43.97 input  -65.29 | X-H torsion
[ 10718 10713 10712 10709 ] final  -43.15 input   66.30 | X-H torsion
[ 10763 10752 10751 10750 ] final  140.24 input  -60.55 | X-H torsion
[ 11005 11000 10999 10996 ] final    3.25 input  -57.11 | X-H torsion

> <Gold.Protein.ActiveResidues>
 VAL166  LYS551  ARG553  GLY616  TRP617  ASP618  TYR619  PRO620  LYS621  CYS622 
 ASP623  PHE694  ASN695  SER759  ASP760  ASP761  ALA762  ILE779  LEU786  VAL792 
 PHE793  MET794  SER795  GLU796  ALA797  LYS798  CYS799  TRP800  GLU811  SER814 

> <Gold.Protein.RotatedAtoms>
  151.8844  135.0441  160.0491 H   0  0  0  0  0  0  0  0  0  0  0  0  # atno 6907 bound_to 6896
  152.2487  133.5192  159.5321 H   0  0  0  0  0  0  0  0  0  0  0  0  # atno 6908 bound_to 6896
  150.7076  134.0906  159.3973 H   0  0  0  0  0  0  0  0  0  0  0  0  # atno 6909 bound_to 6896
  144.7652  140.4282  143.5947 H   0  0  0  0  0  0  0  0  0  0  0  0  # atno 7974 bound_to 7965
  154.5146  140.2201  155.9091 H   0  0  0  0  0  0  0  0  0  0  0  0  # atno 8008 bound_to 7997
  156.1592  140.3145  155.8744 H   0  0  0  0  0  0  0  0  0  0  0  0  # atno 8009 bound_to 7997
  155.3785  140.0471  157.3035 H   0  0  0  0  0  0  0  0  0  0  0  0  # atno 8010 bound_to 7997
  140.6914  143.2954  151.3429 H   0  0  0  0  0  0  0  0  0  0  0  0  # atno 10167 bound_to 10162
  156.2520  130.4189  149.8639 H   0  0  0  0  0  0  0  0  0  0  0  0  # atno 10718 bound_to 10713
  153.9195  135.3002  155.3448 H   0  0  0  0  0  0  0  0  0  0  0  0  # atno 10763 bound_to 10752
  154.7583  135.4947  153.9419 H   0  0  0  0  0  0  0  0  0  0  0  0  # atno 10764 bound_to 10752
  153.1149  135.6768  153.9538 H   0  0  0  0  0  0  0  0  0  0  0  0  # atno 10765 bound_to 10752
  140.5953  133.9886  155.8107 H   0  0  0  0  0  0  0  0  0  0  0  0  # atno 11005 bound_to 11000
  145.6494  139.1562  143.2871 LP  0  0  0  0  0  0  0  0  0  0  0  0  # atno 17320 bound_to 7965
  146.1752  140.6584  142.9214 LP  0  0  0  0  0  0  0  0  0  0  0  0  # atno 17321 bound_to 7965
  139.6321  144.0701  152.2485 LP  0  0  0  0  0  0  0  0  0  0  0  0  # atno 17342 bound_to 10162
  140.0179  144.6175  150.7592 LP  0  0  0  0  0  0  0  0  0  0  0  0  # atno 17343 bound_to 10162
  156.6184  130.8616  151.3470 LP  0  0  0  0  0  0  0  0  0  0  0  0  # atno 17370 bound_to 10713
  157.7218  130.9568  150.1469 LP  0  0  0  0  0  0  0  0  0  0  0  0  # atno 17371 bound_to 10713
  141.0908  133.9919  157.3240 LP  0  0  0  0  0  0  0  0  0  0  0  0  # atno 17394 bound_to 11000
  139.9256  135.0201  156.8222 LP  0  0  0  0  0  0  0  0  0  0  0  0  # atno 17395 bound_to 11000

$$$$
