AV-unprocessed.smi:1386|AV-procd|sdf|5639|dock5
  -GOLD-   22720 5253D 1   1.00000     0.00000
 Structure written by MMmdl.
 35 36  0  0  0  0  0  0  0  0  1 V2000
  147.6891  141.8399  156.2781 C   0  0  0  0  0  0  0  0  0  0  0  0
  149.0740  141.1814  156.2280 C   0  0  1  0  0  0  0  0  0  0  0  0
  149.4797  140.8238  154.7835 C   0  0  0  0  0  0  0  0  0  0  0  0
  150.4437  139.7391  154.7266 N   0  0  0  0  0  0  0  0  0  0  0  0
  150.4038  138.6204  153.9048 C   0  0  0  0  0  0  0  0  0  0  0  0
  151.5146  137.8674  154.2120 C   0  0  0  0  0  0  0  0  0  0  0  0
  152.2535  138.5049  155.2058 N   0  0  0  0  0  0  0  0  0  0  0  0
  151.5612  139.6086  155.4547 C   0  0  0  0  0  0  0  0  0  0  0  0
  150.0585  142.0845  156.8235 N   0  0  0  0  0  0  0  0  0  0  0  0
  150.8335  141.8164  157.8897 C   0  0  0  0  0  0  0  0  0  0  0  0
  150.7152  140.7813  158.5470 O   0  0  0  0  0  0  0  0  0  0  0  0
  151.7462  142.7772  158.1812 N   0  0  0  0  0  0  0  0  0  0  0  0
  152.7875  142.6883  159.2181 C   0  0  0  0  0  0  0  0  0  0  0  0
  152.2585  143.3240  160.5148 C   0  0  0  0  0  0  0  0  0  0  0  0
  151.8989  145.0922  160.2753 S   0  0  0  0  0  0  0  0  0  0  0  0
  150.8960  145.0004  158.7586 C   0  0  0  0  0  0  0  0  0  0  0  0
  151.5964  144.1501  157.6846 C   0  0  0  0  0  0  0  0  0  0  0  0
  146.9268  141.1805  155.8620 H   0  0  0  0  0  0  0  0  0  0  0  0
  147.6697  142.7708  155.7103 H   0  0  0  0  0  0  0  0  0  0  0  0
  147.4005  142.0688  157.3044 H   0  0  0  0  0  0  0  0  0  0  0  0
  149.0114  140.2573  156.8050 H   0  0  0  0  0  0  0  0  0  0  0  0
  148.6024  140.5239  154.2092 H   0  0  0  0  0  0  0  0  0  0  0  0
  149.9010  141.6951  154.2794 H   0  0  0  0  0  0  0  0  0  0  0  0
  149.6054  138.4520  153.1971 H   0  0  0  0  0  0  0  0  0  0  0  0
  151.8370  136.9242  153.7964 H   0  0  0  0  0  0  0  0  0  0  0  0
  151.8697  140.3347  156.1925 H   0  0  0  0  0  0  0  0  0  0  0  0
  150.2058  142.9646  156.3515 H   0  0  0  0  0  0  0  0  0  0  0  0
  153.1139  141.6657  159.4087 H   0  0  0  0  0  0  0  0  0  0  0  0
  153.6866  143.2108  158.8884 H   0  0  0  0  0  0  0  0  0  0  0  0
  151.3506  142.8189  160.8443 H   0  0  0  0  0  0  0  0  0  0  0  0
  152.9904  143.2214  161.3159 H   0  0  0  0  0  0  0  0  0  0  0  0
  149.9200  144.5785  159.0024 H   0  0  0  0  0  0  0  0  0  0  0  0
  150.7237  146.0120  158.3908 H   0  0  0  0  0  0  0  0  0  0  0  0
  152.5725  144.5739  157.4446 H   0  0  0  0  0  0  0  0  0  0  0  0
  151.0306  144.1843  156.7523 H   0  0  0  0  0  0  0  0  0  0  0  0
  1  2  1  0  0  0  0
  1 18  1  0  0  0  0
  1 19  1  0  0  0  0
  1 20  1  0  0  0  0
  2  3  1  0  0  0  0
  2  9  1  0  0  0  0
  2 21  1  0  0  0  0
  3  4  1  0  0  0  0
  3 22  1  0  0  0  0
  3 23  1  0  0  0  0
  4  8  1  0  0  0  0
  4  5  1  0  0  0  0
  5  6  2  0  0  0  0
  5 24  1  0  0  0  0
  6  7  1  0  0  0  0
  6 25  1  0  0  0  0
  7  8  2  0  0  0  0
  8 26  1  0  0  0  0
  9 10  1  0  0  0  0
  9 27  1  0  0  0  0
 10 11  2  0  0  0  0
 10 12  1  0  0  0  0
 12 17  1  0  0  0  0
 12 13  1  0  0  0  0
 13 14  1  0  0  0  0
 13 28  1  0  0  0  0
 13 29  1  0  0  0  0
 14 15  1  0  0  0  0
 14 30  1  0  0  0  0
 14 31  1  0  0  0  0
 15 16  1  0  0  0  0
 16 17  1  0  0  0  0
 16 32  1  0  0  0  0
 16 33  1  0  0  0  0
 17 34  1  0  0  0  0
 17 35  1  0  0  0  0
M  END
> <s_m_source_file>
AV-unprocessed.smi

> <i_m_source_file_index>
1386

> <i_lp_mmshare_version>
43012

> <i_f3d_flags>
0

> <s_epik_input>
W2NIXTFuW2NIXVtjSF1uMVtDSDJdW0NAQEhdKFtDSDNdKVtOSF1DKD1PKU4yW0NIMl1bQ0gyXVNbQ0gyXVtDSDJdMg==

> <s_epik_cmdline>
J2VwaWtfcHl0aG9uJywgJy1waCcsICc3LjAnLCAnLXRuJywgJzgnLCAnLW1hJywgJzIwMCcsICctbWV0YWxfYmluZGluZycsICctaW1hZScsICc8aW5maWxlLm1hZT4nLCAnLW9tYWUnLCAnPG91dGZpbGUubWFlPic=

> <r_lp_tautomer_probability>
1

> <r_epik_Ionization_Penalty>
0.622677

> <r_epik_Ionization_Penalty_Charging>
0.62263

> <r_epik_Ionization_Penalty_Neutral>
4.67019e-05

> <r_epik_State_Penalty>
0.63879

> <r_epik_Charging_Adjusted_Penalty>
1.26142

> <i_epik_Tot_Q>
0

> <i_epik_Tot_abs_Q>
0

> <r_epik_Metal_State_Penalty>
0.307117

> <b_epik_Metal_Only>
0

> <s_lp_Force_Field>
OPLS_2005

> <r_lp_Energy>
24.3831

> <b_lp_Chiralities_Consistent>
1

> <s_lp_Variant>
AV-unprocessed.smi:1386-4

> <Gold.Version>
5.8.1

> <Gold.Id.Protein>
6NUR|6NUR_protein|mol2

> <Gold.PLP.Fitness>
45.7306

> <Gold.PLP.PLP>
-40.0339

> <Gold.PLP.part.hbond>
-0.7568

> <Gold.PLP.part.metal>
0.0000

> <Gold.PLP.part.buried>
-1.8264

> <Gold.PLP.part.nonpolar>
-37.2201

> <Gold.PLP.part.repulsive>
0.0494

> <Gold.PLP.ligand.clash>
1.2494

> <Gold.PLP.ligand.torsion>
0.5016

> <Gold.PLP.Chemscore.Hbond>
0.2631

> <Gold.PLP.Chemscore.CHOScore>
2.3634

> <Gold.PLP.Chemscore.Metal>
0.0000

> <Gold.Chemscore.Hbonds>
donor molecule, donor type, donor heavy atom, donor atom, acceptor molecule, acceptor atom, score
      L1  H     9    27       P1  8028  0.24
      L1  C     5    24       P1  7948  0.73
      L1  C     5    24       P1  7957  0.64
      L1  C     6    25       P1  7949  0.82

> <Gold.PLP.Chemscore.Internal.Correction>
0.0698

> <Gold.Rescore>
     Score         DG    S(hbond)    S(metal)    S(lipo)     H(rot)  DE(clash)    DE(int)     intcor
     14.27     -14.73       0.82        0.00      90.31       1.59       0.05       0.40       ----

> <Gold.Chemscore.Fitness>
14.2732

> <Gold.Chemscore.DG>
-14.7251

> <Gold.Chemscore.ZeroCoef>
-5.4800

> <Gold.Chemscore.Hbond>
0.8231

> <Gold.Chemscore.Metal>
0.0000

> <Gold.Chemscore.Lipo>
90.3107

> <Gold.Chemscore.Internal_Hbond>
0.0000

> <Gold.Chemscore.DEClash>
0.0489

> <Gold.Chemscore.DEInternal>
0.4029

> <Gold.Chemscore.Rot>
1.5901

> <Gold.Chemscore.Internal.Correction>
   9.000000E+99

> <Gold.Chemscore.Hbonds>
donor molecule, donor type, donor heavy atom, donor atom, acceptor molecule, acceptor atom, score
      L1  H     9    27       P1  8028  0.24

> <Gold.Chemscore.Hbond.Weighted>
-2.7493

> <Gold.Chemscore.Metal.Weighted>
-0.0000

> <Gold.Chemscore.Lipo.Weighted>
-10.5663

> <Gold.Chemscore.Internal_Hbond.Weighted>
0.0000

> <Gold.Chemscore.DEClash.Weighted>
0.0489

> <Gold.Chemscore.DEInternal.Weighted>
0.4029

> <Gold.Chemscore.Rot.Weighted>
4.0706

> <Gold.Chemscore.Internal.Correction.Weighted>
   9.000000E+99

> <Gold.Protein.RotatedTorsions>
[ 6907 6896 6895 6894 ] final -108.94 input  -60.11 | X-H torsion
[ 7974 7965 7964 7962 ] final -102.96 input  175.53 | X-H torsion
[ 8008 7997 7996 7995 ] final   68.31 input   59.86 | X-H torsion
[ 10167 10162 10161 10158 ] final  -10.32 input  -65.29 | X-H torsion
[ 10718 10713 10712 10709 ] final  122.24 input   66.30 | X-H torsion
[ 10763 10752 10751 10750 ] final  174.31 input  -60.55 | X-H torsion
[ 11005 11000 10999 10996 ] final  120.18 input  -57.11 | X-H torsion

> <Gold.Protein.ActiveResidues>
 VAL166  LYS551  ARG553  GLY616  TRP617  ASP618  TYR619  PRO620  LYS621  CYS622 
 ASP623  PHE694  ASN695  SER759  ASP760  ASP761  ALA762  ILE779  LEU786  VAL792 
 PHE793  MET794  SER795  GLU796  ALA797  LYS798  CYS799  TRP800  GLU811  SER814 

> <Gold.Protein.RotatedAtoms>
  150.7532  133.9602  159.3513 H   0  0  0  0  0  0  0  0  0  0  0  0  # atno 6907 bound_to 6896
  151.7528  135.0827  160.0343 H   0  0  0  0  0  0  0  0  0  0  0  0  # atno 6908 bound_to 6896
  152.3455  133.6080  159.5943 H   0  0  0  0  0  0  0  0  0  0  0  0  # atno 6909 bound_to 6896
  145.2620  140.9272  143.3035 H   0  0  0  0  0  0  0  0  0  0  0  0  # atno 7974 bound_to 7965
  155.7063  140.3495  155.4955 H   0  0  0  0  0  0  0  0  0  0  0  0  # atno 8008 bound_to 7997
  155.9395  140.1099  157.1089 H   0  0  0  0  0  0  0  0  0  0  0  0  # atno 8009 bound_to 7997
  154.4100  140.1215  156.4895 H   0  0  0  0  0  0  0  0  0  0  0  0  # atno 8010 bound_to 7997
  140.7111  143.5760  150.9042 H   0  0  0  0  0  0  0  0  0  0  0  0  # atno 10167 bound_to 10162
  157.5757  131.1079  150.8283 H   0  0  0  0  0  0  0  0  0  0  0  0  # atno 10718 bound_to 10713
  154.4522  135.2765  155.1773 H   0  0  0  0  0  0  0  0  0  0  0  0  # atno 10763 bound_to 10752
  154.3595  135.6132  153.5687 H   0  0  0  0  0  0  0  0  0  0  0  0  # atno 10764 bound_to 10752
  152.9848  135.5831  154.4869 H   0  0  0  0  0  0  0  0  0  0  0  0  # atno 10765 bound_to 10752
  139.9175  134.9633  156.7767 H   0  0  0  0  0  0  0  0  0  0  0  0  # atno 11005 bound_to 11000
  144.9410  139.4189  143.6449 LP  0  0  0  0  0  0  0  0  0  0  0  0  # atno 17320 bound_to 7965
  146.3272  139.8370  142.8897 LP  0  0  0  0  0  0  0  0  0  0  0  0  # atno 17321 bound_to 7965
  139.9486  143.6298  152.3035 LP  0  0  0  0  0  0  0  0  0  0  0  0  # atno 17342 bound_to 10162
  139.6808  144.7655  151.1611 LP  0  0  0  0  0  0  0  0  0  0  0  0  # atno 17343 bound_to 10162
  156.8742  130.5157  149.5295 LP  0  0  0  0  0  0  0  0  0  0  0  0  # atno 17370 bound_to 10713
  156.0802  130.5814  150.9549 LP  0  0  0  0  0  0  0  0  0  0  0  0  # atno 17371 bound_to 10713
  140.6577  133.9673  155.7788 LP  0  0  0  0  0  0  0  0  0  0  0  0  # atno 17394 bound_to 11000
  141.0665  134.0269  157.3587 LP  0  0  0  0  0  0  0  0  0  0  0  0  # atno 17395 bound_to 11000

$$$$
