AV-unprocessed.smi:2871|AV-procd|sdf|11030|dock8
  -GOLD-   2272015493D 1   1.00000     0.00000
 Structure written by MMmdl.
 38 40  0  0  0  0  0  0  0  0  1 V2000
  152.2133  144.1347  160.9533 C   0  0  0  0  0  0  0  0  0  0  0  0
  152.2898  143.4264  159.6800 N   0  0  0  0  0  0  0  0  0  0  0  0
  152.1031  144.1488  158.4280 C   0  0  0  0  0  0  0  0  0  0  0  0
  152.6454  142.0596  159.6614 C   0  0  0  0  0  0  0  0  0  0  0  0
  153.5709  141.5106  160.5823 C   0  0  0  0  0  0  0  0  0  0  0  0
  153.8458  140.1291  160.4695 C   0  0  0  0  0  0  0  0  0  0  0  0
  154.8182  139.4197  161.4000 C   0  0  0  0  0  0  0  0  0  0  0  0
  155.8730  138.9905  160.7064 F   0  0  0  0  0  0  0  0  0  0  0  0
  155.2507  140.2280  162.3684 F   0  0  0  0  0  0  0  0  0  0  0  0
  154.2171  138.3711  161.9623 F   0  0  0  0  0  0  0  0  0  0  0  0
  153.2516  139.3650  159.5257 N   0  0  0  0  0  0  0  0  0  0  0  0
  152.3961  139.9725  158.7045 C   0  0  0  0  0  0  0  0  0  0  0  0
  151.8040  139.1614  157.7542 N   0  0  0  0  0  0  0  0  0  0  0  0
  150.6627  139.5475  156.9336 C   0  0  2  0  0  0  0  0  0  0  0  0
  150.1884  138.4293  155.9969 C   0  0  0  0  0  0  0  0  0  0  0  0
  150.2535  139.1160  154.6271 C   0  0  1  0  0  0  0  0  0  0  0  0
  149.1920  140.2141  154.4746 C   0  0  0  0  0  0  0  0  0  0  0  0
  149.7538  141.3184  155.3698 C   0  0  0  0  0  0  0  0  0  0  0  0
  151.0201  140.6572  155.9306 C   0  0  2  0  0  0  0  0  0  0  0  0
  151.4204  139.9004  154.7993 O   0  0  0  0  0  0  0  0  0  0  0  0
  152.0693  141.2684  158.7245 N   0  0  0  0  0  0  0  0  0  0  0  0
  151.4597  143.6813  161.5982 H   0  0  0  0  0  0  0  0  0  0  0  0
  151.9446  145.1814  160.8113 H   0  0  0  0  0  0  0  0  0  0  0  0
  153.1743  144.1026  161.4680 H   0  0  0  0  0  0  0  0  0  0  0  0
  151.2885  143.7108  157.8506 H   0  0  0  0  0  0  0  0  0  0  0  0
  153.0134  144.1186  157.8285 H   0  0  0  0  0  0  0  0  0  0  0  0
  151.8573  145.1956  158.6070 H   0  0  0  0  0  0  0  0  0  0  0  0
  154.0519  142.1075  161.3421 H   0  0  0  0  0  0  0  0  0  0  0  0
  152.1463  138.2147  157.6769 H   0  0  0  0  0  0  0  0  0  0  0  0
  149.8582  139.8839  157.5892 H   0  0  0  0  0  0  0  0  0  0  0  0
  150.8632  137.5721  156.0187 H   0  0  0  0  0  0  0  0  0  0  0  0
  149.1862  138.0754  156.2403 H   0  0  0  0  0  0  0  0  0  0  0  0
  150.2984  138.4225  153.7871 H   0  0  0  0  0  0  0  0  0  0  0  0
  149.1292  140.5552  153.4406 H   0  0  0  0  0  0  0  0  0  0  0  0
  148.2023  139.8779  154.7855 H   0  0  0  0  0  0  0  0  0  0  0  0
  150.0085  142.1975  154.7769 H   0  0  0  0  0  0  0  0  0  0  0  0
  149.0595  141.6247  156.1530 H   0  0  0  0  0  0  0  0  0  0  0  0
  151.7630  141.3713  156.2881 H   0  0  0  0  0  0  0  0  0  0  0  0
  1  2  1  0  0  0  0
  1 22  1  0  0  0  0
  1 23  1  0  0  0  0
  1 24  1  0  0  0  0
  2  3  1  0  0  0  0
  2  4  1  0  0  0  0
  3 25  1  0  0  0  0
  3 26  1  0  0  0  0
  3 27  1  0  0  0  0
  4 21  1  0  0  0  0
  4  5  2  0  0  0  0
  5  6  1  0  0  0  0
  5 28  1  0  0  0  0
  6  7  1  0  0  0  0
  6 11  2  0  0  0  0
  7  8  1  0  0  0  0
  7  9  1  0  0  0  0
  7 10  1  0  0  0  0
 11 12  1  0  0  0  0
 12 13  1  0  0  0  0
 12 21  2  0  0  0  0
 13 14  1  0  0  0  0
 13 29  1  0  0  0  0
 14 19  1  0  0  0  0
 14 15  1  0  0  0  0
 14 30  1  0  0  0  0
 15 16  1  0  0  0  0
 15 31  1  0  0  0  0
 15 32  1  0  0  0  0
 16 20  1  0  0  0  0
 16 17  1  0  0  0  0
 16 33  1  0  0  0  0
 17 18  1  0  0  0  0
 17 34  1  0  0  0  0
 17 35  1  0  0  0  0
 18 19  1  0  0  0  0
 18 36  1  0  0  0  0
 18 37  1  0  0  0  0
 19 20  1  0  0  0  0
 19 38  1  0  0  0  0
M  END
> <s_m_source_file>
AV-unprocessed.smi

> <i_m_source_file_index>
2871

> <i_lp_mmshare_version>
43012

> <i_f3d_flags>
0

> <s_epik_input>
W0NIM11OKFtDSDNdKWMxW2NIXWMoQyhGKShGKUYpbmMobjEpW05IXVtDQEhdKFtDSDJdW0NAQEhdMjMpW0NAQEhdKE8zKVtDSDJdW0NIMl0y

> <s_epik_cmdline>
J2VwaWtfcHl0aG9uJywgJy1waCcsICc3LjAnLCAnLXRuJywgJzgnLCAnLW1hJywgJzIwMCcsICctbWV0YWxfYmluZGluZycsICctaW1hZScsICc8aW5maWxlLm1hZT4nLCAnLW9tYWUnLCAnPG91dGZpbGUubWFlPic=

> <r_lp_tautomer_probability>
1

> <r_epik_Ionization_Penalty>
0.00695968

> <r_epik_Ionization_Penalty_Charging>
0

> <r_epik_Ionization_Penalty_Neutral>
0.00695968

> <r_epik_State_Penalty>
0.0050343

> <r_epik_Charging_Adjusted_Penalty>
0.0050343

> <i_epik_Tot_Q>
0

> <i_epik_Tot_abs_Q>
0

> <r_epik_Metal_State_Penalty>
-0

> <b_epik_Metal_Only>
0

> <s_lp_Force_Field>
OPLS_2005

> <r_lp_Energy>
32.5714

> <b_lp_Chiralities_Consistent>
1

> <s_lp_Variant>
AV-unprocessed.smi:2871-1

> <Gold.Version>
5.8.1

> <Gold.Id.Protein>
6NUR|6NUR_protein|mol2

> <Gold.PLP.Fitness>
46.4420

> <Gold.PLP.PLP>
-44.8130

> <Gold.PLP.part.hbond>
-0.9484

> <Gold.PLP.part.metal>
0.0000

> <Gold.PLP.part.buried>
-5.1827

> <Gold.PLP.part.nonpolar>
-39.4936

> <Gold.PLP.part.repulsive>
0.1301

> <Gold.PLP.ligand.clash>
0.0000

> <Gold.PLP.ligand.torsion>
0.7025

> <Gold.PLP.Chemscore.Hbond>
1.0000

> <Gold.PLP.Chemscore.CHOScore>
0.0000

> <Gold.PLP.Chemscore.Metal>
0.0000

> <Gold.Chemscore.Hbonds>
donor molecule, donor type, donor heavy atom, donor atom, acceptor molecule, acceptor atom, score
      P1  H  7989  7998       L1    20  1.00

> <Gold.PLP.Chemscore.Internal.Correction>
0.0340

> <Gold.Rescore>
     Score         DG    S(hbond)    S(metal)    S(lipo)     H(rot)  DE(clash)    DE(int)     intcor
     15.06     -15.70       0.94        0.00      82.35       1.00       0.00       0.65       ----

> <Gold.Chemscore.Fitness>
15.0573

> <Gold.Chemscore.DG>
-15.7037

> <Gold.Chemscore.ZeroCoef>
-5.4800

> <Gold.Chemscore.Hbond>
0.9428

> <Gold.Chemscore.Metal>
0.0000

> <Gold.Chemscore.Lipo>
82.3481

> <Gold.Chemscore.Internal_Hbond>
0.0000

> <Gold.Chemscore.DEClash>
0.0000

> <Gold.Chemscore.DEInternal>
0.6464

> <Gold.Chemscore.Rot>
1.0000

> <Gold.Chemscore.Internal.Correction>
   9.000000E+99

> <Gold.Chemscore.Hbonds>
donor molecule, donor type, donor heavy atom, donor atom, acceptor molecule, acceptor atom, score
      P1  H  7989  7998       L1    20  0.58

> <Gold.Chemscore.Hbond.Weighted>
-3.1490

> <Gold.Chemscore.Metal.Weighted>
-0.0000

> <Gold.Chemscore.Lipo.Weighted>
-9.6347

> <Gold.Chemscore.Internal_Hbond.Weighted>
0.0000

> <Gold.Chemscore.DEClash.Weighted>
0.0000

> <Gold.Chemscore.DEInternal.Weighted>
0.6464

> <Gold.Chemscore.Rot.Weighted>
2.5600

> <Gold.Chemscore.Internal.Correction.Weighted>
   9.000000E+99

> <Gold.Protein.RotatedTorsions>
[ 6907 6896 6895 6894 ] final  -58.41 input  -60.11 | X-H torsion
[ 7974 7965 7964 7962 ] final   98.19 input  175.53 | X-H torsion
[ 8008 7997 7996 7995 ] final  115.91 input   59.86 | X-H torsion
[ 10167 10162 10161 10158 ] final -111.93 input  -65.29 | X-H torsion
[ 10718 10713 10712 10709 ] final  -90.74 input   66.30 | X-H torsion
[ 10763 10752 10751 10750 ] final  171.80 input  -60.55 | X-H torsion
[ 11005 11000 10999 10996 ] final  -50.93 input  -57.11 | X-H torsion

> <Gold.Protein.ActiveResidues>
 VAL166  LYS551  ARG553  GLY616  TRP617  ASP618  TYR619  PRO620  LYS621  CYS622 
 ASP623  PHE694  ASN695  SER759  ASP760  ASP761  ALA762  ILE779  LEU786  VAL792 
 PHE793  MET794  SER795  GLU796  ALA797  LYS798  CYS799  TRP800  GLU811  SER814 

> <Gold.Protein.RotatedAtoms>
  150.8009  134.7102  159.6599 H   0  0  0  0  0  0  0  0  0  0  0  0  # atno 6907 bound_to 6896
  152.4126  134.6094  160.0031 H   0  0  0  0  0  0  0  0  0  0  0  0  # atno 6908 bound_to 6896
  151.6333  133.3293  159.3150 H   0  0  0  0  0  0  0  0  0  0  0  0  # atno 6909 bound_to 6896
  145.4155  139.2328  143.3225 H   0  0  0  0  0  0  0  0  0  0  0  0  # atno 7974 bound_to 7965
  156.2409  140.2928  156.0442 H   0  0  0  0  0  0  0  0  0  0  0  0  # atno 8008 bound_to 7997
  155.1954  140.0408  157.2925 H   0  0  0  0  0  0  0  0  0  0  0  0  # atno 8009 bound_to 7997
  154.6166  140.2465  155.7608 H   0  0  0  0  0  0  0  0  0  0  0  0  # atno 8010 bound_to 7997
  140.1282  143.4383  152.1645 H   0  0  0  0  0  0  0  0  0  0  0  0  # atno 10167 bound_to 10162
  155.9989  130.4921  150.5369 H   0  0  0  0  0  0  0  0  0  0  0  0  # atno 10718 bound_to 10713
  154.4171  135.2757  155.2000 H   0  0  0  0  0  0  0  0  0  0  0  0  # atno 10763 bound_to 10752
  154.3961  135.6055  153.5874 H   0  0  0  0  0  0  0  0  0  0  0  0  # atno 10764 bound_to 10752
  152.9832  135.5915  154.4461 H   0  0  0  0  0  0  0  0  0  0  0  0  # atno 10765 bound_to 10752
  141.0843  133.6646  156.3803 H   0  0  0  0  0  0  0  0  0  0  0  0  # atno 11005 bound_to 11000
  146.2683  140.4872  142.8825 LP  0  0  0  0  0  0  0  0  0  0  0  0  # atno 17320 bound_to 7965
  144.8280  140.6660  143.6309 LP  0  0  0  0  0  0  0  0  0  0  0  0  # atno 17321 bound_to 7965
  139.5533  144.7354  151.4369 LP  0  0  0  0  0  0  0  0  0  0  0  0  # atno 17342 bound_to 10162
  140.6832  143.8033  150.7150 LP  0  0  0  0  0  0  0  0  0  0  0  0  # atno 17343 bound_to 10162
  157.3311  131.0699  151.1860 LP  0  0  0  0  0  0  0  0  0  0  0  0  # atno 17370 bound_to 10713
  157.2741  130.6718  149.6033 LP  0  0  0  0  0  0  0  0  0  0  0  0  # atno 17371 bound_to 10713
  140.5398  134.6132  157.5376 LP  0  0  0  0  0  0  0  0  0  0  0  0  # atno 17394 bound_to 11000
  139.9660  134.7372  156.0138 LP  0  0  0  0  0  0  0  0  0  0  0  0  # atno 17395 bound_to 11000

$$$$
