AV-unprocessed.smi:1222|AV-procd|sdf|5124|dock7
  -GOLD-   22720 4183D 1   1.00000     0.00000
 Structure written by MMmdl.
 36 38  0  0  0  0  0  0  0  0  3 V2000
  149.5152  136.1588  159.5013 O   0  0  0  0  0  0  0  0  0  0  0  0
  148.4944  136.8461  159.5772 C   0  0  0  0  0  0  0  0  0  0  0  0
  147.8382  137.1816  160.7105 N   0  5  0  0  0  0  0  0  0  0  0  0
  147.1815  136.2410  161.4087 C   0  0  0  0  0  0  0  0  0  0  0  0
  147.6419  134.9948  161.5690 N   0  0  0  0  0  0  0  0  0  0  0  0
  146.7987  134.1860  162.3331 C   0  0  0  0  0  0  0  0  0  0  0  0
  145.6762  134.8348  162.7748 C   0  0  0  0  0  0  0  0  0  0  0  0
  145.6420  136.4897  162.2370 S   0  0  0  0  0  0  0  0  0  0  0  0
  147.9282  137.3391  158.4660 N   0  0  0  0  0  0  0  0  0  0  0  0
  148.3960  137.1599  157.0939 C   0  0  2  0  0  0  0  0  0  0  0  0
  148.7069  138.5273  156.4634 C   0  0  0  0  0  0  0  0  0  0  0  0
  149.0892  138.3812  154.9788 C   0  0  0  0  0  0  0  0  0  0  0  0
  148.0517  137.6550  154.2017 N   0  3  2  0  0  0  0  0  0  0  0  0
  146.8466  138.4712  153.9245 C   0  0  0  0  0  0  0  0  0  0  0  0
  146.5395  138.6174  152.4523 C   0  0  0  0  0  0  0  0  0  0  0  0
  147.1454  139.7727  153.2174 C   0  0  0  0  0  0  0  0  0  0  0  0
  147.7397  136.3265  154.7891 C   0  0  0  0  0  0  0  0  0  0  0  0
  147.3246  136.4298  156.2684 C   0  0  0  0  0  0  0  0  0  0  0  0
  147.0776  133.1589  162.5153 H   0  0  0  0  0  0  0  0  0  0  0  0
  144.8721  134.4439  163.3796 H   0  0  0  0  0  0  0  0  0  0  0  0
  147.0942  137.8942  158.5909 H   0  0  0  0  0  0  0  0  0  0  0  0
  149.3063  136.5584  157.0711 H   0  0  0  0  0  0  0  0  0  0  0  0
  147.8447  139.1886  156.5600 H   0  0  0  0  0  0  0  0  0  0  0  0
  149.5216  139.0089  157.0055 H   0  0  0  0  0  0  0  0  0  0  0  0
  149.2712  139.3606  154.5345 H   0  0  0  0  0  0  0  0  0  0  0  0
  150.0269  137.8295  154.8987 H   0  0  0  0  0  0  0  0  0  0  0  0
  146.0373  138.4151  154.6501 H   0  0  0  0  0  0  0  0  0  0  0  0
  147.1767  138.0987  151.7382 H   0  0  0  0  0  0  0  0  0  0  0  0
  145.4941  138.7053  152.1635 H   0  0  0  0  0  0  0  0  0  0  0  0
  146.4990  140.6204  153.4346 H   0  0  0  0  0  0  0  0  0  0  0  0
  148.1846  140.0218  153.0101 H   0  0  0  0  0  0  0  0  0  0  0  0
  146.9582  135.8360  154.2078 H   0  0  0  0  0  0  0  0  0  0  0  0
  148.6264  135.6969  154.7045 H   0  0  0  0  0  0  0  0  0  0  0  0
  147.1615  135.4304  156.6735 H   0  0  0  0  0  0  0  0  0  0  0  0
  146.3699  136.9509  156.3499 H   0  0  0  0  0  0  0  0  0  0  0  0
  148.4600  137.4708  153.2964 H   0  0  0  0  0  0  0  0  0  0  0  0
  1  2  2  0  0  0  0
  2  3  1  0  0  0  0
  2  9  1  0  0  0  0
  3  4  1  0  0  0  0
  4  8  1  0  0  0  0
  4  5  2  0  0  0  0
  5  6  1  0  0  0  0
  6  7  2  0  0  0  0
  6 19  1  0  0  0  0
  7  8  1  0  0  0  0
  7 20  1  0  0  0  0
  9 10  1  0  0  0  0
  9 21  1  0  0  0  0
 10 18  1  0  0  0  0
 10 11  1  0  0  0  0
 10 22  1  0  0  0  0
 11 12  1  0  0  0  0
 11 23  1  0  0  0  0
 11 24  1  0  0  0  0
 12 13  1  0  0  0  0
 12 25  1  0  0  0  0
 12 26  1  0  0  0  0
 13 14  1  0  0  0  0
 13 17  1  0  0  0  0
 13 36  1  0  0  0  0
 14 16  1  0  0  0  0
 14 15  1  0  0  0  0
 14 27  1  0  0  0  0
 15 16  1  0  0  0  0
 15 28  1  0  0  0  0
 15 29  1  0  0  0  0
 16 30  1  0  0  0  0
 16 31  1  0  0  0  0
 17 18  1  0  0  0  0
 17 32  1  0  0  0  0
 17 33  1  0  0  0  0
 18 34  1  0  0  0  0
 18 35  1  0  0  0  0
M  CHG  1   3  -1
M  CHG  1  13   1
M  END
> <s_m_source_file>
AV-unprocessed.smi

> <i_m_source_file_index>
1222

> <i_lp_mmshare_version>
43012

> <i_f3d_flags>
0

> <s_epik_input>
czFbY0hdW2NIXW5jMVtOSF1DKD1PKVtOSF1bQ0hdMltDSDJdW0NIMl1OKFtDSDJdW0NIMl0yKVtDSF0zW0NIMl1bQ0gyXTM=

> <s_epik_cmdline>
J2VwaWtfcHl0aG9uJywgJy1waCcsICc3LjAnLCAnLXRuJywgJzgnLCAnLW1hJywgJzIwMCcsICctbWV0YWxfYmluZGluZycsICctaW1hZScsICc8aW5maWxlLm1hZT4nLCAnLW9tYWUnLCAnPG91dGZpbGUubWFlPic=

> <r_lp_tautomer_probability>
0.999

> <r_epik_Ionization_Penalty>
6.4609

> <r_epik_Ionization_Penalty_Charging>
5.58663

> <r_epik_Ionization_Penalty_Neutral>
0.874262

> <r_epik_State_Penalty>
5.57752

> <r_epik_Charging_Adjusted_Penalty>
11.1642

> <i_epik_Tot_Q>
0

> <i_epik_Tot_abs_Q>
2

> <r_epik_Metal_State_Penalty>
1.58738

> <b_epik_Metal_Only>
1

> <s_lp_Force_Field>
OPLS_2005

> <r_lp_Energy>
18.4685

> <b_lp_Chiralities_Consistent>
1

> <s_lp_Variant>
AV-unprocessed.smi:1222-5

> <Gold.Version>
5.8.1

> <Gold.Id.Protein>
6NUR|6NUR_protein|mol2

> <Gold.PLP.Fitness>
42.6304

> <Gold.PLP.PLP>
-25.6088

> <Gold.PLP.part.hbond>
-4.0000

> <Gold.PLP.part.metal>
0.0000

> <Gold.PLP.part.buried>
-2.9555

> <Gold.PLP.part.nonpolar>
-18.8566

> <Gold.PLP.part.repulsive>
0.1033

> <Gold.PLP.ligand.clash>
0.0000

> <Gold.PLP.ligand.torsion>
1.6639

> <Gold.PLP.Chemscore.Hbond>
6.3600

> <Gold.PLP.Chemscore.CHOScore>
0.0000

> <Gold.PLP.Chemscore.Metal>
0.0000

> <Gold.Chemscore.Hbonds>
donor molecule, donor type, donor heavy atom, donor atom, acceptor molecule, acceptor atom, score
      L1  H    13    36       P1  7948  2.00
      P1  H  6896  6909       L1     1  1.00
      P1  H  6931  6943       L1     3  1.66
      P1  H  6934  6947       L1     3  1.70

> <Gold.PLP.Chemscore.Internal.Correction>
1.2695

> <Gold.Rescore>
     Score         DG    S(hbond)    S(metal)    S(lipo)     H(rot)  DE(clash)    DE(int)     intcor
     16.12     -18.84       3.25        0.00      48.71       1.25       0.04       2.67       ----

> <Gold.Chemscore.Fitness>
16.1243

> <Gold.Chemscore.DG>
-18.8395

> <Gold.Chemscore.ZeroCoef>
-5.4800

> <Gold.Chemscore.Hbond>
3.2494

> <Gold.Chemscore.Metal>
0.0000

> <Gold.Chemscore.Lipo>
48.7074

> <Gold.Chemscore.Internal_Hbond>
0.0000

> <Gold.Chemscore.DEClash>
0.0402

> <Gold.Chemscore.DEInternal>
2.6750

> <Gold.Chemscore.Rot>
1.2470

> <Gold.Chemscore.Internal.Correction>
   9.000000E+99

> <Gold.Chemscore.Hbonds>
donor molecule, donor type, donor heavy atom, donor atom, acceptor molecule, acceptor atom, score
      L1  H    13    36       P1  7948  0.95
      P1  H  6896  6909       L1     1  0.98
      P1  H  6931  6943       L1     3  0.46
      P1  H  6934  6947       L1     3  0.74

> <Gold.Chemscore.Hbond.Weighted>
-10.8531

> <Gold.Chemscore.Metal.Weighted>
-0.0000

> <Gold.Chemscore.Lipo.Weighted>
-5.6988

> <Gold.Chemscore.Internal_Hbond.Weighted>
0.0000

> <Gold.Chemscore.DEClash.Weighted>
0.0402

> <Gold.Chemscore.DEInternal.Weighted>
2.6750

> <Gold.Chemscore.Rot.Weighted>
3.1924

> <Gold.Chemscore.Internal.Correction.Weighted>
   9.000000E+99

> <Gold.Protein.RotatedTorsions>
[ 6907 6896 6895 6894 ] final   54.31 input  -60.11 | X-H torsion
[ 7974 7965 7964 7962 ] final -178.79 input  175.53 | X-H torsion
[ 8008 7997 7996 7995 ] final  129.03 input   59.86 | X-H torsion
[ 10167 10162 10161 10158 ] final -121.37 input  -65.29 | X-H torsion
[ 10718 10713 10712 10709 ] final  105.51 input   66.30 | X-H torsion
[ 10763 10752 10751 10750 ] final   23.30 input  -60.55 | X-H torsion
[ 11005 11000 10999 10996 ] final  125.20 input  -57.11 | X-H torsion

> <Gold.Protein.ActiveResidues>
 VAL166  LYS551  ARG553  GLY616  TRP617  ASP618  TYR619  PRO620  LYS621  CYS622 
 ASP623  PHE694  ASN695  SER759  ASP760  ASP761  ALA762  ILE779  LEU786  VAL792 
 PHE793  MET794  SER795  GLU796  ALA797  LYS798  CYS799  TRP800  GLU811  SER814 

> <Gold.Protein.RotatedAtoms>
  152.3425  134.7115  160.0259 H   0  0  0  0  0  0  0  0  0  0  0  0  # atno 6907 bound_to 6896
  151.7495  133.3321  159.3395 H   0  0  0  0  0  0  0  0  0  0  0  0  # atno 6908 bound_to 6896
  150.7489  134.6138  159.6144 H   0  0  0  0  0  0  0  0  0  0  0  0  # atno 6909 bound_to 6896
  144.7133  140.0816  143.6425 H   0  0  0  0  0  0  0  0  0  0  0  0  # atno 7974 bound_to 7965
  156.2928  140.2630  156.2532 H   0  0  0  0  0  0  0  0  0  0  0  0  # atno 8008 bound_to 7997
  154.9862  140.0389  157.2318 H   0  0  0  0  0  0  0  0  0  0  0  0  # atno 8009 bound_to 7997
  154.7727  140.2781  155.6130 H   0  0  0  0  0  0  0  0  0  0  0  0  # atno 8010 bound_to 7997
  140.0258  143.5298  152.2200 H   0  0  0  0  0  0  0  0  0  0  0  0  # atno 10167 bound_to 10162
  157.6703  131.0829  150.5868 H   0  0  0  0  0  0  0  0  0  0  0  0  # atno 10718 bound_to 10713
  153.0849  135.6630  153.9969 H   0  0  0  0  0  0  0  0  0  0  0  0  # atno 10763 bound_to 10752
  153.9581  135.2977  155.3436 H   0  0  0  0  0  0  0  0  0  0  0  0  # atno 10764 bound_to 10752
  154.7255  135.5146  153.8952 H   0  0  0  0  0  0  0  0  0  0  0  0  # atno 10765 bound_to 10752
  139.9395  134.9637  156.8523 H   0  0  0  0  0  0  0  0  0  0  0  0  # atno 11005 bound_to 11000
  145.9697  139.2861  143.1106 LP  0  0  0  0  0  0  0  0  0  0  0  0  # atno 17320 bound_to 7965
  145.9129  140.9167  143.0444 LP  0  0  0  0  0  0  0  0  0  0  0  0  # atno 17321 bound_to 7965
  139.6109  144.7608  151.2954 LP  0  0  0  0  0  0  0  0  0  0  0  0  # atno 17342 bound_to 10162
  140.7323  143.6826  150.7988 LP  0  0  0  0  0  0  0  0  0  0  0  0  # atno 17343 bound_to 10162
  156.6168  130.4395  149.5837 LP  0  0  0  0  0  0  0  0  0  0  0  0  # atno 17370 bound_to 10713
  156.2387  130.6838  151.1534 LP  0  0  0  0  0  0  0  0  0  0  0  0  # atno 17371 bound_to 10713
  140.5988  134.0191  155.7529 LP  0  0  0  0  0  0  0  0  0  0  0  0  # atno 17394 bound_to 11000
  141.1023  133.9748  157.3057 LP  0  0  0  0  0  0  0  0  0  0  0  0  # atno 17395 bound_to 11000

$$$$
