AV-unprocessed.smi:759|AV-procd|sdf|3622|dock1
  -GOLD-   22720 1 13D 1   1.00000     0.00000
 Structure written by MMmdl.
 24 25  0  0  0  0  0  0  0  0  2 V2000
  152.2095  138.1544  155.2005 C   0  0  0  0  0  0  0  0  0  0  0  0
  151.7164  137.2180  154.3925 N   0  0  0  0  0  0  0  0  0  0  0  0
  150.6286  137.8302  153.8803 N   0  0  0  0  0  0  0  0  0  0  0  0
  150.5330  139.0606  154.3891 C   0  0  0  0  0  0  0  0  0  0  0  0
  149.4240  139.9971  154.0179 C   0  0  1  0  0  0  0  0  0  0  0  0
  148.0381  139.3420  154.1725 C   0  0  0  0  0  0  0  0  0  0  0  0
  146.9278  140.3347  153.7948 C   0  0  0  0  0  0  0  0  0  0  0  0
  147.0589  141.6393  154.5984 C   0  0  0  0  0  0  0  0  0  0  0  0
  148.4008  142.2338  154.4141 N   0  3  0  0  0  0  0  0  0  0  0  0
  149.4973  141.3210  154.8066 C   0  0  0  0  0  0  0  0  0  0  0  0
  151.5148  139.3308  155.2441 N   0  0  0  0  0  0  0  0  0  0  0  0
  153.1048  137.9847  155.7807 H   0  0  0  0  0  0  0  0  0  0  0  0
  149.5515  140.2415  152.9616 H   0  0  0  0  0  0  0  0  0  0  0  0
  147.9690  138.4515  153.5466 H   0  0  0  0  0  0  0  0  0  0  0  0
  147.8940  139.0110  155.2022 H   0  0  0  0  0  0  0  0  0  0  0  0
  146.9801  140.5545  152.7276 H   0  0  0  0  0  0  0  0  0  0  0  0
  145.9502  139.8846  153.9701 H   0  0  0  0  0  0  0  0  0  0  0  0
  146.3043  142.3583  154.2787 H   0  0  0  0  0  0  0  0  0  0  0  0
  146.8911  141.4510  155.6598 H   0  0  0  0  0  0  0  0  0  0  0  0
  148.5148  142.4726  153.4394 H   0  0  0  0  0  0  0  0  0  0  0  0
  149.4347  141.1338  155.8798 H   0  0  0  0  0  0  0  0  0  0  0  0
  150.4502  141.8191  154.6256 H   0  0  0  0  0  0  0  0  0  0  0  0
  148.4641  143.0778  154.9655 H   0  0  0  0  0  0  0  0  0  0  0  0
  150.0088  137.3870  153.2172 H   0  0  0  0  0  0  0  0  0  0  0  0
  1 11  1  0  0  0  0
  1 12  1  0  0  0  0
  1  2  2  0  0  0  0
  2  3  1  0  0  0  0
  3  4  1  0  0  0  0
  3 24  1  0  0  0  0
  4 11  2  0  0  0  0
  4  5  1  0  0  0  0
  5 10  1  0  0  0  0
  5  6  1  0  0  0  0
  5 13  1  0  0  0  0
  6  7  1  0  0  0  0
  6 14  1  0  0  0  0
  6 15  1  0  0  0  0
  7  8  1  0  0  0  0
  7 16  1  0  0  0  0
  7 17  1  0  0  0  0
  8  9  1  0  0  0  0
  8 18  1  0  0  0  0
  8 19  1  0  0  0  0
  9 10  1  0  0  0  0
  9 20  1  0  0  0  0
  9 23  1  0  0  0  0
 10 21  1  0  0  0  0
 10 22  1  0  0  0  0
M  CHG  1   9   1
M  END
> <s_m_source_file>
AV-unprocessed.smi

> <i_m_source_file_index>
759

> <i_lp_mmshare_version>
43012

> <i_f3d_flags>
0

> <s_epik_input>
W25IXTFbY0hdbm5jMVtDQEBIXTJbQ0gyXVtDSDJdW0NIMl1bTkhdW0NIMl0y

> <s_epik_cmdline>
J2VwaWtfcHl0aG9uJywgJy1waCcsICc3LjAnLCAnLXRuJywgJzgnLCAnLW1hJywgJzIwMCcsICctbWV0YWxfYmluZGluZycsICctaW1hZScsICc8aW5maWxlLm1hZT4nLCAnLW9tYWUnLCAnPG91dGZpbGUubWFlPic=

> <r_epik_Ionization_Penalty>
0.00885924

> <r_epik_Ionization_Penalty_Charging>
0.000426856

> <r_epik_Ionization_Penalty_Neutral>
0.00843239

> <r_epik_State_Penalty>
0.640618

> <r_epik_Charging_Adjusted_Penalty>
0.641045

> <i_epik_Tot_Q>
1

> <i_epik_Tot_abs_Q>
1

> <r_epik_Metal_State_Penalty>
0.906339

> <b_epik_Metal_Only>
0

> <s_lp_Force_Field>
OPLS_2005

> <r_lp_Energy>
13.0828

> <b_lp_Chiralities_Consistent>
1

> <s_lp_Variant>
AV-unprocessed.smi:759-4

> <Gold.Version>
5.8.1

> <Gold.Id.Protein>
6NUR|6NUR_protein|mol2

> <Gold.PLP.Fitness>
32.7747

> <Gold.PLP.PLP>
-20.9025

> <Gold.PLP.part.hbond>
-4.0082

> <Gold.PLP.part.metal>
0.0000

> <Gold.PLP.part.buried>
-1.4776

> <Gold.PLP.part.nonpolar>
-16.4426

> <Gold.PLP.part.repulsive>
1.1757

> <Gold.PLP.ligand.clash>
0.0000

> <Gold.PLP.ligand.torsion>
0.0784

> <Gold.PLP.Chemscore.Hbond>
4.0000

> <Gold.PLP.Chemscore.CHOScore>
0.0000

> <Gold.PLP.Chemscore.Metal>
0.0000

> <Gold.Chemscore.Hbonds>
donor molecule, donor type, donor heavy atom, donor atom, acceptor molecule, acceptor atom, score
      L1  H     3    24       P1  7948  1.00
      L1  H     9    23       P1  8028  2.00
      P1  H 10752 10765       L1     2  1.00

> <Gold.PLP.Chemscore.Internal.Correction>
0.0290

> <Gold.Rescore>
     Score         DG    S(hbond)    S(metal)    S(lipo)     H(rot)  DE(clash)    DE(int)     intcor
     13.45     -13.86       2.21        0.00      30.41       1.00       0.30       0.11       ----

> <Gold.Chemscore.Fitness>
13.4490

> <Gold.Chemscore.DG>
-13.8599

> <Gold.Chemscore.ZeroCoef>
-5.4800

> <Gold.Chemscore.Hbond>
2.2101

> <Gold.Chemscore.Metal>
0.0000

> <Gold.Chemscore.Lipo>
30.4125

> <Gold.Chemscore.Internal_Hbond>
0.0000

> <Gold.Chemscore.DEClash>
0.2969

> <Gold.Chemscore.DEInternal>
0.1141

> <Gold.Chemscore.Rot>
1.0000

> <Gold.Chemscore.Internal.Correction>
   9.000000E+99

> <Gold.Chemscore.Hbonds>
donor molecule, donor type, donor heavy atom, donor atom, acceptor molecule, acceptor atom, score
      L1  H     3    24       P1  7948  0.24
      L1  H     9    23       P1  8028  1.00
      P1  H 10752 10765       L1     2  0.55

> <Gold.Chemscore.Hbond.Weighted>
-7.3817

> <Gold.Chemscore.Metal.Weighted>
-0.0000

> <Gold.Chemscore.Lipo.Weighted>
-3.5583

> <Gold.Chemscore.Internal_Hbond.Weighted>
0.0000

> <Gold.Chemscore.DEClash.Weighted>
0.2969

> <Gold.Chemscore.DEInternal.Weighted>
0.1141

> <Gold.Chemscore.Rot.Weighted>
2.5600

> <Gold.Chemscore.Internal.Correction.Weighted>
   9.000000E+99

> <Gold.Protein.RotatedTorsions>
[ 6907 6896 6895 6894 ] final  -17.03 input  -60.11 | X-H torsion
[ 7974 7965 7964 7962 ] final  -30.20 input  175.53 | X-H torsion
[ 8008 7997 7996 7995 ] final  144.59 input   59.86 | X-H torsion
[ 10167 10162 10161 10158 ] final   71.75 input  -65.29 | X-H torsion
[ 10718 10713 10712 10709 ] final   -2.00 input   66.30 | X-H torsion
[ 10763 10752 10751 10750 ] final  174.75 input  -60.55 | X-H torsion
[ 11005 11000 10999 10996 ] final   66.10 input  -57.11 | X-H torsion

> <Gold.Protein.ActiveResidues>
 VAL166  LYS551  ARG553  GLY616  TRP617  ASP618  TYR619  PRO620  LYS621  CYS622 
 ASP623  PHE694  ASN695  SER759  ASP760  ASP761  ALA762  ILE779  LEU786  VAL792 
 PHE793  MET794  SER795  GLU796  ALA797  LYS798  CYS799  TRP800  GLU811  SER814 

> <Gold.Protein.RotatedAtoms>
  151.2996  135.0765  159.9233 H   0  0  0  0  0  0  0  0  0  0  0  0  # atno 6907 bound_to 6896
  152.5300  133.9847  159.7833 H   0  0  0  0  0  0  0  0  0  0  0  0  # atno 6908 bound_to 6896
  151.0132  133.5895  159.2710 H   0  0  0  0  0  0  0  0  0  0  0  0  # atno 6909 bound_to 6896
  146.1160  140.5510  142.8756 H   0  0  0  0  0  0  0  0  0  0  0  0  # atno 7974 bound_to 7965
  156.2904  140.2231  156.5078 H   0  0  0  0  0  0  0  0  0  0  0  0  # atno 8008 bound_to 7997
  154.7635  140.0471  157.1014 H   0  0  0  0  0  0  0  0  0  0  0  0  # atno 8009 bound_to 7997
  154.9962  140.3096  155.4889 H   0  0  0  0  0  0  0  0  0  0  0  0  # atno 8010 bound_to 7997
  140.0427  144.5376  150.7422 H   0  0  0  0  0  0  0  0  0  0  0  0  # atno 10167 bound_to 10162
  156.7973  130.5381  149.5727 H   0  0  0  0  0  0  0  0  0  0  0  0  # atno 10718 bound_to 10713
  154.4582  135.2767  155.1732 H   0  0  0  0  0  0  0  0  0  0  0  0  # atno 10763 bound_to 10752
  154.3530  135.6146  153.5656 H   0  0  0  0  0  0  0  0  0  0  0  0  # atno 10764 bound_to 10752
  152.9852  135.5816  154.4940 H   0  0  0  0  0  0  0  0  0  0  0  0  # atno 10765 bound_to 10752
  139.9853  134.6678  156.0188 H   0  0  0  0  0  0  0  0  0  0  0  0  # atno 11005 bound_to 11000
  144.7554  140.5294  143.6773 LP  0  0  0  0  0  0  0  0  0  0  0  0  # atno 17320 bound_to 7965
  145.5565  139.1478  143.3365 LP  0  0  0  0  0  0  0  0  0  0  0  0  # atno 17321 bound_to 7965
  140.7253  143.2629  151.4142 LP  0  0  0  0  0  0  0  0  0  0  0  0  # atno 17342 bound_to 10162
  139.6003  144.1309  152.2191 LP  0  0  0  0  0  0  0  0  0  0  0  0  # atno 17343 bound_to 10162
  156.1123  130.6049  151.0066 LP  0  0  0  0  0  0  0  0  0  0  0  0  # atno 17370 bound_to 10713
  157.6571  131.0887  150.7922 LP  0  0  0  0  0  0  0  0  0  0  0  0  # atno 17371 bound_to 10713
  141.1519  133.6547  156.4039 LP  0  0  0  0  0  0  0  0  0  0  0  0  # atno 17394 bound_to 11000
  140.5015  134.6481  157.5250 LP  0  0  0  0  0  0  0  0  0  0  0  0  # atno 17395 bound_to 11000

$$$$
