AV-unprocessed.smi:2702|AV-procd|sdf|10434|dock5
  -GOLD-   2272014473D 1   1.00000     0.00000
 Structure written by MMmdl.
 47 48  0  0  0  0  0  0  0  0  1 V2000
  149.3917  141.0685  154.6051 C   0  0  0  0  0  0  0  0  0  0  0  0
  150.7098  140.7024  154.9732 O   0  0  0  0  0  0  0  0  0  0  0  0
  150.9030  140.7104  156.3778 C   0  0  0  0  0  0  0  0  0  0  0  0
  150.1408  139.5712  157.0235 C   0  0  0  0  0  0  0  0  0  0  0  0
  150.7697  138.5652  157.6747 C   0  0  0  0  0  0  0  0  0  0  0  0
  150.0046  137.4738  158.2780 C   0  0  0  0  0  0  0  0  0  0  0  0
  150.5389  136.5430  158.8818 O   0  0  0  0  0  0  0  0  0  0  0  0
  148.6505  137.5661  158.1221 N   0  0  0  0  0  0  0  0  0  0  0  0
  147.7461  136.5435  158.6787 C   0  0  0  0  0  0  0  0  0  0  0  0
  147.7442  136.5109  160.2137 C   0  0  0  0  0  0  0  0  0  0  0  0
  148.5447  137.1907  160.8570 O   0  0  0  0  0  0  0  0  0  0  0  0
  146.8371  135.7003  160.7796 N   0  0  0  0  0  0  0  0  0  0  0  0
  146.6183  135.5113  162.2153 C   0  0  2  0  0  0  0  0  0  0  0  0
  146.8697  134.0395  162.5916 C   0  0  0  0  0  0  0  0  0  0  0  0
  145.7855  133.1108  162.0258 C   0  0  0  0  0  0  0  0  0  0  0  0
  144.3879  133.5641  162.4687 C   0  0  0  0  0  0  0  0  0  0  0  0
  144.0991  135.0291  162.0802 C   0  0  1  0  0  0  0  0  0  0  0  0
  142.6817  135.4180  162.5373 C   0  0  0  0  0  0  0  0  0  0  0  0
  145.1991  135.9724  162.6434 C   0  0  2  0  0  0  0  0  0  0  0  0
  144.9584  137.4564  162.2985 C   0  0  0  0  0  0  0  0  0  0  0  0
  148.0481  138.6292  157.4202 C   0  0  0  0  0  0  0  0  0  0  0  0
  148.7481  139.5846  156.8967 N   0  0  0  0  0  0  0  0  0  0  0  0
  149.2941  141.0433  153.5197 H   0  0  0  0  0  0  0  0  0  0  0  0
  149.1549  142.0789  154.9411 H   0  0  0  0  0  0  0  0  0  0  0  0
  148.6587  140.3785  155.0255 H   0  0  0  0  0  0  0  0  0  0  0  0
  151.9637  140.6032  156.6123 H   0  0  0  0  0  0  0  0  0  0  0  0
  150.5739  141.6631  156.7970 H   0  0  0  0  0  0  0  0  0  0  0  0
  151.8469  138.5627  157.7572 H   0  0  0  0  0  0  0  0  0  0  0  0
  146.7307  136.7234  158.3194 H   0  0  0  0  0  0  0  0  0  0  0  0
  147.9977  135.5438  158.3201 H   0  0  0  0  0  0  0  0  0  0  0  0
  146.2276  135.1819  160.1638 H   0  0  0  0  0  0  0  0  0  0  0  0
  147.3451  136.1074  162.7699 H   0  0  0  0  0  0  0  0  0  0  0  0
  147.8534  133.7227  162.2428 H   0  0  0  0  0  0  0  0  0  0  0  0
  146.8887  133.9453  163.6781 H   0  0  0  0  0  0  0  0  0  0  0  0
  145.8388  133.0940  160.9366 H   0  0  0  0  0  0  0  0  0  0  0  0
  145.9657  132.0877  162.3572 H   0  0  0  0  0  0  0  0  0  0  0  0
  143.6396  132.9060  162.0252 H   0  0  0  0  0  0  0  0  0  0  0  0
  144.2971  133.4464  163.5494 H   0  0  0  0  0  0  0  0  0  0  0  0
  144.1163  135.0943  160.9912 H   0  0  0  0  0  0  0  0  0  0  0  0
  142.6091  135.4460  163.6251 H   0  0  0  0  0  0  0  0  0  0  0  0
  141.9438  134.7016  162.1748 H   0  0  0  0  0  0  0  0  0  0  0  0
  142.3866  136.3947  162.1550 H   0  0  0  0  0  0  0  0  0  0  0  0
  145.1620  135.8979  163.7315 H   0  0  0  0  0  0  0  0  0  0  0  0
  144.8426  137.6077  161.2248 H   0  0  0  0  0  0  0  0  0  0  0  0
  145.7922  138.0747  162.6322 H   0  0  0  0  0  0  0  0  0  0  0  0
  144.0640  137.8427  162.7867 H   0  0  0  0  0  0  0  0  0  0  0  0
  146.9602  138.5873  157.3470 H   0  0  0  0  0  0  0  0  0  0  0  0
  1  2  1  0  0  0  0
  1 23  1  0  0  0  0
  1 24  1  0  0  0  0
  1 25  1  0  0  0  0
  2  3  1  0  0  0  0
  3  4  1  0  0  0  0
  3 26  1  0  0  0  0
  3 27  1  0  0  0  0
  4 22  1  0  0  0  0
  4  5  2  0  0  0  0
  5  6  1  0  0  0  0
  5 28  1  0  0  0  0
  6  7  2  0  0  0  0
  6  8  1  0  0  0  0
  8  9  1  0  0  0  0
  8 21  1  0  0  0  0
  9 10  1  0  0  0  0
  9 29  1  0  0  0  0
  9 30  1  0  0  0  0
 10 11  2  0  0  0  0
 10 12  1  0  0  0  0
 12 13  1  0  0  0  0
 12 31  1  0  0  0  0
 13 19  1  0  0  0  0
 13 14  1  0  0  0  0
 13 32  1  0  0  0  0
 14 15  1  0  0  0  0
 14 33  1  0  0  0  0
 14 34  1  0  0  0  0
 15 16  1  0  0  0  0
 15 35  1  0  0  0  0
 15 36  1  0  0  0  0
 16 17  1  0  0  0  0
 16 37  1  0  0  0  0
 16 38  1  0  0  0  0
 17 18  1  0  0  0  0
 17 19  1  0  0  0  0
 17 39  1  0  0  0  0
 18 40  1  0  0  0  0
 18 41  1  0  0  0  0
 18 42  1  0  0  0  0
 19 20  1  0  0  0  0
 19 43  1  0  0  0  0
 20 44  1  0  0  0  0
 20 45  1  0  0  0  0
 20 46  1  0  0  0  0
 21 22  2  0  0  0  0
 21 47  1  0  0  0  0
M  END
> <s_m_source_file>
AV-unprocessed.smi

> <i_m_source_file_index>
2702

> <i_lp_mmshare_version>
43012

> <i_f3d_flags>
0

> <s_epik_input>
W0NIM11PW0NIMl1jMVtjSF1jKD1PKW4oW2NIXW4xKVtDSDJdQyg9TylbTkhdW0NAQEhdMltDSDJdW0NIMl1bQ0gyXVtDQEBIXShbQ0gzXSlbQ0BIXTJbQ0gzXQ==

> <s_epik_cmdline>
J2VwaWtfcHl0aG9uJywgJy1waCcsICc3LjAnLCAnLXRuJywgJzgnLCAnLW1hJywgJzIwMCcsICctbWV0YWxfYmluZGluZycsICctaW1hZScsICc8aW5maWxlLm1hZT4nLCAnLW9tYWUnLCAnPG91dGZpbGUubWFlPic=

> <r_lp_tautomer_probability>
1

> <r_epik_Ionization_Penalty>
1.22164e-06

> <r_epik_Ionization_Penalty_Charging>
3.17988e-07

> <r_epik_Ionization_Penalty_Neutral>
9.03656e-07

> <r_epik_State_Penalty>
-0

> <r_epik_Charging_Adjusted_Penalty>
3.17988e-07

> <i_epik_Tot_Q>
0

> <i_epik_Tot_abs_Q>
0

> <r_epik_Metal_State_Penalty>
-0

> <b_epik_Metal_Only>
0

> <s_lp_Force_Field>
OPLS_2005

> <r_lp_Energy>
16.9419

> <b_lp_Chiralities_Consistent>
1

> <s_lp_Variant>
AV-unprocessed.smi:2702-5

> <Gold.Version>
5.8.1

> <Gold.Id.Protein>
6NUR|6NUR_protein|mol2

> <Gold.PLP.Fitness>
43.6319

> <Gold.PLP.PLP>
-34.8481

> <Gold.PLP.part.hbond>
-3.7833

> <Gold.PLP.part.metal>
0.0000

> <Gold.PLP.part.buried>
-3.7267

> <Gold.PLP.part.nonpolar>
-27.4441

> <Gold.PLP.part.repulsive>
0.1316

> <Gold.PLP.ligand.clash>
0.0000

> <Gold.PLP.ligand.torsion>
0.1259

> <Gold.PLP.Chemscore.Hbond>
2.9965

> <Gold.PLP.Chemscore.CHOScore>
0.0000

> <Gold.PLP.Chemscore.Metal>
0.0000

> <Gold.Chemscore.Hbonds>
donor molecule, donor type, donor heavy atom, donor atom, acceptor molecule, acceptor atom, score
      P1  H  6896  6907       L1     7  0.99
      P1  H  6931  6943       L1    11  0.88
      P1  H  6934  6947       L1    11  0.16
      P1  H  7989  7998       L1     2  0.91

> <Gold.PLP.Chemscore.Internal.Correction>
0.0462

> <Gold.Rescore>
     Score         DG    S(hbond)    S(metal)    S(lipo)     H(rot)  DE(clash)    DE(int)     intcor
     17.28     -19.04       2.75        0.00      79.59       1.93       0.09       1.67       ----

> <Gold.Chemscore.Fitness>
17.2813

> <Gold.Chemscore.DG>
-19.0399

> <Gold.Chemscore.ZeroCoef>
-5.4800

> <Gold.Chemscore.Hbond>
2.7500

> <Gold.Chemscore.Metal>
0.0000

> <Gold.Chemscore.Lipo>
79.5856

> <Gold.Chemscore.Internal_Hbond>
0.0000

> <Gold.Chemscore.DEClash>
0.0884

> <Gold.Chemscore.DEInternal>
1.6701

> <Gold.Chemscore.Rot>
1.9284

> <Gold.Chemscore.Internal.Correction>
   9.000000E+99

> <Gold.Chemscore.Hbonds>
donor molecule, donor type, donor heavy atom, donor atom, acceptor molecule, acceptor atom, score
      P1  H  6896  6907       L1     7  0.93
      P1  H  6931  6943       L1    11  0.83
      P1  H  6934  6947       L1    11  0.02
      P1  H  7989  7998       L1     2  0.39

> <Gold.Chemscore.Hbond.Weighted>
-9.1851

> <Gold.Chemscore.Metal.Weighted>
-0.0000

> <Gold.Chemscore.Lipo.Weighted>
-9.3115

> <Gold.Chemscore.Internal_Hbond.Weighted>
0.0000

> <Gold.Chemscore.DEClash.Weighted>
0.0884

> <Gold.Chemscore.DEInternal.Weighted>
1.6701

> <Gold.Chemscore.Rot.Weighted>
4.9368

> <Gold.Chemscore.Internal.Correction.Weighted>
   9.000000E+99

> <Gold.Protein.RotatedTorsions>
[ 6907 6896 6895 6894 ] final  -48.45 input  -60.11 | X-H torsion
[ 7974 7965 7964 7962 ] final -147.80 input  175.53 | X-H torsion
[ 8008 7997 7996 7995 ] final  -99.95 input   59.86 | X-H torsion
[ 10167 10162 10161 10158 ] final  -42.42 input  -65.29 | X-H torsion
[ 10718 10713 10712 10709 ] final  111.55 input   66.30 | X-H torsion
[ 10763 10752 10751 10750 ] final -108.01 input  -60.55 | X-H torsion
[ 11005 11000 10999 10996 ] final  -50.01 input  -57.11 | X-H torsion

> <Gold.Protein.ActiveResidues>
 VAL166  LYS551  ARG553  GLY616  TRP617  ASP618  TYR619  PRO620  LYS621  CYS622 
 ASP623  PHE694  ASN695  SER759  ASP760  ASP761  ALA762  ILE779  LEU786  VAL792 
 PHE793  MET794  SER795  GLU796  ALA797  LYS798  CYS799  TRP800  GLU811  SER814 

> <Gold.Protein.RotatedAtoms>
  150.8904  134.8307  159.7288 H   0  0  0  0  0  0  0  0  0  0  0  0  # atno 6907 bound_to 6896
  152.4833  134.4657  159.9629 H   0  0  0  0  0  0  0  0  0  0  0  0  # atno 6908 bound_to 6896
  151.4721  133.3528  159.2860 H   0  0  0  0  0  0  0  0  0  0  0  0  # atno 6909 bound_to 6896
  144.8070  140.5279  143.5668 H   0  0  0  0  0  0  0  0  0  0  0  0  # atno 7974 bound_to 7965
  154.8219  140.0444  157.1416 H   0  0  0  0  0  0  0  0  0  0  0  0  # atno 8008 bound_to 7997
  154.9250  140.3032  155.5176 H   0  0  0  0  0  0  0  0  0  0  0  0  # atno 8009 bound_to 7997
  156.2981  140.2333  156.4304 H   0  0  0  0  0  0  0  0  0  0  0  0  # atno 8010 bound_to 7997
  140.6970  143.3039  151.3206 H   0  0  0  0  0  0  0  0  0  0  0  0  # atno 10167 bound_to 10162
  157.6439  131.0952  150.6765 H   0  0  0  0  0  0  0  0  0  0  0  0  # atno 10718 bound_to 10713
  154.8110  135.4653  154.0516 H   0  0  0  0  0  0  0  0  0  0  0  0  # atno 10763 bound_to 10752
  153.1947  135.6860  153.8314 H   0  0  0  0  0  0  0  0  0  0  0  0  # atno 10764 bound_to 10752
  153.7819  135.3255  155.3344 H   0  0  0  0  0  0  0  0  0  0  0  0  # atno 10765 bound_to 10752
  141.0792  133.6658  156.3669 H   0  0  0  0  0  0  0  0  0  0  0  0  # atno 11005 bound_to 11000
  145.5415  139.1475  143.3444 LP  0  0  0  0  0  0  0  0  0  0  0  0  # atno 17320 bound_to 7965
  146.2362  140.5555  142.8953 LP  0  0  0  0  0  0  0  0  0  0  0  0  # atno 17321 bound_to 7965
  139.6437  144.0491  152.2574 LP  0  0  0  0  0  0  0  0  0  0  0  0  # atno 17342 bound_to 10162
  140.0005  144.6297  150.7734 LP  0  0  0  0  0  0  0  0  0  0  0  0  # atno 17343 bound_to 10162
  156.7084  130.4644  149.5554 LP  0  0  0  0  0  0  0  0  0  0  0  0  # atno 17370 bound_to 10713
  156.1746  130.6459  151.0879 LP  0  0  0  0  0  0  0  0  0  0  0  0  # atno 17371 bound_to 10713
  140.5507  134.6031  157.5407 LP  0  0  0  0  0  0  0  0  0  0  0  0  # atno 17394 bound_to 11000
  139.9605  134.7461  156.0248 LP  0  0  0  0  0  0  0  0  0  0  0  0  # atno 17395 bound_to 11000

$$$$
