AV-unprocessed.smi:1078|AV-procd|sdf|4703|dock5
  -GOLD-   22720 3223D 1   1.00000     0.00000
 Structure written by MMmdl.
 40 41  0  0  0  0  0  0  0  0  2 V2000
  147.0604  141.8552  155.4036 C   0  0  0  0  0  0  0  0  0  0  0  0
  148.4339  141.1895  155.5955 C   0  0  1  0  0  0  0  0  0  0  0  0
  148.9942  140.5936  154.2823 C   0  0  0  0  0  0  0  0  0  0  0  0
  150.1165  139.6968  154.4941 N   0  0  0  0  0  0  0  0  0  0  0  0
  150.1782  138.3342  154.2887 C   0  0  0  0  0  0  0  0  0  0  0  0
  151.4413  137.9315  154.6150 C   0  0  0  0  0  0  0  0  0  0  0  0
  152.0904  139.1360  155.0060 C   0  0  0  0  0  0  0  0  0  0  0  0
  151.2959  140.1916  154.9282 N   0  0  0  0  0  0  0  0  0  0  0  0
  149.3718  142.1735  156.1812 N   0  3  0  0  0  0  0  0  0  0  0  0
  149.5497  142.0928  157.6471 C   0  0  0  0  0  0  0  0  0  0  0  0
  150.8624  142.7641  158.0918 C   0  0  0  0  0  0  0  0  0  0  0  0
  151.5058  141.9944  159.2635 C   0  0  0  0  0  0  0  0  0  0  0  0
  152.8195  142.6484  159.7218 C   0  0  0  0  0  0  0  0  0  0  0  0
  152.6050  144.1211  160.1015 C   0  0  0  0  0  0  0  0  0  0  0  0
  151.9643  144.9017  158.9442 C   0  0  0  0  0  0  0  0  0  0  0  0
  150.6529  144.2433  158.4858 C   0  0  0  0  0  0  0  0  0  0  0  0
  146.3070  141.1384  155.0758 H   0  0  0  0  0  0  0  0  0  0  0  0
  147.1070  142.6523  154.6609 H   0  0  0  0  0  0  0  0  0  0  0  0
  146.7018  142.2906  156.3370 H   0  0  0  0  0  0  0  0  0  0  0  0
  148.3037  140.3848  156.3208 H   0  0  0  0  0  0  0  0  0  0  0  0
  148.2124  140.0428  153.7575 H   0  0  0  0  0  0  0  0  0  0  0  0
  149.3266  141.3824  153.6071 H   0  0  0  0  0  0  0  0  0  0  0  0
  149.3285  137.7695  153.9338 H   0  0  0  0  0  0  0  0  0  0  0  0
  151.8420  136.9291  154.5775 H   0  0  0  0  0  0  0  0  0  0  0  0
  153.1082  139.2737  155.3402 H   0  0  0  0  0  0  0  0  0  0  0  0
  150.2714  142.0796  155.7316 H   0  0  0  0  0  0  0  0  0  0  0  0
  148.7012  142.5578  158.1509 H   0  0  0  0  0  0  0  0  0  0  0  0
  149.5606  141.0441  157.9438 H   0  0  0  0  0  0  0  0  0  0  0  0
  151.5605  142.7282  157.2536 H   0  0  0  0  0  0  0  0  0  0  0  0
  150.8105  141.9511  160.1032 H   0  0  0  0  0  0  0  0  0  0  0  0
  151.6999  140.9615  158.9717 H   0  0  0  0  0  0  0  0  0  0  0  0
  153.2294  142.1022  160.5719 H   0  0  0  0  0  0  0  0  0  0  0  0
  153.5605  142.5805  158.9241 H   0  0  0  0  0  0  0  0  0  0  0  0
  151.9648  144.1822  160.9825 H   0  0  0  0  0  0  0  0  0  0  0  0
  153.5561  144.5772  160.3776 H   0  0  0  0  0  0  0  0  0  0  0  0
  151.7758  145.9308  159.2514 H   0  0  0  0  0  0  0  0  0  0  0  0
  152.6612  144.9521  158.1066 H   0  0  0  0  0  0  0  0  0  0  0  0
  150.2457  144.8069  157.6461 H   0  0  0  0  0  0  0  0  0  0  0  0
  149.9156  144.3107  159.2870 H   0  0  0  0  0  0  0  0  0  0  0  0
  149.0090  143.0939  155.9775 H   0  0  0  0  0  0  0  0  0  0  0  0
  1  2  1  0  0  0  0
  1 17  1  0  0  0  0
  1 18  1  0  0  0  0
  1 19  1  0  0  0  0
  2  3  1  0  0  0  0
  2  9  1  0  0  0  0
  2 20  1  0  0  0  0
  3  4  1  0  0  0  0
  3 21  1  0  0  0  0
  3 22  1  0  0  0  0
  4  8  1  0  0  0  0
  4  5  1  0  0  0  0
  5  6  2  0  0  0  0
  5 23  1  0  0  0  0
  6  7  1  0  0  0  0
  6 24  1  0  0  0  0
  7  8  2  0  0  0  0
  7 25  1  0  0  0  0
  9 10  1  0  0  0  0
  9 26  1  0  0  0  0
  9 40  1  0  0  0  0
 10 11  1  0  0  0  0
 10 27  1  0  0  0  0
 10 28  1  0  0  0  0
 11 16  1  0  0  0  0
 11 12  1  0  0  0  0
 11 29  1  0  0  0  0
 12 13  1  0  0  0  0
 12 30  1  0  0  0  0
 12 31  1  0  0  0  0
 13 14  1  0  0  0  0
 13 32  1  0  0  0  0
 13 33  1  0  0  0  0
 14 15  1  0  0  0  0
 14 34  1  0  0  0  0
 14 35  1  0  0  0  0
 15 16  1  0  0  0  0
 15 36  1  0  0  0  0
 15 37  1  0  0  0  0
 16 38  1  0  0  0  0
 16 39  1  0  0  0  0
M  CHG  1   9   1
M  END
> <s_m_source_file>
AV-unprocessed.smi

> <i_m_source_file_index>
1078

> <i_lp_mmshare_version>
43012

> <i_f3d_flags>
0

> <s_epik_input>
bjFbY0hdW2NIXVtjSF1uMVtDSDJdW0NAQEhdKFtDSDNdKVtOSF1bQ0gyXVtDSF0yW0NIMl1bQ0gyXVtDSDJdW0NIMl1bQ0gyXTI=

> <s_epik_cmdline>
J2VwaWtfcHl0aG9uJywgJy1waCcsICc3LjAnLCAnLXRuJywgJzgnLCAnLW1hJywgJzIwMCcsICctbWV0YWxfYmluZGluZycsICctaW1hZScsICc8aW5maWxlLm1hZT4nLCAnLW9tYWUnLCAnPG91dGZpbGUubWFlPic=

> <r_lp_tautomer_probability>
1

> <r_epik_Ionization_Penalty>
0.00174474

> <r_epik_Ionization_Penalty_Charging>
0.00174052

> <r_epik_Ionization_Penalty_Neutral>
4.21324e-06

> <r_epik_State_Penalty>
0.00117783

> <r_epik_Charging_Adjusted_Penalty>
0.00291835

> <i_epik_Tot_Q>
1

> <i_epik_Tot_abs_Q>
1

> <r_epik_Metal_State_Penalty>
-0

> <b_epik_Metal_Only>
0

> <s_lp_Force_Field>
OPLS_2005

> <r_lp_Energy>
15.419

> <b_lp_Chiralities_Consistent>
1

> <s_lp_Variant>
AV-unprocessed.smi:1078-2

> <Gold.Version>
5.8.1

> <Gold.Id.Protein>
6NUR|6NUR_protein|mol2

> <Gold.PLP.Fitness>
48.6114

> <Gold.PLP.PLP>
-39.4898

> <Gold.PLP.part.hbond>
-2.0000

> <Gold.PLP.part.metal>
0.0000

> <Gold.PLP.part.buried>
-3.2997

> <Gold.PLP.part.nonpolar>
-34.6780

> <Gold.PLP.part.repulsive>
0.1469

> <Gold.PLP.ligand.clash>
0.0000

> <Gold.PLP.ligand.torsion>
1.2645

> <Gold.PLP.Chemscore.Hbond>
2.9500

> <Gold.PLP.Chemscore.CHOScore>
0.9227

> <Gold.PLP.Chemscore.Metal>
0.0000

> <Gold.Chemscore.Hbonds>
donor molecule, donor type, donor heavy atom, donor atom, acceptor molecule, acceptor atom, score
      L1  H     9    40       P1  8028  2.00
      P1  H  7989  7998       L1     8  0.70
      L1  C     5    23       P1  7948  0.87

> <Gold.PLP.Chemscore.Internal.Correction>
0.0324

> <Gold.Rescore>
     Score         DG    S(hbond)    S(metal)    S(lipo)     H(rot)  DE(clash)    DE(int)     intcor
     18.87     -20.31       1.72        0.00     111.17       1.54       0.22       1.22       ----

> <Gold.Chemscore.Fitness>
18.8684

> <Gold.Chemscore.DG>
-20.3095

> <Gold.Chemscore.ZeroCoef>
-5.4800

> <Gold.Chemscore.Hbond>
1.7243

> <Gold.Chemscore.Metal>
0.0000

> <Gold.Chemscore.Lipo>
111.1714

> <Gold.Chemscore.Internal_Hbond>
0.0000

> <Gold.Chemscore.DEClash>
0.2207

> <Gold.Chemscore.DEInternal>
1.2204

> <Gold.Chemscore.Rot>
1.5378

> <Gold.Chemscore.Internal.Correction>
   9.000000E+99

> <Gold.Chemscore.Hbonds>
donor molecule, donor type, donor heavy atom, donor atom, acceptor molecule, acceptor atom, score
      L1  H     9    40       P1  8028  1.00
      P1  H  7989  7998       L1     8  0.04

> <Gold.Chemscore.Hbond.Weighted>
-5.7592

> <Gold.Chemscore.Metal.Weighted>
-0.0000

> <Gold.Chemscore.Lipo.Weighted>
-13.0071

> <Gold.Chemscore.Internal_Hbond.Weighted>
0.0000

> <Gold.Chemscore.DEClash.Weighted>
0.2207

> <Gold.Chemscore.DEInternal.Weighted>
1.2204

> <Gold.Chemscore.Rot.Weighted>
3.9368

> <Gold.Chemscore.Internal.Correction.Weighted>
   9.000000E+99

> <Gold.Protein.RotatedTorsions>
[ 6907 6896 6895 6894 ] final  -28.54 input  -60.11 | X-H torsion
[ 7974 7965 7964 7962 ] final   36.29 input  175.53 | X-H torsion
[ 8008 7997 7996 7995 ] final -165.78 input   59.86 | X-H torsion
[ 10167 10162 10161 10158 ] final -135.08 input  -65.29 | X-H torsion
[ 10718 10713 10712 10709 ] final -145.05 input   66.30 | X-H torsion
[ 10763 10752 10751 10750 ] final    2.34 input  -60.55 | X-H torsion
[ 11005 11000 10999 10996 ] final   64.17 input  -57.11 | X-H torsion

> <Gold.Protein.ActiveResidues>
 VAL166  LYS551  ARG553  GLY616  TRP617  ASP618  TYR619  PRO620  LYS621  CYS622 
 ASP623  PHE694  ASN695  SER759  ASP760  ASP761  ALA762  ILE779  LEU786  VAL792 
 PHE793  MET794  SER795  GLU796  ALA797  LYS798  CYS799  TRP800  GLU811  SER814 

> <Gold.Protein.RotatedAtoms>
  151.1315  135.0132  159.8584 H   0  0  0  0  0  0  0  0  0  0  0  0  # atno 6907 bound_to 6896
  152.5451  134.1605  159.8566 H   0  0  0  0  0  0  0  0  0  0  0  0  # atno 6908 bound_to 6896
  151.1672  133.4762  159.2627 H   0  0  0  0  0  0  0  0  0  0  0  0  # atno 6909 bound_to 6896
  146.1222  139.6036  142.9282 H   0  0  0  0  0  0  0  0  0  0  0  0  # atno 7974 bound_to 7965
  155.8546  140.0968  157.1653 H   0  0  0  0  0  0  0  0  0  0  0  0  # atno 8008 bound_to 7997
  154.3987  140.1376  156.3948 H   0  0  0  0  0  0  0  0  0  0  0  0  # atno 8009 bound_to 7997
  155.7924  140.3455  155.5359 H   0  0  0  0  0  0  0  0  0  0  0  0  # atno 8010 bound_to 7997
  139.8815  143.6833  152.2626 H   0  0  0  0  0  0  0  0  0  0  0  0  # atno 10167 bound_to 10162
  156.3776  130.7820  151.2009 H   0  0  0  0  0  0  0  0  0  0  0  0  # atno 10718 bound_to 10713
  153.2968  135.6953  153.7241 H   0  0  0  0  0  0  0  0  0  0  0  0  # atno 10763 bound_to 10752
  153.6171  135.3434  155.2999 H   0  0  0  0  0  0  0  0  0  0  0  0  # atno 10764 bound_to 10752
  154.8539  135.4377  154.2067 H   0  0  0  0  0  0  0  0  0  0  0  0  # atno 10765 bound_to 10752
  139.9976  134.6492  155.9984 H   0  0  0  0  0  0  0  0  0  0  0  0  # atno 11005 bound_to 11000
  145.5442  141.0418  143.2314 LP  0  0  0  0  0  0  0  0  0  0  0  0  # atno 17320 bound_to 7965
  144.7608  139.6962  143.7235 LP  0  0  0  0  0  0  0  0  0  0  0  0  # atno 17321 bound_to 7965
  139.7191  144.7606  151.0985 LP  0  0  0  0  0  0  0  0  0  0  0  0  # atno 17342 bound_to 10162
  140.7743  143.5231  150.9513 LP  0  0  0  0  0  0  0  0  0  0  0  0  # atno 17343 bound_to 10162
  157.7489  131.0353  150.4359 LP  0  0  0  0  0  0  0  0  0  0  0  0  # atno 17370 bound_to 10713
  156.4597  130.4029  149.6584 LP  0  0  0  0  0  0  0  0  0  0  0  0  # atno 17371 bound_to 10713
  141.1617  133.6538  156.4340 LP  0  0  0  0  0  0  0  0  0  0  0  0  # atno 17394 bound_to 11000
  140.4788  134.6684  157.5162 LP  0  0  0  0  0  0  0  0  0  0  0  0  # atno 17395 bound_to 11000

$$$$
