AV-unprocessed.smi:2741|AV-procd|sdf|10560|dock7
  -GOLD-   2272015 13D 1   1.00000     0.00000
 Structure written by MMmdl.
 39 40  0  0  0  0  0  0  0  0  1 V2000
  150.4423  140.4806  158.4314 O   0  0  0  0  0  0  0  0  0  0  0  0
  150.6622  141.4614  157.7193 C   0  0  0  0  0  0  0  0  0  0  0  0
  151.0382  142.8165  158.3361 C   0  0  0  0  0  0  0  0  0  0  0  0
  151.8276  142.6958  159.5735 N   0  0  0  0  0  0  0  0  0  0  0  0
  152.8036  141.6807  159.6156 C   0  0  0  0  0  0  0  0  0  0  0  0
  153.5767  141.4512  160.6943 C   0  0  0  0  0  0  0  0  0  0  0  0
  154.6549  140.3788  160.6890 C   0  0  0  0  0  0  0  0  0  0  0  0
  155.6308  140.6803  159.8321 F   0  0  0  0  0  0  0  0  0  0  0  0
  155.1886  140.2670  161.9044 F   0  0  0  0  0  0  0  0  0  0  0  0
  154.1494  139.1929  160.3476 F   0  0  0  0  0  0  0  0  0  0  0  0
  153.3822  142.3346  161.8271 C   0  0  0  0  0  0  0  0  0  0  0  0
  152.4577  143.3146  161.8010 C   0  0  0  0  0  0  0  0  0  0  0  0
  151.6079  143.5362  160.6288 C   0  0  0  0  0  0  0  0  0  0  0  0
  150.7528  144.4216  160.5970 O   0  0  0  0  0  0  0  0  0  0  0  0
  150.6104  141.4211  156.3793 N   0  0  0  0  0  0  0  0  0  0  0  0
  150.2820  140.2405  155.5876 C   0  0  0  0  0  0  0  0  0  0  0  0
  149.2862  140.5584  154.4556 C   0  0  2  0  0  0  0  0  0  0  0  0
  148.3489  141.7477  154.7401 C   0  0  0  0  0  0  0  0  0  0  0  0
  146.9827  141.3853  154.1350 C   0  0  0  0  0  0  0  0  0  0  0  0
  147.1994  140.0719  153.3774 C   0  0  2  0  0  0  0  0  0  0  0  0
  146.0362  139.2722  153.3506 O   0  0  0  0  0  0  0  0  0  0  0  0
  148.3484  139.3955  154.1218 C   0  0  0  0  0  0  0  0  0  0  0  0
  151.5865  143.3896  157.5871 H   0  0  0  0  0  0  0  0  0  0  0  0
  150.1295  143.3915  158.5246 H   0  0  0  0  0  0  0  0  0  0  0  0
  152.8811  141.0933  158.7121 H   0  0  0  0  0  0  0  0  0  0  0  0
  153.9838  142.2061  162.7148 H   0  0  0  0  0  0  0  0  0  0  0  0
  152.3379  143.9522  162.6645 H   0  0  0  0  0  0  0  0  0  0  0  0
  150.8093  142.2704  155.8703 H   0  0  0  0  0  0  0  0  0  0  0  0
  151.1941  139.8034  155.1776 H   0  0  0  0  0  0  0  0  0  0  0  0
  149.8586  139.4925  156.2587 H   0  0  0  0  0  0  0  0  0  0  0  0
  149.8468  140.7881  153.5478 H   0  0  0  0  0  0  0  0  0  0  0  0
  148.2399  141.9180  155.8119 H   0  0  0  0  0  0  0  0  0  0  0  0
  148.7481  142.6655  154.3069 H   0  0  0  0  0  0  0  0  0  0  0  0
  146.2628  141.2423  154.9423 H   0  0  0  0  0  0  0  0  0  0  0  0
  146.5928  142.1702  153.4862 H   0  0  0  0  0  0  0  0  0  0  0  0
  147.5075  140.2885  152.3535 H   0  0  0  0  0  0  0  0  0  0  0  0
  145.3537  139.7495  152.9041 H   0  0  0  0  0  0  0  0  0  0  0  0
  148.8352  138.6206  153.5291 H   0  0  0  0  0  0  0  0  0  0  0  0
  147.9820  138.9346  155.0410 H   0  0  0  0  0  0  0  0  0  0  0  0
  1  2  2  0  0  0  0
  2  3  1  0  0  0  0
  2 15  1  0  0  0  0
  3  4  1  0  0  0  0
  3 23  1  0  0  0  0
  3 24  1  0  0  0  0
  4 13  1  0  0  0  0
  4  5  1  0  0  0  0
  5  6  2  0  0  0  0
  5 25  1  0  0  0  0
  6  7  1  0  0  0  0
  6 11  1  0  0  0  0
  7  8  1  0  0  0  0
  7  9  1  0  0  0  0
  7 10  1  0  0  0  0
 11 12  2  0  0  0  0
 11 26  1  0  0  0  0
 12 13  1  0  0  0  0
 12 27  1  0  0  0  0
 13 14  2  0  0  0  0
 15 16  1  0  0  0  0
 15 28  1  0  0  0  0
 16 17  1  0  0  0  0
 16 29  1  0  0  0  0
 16 30  1  0  0  0  0
 17 22  1  0  0  0  0
 17 18  1  0  0  0  0
 17 31  1  0  0  0  0
 18 19  1  0  0  0  0
 18 32  1  0  0  0  0
 18 33  1  0  0  0  0
 19 20  1  0  0  0  0
 19 34  1  0  0  0  0
 19 35  1  0  0  0  0
 20 21  1  0  0  0  0
 20 22  1  0  0  0  0
 20 36  1  0  0  0  0
 21 37  1  0  0  0  0
 22 38  1  0  0  0  0
 22 39  1  0  0  0  0
M  END
> <s_m_source_file>
AV-unprocessed.smi

> <i_m_source_file_index>
2741

> <i_lp_mmshare_version>
43012

> <i_f3d_flags>
0

> <s_epik_input>
W09IXVtDQEBIXShbQ0gyXTEpW0NIMl1bQ0gyXVtDQEhdMVtDSDJdW05IXUMoPU8pW0NIMl1uMltjSF1jKEMoRikoRilGKVtjSF1bY0hdYzI9Tw==

> <s_epik_cmdline>
J2VwaWtfcHl0aG9uJywgJy1waCcsICc3LjAnLCAnLXRuJywgJzgnLCAnLW1hJywgJzIwMCcsICctbWV0YWxfYmluZGluZycsICctaW1hZScsICc8aW5maWxlLm1hZT4nLCAnLW9tYWUnLCAnPG91dGZpbGUubWFlPic=

> <r_lp_tautomer_probability>
1

> <r_epik_Ionization_Penalty>
1.17551e-06

> <r_epik_Ionization_Penalty_Charging>
1.78841e-08

> <r_epik_Ionization_Penalty_Neutral>
1.15762e-06

> <r_epik_State_Penalty>
-0

> <r_epik_Charging_Adjusted_Penalty>
1.78841e-08

> <i_epik_Tot_Q>
0

> <i_epik_Tot_abs_Q>
0

> <r_epik_Metal_State_Penalty>
-0

> <b_epik_Metal_Only>
0

> <s_lp_Force_Field>
OPLS_2005

> <r_lp_Energy>
33.0279

> <b_lp_Chiralities_Consistent>
1

> <s_lp_Variant>
AV-unprocessed.smi:2741-3

> <Gold.Version>
5.8.1

> <Gold.Id.Protein>
6NUR|6NUR_protein|mol2

> <Gold.PLP.Fitness>
49.0513

> <Gold.PLP.PLP>
-48.8015

> <Gold.PLP.part.hbond>
-1.0000

> <Gold.PLP.part.metal>
0.0000

> <Gold.PLP.part.buried>
-3.9444

> <Gold.PLP.part.nonpolar>
-44.3858

> <Gold.PLP.part.repulsive>
0.2487

> <Gold.PLP.ligand.clash>
0.1233

> <Gold.PLP.ligand.torsion>
1.3444

> <Gold.PLP.Chemscore.Hbond>
1.0000

> <Gold.PLP.Chemscore.CHOScore>
0.0000

> <Gold.PLP.Chemscore.Metal>
0.0000

> <Gold.Chemscore.Hbonds>
donor molecule, donor type, donor heavy atom, donor atom, acceptor molecule, acceptor atom, score
      L1  H    21    37       P1 10175  1.00

> <Gold.PLP.Chemscore.Internal.Correction>
0.0620

> <Gold.Rescore>
     Score         DG    S(hbond)    S(metal)    S(lipo)     H(rot)  DE(clash)    DE(int)     intcor
     13.30     -14.19       1.00        0.00     100.21       2.48       0.20       0.70       ----

> <Gold.Chemscore.Fitness>
13.2975

> <Gold.Chemscore.DG>
-14.1905

> <Gold.Chemscore.ZeroCoef>
-5.4800

> <Gold.Chemscore.Hbond>
0.9990

> <Gold.Chemscore.Metal>
0.0000

> <Gold.Chemscore.Lipo>
100.2092

> <Gold.Chemscore.Internal_Hbond>
0.0000

> <Gold.Chemscore.DEClash>
0.1953

> <Gold.Chemscore.DEInternal>
0.6977

> <Gold.Chemscore.Rot>
2.4807

> <Gold.Chemscore.Internal.Correction>
   9.000000E+99

> <Gold.Chemscore.Hbonds>
donor molecule, donor type, donor heavy atom, donor atom, acceptor molecule, acceptor atom, score
      L1  H    21    37       P1 10175  1.00

> <Gold.Chemscore.Hbond.Weighted>
-3.3367

> <Gold.Chemscore.Metal.Weighted>
-0.0000

> <Gold.Chemscore.Lipo.Weighted>
-11.7245

> <Gold.Chemscore.Internal_Hbond.Weighted>
0.0000

> <Gold.Chemscore.DEClash.Weighted>
0.1953

> <Gold.Chemscore.DEInternal.Weighted>
0.6977

> <Gold.Chemscore.Rot.Weighted>
6.3507

> <Gold.Chemscore.Internal.Correction.Weighted>
   9.000000E+99

> <Gold.Protein.RotatedTorsions>
[ 6907 6896 6895 6894 ] final  150.27 input  -60.11 | X-H torsion
[ 7974 7965 7964 7962 ] final  129.47 input  175.53 | X-H torsion
[ 8008 7997 7996 7995 ] final -161.51 input   59.86 | X-H torsion
[ 10167 10162 10161 10158 ] final -136.77 input  -65.29 | X-H torsion
[ 10718 10713 10712 10709 ] final   60.27 input   66.30 | X-H torsion
[ 10763 10752 10751 10750 ] final  -42.38 input  -60.55 | X-H torsion
[ 11005 11000 10999 10996 ] final  -93.53 input  -57.11 | X-H torsion

> <Gold.Protein.ActiveResidues>
 VAL166  LYS551  ARG553  GLY616  TRP617  ASP618  TYR619  PRO620  LYS621  CYS622 
 ASP623  PHE694  ASN695  SER759  ASP760  ASP761  ALA762  ILE779  LEU786  VAL792 
 PHE793  MET794  SER795  GLU796  ALA797  LYS798  CYS799  TRP800  GLU811  SER814 

> <Gold.Protein.RotatedAtoms>
  152.1167  133.4330  159.4655 H   0  0  0  0  0  0  0  0  0  0  0  0  # atno 6907 bound_to 6896
  150.6870  134.2584  159.4548 H   0  0  0  0  0  0  0  0  0  0  0  0  # atno 6908 bound_to 6896
  152.0457  134.9684  160.0625 H   0  0  0  0  0  0  0  0  0  0  0  0  # atno 6909 bound_to 6896
  145.0284  139.4068  143.5162 H   0  0  0  0  0  0  0  0  0  0  0  0  # atno 7974 bound_to 7965
  155.7933  140.0881  157.1997 H   0  0  0  0  0  0  0  0  0  0  0  0  # atno 8008 bound_to 7997
  154.3984  140.1486  156.3247 H   0  0  0  0  0  0  0  0  0  0  0  0  # atno 8009 bound_to 7997
  155.8537  140.3433  155.5712 H   0  0  0  0  0  0  0  0  0  0  0  0  # atno 8010 bound_to 7997
  139.8644  143.7036  152.2647 H   0  0  0  0  0  0  0  0  0  0  0  0  # atno 10167 bound_to 10162
  157.5740  130.8929  149.9315 H   0  0  0  0  0  0  0  0  0  0  0  0  # atno 10718 bound_to 10713
  153.9781  135.6720  153.4749 H   0  0  0  0  0  0  0  0  0  0  0  0  # atno 10763 bound_to 10752
  153.0761  135.4948  154.8404 H   0  0  0  0  0  0  0  0  0  0  0  0  # atno 10764 bound_to 10752
  154.7181  135.3111  154.9053 H   0  0  0  0  0  0  0  0  0  0  0  0  # atno 10765 bound_to 10752
  141.1494  133.7894  157.0173 H   0  0  0  0  0  0  0  0  0  0  0  0  # atno 11005 bound_to 11000
  146.3495  139.9820  142.8695 LP  0  0  0  0  0  0  0  0  0  0  0  0  # atno 17320 bound_to 7965
  145.1803  140.9764  143.4270 LP  0  0  0  0  0  0  0  0  0  0  0  0  # atno 17321 bound_to 7965
  139.7343  144.7575  151.0753 LP  0  0  0  0  0  0  0  0  0  0  0  0  # atno 17342 bound_to 10162
  140.7770  143.5050  150.9724 LP  0  0  0  0  0  0  0  0  0  0  0  0  # atno 17343 bound_to 10162
  156.0785  130.3676  150.0629 LP  0  0  0  0  0  0  0  0  0  0  0  0  # atno 17370 bound_to 10713
  156.8777  130.9546  151.3603 LP  0  0  0  0  0  0  0  0  0  0  0  0  # atno 17371 bound_to 10713
  140.0839  134.9632  157.1668 LP  0  0  0  0  0  0  0  0  0  0  0  0  # atno 17394 bound_to 11000
  140.3539  134.2568  155.7195 LP  0  0  0  0  0  0  0  0  0  0  0  0  # atno 17395 bound_to 11000

$$$$
