AV-unprocessed.smi:2523|AV-procd|sdf|9921|dock9
  -GOLD-   2272013563D 1   1.00000     0.00000
 Structure written by MMmdl.
 34 36  0  0  0  0  0  0  0  0  1 V2000
  153.8791  137.1607  156.9504 C   0  0  0  0  0  0  0  0  0  0  0  0
  152.8491  137.9735  156.3077 N   0  0  0  0  0  0  0  0  0  0  0  0
  152.5543  137.6112  154.9882 N   0  0  0  0  0  0  0  0  0  0  0  0
  151.6564  138.2446  154.3002 C   0  0  0  0  0  0  0  0  0  0  0  0
  150.9545  139.3550  154.9368 C   0  0  0  0  0  0  0  0  0  0  0  0
  149.9380  140.2663  154.5389 C   0  0  0  0  0  0  0  0  0  0  0  0
  149.6254  141.1214  155.5108 N   0  0  0  0  0  0  0  0  0  0  0  0
  150.4239  140.7957  156.5600 N   0  0  0  0  0  0  0  0  0  0  0  0
  150.3262  141.5529  157.7984 C   0  0  0  0  0  0  0  0  0  0  0  0
  151.3579  142.6957  157.8838 C   0  0  1  0  0  0  0  0  0  0  0  0
  150.7608  143.9267  157.5229 O   0  0  0  0  0  0  0  0  0  0  0  0
  151.9967  142.7565  159.2622 C   0  0  0  0  0  0  0  0  0  0  0  0
  151.7155  143.8308  160.1348 C   0  0  0  0  0  0  0  0  0  0  0  0
  152.3005  143.8777  161.4150 C   0  0  0  0  0  0  0  0  0  0  0  0
  153.1697  142.8509  161.8304 C   0  0  0  0  0  0  0  0  0  0  0  0
  153.4529  141.7764  160.9650 C   0  0  0  0  0  0  0  0  0  0  0  0
  154.5165  140.5166  161.4735 Cl  0  0  0  0  0  0  0  0  0  0  0  0
  152.8671  141.7289  159.6846 C   0  0  0  0  0  0  0  0  0  0  0  0
  151.2257  139.7264  156.2124 C   0  0  0  0  0  0  0  0  0  0  0  0
  152.2515  138.9939  156.9936 C   0  0  0  0  0  0  0  0  0  0  0  0
  152.5238  139.2945  158.1560 O   0  0  0  0  0  0  0  0  0  0  0  0
  154.7139  137.7833  157.2753 H   0  0  0  0  0  0  0  0  0  0  0  0
  154.2781  136.3993  156.2781 H   0  0  0  0  0  0  0  0  0  0  0  0
  153.4734  136.6492  157.8245 H   0  0  0  0  0  0  0  0  0  0  0  0
  151.4273  137.9602  153.2734 H   0  0  0  0  0  0  0  0  0  0  0  0
  149.4228  140.3353  153.5922 H   0  0  0  0  0  0  0  0  0  0  0  0
  149.3116  141.9360  157.9021 H   0  0  0  0  0  0  0  0  0  0  0  0
  150.4714  140.8631  158.6313 H   0  0  0  0  0  0  0  0  0  0  0  0
  152.1434  142.5075  157.1503 H   0  0  0  0  0  0  0  0  0  0  0  0
  150.1778  143.7744  156.7951 H   0  0  0  0  0  0  0  0  0  0  0  0
  151.0463  144.6203  159.8250 H   0  0  0  0  0  0  0  0  0  0  0  0
  152.0814  144.7013  162.0786 H   0  0  0  0  0  0  0  0  0  0  0  0
  153.6169  142.8884  162.8129 H   0  0  0  0  0  0  0  0  0  0  0  0
  153.0862  140.8994  159.0282 H   0  0  0  0  0  0  0  0  0  0  0  0
  1  2  1  0  0  0  0
  1 22  1  0  0  0  0
  1 23  1  0  0  0  0
  1 24  1  0  0  0  0
  2 20  1  0  0  0  0
  2  3  1  0  0  0  0
  3  4  2  0  0  0  0
  4  5  1  0  0  0  0
  4 25  1  0  0  0  0
  5 19  2  0  0  0  0
  5  6  1  0  0  0  0
  6  7  2  0  0  0  0
  6 26  1  0  0  0  0
  7  8  1  0  0  0  0
  8  9  1  0  0  0  0
  8 19  1  0  0  0  0
  9 10  1  0  0  0  0
  9 27  1  0  0  0  0
  9 28  1  0  0  0  0
 10 11  1  0  0  0  0
 10 12  1  0  0  0  0
 10 29  1  0  0  0  0
 11 30  1  0  0  0  0
 12 18  1  0  0  0  0
 12 13  2  0  0  0  0
 13 14  1  0  0  0  0
 13 31  1  0  0  0  0
 14 15  2  0  0  0  0
 14 32  1  0  0  0  0
 15 16  1  0  0  0  0
 15 33  1  0  0  0  0
 16 17  1  0  0  0  0
 16 18  2  0  0  0  0
 18 34  1  0  0  0  0
 19 20  1  0  0  0  0
 20 21  2  0  0  0  0
M  END
> <s_m_source_file>
AV-unprocessed.smi

> <i_m_source_file_index>
2523

> <i_lp_mmshare_version>
43012

> <i_f3d_flags>
0

> <s_epik_input>
W2NIXTFubihbQ0gzXSljKD1PKWMoYzEyKW4obltjSF0yKVtDSDJdW0NASF0oW09IXSljM1tjSF1bY0hdW2NIXWMoQ2wpW2NIXTM=

> <s_epik_cmdline>
J2VwaWtfcHl0aG9uJywgJy1waCcsICc3LjAnLCAnLXRuJywgJzgnLCAnLW1hJywgJzIwMCcsICctbWV0YWxfYmluZGluZycsICctaW1hZScsICc8aW5maWxlLm1hZT4nLCAnLW9tYWUnLCAnPG91dGZpbGUubWFlPic=

> <r_lp_tautomer_probability>
1

> <r_epik_Ionization_Penalty>
8.52698e-06

> <r_epik_Ionization_Penalty_Charging>
1.65421e-10

> <r_epik_Ionization_Penalty_Neutral>
8.52681e-06

> <r_epik_State_Penalty>
-0

> <r_epik_Charging_Adjusted_Penalty>
1.65421e-10

> <i_epik_Tot_Q>
0

> <i_epik_Tot_abs_Q>
0

> <r_epik_Metal_State_Penalty>
-0

> <b_epik_Metal_Only>
0

> <s_lp_Force_Field>
OPLS_2005

> <r_lp_Energy>
26.9154

> <b_lp_Chiralities_Consistent>
1

> <s_lp_Variant>
AV-unprocessed.smi:2523-2

> <Gold.Version>
5.8.1

> <Gold.Id.Protein>
6NUR|6NUR_protein|mol2

> <Gold.PLP.Fitness>
52.1986

> <Gold.PLP.PLP>
-45.8863

> <Gold.PLP.part.hbond>
-2.0000

> <Gold.PLP.part.metal>
0.0000

> <Gold.PLP.part.buried>
-4.8309

> <Gold.PLP.part.nonpolar>
-39.4416

> <Gold.PLP.part.repulsive>
0.1332

> <Gold.PLP.ligand.clash>
0.0000

> <Gold.PLP.ligand.torsion>
1.1585

> <Gold.PLP.Chemscore.Hbond>
1.2595

> <Gold.PLP.Chemscore.CHOScore>
1.6090

> <Gold.PLP.Chemscore.Metal>
0.0000

> <Gold.Chemscore.Hbonds>
donor molecule, donor type, donor heavy atom, donor atom, acceptor molecule, acceptor atom, score
      L1  H    11    30       P1  8028  0.78
      P1  H 10752 10765       L1     3  0.50
      L1  C     4    25       P1  7949  0.66
      L1  C     6    26       P1  7957  1.00

> <Gold.PLP.Chemscore.Internal.Correction>
0.0236

> <Gold.Rescore>
     Score         DG    S(hbond)    S(metal)    S(lipo)     H(rot)  DE(clash)    DE(int)     intcor
     16.95     -19.55       1.39        0.00     122.90       1.93       0.11       2.50       ----

> <Gold.Chemscore.Fitness>
16.9498

> <Gold.Chemscore.DG>
-19.5534

> <Gold.Chemscore.ZeroCoef>
-5.4800

> <Gold.Chemscore.Hbond>
1.3851

> <Gold.Chemscore.Metal>
0.0000

> <Gold.Chemscore.Lipo>
122.8970

> <Gold.Chemscore.Internal_Hbond>
0.0000

> <Gold.Chemscore.DEClash>
0.1053

> <Gold.Chemscore.DEInternal>
2.4984

> <Gold.Chemscore.Rot>
1.9265

> <Gold.Chemscore.Internal.Correction>
   9.000000E+99

> <Gold.Chemscore.Hbonds>
donor molecule, donor type, donor heavy atom, donor atom, acceptor molecule, acceptor atom, score
      L1  H    11    30       P1  8028  0.79
      P1  H 10752 10765       L1     3  0.42

> <Gold.Chemscore.Hbond.Weighted>
-4.6262

> <Gold.Chemscore.Metal.Weighted>
-0.0000

> <Gold.Chemscore.Lipo.Weighted>
-14.3790

> <Gold.Chemscore.Internal_Hbond.Weighted>
0.0000

> <Gold.Chemscore.DEClash.Weighted>
0.1053

> <Gold.Chemscore.DEInternal.Weighted>
2.4984

> <Gold.Chemscore.Rot.Weighted>
4.9317

> <Gold.Chemscore.Internal.Correction.Weighted>
   9.000000E+99

> <Gold.Protein.RotatedTorsions>
[ 6907 6896 6895 6894 ] final   15.57 input  -60.11 | X-H torsion
[ 7974 7965 7964 7962 ] final -156.28 input  175.53 | X-H torsion
[ 8008 7997 7996 7995 ] final -148.53 input   59.86 | X-H torsion
[ 10167 10162 10161 10158 ] final   44.05 input  -65.29 | X-H torsion
[ 10718 10713 10712 10709 ] final -123.05 input   66.30 | X-H torsion
[ 10763 10752 10751 10750 ] final  173.36 input  -60.55 | X-H torsion
[ 11005 11000 10999 10996 ] final   38.41 input  -57.11 | X-H torsion

> <Gold.Protein.ActiveResidues>
 VAL166  LYS551  ARG553  GLY616  TRP617  ASP618  TYR619  PRO620  LYS621  CYS622 
 ASP623  PHE694  ASN695  SER759  ASP760  ASP761  ALA762  ILE779  LEU786  VAL792 
 PHE793  MET794  SER795  GLU796  ALA797  LYS798  CYS799  TRP800  GLU811  SER814 

> <Gold.Protein.RotatedAtoms>
  151.8201  135.0654  160.0423 H   0  0  0  0  0  0  0  0  0  0  0  0  # atno 6907 bound_to 6896
  152.2957  133.5601  159.5594 H   0  0  0  0  0  0  0  0  0  0  0  0  # atno 6908 bound_to 6896
  150.7250  134.0280  159.3766 H   0  0  0  0  0  0  0  0  0  0  0  0  # atno 6909 bound_to 6896
  144.7600  140.4131  143.5983 H   0  0  0  0  0  0  0  0  0  0  0  0  # atno 7974 bound_to 7965
  155.5931  140.0654  157.2753 H   0  0  0  0  0  0  0  0  0  0  0  0  # atno 8008 bound_to 7997
  154.4299  140.1831  156.1142 H   0  0  0  0  0  0  0  0  0  0  0  0  # atno 8009 bound_to 7997
  156.0217  140.3316  155.7049 H   0  0  0  0  0  0  0  0  0  0  0  0  # atno 8010 bound_to 7997
  140.3382  144.2503  150.6159 H   0  0  0  0  0  0  0  0  0  0  0  0  # atno 10167 bound_to 10162
  156.1470  130.6507  150.9857 H   0  0  0  0  0  0  0  0  0  0  0  0  # atno 10718 bound_to 10713
  154.4390  135.2761  155.1861 H   0  0  0  0  0  0  0  0  0  0  0  0  # atno 10763 bound_to 10752
  154.3735  135.6103  153.5756 H   0  0  0  0  0  0  0  0  0  0  0  0  # atno 10764 bound_to 10752
  152.9840  135.5863  154.4714 H   0  0  0  0  0  0  0  0  0  0  0  0  # atno 10765 bound_to 10752
  140.2129  134.3733  155.8040 H   0  0  0  0  0  0  0  0  0  0  0  0  # atno 11005 bound_to 11000
  145.6650  139.1588  143.2787 LP  0  0  0  0  0  0  0  0  0  0  0  0  # atno 17320 bound_to 7965
  146.1653  140.6727  142.9258 LP  0  0  0  0  0  0  0  0  0  0  0  0  # atno 17321 bound_to 7965
  140.5334  143.2238  151.8202 LP  0  0  0  0  0  0  0  0  0  0  0  0  # atno 17342 bound_to 10162
  139.4845  144.4692  151.9446 LP  0  0  0  0  0  0  0  0  0  0  0  0  # atno 17343 bound_to 10162
  157.6625  131.0878  150.7806 LP  0  0  0  0  0  0  0  0  0  0  0  0  # atno 17370 bound_to 10713
  156.7877  130.4880  149.5390 LP  0  0  0  0  0  0  0  0  0  0  0  0  # atno 17371 bound_to 10713
  141.2226  133.7152  156.8448 LP  0  0  0  0  0  0  0  0  0  0  0  0  # atno 17394 bound_to 11000
  140.1932  134.8951  157.3084 LP  0  0  0  0  0  0  0  0  0  0  0  0  # atno 17395 bound_to 11000

$$$$
