AV-unprocessed.smi:741|AV-procd|sdf|3556|dock5
  -GOLD-   22720 0553D 1   1.00000     0.00000
 Structure written by MMmdl.
 43 44  0  0  0  0  0  0  0  0  3 V2000
  144.4816  135.4187  153.9032 C   0  0  0  0  0  0  0  0  0  0  0  0
  144.2532  136.1078  152.5499 C   0  0  0  0  0  0  0  0  0  0  0  0
  145.4478  135.9928  151.5835 C   0  0  2  0  0  0  0  0  0  0  0  0
  145.9242  134.5280  151.4619 C   0  0  0  0  0  0  0  0  0  0  0  0
  145.5174  133.8900  150.1860 N   0  3  0  0  0  0  0  0  0  0  0  0
  146.0200  132.5086  150.0000 C   0  0  0  0  0  0  0  0  0  0  0  0
  144.8902  131.7063  149.3392 C   0  0  0  0  0  0  0  0  0  0  0  0
  143.8651  132.7523  148.9111 C   0  0  0  0  0  0  0  0  0  0  0  0
  144.0611  133.8636  149.9356 C   0  0  0  0  0  0  0  0  0  0  0  0
  146.5367  136.8593  152.0423 N   0  0  0  0  0  0  0  0  0  0  0  0
  146.4056  138.0912  152.5566 C   0  0  0  0  0  0  0  0  0  0  0  0
  145.3272  138.6761  152.6481 O   0  0  0  0  0  0  0  0  0  0  0  0
  147.5965  138.5951  152.9245 N   0  0  0  0  0  0  0  0  0  0  0  0
  147.8812  139.8499  153.5305 C   0  0  0  0  0  0  0  0  0  0  0  0
  149.0987  139.9727  154.2365 C   0  0  0  0  0  0  0  0  0  0  0  0
  149.4178  141.1923  154.8680 C   0  0  0  0  0  0  0  0  0  0  0  0
  148.5555  142.2291  154.8018 N   0  3  0  0  0  0  0  0  0  0  0  0
  147.3744  142.1558  154.1518 C   0  0  0  0  0  0  0  0  0  0  0  0
  147.0011  140.9620  153.5011 C   0  0  0  0  0  0  0  0  0  0  0  0
  143.6273  135.5722  154.5627 H   0  0  0  0  0  0  0  0  0  0  0  0
  145.3627  135.8200  154.4049 H   0  0  0  0  0  0  0  0  0  0  0  0
  144.6195  134.3433  153.7904 H   0  0  0  0  0  0  0  0  0  0  0  0
  143.3570  135.6969  152.0830 H   0  0  0  0  0  0  0  0  0  0  0  0
  144.0412  137.1617  152.7332 H   0  0  0  0  0  0  0  0  0  0  0  0
  145.0995  136.3306  150.6056 H   0  0  0  0  0  0  0  0  0  0  0  0
  147.0131  134.5099  151.5326 H   0  0  0  0  0  0  0  0  0  0  0  0
  145.5543  133.9306  152.2966 H   0  0  0  0  0  0  0  0  0  0  0  0
  146.9094  132.5367  149.3699 H   0  0  0  0  0  0  0  0  0  0  0  0
  146.3008  132.0490  150.9490 H   0  0  0  0  0  0  0  0  0  0  0  0
  145.2397  131.0997  148.5036 H   0  0  0  0  0  0  0  0  0  0  0  0
  144.4423  131.0333  150.0716 H   0  0  0  0  0  0  0  0  0  0  0  0
  144.1048  133.1221  147.9132 H   0  0  0  0  0  0  0  0  0  0  0  0
  142.8457  132.3658  148.8927 H   0  0  0  0  0  0  0  0  0  0  0  0
  143.5292  133.6114  150.8545 H   0  0  0  0  0  0  0  0  0  0  0  0
  143.6853  134.8236  149.5824 H   0  0  0  0  0  0  0  0  0  0  0  0
  147.4658  136.4657  151.9997 H   0  0  0  0  0  0  0  0  0  0  0  0
  148.4034  138.0279  152.7084 H   0  0  0  0  0  0  0  0  0  0  0  0
  149.7885  139.1429  154.2933 H   0  0  0  0  0  0  0  0  0  0  0  0
  150.3284  141.3674  155.4221 H   0  0  0  0  0  0  0  0  0  0  0  0
  146.7635  143.0464  154.1770 H   0  0  0  0  0  0  0  0  0  0  0  0
  146.0428  140.9216  153.0066 H   0  0  0  0  0  0  0  0  0  0  0  0
  145.9242  134.4318  149.4368 H   0  0  0  0  0  0  0  0  0  0  0  0
  148.8041  143.1026  155.2674 H   0  0  0  0  0  0  0  0  0  0  0  0
  1  2  1  0  0  0  0
  1 20  1  0  0  0  0
  1 21  1  0  0  0  0
  1 22  1  0  0  0  0
  2  3  1  0  0  0  0
  2 23  1  0  0  0  0
  2 24  1  0  0  0  0
  3  4  1  0  0  0  0
  3 10  1  0  0  0  0
  3 25  1  0  0  0  0
  4  5  1  0  0  0  0
  4 26  1  0  0  0  0
  4 27  1  0  0  0  0
  5  9  1  0  0  0  0
  5  6  1  0  0  0  0
  5 42  1  0  0  0  0
  6  7  1  0  0  0  0
  6 28  1  0  0  0  0
  6 29  1  0  0  0  0
  7  8  1  0  0  0  0
  7 30  1  0  0  0  0
  7 31  1  0  0  0  0
  8  9  1  0  0  0  0
  8 32  1  0  0  0  0
  8 33  1  0  0  0  0
  9 34  1  0  0  0  0
  9 35  1  0  0  0  0
 10 11  1  0  0  0  0
 10 36  1  0  0  0  0
 11 12  2  0  0  0  0
 11 13  1  0  0  0  0
 13 14  1  0  0  0  0
 13 37  1  0  0  0  0
 14 19  1  0  0  0  0
 14 15  2  0  0  0  0
 15 16  1  0  0  0  0
 15 38  1  0  0  0  0
 16 17  2  0  0  0  0
 16 39  1  0  0  0  0
 17 18  1  0  0  0  0
 17 43  1  0  0  0  0
 18 19  2  0  0  0  0
 18 40  1  0  0  0  0
 19 41  1  0  0  0  0
M  CHG  1   5   1
M  CHG  1  17   1
M  END
> <s_m_source_file>
AV-unprocessed.smi

> <i_m_source_file_index>
741

> <i_lp_mmshare_version>
43012

> <i_f3d_flags>
0

> <s_epik_input>
W0NIMl0xW0NIMl1bQ0gyXVtDSDJdTjFbQ0gyXVtDQEBIXShbQ0gyXVtDSDNdKVtOSF1DKD1PKVtOSF1jMltjSF1bY0hdbltjSF1bY0hdMg==

> <s_epik_cmdline>
J2VwaWtfcHl0aG9uJywgJy1waCcsICc3LjAnLCAnLXRuJywgJzgnLCAnLW1hJywgJzIwMCcsICctbWV0YWxfYmluZGluZycsICctaW1hZScsICc8aW5maWxlLm1hZT4nLCAnLW9tYWUnLCAnPG91dGZpbGUubWFlPic=

> <r_epik_Ionization_Penalty>
1.10771

> <r_epik_Ionization_Penalty_Charging>
1.10769

> <r_epik_Ionization_Penalty_Neutral>
1.91663e-05

> <r_epik_State_Penalty>
1.16347

> <r_epik_Charging_Adjusted_Penalty>
2.27116

> <i_epik_Tot_Q>
2

> <i_epik_Tot_abs_Q>
2

> <r_epik_Metal_State_Penalty>
1.24871

> <b_epik_Metal_Only>
0

> <s_lp_Force_Field>
OPLS_2005

> <r_lp_Energy>
49.4114

> <b_lp_Chiralities_Consistent>
1

> <s_lp_Variant>
AV-unprocessed.smi:741-3

> <Gold.Version>
5.8.1

> <Gold.Id.Protein>
6NUR|6NUR_protein|mol2

> <Gold.PLP.Fitness>
42.9828

> <Gold.PLP.PLP>
-30.7468

> <Gold.PLP.part.hbond>
-4.8334

> <Gold.PLP.part.metal>
0.0000

> <Gold.PLP.part.buried>
-0.2573

> <Gold.PLP.part.nonpolar>
-32.2758

> <Gold.PLP.part.repulsive>
5.0491

> <Gold.PLP.ligand.clash>
0.0000

> <Gold.PLP.ligand.torsion>
1.0635

> <Gold.PLP.Chemscore.Hbond>
4.7664

> <Gold.PLP.Chemscore.CHOScore>
0.0000

> <Gold.PLP.Chemscore.Metal>
0.0000

> <Gold.Chemscore.Hbonds>
donor molecule, donor type, donor heavy atom, donor atom, acceptor molecule, acceptor atom, score
      L1  H     5    42       P1  7921  1.00
      L1  H    10    36       P1  7948  0.91
      L1  H    13    37       P1  7948  0.84
      L1  H    17    43       P1  8028  2.00

> <Gold.PLP.Chemscore.Internal.Correction>
0.0636

> <Gold.Rescore>
     Score         DG    S(hbond)    S(metal)    S(lipo)     H(rot)  DE(clash)    DE(int)     intcor
     17.25     -24.51       3.59        0.00      95.72       1.63       3.61       3.65       ----

> <Gold.Chemscore.Fitness>
17.2466

> <Gold.Chemscore.DG>
-24.5066

> <Gold.Chemscore.ZeroCoef>
-5.4800

> <Gold.Chemscore.Hbond>
3.5899

> <Gold.Chemscore.Metal>
0.0000

> <Gold.Chemscore.Lipo>
95.7173

> <Gold.Chemscore.Internal_Hbond>
0.0000

> <Gold.Chemscore.DEClash>
3.6051

> <Gold.Chemscore.DEInternal>
3.6548

> <Gold.Chemscore.Rot>
1.6260

> <Gold.Chemscore.Internal.Correction>
   9.000000E+99

> <Gold.Chemscore.Hbonds>
donor molecule, donor type, donor heavy atom, donor atom, acceptor molecule, acceptor atom, score
      L1  H     5    42       P1  7921  0.53
      L1  H    10    36       P1  7948  0.87
      L1  H    13    37       P1  7948  0.78
      L1  H    17    43       P1  8028  0.99

> <Gold.Chemscore.Hbond.Weighted>
-11.9902

> <Gold.Chemscore.Metal.Weighted>
-0.0000

> <Gold.Chemscore.Lipo.Weighted>
-11.1989

> <Gold.Chemscore.Internal_Hbond.Weighted>
0.0000

> <Gold.Chemscore.DEClash.Weighted>
3.6051

> <Gold.Chemscore.DEInternal.Weighted>
3.6548

> <Gold.Chemscore.Rot.Weighted>
4.1626

> <Gold.Chemscore.Internal.Correction.Weighted>
   9.000000E+99

> <Gold.Protein.RotatedTorsions>
[ 6907 6896 6895 6894 ] final    8.99 input  -60.11 | X-H torsion
[ 7974 7965 7964 7962 ] final  150.94 input  175.53 | X-H torsion
[ 8008 7997 7996 7995 ] final -155.20 input   59.86 | X-H torsion
[ 10167 10162 10161 10158 ] final -170.98 input  -65.29 | X-H torsion
[ 10718 10713 10712 10709 ] final   26.39 input   66.30 | X-H torsion
[ 10763 10752 10751 10750 ] final   46.55 input  -60.55 | X-H torsion
[ 11005 11000 10999 10996 ] final   29.11 input  -57.11 | X-H torsion

> <Gold.Protein.ActiveResidues>
 VAL166  LYS551  ARG553  GLY616  TRP617  ASP618  TYR619  PRO620  LYS621  CYS622 
 ASP623  PHE694  ASN695  SER759  ASP760  ASP761  ALA762  ILE779  LEU786  VAL792 
 PHE793  MET794  SER795  GLU796  ALA797  LYS798  CYS799  TRP800  GLU811  SER814 

> <Gold.Protein.RotatedAtoms>
  151.7149  135.0905  160.0273 H   0  0  0  0  0  0  0  0  0  0  0  0  # atno 6907 bound_to 6896
  152.3638  133.6326  159.6043 H   0  0  0  0  0  0  0  0  0  0  0  0  # atno 6908 bound_to 6896
  150.7623  133.9297  159.3464 H   0  0  0  0  0  0  0  0  0  0  0  0  # atno 6909 bound_to 6896
  144.8328  139.6474  143.6051 H   0  0  0  0  0  0  0  0  0  0  0  0  # atno 7974 bound_to 7965
  155.6981  140.0763  157.2421 H   0  0  0  0  0  0  0  0  0  0  0  0  # atno 8008 bound_to 7997
  154.4077  140.1652  156.2214 H   0  0  0  0  0  0  0  0  0  0  0  0  # atno 8009 bound_to 7997
  155.9392  140.3385  155.6316 H   0  0  0  0  0  0  0  0  0  0  0  0  # atno 8010 bound_to 7997
  139.5829  144.1383  152.1538 H   0  0  0  0  0  0  0  0  0  0  0  0  # atno 10167 bound_to 10162
  157.2062  130.6913  149.6209 H   0  0  0  0  0  0  0  0  0  0  0  0  # atno 10718 bound_to 10713
  152.9809  135.6004  154.3618 H   0  0  0  0  0  0  0  0  0  0  0  0  # atno 10763 bound_to 10752
  154.3299  135.2768  155.2479 H   0  0  0  0  0  0  0  0  0  0  0  0  # atno 10764 bound_to 10752
  154.4607  135.5966  153.6309 H   0  0  0  0  0  0  0  0  0  0  0  0  # atno 10765 bound_to 10752
  140.3085  134.2677  155.7739 H   0  0  0  0  0  0  0  0  0  0  0  0  # atno 11005 bound_to 11000
  146.2629  139.6452  142.9349 LP  0  0  0  0  0  0  0  0  0  0  0  0  # atno 17320 bound_to 7965
  145.4860  141.0438  143.2619 LP  0  0  0  0  0  0  0  0  0  0  0  0  # atno 17321 bound_to 7965
  140.0940  144.5596  150.7035 LP  0  0  0  0  0  0  0  0  0  0  0  0  # atno 17342 bound_to 10162
  140.7105  143.2501  151.4596 LP  0  0  0  0  0  0  0  0  0  0  0  0  # atno 17343 bound_to 10162
  155.9695  130.4566  150.5932 LP  0  0  0  0  0  0  0  0  0  0  0  0  # atno 17370 bound_to 10713
  157.3718  131.0767  151.1551 LP  0  0  0  0  0  0  0  0  0  0  0  0  # atno 17371 bound_to 10713
  141.2113  133.7692  156.9872 LP  0  0  0  0  0  0  0  0  0  0  0  0  # atno 17394 bound_to 11000
  140.1046  134.9514  157.1975 LP  0  0  0  0  0  0  0  0  0  0  0  0  # atno 17395 bound_to 11000

$$$$
