AV-unprocessed.smi:3168|AV-procd|sdf|12099|dock5
  -GOLD-   2272017533D 1   1.00000     0.00000
 Structure written by MMmdl.
 33 34  0  0  0  0  0  0  0  0  1 V2000
  151.7732  144.6114  160.2697 C   0  0  0  0  0  0  0  0  0  0  0  0
  152.3422  143.4400  159.4424 C   0  0  2  0  0  0  0  0  0  0  0  0
  151.2521  142.6200  158.7304 C   0  0  0  0  0  0  0  0  0  0  0  0
  150.0613  142.7943  158.9915 O   0  0  0  0  0  0  0  0  0  0  0  0
  151.6789  141.7318  157.8179 N   0  0  0  0  0  0  0  0  0  0  0  0
  150.8267  140.8517  157.0251 C   0  0  0  0  0  0  0  0  0  0  0  0
  151.5818  140.2535  155.8264 C   0  0  2  0  0  0  0  0  0  0  0  0
  150.7921  139.2327  155.0044 C   0  0  0  0  0  0  0  0  0  0  0  0
  151.9012  138.4030  154.4009 C   0  0  0  0  0  0  0  0  0  0  0  0
  152.8917  138.3320  155.5583 C   0  0  0  0  0  0  0  0  0  0  0  0
  152.7410  139.5548  156.2750 O   0  0  0  0  0  0  0  0  0  0  0  0
  153.1984  142.5719  160.2438 N   0  0  0  0  0  0  0  0  0  0  0  0
  153.3752  142.5845  161.6126 C   0  0  0  0  0  0  0  0  0  0  0  0
  154.2929  141.6209  161.9179 C   0  0  0  0  0  0  0  0  0  0  0  0
  154.6356  141.0687  160.6527 C   0  0  0  0  0  0  0  0  0  0  0  0
  153.9859  141.6427  159.6535 N   0  0  0  0  0  0  0  0  0  0  0  0
  151.1939  145.2911  159.6437 H   0  0  0  0  0  0  0  0  0  0  0  0
  152.5763  145.1923  160.7237 H   0  0  0  0  0  0  0  0  0  0  0  0
  151.1213  144.2667  161.0734 H   0  0  0  0  0  0  0  0  0  0  0  0
  152.9683  143.8746  158.6614 H   0  0  0  0  0  0  0  0  0  0  0  0
  152.6738  141.6541  157.6654 H   0  0  0  0  0  0  0  0  0  0  0  0
  150.4882  140.0464  157.6774 H   0  0  0  0  0  0  0  0  0  0  0  0
  149.9260  141.3693  156.6909 H   0  0  0  0  0  0  0  0  0  0  0  0
  151.9239  141.0533  155.1673 H   0  0  0  0  0  0  0  0  0  0  0  0
  150.1746  138.6091  155.6529 H   0  0  0  0  0  0  0  0  0  0  0  0
  150.1461  139.6940  154.2569 H   0  0  0  0  0  0  0  0  0  0  0  0
  151.5696  137.4216  154.0612 H   0  0  0  0  0  0  0  0  0  0  0  0
  152.3456  138.9285  153.5547 H   0  0  0  0  0  0  0  0  0  0  0  0
  152.6367  137.5077  156.2253 H   0  0  0  0  0  0  0  0  0  0  0  0
  153.9184  138.1896  155.2204 H   0  0  0  0  0  0  0  0  0  0  0  0
  152.8385  143.2721  162.2495 H   0  0  0  0  0  0  0  0  0  0  0  0
  154.6657  141.3541  162.8954 H   0  0  0  0  0  0  0  0  0  0  0  0
  155.3352  140.2761  160.4321 H   0  0  0  0  0  0  0  0  0  0  0  0
  1  2  1  0  0  0  0
  1 17  1  0  0  0  0
  1 18  1  0  0  0  0
  1 19  1  0  0  0  0
  2  3  1  0  0  0  0
  2 12  1  0  0  0  0
  2 20  1  0  0  0  0
  3  4  2  0  0  0  0
  3  5  1  0  0  0  0
  5  6  1  0  0  0  0
  5 21  1  0  0  0  0
  6  7  1  0  0  0  0
  6 22  1  0  0  0  0
  6 23  1  0  0  0  0
  7 11  1  0  0  0  0
  7  8  1  0  0  0  0
  7 24  1  0  0  0  0
  8  9  1  0  0  0  0
  8 25  1  0  0  0  0
  8 26  1  0  0  0  0
  9 10  1  0  0  0  0
  9 27  1  0  0  0  0
  9 28  1  0  0  0  0
 10 11  1  0  0  0  0
 10 29  1  0  0  0  0
 10 30  1  0  0  0  0
 12 16  1  0  0  0  0
 12 13  1  0  0  0  0
 13 14  2  0  0  0  0
 13 31  1  0  0  0  0
 14 15  1  0  0  0  0
 14 32  1  0  0  0  0
 15 16  2  0  0  0  0
 15 33  1  0  0  0  0
M  END
> <s_m_source_file>
AV-unprocessed.smi

> <i_m_source_file_index>
3168

> <i_lp_mmshare_version>
43012

> <i_f3d_flags>
0

> <s_epik_input>
bjFbY0hdW2NIXVtjSF1uMVtDQEhdKFtDSDNdKUMoPU8pW05IXVtDSDJdW0NAQEhdMltDSDJdW0NIMl1bQ0gyXU8y

> <s_epik_cmdline>
J2VwaWtfcHl0aG9uJywgJy1waCcsICc3LjAnLCAnLXRuJywgJzgnLCAnLW1hJywgJzIwMCcsICctbWV0YWxfYmluZGluZycsICctaW1hZScsICc8aW5maWxlLm1hZT4nLCAnLW9tYWUnLCAnPG91dGZpbGUubWFlPic=

> <r_lp_tautomer_probability>
1

> <r_epik_Ionization_Penalty>
4.14877e-05

> <r_epik_Ionization_Penalty_Charging>
0

> <r_epik_Ionization_Penalty_Neutral>
4.14877e-05

> <r_epik_State_Penalty>
-0

> <r_epik_Charging_Adjusted_Penalty>
0

> <i_epik_Tot_Q>
0

> <i_epik_Tot_abs_Q>
0

> <r_epik_Metal_State_Penalty>
-0

> <b_epik_Metal_Only>
0

> <s_lp_Force_Field>
OPLS_2005

> <r_lp_Energy>
21.6016

> <b_lp_Chiralities_Consistent>
1

> <s_lp_Variant>
AV-unprocessed.smi:3168-1

> <Gold.Version>
5.8.1

> <Gold.Id.Protein>
6NUR|6NUR_protein|mol2

> <Gold.PLP.Fitness>
43.0197

> <Gold.PLP.PLP>
-40.6301

> <Gold.PLP.part.hbond>
-1.5407

> <Gold.PLP.part.metal>
0.0000

> <Gold.PLP.part.buried>
-4.6674

> <Gold.PLP.part.nonpolar>
-34.1840

> <Gold.PLP.part.repulsive>
0.1701

> <Gold.PLP.ligand.clash>
0.0000

> <Gold.PLP.ligand.torsion>
0.3609

> <Gold.PLP.Chemscore.Hbond>
1.0000

> <Gold.PLP.Chemscore.CHOScore>
0.0000

> <Gold.PLP.Chemscore.Metal>
0.0000

> <Gold.Chemscore.Hbonds>
donor molecule, donor type, donor heavy atom, donor atom, acceptor molecule, acceptor atom, score
      P1  H  7997  8009       L1    11  1.00

> <Gold.PLP.Chemscore.Internal.Correction>
0.1115

> <Gold.Rescore>
     Score         DG    S(hbond)    S(metal)    S(lipo)     H(rot)  DE(clash)    DE(int)     intcor
     13.44     -15.19       0.89        0.00      92.82       1.61       0.12       1.63       ----

> <Gold.Chemscore.Fitness>
13.4429

> <Gold.Chemscore.DG>
-15.1885

> <Gold.Chemscore.ZeroCoef>
-5.4800

> <Gold.Chemscore.Hbond>
0.8890

> <Gold.Chemscore.Metal>
0.0000

> <Gold.Chemscore.Lipo>
92.8159

> <Gold.Chemscore.Internal_Hbond>
0.0000

> <Gold.Chemscore.DEClash>
0.1183

> <Gold.Chemscore.DEInternal>
1.6273

> <Gold.Chemscore.Rot>
1.6094

> <Gold.Chemscore.Internal.Correction>
   9.000000E+99

> <Gold.Chemscore.Hbonds>
donor molecule, donor type, donor heavy atom, donor atom, acceptor molecule, acceptor atom, score
      P1  H  7997  8009       L1    11  0.45

> <Gold.Chemscore.Hbond.Weighted>
-2.9691

> <Gold.Chemscore.Metal.Weighted>
-0.0000

> <Gold.Chemscore.Lipo.Weighted>
-10.8595

> <Gold.Chemscore.Internal_Hbond.Weighted>
0.0000

> <Gold.Chemscore.DEClash.Weighted>
0.1183

> <Gold.Chemscore.DEInternal.Weighted>
1.6273

> <Gold.Chemscore.Rot.Weighted>
4.1201

> <Gold.Chemscore.Internal.Correction.Weighted>
   9.000000E+99

> <Gold.Protein.RotatedTorsions>
[ 6907 6896 6895 6894 ] final  -57.57 input  -60.11 | X-H torsion
[ 7974 7965 7964 7962 ] final   97.71 input  175.53 | X-H torsion
[ 8008 7997 7996 7995 ] final -171.40 input   59.86 | X-H torsion
[ 10167 10162 10161 10158 ] final  -33.37 input  -65.29 | X-H torsion
[ 10718 10713 10712 10709 ] final  -31.71 input   66.30 | X-H torsion
[ 10763 10752 10751 10750 ] final  -45.91 input  -60.55 | X-H torsion
[ 11005 11000 10999 10996 ] final  107.09 input  -57.11 | X-H torsion

> <Gold.Protein.ActiveResidues>
 VAL166  LYS551  ARG553  GLY616  TRP617  ASP618  TYR619  PRO620  LYS621  CYS622 
 ASP623  PHE694  ASN695  SER759  ASP760  ASP761  ALA762  ILE779  LEU786  VAL792 
 PHE793  MET794  SER795  GLU796  ALA797  LYS798  CYS799  TRP800  GLU811  SER814 

> <Gold.Protein.RotatedAtoms>
  150.8075  134.7209  159.6657 H   0  0  0  0  0  0  0  0  0  0  0  0  # atno 6907 bound_to 6896
  152.4195  134.5978  160.0001 H   0  0  0  0  0  0  0  0  0  0  0  0  # atno 6908 bound_to 6896
  151.6197  133.3303  159.3121 H   0  0  0  0  0  0  0  0  0  0  0  0  # atno 6909 bound_to 6896
  145.4219  139.2320  143.3192 H   0  0  0  0  0  0  0  0  0  0  0  0  # atno 7974 bound_to 7965
  155.9310  140.1091  157.1132 H   0  0  0  0  0  0  0  0  0  0  0  0  # atno 8008 bound_to 7997
  154.4071  140.1237  156.4868 H   0  0  0  0  0  0  0  0  0  0  0  0  # atno 8009 bound_to 7997
  155.7080  140.3471  155.4964 H   0  0  0  0  0  0  0  0  0  0  0  0  # atno 8010 bound_to 7997
  140.7205  143.3625  151.1935 H   0  0  0  0  0  0  0  0  0  0  0  0  # atno 10167 bound_to 10162
  156.3839  130.4361  149.7447 H   0  0  0  0  0  0  0  0  0  0  0  0  # atno 10718 bound_to 10713
  154.0363  135.6650  153.4785 H   0  0  0  0  0  0  0  0  0  0  0  0  # atno 10763 bound_to 10752
  153.0519  135.5079  154.7885 H   0  0  0  0  0  0  0  0  0  0  0  0  # atno 10764 bound_to 10752
  154.6846  135.3051  154.9530 H   0  0  0  0  0  0  0  0  0  0  0  0  # atno 10765 bound_to 10752
  139.8823  134.9390  156.5766 H   0  0  0  0  0  0  0  0  0  0  0  0  # atno 11005 bound_to 11000
  146.2652  140.4944  142.8837 LP  0  0  0  0  0  0  0  0  0  0  0  0  # atno 17320 bound_to 7965
  144.8240  140.6597  143.6334 LP  0  0  0  0  0  0  0  0  0  0  0  0  # atno 17321 bound_to 7965
  139.7180  143.9269  152.2974 LP  0  0  0  0  0  0  0  0  0  0  0  0  # atno 17342 bound_to 10162
  139.9016  144.6908  150.8659 LP  0  0  0  0  0  0  0  0  0  0  0  0  # atno 17343 bound_to 10162
  156.4527  130.7914  151.2936 LP  0  0  0  0  0  0  0  0  0  0  0  0  # atno 17370 bound_to 10713
  157.7494  131.0090  150.3251 LP  0  0  0  0  0  0  0  0  0  0  0  0  # atno 17371 bound_to 10713
  140.8059  133.8468  155.8767 LP  0  0  0  0  0  0  0  0  0  0  0  0  # atno 17394 bound_to 11000
  140.9551  134.1729  157.4698 LP  0  0  0  0  0  0  0  0  0  0  0  0  # atno 17395 bound_to 11000

$$$$
