AV-unprocessed.smi:1381|AV-procd|sdf|5602|dock6
  -GOLD-   22720 5213D 1   1.00000     0.00000
 Structure written by MMmdl.
 42 43  0  0  0  0  0  0  0  0  1 V2000
  146.3548  134.2440  162.1372 C   0  0  0  0  0  0  0  0  0  0  0  0
  147.1337  134.9445  161.0769 C   0  0  0  0  0  0  0  0  0  0  0  0
  147.4620  136.2563  160.8795 C   0  0  0  0  0  0  0  0  0  0  0  0
  148.2147  136.2201  159.6757 C   0  0  0  0  0  0  0  0  0  0  0  0
  148.7522  137.4081  159.1175 N   0  0  0  0  0  0  0  0  0  0  0  0
  149.9058  137.5471  158.4420 C   0  0  0  0  0  0  0  0  0  0  0  0
  150.6993  136.6376  158.1977 O   0  0  0  0  0  0  0  0  0  0  0  0
  150.0958  138.8175  158.0575 N   0  0  0  0  0  0  0  0  0  0  0  0
  151.2495  139.2992  157.3073 C   0  0  0  0  0  0  0  0  0  0  0  0
  151.2073  140.8292  157.1361 C   0  0  0  0  0  0  0  0  0  0  0  0
  151.3804  141.5932  158.3702 N   0  0  0  0  0  0  0  0  0  0  0  0
  152.4682  141.0791  159.1994 C   0  0  0  0  0  0  0  0  0  0  0  0
  152.6575  141.9099  160.4837 C   0  0  1  0  0  0  0  0  0  0  0  0
  153.8517  141.4290  161.3145 C   0  0  0  0  0  0  0  0  0  0  0  0
  152.8770  143.2730  160.1315 O   0  0  0  0  0  0  0  0  0  0  0  0
  151.8173  143.8328  159.3611 C   0  0  1  0  0  0  0  0  0  0  0  0
  152.1619  145.2948  159.0588 C   0  0  0  0  0  0  0  0  0  0  0  0
  151.6355  142.9992  158.0786 C   0  0  0  0  0  0  0  0  0  0  0  0
  148.3342  134.9971  159.1820 N   0  0  0  0  0  0  0  0  0  0  0  0
  147.6416  134.1734  160.0772 O   0  0  0  0  0  0  0  0  0  0  0  0
  145.2872  134.2855  161.9215 H   0  0  0  0  0  0  0  0  0  0  0  0
  146.5221  134.7062  163.1103 H   0  0  0  0  0  0  0  0  0  0  0  0
  146.6452  133.1956  162.2085 H   0  0  0  0  0  0  0  0  0  0  0  0
  147.2035  137.1026  161.4984 H   0  0  0  0  0  0  0  0  0  0  0  0
  148.1990  138.2420  159.2476 H   0  0  0  0  0  0  0  0  0  0  0  0
  149.3956  139.5018  158.3033 H   0  0  0  0  0  0  0  0  0  0  0  0
  152.1498  139.0119  157.8512 H   0  0  0  0  0  0  0  0  0  0  0  0
  151.2899  138.7895  156.3440 H   0  0  0  0  0  0  0  0  0  0  0  0
  151.9566  141.1397  156.4061 H   0  0  0  0  0  0  0  0  0  0  0  0
  150.2411  141.0853  156.6991 H   0  0  0  0  0  0  0  0  0  0  0  0
  152.2717  140.0453  159.4813 H   0  0  0  0  0  0  0  0  0  0  0  0
  153.3976  141.0761  158.6276 H   0  0  0  0  0  0  0  0  0  0  0  0
  151.7564  141.8446  161.0961 H   0  0  0  0  0  0  0  0  0  0  0  0
  153.7245  140.3900  161.6198 H   0  0  0  0  0  0  0  0  0  0  0  0
  153.9644  142.0291  162.2177 H   0  0  0  0  0  0  0  0  0  0  0  0
  154.7808  141.5007  160.7484 H   0  0  0  0  0  0  0  0  0  0  0  0
  150.8983  143.8034  159.9494 H   0  0  0  0  0  0  0  0  0  0  0  0
  151.3726  145.7720  158.4778 H   0  0  0  0  0  0  0  0  0  0  0  0
  153.0895  145.3719  158.4909 H   0  0  0  0  0  0  0  0  0  0  0  0
  152.2875  145.8637  159.9803 H   0  0  0  0  0  0  0  0  0  0  0  0
  152.5280  143.0902  157.4569 H   0  0  0  0  0  0  0  0  0  0  0  0
  150.8087  143.4099  157.4976 H   0  0  0  0  0  0  0  0  0  0  0  0
  1  2  1  0  0  0  0
  1 21  1  0  0  0  0
  1 22  1  0  0  0  0
  1 23  1  0  0  0  0
  2 20  1  0  0  0  0
  2  3  2  0  0  0  0
  3  4  1  0  0  0  0
  3 24  1  0  0  0  0
  4  5  1  0  0  0  0
  4 19  2  0  0  0  0
  5  6  1  0  0  0  0
  5 25  1  0  0  0  0
  6  7  2  0  0  0  0
  6  8  1  0  0  0  0
  8  9  1  0  0  0  0
  8 26  1  0  0  0  0
  9 10  1  0  0  0  0
  9 27  1  0  0  0  0
  9 28  1  0  0  0  0
 10 11  1  0  0  0  0
 10 29  1  0  0  0  0
 10 30  1  0  0  0  0
 11 18  1  0  0  0  0
 11 12  1  0  0  0  0
 12 13  1  0  0  0  0
 12 31  1  0  0  0  0
 12 32  1  0  0  0  0
 13 14  1  0  0  0  0
 13 15  1  0  0  0  0
 13 33  1  0  0  0  0
 14 34  1  0  0  0  0
 14 35  1  0  0  0  0
 14 36  1  0  0  0  0
 15 16  1  0  0  0  0
 16 17  1  0  0  0  0
 16 18  1  0  0  0  0
 16 37  1  0  0  0  0
 17 38  1  0  0  0  0
 17 39  1  0  0  0  0
 17 40  1  0  0  0  0
 18 41  1  0  0  0  0
 18 42  1  0  0  0  0
 19 20  1  0  0  0  0
M  END
> <s_m_source_file>
AV-unprocessed.smi

> <i_m_source_file_index>
1381

> <i_lp_mmshare_version>
43012

> <i_f3d_flags>
0

> <s_epik_input>
W0NIM11jMVtjSF1jKG5vMSlbTkhdQyg9TylbTkhdW0NIMl1bQ0gyXU4yW0NIMl1bQ0BASF0oW0NIM10pT1tDQEBIXShbQ0gzXSlbQ0gyXTI=

> <s_epik_cmdline>
J2VwaWtfcHl0aG9uJywgJy1waCcsICc3LjAnLCAnLXRuJywgJzgnLCAnLW1hJywgJzIwMCcsICctbWV0YWxfYmluZGluZycsICctaW1hZScsICc8aW5maWxlLm1hZT4nLCAnLW9tYWUnLCAnPG91dGZpbGUubWFlPic=

> <r_epik_Ionization_Penalty>
0.214073

> <r_epik_Ionization_Penalty_Charging>
0

> <r_epik_Ionization_Penalty_Neutral>
0.214073

> <r_epik_State_Penalty>
0.204211

> <r_epik_Charging_Adjusted_Penalty>
0.204211

> <i_epik_Tot_Q>
0

> <i_epik_Tot_abs_Q>
0

> <r_epik_Metal_State_Penalty>
0.217067

> <b_epik_Metal_Only>
0

> <s_lp_Force_Field>
OPLS_2005

> <r_lp_Energy>
17.1752

> <b_lp_Chiralities_Consistent>
1

> <s_lp_Variant>
AV-unprocessed.smi:1381-1

> <Gold.Version>
5.8.1

> <Gold.Id.Protein>
6NUR|6NUR_protein|mol2

> <Gold.PLP.Fitness>
41.8162

> <Gold.PLP.PLP>
-40.1166

> <Gold.PLP.part.hbond>
-2.0000

> <Gold.PLP.part.metal>
0.0000

> <Gold.PLP.part.buried>
-6.3839

> <Gold.PLP.part.nonpolar>
-32.4031

> <Gold.PLP.part.repulsive>
0.3449

> <Gold.PLP.ligand.clash>
0.0000

> <Gold.PLP.ligand.torsion>
0.3594

> <Gold.PLP.Chemscore.Hbond>
0.8000

> <Gold.PLP.Chemscore.CHOScore>
0.0000

> <Gold.PLP.Chemscore.Metal>
0.0000

> <Gold.Chemscore.Hbonds>
donor molecule, donor type, donor heavy atom, donor atom, acceptor molecule, acceptor atom, score
      P1  H  6896  6907       L1     7  0.30

> <Gold.PLP.Chemscore.Internal.Correction>
0.0184

> <Gold.Rescore>
     Score         DG    S(hbond)    S(metal)    S(lipo)     H(rot)  DE(clash)    DE(int)     intcor
     14.56     -16.04       0.95        0.00      97.40       1.57       0.11       1.37       ----

> <Gold.Chemscore.Fitness>
14.5625

> <Gold.Chemscore.DG>
-16.0427

> <Gold.Chemscore.ZeroCoef>
-5.4800

> <Gold.Chemscore.Hbond>
0.9537

> <Gold.Chemscore.Metal>
0.0000

> <Gold.Chemscore.Lipo>
97.3997

> <Gold.Chemscore.Internal_Hbond>
0.0000

> <Gold.Chemscore.DEClash>
0.1096

> <Gold.Chemscore.DEInternal>
1.3707

> <Gold.Chemscore.Rot>
1.5697

> <Gold.Chemscore.Internal.Correction>
   9.000000E+99

> <Gold.Chemscore.Hbonds>
donor molecule, donor type, donor heavy atom, donor atom, acceptor molecule, acceptor atom, score
      P1  H  6896  6907       L1     7  0.30

> <Gold.Chemscore.Hbond.Weighted>
-3.1854

> <Gold.Chemscore.Metal.Weighted>
-0.0000

> <Gold.Chemscore.Lipo.Weighted>
-11.3958

> <Gold.Chemscore.Internal_Hbond.Weighted>
0.0000

> <Gold.Chemscore.DEClash.Weighted>
0.1096

> <Gold.Chemscore.DEInternal.Weighted>
1.3707

> <Gold.Chemscore.Rot.Weighted>
4.0185

> <Gold.Chemscore.Internal.Correction.Weighted>
   9.000000E+99

> <Gold.Protein.RotatedTorsions>
[ 6907 6896 6895 6894 ] final  -35.28 input  -60.11 | X-H torsion
[ 7974 7965 7964 7962 ] final  138.60 input  175.53 | X-H torsion
[ 8008 7997 7996 7995 ] final   50.95 input   59.86 | X-H torsion
[ 10167 10162 10161 10158 ] final  142.62 input  -65.29 | X-H torsion
[ 10718 10713 10712 10709 ] final  168.85 input   66.30 | X-H torsion
[ 10763 10752 10751 10750 ] final    0.63 input  -60.55 | X-H torsion
[ 11005 11000 10999 10996 ] final -175.88 input  -57.11 | X-H torsion

> <Gold.Protein.ActiveResidues>
 VAL166  LYS551  ARG553  GLY616  TRP617  ASP618  TYR619  PRO620  LYS621  CYS622 
 ASP623  PHE694  ASN695  SER759  ASP760  ASP761  ALA762  ILE779  LEU786  VAL792 
 PHE793  MET794  SER795  GLU796  ALA797  LYS798  CYS799  TRP800  GLU811  SER814 

> <Gold.Protein.RotatedAtoms>
  151.0418  134.9612  159.8165 H   0  0  0  0  0  0  0  0  0  0  0  0  # atno 6907 bound_to 6896
  152.5365  134.2649  159.8959 H   0  0  0  0  0  0  0  0  0  0  0  0  # atno 6908 bound_to 6896
  151.2661  133.4235  159.2652 H   0  0  0  0  0  0  0  0  0  0  0  0  # atno 6909 bound_to 6896
  144.9357  139.4992  143.5596 H   0  0  0  0  0  0  0  0  0  0  0  0  # atno 7974 bound_to 7965
  155.4272  140.3449  155.4276 H   0  0  0  0  0  0  0  0  0  0  0  0  # atno 8008 bound_to 7997
  156.1358  140.1527  156.9028 H   0  0  0  0  0  0  0  0  0  0  0  0  # atno 8009 bound_to 7997
  154.4930  140.0835  156.7617 H   0  0  0  0  0  0  0  0  0  0  0  0  # atno 8010 bound_to 7997
  139.4989  144.6095  151.6304 H   0  0  0  0  0  0  0  0  0  0  0  0  # atno 10167 bound_to 10162
  157.0312  131.0260  151.2744 H   0  0  0  0  0  0  0  0  0  0  0  0  # atno 10718 bound_to 10713
  153.3183  135.6967  153.7053 H   0  0  0  0  0  0  0  0  0  0  0  0  # atno 10763 bound_to 10752
  153.5904  135.3481  155.2909 H   0  0  0  0  0  0  0  0  0  0  0  0  # atno 10764 bound_to 10752
  154.8591  135.4316  154.2340 H   0  0  0  0  0  0  0  0  0  0  0  0  # atno 10765 bound_to 10752
  140.4584  134.6278  157.4832 H   0  0  0  0  0  0  0  0  0  0  0  0  # atno 11005 bound_to 11000
  146.3265  139.8339  142.8903 LP  0  0  0  0  0  0  0  0  0  0  0  0  # atno 17320 bound_to 7965
  145.3071  141.0210  143.3575 LP  0  0  0  0  0  0  0  0  0  0  0  0  # atno 17321 bound_to 7965
  140.5766  144.0019  150.6245 LP  0  0  0  0  0  0  0  0  0  0  0  0  # atno 17342 bound_to 10162
  140.3154  143.3171  152.0838 LP  0  0  0  0  0  0  0  0  0  0  0  0  # atno 17343 bound_to 10162
  157.5176  130.7978  149.7773 LP  0  0  0  0  0  0  0  0  0  0  0  0  # atno 17370 bound_to 10713
  156.0069  130.3851  150.2400 LP  0  0  0  0  0  0  0  0  0  0  0  0  # atno 17371 bound_to 10713
  139.9961  134.6909  155.9607 LP  0  0  0  0  0  0  0  0  0  0  0  0  # atno 17394 bound_to 11000
  141.1632  133.6538  156.4391 LP  0  0  0  0  0  0  0  0  0  0  0  0  # atno 17395 bound_to 11000

$$$$
