AV-unprocessed.smi:3255|AV-procd|sdf|12463|dock10
  -GOLD-   2272018363D 1   1.00000     0.00000
 Structure written by MMmdl.
 38 39  0  0  0  0  0  0  0  0  1 V2000
  151.3951  141.1180  158.0263 C   0  0  0  0  0  0  0  0  0  0  0  0
  150.5153  142.3425  158.3171 C   0  0  2  0  0  0  0  0  0  0  0  0
  149.6688  142.6033  157.1536 N   0  0  0  0  0  0  0  0  0  0  0  0
  148.9887  141.6791  156.4603 C   0  0  0  0  0  0  0  0  0  0  0  0
  149.0141  140.4728  156.7048 O   0  0  0  0  0  0  0  0  0  0  0  0
  148.2544  142.2310  155.4840 N   0  0  0  0  0  0  0  0  0  0  0  0
  147.3470  141.5013  154.6026 C   0  0  0  0  0  0  0  0  0  0  0  0
  146.6051  142.4403  153.6325 C   0  0  0  0  0  0  0  0  0  0  0  0
  145.6470  143.2998  154.3038 N   0  0  0  0  0  0  0  0  0  0  0  0
  144.8880  144.3138  153.7338 C   0  0  0  0  0  0  0  0  0  0  0  0
  144.1339  144.8586  154.7485 C   0  0  0  0  0  0  0  0  0  0  0  0
  144.4031  144.1927  155.9418 N   0  0  0  0  0  0  0  0  0  0  0  0
  145.3055  143.2821  155.5997 C   0  0  0  0  0  0  0  0  0  0  0  0
  151.3591  143.5878  158.6632 C   0  0  1  0  0  0  0  0  0  0  0  0
  150.5537  144.8510  158.9822 C   0  0  0  0  0  0  0  0  0  0  0  0
  151.5085  145.6145  159.8689 C   0  0  0  0  0  0  0  0  0  0  0  0
  152.1219  144.4866  160.6901 C   0  0  0  0  0  0  0  0  0  0  0  0
  152.1452  143.3503  159.8305 O   0  0  0  0  0  0  0  0  0  0  0  0
  152.0178  140.8670  158.8854 H   0  0  0  0  0  0  0  0  0  0  0  0
  152.0563  141.2951  157.1773 H   0  0  0  0  0  0  0  0  0  0  0  0
  150.7857  140.2430  157.7981 H   0  0  0  0  0  0  0  0  0  0  0  0
  149.8923  142.1007  159.1801 H   0  0  0  0  0  0  0  0  0  0  0  0
  149.5769  143.5682  156.8712 H   0  0  0  0  0  0  0  0  0  0  0  0
  148.3024  143.2317  155.3606 H   0  0  0  0  0  0  0  0  0  0  0  0
  147.9461  140.7942  154.0289 H   0  0  0  0  0  0  0  0  0  0  0  0
  146.6386  140.9001  155.1753 H   0  0  0  0  0  0  0  0  0  0  0  0
  147.3151  143.0619  153.0855 H   0  0  0  0  0  0  0  0  0  0  0  0
  146.0664  141.8523  152.8885 H   0  0  0  0  0  0  0  0  0  0  0  0
  144.9515  144.5636  152.6850 H   0  0  0  0  0  0  0  0  0  0  0  0
  143.4243  145.6719  154.7112 H   0  0  0  0  0  0  0  0  0  0  0  0
  145.7344  142.5904  156.3099 H   0  0  0  0  0  0  0  0  0  0  0  0
  152.0474  143.8109  157.8463 H   0  0  0  0  0  0  0  0  0  0  0  0
  150.2646  145.4062  158.0898 H   0  0  0  0  0  0  0  0  0  0  0  0
  149.6492  144.6040  159.5403 H   0  0  0  0  0  0  0  0  0  0  0  0
  152.2738  146.1032  159.2645 H   0  0  0  0  0  0  0  0  0  0  0  0
  151.0165  146.3712  160.4806 H   0  0  0  0  0  0  0  0  0  0  0  0
  153.1187  144.7313  161.0578 H   0  0  0  0  0  0  0  0  0  0  0  0
  151.4905  144.2564  161.5490 H   0  0  0  0  0  0  0  0  0  0  0  0
  1  2  1  0  0  0  0
  1 19  1  0  0  0  0
  1 20  1  0  0  0  0
  1 21  1  0  0  0  0
  2  3  1  0  0  0  0
  2 14  1  0  0  0  0
  2 22  1  0  0  0  0
  3  4  1  0  0  0  0
  3 23  1  0  0  0  0
  4  5  2  0  0  0  0
  4  6  1  0  0  0  0
  6  7  1  0  0  0  0
  6 24  1  0  0  0  0
  7  8  1  0  0  0  0
  7 25  1  0  0  0  0
  7 26  1  0  0  0  0
  8  9  1  0  0  0  0
  8 27  1  0  0  0  0
  8 28  1  0  0  0  0
  9 13  1  0  0  0  0
  9 10  1  0  0  0  0
 10 11  2  0  0  0  0
 10 29  1  0  0  0  0
 11 12  1  0  0  0  0
 11 30  1  0  0  0  0
 12 13  2  0  0  0  0
 13 31  1  0  0  0  0
 14 18  1  0  0  0  0
 14 15  1  0  0  0  0
 14 32  1  0  0  0  0
 15 16  1  0  0  0  0
 15 33  1  0  0  0  0
 15 34  1  0  0  0  0
 16 17  1  0  0  0  0
 16 35  1  0  0  0  0
 16 36  1  0  0  0  0
 17 18  1  0  0  0  0
 17 37  1  0  0  0  0
 17 38  1  0  0  0  0
M  END
> <s_m_source_file>
AV-unprocessed.smi

> <i_m_source_file_index>
3255

> <i_lp_mmshare_version>
43012

> <i_f3d_flags>
0

> <s_epik_input>
TzFbQ0gyXVtDSDJdW0NIMl1bQ0BIXTFbQ0BIXShbQ0gzXSlbTkhdQyg9TylbTkhdW0NIMl1bQ0gyXW4yW2NIXVtjSF1uW2NIXTI=

> <s_epik_cmdline>
J2VwaWtfcHl0aG9uJywgJy1waCcsICc3LjAnLCAnLXRuJywgJzgnLCAnLW1hJywgJzIwMCcsICctbWV0YWxfYmluZGluZycsICctaW1hZScsICc8aW5maWxlLm1hZT4nLCAnLW9tYWUnLCAnPG91dGZpbGUubWFlPic=

> <r_lp_tautomer_probability>
1

> <r_epik_Ionization_Penalty>
0.620274

> <r_epik_Ionization_Penalty_Charging>
0.620225

> <r_epik_Ionization_Penalty_Neutral>
4.91362e-05

> <r_epik_State_Penalty>
0.636186

> <r_epik_Charging_Adjusted_Penalty>
1.25641

> <i_epik_Tot_Q>
0

> <i_epik_Tot_abs_Q>
0

> <r_epik_Metal_State_Penalty>
0.306491

> <b_epik_Metal_Only>
0

> <s_lp_Force_Field>
OPLS_2005

> <r_lp_Energy>
16.3443

> <b_lp_Chiralities_Consistent>
1

> <s_lp_Variant>
AV-unprocessed.smi:3255-7

> <Gold.Version>
5.8.1

> <Gold.Id.Protein>
6NUR|6NUR_protein|mol2

> <Gold.PLP.Fitness>
42.2414

> <Gold.PLP.PLP>
-36.7941

> <Gold.PLP.part.hbond>
-2.0000

> <Gold.PLP.part.metal>
0.0000

> <Gold.PLP.part.buried>
-7.5110

> <Gold.PLP.part.nonpolar>
-27.6056

> <Gold.PLP.part.repulsive>
0.2516

> <Gold.PLP.ligand.clash>
0.0000

> <Gold.PLP.ligand.torsion>
0.2057

> <Gold.PLP.Chemscore.Hbond>
1.9440

> <Gold.PLP.Chemscore.CHOScore>
0.0000

> <Gold.PLP.Chemscore.Metal>
0.0000

> <Gold.Chemscore.Hbonds>
donor molecule, donor type, donor heavy atom, donor atom, acceptor molecule, acceptor atom, score
      L1  H     3    23       P1  8028  0.94
      L1  H     6    24       P1  8028  1.00

> <Gold.PLP.Chemscore.Internal.Correction>
0.0267

> <Gold.Rescore>
     Score         DG    S(hbond)    S(metal)    S(lipo)     H(rot)  DE(clash)    DE(int)     intcor
     14.60     -16.31       1.94        0.00      84.97       2.18       0.11       1.60       ----

> <Gold.Chemscore.Fitness>
14.5987

> <Gold.Chemscore.DG>
-16.3069

> <Gold.Chemscore.ZeroCoef>
-5.4800

> <Gold.Chemscore.Hbond>
1.9383

> <Gold.Chemscore.Metal>
0.0000

> <Gold.Chemscore.Lipo>
84.9681

> <Gold.Chemscore.Internal_Hbond>
0.0000

> <Gold.Chemscore.DEClash>
0.1088

> <Gold.Chemscore.DEInternal>
1.5994

> <Gold.Chemscore.Rot>
2.1828

> <Gold.Chemscore.Internal.Correction>
   9.000000E+99

> <Gold.Chemscore.Hbonds>
donor molecule, donor type, donor heavy atom, donor atom, acceptor molecule, acceptor atom, score
      L1  H     3    23       P1  8028  0.89
      L1  H     6    24       P1  8028  0.94

> <Gold.Chemscore.Hbond.Weighted>
-6.4738

> <Gold.Chemscore.Metal.Weighted>
-0.0000

> <Gold.Chemscore.Lipo.Weighted>
-9.9413

> <Gold.Chemscore.Internal_Hbond.Weighted>
0.0000

> <Gold.Chemscore.DEClash.Weighted>
0.1088

> <Gold.Chemscore.DEInternal.Weighted>
1.5994

> <Gold.Chemscore.Rot.Weighted>
5.5881

> <Gold.Chemscore.Internal.Correction.Weighted>
   9.000000E+99

> <Gold.Protein.RotatedTorsions>
[ 6907 6896 6895 6894 ] final  -23.76 input  -60.11 | X-H torsion
[ 7974 7965 7964 7962 ] final -102.07 input  175.53 | X-H torsion
[ 8008 7997 7996 7995 ] final  -74.49 input   59.86 | X-H torsion
[ 10167 10162 10161 10158 ] final  175.17 input  -65.29 | X-H torsion
[ 10718 10713 10712 10709 ] final   34.77 input   66.30 | X-H torsion
[ 10763 10752 10751 10750 ] final -169.52 input  -60.55 | X-H torsion
[ 11005 11000 10999 10996 ] final  -80.54 input  -57.11 | X-H torsion

> <Gold.Protein.ActiveResidues>
 VAL166  LYS551  ARG553  GLY616  TRP617  ASP618  TYR619  PRO620  LYS621  CYS622 
 ASP623  PHE694  ASN695  SER759  ASP760  ASP761  ALA762  ILE779  LEU786  VAL792 
 PHE793  MET794  SER795  GLU796  ALA797  LYS798  CYS799  TRP800  GLU811  SER814 

> <Gold.Protein.RotatedAtoms>
  151.1993  135.0436  159.8865 H   0  0  0  0  0  0  0  0  0  0  0  0  # atno 6907 bound_to 6896
  152.5434  134.0868  159.8269 H   0  0  0  0  0  0  0  0  0  0  0  0  # atno 6908 bound_to 6896
  151.1007  133.5198  159.2642 H   0  0  0  0  0  0  0  0  0  0  0  0  # atno 6909 bound_to 6896
  145.2735  140.9305  143.2973 H   0  0  0  0  0  0  0  0  0  0  0  0  # atno 7974 bound_to 7965
  154.5335  140.0760  156.8387 H   0  0  0  0  0  0  0  0  0  0  0  0  # atno 8008 bound_to 7997
  155.3326  140.3402  155.4221 H   0  0  0  0  0  0  0  0  0  0  0  0  # atno 8009 bound_to 7997
  156.1805  140.1650  156.8270 H   0  0  0  0  0  0  0  0  0  0  0  0  # atno 8010 bound_to 7997
  139.5168  144.3062  152.0334 H   0  0  0  0  0  0  0  0  0  0  0  0  # atno 10167 bound_to 10162
  157.3145  130.7416  149.6745 H   0  0  0  0  0  0  0  0  0  0  0  0  # atno 10718 bound_to 10713
  154.6514  135.2912  154.9982 H   0  0  0  0  0  0  0  0  0  0  0  0  # atno 10763 bound_to 10752
  154.1073  135.6568  153.4882 H   0  0  0  0  0  0  0  0  0  0  0  0  # atno 10764 bound_to 10752
  153.0379  135.5257  154.7424 H   0  0  0  0  0  0  0  0  0  0  0  0  # atno 10765 bound_to 10752
  141.1668  133.7155  156.8288 H   0  0  0  0  0  0  0  0  0  0  0  0  # atno 11005 bound_to 11000
  144.9315  139.4293  143.6493 LP  0  0  0  0  0  0  0  0  0  0  0  0  # atno 17320 bound_to 7965
  146.3239  139.8228  142.8923 LP  0  0  0  0  0  0  0  0  0  0  0  0  # atno 17321 bound_to 7965
  140.2508  144.4171  150.6223 LP  0  0  0  0  0  0  0  0  0  0  0  0  # atno 17342 bound_to 10162
  140.6226  143.2178  151.6663 LP  0  0  0  0  0  0  0  0  0  0  0  0  # atno 17343 bound_to 10162
  155.9680  130.4241  150.4595 LP  0  0  0  0  0  0  0  0  0  0  0  0  # atno 17370 bound_to 10713
  157.2599  131.0564  151.2327 LP  0  0  0  0  0  0  0  0  0  0  0  0  # atno 17371 bound_to 10713
  140.2066  134.8858  157.3228 LP  0  0  0  0  0  0  0  0  0  0  0  0  # atno 17394 bound_to 11000
  140.2131  134.4115  155.7603 LP  0  0  0  0  0  0  0  0  0  0  0  0  # atno 17395 bound_to 11000

$$$$
