AV-unprocessed.smi:1965|AV-procd|sdf|7946|dock6
  -GOLD-   2272010113D 1   1.00000     0.00000
 Structure written by MMmdl.
 36 38  0  0  0  0  0  0  0  0  3 V2000
  153.8301  139.7940  158.9605 O   0  0  0  0  0  0  0  0  0  0  0  0
  153.0244  140.7048  159.1474 C   0  0  0  0  0  0  0  0  0  0  0  0
  153.2589  141.7507  159.9814 N   0  5  0  0  0  0  0  0  0  0  0  0
  152.7623  142.9815  159.7587 C   0  0  0  0  0  0  0  0  0  0  0  0
  152.5143  143.8584  160.7384 N   0  0  0  0  0  0  0  0  0  0  0  0
  152.0028  145.0735  160.2792 C   0  0  0  0  0  0  0  0  0  0  0  0
  151.8591  145.1227  158.9182 C   0  0  0  0  0  0  0  0  0  0  0  0
  152.3708  143.6382  158.1677 S   0  0  0  0  0  0  0  0  0  0  0  0
  151.8417  140.6668  158.5040 N   0  0  0  0  0  0  0  0  0  0  0  0
  151.3993  139.6146  157.5951 C   0  0  2  0  0  0  0  0  0  0  0  0
  152.4918  139.1393  156.6465 C   0  0  0  0  0  0  0  0  0  0  0  0
  151.7024  138.4469  155.5309 C   0  0  0  0  0  0  0  0  0  0  0  0
  150.3559  139.0702  155.5052 N   0  3  2  0  0  0  0  0  0  0  0  0
  149.9634  139.6115  154.1764 C   0  0  0  0  0  0  0  0  0  0  0  0
  148.7809  140.5831  154.3048 C   0  0  0  0  0  0  0  0  0  0  0  0
  149.1470  141.8025  155.1719 C   0  0  0  0  0  0  0  0  0  0  0  0
  150.2924  141.5026  156.1581 C   0  0  0  0  0  0  0  0  0  0  0  0
  150.2645  140.0308  156.6405 C   0  0  2  0  0  0  0  0  0  0  0  0
  151.7683  145.8496  160.9924 H   0  0  0  0  0  0  0  0  0  0  0  0
  151.4899  145.9378  158.3143 H   0  0  0  0  0  0  0  0  0  0  0  0
  151.1967  141.4244  158.6757 H   0  0  0  0  0  0  0  0  0  0  0  0
  151.0710  138.7537  158.1818 H   0  0  0  0  0  0  0  0  0  0  0  0
  153.0365  139.9927  156.2396 H   0  0  0  0  0  0  0  0  0  0  0  0
  153.2137  138.4780  157.1271 H   0  0  0  0  0  0  0  0  0  0  0  0
  152.2239  138.5093  154.5749 H   0  0  0  0  0  0  0  0  0  0  0  0
  151.5761  137.3890  155.7629 H   0  0  0  0  0  0  0  0  0  0  0  0
  150.8052  140.1341  153.7186 H   0  0  0  0  0  0  0  0  0  0  0  0
  149.7101  138.7814  153.5163 H   0  0  0  0  0  0  0  0  0  0  0  0
  148.4462  140.9125  153.3208 H   0  0  0  0  0  0  0  0  0  0  0  0
  147.9369  140.0570  154.7532 H   0  0  0  0  0  0  0  0  0  0  0  0
  149.4378  142.6402  154.5373 H   0  0  0  0  0  0  0  0  0  0  0  0
  148.2607  142.1295  155.7168 H   0  0  0  0  0  0  0  0  0  0  0  0
  151.2489  141.7048  155.6740 H   0  0  0  0  0  0  0  0  0  0  0  0
  150.2271  142.1958  156.9970 H   0  0  0  0  0  0  0  0  0  0  0  0
  149.3089  139.8690  157.1417 H   0  0  0  0  0  0  0  0  0  0  0  0
  149.7007  138.3332  155.7230 H   0  0  0  0  0  0  0  0  0  0  0  0
  1  2  2  0  0  0  0
  2  3  1  0  0  0  0
  2  9  1  0  0  0  0
  3  4  1  0  0  0  0
  4  8  1  0  0  0  0
  4  5  2  0  0  0  0
  5  6  1  0  0  0  0
  6  7  2  0  0  0  0
  6 19  1  0  0  0  0
  7  8  1  0  0  0  0
  7 20  1  0  0  0  0
  9 10  1  0  0  0  0
  9 21  1  0  0  0  0
 10 18  1  0  0  0  0
 10 11  1  0  0  0  0
 10 22  1  0  0  0  0
 11 12  1  0  0  0  0
 11 23  1  0  0  0  0
 11 24  1  0  0  0  0
 12 13  1  0  0  0  0
 12 25  1  0  0  0  0
 12 26  1  0  0  0  0
 13 18  1  0  0  0  0
 13 14  1  0  0  0  0
 13 36  1  0  0  0  0
 14 15  1  0  0  0  0
 14 27  1  0  0  0  0
 14 28  1  0  0  0  0
 15 16  1  0  0  0  0
 15 29  1  0  0  0  0
 15 30  1  0  0  0  0
 16 17  1  0  0  0  0
 16 31  1  0  0  0  0
 16 32  1  0  0  0  0
 17 18  1  0  0  0  0
 17 33  1  0  0  0  0
 17 34  1  0  0  0  0
 18 35  1  0  0  0  0
M  CHG  1   3  -1
M  CHG  1  13   1
M  END
> <s_m_source_file>
AV-unprocessed.smi

> <i_m_source_file_index>
1965

> <i_lp_mmshare_version>
43012

> <i_f3d_flags>
0

> <s_epik_input>
czFbY0hdW2NIXW5jMVtOSF1DKD1PKVtOSF1bQ0BIXShbQ0gyXVtDSDJdMilbQ0BASF0oTjIzKVtDSDJdW0NIMl1bQ0gyXVtDSDJdMw==

> <s_epik_cmdline>
J2VwaWtfcHl0aG9uJywgJy1waCcsICc3LjAnLCAnLXRuJywgJzgnLCAnLW1hJywgJzIwMCcsICctbWV0YWxfYmluZGluZycsICctaW1hZScsICc8aW5maWxlLm1hZT4nLCAnLW9tYWUnLCAnPG91dGZpbGUubWFlPic=

> <r_lp_tautomer_probability>
1

> <r_epik_Ionization_Penalty>
7.4116

> <r_epik_Ionization_Penalty_Charging>
6.13869

> <r_epik_Ionization_Penalty_Neutral>
1.27291

> <r_epik_State_Penalty>
6.13761

> <r_epik_Charging_Adjusted_Penalty>
12.2763

> <i_epik_Tot_Q>
0

> <i_epik_Tot_abs_Q>
2

> <r_epik_Metal_State_Penalty>
2.08142

> <b_epik_Metal_Only>
1

> <s_lp_Force_Field>
OPLS_2005

> <r_lp_Energy>
32.0333

> <b_lp_Chiralities_Consistent>
1

> <s_lp_Variant>
AV-unprocessed.smi:1965-15

> <Gold.Version>
5.8.1

> <Gold.Id.Protein>
6NUR|6NUR_protein|mol2

> <Gold.PLP.Fitness>
36.2742

> <Gold.PLP.PLP>
-34.5480

> <Gold.PLP.part.hbond>
-1.0000

> <Gold.PLP.part.metal>
0.0000

> <Gold.PLP.part.buried>
-1.8515

> <Gold.PLP.part.nonpolar>
-31.8331

> <Gold.PLP.part.repulsive>
0.2480

> <Gold.PLP.ligand.clash>
0.0000

> <Gold.PLP.ligand.torsion>
0.6386

> <Gold.PLP.Chemscore.Hbond>
1.0000

> <Gold.PLP.Chemscore.CHOScore>
0.0000

> <Gold.PLP.Chemscore.Metal>
0.0000

> <Gold.Chemscore.Hbonds>
donor molecule, donor type, donor heavy atom, donor atom, acceptor molecule, acceptor atom, score
      P1  H  7997  8008       L1     1  0.99

> <Gold.PLP.Chemscore.Internal.Correction>
0.0034

> <Gold.Rescore>
     Score         DG    S(hbond)    S(metal)    S(lipo)     H(rot)  DE(clash)    DE(int)     intcor
     13.70     -15.99       0.95        0.00      84.49       1.00       0.00       2.29       ----

> <Gold.Chemscore.Fitness>
13.7028

> <Gold.Chemscore.DG>
-15.9913

> <Gold.Chemscore.ZeroCoef>
-5.4800

> <Gold.Chemscore.Hbond>
0.9540

> <Gold.Chemscore.Metal>
0.0000

> <Gold.Chemscore.Lipo>
84.4874

> <Gold.Chemscore.Internal_Hbond>
0.0000

> <Gold.Chemscore.DEClash>
0.0000

> <Gold.Chemscore.DEInternal>
2.2884

> <Gold.Chemscore.Rot>
1.0000

> <Gold.Chemscore.Internal.Correction>
   9.000000E+99

> <Gold.Chemscore.Hbonds>
donor molecule, donor type, donor heavy atom, donor atom, acceptor molecule, acceptor atom, score
      P1  H  7997  8008       L1     1  0.63

> <Gold.Chemscore.Hbond.Weighted>
-3.1862

> <Gold.Chemscore.Metal.Weighted>
-0.0000

> <Gold.Chemscore.Lipo.Weighted>
-9.8850

> <Gold.Chemscore.Internal_Hbond.Weighted>
0.0000

> <Gold.Chemscore.DEClash.Weighted>
0.0000

> <Gold.Chemscore.DEInternal.Weighted>
2.2884

> <Gold.Chemscore.Rot.Weighted>
2.5600

> <Gold.Chemscore.Internal.Correction.Weighted>
   9.000000E+99

> <Gold.Protein.RotatedTorsions>
[ 6907 6896 6895 6894 ] final -109.35 input  -60.11 | X-H torsion
[ 7974 7965 7964 7962 ] final  -40.87 input  175.53 | X-H torsion
[ 8008 7997 7996 7995 ] final  -93.92 input   59.86 | X-H torsion
[ 10167 10162 10161 10158 ] final  -44.48 input  -65.29 | X-H torsion
[ 10718 10713 10712 10709 ] final -169.84 input   66.30 | X-H torsion
[ 10763 10752 10751 10750 ] final -159.91 input  -60.55 | X-H torsion
[ 11005 11000 10999 10996 ] final  -95.83 input  -57.11 | X-H torsion

> <Gold.Protein.ActiveResidues>
 VAL166  LYS551  ARG553  GLY616  TRP617  ASP618  TYR619  PRO620  LYS621  CYS622 
 ASP623  PHE694  ASN695  SER759  ASP760  ASP761  ALA762  ILE779  LEU786  VAL792 
 PHE793  MET794  SER795  GLU796  ALA797  LYS798  CYS799  TRP800  GLU811  SER814 

> <Gold.Protein.RotatedAtoms>
  150.7556  133.9542  159.3495 H   0  0  0  0  0  0  0  0  0  0  0  0  # atno 6907 bound_to 6896
  151.7463  135.0841  160.0333 H   0  0  0  0  0  0  0  0  0  0  0  0  # atno 6908 bound_to 6896
  152.3496  133.6126  159.5971 H   0  0  0  0  0  0  0  0  0  0  0  0  # atno 6909 bound_to 6896
  146.0264  140.6786  142.9153 H   0  0  0  0  0  0  0  0  0  0  0  0  # atno 7974 bound_to 7965
  154.7418  140.0494  157.0818 H   0  0  0  0  0  0  0  0  0  0  0  0  # atno 8008 bound_to 7997
  155.0169  140.3142  155.4789 H   0  0  0  0  0  0  0  0  0  0  0  0  # atno 8009 bound_to 7997
  156.2866  140.2174  156.5285 H   0  0  0  0  0  0  0  0  0  0  0  0  # atno 8010 bound_to 7997
  140.6895  143.2928  151.3501 H   0  0  0  0  0  0  0  0  0  0  0  0  # atno 10167 bound_to 10162
  156.7174  130.9257  151.3094 H   0  0  0  0  0  0  0  0  0  0  0  0  # atno 10718 bound_to 10713
  154.7435  135.3074  154.8686 H   0  0  0  0  0  0  0  0  0  0  0  0  # atno 10763 bound_to 10752
  153.9493  135.6765  153.4748 H   0  0  0  0  0  0  0  0  0  0  0  0  # atno 10764 bound_to 10752
  153.1033  135.4901  154.8831 H   0  0  0  0  0  0  0  0  0  0  0  0  # atno 10765 bound_to 10752
  141.1430  133.8054  157.0489 H   0  0  0  0  0  0  0  0  0  0  0  0  # atno 11005 bound_to 11000
  144.7011  140.3657  143.7155 LP  0  0  0  0  0  0  0  0  0  0  0  0  # atno 17320 bound_to 7965
  145.7111  139.1685  143.2538 LP  0  0  0  0  0  0  0  0  0  0  0  0  # atno 17321 bound_to 7965
  139.6284  144.0769  152.2455 LP  0  0  0  0  0  0  0  0  0  0  0  0  # atno 17342 bound_to 10162
  140.0235  144.6135  150.7546 LP  0  0  0  0  0  0  0  0  0  0  0  0  # atno 17343 bound_to 10162
  157.6912  130.9235  150.0519 LP  0  0  0  0  0  0  0  0  0  0  0  0  # atno 17370 bound_to 10713
  156.1618  130.3644  149.9288 LP  0  0  0  0  0  0  0  0  0  0  0  0  # atno 17371 bound_to 10713
  140.0644  134.9737  157.1361 LP  0  0  0  0  0  0  0  0  0  0  0  0  # atno 17394 bound_to 11000
  140.3801  134.2297  155.7171 LP  0  0  0  0  0  0  0  0  0  0  0  0  # atno 17395 bound_to 11000

$$$$
