AV-unprocessed.smi:2029|AV-procd|sdf|8223|dock2
  -GOLD-   2272010493D 1   1.00000     0.00000
 Structure written by MMmdl.
 29 30  0  0  0  0  0  0  0  0  2 V2000
  149.7515  139.9256  154.2917 O   0  0  0  0  0  0  0  0  0  0  0  0
  149.1581  140.9941  154.4456 C   0  0  0  0  0  0  0  0  0  0  0  0
  149.5885  141.9512  155.2798 N   0  0  0  0  0  0  0  0  0  0  0  0
  150.7851  141.8459  156.1033 C   0  0  0  0  0  0  0  0  0  0  0  0
  150.4152  141.7693  157.5909 C   0  0  0  0  0  0  0  0  0  0  0  0
  151.0521  142.8828  158.4000 C   0  0  0  0  0  0  0  0  0  0  0  0
  151.9517  142.6233  159.4569 C   0  0  0  0  0  0  0  0  0  0  0  0
  152.5118  143.7059  160.1666 C   0  0  0  0  0  0  0  0  0  0  0  0
  152.1619  145.0234  159.8048 C   0  0  0  0  0  0  0  0  0  0  0  0
  151.2602  145.2251  158.7400 C   0  0  0  0  0  0  0  0  0  0  0  0
  150.7447  144.1619  158.0844 N   0  3  0  0  0  0  0  0  0  0  0  0
  147.8964  141.3393  153.7241 C   0  0  0  0  0  0  0  0  0  0  0  0
  146.7077  141.7731  154.5573 C   0  0  0  0  0  0  0  0  0  0  0  0
  146.7091  140.4149  153.9022 C   0  0  0  0  0  0  0  0  0  0  0  0
  149.0477  142.8009  155.3524 H   0  0  0  0  0  0  0  0  0  0  0  0
  151.3457  140.9559  155.8125 H   0  0  0  0  0  0  0  0  0  0  0  0
  151.4276  142.7082  155.9175 H   0  0  0  0  0  0  0  0  0  0  0  0
  149.3322  141.8206  157.7113 H   0  0  0  0  0  0  0  0  0  0  0  0
  150.7260  140.8084  158.0033 H   0  0  0  0  0  0  0  0  0  0  0  0
  152.2120  141.6086  159.7217 H   0  0  0  0  0  0  0  0  0  0  0  0
  153.2017  143.5279  160.9786 H   0  0  0  0  0  0  0  0  0  0  0  0
  152.5799  145.8661  160.3360 H   0  0  0  0  0  0  0  0  0  0  0  0
  150.9384  146.1971  158.3958 H   0  0  0  0  0  0  0  0  0  0  0  0
  148.0063  141.8109  152.7487 H   0  0  0  0  0  0  0  0  0  0  0  0
  146.8144  141.8057  155.6403 H   0  0  0  0  0  0  0  0  0  0  0  0
  146.0645  142.5428  154.1359 H   0  0  0  0  0  0  0  0  0  0  0  0
  146.0659  140.2647  153.0376 H   0  0  0  0  0  0  0  0  0  0  0  0
  146.8169  139.5470  154.5507 H   0  0  0  0  0  0  0  0  0  0  0  0
  150.0950  144.3318  157.3162 H   0  0  0  0  0  0  0  0  0  0  0  0
  1  2  2  0  0  0  0
  2  3  1  0  0  0  0
  2 12  1  0  0  0  0
  3  4  1  0  0  0  0
  3 15  1  0  0  0  0
  4  5  1  0  0  0  0
  4 16  1  0  0  0  0
  4 17  1  0  0  0  0
  5  6  1  0  0  0  0
  5 18  1  0  0  0  0
  5 19  1  0  0  0  0
  6 11  1  0  0  0  0
  6  7  2  0  0  0  0
  7  8  1  0  0  0  0
  7 20  1  0  0  0  0
  8  9  2  0  0  0  0
  8 21  1  0  0  0  0
  9 10  1  0  0  0  0
  9 22  1  0  0  0  0
 10 11  2  0  0  0  0
 10 23  1  0  0  0  0
 11 29  1  0  0  0  0
 12 14  1  0  0  0  0
 12 13  1  0  0  0  0
 12 24  1  0  0  0  0
 13 14  1  0  0  0  0
 13 25  1  0  0  0  0
 13 26  1  0  0  0  0
 14 27  1  0  0  0  0
 14 28  1  0  0  0  0
M  CHG  1  11   1
M  END
> <s_m_source_file>
AV-unprocessed.smi

> <i_m_source_file_index>
2029

> <i_lp_mmshare_version>
43012

> <i_f3d_flags>
0

> <s_epik_input>
W0NIMl0xW0NIMl1bQ0hdMUMoPU8pW05IXVtDSDJdW0NIMl1jMltjSF1bY0hdW2NIXVtjSF1uMg==

> <s_epik_cmdline>
J2VwaWtfcHl0aG9uJywgJy1waCcsICc3LjAnLCAnLXRuJywgJzgnLCAnLW1hJywgJzIwMCcsICctbWV0YWxfYmluZGluZycsICctaW1hZScsICc8aW5maWxlLm1hZT4nLCAnLW9tYWUnLCAnPG91dGZpbGUubWFlPic=

> <r_epik_Ionization_Penalty>
1.82741

> <r_epik_Ionization_Penalty_Charging>
1.82741

> <r_epik_Ionization_Penalty_Neutral>
2.2197e-08

> <r_epik_State_Penalty>
1.94311

> <r_epik_Charging_Adjusted_Penalty>
3.77052

> <i_epik_Tot_Q>
1

> <i_epik_Tot_abs_Q>
1

> <r_epik_Metal_State_Penalty>
1.96982

> <b_epik_Metal_Only>
0

> <s_lp_Force_Field>
OPLS_2005

> <r_lp_Energy>
10.9876

> <b_lp_Chiralities_Consistent>
1

> <s_lp_Variant>
AV-unprocessed.smi:2029-2

> <Gold.Version>
5.8.1

> <Gold.Id.Protein>
6NUR|6NUR_protein|mol2

> <Gold.PLP.Fitness>
45.5895

> <Gold.PLP.PLP>
-34.8872

> <Gold.PLP.part.hbond>
-3.1992

> <Gold.PLP.part.metal>
0.0000

> <Gold.PLP.part.buried>
-5.1637

> <Gold.PLP.part.nonpolar>
-27.1677

> <Gold.PLP.part.repulsive>
1.1008

> <Gold.PLP.ligand.clash>
0.0000

> <Gold.PLP.ligand.torsion>
0.4511

> <Gold.PLP.Chemscore.Hbond>
3.8400

> <Gold.PLP.Chemscore.CHOScore>
0.0000

> <Gold.PLP.Chemscore.Metal>
0.0000

> <Gold.Chemscore.Hbonds>
donor molecule, donor type, donor heavy atom, donor atom, acceptor molecule, acceptor atom, score
      L1  H     3    15       P1  8028  1.00
      L1  H    11    29       P1  8028  1.85
      P1  H  7989  7998       L1     1  0.32

> <Gold.PLP.Chemscore.Internal.Correction>
0.0845

> <Gold.Rescore>
     Score         DG    S(hbond)    S(metal)    S(lipo)     H(rot)  DE(clash)    DE(int)     intcor
     17.16     -17.79       1.75        0.00      89.77       1.58       0.15       0.48       ----

> <Gold.Chemscore.Fitness>
17.1559

> <Gold.Chemscore.DG>
-17.7863

> <Gold.Chemscore.ZeroCoef>
-5.4800

> <Gold.Chemscore.Hbond>
1.7518

> <Gold.Chemscore.Metal>
0.0000

> <Gold.Chemscore.Lipo>
89.7744

> <Gold.Chemscore.Internal_Hbond>
0.0000

> <Gold.Chemscore.DEClash>
0.1455

> <Gold.Chemscore.DEInternal>
0.4849

> <Gold.Chemscore.Rot>
1.5813

> <Gold.Chemscore.Internal.Correction>
   9.000000E+99

> <Gold.Chemscore.Hbonds>
donor molecule, donor type, donor heavy atom, donor atom, acceptor molecule, acceptor atom, score
      L1  H     3    15       P1  8028  0.96
      L1  H    11    29       P1  8028  0.49
      P1  H  7989  7998       L1     1  0.03

> <Gold.Chemscore.Hbond.Weighted>
-5.8510

> <Gold.Chemscore.Metal.Weighted>
-0.0000

> <Gold.Chemscore.Lipo.Weighted>
-10.5036

> <Gold.Chemscore.Internal_Hbond.Weighted>
0.0000

> <Gold.Chemscore.DEClash.Weighted>
0.1455

> <Gold.Chemscore.DEInternal.Weighted>
0.4849

> <Gold.Chemscore.Rot.Weighted>
4.0482

> <Gold.Chemscore.Internal.Correction.Weighted>
   9.000000E+99

> <Gold.Protein.RotatedTorsions>
[ 6907 6896 6895 6894 ] final  -30.44 input  -60.11 | X-H torsion
[ 7974 7965 7964 7962 ] final  -13.08 input  175.53 | X-H torsion
[ 8008 7997 7996 7995 ] final   -9.98 input   59.86 | X-H torsion
[ 10167 10162 10161 10158 ] final -178.10 input  -65.29 | X-H torsion
[ 10718 10713 10712 10709 ] final  166.65 input   66.30 | X-H torsion
[ 10763 10752 10751 10750 ] final  -61.62 input  -60.55 | X-H torsion
[ 11005 11000 10999 10996 ] final -121.68 input  -57.11 | X-H torsion

> <Gold.Protein.ActiveResidues>
 VAL166  LYS551  ARG553  GLY616  TRP617  ASP618  TYR619  PRO620  LYS621  CYS622 
 ASP623  PHE694  ASN695  SER759  ASP760  ASP761  ALA762  ILE779  LEU786  VAL792 
 PHE793  MET794  SER795  GLU796  ALA797  LYS798  CYS799  TRP800  GLU811  SER814 

> <Gold.Protein.RotatedAtoms>
  151.1056  134.9997  159.8469 H   0  0  0  0  0  0  0  0  0  0  0  0  # atno 6907 bound_to 6896
  152.5440  134.1898  159.8679 H   0  0  0  0  0  0  0  0  0  0  0  0  # atno 6908 bound_to 6896
  151.1944  133.4603  159.2628 H   0  0  0  0  0  0  0  0  0  0  0  0  # atno 6909 bound_to 6896
  146.2128  140.3152  142.8386 H   0  0  0  0  0  0  0  0  0  0  0  0  # atno 7974 bound_to 7965
  154.5596  140.2341  155.8356 H   0  0  0  0  0  0  0  0  0  0  0  0  # atno 8008 bound_to 7997
  156.2018  140.3050  155.9502 H   0  0  0  0  0  0  0  0  0  0  0  0  # atno 8009 bound_to 7997
  155.2914  140.0427  157.3014 H   0  0  0  0  0  0  0  0  0  0  0  0  # atno 8010 bound_to 7997
  139.5448  144.2264  152.0967 H   0  0  0  0  0  0  0  0  0  0  0  0  # atno 10167 bound_to 10162
  157.0628  131.0345  151.2640 H   0  0  0  0  0  0  0  0  0  0  0  0  # atno 10718 bound_to 10713
  154.2874  135.6260  153.5371 H   0  0  0  0  0  0  0  0  0  0  0  0  # atno 10763 bound_to 10752
  152.9857  135.5647  154.5428 H   0  0  0  0  0  0  0  0  0  0  0  0  # atno 10764 bound_to 10752
  154.5031  135.2873  155.1380 H   0  0  0  0  0  0  0  0  0  0  0  0  # atno 10765 bound_to 10752
  141.0052  134.0345  157.3486 H   0  0  0  0  0  0  0  0  0  0  0  0  # atno 11005 bound_to 11000
  144.8960  140.7583  143.5897 LP  0  0  0  0  0  0  0  0  0  0  0  0  # atno 17320 bound_to 7965
  145.3076  139.1829  143.4656 LP  0  0  0  0  0  0  0  0  0  0  0  0  # atno 17321 bound_to 7965
  140.1749  144.4900  150.6559 LP  0  0  0  0  0  0  0  0  0  0  0  0  # atno 17342 bound_to 10162
  140.6693  143.2279  151.5666 LP  0  0  0  0  0  0  0  0  0  0  0  0  # atno 17343 bound_to 10162
  157.4941  130.7840  149.7537 LP  0  0  0  0  0  0  0  0  0  0  0  0  # atno 17370 bound_to 10713
  155.9973  130.3900  150.2744 LP  0  0  0  0  0  0  0  0  0  0  0  0  # atno 17371 bound_to 10713
  139.9059  135.0179  156.7485 LP  0  0  0  0  0  0  0  0  0  0  0  0  # atno 17394 bound_to 11000
  140.6824  133.9462  155.7918 LP  0  0  0  0  0  0  0  0  0  0  0  0  # atno 17395 bound_to 11000

$$$$
