AV-unprocessed.smi:203|AV-procd|sdf|1590|dock1
  -GOLD-   2262019483D 1   1.00000     0.00000
 Structure written by MMmdl.
 57 61  0  0  0  0  0  0  0  0  1 V2000
  150.1872  140.9850  154.5286 O   0  0  0  0  0  0  0  0  0  0  0  0
  150.2905  140.4597  155.6346 C   0  0  0  0  0  0  0  0  0  0  0  0
  151.6207  140.0765  156.2594 C   0  0  0  0  0  0  0  0  0  0  0  0
  151.2437  139.6729  157.6993 C   0  0  1  0  0  0  0  0  0  0  0  0
  151.7728  140.6417  158.8057 C   0  0  2  0  0  0  0  0  0  0  0  0
  151.3974  142.1235  158.5413 C   0  0  0  0  0  0  0  0  0  0  0  0
  151.9152  143.0452  159.6540 C   0  0  0  0  0  0  0  0  0  0  0  0
  153.4289  142.8680  159.8186 C   0  0  0  0  0  0  0  0  0  0  0  0
  153.7705  141.3943  160.0768 C   0  0  0  0  0  0  0  0  0  0  0  0
  153.2265  140.5326  159.0284 N   0  0  0  0  0  0  0  0  0  0  0  0
  153.7155  139.2781  159.1390 C   0  0  0  0  0  0  0  0  0  0  0  0
  153.9199  138.5894  157.9896 N   0  0  0  0  0  0  0  0  0  0  0  0
  154.3402  137.3218  158.0389 C   0  0  0  0  0  0  0  0  0  0  0  0
  154.6016  136.5698  159.1106 N   0  0  0  0  0  0  0  0  0  0  0  0
  154.4094  137.2688  160.2663 C   0  0  0  0  0  0  0  0  0  0  0  0
  153.9837  138.6212  160.3722 C   0  0  0  0  0  0  0  0  0  0  0  0
  153.9002  138.9910  161.7096 N   0  0  0  0  0  0  0  0  0  0  0  0
  154.2287  137.9078  162.3590 C   0  0  0  0  0  0  0  0  0  0  0  0
  154.5270  136.8209  161.5698 N   0  0  0  0  0  0  0  0  0  0  0  0
  154.8500  135.4817  162.0237 C   0  0  0  0  0  0  0  0  0  0  0  0
  154.6314  135.3034  163.5429 C   0  0  2  0  0  0  0  0  0  0  0  0
  155.6610  136.0121  164.2028 O   0  0  0  0  0  0  0  0  0  0  0  0
  154.6335  133.8326  164.0226 C   0  0  1  0  0  0  0  0  0  0  0  0
  153.7798  133.5566  165.2628 C   0  0  0  0  0  0  0  0  0  0  0  0
  153.4417  132.0768  165.1504 C   0  0  0  0  0  0  0  0  0  0  0  0
  153.7881  131.7257  163.7021 C   0  0  0  0  0  0  0  0  0  0  0  0
  154.0075  132.9787  163.0746 O   0  0  0  0  0  0  0  0  0  0  0  0
  149.7062  139.5353  157.6878 C   0  0  0  0  0  0  0  0  0  0  0  0
  149.2810  140.1455  156.4434 N   0  0  0  0  0  0  0  0  0  0  0  0
  152.0450  139.2327  155.7145 H   0  0  0  0  0  0  0  0  0  0  0  0
  152.3337  140.8997  156.2131 H   0  0  0  0  0  0  0  0  0  0  0  0
  151.6339  138.6722  157.8869 H   0  0  0  0  0  0  0  0  0  0  0  0
  151.2891  140.3560  159.7405 H   0  0  0  0  0  0  0  0  0  0  0  0
  151.8136  142.4558  157.5901 H   0  0  0  0  0  0  0  0  0  0  0  0
  150.3179  142.2438  158.4589 H   0  0  0  0  0  0  0  0  0  0  0  0
  151.6807  144.0845  159.4225 H   0  0  0  0  0  0  0  0  0  0  0  0
  151.4107  142.8109  160.5922 H   0  0  0  0  0  0  0  0  0  0  0  0
  153.9401  143.2110  158.9181 H   0  0  0  0  0  0  0  0  0  0  0  0
  153.7934  143.4860  160.6395 H   0  0  0  0  0  0  0  0  0  0  0  0
  154.8539  141.2758  160.1316 H   0  0  0  0  0  0  0  0  0  0  0  0
  153.3679  141.0874  161.0433 H   0  0  0  0  0  0  0  0  0  0  0  0
  154.4749  136.8370  157.0832 H   0  0  0  0  0  0  0  0  0  0  0  0
  154.2362  137.8633  163.4384 H   0  0  0  0  0  0  0  0  0  0  0  0
  154.2352  134.7731  161.4670 H   0  0  0  0  0  0  0  0  0  0  0  0
  155.8866  135.2693  161.7593 H   0  0  0  0  0  0  0  0  0  0  0  0
  153.6845  135.7650  163.8259 H   0  0  0  0  0  0  0  0  0  0  0  0
  155.2932  136.4411  164.9602 H   0  0  0  0  0  0  0  0  0  0  0  0
  155.6560  133.4910  164.1957 H   0  0  0  0  0  0  0  0  0  0  0  0
  154.2965  133.8021  166.1909 H   0  0  0  0  0  0  0  0  0  0  0  0
  152.8610  134.1435  165.2250 H   0  0  0  0  0  0  0  0  0  0  0  0
  154.0310  131.4756  165.8434 H   0  0  0  0  0  0  0  0  0  0  0  0
  152.3871  131.9027  165.3664 H   0  0  0  0  0  0  0  0  0  0  0  0
  154.7045  131.1356  163.6537 H   0  0  0  0  0  0  0  0  0  0  0  0
  152.9965  131.1680  163.2016 H   0  0  0  0  0  0  0  0  0  0  0  0
  149.4110  138.4854  157.6801 H   0  0  0  0  0  0  0  0  0  0  0  0
  149.2234  140.0038  158.5454 H   0  0  0  0  0  0  0  0  0  0  0  0
  148.3094  140.3124  156.2241 H   0  0  0  0  0  0  0  0  0  0  0  0
  1  2  2  0  0  0  0
  2 29  1  0  0  0  0
  2  3  1  0  0  0  0
  3  4  1  0  0  0  0
  3 30  1  0  0  0  0
  3 31  1  0  0  0  0
  4  5  1  0  0  0  0
  4 28  1  0  0  0  0
  4 32  1  0  0  0  0
  5 10  1  0  0  0  0
  5  6  1  0  0  0  0
  5 33  1  0  0  0  0
  6  7  1  0  0  0  0
  6 34  1  0  0  0  0
  6 35  1  0  0  0  0
  7  8  1  0  0  0  0
  7 36  1  0  0  0  0
  7 37  1  0  0  0  0
  8  9  1  0  0  0  0
  8 38  1  0  0  0  0
  8 39  1  0  0  0  0
  9 10  1  0  0  0  0
  9 40  1  0  0  0  0
  9 41  1  0  0  0  0
 10 11  1  0  0  0  0
 11 16  1  0  0  0  0
 11 12  2  0  0  0  0
 12 13  1  0  0  0  0
 13 14  2  0  0  0  0
 13 42  1  0  0  0  0
 14 15  1  0  0  0  0
 15 19  1  0  0  0  0
 15 16  2  0  0  0  0
 16 17  1  0  0  0  0
 17 18  2  0  0  0  0
 18 19  1  0  0  0  0
 18 43  1  0  0  0  0
 19 20  1  0  0  0  0
 20 21  1  0  0  0  0
 20 44  1  0  0  0  0
 20 45  1  0  0  0  0
 21 22  1  0  0  0  0
 21 23  1  0  0  0  0
 21 46  1  0  0  0  0
 22 47  1  0  0  0  0
 23 27  1  0  0  0  0
 23 24  1  0  0  0  0
 23 48  1  0  0  0  0
 24 25  1  0  0  0  0
 24 49  1  0  0  0  0
 24 50  1  0  0  0  0
 25 26  1  0  0  0  0
 25 51  1  0  0  0  0
 25 52  1  0  0  0  0
 26 27  1  0  0  0  0
 26 53  1  0  0  0  0
 26 54  1  0  0  0  0
 28 29  1  0  0  0  0
 28 55  1  0  0  0  0
 28 56  1  0  0  0  0
 29 57  1  0  0  0  0
M  END
> <s_m_source_file>
AV-unprocessed.smi

> <i_m_source_file_index>
203

> <i_lp_mmshare_version>
43012

> <i_f3d_flags>
0

> <s_epik_input>
Tz1DMVtDSDJdW0NASF0oW0NIMl1bTkhdMSlbQ0BASF0yW0NIMl1bQ0gyXVtDSDJdW0NIMl1OMmMobltjSF1uMyljKGMzNCluW2NIXW40W0NIMl1bQ0BIXShbT0hdKVtDQEBIXTVbQ0gyXVtDSDJdW0NIMl1PNQ==

> <s_epik_cmdline>
J2VwaWtfcHl0aG9uJywgJy1waCcsICc3LjAnLCAnLXRuJywgJzgnLCAnLW1hJywgJzIwMCcsICctbWV0YWxfYmluZGluZycsICctaW1hZScsICc8aW5maWxlLm1hZT4nLCAnLW9tYWUnLCAnPG91dGZpbGUubWFlPic=

> <r_lp_tautomer_probability>
1

> <r_epik_Ionization_Penalty>
0.00175146

> <r_epik_Ionization_Penalty_Charging>
0

> <r_epik_Ionization_Penalty_Neutral>
0.00175146

> <r_epik_State_Penalty>
0.00109045

> <r_epik_Charging_Adjusted_Penalty>
0.00109045

> <i_epik_Tot_Q>
0

> <i_epik_Tot_abs_Q>
0

> <r_epik_Metal_State_Penalty>
-0

> <b_epik_Metal_Only>
0

> <s_lp_Force_Field>
OPLS_2005

> <r_lp_Energy>
55.9411

> <b_lp_Chiralities_Consistent>
1

> <s_lp_Variant>
AV-unprocessed.smi:203-9

> <Gold.Version>
5.8.1

> <Gold.Id.Protein>
6NUR|6NUR_protein|mol2

> <Gold.PLP.Fitness>
46.6824

> <Gold.PLP.PLP>
-44.5079

> <Gold.PLP.part.hbond>
-2.1506

> <Gold.PLP.part.metal>
0.0000

> <Gold.PLP.part.buried>
-3.9656

> <Gold.PLP.part.nonpolar>
-38.9671

> <Gold.PLP.part.repulsive>
0.1448

> <Gold.PLP.ligand.clash>
0.0000

> <Gold.PLP.ligand.torsion>
1.5138

> <Gold.PLP.Chemscore.Hbond>
1.5648

> <Gold.PLP.Chemscore.CHOScore>
0.0000

> <Gold.PLP.Chemscore.Metal>
0.0000

> <Gold.Chemscore.Hbonds>
donor molecule, donor type, donor heavy atom, donor atom, acceptor molecule, acceptor atom, score
      P1  H  7989  7998       L1     1  0.64
      P1  H  7997  8010       L1    12  0.88

> <Gold.PLP.Chemscore.Internal.Correction>
0.5077

> <Gold.Rescore>
     Score         DG    S(hbond)    S(metal)    S(lipo)     H(rot)  DE(clash)    DE(int)     intcor
      9.77     -14.91       1.15        0.00     107.10       2.72       0.31       4.83       ----

> <Gold.Chemscore.Fitness>
9.7692

> <Gold.Chemscore.DG>
-14.9074

> <Gold.Chemscore.ZeroCoef>
-5.4800

> <Gold.Chemscore.Hbond>
1.1535

> <Gold.Chemscore.Metal>
0.0000

> <Gold.Chemscore.Lipo>
107.0972

> <Gold.Chemscore.Internal_Hbond>
0.0000

> <Gold.Chemscore.DEClash>
0.3057

> <Gold.Chemscore.DEInternal>
4.8324

> <Gold.Chemscore.Rot>
2.7171

> <Gold.Chemscore.Internal.Correction>
   9.000000E+99

> <Gold.Chemscore.Hbonds>
donor molecule, donor type, donor heavy atom, donor atom, acceptor molecule, acceptor atom, score
      P1  H  7989  7998       L1     1  0.59
      P1  H  7997  8010       L1    12  0.17

> <Gold.Chemscore.Hbond.Weighted>
-3.8527

> <Gold.Chemscore.Metal.Weighted>
-0.0000

> <Gold.Chemscore.Lipo.Weighted>
-12.5304

> <Gold.Chemscore.Internal_Hbond.Weighted>
0.0000

> <Gold.Chemscore.DEClash.Weighted>
0.3057

> <Gold.Chemscore.DEInternal.Weighted>
4.8324

> <Gold.Chemscore.Rot.Weighted>
6.9557

> <Gold.Chemscore.Internal.Correction.Weighted>
   9.000000E+99

> <Gold.Protein.RotatedTorsions>
[ 6907 6896 6895 6894 ] final  112.74 input  -60.11 | X-H torsion
[ 7974 7965 7964 7962 ] final  170.67 input  175.53 | X-H torsion
[ 8008 7997 7996 7995 ] final   42.24 input   59.86 | X-H torsion
[ 10167 10162 10161 10158 ] final   56.40 input  -65.29 | X-H torsion
[ 10718 10713 10712 10709 ] final  -86.04 input   66.30 | X-H torsion
[ 10763 10752 10751 10750 ] final  176.70 input  -60.55 | X-H torsion
[ 11005 11000 10999 10996 ] final  127.69 input  -57.11 | X-H torsion

> <Gold.Protein.ActiveResidues>
 VAL166  LYS551  ARG553  GLY616  TRP617  ASP618  TYR619  PRO620  LYS621  CYS622 
 ASP623  PHE694  ASN695  SER759  ASP760  ASP761  ALA762  ILE779  LEU786  VAL792 
 PHE793  MET794  SER795  GLU796  ALA797  LYS798  CYS799  TRP800  GLU811  SER814 

> <Gold.Protein.RotatedAtoms>
  152.4900  133.8474  159.7183 H   0  0  0  0  0  0  0  0  0  0  0  0  # atno 6907 bound_to 6896
  150.9020  133.7096  159.2883 H   0  0  0  0  0  0  0  0  0  0  0  0  # atno 6908 bound_to 6896
  151.4534  135.1036  159.9756 H   0  0  0  0  0  0  0  0  0  0  0  0  # atno 6909 bound_to 6896
  144.7317  139.9237  143.6421 H   0  0  0  0  0  0  0  0  0  0  0  0  # atno 7974 bound_to 7965
  155.2829  140.3373  155.4257 H   0  0  0  0  0  0  0  0  0  0  0  0  # atno 8008 bound_to 7997
  156.2081  140.1759  156.7795 H   0  0  0  0  0  0  0  0  0  0  0  0  # atno 8009 bound_to 7997
  154.5649  140.0680  156.8860 H   0  0  0  0  0  0  0  0  0  0  0  0  # atno 8010 bound_to 7997
  140.2091  144.3908  150.6496 H   0  0  0  0  0  0  0  0  0  0  0  0  # atno 10167 bound_to 10162
  155.9992  130.4751  150.4655 H   0  0  0  0  0  0  0  0  0  0  0  0  # atno 10718 bound_to 10713
  154.4846  135.2776  155.1544 H   0  0  0  0  0  0  0  0  0  0  0  0  # atno 10763 bound_to 10752
  154.3240  135.6204  153.5524 H   0  0  0  0  0  0  0  0  0  0  0  0  # atno 10764 bound_to 10752
  152.9879  135.5749  154.5254 H   0  0  0  0  0  0  0  0  0  0  0  0  # atno 10765 bound_to 10752
  139.9520  134.9620  156.8891 H   0  0  0  0  0  0  0  0  0  0  0  0  # atno 11005 bound_to 11000
  146.0910  139.3900  143.0406 LP  0  0  0  0  0  0  0  0  0  0  0  0  # atno 17320 bound_to 7965
  145.7711  140.9896  143.1149 LP  0  0  0  0  0  0  0  0  0  0  0  0  # atno 17321 bound_to 7965
  140.6336  143.2191  151.6442 LP  0  0  0  0  0  0  0  0  0  0  0  0  # atno 17342 bound_to 10162
  139.5187  144.3276  152.0855 LP  0  0  0  0  0  0  0  0  0  0  0  0  # atno 17343 bound_to 10162
  157.2675  131.0580  151.2281 LP  0  0  0  0  0  0  0  0  0  0  0  0  # atno 17370 bound_to 10713
  157.3374  130.7015  149.6360 LP  0  0  0  0  0  0  0  0  0  0  0  0  # atno 17371 bound_to 10713
  140.5696  134.0456  155.7426 LP  0  0  0  0  0  0  0  0  0  0  0  0  # atno 17394 bound_to 11000
  141.1185  133.9500  157.2775 LP  0  0  0  0  0  0  0  0  0  0  0  0  # atno 17395 bound_to 11000

$$$$
