AV-unprocessed.smi:3044|AV-procd|sdf|11606|dock10
  -GOLD-   2272016583D 1   1.00000     0.00000
 Structure written by MMmdl.
 41 42  0  0  0  0  0  0  0  0  1 V2000
  147.1498  141.8578  157.8291 C   0  0  0  0  0  0  0  0  0  0  0  0
  147.0794  141.8030  156.3126 C   0  0  0  0  0  0  0  0  0  0  0  0
  145.9140  142.2239  155.7720 N   0  0  0  0  0  0  0  0  0  0  0  0
  145.7886  142.2037  154.4288 C   0  0  0  0  0  0  0  0  0  0  0  0
  146.8137  141.7744  153.5655 C   0  0  0  0  0  0  0  0  0  0  0  0
  148.0259  141.3349  154.1294 C   0  0  0  0  0  0  0  0  0  0  0  0
  148.1686  141.3321  155.5383 C   0  0  0  0  0  0  0  0  0  0  0  0
  149.3597  140.9213  156.1983 N   0  0  0  0  0  0  0  0  0  0  0  0
  150.4693  140.3804  155.6626 C   0  0  0  0  0  0  0  0  0  0  0  0
  150.6432  140.1742  154.4623 O   0  0  0  0  0  0  0  0  0  0  0  0
  151.5642  139.9926  156.6610 C   0  0  0  0  0  0  0  0  0  0  0  0
  151.0383  139.8950  157.9825 O   0  0  0  0  0  0  0  0  0  0  0  0
  151.4160  140.9358  158.8808 C   0  0  1  0  0  0  0  0  0  0  0  0
  152.8594  140.6690  159.3378 C   0  0  0  0  0  0  0  0  0  0  0  0
  153.3834  141.8135  160.2185 C   0  0  0  0  0  0  0  0  0  0  0  0
  153.2786  143.1648  159.4935 C   0  0  0  0  0  0  0  0  0  0  0  0
  151.8362  143.4475  159.0303 C   0  0  1  0  0  0  0  0  0  0  0  0
  151.7329  144.7929  158.2979 C   0  0  0  0  0  0  0  0  0  0  0  0
  151.3139  142.2911  158.1561 C   0  0  0  0  0  0  0  0  0  0  0  0
  147.2605  140.8548  158.2402 H   0  0  0  0  0  0  0  0  0  0  0  0
  146.2483  142.2983  158.2568 H   0  0  0  0  0  0  0  0  0  0  0  0
  148.0008  142.4588  158.1500 H   0  0  0  0  0  0  0  0  0  0  0  0
  144.8453  142.5466  154.0299 H   0  0  0  0  0  0  0  0  0  0  0  0
  146.6748  141.7862  152.4946 H   0  0  0  0  0  0  0  0  0  0  0  0
  148.8244  141.0240  153.4736 H   0  0  0  0  0  0  0  0  0  0  0  0
  149.3298  140.9496  157.2073 H   0  0  0  0  0  0  0  0  0  0  0  0
  152.0475  139.0588  156.3689 H   0  0  0  0  0  0  0  0  0  0  0  0
  152.3339  140.7647  156.6500 H   0  0  0  0  0  0  0  0  0  0  0  0
  150.7736  140.9549  159.7638 H   0  0  0  0  0  0  0  0  0  0  0  0
  152.9081  139.7271  159.8851 H   0  0  0  0  0  0  0  0  0  0  0  0
  153.5064  140.5554  158.4670 H   0  0  0  0  0  0  0  0  0  0  0  0
  152.8125  141.8510  161.1472 H   0  0  0  0  0  0  0  0  0  0  0  0
  154.4193  141.6216  160.4996 H   0  0  0  0  0  0  0  0  0  0  0  0
  153.6218  143.9615  160.1546 H   0  0  0  0  0  0  0  0  0  0  0  0
  153.9494  143.1679  158.6332 H   0  0  0  0  0  0  0  0  0  0  0  0
  151.2048  143.5083  159.9179 H   0  0  0  0  0  0  0  0  0  0  0  0
  152.3371  144.7977  157.3901 H   0  0  0  0  0  0  0  0  0  0  0  0
  152.0763  145.6120  158.9303 H   0  0  0  0  0  0  0  0  0  0  0  0
  150.7022  145.0066  158.0132 H   0  0  0  0  0  0  0  0  0  0  0  0
  151.8795  142.2500  157.2243 H   0  0  0  0  0  0  0  0  0  0  0  0
  150.2776  142.4846  157.8801 H   0  0  0  0  0  0  0  0  0  0  0  0
  1  2  1  0  0  0  0
  1 20  1  0  0  0  0
  1 21  1  0  0  0  0
  1 22  1  0  0  0  0
  2  7  1  0  0  0  0
  2  3  2  0  0  0  0
  3  4  1  0  0  0  0
  4  5  2  0  0  0  0
  4 23  1  0  0  0  0
  5  6  1  0  0  0  0
  5 24  1  0  0  0  0
  6  7  2  0  0  0  0
  6 25  1  0  0  0  0
  7  8  1  0  0  0  0
  8  9  1  0  0  0  0
  8 26  1  0  0  0  0
  9 10  2  0  0  0  0
  9 11  1  0  0  0  0
 11 12  1  0  0  0  0
 11 27  1  0  0  0  0
 11 28  1  0  0  0  0
 12 13  1  0  0  0  0
 13 19  1  0  0  0  0
 13 14  1  0  0  0  0
 13 29  1  0  0  0  0
 14 15  1  0  0  0  0
 14 30  1  0  0  0  0
 14 31  1  0  0  0  0
 15 16  1  0  0  0  0
 15 32  1  0  0  0  0
 15 33  1  0  0  0  0
 16 17  1  0  0  0  0
 16 34  1  0  0  0  0
 16 35  1  0  0  0  0
 17 18  1  0  0  0  0
 17 19  1  0  0  0  0
 17 36  1  0  0  0  0
 18 37  1  0  0  0  0
 18 38  1  0  0  0  0
 18 39  1  0  0  0  0
 19 40  1  0  0  0  0
 19 41  1  0  0  0  0
M  END
> <s_m_source_file>
AV-unprocessed.smi

> <i_m_source_file_index>
3044

> <i_lp_mmshare_version>
43012

> <i_f3d_flags>
0

> <s_epik_input>
W0NIM11jMW5bY0hdW2NIXVtjSF1jMVtOSF1DKD1PKVtDSDJdT1tDQEBIXTJbQ0gyXVtDSDJdW0NIMl1bQ0BASF0oW0NIM10pW0NIMl0y

> <s_epik_cmdline>
J2VwaWtfcHl0aG9uJywgJy1waCcsICc3LjAnLCAnLXRuJywgJzgnLCAnLW1hJywgJzIwMCcsICctbWV0YWxfYmluZGluZycsICctaW1hZScsICc8aW5maWxlLm1hZT4nLCAnLW9tYWUnLCAnPG91dGZpbGUubWFlPic=

> <r_epik_Ionization_Penalty>
0.0077122

> <r_epik_Ionization_Penalty_Charging>
0

> <r_epik_Ionization_Penalty_Neutral>
0.0077122

> <r_epik_State_Penalty>
0.00577497

> <r_epik_Charging_Adjusted_Penalty>
0.00577497

> <i_epik_Tot_Q>
0

> <i_epik_Tot_abs_Q>
0

> <r_epik_Metal_State_Penalty>
-0

> <b_epik_Metal_Only>
0

> <s_lp_Force_Field>
OPLS_2005

> <r_lp_Energy>
17.5643

> <b_lp_Chiralities_Consistent>
1

> <s_lp_Variant>
AV-unprocessed.smi:3044-2

> <Gold.Version>
5.8.1

> <Gold.Id.Protein>
6NUR|6NUR_protein|mol2

> <Gold.PLP.Fitness>
42.0923

> <Gold.PLP.PLP>
-40.5573

> <Gold.PLP.part.hbond>
-0.9591

> <Gold.PLP.part.metal>
0.0000

> <Gold.PLP.part.buried>
-6.3831

> <Gold.PLP.part.nonpolar>
-34.2255

> <Gold.PLP.part.repulsive>
0.2839

> <Gold.PLP.ligand.clash>
0.0000

> <Gold.PLP.ligand.torsion>
0.7366

> <Gold.PLP.Chemscore.Hbond>
1.0000

> <Gold.PLP.Chemscore.CHOScore>
0.0000

> <Gold.PLP.Chemscore.Metal>
0.0000

> <Gold.Chemscore.Hbonds>
donor molecule, donor type, donor heavy atom, donor atom, acceptor molecule, acceptor atom, score
      P1  H  7989  7998       L1    10  1.00
      L1  C     4    23       P1 10175  0.02

> <Gold.PLP.Chemscore.Internal.Correction>
0.0081

> <Gold.Rescore>
     Score         DG    S(hbond)    S(metal)    S(lipo)     H(rot)  DE(clash)    DE(int)     intcor
     16.22     -18.18       1.00        0.00     108.69       1.31       0.05       1.91       ----

> <Gold.Chemscore.Fitness>
16.2195

> <Gold.Chemscore.DG>
-18.1795

> <Gold.Chemscore.ZeroCoef>
-5.4800

> <Gold.Chemscore.Hbond>
0.9961

> <Gold.Chemscore.Metal>
0.0000

> <Gold.Chemscore.Lipo>
108.6912

> <Gold.Chemscore.Internal_Hbond>
0.0000

> <Gold.Chemscore.DEClash>
0.0521

> <Gold.Chemscore.DEInternal>
1.9079

> <Gold.Chemscore.Rot>
1.3064

> <Gold.Chemscore.Internal.Correction>
   9.000000E+99

> <Gold.Chemscore.Hbonds>
donor molecule, donor type, donor heavy atom, donor atom, acceptor molecule, acceptor atom, score
      P1  H  7989  7998       L1    10  0.94

> <Gold.Chemscore.Hbond.Weighted>
-3.3270

> <Gold.Chemscore.Metal.Weighted>
-0.0000

> <Gold.Chemscore.Lipo.Weighted>
-12.7169

> <Gold.Chemscore.Internal_Hbond.Weighted>
0.0000

> <Gold.Chemscore.DEClash.Weighted>
0.0521

> <Gold.Chemscore.DEInternal.Weighted>
1.9079

> <Gold.Chemscore.Rot.Weighted>
3.3443

> <Gold.Chemscore.Internal.Correction.Weighted>
   9.000000E+99

> <Gold.Protein.RotatedTorsions>
[ 6907 6896 6895 6894 ] final -168.39 input  -60.11 | X-H torsion
[ 7974 7965 7964 7962 ] final   67.75 input  175.53 | X-H torsion
[ 8008 7997 7996 7995 ] final -146.07 input   59.86 | X-H torsion
[ 10167 10162 10161 10158 ] final -130.61 input  -65.29 | X-H torsion
[ 10718 10713 10712 10709 ] final  116.83 input   66.30 | X-H torsion
[ 10763 10752 10751 10750 ] final  118.63 input  -60.55 | X-H torsion
[ 11005 11000 10999 10996 ] final   83.29 input  -57.11 | X-H torsion

> <Gold.Protein.ActiveResidues>
 VAL166  LYS551  ARG553  GLY616  TRP617  ASP618  TYR619  PRO620  LYS621  CYS622 
 ASP623  PHE694  ASN695  SER759  ASP760  ASP761  ALA762  ILE779  LEU786  VAL792 
 PHE793  MET794  SER795  GLU796  ALA797  LYS798  CYS799  TRP800  GLU811  SER814 

> <Gold.Protein.RotatedAtoms>
  151.4749  133.3560  159.2828 H   0  0  0  0  0  0  0  0  0  0  0  0  # atno 6907 bound_to 6896
  150.8936  134.8344  159.7322 H   0  0  0  0  0  0  0  0  0  0  0  0  # atno 6908 bound_to 6896
  152.4838  134.4661  159.9672 H   0  0  0  0  0  0  0  0  0  0  0  0  # atno 6909 bound_to 6896
  145.8108  139.3032  143.1100 H   0  0  0  0  0  0  0  0  0  0  0  0  # atno 7974 bound_to 7965
  155.5534  140.0618  157.2845 H   0  0  0  0  0  0  0  0  0  0  0  0  # atno 8008 bound_to 7997
  154.4413  140.1898  156.0754 H   0  0  0  0  0  0  0  0  0  0  0  0  # atno 8009 bound_to 7997
  156.0500  140.3285  155.7344 H   0  0  0  0  0  0  0  0  0  0  0  0  # atno 8010 bound_to 7997
  139.9275  143.6311  152.2538 H   0  0  0  0  0  0  0  0  0  0  0  0  # atno 10167 bound_to 10162
  157.6136  131.1030  150.7528 H   0  0  0  0  0  0  0  0  0  0  0  0  # atno 10718 bound_to 10713
  153.5706  135.3503  155.2836 H   0  0  0  0  0  0  0  0  0  0  0  0  # atno 10763 bound_to 10752
  154.8682  135.4158  154.2730 H   0  0  0  0  0  0  0  0  0  0  0  0  # atno 10764 bound_to 10752
  153.3494  135.7054  153.6870 H   0  0  0  0  0  0  0  0  0  0  0  0  # atno 10765 bound_to 10752
  139.9035  134.8134  156.2290 H   0  0  0  0  0  0  0  0  0  0  0  0  # atno 11005 bound_to 11000
  145.9779  140.8707  143.0129 LP  0  0  0  0  0  0  0  0  0  0  0  0  # atno 17320 bound_to 7965
  144.6757  140.2038  143.7384 LP  0  0  0  0  0  0  0  0  0  0  0  0  # atno 17321 bound_to 7965
  139.6810  144.7655  151.1609 LP  0  0  0  0  0  0  0  0  0  0  0  0  # atno 17342 bound_to 10162
  140.7646  143.5725  150.8981 LP  0  0  0  0  0  0  0  0  0  0  0  0  # atno 17343 bound_to 10162
  156.7900  130.4887  149.5386 LP  0  0  0  0  0  0  0  0  0  0  0  0  # atno 17370 bound_to 10713
  156.1248  130.6136  151.0247 LP  0  0  0  0  0  0  0  0  0  0  0  0  # atno 17371 bound_to 10713
  141.0357  133.6964  156.1509 LP  0  0  0  0  0  0  0  0  0  0  0  0  # atno 17394 bound_to 11000
  140.7030  134.4544  157.5585 LP  0  0  0  0  0  0  0  0  0  0  0  0  # atno 17395 bound_to 11000

$$$$
