AV-unprocessed.smi:2889|AV-procd|sdf|11109|dock6
  -GOLD-   2272015573D 1   1.00000     0.00000
 Structure written by MMmdl.
 36 37  0  0  0  0  0  0  0  0  1 V2000
  147.3777  140.0013  153.5282 C   0  0  0  0  0  0  0  0  0  0  0  0
  147.3173  138.9198  154.9824 S   0  0  0  0  0  0  0  0  0  0  0  0
  148.8068  137.8990  154.7361 C   0  0  1  0  0  0  0  0  0  0  0  0
  150.0513  138.7901  154.5620 C   0  0  0  0  0  0  0  0  0  0  0  0
  151.3208  137.9579  154.3309 C   0  0  0  0  0  0  0  0  0  0  0  0
  151.5409  136.9593  155.4750 C   0  0  0  0  0  0  0  0  0  0  0  0
  150.3206  136.0434  155.6608 C   0  0  0  0  0  0  0  0  0  0  0  0
  149.0084  136.8357  155.8451 C   0  0  1  0  0  0  0  0  0  0  0  0
  148.9443  137.4438  157.1816 N   0  0  0  0  0  0  0  0  0  0  0  0
  149.0244  136.4378  158.5837 S   0  0  0  0  0  0  0  0  0  0  0  0
  149.2604  135.0557  158.1373 O   0  0  0  0  0  0  0  0  0  0  0  0
  149.9524  137.0832  159.5248 O   0  0  0  0  0  0  0  0  0  0  0  0
  147.3111  136.5676  159.2580 C   0  0  0  0  0  0  0  0  0  0  0  0
  147.3121  136.2928  160.7354 C   0  0  0  0  0  0  0  0  0  0  0  0
  146.7002  135.2139  161.4312 C   0  0  0  0  0  0  0  0  0  0  0  0
  147.0214  135.4522  162.7361 C   0  0  0  0  0  0  0  0  0  0  0  0
  147.7580  136.5865  162.8440 O   0  0  0  0  0  0  0  0  0  0  0  0
  147.9338  137.1192  161.5618 N   0  0  0  0  0  0  0  0  0  0  0  0
  146.5940  140.7556  153.5946 H   0  0  0  0  0  0  0  0  0  0  0  0
  147.2191  139.4303  152.6136 H   0  0  0  0  0  0  0  0  0  0  0  0
  148.3407  140.5079  153.4659 H   0  0  0  0  0  0  0  0  0  0  0  0
  148.6584  137.3688  153.7943 H   0  0  0  0  0  0  0  0  0  0  0  0
  149.9047  139.4706  153.7226 H   0  0  0  0  0  0  0  0  0  0  0  0
  150.1834  139.4165  155.4452 H   0  0  0  0  0  0  0  0  0  0  0  0
  151.2414  137.4214  153.3847 H   0  0  0  0  0  0  0  0  0  0  0  0
  152.1849  138.6169  154.2422 H   0  0  0  0  0  0  0  0  0  0  0  0
  152.4277  136.3571  155.2763 H   0  0  0  0  0  0  0  0  0  0  0  0
  151.7380  137.4999  156.4016 H   0  0  0  0  0  0  0  0  0  0  0  0
  150.2241  135.4113  154.7772 H   0  0  0  0  0  0  0  0  0  0  0  0
  150.4846  135.3610  156.4950 H   0  0  0  0  0  0  0  0  0  0  0  0
  148.1884  136.1226  155.7699 H   0  0  0  0  0  0  0  0  0  0  0  0
  149.5849  138.2334  157.2574 H   0  0  0  0  0  0  0  0  0  0  0  0
  146.9462  137.5742  159.0532 H   0  0  0  0  0  0  0  0  0  0  0  0
  146.6698  135.8699  158.7203 H   0  0  0  0  0  0  0  0  0  0  0  0
  146.1246  134.3908  161.0347 H   0  0  0  0  0  0  0  0  0  0  0  0
  146.8093  134.9333  163.6591 H   0  0  0  0  0  0  0  0  0  0  0  0
  1  2  1  0  0  0  0
  1 19  1  0  0  0  0
  1 20  1  0  0  0  0
  1 21  1  0  0  0  0
  2  3  1  0  0  0  0
  3  8  1  0  0  0  0
  3  4  1  0  0  0  0
  3 22  1  0  0  0  0
  4  5  1  0  0  0  0
  4 23  1  0  0  0  0
  4 24  1  0  0  0  0
  5  6  1  0  0  0  0
  5 25  1  0  0  0  0
  5 26  1  0  0  0  0
  6  7  1  0  0  0  0
  6 27  1  0  0  0  0
  6 28  1  0  0  0  0
  7  8  1  0  0  0  0
  7 29  1  0  0  0  0
  7 30  1  0  0  0  0
  8  9  1  0  0  0  0
  8 31  1  0  0  0  0
  9 10  1  0  0  0  0
  9 32  1  0  0  0  0
 10 11  2  0  0  0  0
 10 12  2  0  0  0  0
 10 13  1  0  0  0  0
 13 14  1  0  0  0  0
 13 33  1  0  0  0  0
 13 34  1  0  0  0  0
 14 18  2  0  0  0  0
 14 15  1  0  0  0  0
 15 16  2  0  0  0  0
 15 35  1  0  0  0  0
 16 17  1  0  0  0  0
 16 36  1  0  0  0  0
 17 18  1  0  0  0  0
M  END
> <s_m_source_file>
AV-unprocessed.smi

> <i_m_source_file_index>
2889

> <i_lp_mmshare_version>
43012

> <i_f3d_flags>
0

> <s_epik_input>
W0NIM11TW0NAQEhdMVtDSDJdW0NIMl1bQ0gyXVtDSDJdW0NASF0xW05IXVMoPU8pKD1PKVtDSDJdYzJbY0hdW2NIXW9uMg==

> <s_epik_cmdline>
J2VwaWtfcHl0aG9uJywgJy1waCcsICc3LjAnLCAnLXRuJywgJzgnLCAnLW1hJywgJzIwMCcsICctbWV0YWxfYmluZGluZycsICctaW1hZScsICc8aW5maWxlLm1hZT4nLCAnLW9tYWUnLCAnPG91dGZpbGUubWFlPic=

> <r_lp_tautomer_probability>
1

> <r_epik_Ionization_Penalty>
0.000229547

> <r_epik_Ionization_Penalty_Charging>
0

> <r_epik_Ionization_Penalty_Neutral>
0.000229547

> <r_epik_State_Penalty>
-0

> <r_epik_Charging_Adjusted_Penalty>
0

> <i_epik_Tot_Q>
0

> <i_epik_Tot_abs_Q>
0

> <r_epik_Metal_State_Penalty>
0.145979

> <b_epik_Metal_Only>
0

> <s_lp_Force_Field>
OPLS_2005

> <r_lp_Energy>
4.05076

> <b_lp_Chiralities_Consistent>
1

> <s_lp_Variant>
AV-unprocessed.smi:2889-2

> <Gold.Version>
5.8.1

> <Gold.Id.Protein>
6NUR|6NUR_protein|mol2

> <Gold.PLP.Fitness>
35.6837

> <Gold.PLP.PLP>
-29.3682

> <Gold.PLP.part.hbond>
-4.6354

> <Gold.PLP.part.metal>
0.0000

> <Gold.PLP.part.buried>
-4.4239

> <Gold.PLP.part.nonpolar>
-20.1508

> <Gold.PLP.part.repulsive>
0.0036

> <Gold.PLP.ligand.clash>
0.0000

> <Gold.PLP.ligand.torsion>
0.6743

> <Gold.PLP.Chemscore.Hbond>
2.4996

> <Gold.PLP.Chemscore.CHOScore>
0.0000

> <Gold.PLP.Chemscore.Metal>
0.0000

> <Gold.Chemscore.Hbonds>
donor molecule, donor type, donor heavy atom, donor atom, acceptor molecule, acceptor atom, score
      P1  H  6896  6907       L1    11  1.00
      P1  H  6931  6943       L1    18  0.95
      P1  H  6934  6947       L1    18  0.50

> <Gold.PLP.Chemscore.Internal.Correction>
0.1652

> <Gold.Rescore>
     Score         DG    S(hbond)    S(metal)    S(lipo)     H(rot)  DE(clash)    DE(int)     intcor
     12.36     -15.52       2.21        0.00      62.30       1.81       0.04       3.12       ----

> <Gold.Chemscore.Fitness>
12.3610

> <Gold.Chemscore.DG>
-15.5195

> <Gold.Chemscore.ZeroCoef>
-5.4800

> <Gold.Chemscore.Hbond>
2.2077

> <Gold.Chemscore.Metal>
0.0000

> <Gold.Chemscore.Lipo>
62.2970

> <Gold.Chemscore.Internal_Hbond>
0.0000

> <Gold.Chemscore.DEClash>
0.0370

> <Gold.Chemscore.DEInternal>
3.1216

> <Gold.Chemscore.Rot>
1.8058

> <Gold.Chemscore.Internal.Correction>
   9.000000E+99

> <Gold.Chemscore.Hbonds>
donor molecule, donor type, donor heavy atom, donor atom, acceptor molecule, acceptor atom, score
      P1  H  6896  6907       L1    11  0.33
      P1  H  6931  6943       L1    18  0.21
      P1  H  6934  6947       L1    18  0.20

> <Gold.Chemscore.Hbond.Weighted>
-7.3736

> <Gold.Chemscore.Metal.Weighted>
-0.0000

> <Gold.Chemscore.Lipo.Weighted>
-7.2888

> <Gold.Chemscore.Internal_Hbond.Weighted>
0.0000

> <Gold.Chemscore.DEClash.Weighted>
0.0370

> <Gold.Chemscore.DEInternal.Weighted>
3.1216

> <Gold.Chemscore.Rot.Weighted>
4.6228

> <Gold.Chemscore.Internal.Correction.Weighted>
   9.000000E+99

> <Gold.Protein.RotatedTorsions>
[ 6907 6896 6895 6894 ] final  -81.14 input  -60.11 | X-H torsion
[ 7974 7965 7964 7962 ] final  -39.74 input  175.53 | X-H torsion
[ 8008 7997 7996 7995 ] final  -74.85 input   59.86 | X-H torsion
[ 10167 10162 10161 10158 ] final  -28.59 input  -65.29 | X-H torsion
[ 10718 10713 10712 10709 ] final   35.82 input   66.30 | X-H torsion
[ 10763 10752 10751 10750 ] final  113.18 input  -60.55 | X-H torsion
[ 11005 11000 10999 10996 ] final   39.34 input  -57.11 | X-H torsion

> <Gold.Protein.ActiveResidues>
 VAL166  LYS551  ARG553  GLY616  TRP617  ASP618  TYR619  PRO620  LYS621  CYS622 
 ASP623  PHE694  ASN695  SER759  ASP760  ASP761  ALA762  ILE779  LEU786  VAL792 
 PHE793  MET794  SER795  GLU796  ALA797  LYS798  CYS799  TRP800  GLU811  SER814 

> <Gold.Protein.RotatedAtoms>
  150.6917  134.3862  159.5055 H   0  0  0  0  0  0  0  0  0  0  0  0  # atno 6907 bound_to 6896
  152.1657  134.8873  160.0547 H   0  0  0  0  0  0  0  0  0  0  0  0  # atno 6908 bound_to 6896
  151.9918  133.3759  159.4184 H   0  0  0  0  0  0  0  0  0  0  0  0  # atno 6909 bound_to 6896
  146.0369  140.6659  142.9106 H   0  0  0  0  0  0  0  0  0  0  0  0  # atno 7974 bound_to 7965
  154.5366  140.0754  156.8437 H   0  0  0  0  0  0  0  0  0  0  0  0  # atno 8008 bound_to 7997
  155.3266  140.3399  155.4222 H   0  0  0  0  0  0  0  0  0  0  0  0  # atno 8009 bound_to 7997
  156.1834  140.1660  156.8218 H   0  0  0  0  0  0  0  0  0  0  0  0  # atno 8010 bound_to 7997
  140.7268  143.3998  151.1285 H   0  0  0  0  0  0  0  0  0  0  0  0  # atno 10167 bound_to 10162
  157.3273  130.7479  149.6824 H   0  0  0  0  0  0  0  0  0  0  0  0  # atno 10718 bound_to 10713
  153.4887  135.3663  155.2480 H   0  0  0  0  0  0  0  0  0  0  0  0  # atno 10763 bound_to 10752
  154.8753  135.3972  154.3614 H   0  0  0  0  0  0  0  0  0  0  0  0  # atno 10764 bound_to 10752
  153.4230  135.7080  153.6346 H   0  0  0  0  0  0  0  0  0  0  0  0  # atno 10765 bound_to 10752
  140.2037  134.3839  155.8083 H   0  0  0  0  0  0  0  0  0  0  0  0  # atno 11005 bound_to 11000
  144.7056  140.3837  143.7121 LP  0  0  0  0  0  0  0  0  0  0  0  0  # atno 17320 bound_to 7965
  145.6949  139.1647  143.2626 LP  0  0  0  0  0  0  0  0  0  0  0  0  # atno 17321 bound_to 7965
  139.7616  143.8627  152.3101 LP  0  0  0  0  0  0  0  0  0  0  0  0  # atno 17342 bound_to 10162
  139.8515  144.7162  150.9208 LP  0  0  0  0  0  0  0  0  0  0  0  0  # atno 17343 bound_to 10162
  155.9692  130.4205  150.4427 LP  0  0  0  0  0  0  0  0  0  0  0  0  # atno 17370 bound_to 10713
  157.2453  131.0534  151.2412 LP  0  0  0  0  0  0  0  0  0  0  0  0  # atno 17371 bound_to 10713
  141.2227  133.7107  156.8301 LP  0  0  0  0  0  0  0  0  0  0  0  0  # atno 17394 bound_to 11000
  140.2026  134.8886  157.3186 LP  0  0  0  0  0  0  0  0  0  0  0  0  # atno 17395 bound_to 11000

$$$$
