AV-unprocessed.smi:2772|AV-procd|sdf|10670|dock9
  -GOLD-   2272015113D 1   1.00000     0.00000
 Structure written by MMmdl.
 54 56  0  0  0  0  0  0  0  0  2 V2000
  148.3250  129.1874  153.8837 C   0  0  0  0  0  0  0  0  0  0  0  0
  148.6760  130.6477  154.0775 C   0  0  0  0  0  0  0  0  0  0  0  0
  149.5634  131.0489  155.0968 C   0  0  0  0  0  0  0  0  0  0  0  0
  149.8603  132.4189  155.2312 C   0  0  0  0  0  0  0  0  0  0  0  0
  149.2654  133.3391  154.3344 C   0  0  0  0  0  0  0  0  0  0  0  0
  149.4693  134.7456  154.3726 N   0  0  0  0  0  0  0  0  0  0  0  0
  150.3168  135.4521  155.1404 C   0  0  0  0  0  0  0  0  0  0  0  0
  151.1039  134.9783  155.9593 O   0  0  0  0  0  0  0  0  0  0  0  0
  150.2171  136.7656  154.8902 N   0  0  0  0  0  0  0  0  0  0  0  0
  150.9991  137.8070  155.5508 C   0  0  2  0  0  0  0  0  0  0  0  0
  150.5941  137.9118  157.0263 C   0  0  0  0  0  0  0  0  0  0  0  0
  151.3425  139.0522  157.7386 C   0  0  0  0  0  0  0  0  0  0  0  0
  151.1380  140.3646  157.0573 N   0  3  1  0  0  0  0  0  0  0  0  0
  151.7529  141.5446  157.7497 C   0  0  0  0  0  0  0  0  0  0  0  0
  151.5435  141.5602  159.2837 C   0  0  0  0  0  0  0  0  0  0  0  0
  152.1038  142.8407  159.9268 C   0  0  0  0  0  0  0  0  0  0  0  0
  151.4572  144.0170  159.3510 N   0  0  0  0  0  0  0  0  0  0  0  0
  151.9532  145.2140  160.0157 C   0  0  0  0  0  0  0  0  0  0  0  0
  151.7615  144.0953  157.9246 C   0  0  0  0  0  0  0  0  0  0  0  0
  151.1852  142.8710  157.1933 C   0  0  0  0  0  0  0  0  0  0  0  0
  151.5428  140.2787  155.6244 C   0  0  0  0  0  0  0  0  0  0  0  0
  150.7830  139.1712  154.8779 C   0  0  0  0  0  0  0  0  0  0  0  0
  148.3826  132.8280  153.3596 C   0  0  0  0  0  0  0  0  0  0  0  0
  148.0927  131.5165  153.2242 N   0  0  0  0  0  0  0  0  0  0  0  0
  148.6095  128.5960  154.7544 H   0  0  0  0  0  0  0  0  0  0  0  0
  148.8458  128.7875  153.0134 H   0  0  0  0  0  0  0  0  0  0  0  0
  147.2525  129.0663  153.7288 H   0  0  0  0  0  0  0  0  0  0  0  0
  150.0064  130.3258  155.7654 H   0  0  0  0  0  0  0  0  0  0  0  0
  150.5236  132.7312  156.0222 H   0  0  0  0  0  0  0  0  0  0  0  0
  148.9391  135.2740  153.6953 H   0  0  0  0  0  0  0  0  0  0  0  0
  149.5474  137.0672  154.1974 H   0  0  0  0  0  0  0  0  0  0  0  0
  152.0578  137.5441  155.5015 H   0  0  0  0  0  0  0  0  0  0  0  0
  149.5191  138.0821  157.1048 H   0  0  0  0  0  0  0  0  0  0  0  0
  150.7944  136.9685  157.5360 H   0  0  0  0  0  0  0  0  0  0  0  0
  150.9659  139.0808  158.7600 H   0  0  0  0  0  0  0  0  0  0  0  0
  152.4094  138.8303  157.7923 H   0  0  0  0  0  0  0  0  0  0  0  0
  152.8290  141.5176  157.5692 H   0  0  0  0  0  0  0  0  0  0  0  0
  150.4820  141.4712  159.5205 H   0  0  0  0  0  0  0  0  0  0  0  0
  152.0466  140.7137  159.7511 H   0  0  0  0  0  0  0  0  0  0  0  0
  151.9209  142.8159  161.0019 H   0  0  0  0  0  0  0  0  0  0  0  0
  153.1848  142.8950  159.7870 H   0  0  0  0  0  0  0  0  0  0  0  0
  151.4751  146.1045  159.6060 H   0  0  0  0  0  0  0  0  0  0  0  0
  153.0325  145.3196  159.8959 H   0  0  0  0  0  0  0  0  0  0  0  0
  151.7297  145.1802  161.0826 H   0  0  0  0  0  0  0  0  0  0  0  0
  151.3240  145.0040  157.5093 H   0  0  0  0  0  0  0  0  0  0  0  0
  152.8399  144.1590  157.7686 H   0  0  0  0  0  0  0  0  0  0  0  0
  151.4049  142.9847  156.1334 H   0  0  0  0  0  0  0  0  0  0  0  0
  150.0977  142.8747  157.2823 H   0  0  0  0  0  0  0  0  0  0  0  0
  151.3566  141.2177  155.1075 H   0  0  0  0  0  0  0  0  0  0  0  0
  152.6171  140.0975  155.5615 H   0  0  0  0  0  0  0  0  0  0  0  0
  151.1178  139.1377  153.8404 H   0  0  0  0  0  0  0  0  0  0  0  0
  149.7192  139.4120  154.8515 H   0  0  0  0  0  0  0  0  0  0  0  0
  147.8946  133.4919  152.6610 H   0  0  0  0  0  0  0  0  0  0  0  0
  150.1411  140.5257  157.0698 H   0  0  0  0  0  0  0  0  0  0  0  0
  1  2  1  0  0  0  0
  1 25  1  0  0  0  0
  1 26  1  0  0  0  0
  1 27  1  0  0  0  0
  2 24  1  0  0  0  0
  2  3  2  0  0  0  0
  3  4  1  0  0  0  0
  3 28  1  0  0  0  0
  4  5  2  0  0  0  0
  4 29  1  0  0  0  0
  5  6  1  0  0  0  0
  5 23  1  0  0  0  0
  6  7  1  0  0  0  0
  6 30  1  0  0  0  0
  7  8  2  0  0  0  0
  7  9  1  0  0  0  0
  9 10  1  0  0  0  0
  9 31  1  0  0  0  0
 10 22  1  0  0  0  0
 10 11  1  0  0  0  0
 10 32  1  0  0  0  0
 11 12  1  0  0  0  0
 11 33  1  0  0  0  0
 11 34  1  0  0  0  0
 12 13  1  0  0  0  0
 12 35  1  0  0  0  0
 12 36  1  0  0  0  0
 13 14  1  0  0  0  0
 13 21  1  0  0  0  0
 13 54  1  0  0  0  0
 14 20  1  0  0  0  0
 14 15  1  0  0  0  0
 14 37  1  0  0  0  0
 15 16  1  0  0  0  0
 15 38  1  0  0  0  0
 15 39  1  0  0  0  0
 16 17  1  0  0  0  0
 16 40  1  0  0  0  0
 16 41  1  0  0  0  0
 17 18  1  0  0  0  0
 17 19  1  0  0  0  0
 18 42  1  0  0  0  0
 18 43  1  0  0  0  0
 18 44  1  0  0  0  0
 19 20  1  0  0  0  0
 19 45  1  0  0  0  0
 19 46  1  0  0  0  0
 20 47  1  0  0  0  0
 20 48  1  0  0  0  0
 21 22  1  0  0  0  0
 21 49  1  0  0  0  0
 21 50  1  0  0  0  0
 22 51  1  0  0  0  0
 22 52  1  0  0  0  0
 23 24  2  0  0  0  0
 23 53  1  0  0  0  0
M  CHG  1  13   1
M  END
> <s_m_source_file>
AV-unprocessed.smi

> <i_m_source_file_index>
2772

> <i_lp_mmshare_version>
43012

> <i_f3d_flags>
0

> <s_epik_input>
W0NIM11jMVtjSF1bY0hdYyhbY0hdbjEpW05IXUMoPU8pW05IXVtDSF0yW0NIMl1bQ0gyXU4oW0NIMl1bQ0gyXTIpW0NIXTNbQ0gyXVtDSDJdTihbQ0gzXSlbQ0gyXVtDSDJdMw==

> <s_epik_cmdline>
J2VwaWtfcHl0aG9uJywgJy1waCcsICc3LjAnLCAnLXRuJywgJzgnLCAnLW1hJywgJzIwMCcsICctbWV0YWxfYmluZGluZycsICctaW1hZScsICc8aW5maWxlLm1hZT4nLCAnLW9tYWUnLCAnPG91dGZpbGUubWFlPic=

> <r_epik_Ionization_Penalty>
1.38854

> <r_epik_Ionization_Penalty_Charging>
0.00081195

> <r_epik_Ionization_Penalty_Neutral>
1.38772

> <r_epik_State_Penalty>
1.56122

> <r_epik_Charging_Adjusted_Penalty>
1.56203

> <i_epik_Tot_Q>
1

> <i_epik_Tot_abs_Q>
1

> <r_epik_Metal_State_Penalty>
1.5614

> <b_epik_Metal_Only>
0

> <s_lp_Force_Field>
OPLS_2005

> <r_lp_Energy>
35.3566

> <b_lp_Chiralities_Consistent>
1

> <s_lp_Variant>
AV-unprocessed.smi:2772-7

> <Gold.Version>
5.8.1

> <Gold.Id.Protein>
6NUR|6NUR_protein|mol2

> <Gold.PLP.Fitness>
50.3177

> <Gold.PLP.PLP>
-45.2852

> <Gold.PLP.part.hbond>
-2.1705

> <Gold.PLP.part.metal>
0.0000

> <Gold.PLP.part.buried>
-5.2835

> <Gold.PLP.part.nonpolar>
-39.5887

> <Gold.PLP.part.repulsive>
1.1277

> <Gold.PLP.ligand.clash>
0.0000

> <Gold.PLP.ligand.torsion>
0.2240

> <Gold.PLP.Chemscore.Hbond>
1.8163

> <Gold.PLP.Chemscore.CHOScore>
0.0000

> <Gold.PLP.Chemscore.Metal>
0.0000

> <Gold.Chemscore.Hbonds>
donor molecule, donor type, donor heavy atom, donor atom, acceptor molecule, acceptor atom, score
      L1  H     6    30       P1  7948  0.87
      P1  H 10752 10763       L1     8  0.38

> <Gold.PLP.Chemscore.Internal.Correction>
0.0316

> <Gold.Rescore>
     Score         DG    S(hbond)    S(metal)    S(lipo)     H(rot)  DE(clash)    DE(int)     intcor
     19.78     -21.67       1.42        0.00     124.00       1.19       0.52       1.38       ----

> <Gold.Chemscore.Fitness>
19.7775

> <Gold.Chemscore.DG>
-21.6711

> <Gold.Chemscore.ZeroCoef>
-5.4800

> <Gold.Chemscore.Hbond>
1.4168

> <Gold.Chemscore.Metal>
0.0000

> <Gold.Chemscore.Lipo>
123.9982

> <Gold.Chemscore.Internal_Hbond>
0.0000

> <Gold.Chemscore.DEClash>
0.5172

> <Gold.Chemscore.DEInternal>
1.3764

> <Gold.Chemscore.Rot>
1.1910

> <Gold.Chemscore.Internal.Correction>
   9.000000E+99

> <Gold.Chemscore.Hbonds>
donor molecule, donor type, donor heavy atom, donor atom, acceptor molecule, acceptor atom, score
      L1  H     6    30       P1  7948  0.57
      P1  H 10752 10763       L1     8  0.07

> <Gold.Chemscore.Hbond.Weighted>
-4.7322

> <Gold.Chemscore.Metal.Weighted>
-0.0000

> <Gold.Chemscore.Lipo.Weighted>
-14.5078

> <Gold.Chemscore.Internal_Hbond.Weighted>
0.0000

> <Gold.Chemscore.DEClash.Weighted>
0.5172

> <Gold.Chemscore.DEInternal.Weighted>
1.3764

> <Gold.Chemscore.Rot.Weighted>
3.0489

> <Gold.Chemscore.Internal.Correction.Weighted>
   9.000000E+99

> <Gold.Protein.RotatedTorsions>
[ 6907 6896 6895 6894 ] final   84.06 input  -60.11 | X-H torsion
[ 7974 7965 7964 7962 ] final  149.22 input  175.53 | X-H torsion
[ 8008 7997 7996 7995 ] final   -5.91 input   59.86 | X-H torsion
[ 10167 10162 10161 10158 ] final  -32.62 input  -65.29 | X-H torsion
[ 10718 10713 10712 10709 ] final  107.46 input   66.30 | X-H torsion
[ 10763 10752 10751 10750 ] final   76.59 input  -60.55 | X-H torsion
[ 11005 11000 10999 10996 ] final  138.92 input  -57.11 | X-H torsion

> <Gold.Protein.ActiveResidues>
 VAL166  LYS551  ARG553  GLY616  TRP617  ASP618  TYR619  PRO620  LYS621  CYS622 
 ASP623  PHE694  ASN695  SER759  ASP760  ASP761  ALA762  ILE779  LEU786  VAL792 
 PHE793  MET794  SER795  GLU796  ALA797  LYS798  CYS799  TRP800  GLU811  SER814 

> <Gold.Protein.RotatedAtoms>
  152.5343  134.2800  159.9003 H   0  0  0  0  0  0  0  0  0  0  0  0  # atno 6907 bound_to 6896
  151.2754  133.4228  159.2631 H   0  0  0  0  0  0  0  0  0  0  0  0  # atno 6908 bound_to 6896
  151.0330  134.9568  159.8178 H   0  0  0  0  0  0  0  0  0  0  0  0  # atno 6909 bound_to 6896
  144.8454  139.6253  143.5998 H   0  0  0  0  0  0  0  0  0  0  0  0  # atno 7974 bound_to 7965
  154.5991  140.2446  155.7817 H   0  0  0  0  0  0  0  0  0  0  0  0  # atno 8008 bound_to 7997
  156.2299  140.2970  156.0113 H   0  0  0  0  0  0  0  0  0  0  0  0  # atno 8009 bound_to 7997
  155.2242  140.0401  157.2943 H   0  0  0  0  0  0  0  0  0  0  0  0  # atno 8010 bound_to 7997
  140.7218  143.3681  151.1832 H   0  0  0  0  0  0  0  0  0  0  0  0  # atno 10167 bound_to 10162
  157.6627  131.0873  150.6159 H   0  0  0  0  0  0  0  0  0  0  0  0  # atno 10718 bound_to 10713
  153.0737  135.4945  154.8358 H   0  0  0  0  0  0  0  0  0  0  0  0  # atno 10763 bound_to 10752
  154.7057  135.3010  154.9275 H   0  0  0  0  0  0  0  0  0  0  0  0  # atno 10764 bound_to 10752
  153.9985  135.6769  153.4811 H   0  0  0  0  0  0  0  0  0  0  0  0  # atno 10765 bound_to 10752
  140.0217  134.9393  157.0488 H   0  0  0  0  0  0  0  0  0  0  0  0  # atno 11005 bound_to 11000
  146.2740  139.6705  142.9276 LP  0  0  0  0  0  0  0  0  0  0  0  0  # atno 17320 bound_to 7965
  145.4607  141.0432  143.2753 LP  0  0  0  0  0  0  0  0  0  0  0  0  # atno 17321 bound_to 7965
  139.7246  143.9168  152.2998 LP  0  0  0  0  0  0  0  0  0  0  0  0  # atno 17342 bound_to 10162
  139.8937  144.6951  150.8742 LP  0  0  0  0  0  0  0  0  0  0  0  0  # atno 17343 bound_to 10162
  156.6461  130.4472  149.5735 LP  0  0  0  0  0  0  0  0  0  0  0  0  # atno 17370 bound_to 10713
  156.2173  130.6715  151.1331 LP  0  0  0  0  0  0  0  0  0  0  0  0  # atno 17371 bound_to 10713
  140.4375  134.1716  155.7171 LP  0  0  0  0  0  0  0  0  0  0  0  0  # atno 17394 bound_to 11000
  141.1778  133.8477  157.1362 LP  0  0  0  0  0  0  0  0  0  0  0  0  # atno 17395 bound_to 11000

$$$$
