AV-unprocessed.smi:47|AV-procd|sdf|438|dock3
  -GOLD-   2262016303D 1   1.00000     0.00000
 Structure written by MMmdl.
 31 33  0  0  0  0  0  0  0  0  1 V2000
  145.2947  140.2739  155.2156 O   0  0  0  0  0  0  0  0  0  0  0  0
  146.6121  140.7697  155.1075 C   0  0  2  0  0  0  0  0  0  0  0  0
  146.9353  141.2603  153.7024 C   0  0  0  0  0  0  0  0  0  0  0  0
  148.3900  141.2701  153.6474 N   0  0  0  0  0  0  0  0  0  0  0  0
  148.8776  140.1780  154.4986 C   0  0  1  0  0  0  0  0  0  0  0  0
  150.0226  140.5935  155.3710 C   0  0  0  0  0  0  0  0  0  0  0  0
  151.2014  139.9859  155.2817 N   0  0  0  0  0  0  0  0  0  0  0  0
  151.9075  140.6076  156.2482 N   0  0  0  0  0  0  0  0  0  0  0  0
  151.1460  141.5175  156.8692 C   0  0  0  0  0  0  0  0  0  0  0  0
  151.5920  142.3642  157.9778 C   0  0  0  0  0  0  0  0  0  0  0  0
  151.1766  143.7135  158.0622 C   0  0  0  0  0  0  0  0  0  0  0  0
  151.6096  144.5293  159.1258 C   0  0  0  0  0  0  0  0  0  0  0  0
  152.4613  144.0048  160.1159 C   0  0  0  0  0  0  0  0  0  0  0  0
  152.8789  142.6630  160.0422 C   0  0  0  0  0  0  0  0  0  0  0  0
  152.4467  141.8466  158.9790 C   0  0  0  0  0  0  0  0  0  0  0  0
  149.9197  141.5453  156.3475 N   0  0  0  0  0  0  0  0  0  0  0  0
  147.6720  139.6946  155.3274 C   0  0  0  0  0  0  0  0  0  0  0  0
  146.7544  141.5808  155.8234 H   0  0  0  0  0  0  0  0  0  0  0  0
  149.2127  139.3547  153.8660 H   0  0  0  0  0  0  0  0  0  0  0  0
  152.8703  140.3820  156.4525 H   0  0  0  0  0  0  0  0  0  0  0  0
  144.8564  140.4038  154.3884 H   0  0  0  0  0  0  0  0  0  0  0  0
  146.5456  140.5584  152.9636 H   0  0  0  0  0  0  0  0  0  0  0  0
  146.5115  142.2419  153.4895 H   0  0  0  0  0  0  0  0  0  0  0  0
  148.6849  141.1195  152.6881 H   0  0  0  0  0  0  0  0  0  0  0  0
  150.5239  144.1372  157.3130 H   0  0  0  0  0  0  0  0  0  0  0  0
  151.2882  145.5590  159.1812 H   0  0  0  0  0  0  0  0  0  0  0  0
  152.7937  144.6307  160.9309 H   0  0  0  0  0  0  0  0  0  0  0  0
  153.5323  142.2585  160.8012 H   0  0  0  0  0  0  0  0  0  0  0  0
  152.7798  140.8197  158.9413 H   0  0  0  0  0  0  0  0  0  0  0  0
  147.8980  139.5367  156.3830 H   0  0  0  0  0  0  0  0  0  0  0  0
  147.3241  138.7427  154.9229 H   0  0  0  0  0  0  0  0  0  0  0  0
  1  2  1  0  0  0  0
  1 21  1  0  0  0  0
  2 18  1  0  0  0  0
  2 17  1  0  0  0  0
  2  3  1  0  0  0  0
  3  4  1  0  0  0  0
  3 22  1  0  0  0  0
  3 23  1  0  0  0  0
  4  5  1  0  0  0  0
  4 24  1  0  0  0  0
  5 19  1  0  0  0  0
  5  6  1  0  0  0  0
  5 17  1  0  0  0  0
  6 16  1  0  0  0  0
  6  7  2  0  0  0  0
  7  8  1  0  0  0  0
  8 20  1  0  0  0  0
  8  9  1  0  0  0  0
  9 10  1  0  0  0  0
  9 16  2  0  0  0  0
 10 15  1  0  0  0  0
 10 11  2  0  0  0  0
 11 12  1  0  0  0  0
 11 25  1  0  0  0  0
 12 13  2  0  0  0  0
 12 26  1  0  0  0  0
 13 14  1  0  0  0  0
 13 27  1  0  0  0  0
 14 15  2  0  0  0  0
 14 28  1  0  0  0  0
 15 29  1  0  0  0  0
 17 30  1  0  0  0  0
 17 31  1  0  0  0  0
M  END
> <s_m_source_file>
AV-unprocessed.smi

> <i_m_source_file_index>
47

> <i_lp_mmshare_version>
43012

> <i_f3d_flags>
0

> <s_epik_input>
W09IXVtDQEhdMVtDSDJdW05IXVtDQEBIXShbQ0gyXTEpYzJuW25IXWMobjIpLWMzW2NIXVtjSF1bY0hdW2NIXVtjSF0z

> <s_epik_cmdline>
J2VwaWtfcHl0aG9uJywgJy1waCcsICc3LjAnLCAnLXRuJywgJzgnLCAnLW1hJywgJzIwMCcsICctbWV0YWxfYmluZGluZycsICctaW1hZScsICc8aW5maWxlLm1hZT4nLCAnLW9tYWUnLCAnPG91dGZpbGUubWFlPic=

> <r_epik_Ionization_Penalty>
1.65981

> <r_epik_Ionization_Penalty_Charging>
0

> <r_epik_Ionization_Penalty_Neutral>
1.65981

> <r_epik_State_Penalty>
2.0492

> <r_epik_Charging_Adjusted_Penalty>
2.0492

> <i_epik_Tot_Q>
0

> <i_epik_Tot_abs_Q>
0

> <r_epik_Metal_State_Penalty>
2.54641

> <b_epik_Metal_Only>
0

> <s_lp_Force_Field>
OPLS_2005

> <r_lp_Energy>
25.8544

> <b_lp_Chiralities_Consistent>
1

> <s_lp_Variant>
AV-unprocessed.smi:47-16

> <Gold.Version>
5.8.1

> <Gold.Id.Protein>
6NUR|6NUR_protein|mol2

> <Gold.PLP.Fitness>
41.5461

> <Gold.PLP.PLP>
-35.4228

> <Gold.PLP.part.hbond>
-4.0000

> <Gold.PLP.part.metal>
0.0000

> <Gold.PLP.part.buried>
-4.1102

> <Gold.PLP.part.nonpolar>
-27.2853

> <Gold.PLP.part.repulsive>
0.2863

> <Gold.PLP.ligand.clash>
0.0000

> <Gold.PLP.ligand.torsion>
0.6023

> <Gold.PLP.Chemscore.Hbond>
2.4373

> <Gold.PLP.Chemscore.CHOScore>
0.0000

> <Gold.PLP.Chemscore.Metal>
0.0000

> <Gold.Chemscore.Hbonds>
donor molecule, donor type, donor heavy atom, donor atom, acceptor molecule, acceptor atom, score
      L1  H     1    21       P1 10175  0.49
      L1  H     4    24       P1  7957  0.89
      P1  H  7989  7998       L1     7  0.64

> <Gold.PLP.Chemscore.Internal.Correction>
0.0159

> <Gold.Rescore>
     Score         DG    S(hbond)    S(metal)    S(lipo)     H(rot)  DE(clash)    DE(int)     intcor
     18.14     -18.45       1.97        0.00      86.92       1.48       0.03       0.28       ----

> <Gold.Chemscore.Fitness>
18.1375

> <Gold.Chemscore.DG>
-18.4473

> <Gold.Chemscore.ZeroCoef>
-5.4800

> <Gold.Chemscore.Hbond>
1.9708

> <Gold.Chemscore.Metal>
0.0000

> <Gold.Chemscore.Lipo>
86.9243

> <Gold.Chemscore.Internal_Hbond>
0.0000

> <Gold.Chemscore.DEClash>
0.0329

> <Gold.Chemscore.DEInternal>
0.2770

> <Gold.Chemscore.Rot>
1.4786

> <Gold.Chemscore.Internal.Correction>
   9.000000E+99

> <Gold.Chemscore.Hbonds>
donor molecule, donor type, donor heavy atom, donor atom, acceptor molecule, acceptor atom, score
      L1  H     1    21       P1 10175  0.48
      L1  H     4    24       P1  7957  0.85
      P1  H  7989  7998       L1     7  0.03

> <Gold.Chemscore.Hbond.Weighted>
-6.5825

> <Gold.Chemscore.Metal.Weighted>
-0.0000

> <Gold.Chemscore.Lipo.Weighted>
-10.1701

> <Gold.Chemscore.Internal_Hbond.Weighted>
0.0000

> <Gold.Chemscore.DEClash.Weighted>
0.0329

> <Gold.Chemscore.DEInternal.Weighted>
0.2770

> <Gold.Chemscore.Rot.Weighted>
3.7853

> <Gold.Chemscore.Internal.Correction.Weighted>
   9.000000E+99

> <Gold.Protein.RotatedTorsions>
[ 6907 6896 6895 6894 ] final   90.23 input  -60.11 | X-H torsion
[ 7974 7965 7964 7962 ] final -177.24 input  175.53 | X-H torsion
[ 8008 7997 7996 7995 ] final   70.43 input   59.86 | X-H torsion
[ 10167 10162 10161 10158 ] final  174.49 input  -65.29 | X-H torsion
[ 10718 10713 10712 10709 ] final  -46.86 input   66.30 | X-H torsion
[ 10763 10752 10751 10750 ] final  139.62 input  -60.55 | X-H torsion
[ 11005 11000 10999 10996 ] final   21.57 input  -57.11 | X-H torsion

> <Gold.Protein.ActiveResidues>
 VAL166  LYS551  ARG553  GLY616  TRP617  ASP618  TYR619  PRO620  LYS621  CYS622 
 ASP623  PHE694  ASN695  SER759  ASP760  ASP761  ALA762  ILE779  LEU786  VAL792 
 PHE793  MET794  SER795  GLU796  ALA797  LYS798  CYS799  TRP800  GLU811  SER814 

> <Gold.Protein.RotatedAtoms>
  152.5443  134.1843  159.8647 H   0  0  0  0  0  0  0  0  0  0  0  0  # atno 6907 bound_to 6896
  151.1843  133.4698  159.2602 H   0  0  0  0  0  0  0  0  0  0  0  0  # atno 6908 bound_to 6896
  151.1146  135.0058  159.8565 H   0  0  0  0  0  0  0  0  0  0  0  0  # atno 6909 bound_to 6896
  144.7127  140.1049  143.6414 H   0  0  0  0  0  0  0  0  0  0  0  0  # atno 7974 bound_to 7965
  155.7387  140.3490  155.5093 H   0  0  0  0  0  0  0  0  0  0  0  0  # atno 8008 bound_to 7997
  155.9115  140.1051  157.1297 H   0  0  0  0  0  0  0  0  0  0  0  0  # atno 8009 bound_to 7997
  154.4056  140.1267  156.4550 H   0  0  0  0  0  0  0  0  0  0  0  0  # atno 8010 bound_to 7997
  139.5143  144.3141  152.0264 H   0  0  0  0  0  0  0  0  0  0  0  0  # atno 10167 bound_to 10162
  156.2141  130.4162  149.9076 H   0  0  0  0  0  0  0  0  0  0  0  0  # atno 10718 bound_to 10713
  153.9092  135.3013  155.3448 H   0  0  0  0  0  0  0  0  0  0  0  0  # atno 10763 bound_to 10752
  154.7632  135.4924  153.9506 H   0  0  0  0  0  0  0  0  0  0  0  0  # atno 10764 bound_to 10752
  153.1202  135.6780  153.9450 H   0  0  0  0  0  0  0  0  0  0  0  0  # atno 10765 bound_to 10752
  140.3901  134.1828  155.7662 H   0  0  0  0  0  0  0  0  0  0  0  0  # atno 11005 bound_to 11000
  145.9506  139.2731  143.1215 LP  0  0  0  0  0  0  0  0  0  0  0  0  # atno 17320 bound_to 7965
  145.9327  140.9036  143.0348 LP  0  0  0  0  0  0  0  0  0  0  0  0  # atno 17321 bound_to 7965
  140.2584  144.4093  150.6195 LP  0  0  0  0  0  0  0  0  0  0  0  0  # atno 17342 bound_to 10162
  140.6175  143.2173  151.6763 LP  0  0  0  0  0  0  0  0  0  0  0  0  # atno 17343 bound_to 10162
  156.6745  130.8833  151.3567 LP  0  0  0  0  0  0  0  0  0  0  0  0  # atno 17370 bound_to 10713
  157.7054  130.9379  150.0914 LP  0  0  0  0  0  0  0  0  0  0  0  0  # atno 17371 bound_to 10713
  141.1894  133.8240  157.0960 LP  0  0  0  0  0  0  0  0  0  0  0  0  # atno 17394 bound_to 11000
  140.0413  134.9853  157.0966 LP  0  0  0  0  0  0  0  0  0  0  0  0  # atno 17395 bound_to 11000

$$$$
