AV-unprocessed.smi:1671|AV-procd|sdf|6700|dock7
  -GOLD-   22720 7433D 1   1.00000     0.00000
 Structure written by MMmdl.
 44 45  0  0  0  0  0  0  0  0  1 V2000
  147.3671  133.7966  155.0370 C   0  0  0  0  0  0  0  0  0  0  0  0
  148.3371  135.3137  155.2534 S   0  0  0  0  0  0  0  0  0  0  0  0
  150.0295  134.6689  155.0953 C   0  0  1  0  0  0  0  0  0  0  0  0
  150.1390  133.7626  153.8591 C   0  0  0  0  0  0  0  0  0  0  0  0
  151.0696  135.7948  155.0491 C   0  0  0  0  0  0  0  0  0  0  0  0
  151.9619  135.8542  155.8959 O   0  0  0  0  0  0  0  0  0  0  0  0
  150.9472  136.6817  154.0490 N   0  0  0  0  0  0  0  0  0  0  0  0
  151.8335  137.8197  153.8287 C   0  0  0  0  0  0  0  0  0  0  0  0
  151.7581  138.8945  154.9042 C   0  0  0  0  0  0  0  0  0  0  0  0
  150.7222  139.8517  154.9386 C   0  0  0  0  0  0  0  0  0  0  0  0
  150.7195  140.8197  155.9606 C   0  0  0  0  0  0  0  0  0  0  0  0
  151.7551  140.8101  156.9253 C   0  0  0  0  0  0  0  0  0  0  0  0
  151.7708  141.7685  157.9621 N   0  0  0  0  0  0  0  0  0  0  0  0
  151.7274  143.1815  157.5908 C   0  0  0  0  0  0  0  0  0  0  0  0
  151.4545  144.0520  158.8280 C   0  0  0  0  0  0  0  0  0  0  0  0
  152.4240  143.7736  159.8327 O   0  0  0  0  0  0  0  0  0  0  0  0
  152.3754  142.4164  160.2640 C   0  0  2  0  0  0  0  0  0  0  0  0
  153.3842  142.2375  161.4032 C   0  0  0  0  0  0  0  0  0  0  0  0
  152.6811  141.4907  159.0703 C   0  0  0  0  0  0  0  0  0  0  0  0
  152.7568  139.8972  156.8789 N   0  0  0  0  0  0  0  0  0  0  0  0
  152.7538  138.9708  155.8979 C   0  0  0  0  0  0  0  0  0  0  0  0
  146.3028  134.0310  155.0407 H   0  0  0  0  0  0  0  0  0  0  0  0
  147.5647  133.0924  155.8449 H   0  0  0  0  0  0  0  0  0  0  0  0
  147.6115  133.3187  154.0883 H   0  0  0  0  0  0  0  0  0  0  0  0
  150.2228  134.0505  155.9733 H   0  0  0  0  0  0  0  0  0  0  0  0
  151.1503  133.3714  153.7410 H   0  0  0  0  0  0  0  0  0  0  0  0
  149.8787  134.2971  152.9447 H   0  0  0  0  0  0  0  0  0  0  0  0
  149.4665  132.9085  153.9431 H   0  0  0  0  0  0  0  0  0  0  0  0
  150.1884  136.5590  153.3941 H   0  0  0  0  0  0  0  0  0  0  0  0
  152.8620  137.4684  153.7290 H   0  0  0  0  0  0  0  0  0  0  0  0
  151.5701  138.2746  152.8736 H   0  0  0  0  0  0  0  0  0  0  0  0
  149.9394  139.8536  154.1945 H   0  0  0  0  0  0  0  0  0  0  0  0
  149.9362  141.5624  155.9825 H   0  0  0  0  0  0  0  0  0  0  0  0
  152.6783  143.4654  157.1376 H   0  0  0  0  0  0  0  0  0  0  0  0
  150.9466  143.3547  156.8490 H   0  0  0  0  0  0  0  0  0  0  0  0
  151.5103  145.1079  158.5635 H   0  0  0  0  0  0  0  0  0  0  0  0
  150.4502  143.8738  159.2157 H   0  0  0  0  0  0  0  0  0  0  0  0
  151.3771  142.1995  160.6487 H   0  0  0  0  0  0  0  0  0  0  0  0
  153.3770  141.2130  161.7761 H   0  0  0  0  0  0  0  0  0  0  0  0
  153.1488  142.8969  162.2390 H   0  0  0  0  0  0  0  0  0  0  0  0
  154.3977  142.4671  161.0727 H   0  0  0  0  0  0  0  0  0  0  0  0
  152.6106  140.4550  159.3988 H   0  0  0  0  0  0  0  0  0  0  0  0
  153.7054  141.6444  158.7276 H   0  0  0  0  0  0  0  0  0  0  0  0
  153.5731  138.2671  155.9094 H   0  0  0  0  0  0  0  0  0  0  0  0
  1  2  1  0  0  0  0
  1 22  1  0  0  0  0
  1 23  1  0  0  0  0
  1 24  1  0  0  0  0
  2  3  1  0  0  0  0
  3  4  1  0  0  0  0
  3  5  1  0  0  0  0
  3 25  1  0  0  0  0
  4 26  1  0  0  0  0
  4 27  1  0  0  0  0
  4 28  1  0  0  0  0
  5  6  2  0  0  0  0
  5  7  1  0  0  0  0
  7  8  1  0  0  0  0
  7 29  1  0  0  0  0
  8  9  1  0  0  0  0
  8 30  1  0  0  0  0
  8 31  1  0  0  0  0
  9 21  1  0  0  0  0
  9 10  2  0  0  0  0
 10 11  1  0  0  0  0
 10 32  1  0  0  0  0
 11 12  2  0  0  0  0
 11 33  1  0  0  0  0
 12 13  1  0  0  0  0
 12 20  1  0  0  0  0
 13 19  1  0  0  0  0
 13 14  1  0  0  0  0
 14 15  1  0  0  0  0
 14 34  1  0  0  0  0
 14 35  1  0  0  0  0
 15 16  1  0  0  0  0
 15 36  1  0  0  0  0
 15 37  1  0  0  0  0
 16 17  1  0  0  0  0
 17 18  1  0  0  0  0
 17 19  1  0  0  0  0
 17 38  1  0  0  0  0
 18 39  1  0  0  0  0
 18 40  1  0  0  0  0
 18 41  1  0  0  0  0
 19 42  1  0  0  0  0
 19 43  1  0  0  0  0
 20 21  2  0  0  0  0
 21 44  1  0  0  0  0
M  END
> <s_m_source_file>
AV-unprocessed.smi

> <i_m_source_file_index>
1671

> <i_lp_mmshare_version>
43012

> <i_f3d_flags>
0

> <s_epik_input>
W0NIM11TW0NASF0oW0NIM10pQyg9TylbTkhdW0NIMl1jMVtjSF1bY0hdYyhuW2NIXTEpTjJbQ0gyXVtDSDJdT1tDQEBIXShbQ0gzXSlbQ0gyXTI=

> <s_epik_cmdline>
J2VwaWtfcHl0aG9uJywgJy1waCcsICc3LjAnLCAnLXRuJywgJzgnLCAnLW1hJywgJzIwMCcsICctbWV0YWxfYmluZGluZycsICctaW1hZScsICc8aW5maWxlLm1hZT4nLCAnLW9tYWUnLCAnPG91dGZpbGUubWFlPic=

> <r_lp_tautomer_probability>
1

> <r_epik_Ionization_Penalty>
0.00480033

> <r_epik_Ionization_Penalty_Charging>
0

> <r_epik_Ionization_Penalty_Neutral>
0.00480033

> <r_epik_State_Penalty>
0.00347981

> <r_epik_Charging_Adjusted_Penalty>
0.00347981

> <i_epik_Tot_Q>
0

> <i_epik_Tot_abs_Q>
0

> <r_epik_Metal_State_Penalty>
-0

> <b_epik_Metal_Only>
0

> <s_lp_Force_Field>
OPLS_2005

> <r_lp_Energy>
15.0592

> <b_lp_Chiralities_Consistent>
1

> <s_lp_Variant>
AV-unprocessed.smi:1671-4

> <Gold.Version>
5.8.1

> <Gold.Id.Protein>
6NUR|6NUR_protein|mol2

> <Gold.PLP.Fitness>
45.7639

> <Gold.PLP.PLP>
-41.2341

> <Gold.PLP.part.hbond>
-4.0000

> <Gold.PLP.part.metal>
0.0000

> <Gold.PLP.part.buried>
-3.3991

> <Gold.PLP.part.nonpolar>
-33.3221

> <Gold.PLP.part.repulsive>
0.1165

> <Gold.PLP.ligand.clash>
0.0000

> <Gold.PLP.ligand.torsion>
0.5497

> <Gold.PLP.Chemscore.Hbond>
1.7495

> <Gold.PLP.Chemscore.CHOScore>
0.0000

> <Gold.PLP.Chemscore.Metal>
0.0000

> <Gold.Chemscore.Hbonds>
donor molecule, donor type, donor heavy atom, donor atom, acceptor molecule, acceptor atom, score
      L1  H     7    29       P1  7948  0.55
      P1  H  7997  8010       L1    20  0.64

> <Gold.PLP.Chemscore.Internal.Correction>
0.3807

> <Gold.Rescore>
     Score         DG    S(hbond)    S(metal)    S(lipo)     H(rot)  DE(clash)    DE(int)     intcor
     15.20     -17.10       1.33        0.00      96.80       1.63       0.33       1.56       ----

> <Gold.Chemscore.Fitness>
15.2024

> <Gold.Chemscore.DG>
-17.0957

> <Gold.Chemscore.ZeroCoef>
-5.4800

> <Gold.Chemscore.Hbond>
1.3341

> <Gold.Chemscore.Metal>
0.0000

> <Gold.Chemscore.Lipo>
96.8007

> <Gold.Chemscore.Internal_Hbond>
0.0000

> <Gold.Chemscore.DEClash>
0.3335

> <Gold.Chemscore.DEInternal>
1.5598

> <Gold.Chemscore.Rot>
1.6272

> <Gold.Chemscore.Internal.Correction>
   9.000000E+99

> <Gold.Chemscore.Hbonds>
donor molecule, donor type, donor heavy atom, donor atom, acceptor molecule, acceptor atom, score
      L1  H     7    29       P1  7948  0.03
      P1  H  7997  8010       L1    20  0.05

> <Gold.Chemscore.Hbond.Weighted>
-4.4558

> <Gold.Chemscore.Metal.Weighted>
-0.0000

> <Gold.Chemscore.Lipo.Weighted>
-11.3257

> <Gold.Chemscore.Internal_Hbond.Weighted>
0.0000

> <Gold.Chemscore.DEClash.Weighted>
0.3335

> <Gold.Chemscore.DEInternal.Weighted>
1.5598

> <Gold.Chemscore.Rot.Weighted>
4.1657

> <Gold.Chemscore.Internal.Correction.Weighted>
   9.000000E+99

> <Gold.Protein.RotatedTorsions>
[ 6907 6896 6895 6894 ] final   42.91 input  -60.11 | X-H torsion
[ 7974 7965 7964 7962 ] final  125.70 input  175.53 | X-H torsion
[ 8008 7997 7996 7995 ] final   47.43 input   59.86 | X-H torsion
[ 10167 10162 10161 10158 ] final -141.12 input  -65.29 | X-H torsion
[ 10718 10713 10712 10709 ] final   43.17 input   66.30 | X-H torsion
[ 10763 10752 10751 10750 ] final  -85.94 input  -60.55 | X-H torsion
[ 11005 11000 10999 10996 ] final -126.95 input  -57.11 | X-H torsion

> <Gold.Protein.ActiveResidues>
 VAL166  LYS551  ARG553  GLY616  TRP617  ASP618  TYR619  PRO620  LYS621  CYS622 
 ASP623  PHE694  ASN695  SER759  ASP760  ASP761  ALA762  ILE779  LEU786  VAL792 
 PHE793  MET794  SER795  GLU796  ALA797  LYS798  CYS799  TRP800  GLU811  SER814 

> <Gold.Protein.RotatedAtoms>
  152.2137  134.8477  160.0494 H   0  0  0  0  0  0  0  0  0  0  0  0  # atno 6907 bound_to 6896
  151.9286  133.3600  159.3931 H   0  0  0  0  0  0  0  0  0  0  0  0  # atno 6908 bound_to 6896
  150.6982  134.4485  159.5369 H   0  0  0  0  0  0  0  0  0  0  0  0  # atno 6909 bound_to 6896
  145.0700  139.3737  143.4962 H   0  0  0  0  0  0  0  0  0  0  0  0  # atno 7974 bound_to 7965
  155.3690  140.3422  155.4242 H   0  0  0  0  0  0  0  0  0  0  0  0  # atno 8008 bound_to 7997
  156.1673  140.1620  156.8543 H   0  0  0  0  0  0  0  0  0  0  0  0  # atno 8009 bound_to 7997
  154.5197  140.0770  156.8132 H   0  0  0  0  0  0  0  0  0  0  0  0  # atno 8010 bound_to 7997
  139.8216  143.7567  152.2666 H   0  0  0  0  0  0  0  0  0  0  0  0  # atno 10167 bound_to 10162
  157.4130  130.7925  149.7447 H   0  0  0  0  0  0  0  0  0  0  0  0  # atno 10718 bound_to 10713
  154.6168  135.5467  153.7532 H   0  0  0  0  0  0  0  0  0  0  0  0  # atno 10763 bound_to 10752
  153.0220  135.6403  154.1498 H   0  0  0  0  0  0  0  0  0  0  0  0  # atno 10764 bound_to 10752
  154.1434  135.2907  155.3135 H   0  0  0  0  0  0  0  0  0  0  0  0  # atno 10765 bound_to 10752
  140.9640  134.0898  157.3939 H   0  0  0  0  0  0  0  0  0  0  0  0  # atno 11005 bound_to 11000
  146.3528  140.0440  142.8641 LP  0  0  0  0  0  0  0  0  0  0  0  0  # atno 17320 bound_to 7965
  145.1304  140.9514  143.4548 LP  0  0  0  0  0  0  0  0  0  0  0  0  # atno 17321 bound_to 7965
  139.7746  144.7465  151.0175 LP  0  0  0  0  0  0  0  0  0  0  0  0  # atno 17342 bound_to 10162
  140.7813  143.4607  151.0282 LP  0  0  0  0  0  0  0  0  0  0  0  0  # atno 17343 bound_to 10162
  155.9856  130.3981  150.3252 LP  0  0  0  0  0  0  0  0  0  0  0  0  # atno 17370 bound_to 10713
  157.1392  131.0292  151.2935 LP  0  0  0  0  0  0  0  0  0  0  0  0  # atno 17371 bound_to 10713
  139.8888  135.0100  156.6640 LP  0  0  0  0  0  0  0  0  0  0  0  0  # atno 17394 bound_to 11000
  140.7427  133.8964  155.8289 LP  0  0  0  0  0  0  0  0  0  0  0  0  # atno 17395 bound_to 11000

$$$$
