AV-unprocessed.smi:2510|AV-procd|sdf|9877|dock7
  -GOLD-   2272013513D 1   1.00000     0.00000
 Structure written by MMmdl.
 48 49  0  0  0  0  0  0  0  0  1 V2000
  153.7199  137.7878  156.5176 C   0  0  0  0  0  0  0  0  0  0  0  0
  152.7668  138.0960  155.3506 C   0  0  0  0  0  0  0  0  0  0  0  0
  151.3191  138.4615  155.7598 C   0  0  0  0  0  0  0  0  0  0  0  0
  150.3431  137.5140  155.0121 C   0  0  0  0  0  0  0  0  0  0  0  0
  150.5123  136.0189  155.3255 C   0  0  0  0  0  0  0  0  0  0  0  0
  151.1330  138.6468  157.2974 C   0  0  2  0  0  0  0  0  0  0  0  0
  149.7755  138.3718  157.7651 N   0  0  0  0  0  0  0  0  0  0  0  0
  149.4151  137.3178  158.5120 C   0  0  0  0  0  0  0  0  0  0  0  0
  150.2176  136.5108  158.9804 O   0  0  0  0  0  0  0  0  0  0  0  0
  147.9137  137.1317  158.7366 C   0  0  0  0  0  0  0  0  0  0  0  0
  147.6832  136.3743  160.0183 C   0  0  0  0  0  0  0  0  0  0  0  0
  147.4664  134.9740  160.1825 C   0  0  0  0  0  0  0  0  0  0  0  0
  147.2635  134.8182  161.5245 C   0  0  0  0  0  0  0  0  0  0  0  0
  146.9647  133.6067  162.3405 C   0  0  0  0  0  0  0  0  0  0  0  0
  147.3741  136.0727  162.0784 N   0  0  0  0  0  0  0  0  0  0  0  0
  147.6355  137.0305  161.1701 N   0  0  0  0  0  0  0  0  0  0  0  0
  151.3822  140.1554  157.1262 C   0  0  2  0  0  0  0  0  0  0  0  0
  150.6729  141.1814  158.0078 C   0  0  0  0  0  0  0  0  0  0  0  0
  151.0044  139.9781  155.6441 C   0  0  2  0  0  0  0  0  0  0  0  0
  149.6214  140.2169  155.4031 O   0  0  0  0  0  0  0  0  0  0  0  0
  149.3540  141.5249  154.9289 C   0  0  0  0  0  0  0  0  0  0  0  0
  147.2743  136.2869  163.0604 H   0  0  0  0  0  0  0  0  0  0  0  0
  154.7403  137.6677  156.1537 H   0  0  0  0  0  0  0  0  0  0  0  0
  153.4528  136.8627  157.0276 H   0  0  0  0  0  0  0  0  0  0  0  0
  153.7275  138.5896  157.2555 H   0  0  0  0  0  0  0  0  0  0  0  0
  153.2083  138.9176  154.7871 H   0  0  0  0  0  0  0  0  0  0  0  0
  152.7735  137.2610  154.6510 H   0  0  0  0  0  0  0  0  0  0  0  0
  149.3076  137.8075  155.1816 H   0  0  0  0  0  0  0  0  0  0  0  0
  150.4750  137.6111  153.9354 H   0  0  0  0  0  0  0  0  0  0  0  0
  149.8907  135.4191  154.6603 H   0  0  0  0  0  0  0  0  0  0  0  0
  150.2141  135.7791  156.3456 H   0  0  0  0  0  0  0  0  0  0  0  0
  151.5450  135.6980  155.1877 H   0  0  0  0  0  0  0  0  0  0  0  0
  151.9065  138.1717  157.9024 H   0  0  0  0  0  0  0  0  0  0  0  0
  149.0452  138.9786  157.4204 H   0  0  0  0  0  0  0  0  0  0  0  0
  147.4268  138.1065  158.7797 H   0  0  0  0  0  0  0  0  0  0  0  0
  147.4846  136.6043  157.8832 H   0  0  0  0  0  0  0  0  0  0  0  0
  147.4442  134.2049  159.4248 H   0  0  0  0  0  0  0  0  0  0  0  0
  147.4093  132.7180  161.8924 H   0  0  0  0  0  0  0  0  0  0  0  0
  145.8885  133.4468  162.4109 H   0  0  0  0  0  0  0  0  0  0  0  0
  147.3597  133.7064  163.3519 H   0  0  0  0  0  0  0  0  0  0  0  0
  152.4584  140.3252  157.1832 H   0  0  0  0  0  0  0  0  0  0  0  0
  149.5879  141.1096  157.9303 H   0  0  0  0  0  0  0  0  0  0  0  0
  150.9533  142.1973  157.7304 H   0  0  0  0  0  0  0  0  0  0  0  0
  150.9362  141.0451  159.0566 H   0  0  0  0  0  0  0  0  0  0  0  0
  151.6629  140.4971  154.9451 H   0  0  0  0  0  0  0  0  0  0  0  0
  148.2791  141.6549  154.8044 H   0  0  0  0  0  0  0  0  0  0  0  0
  149.8270  141.6917  153.9606 H   0  0  0  0  0  0  0  0  0  0  0  0
  149.7076  142.2859  155.6245 H   0  0  0  0  0  0  0  0  0  0  0  0
  1  2  1  0  0  0  0
  1 23  1  0  0  0  0
  1 24  1  0  0  0  0
  1 25  1  0  0  0  0
  2  3  1  0  0  0  0
  2 26  1  0  0  0  0
  2 27  1  0  0  0  0
  3 19  1  0  0  0  0
  3  4  1  0  0  0  0
  3  6  1  0  0  0  0
  4  5  1  0  0  0  0
  4 28  1  0  0  0  0
  4 29  1  0  0  0  0
  5 30  1  0  0  0  0
  5 31  1  0  0  0  0
  5 32  1  0  0  0  0
  6  7  1  0  0  0  0
  6 17  1  0  0  0  0
  6 33  1  0  0  0  0
  7  8  1  0  0  0  0
  7 34  1  0  0  0  0
  8  9  2  0  0  0  0
  8 10  1  0  0  0  0
 10 11  1  0  0  0  0
 10 35  1  0  0  0  0
 10 36  1  0  0  0  0
 11 16  2  0  0  0  0
 11 12  1  0  0  0  0
 12 13  2  0  0  0  0
 12 37  1  0  0  0  0
 13 14  1  0  0  0  0
 13 15  1  0  0  0  0
 14 38  1  0  0  0  0
 14 39  1  0  0  0  0
 14 40  1  0  0  0  0
 15 22  1  0  0  0  0
 15 16  1  0  0  0  0
 17 18  1  0  0  0  0
 17 19  1  0  0  0  0
 17 41  1  0  0  0  0
 18 42  1  0  0  0  0
 18 43  1  0  0  0  0
 18 44  1  0  0  0  0
 19 20  1  0  0  0  0
 19 45  1  0  0  0  0
 20 21  1  0  0  0  0
 21 46  1  0  0  0  0
 21 47  1  0  0  0  0
 21 48  1  0  0  0  0
M  END
> <s_m_source_file>
AV-unprocessed.smi

> <i_m_source_file_index>
2510

> <i_lp_mmshare_version>
43012

> <i_f3d_flags>
0

> <s_epik_input>
W0NIM11PW0NAQEhdMVtDQEhdKFtDSDNdKVtDQEBIXShDMShbQ0gyXVtDSDNdKVtDSDJdW0NIM10pW05IXUMoPU8pW0NIMl1jMltjSF1jKFtDSDNdKVtuSF1uMg==

> <s_epik_cmdline>
J2VwaWtfcHl0aG9uJywgJy1waCcsICc3LjAnLCAnLXRuJywgJzgnLCAnLW1hJywgJzIwMCcsICctbWV0YWxfYmluZGluZycsICctaW1hZScsICc8aW5maWxlLm1hZT4nLCAnLW9tYWUnLCAnPG91dGZpbGUubWFlPic=

> <r_lp_tautomer_probability>
0.5

> <r_epik_Ionization_Penalty>
9.73156e-05

> <r_epik_Ionization_Penalty_Charging>
0

> <r_epik_Ionization_Penalty_Neutral>
9.73156e-05

> <r_epik_State_Penalty>
0.41068

> <r_epik_Charging_Adjusted_Penalty>
0.41068

> <i_epik_Tot_Q>
0

> <i_epik_Tot_abs_Q>
0

> <r_epik_Metal_State_Penalty>
0.410699

> <b_epik_Metal_Only>
0

> <s_lp_Force_Field>
OPLS_2005

> <r_lp_Energy>
26.3407

> <b_lp_Chiralities_Consistent>
1

> <s_lp_Variant>
AV-unprocessed.smi:2510-8

> <Gold.Version>
5.8.1

> <Gold.Id.Protein>
6NUR|6NUR_protein|mol2

> <Gold.PLP.Fitness>
36.7373

> <Gold.PLP.PLP>
-32.3257

> <Gold.PLP.part.hbond>
-3.0000

> <Gold.PLP.part.metal>
0.0000

> <Gold.PLP.part.buried>
-3.7603

> <Gold.PLP.part.nonpolar>
-26.7292

> <Gold.PLP.part.repulsive>
0.2880

> <Gold.PLP.ligand.clash>
0.0000

> <Gold.PLP.ligand.torsion>
2.3594

> <Gold.PLP.Chemscore.Hbond>
2.8080

> <Gold.PLP.Chemscore.CHOScore>
0.0000

> <Gold.PLP.Chemscore.Metal>
0.0000

> <Gold.Chemscore.Hbonds>
donor molecule, donor type, donor heavy atom, donor atom, acceptor molecule, acceptor atom, score
      P1  H  6896  6908       L1     9  1.00
      P1  H  6931  6943       L1    16  0.99
      P1  H  6934  6947       L1    16  0.86

> <Gold.PLP.Chemscore.Internal.Correction>
0.7065

> <Gold.Rescore>
     Score         DG    S(hbond)    S(metal)    S(lipo)     H(rot)  DE(clash)    DE(int)     intcor
     16.33     -18.62       2.30        0.00      86.11       1.81       0.06       2.22       ----

> <Gold.Chemscore.Fitness>
16.3350

> <Gold.Chemscore.DG>
-18.6158

> <Gold.Chemscore.ZeroCoef>
-5.4800

> <Gold.Chemscore.Hbond>
2.3040

> <Gold.Chemscore.Metal>
0.0000

> <Gold.Chemscore.Lipo>
86.1059

> <Gold.Chemscore.Internal_Hbond>
0.0000

> <Gold.Chemscore.DEClash>
0.0598

> <Gold.Chemscore.DEInternal>
2.2210

> <Gold.Chemscore.Rot>
1.8102

> <Gold.Chemscore.Internal.Correction>
   9.000000E+99

> <Gold.Chemscore.Hbonds>
donor molecule, donor type, donor heavy atom, donor atom, acceptor molecule, acceptor atom, score
      P1  H  6896  6908       L1     9  0.96
      P1  H  6931  6943       L1    16  0.64
      P1  H  6934  6947       L1    16  0.69

> <Gold.Chemscore.Hbond.Weighted>
-7.6955

> <Gold.Chemscore.Metal.Weighted>
-0.0000

> <Gold.Chemscore.Lipo.Weighted>
-10.0744

> <Gold.Chemscore.Internal_Hbond.Weighted>
0.0000

> <Gold.Chemscore.DEClash.Weighted>
0.0598

> <Gold.Chemscore.DEInternal.Weighted>
2.2210

> <Gold.Chemscore.Rot.Weighted>
4.6341

> <Gold.Chemscore.Internal.Correction.Weighted>
   9.000000E+99

> <Gold.Protein.RotatedTorsions>
[ 6907 6896 6895 6894 ] final -175.96 input  -60.11 | X-H torsion
[ 7974 7965 7964 7962 ] final  113.63 input  175.53 | X-H torsion
[ 8008 7997 7996 7995 ] final   55.83 input   59.86 | X-H torsion
[ 10167 10162 10161 10158 ] final  -33.73 input  -65.29 | X-H torsion
[ 10718 10713 10712 10709 ] final  113.12 input   66.30 | X-H torsion
[ 10763 10752 10751 10750 ] final  -14.81 input  -60.55 | X-H torsion
[ 11005 11000 10999 10996 ] final   47.81 input  -57.11 | X-H torsion

> <Gold.Protein.ActiveResidues>
 VAL166  LYS551  ARG553  GLY616  TRP617  ASP618  TYR619  PRO620  LYS621  CYS622 
 ASP623  PHE694  ASN695  SER759  ASP760  ASP761  ALA762  ILE779  LEU786  VAL792 
 PHE793  MET794  SER795  GLU796  ALA797  LYS798  CYS799  TRP800  GLU811  SER814 

> <Gold.Protein.RotatedAtoms>
  151.5971  133.3360  159.3039 H   0  0  0  0  0  0  0  0  0  0  0  0  # atno 6907 bound_to 6896
  150.8228  134.7448  159.6798 H   0  0  0  0  0  0  0  0  0  0  0  0  # atno 6908 bound_to 6896
  152.4320  134.5765  159.9987 H   0  0  0  0  0  0  0  0  0  0  0  0  # atno 6909 bound_to 6896
  145.2145  139.2890  143.4251 H   0  0  0  0  0  0  0  0  0  0  0  0  # atno 7974 bound_to 7965
  155.5075  140.3476  155.4382 H   0  0  0  0  0  0  0  0  0  0  0  0  # atno 8008 bound_to 7997
  156.0872  140.1401  156.9665 H   0  0  0  0  0  0  0  0  0  0  0  0  # atno 8009 bound_to 7997
  154.4613  140.0933  156.6878 H   0  0  0  0  0  0  0  0  0  0  0  0  # atno 8010 bound_to 7997
  140.7199  143.3599  151.1985 H   0  0  0  0  0  0  0  0  0  0  0  0  # atno 10167 bound_to 10162
  157.6355  131.0978  150.6995 H   0  0  0  0  0  0  0  0  0  0  0  0  # atno 10718 bound_to 10713
  153.5339  135.7014  153.5670 H   0  0  0  0  0  0  0  0  0  0  0  0  # atno 10763 bound_to 10752
  153.3665  135.3956  155.1757 H   0  0  0  0  0  0  0  0  0  0  0  0  # atno 10764 bound_to 10752
  154.8681  135.3801  154.4838 H   0  0  0  0  0  0  0  0  0  0  0  0  # atno 10765 bound_to 10752
  140.1246  134.4784  155.8569 H   0  0  0  0  0  0  0  0  0  0  0  0  # atno 11005 bound_to 11000
  146.3390  140.2432  142.8596 LP  0  0  0  0  0  0  0  0  0  0  0  0  # atno 17320 bound_to 7965
  144.9824  140.8471  143.5389 LP  0  0  0  0  0  0  0  0  0  0  0  0  # atno 17321 bound_to 7965
  139.7148  143.9318  152.2962 LP  0  0  0  0  0  0  0  0  0  0  0  0  # atno 17342 bound_to 10162
  139.9055  144.6887  150.8619 LP  0  0  0  0  0  0  0  0  0  0  0  0  # atno 17343 bound_to 10162
  156.7327  130.4714  149.5496 LP  0  0  0  0  0  0  0  0  0  0  0  0  # atno 17370 bound_to 10713
  156.1592  130.6362  151.0696 LP  0  0  0  0  0  0  0  0  0  0  0  0  # atno 17371 bound_to 10713
  141.2158  133.6773  156.6954 LP  0  0  0  0  0  0  0  0  0  0  0  0  # atno 17394 bound_to 11000
  140.2920  134.8233  157.4025 LP  0  0  0  0  0  0  0  0  0  0  0  0  # atno 17395 bound_to 11000

$$$$
