AV-unprocessed.smi:2329|AV-procd|sdf|9304|dock1
  -GOLD-   2272012523D 1   1.00000     0.00000
 Structure written by MMmdl.
 45 48  0  0  0  0  0  0  0  0  1 V2000
  153.5746  141.7511  160.9161 C   0  0  0  0  0  0  0  0  0  0  0  0
  152.6430  142.8016  160.3496 C   0  0  0  0  0  0  0  0  0  0  0  0
  152.5070  144.0596  160.9685 C   0  0  0  0  0  0  0  0  0  0  0  0
  151.6273  144.9912  160.3889 C   0  0  0  0  0  0  0  0  0  0  0  0
  150.9258  144.6296  159.2226 C   0  0  0  0  0  0  0  0  0  0  0  0
  151.1202  143.3461  158.6645 C   0  0  0  0  0  0  0  0  0  0  0  0
  150.3689  143.0813  157.4895 N   0  0  0  0  0  0  0  0  0  0  0  0
  150.4227  141.9987  156.6882 C   0  0  0  0  0  0  0  0  0  0  0  0
  151.1423  141.0198  156.8771 O   0  0  0  0  0  0  0  0  0  0  0  0
  149.5795  142.0505  155.6421 N   0  0  0  0  0  0  0  0  0  0  0  0
  149.3898  141.0453  154.5888 C   0  0  2  0  0  0  0  0  0  0  0  0
  148.1006  141.2484  153.7557 C   0  0  2  0  0  0  0  0  0  0  0  0
  147.2694  142.5077  153.8102 C   0  0  0  0  0  0  0  0  0  0  0  0
  146.1714  142.1500  154.8161 C   0  0  0  0  0  0  0  0  0  0  0  0
  146.6975  141.0521  155.5587 O   0  0  0  0  0  0  0  0  0  0  0  0
  147.4280  140.2248  154.6568 C   0  0  2  0  0  0  0  0  0  0  0  0
  148.8035  139.7259  155.1450 C   0  0  0  0  0  0  0  0  0  0  0  0
  148.9478  139.3768  156.6270 C   0  0  0  0  0  0  0  0  0  0  0  0
  148.5925  137.8959  156.7715 C   0  0  0  0  0  0  0  0  0  0  0  0
  148.8683  137.2729  155.4000 C   0  0  0  0  0  0  0  0  0  0  0  0
  149.2927  138.4329  154.4931 C   0  0  0  0  0  0  0  0  0  0  0  0
  151.9708  142.4546  159.2310 N   0  0  0  0  0  0  0  0  0  0  0  0
  153.9376  142.0363  161.9040 H   0  0  0  0  0  0  0  0  0  0  0  0
  154.4354  141.6183  160.2603 H   0  0  0  0  0  0  0  0  0  0  0  0
  153.0606  140.7937  161.0071 H   0  0  0  0  0  0  0  0  0  0  0  0
  153.0610  144.3066  161.8623 H   0  0  0  0  0  0  0  0  0  0  0  0
  151.4927  145.9677  160.8302 H   0  0  0  0  0  0  0  0  0  0  0  0
  150.2466  145.3336  158.7643 H   0  0  0  0  0  0  0  0  0  0  0  0
  149.7140  143.8007  157.2208 H   0  0  0  0  0  0  0  0  0  0  0  0
  148.9675  142.8524  155.5957 H   0  0  0  0  0  0  0  0  0  0  0  0
  150.2737  140.8724  153.9725 H   0  0  0  0  0  0  0  0  0  0  0  0
  148.2293  140.8531  152.7469 H   0  0  0  0  0  0  0  0  0  0  0  0
  147.8447  143.3704  154.1429 H   0  0  0  0  0  0  0  0  0  0  0  0
  146.8422  142.7605  152.8395 H   0  0  0  0  0  0  0  0  0  0  0  0
  145.9104  142.9843  155.4675 H   0  0  0  0  0  0  0  0  0  0  0  0
  145.2680  141.8261  154.2971 H   0  0  0  0  0  0  0  0  0  0  0  0
  146.8081  139.4994  154.1277 H   0  0  0  0  0  0  0  0  0  0  0  0
  149.9797  139.5309  156.9456 H   0  0  0  0  0  0  0  0  0  0  0  0
  148.3246  139.9970  157.2720 H   0  0  0  0  0  0  0  0  0  0  0  0
  149.1665  137.4181  157.5659 H   0  0  0  0  0  0  0  0  0  0  0  0
  147.5355  137.7881  157.0182 H   0  0  0  0  0  0  0  0  0  0  0  0
  149.6429  136.5070  155.4492 H   0  0  0  0  0  0  0  0  0  0  0  0
  147.9632  136.8000  155.0169 H   0  0  0  0  0  0  0  0  0  0  0  0
  148.9102  138.3041  153.4799 H   0  0  0  0  0  0  0  0  0  0  0  0
  150.3808  138.4461  154.4158 H   0  0  0  0  0  0  0  0  0  0  0  0
  1  2  1  0  0  0  0
  1 23  1  0  0  0  0
  1 24  1  0  0  0  0
  1 25  1  0  0  0  0
  2 22  1  0  0  0  0
  2  3  2  0  0  0  0
  3  4  1  0  0  0  0
  3 26  1  0  0  0  0
  4  5  2  0  0  0  0
  4 27  1  0  0  0  0
  5  6  1  0  0  0  0
  5 28  1  0  0  0  0
  6  7  1  0  0  0  0
  6 22  2  0  0  0  0
  7  8  1  0  0  0  0
  7 29  1  0  0  0  0
  8  9  2  0  0  0  0
  8 10  1  0  0  0  0
 10 11  1  0  0  0  0
 10 30  1  0  0  0  0
 11 17  1  0  0  0  0
 11 12  1  0  0  0  0
 11 31  1  0  0  0  0
 12 16  1  0  0  0  0
 12 13  1  0  0  0  0
 12 32  1  0  0  0  0
 13 14  1  0  0  0  0
 13 33  1  0  0  0  0
 13 34  1  0  0  0  0
 14 15  1  0  0  0  0
 14 35  1  0  0  0  0
 14 36  1  0  0  0  0
 15 16  1  0  0  0  0
 16 17  1  0  0  0  0
 16 37  1  0  0  0  0
 17 21  1  0  0  0  0
 17 18  1  0  0  0  0
 18 19  1  0  0  0  0
 18 38  1  0  0  0  0
 18 39  1  0  0  0  0
 19 20  1  0  0  0  0
 19 40  1  0  0  0  0
 19 41  1  0  0  0  0
 20 21  1  0  0  0  0
 20 42  1  0  0  0  0
 20 43  1  0  0  0  0
 21 44  1  0  0  0  0
 21 45  1  0  0  0  0
M  END
> <s_m_source_file>
AV-unprocessed.smi

> <i_m_source_file_index>
2329

> <i_lp_mmshare_version>
43012

> <i_f3d_flags>
0

> <s_epik_input>
W0NIM11jMVtjSF1bY0hdW2NIXWMobjEpW05IXUMoPU8pW05IXVtDQEBIXTJbQ0BASF0oW0NIMl1bQ0gyXU8zKVtDQEhdM0MyNFtDSDJdW0NIMl1bQ0gyXVtDSDJdNA==

> <s_epik_cmdline>
J2VwaWtfcHl0aG9uJywgJy1waCcsICc3LjAnLCAnLXRuJywgJzgnLCAnLW1hJywgJzIwMCcsICctbWV0YWxfYmluZGluZycsICctaW1hZScsICc8aW5maWxlLm1hZT4nLCAnLW9tYWUnLCAnPG91dGZpbGUubWFlPic=

> <r_lp_tautomer_probability>
1

> <r_epik_Ionization_Penalty>
8.97002e-05

> <r_epik_Ionization_Penalty_Charging>
0

> <r_epik_Ionization_Penalty_Neutral>
8.97002e-05

> <r_epik_State_Penalty>
-0

> <r_epik_Charging_Adjusted_Penalty>
0

> <i_epik_Tot_Q>
0

> <i_epik_Tot_abs_Q>
0

> <r_epik_Metal_State_Penalty>
-0

> <b_epik_Metal_Only>
0

> <s_lp_Force_Field>
OPLS_2005

> <r_lp_Energy>
67.4264

> <b_lp_Chiralities_Consistent>
1

> <s_lp_Variant>
AV-unprocessed.smi:2329-3

> <Gold.Version>
5.8.1

> <Gold.Id.Protein>
6NUR|6NUR_protein|mol2

> <Gold.PLP.Fitness>
46.3597

> <Gold.PLP.PLP>
-40.8750

> <Gold.PLP.part.hbond>
-2.0000

> <Gold.PLP.part.metal>
0.0000

> <Gold.PLP.part.buried>
-6.4397

> <Gold.PLP.part.nonpolar>
-32.2988

> <Gold.PLP.part.repulsive>
0.2604

> <Gold.PLP.ligand.clash>
0.0000

> <Gold.PLP.ligand.torsion>
0.1150

> <Gold.PLP.Chemscore.Hbond>
1.8400

> <Gold.PLP.Chemscore.CHOScore>
0.0000

> <Gold.PLP.Chemscore.Metal>
0.0000

> <Gold.Chemscore.Hbonds>
donor molecule, donor type, donor heavy atom, donor atom, acceptor molecule, acceptor atom, score
      L1  H     7    29       P1  8028  0.90
      L1  H    10    30       P1  8028  0.91

> <Gold.PLP.Chemscore.Internal.Correction>
0.1947

> <Gold.Rescore>
     Score         DG    S(hbond)    S(metal)    S(lipo)     H(rot)  DE(clash)    DE(int)     intcor
     15.97     -19.95       1.57        0.00     100.70       1.00       0.20       3.78       ----

> <Gold.Chemscore.Fitness>
15.9748

> <Gold.Chemscore.DG>
-19.9533

> <Gold.Chemscore.ZeroCoef>
-5.4800

> <Gold.Chemscore.Hbond>
1.5723

> <Gold.Chemscore.Metal>
0.0000

> <Gold.Chemscore.Lipo>
100.6986

> <Gold.Chemscore.Internal_Hbond>
0.0000

> <Gold.Chemscore.DEClash>
0.2014

> <Gold.Chemscore.DEInternal>
3.7770

> <Gold.Chemscore.Rot>
1.0000

> <Gold.Chemscore.Internal.Correction>
   9.000000E+99

> <Gold.Chemscore.Hbonds>
donor molecule, donor type, donor heavy atom, donor atom, acceptor molecule, acceptor atom, score
      L1  H     7    29       P1  8028  0.68
      L1  H    10    30       P1  8028  0.90

> <Gold.Chemscore.Hbond.Weighted>
-5.2516

> <Gold.Chemscore.Metal.Weighted>
-0.0000

> <Gold.Chemscore.Lipo.Weighted>
-11.7817

> <Gold.Chemscore.Internal_Hbond.Weighted>
0.0000

> <Gold.Chemscore.DEClash.Weighted>
0.2014

> <Gold.Chemscore.DEInternal.Weighted>
3.7770

> <Gold.Chemscore.Rot.Weighted>
2.5600

> <Gold.Chemscore.Internal.Correction.Weighted>
   9.000000E+99

> <Gold.Protein.RotatedTorsions>
[ 6907 6896 6895 6894 ] final  122.80 input  -60.11 | X-H torsion
[ 7974 7965 7964 7962 ] final  -25.00 input  175.53 | X-H torsion
[ 8008 7997 7996 7995 ] final   61.52 input   59.86 | X-H torsion
[ 10167 10162 10161 10158 ] final   11.75 input  -65.29 | X-H torsion
[ 10718 10713 10712 10709 ] final   50.39 input   66.30 | X-H torsion
[ 10763 10752 10751 10750 ] final  105.53 input  -60.55 | X-H torsion
[ 11005 11000 10999 10996 ] final   26.68 input  -57.11 | X-H torsion

> <Gold.Protein.ActiveResidues>
 VAL166  LYS551  ARG553  GLY616  TRP617  ASP618  TYR619  PRO620  LYS621  CYS622 
 ASP623  PHE694  ASN695  SER759  ASP760  ASP761  ALA762  ILE779  LEU786  VAL792 
 PHE793  MET794  SER795  GLU796  ALA797  LYS798  CYS799  TRP800  GLU811  SER814 

> <Gold.Protein.RotatedAtoms>
  152.4213  133.7121  159.6484 H   0  0  0  0  0  0  0  0  0  0  0  0  # atno 6907 bound_to 6896
  150.8089  133.8447  159.3197 H   0  0  0  0  0  0  0  0  0  0  0  0  # atno 6908 bound_to 6896
  151.6163  135.1038  160.0143 H   0  0  0  0  0  0  0  0  0  0  0  0  # atno 6909 bound_to 6896
  146.1519  140.4827  142.8607 H   0  0  0  0  0  0  0  0  0  0  0  0  # atno 7974 bound_to 7965
  155.5997  140.3494  155.4590 H   0  0  0  0  0  0  0  0  0  0  0  0  # atno 8008 bound_to 7997
  156.0238  140.1259  157.0355 H   0  0  0  0  0  0  0  0  0  0  0  0  # atno 8009 bound_to 7997
  154.4325  140.1057  156.5987 H   0  0  0  0  0  0  0  0  0  0  0  0  # atno 8010 bound_to 7997
  140.6112  143.8404  150.7067 H   0  0  0  0  0  0  0  0  0  0  0  0  # atno 10167 bound_to 10162
  157.4880  130.8357  149.8169 H   0  0  0  0  0  0  0  0  0  0  0  0  # atno 10718 bound_to 10713
  153.3806  135.3907  155.1854 H   0  0  0  0  0  0  0  0  0  0  0  0  # atno 10763 bound_to 10752
  154.8707  135.3724  154.4862 H   0  0  0  0  0  0  0  0  0  0  0  0  # atno 10764 bound_to 10752
  153.5339  135.7085  153.5731 H   0  0  0  0  0  0  0  0  0  0  0  0  # atno 10765 bound_to 10752
  140.3344  134.2402  155.7698 H   0  0  0  0  0  0  0  0  0  0  0  0  # atno 11005 bound_to 11000
  144.7915  140.6040  143.6538 LP  0  0  0  0  0  0  0  0  0  0  0  0  # atno 17320 bound_to 7965
  145.4802  139.1496  143.3766 LP  0  0  0  0  0  0  0  0  0  0  0  0  # atno 17321 bound_to 7965
  140.1973  143.3987  152.1818 LP  0  0  0  0  0  0  0  0  0  0  0  0  # atno 17342 bound_to 10162
  139.5362  144.7212  151.4884 LP  0  0  0  0  0  0  0  0  0  0  0  0  # atno 17343 bound_to 10162
  156.0157  130.3814  150.2118 LP  0  0  0  0  0  0  0  0  0  0  0  0  # atno 17370 bound_to 10713
  157.0306  131.0006  151.3313 LP  0  0  0  0  0  0  0  0  0  0  0  0  # atno 17371 bound_to 10713
  141.2055  133.7858  157.0230 LP  0  0  0  0  0  0  0  0  0  0  0  0  # atno 17394 bound_to 11000
  140.0833  134.9635  157.1660 LP  0  0  0  0  0  0  0  0  0  0  0  0  # atno 17395 bound_to 11000

$$$$
