AV-unprocessed.smi:2226|AV-procd|sdf|9003|dock6
  -GOLD-   2272012213D 1   1.00000     0.00000
 Structure written by MMmdl.
 40 42  0  0  0  0  0  0  0  0  2 V2000
  146.0811  141.3028  155.1055 C   0  0  0  0  0  0  0  0  0  0  0  0
  146.0682  140.2211  154.0921 N   0  3  2  0  0  0  0  0  0  0  0  0
  146.0583  138.8460  154.6477 C   0  0  2  0  0  0  0  0  0  0  0  0
  147.4163  138.4950  155.3071 C   0  0  0  0  0  0  0  0  0  0  0  0
  148.6378  138.7513  154.4040 C   0  0  0  0  0  0  0  0  0  0  0  0
  148.5220  140.0683  153.6132 C   0  0  0  0  0  0  0  0  0  0  0  0
  147.1073  140.3390  153.0405 C   0  0  1  0  0  0  0  0  0  0  0  0
  146.7096  139.4450  151.8432 C   0  0  0  0  0  0  0  0  0  0  0  0
  146.3897  137.9774  152.2175 C   0  0  2  0  0  0  0  0  0  0  0  0
  145.6130  137.3642  151.1407 N   0  0  0  0  0  0  0  0  0  0  0  0
  145.4622  136.0479  150.9286 C   0  0  0  0  0  0  0  0  0  0  0  0
  145.9740  135.1791  151.6349 O   0  0  0  0  0  0  0  0  0  0  0  0
  144.6878  135.8138  149.8560 N   0  0  0  0  0  0  0  0  0  0  0  0
  144.3072  134.5554  149.3255 C   0  0  0  0  0  0  0  0  0  0  0  0
  143.6054  134.3425  148.2115 N   0  0  0  0  0  0  0  0  0  0  0  0
  143.4966  132.9622  148.1255 C   0  0  0  0  0  0  0  0  0  0  0  0
  144.1448  132.4143  149.2025 C   0  0  0  0  0  0  0  0  0  0  0  0
  144.6662  133.4169  149.9754 O   0  0  0  0  0  0  0  0  0  0  0  0
  145.5997  137.8649  153.5439 C   0  0  0  0  0  0  0  0  0  0  0  0
  146.9939  141.3023  155.7002 H   0  0  0  0  0  0  0  0  0  0  0  0
  145.2355  141.1958  155.7853 H   0  0  0  0  0  0  0  0  0  0  0  0
  145.9940  142.2763  154.6221 H   0  0  0  0  0  0  0  0  0  0  0  0
  145.2986  138.8080  155.4297 H   0  0  0  0  0  0  0  0  0  0  0  0
  147.5297  139.0881  156.2149 H   0  0  0  0  0  0  0  0  0  0  0  0
  147.4152  137.4565  155.6393 H   0  0  0  0  0  0  0  0  0  0  0  0
  149.5418  138.7722  155.0135 H   0  0  0  0  0  0  0  0  0  0  0  0
  148.7892  137.9154  153.7266 H   0  0  0  0  0  0  0  0  0  0  0  0
  148.7967  140.8911  154.2738 H   0  0  0  0  0  0  0  0  0  0  0  0
  149.2609  140.0828  152.8116 H   0  0  0  0  0  0  0  0  0  0  0  0
  147.0966  141.3670  152.6754 H   0  0  0  0  0  0  0  0  0  0  0  0
  145.8234  139.8887  151.3862 H   0  0  0  0  0  0  0  0  0  0  0  0
  147.4830  139.4746  151.0747 H   0  0  0  0  0  0  0  0  0  0  0  0
  147.3264  137.4377  152.3272 H   0  0  0  0  0  0  0  0  0  0  0  0
  145.1509  137.9956  150.5027 H   0  0  0  0  0  0  0  0  0  0  0  0
  144.3310  136.6197  149.3644 H   0  0  0  0  0  0  0  0  0  0  0  0
  142.9715  132.4826  147.3126 H   0  0  0  0  0  0  0  0  0  0  0  0
  144.3146  131.4026  149.5402 H   0  0  0  0  0  0  0  0  0  0  0  0
  145.6316  136.8386  153.9120 H   0  0  0  0  0  0  0  0  0  0  0  0
  144.5475  138.0722  153.3411 H   0  0  0  0  0  0  0  0  0  0  0  0
  145.1843  140.3293  153.6156 H   0  0  0  0  0  0  0  0  0  0  0  0
  1  2  1  0  0  0  0
  1 20  1  0  0  0  0
  1 21  1  0  0  0  0
  1 22  1  0  0  0  0
  2  7  1  0  0  0  0
  2  3  1  0  0  0  0
  2 40  1  0  0  0  0
  3 19  1  0  0  0  0
  3  4  1  0  0  0  0
  3 23  1  0  0  0  0
  4  5  1  0  0  0  0
  4 24  1  0  0  0  0
  4 25  1  0  0  0  0
  5  6  1  0  0  0  0
  5 26  1  0  0  0  0
  5 27  1  0  0  0  0
  6  7  1  0  0  0  0
  6 28  1  0  0  0  0
  6 29  1  0  0  0  0
  7  8  1  0  0  0  0
  7 30  1  0  0  0  0
  8  9  1  0  0  0  0
  8 31  1  0  0  0  0
  8 32  1  0  0  0  0
  9 10  1  0  0  0  0
  9 19  1  0  0  0  0
  9 33  1  0  0  0  0
 10 11  1  0  0  0  0
 10 34  1  0  0  0  0
 11 12  2  0  0  0  0
 11 13  1  0  0  0  0
 13 14  1  0  0  0  0
 13 35  1  0  0  0  0
 14 18  1  0  0  0  0
 14 15  2  0  0  0  0
 15 16  1  0  0  0  0
 16 17  2  0  0  0  0
 16 36  1  0  0  0  0
 17 18  1  0  0  0  0
 17 37  1  0  0  0  0
 19 38  1  0  0  0  0
 19 39  1  0  0  0  0
M  CHG  1   2   1
M  END
> <s_m_source_file>
AV-unprocessed.smi

> <i_m_source_file_index>
2226

> <i_lp_mmshare_version>
43012

> <i_f3d_flags>
0

> <s_epik_input>
W0NIMl0xW0NIMl1bQ0gyXVtDQEhdKE4oW0NIM10pW0NIXTEyKVtDSDJdW0NASF0oW0NIMl0yKVtOSF1DKD1PKVtOSF1jM25bY0hdW2NIXW8z

> <s_epik_cmdline>
J2VwaWtfcHl0aG9uJywgJy1waCcsICc3LjAnLCAnLXRuJywgJzgnLCAnLW1hJywgJzIwMCcsICctbWV0YWxfYmluZGluZycsICctaW1hZScsICc8aW5maWxlLm1hZT4nLCAnLW9tYWUnLCAnPG91dGZpbGUubWFlPic=

> <r_lp_tautomer_probability>
0.785861

> <r_epik_Ionization_Penalty>
0.000929358

> <r_epik_Ionization_Penalty_Charging>
0.000890041

> <r_epik_Ionization_Penalty_Neutral>
3.93161e-05

> <r_epik_State_Penalty>
0.0312137

> <r_epik_Charging_Adjusted_Penalty>
0.0321037

> <i_epik_Tot_Q>
1

> <i_epik_Tot_abs_Q>
1

> <r_epik_Metal_State_Penalty>
0.0605703

> <b_epik_Metal_Only>
0

> <s_lp_Force_Field>
OPLS_2005

> <r_lp_Energy>
34.3269

> <b_lp_Chiralities_Consistent>
1

> <s_lp_Variant>
AV-unprocessed.smi:2226-3

> <Gold.Version>
5.8.1

> <Gold.Id.Protein>
6NUR|6NUR_protein|mol2

> <Gold.PLP.Fitness>
39.2189

> <Gold.PLP.PLP>
-22.6611

> <Gold.PLP.part.hbond>
-4.7846

> <Gold.PLP.part.metal>
0.0000

> <Gold.PLP.part.buried>
8.0379

> <Gold.PLP.part.nonpolar>
-31.7497

> <Gold.PLP.part.repulsive>
5.6506

> <Gold.PLP.ligand.clash>
0.0000

> <Gold.PLP.ligand.torsion>
0.2406

> <Gold.PLP.Chemscore.Hbond>
4.6778

> <Gold.PLP.Chemscore.CHOScore>
1.0000

> <Gold.PLP.Chemscore.Metal>
0.0000

> <Gold.Chemscore.Hbonds>
donor molecule, donor type, donor heavy atom, donor atom, acceptor molecule, acceptor atom, score
      L1  H     2    40       P1 10175  2.00
      L1  H    10    34       P1 10171  1.00
      L1  H    13    35       P1 10171  0.78
      P1  H 10192 10197       L1    15  0.88
      L1  C    16    36       P1 10195  1.00

> <Gold.PLP.Chemscore.Internal.Correction>
0.0057

> <Gold.Rescore>
     Score         DG    S(hbond)    S(metal)    S(lipo)     H(rot)  DE(clash)    DE(int)     intcor
     14.77     -22.94       3.34        0.00      75.82       1.00       6.47       1.69       ----

> <Gold.Chemscore.Fitness>
14.7716

> <Gold.Chemscore.DG>
-22.9397

> <Gold.Chemscore.ZeroCoef>
-5.4800

> <Gold.Chemscore.Hbond>
3.3381

> <Gold.Chemscore.Metal>
0.0000

> <Gold.Chemscore.Lipo>
75.8154

> <Gold.Chemscore.Internal_Hbond>
0.0000

> <Gold.Chemscore.DEClash>
6.4743

> <Gold.Chemscore.DEInternal>
1.6938

> <Gold.Chemscore.Rot>
1.0000

> <Gold.Chemscore.Internal.Correction>
   9.000000E+99

> <Gold.Chemscore.Hbonds>
donor molecule, donor type, donor heavy atom, donor atom, acceptor molecule, acceptor atom, score
      L1  H     2    40       P1 10175  1.00
      L1  H    10    34       P1 10171  0.94
      L1  H    13    35       P1 10171  0.72
      P1  H 10192 10197       L1    15  0.56

> <Gold.Chemscore.Hbond.Weighted>
-11.1493

> <Gold.Chemscore.Metal.Weighted>
-0.0000

> <Gold.Chemscore.Lipo.Weighted>
-8.8704

> <Gold.Chemscore.Internal_Hbond.Weighted>
0.0000

> <Gold.Chemscore.DEClash.Weighted>
6.4743

> <Gold.Chemscore.DEInternal.Weighted>
1.6938

> <Gold.Chemscore.Rot.Weighted>
2.5600

> <Gold.Chemscore.Internal.Correction.Weighted>
   9.000000E+99

> <Gold.Protein.RotatedTorsions>
[ 6907 6896 6895 6894 ] final  -84.25 input  -60.11 | X-H torsion
[ 7974 7965 7964 7962 ] final -151.05 input  175.53 | X-H torsion
[ 8008 7997 7996 7995 ] final  157.10 input   59.86 | X-H torsion
[ 10167 10162 10161 10158 ] final    4.92 input  -65.29 | X-H torsion
[ 10718 10713 10712 10709 ] final   98.61 input   66.30 | X-H torsion
[ 10763 10752 10751 10750 ] final -102.68 input  -60.55 | X-H torsion
[ 11005 11000 10999 10996 ] final    8.27 input  -57.11 | X-H torsion

> <Gold.Protein.ActiveResidues>
 VAL166  LYS551  ARG553  GLY616  TRP617  ASP618  TYR619  PRO620  LYS621  CYS622 
 ASP623  PHE694  ASN695  SER759  ASP760  ASP761  ALA762  ILE779  LEU786  VAL792 
 PHE793  MET794  SER795  GLU796  ALA797  LYS798  CYS799  TRP800  GLU811  SER814 

> <Gold.Protein.RotatedAtoms>
  150.6878  134.3387  159.4858 H   0  0  0  0  0  0  0  0  0  0  0  0  # atno 6907 bound_to 6896
  152.1243  134.9180  160.0571 H   0  0  0  0  0  0  0  0  0  0  0  0  # atno 6908 bound_to 6896
  152.0374  133.3928  159.4359 H   0  0  0  0  0  0  0  0  0  0  0  0  # atno 6909 bound_to 6896
  144.7872  140.4849  143.5798 H   0  0  0  0  0  0  0  0  0  0  0  0  # atno 7974 bound_to 7965
  156.2384  140.1894  156.7057 H   0  0  0  0  0  0  0  0  0  0  0  0  # atno 8008 bound_to 7997
  154.6149  140.0616  156.9568 H   0  0  0  0  0  0  0  0  0  0  0  0  # atno 8009 bound_to 7997
  155.1955  140.3288  155.4354 H   0  0  0  0  0  0  0  0  0  0  0  0  # atno 8010 bound_to 7997
  140.6509  143.7546  150.7574 H   0  0  0  0  0  0  0  0  0  0  0  0  # atno 10167 bound_to 10162
  157.6892  131.0645  150.4822 H   0  0  0  0  0  0  0  0  0  0  0  0  # atno 10718 bound_to 10713
  154.7752  135.4851  153.9729 H   0  0  0  0  0  0  0  0  0  0  0  0  # atno 10763 bound_to 10752
  153.1419  135.6774  153.9021 H   0  0  0  0  0  0  0  0  0  0  0  0  # atno 10764 bound_to 10752
  153.8693  135.3145  155.3420 H   0  0  0  0  0  0  0  0  0  0  0  0  # atno 10765 bound_to 10752
  140.5388  134.0394  155.7897 H   0  0  0  0  0  0  0  0  0  0  0  0  # atno 11005 bound_to 11000
  145.5891  139.1494  143.3192 LP  0  0  0  0  0  0  0  0  0  0  0  0  # atno 17320 bound_to 7965
  146.2109  140.6017  142.9060 LP  0  0  0  0  0  0  0  0  0  0  0  0  # atno 17321 bound_to 7965
  140.1197  143.4623  152.2321 LP  0  0  0  0  0  0  0  0  0  0  0  0  # atno 17342 bound_to 10162
  139.5724  144.7470  151.3854 LP  0  0  0  0  0  0  0  0  0  0  0  0  # atno 17343 bound_to 10162
  156.5153  130.4149  149.6279 LP  0  0  0  0  0  0  0  0  0  0  0  0  # atno 17370 bound_to 10713
  156.3203  130.7277  151.2187 LP  0  0  0  0  0  0  0  0  0  0  0  0  # atno 17371 bound_to 10713
  141.1239  133.9416  157.2675 LP  0  0  0  0  0  0  0  0  0  0  0  0  # atno 17394 bound_to 11000
  139.9515  135.0174  156.9006 LP  0  0  0  0  0  0  0  0  0  0  0  0  # atno 17395 bound_to 11000

$$$$
