AV-unprocessed.smi:790|AV-procd|sdf|3742|dock1
  -GOLD-   22720 1173D 1   1.00000     0.00000
 Structure written by MMmdl.
 38 40  0  0  0  0  0  0  0  0  1 V2000
  150.7233  140.6001  156.2942 O   0  0  0  0  0  0  0  0  0  0  0  0
  150.2014  141.6911  156.0663 C   0  0  0  0  0  0  0  0  0  0  0  0
  150.4528  142.8302  156.7334 N   0  0  0  0  0  0  0  0  0  0  0  0
  151.2970  143.0330  157.8587 C   0  0  0  0  0  0  0  0  0  0  0  0
  151.7842  141.9951  158.6899 C   0  0  0  0  0  0  0  0  0  0  0  0
  152.5968  142.3306  159.7899 C   0  0  0  0  0  0  0  0  0  0  0  0
  152.8870  143.6889  160.0232 C   0  0  0  0  0  0  0  0  0  0  0  0
  152.4202  144.6890  159.2465 N   0  0  0  0  0  0  0  0  0  0  0  0
  151.6412  144.3599  158.1941 C   0  0  0  0  0  0  0  0  0  0  0  0
  149.3060  141.8920  155.0901 N   0  0  0  0  0  0  0  0  0  0  0  0
  148.7997  140.8585  154.1904 C   0  0  2  0  0  0  0  0  0  0  0  0
  147.4466  141.2869  153.5806 C   0  0  1  0  0  0  0  0  0  0  0  0
  147.1488  140.3935  152.3631 C   0  0  0  0  0  0  0  0  0  0  0  0
  146.7935  139.0458  153.0190 C   0  0  0  0  0  0  0  0  0  0  0  0
  146.9534  139.3403  154.5264 C   0  0  2  0  0  0  0  0  0  0  0  0
  146.4324  140.7700  154.5978 C   0  0  0  0  0  0  0  0  0  0  0  0
  148.4354  139.5450  154.9291 C   0  0  1  0  0  0  0  0  0  0  0  0
  149.3886  138.3700  154.6355 C   0  0  0  0  0  0  0  0  0  0  0  0
  149.7594  138.3670  153.2733 O   0  0  0  0  0  0  0  0  0  0  0  0
  150.0093  143.6621  156.3719 H   0  0  0  0  0  0  0  0  0  0  0  0
  151.5427  140.9581  158.5187 H   0  0  0  0  0  0  0  0  0  0  0  0
  152.9847  141.5636  160.4435 H   0  0  0  0  0  0  0  0  0  0  0  0
  153.5055  143.9803  160.8593 H   0  0  0  0  0  0  0  0  0  0  0  0
  151.2824  145.1861  157.5976 H   0  0  0  0  0  0  0  0  0  0  0  0
  148.9337  142.8223  154.9683 H   0  0  0  0  0  0  0  0  0  0  0  0
  149.5305  140.6889  153.3969 H   0  0  0  0  0  0  0  0  0  0  0  0
  147.3762  142.3523  153.3574 H   0  0  0  0  0  0  0  0  0  0  0  0
  146.3006  140.7785  151.7956 H   0  0  0  0  0  0  0  0  0  0  0  0
  147.9978  140.3165  151.6829 H   0  0  0  0  0  0  0  0  0  0  0  0
  145.7598  138.7808  152.7934 H   0  0  0  0  0  0  0  0  0  0  0  0
  147.4175  138.2255  152.6671 H   0  0  0  0  0  0  0  0  0  0  0  0
  146.4232  138.6341  155.1659 H   0  0  0  0  0  0  0  0  0  0  0  0
  146.5368  141.2224  155.5855 H   0  0  0  0  0  0  0  0  0  0  0  0
  145.3969  140.8717  154.2678 H   0  0  0  0  0  0  0  0  0  0  0  0
  148.4586  139.7220  156.0066 H   0  0  0  0  0  0  0  0  0  0  0  0
  150.2818  138.4007  155.2581 H   0  0  0  0  0  0  0  0  0  0  0  0
  148.8910  137.4251  154.8538 H   0  0  0  0  0  0  0  0  0  0  0  0
  149.5293  137.5292  152.9014 H   0  0  0  0  0  0  0  0  0  0  0  0
  1  2  2  0  0  0  0
  2  3  1  0  0  0  0
  2 10  1  0  0  0  0
  3  4  1  0  0  0  0
  3 20  1  0  0  0  0
  4  9  1  0  0  0  0
  4  5  2  0  0  0  0
  5  6  1  0  0  0  0
  5 21  1  0  0  0  0
  6  7  2  0  0  0  0
  6 22  1  0  0  0  0
  7  8  1  0  0  0  0
  7 23  1  0  0  0  0
  8  9  2  0  0  0  0
  9 24  1  0  0  0  0
 10 11  1  0  0  0  0
 10 25  1  0  0  0  0
 11 17  1  0  0  0  0
 11 12  1  0  0  0  0
 11 26  1  0  0  0  0
 12 16  1  0  0  0  0
 12 13  1  0  0  0  0
 12 27  1  0  0  0  0
 13 14  1  0  0  0  0
 13 28  1  0  0  0  0
 13 29  1  0  0  0  0
 14 15  1  0  0  0  0
 14 30  1  0  0  0  0
 14 31  1  0  0  0  0
 15 16  1  0  0  0  0
 15 17  1  0  0  0  0
 15 32  1  0  0  0  0
 16 33  1  0  0  0  0
 16 34  1  0  0  0  0
 17 18  1  0  0  0  0
 17 35  1  0  0  0  0
 18 19  1  0  0  0  0
 18 36  1  0  0  0  0
 18 37  1  0  0  0  0
 19 38  1  0  0  0  0
M  END
> <s_m_source_file>
AV-unprocessed.smi

> <i_m_source_file_index>
790

> <i_lp_mmshare_version>
43012

> <i_f3d_flags>
0

> <s_epik_input>
W0NIMl0xW0NIMl1bQ0BASF0oW0NIMl0yKVtDQEBIXShbQ0gyXVtPSF0pW0NAQEhdKFtDQEhdMTIpW05IXUMoPU8pW05IXWMzW2NIXVtjSF1bY0hdbltjSF0z

> <s_epik_cmdline>
J2VwaWtfcHl0aG9uJywgJy1waCcsICc3LjAnLCAnLXRuJywgJzgnLCAnLW1hJywgJzIwMCcsICctbWV0YWxfYmluZGluZycsICctaW1hZScsICc8aW5maWxlLm1hZT4nLCAnLW9tYWUnLCAnPG91dGZpbGUubWFlPic=

> <r_epik_Ionization_Penalty>
0.00497582

> <r_epik_Ionization_Penalty_Charging>
0

> <r_epik_Ionization_Penalty_Neutral>
0.00497582

> <r_epik_State_Penalty>
0.00358602

> <r_epik_Charging_Adjusted_Penalty>
0.00358602

> <i_epik_Tot_Q>
0

> <i_epik_Tot_abs_Q>
0

> <r_epik_Metal_State_Penalty>
-0

> <b_epik_Metal_Only>
0

> <s_lp_Force_Field>
OPLS_2005

> <r_lp_Energy>
52.0716

> <b_lp_Chiralities_Consistent>
1

> <s_lp_Variant>
AV-unprocessed.smi:790-3

> <Gold.Version>
5.8.1

> <Gold.Id.Protein>
6NUR|6NUR_protein|mol2

> <Gold.PLP.Fitness>
45.7215

> <Gold.PLP.PLP>
-37.8033

> <Gold.PLP.part.hbond>
-4.2222

> <Gold.PLP.part.metal>
0.0000

> <Gold.PLP.part.buried>
-3.6370

> <Gold.PLP.part.nonpolar>
-30.0181

> <Gold.PLP.part.repulsive>
0.2748

> <Gold.PLP.ligand.clash>
0.0000

> <Gold.PLP.ligand.torsion>
0.4922

> <Gold.PLP.Chemscore.Hbond>
2.9600

> <Gold.PLP.Chemscore.CHOScore>
0.0000

> <Gold.PLP.Chemscore.Metal>
0.0000

> <Gold.Chemscore.Hbonds>
donor molecule, donor type, donor heavy atom, donor atom, acceptor molecule, acceptor atom, score
      L1  H     3    20       P1  8028  1.00
      L1  H    10    25       P1  8028  0.96
      L1  H    19    38       P1  7948  1.00

> <Gold.PLP.Chemscore.Internal.Correction>
0.0225

> <Gold.Rescore>
     Score         DG    S(hbond)    S(metal)    S(lipo)     H(rot)  DE(clash)    DE(int)     intcor
     18.57     -22.35       2.82        0.00     102.47       1.78       0.18       3.59       ----

> <Gold.Chemscore.Fitness>
18.5719

> <Gold.Chemscore.DG>
-22.3465

> <Gold.Chemscore.ZeroCoef>
-5.4800

> <Gold.Chemscore.Hbond>
2.8233

> <Gold.Chemscore.Metal>
0.0000

> <Gold.Chemscore.Lipo>
102.4705

> <Gold.Chemscore.Internal_Hbond>
0.0000

> <Gold.Chemscore.DEClash>
0.1816

> <Gold.Chemscore.DEInternal>
3.5930

> <Gold.Chemscore.Rot>
1.7783

> <Gold.Chemscore.Internal.Correction>
   9.000000E+99

> <Gold.Chemscore.Hbonds>
donor molecule, donor type, donor heavy atom, donor atom, acceptor molecule, acceptor atom, score
      L1  H     3    20       P1  8028  1.00
      L1  H    10    25       P1  8028  0.88
      L1  H    19    38       P1  7948  0.78

> <Gold.Chemscore.Hbond.Weighted>
-9.4300

> <Gold.Chemscore.Metal.Weighted>
-0.0000

> <Gold.Chemscore.Lipo.Weighted>
-11.9890

> <Gold.Chemscore.Internal_Hbond.Weighted>
0.0000

> <Gold.Chemscore.DEClash.Weighted>
0.1816

> <Gold.Chemscore.DEInternal.Weighted>
3.5930

> <Gold.Chemscore.Rot.Weighted>
4.5525

> <Gold.Chemscore.Internal.Correction.Weighted>
   9.000000E+99

> <Gold.Protein.RotatedTorsions>
[ 6907 6896 6895 6894 ] final  -53.11 input  -60.11 | X-H torsion
[ 7974 7965 7964 7962 ] final  -23.36 input  175.53 | X-H torsion
[ 8008 7997 7996 7995 ] final  130.64 input   59.86 | X-H torsion
[ 10167 10162 10161 10158 ] final -174.02 input  -65.29 | X-H torsion
[ 10718 10713 10712 10709 ] final   54.98 input   66.30 | X-H torsion
[ 10763 10752 10751 10750 ] final  -96.97 input  -60.55 | X-H torsion
[ 11005 11000 10999 10996 ] final  -50.29 input  -57.11 | X-H torsion

> <Gold.Protein.ActiveResidues>
 VAL166  LYS551  ARG553  GLY616  TRP617  ASP618  TYR619  PRO620  LYS621  CYS622 
 ASP623  PHE694  ASN695  SER759  ASP760  ASP761  ALA762  ILE779  LEU786  VAL792 
 PHE793  MET794  SER795  GLU796  ALA797  LYS798  CYS799  TRP800  GLU811  SER814 

> <Gold.Protein.RotatedAtoms>
  150.8456  134.7764  159.6967 H   0  0  0  0  0  0  0  0  0  0  0  0  # atno 6907 bound_to 6896
  152.4534  134.5341  159.9829 H   0  0  0  0  0  0  0  0  0  0  0  0  # atno 6908 bound_to 6896
  151.5472  133.3385  159.2982 H   0  0  0  0  0  0  0  0  0  0  0  0  # atno 6909 bound_to 6896
  146.1621  140.4605  142.8567 H   0  0  0  0  0  0  0  0  0  0  0  0  # atno 7974 bound_to 7965
  156.2958  140.2591  156.2796 H   0  0  0  0  0  0  0  0  0  0  0  0  # atno 8008 bound_to 7997
  154.9615  140.0392  157.2211 H   0  0  0  0  0  0  0  0  0  0  0  0  # atno 8009 bound_to 7997
  154.7942  140.2817  155.5973 H   0  0  0  0  0  0  0  0  0  0  0  0  # atno 8010 bound_to 7997
  139.5656  144.1763  152.1307 H   0  0  0  0  0  0  0  0  0  0  0  0  # atno 10167 bound_to 10162
  157.5305  130.8627  149.8681 H   0  0  0  0  0  0  0  0  0  0  0  0  # atno 10718 bound_to 10713
  154.7286  135.5064  153.8927 H   0  0  0  0  0  0  0  0  0  0  0  0  # atno 10763 bound_to 10752
  153.0928  135.6664  153.9828 H   0  0  0  0  0  0  0  0  0  0  0  0  # atno 10764 bound_to 10752
  153.9635  135.3045  155.3411 H   0  0  0  0  0  0  0  0  0  0  0  0  # atno 10765 bound_to 10752
  141.0808  133.6654  156.3710 H   0  0  0  0  0  0  0  0  0  0  0  0  # atno 11005 bound_to 11000
  144.8041  140.6267  143.6458 LP  0  0  0  0  0  0  0  0  0  0  0  0  # atno 17320 bound_to 7965
  145.4562  139.1518  143.3891 LP  0  0  0  0  0  0  0  0  0  0  0  0  # atno 17321 bound_to 7965
  140.1285  144.5309  150.6817 LP  0  0  0  0  0  0  0  0  0  0  0  0  # atno 17342 bound_to 10162
  140.6939  143.2392  151.5054 LP  0  0  0  0  0  0  0  0  0  0  0  0  # atno 17343 bound_to 10162
  156.0419  130.3737  150.1414 LP  0  0  0  0  0  0  0  0  0  0  0  0  # atno 17370 bound_to 10713
  156.9599  130.9801  151.3481 LP  0  0  0  0  0  0  0  0  0  0  0  0  # atno 17371 bound_to 10713
  140.5473  134.6062  157.5397 LP  0  0  0  0  0  0  0  0  0  0  0  0  # atno 17394 bound_to 11000
  139.9621  134.7434  156.0214 LP  0  0  0  0  0  0  0  0  0  0  0  0  # atno 17395 bound_to 11000

$$$$
