AV-unprocessed.smi:837|AV-procd|sdf|3907|dock8
  -GOLD-   22720 1373D 1   1.00000     0.00000
 Structure written by MMmdl.
 49 51  0  0  0  0  0  0  0  0  3 V2000
  150.0924  141.9422  155.8638 C   0  0  0  0  0  0  0  0  0  0  0  0
  151.2029  141.6271  156.8886 C   0  0  1  0  0  0  0  0  0  0  0  0
  150.9748  142.4104  158.1993 C   0  0  0  0  0  0  0  0  0  0  0  0
  152.1265  142.2053  159.1939 C   0  0  0  0  0  0  0  0  0  0  0  0
  152.3364  140.7162  159.4970 C   0  0  0  0  0  0  0  0  0  0  0  0
  152.5742  139.9133  158.2064 C   0  0  0  0  0  0  0  0  0  0  0  0
  151.4420  140.1062  157.1637 C   0  0  1  0  0  0  0  0  0  0  0  0
  150.2302  139.4339  157.6096 N   0  5  0  0  0  0  0  0  0  0  0  0
  149.9458  138.4289  156.7501 C   0  0  0  0  0  0  0  0  0  0  0  0
  148.9986  137.6462  156.8225 O   0  0  0  0  0  0  0  0  0  0  0  0
  150.8438  138.3787  155.7479 N   0  0  0  0  0  0  0  0  0  0  0  0
  150.7772  137.4481  154.6153 C   0  0  0  0  0  0  0  0  0  0  0  0
  150.5327  136.0129  155.0925 C   0  0  0  0  0  0  0  0  0  0  0  0
  151.2729  135.5018  155.9329 O   0  0  0  0  0  0  0  0  0  0  0  0
  149.4900  135.3769  154.5388 N   0  0  0  0  0  0  0  0  0  0  0  0
  149.1077  133.9899  154.7861 C   0  0  0  0  0  0  0  0  0  0  0  0
  148.8318  133.1829  153.4975 C   0  0  0  0  0  0  0  0  0  0  0  0
  147.3791  133.1949  153.0442 C   0  0  0  0  0  0  0  0  0  0  0  0
  147.0412  133.6042  151.7346 C   0  0  0  0  0  0  0  0  0  0  0  0
  145.6875  133.6193  151.3399 C   0  0  0  0  0  0  0  0  0  0  0  0
  144.6988  133.2316  152.2659 C   0  0  0  0  0  0  0  0  0  0  0  0
  145.0580  132.8448  153.5094 N   0  3  0  0  0  0  0  0  0  0  0  0
  146.3438  132.8093  153.9235 C   0  0  0  0  0  0  0  0  0  0  0  0
  151.7697  139.3322  155.8944 C   0  0  0  0  0  0  0  0  0  0  0  0
  152.7194  139.5775  155.1494 O   0  0  0  0  0  0  0  0  0  0  0  0
  149.1165  141.6283  156.2299 H   0  0  0  0  0  0  0  0  0  0  0  0
  150.2646  141.4523  154.9056 H   0  0  0  0  0  0  0  0  0  0  0  0
  150.0371  143.0134  155.6699 H   0  0  0  0  0  0  0  0  0  0  0  0
  152.1263  142.0176  156.4573 H   0  0  0  0  0  0  0  0  0  0  0  0
  150.8726  143.4744  157.9836 H   0  0  0  0  0  0  0  0  0  0  0  0
  150.0354  142.1007  158.6588 H   0  0  0  0  0  0  0  0  0  0  0  0
  153.0443  142.6282  158.7839 H   0  0  0  0  0  0  0  0  0  0  0  0
  151.9206  142.7469  160.1174 H   0  0  0  0  0  0  0  0  0  0  0  0
  153.1835  140.5912  160.1718 H   0  0  0  0  0  0  0  0  0  0  0  0
  151.4653  140.3232  160.0225 H   0  0  0  0  0  0  0  0  0  0  0  0
  153.5250  140.2302  157.7745 H   0  0  0  0  0  0  0  0  0  0  0  0
  152.6966  138.8569  158.4526 H   0  0  0  0  0  0  0  0  0  0  0  0
  149.9748  137.7292  153.9315 H   0  0  0  0  0  0  0  0  0  0  0  0
  151.6980  137.5062  154.0319 H   0  0  0  0  0  0  0  0  0  0  0  0
  148.9390  135.8862  153.8629 H   0  0  0  0  0  0  0  0  0  0  0  0
  149.8636  133.4925  155.3952 H   0  0  0  0  0  0  0  0  0  0  0  0
  148.1999  134.0199  155.3889 H   0  0  0  0  0  0  0  0  0  0  0  0
  149.4541  133.5736  152.6915 H   0  0  0  0  0  0  0  0  0  0  0  0
  149.1457  132.1483  153.6386 H   0  0  0  0  0  0  0  0  0  0  0  0
  147.8088  133.9132  151.0401 H   0  0  0  0  0  0  0  0  0  0  0  0
  145.4097  133.9411  150.3469 H   0  0  0  0  0  0  0  0  0  0  0  0
  143.6397  133.2264  152.0531 H   0  0  0  0  0  0  0  0  0  0  0  0
  146.5020  132.4864  154.9418 H   0  0  0  0  0  0  0  0  0  0  0  0
  144.3258  132.5727  154.1654 H   0  0  0  0  0  0  0  0  0  0  0  0
  1  2  1  0  0  0  0
  1 26  1  0  0  0  0
  1 27  1  0  0  0  0
  1 28  1  0  0  0  0
  2  7  1  0  0  0  0
  2  3  1  0  0  0  0
  2 29  1  0  0  0  0
  3  4  1  0  0  0  0
  3 30  1  0  0  0  0
  3 31  1  0  0  0  0
  4  5  1  0  0  0  0
  4 32  1  0  0  0  0
  4 33  1  0  0  0  0
  5  6  1  0  0  0  0
  5 34  1  0  0  0  0
  5 35  1  0  0  0  0
  6  7  1  0  0  0  0
  6 36  1  0  0  0  0
  6 37  1  0  0  0  0
  7 24  1  0  0  0  0
  7  8  1  0  0  0  0
  8  9  1  0  0  0  0
  9 10  2  0  0  0  0
  9 11  1  0  0  0  0
 11 12  1  0  0  0  0
 11 24  1  0  0  0  0
 12 13  1  0  0  0  0
 12 38  1  0  0  0  0
 12 39  1  0  0  0  0
 13 14  2  0  0  0  0
 13 15  1  0  0  0  0
 15 16  1  0  0  0  0
 15 40  1  0  0  0  0
 16 17  1  0  0  0  0
 16 41  1  0  0  0  0
 16 42  1  0  0  0  0
 17 18  1  0  0  0  0
 17 43  1  0  0  0  0
 17 44  1  0  0  0  0
 18 23  1  0  0  0  0
 18 19  2  0  0  0  0
 19 20  1  0  0  0  0
 19 45  1  0  0  0  0
 20 21  2  0  0  0  0
 20 46  1  0  0  0  0
 21 22  1  0  0  0  0
 21 47  1  0  0  0  0
 22 23  2  0  0  0  0
 22 49  1  0  0  0  0
 23 48  1  0  0  0  0
 24 25  2  0  0  0  0
M  CHG  1   8  -1
M  CHG  1  22   1
M  END
> <s_m_source_file>
AV-unprocessed.smi

> <i_m_source_file_index>
837

> <i_lp_mmshare_version>
43012

> <i_f3d_flags>
0

> <s_epik_input>
W0NIMl0xW0NIMl1bQ0gyXVtDSDJdW0NAQEhdKFtDSDNdKVtDQEBdMTJbTkhdQyg9TylOKEMyPU8pW0NIMl1DKD1PKVtOSF1bQ0gyXVtDSDJdYzNbY0hdW2NIXVtjSF1uW2NIXTM=

> <s_epik_cmdline>
J2VwaWtfcHl0aG9uJywgJy1waCcsICc3LjAnLCAnLXRuJywgJzgnLCAnLW1hJywgJzIwMCcsICctbWV0YWxfYmluZGluZycsICctaW1hZScsICc8aW5maWxlLm1hZT4nLCAnLW9tYWUnLCAnPG91dGZpbGUubWFlPic=

> <r_lp_tautomer_probability>
1

> <r_epik_Ionization_Penalty>
8.27169

> <r_epik_Ionization_Penalty_Charging>
8.27169

> <r_epik_Ionization_Penalty_Neutral>
1.56557e-07

> <r_epik_State_Penalty>
8.42098

> <r_epik_Charging_Adjusted_Penalty>
16.6927

> <i_epik_Tot_Q>
0

> <i_epik_Tot_abs_Q>
2

> <r_epik_Metal_State_Penalty>
4.38565

> <b_epik_Metal_Only>
1

> <s_lp_Force_Field>
OPLS_2005

> <r_lp_Energy>
17.1627

> <b_lp_Chiralities_Consistent>
1

> <s_lp_Variant>
AV-unprocessed.smi:837-16

> <Gold.Version>
5.8.1

> <Gold.Id.Protein>
6NUR|6NUR_protein|mol2

> <Gold.PLP.Fitness>
54.5775

> <Gold.PLP.PLP>
-40.4725

> <Gold.PLP.part.hbond>
-5.0000

> <Gold.PLP.part.metal>
0.0000

> <Gold.PLP.part.buried>
-2.9114

> <Gold.PLP.part.nonpolar>
-32.0049

> <Gold.PLP.part.repulsive>
0.1022

> <Gold.PLP.ligand.clash>
0.0000

> <Gold.PLP.ligand.torsion>
0.4859

> <Gold.PLP.Chemscore.Hbond>
5.0172

> <Gold.PLP.Chemscore.CHOScore>
0.0000

> <Gold.PLP.Chemscore.Metal>
0.0000

> <Gold.Chemscore.Hbonds>
donor molecule, donor type, donor heavy atom, donor atom, acceptor molecule, acceptor atom, score
      L1  H    15    40       P1  7948  0.74
      L1  H    22    49       P1 10957  2.00
      P1  H  7989  7998       L1    25  0.14
      P1  H  7997  8008       L1    25  1.00
      P1  H 10752 10764       L1    14  0.98

> <Gold.PLP.Chemscore.Internal.Correction>
0.0252

> <Gold.Rescore>
     Score         DG    S(hbond)    S(metal)    S(lipo)     H(rot)  DE(clash)    DE(int)     intcor
     20.43     -22.21       3.28        0.00      91.46       1.92       0.04       1.74       ----

> <Gold.Chemscore.Fitness>
20.4322

> <Gold.Chemscore.DG>
-22.2127

> <Gold.Chemscore.ZeroCoef>
-5.4800

> <Gold.Chemscore.Hbond>
3.2756

> <Gold.Chemscore.Metal>
0.0000

> <Gold.Chemscore.Lipo>
91.4601

> <Gold.Chemscore.Internal_Hbond>
0.0000

> <Gold.Chemscore.DEClash>
0.0432

> <Gold.Chemscore.DEInternal>
1.7374

> <Gold.Chemscore.Rot>
1.9175

> <Gold.Chemscore.Internal.Correction>
   9.000000E+99

> <Gold.Chemscore.Hbonds>
donor molecule, donor type, donor heavy atom, donor atom, acceptor molecule, acceptor atom, score
      L1  H    15    40       P1  7948  0.67
      L1  H    22    49       P1 10957  0.73
      P1  H  7989  7998       L1    25  0.05
      P1  H  7997  8008       L1    25  0.95
      P1  H 10752 10764       L1    14  0.24

> <Gold.Chemscore.Hbond.Weighted>
-10.9407

> <Gold.Chemscore.Metal.Weighted>
-0.0000

> <Gold.Chemscore.Lipo.Weighted>
-10.7008

> <Gold.Chemscore.Internal_Hbond.Weighted>
0.0000

> <Gold.Chemscore.DEClash.Weighted>
0.0432

> <Gold.Chemscore.DEInternal.Weighted>
1.7374

> <Gold.Chemscore.Rot.Weighted>
4.9087

> <Gold.Chemscore.Internal.Correction.Weighted>
   9.000000E+99

> <Gold.Protein.RotatedTorsions>
[ 6907 6896 6895 6894 ] final    2.09 input  -60.11 | X-H torsion
[ 7974 7965 7964 7962 ] final -135.86 input  175.53 | X-H torsion
[ 8008 7997 7996 7995 ] final   -9.95 input   59.86 | X-H torsion
[ 10167 10162 10161 10158 ] final  -70.87 input  -65.29 | X-H torsion
[ 10718 10713 10712 10709 ] final  115.19 input   66.30 | X-H torsion
[ 10763 10752 10751 10750 ] final  -40.64 input  -60.55 | X-H torsion
[ 11005 11000 10999 10996 ] final   44.11 input  -57.11 | X-H torsion

> <Gold.Protein.ActiveResidues>
 VAL166  LYS551  ARG553  GLY616  TRP617  ASP618  TYR619  PRO620  LYS621  CYS622 
 ASP623  PHE694  ASN695  SER759  ASP760  ASP761  ALA762  ILE779  LEU786  VAL792 
 PHE793  MET794  SER795  GLU796  ALA797  LYS798  CYS799  TRP800  GLU811  SER814 

> <Gold.Protein.RotatedAtoms>
  151.6032  135.1046  160.0064 H   0  0  0  0  0  0  0  0  0  0  0  0  # atno 6907 bound_to 6896
  152.4247  133.7171  159.6522 H   0  0  0  0  0  0  0  0  0  0  0  0  # atno 6908 bound_to 6896
  150.8135  133.8306  159.3193 H   0  0  0  0  0  0  0  0  0  0  0  0  # atno 6909 bound_to 6896
  144.8977  140.6729  143.5105 H   0  0  0  0  0  0  0  0  0  0  0  0  # atno 7974 bound_to 7965
  154.5599  140.2341  155.8351 H   0  0  0  0  0  0  0  0  0  0  0  0  # atno 8008 bound_to 7997
  156.2021  140.3050  155.9507 H   0  0  0  0  0  0  0  0  0  0  0  0  # atno 8009 bound_to 7997
  155.2908  140.0426  157.3013 H   0  0  0  0  0  0  0  0  0  0  0  0  # atno 8010 bound_to 7997
  140.5318  143.2321  151.7248 H   0  0  0  0  0  0  0  0  0  0  0  0  # atno 10167 bound_to 10162
  157.6237  131.1009  150.7294 H   0  0  0  0  0  0  0  0  0  0  0  0  # atno 10718 bound_to 10713
  153.9493  135.6752  153.4744 H   0  0  0  0  0  0  0  0  0  0  0  0  # atno 10763 bound_to 10752
  153.0892  135.4883  154.8654 H   0  0  0  0  0  0  0  0  0  0  0  0  # atno 10764 bound_to 10752
  154.7334  135.3143  154.8811 H   0  0  0  0  0  0  0  0  0  0  0  0  # atno 10765 bound_to 10752
  140.1582  134.4375  155.8335 H   0  0  0  0  0  0  0  0  0  0  0  0  # atno 11005 bound_to 11000
  145.3671  139.1667  143.4352 LP  0  0  0  0  0  0  0  0  0  0  0  0  # atno 17320 bound_to 7965
  146.3091  140.3739  142.8677 LP  0  0  0  0  0  0  0  0  0  0  0  0  # atno 17321 bound_to 7965
  139.4957  144.4102  152.0088 LP  0  0  0  0  0  0  0  0  0  0  0  0  # atno 17342 bound_to 10162
  140.3205  144.3433  150.6011 LP  0  0  0  0  0  0  0  0  0  0  0  0  # atno 17343 bound_to 10162
  156.7647  130.4809  149.5430 LP  0  0  0  0  0  0  0  0  0  0  0  0  # atno 17370 bound_to 10713
  156.1396  130.6235  151.0449 LP  0  0  0  0  0  0  0  0  0  0  0  0  # atno 17371 bound_to 10713
  141.2206  133.6901  156.7545 LP  0  0  0  0  0  0  0  0  0  0  0  0  # atno 17394 bound_to 11000
  140.2522  134.8532  157.3678 LP  0  0  0  0  0  0  0  0  0  0  0  0  # atno 17395 bound_to 11000

$$$$
