AV-unprocessed.smi:276|AV-procd|sdf|2072|dock10
  -GOLD-   2262021333D 1   1.00000     0.00000
 Structure written by MMmdl.
 57 61  0  0  0  0  0  0  0  0  1 V2000
  150.1364  130.6258  155.5222 C   0  0  0  0  0  0  0  0  0  0  0  0
  150.5390  131.7002  156.3536 O   0  0  0  0  0  0  0  0  0  0  0  0
  150.8918  132.8587  155.6150 C   0  0  2  0  0  0  0  0  0  0  0  0
  151.0733  134.1191  156.4681 C   0  0  0  0  0  0  0  0  0  0  0  0
  150.4048  134.8934  155.3246 C   0  0  2  0  0  0  0  0  0  0  0  0
  149.5507  135.9858  155.7970 N   0  0  0  0  0  0  0  0  0  0  0  0
  148.9921  135.8294  157.1343 C   0  0  0  0  0  0  0  0  0  0  0  0
  150.0325  137.2391  155.6344 C   0  0  0  0  0  0  0  0  0  0  0  0
  150.1231  137.7001  154.3618 N   0  0  0  0  0  0  0  0  0  0  0  0
  150.5984  138.9260  154.1246 C   0  0  0  0  0  0  0  0  0  0  0  0
  151.0238  139.8397  154.9992 N   0  0  0  0  0  0  0  0  0  0  0  0
  150.9138  139.3879  156.2811 C   0  0  0  0  0  0  0  0  0  0  0  0
  150.4250  138.1142  156.6884 C   0  0  0  0  0  0  0  0  0  0  0  0
  150.4421  138.0260  158.0759 N   0  0  0  0  0  0  0  0  0  0  0  0
  150.9299  139.1720  158.4647 C   0  0  0  0  0  0  0  0  0  0  0  0
  151.2400  140.0495  157.4514 N   0  0  0  0  0  0  0  0  0  0  0  0
  151.7889  141.3856  157.6005 C   0  0  0  0  0  0  0  0  0  0  0  0
  150.7041  142.4764  157.5194 C   0  0  2  0  0  0  0  0  0  0  0  0
  150.7142  143.0965  156.2474 O   0  0  0  0  0  0  0  0  0  0  0  0
  150.8291  143.5276  158.6410 C   0  0  2  0  0  0  0  0  0  0  0  0
  151.9871  144.5220  158.5209 C   0  0  0  0  0  0  0  0  0  0  0  0
  152.1445  144.9625  159.9588 C   0  0  0  0  0  0  0  0  0  0  0  0
  151.8912  143.6592  160.7133 C   0  0  0  0  0  0  0  0  0  0  0  0
  150.9522  142.9283  159.9286 O   0  0  0  0  0  0  0  0  0  0  0  0
  149.6953  133.5646  154.9474 C   0  0  0  0  0  0  0  0  0  0  0  0
  149.3101  133.2352  153.4990 C   0  0  0  0  0  0  0  0  0  0  0  0
  147.8327  133.3331  153.8932 C   0  0  0  0  0  0  0  0  0  0  0  0
  148.2480  133.2316  155.3649 C   0  0  0  0  0  0  0  0  0  0  0  0
  149.8735  129.7654  156.1374 H   0  0  0  0  0  0  0  0  0  0  0  0
  150.9377  130.3229  154.8472 H   0  0  0  0  0  0  0  0  0  0  0  0
  149.2621  130.8951  154.9282 H   0  0  0  0  0  0  0  0  0  0  0  0
  151.7133  132.6968  154.9134 H   0  0  0  0  0  0  0  0  0  0  0  0
  150.4815  134.0976  157.3855 H   0  0  0  0  0  0  0  0  0  0  0  0
  152.1104  134.3939  156.6610 H   0  0  0  0  0  0  0  0  0  0  0  0
  151.1449  135.1915  154.5809 H   0  0  0  0  0  0  0  0  0  0  0  0
  149.7862  135.7770  157.8799 H   0  0  0  0  0  0  0  0  0  0  0  0
  148.4028  134.9151  157.2001 H   0  0  0  0  0  0  0  0  0  0  0  0
  148.3347  136.6614  157.3908 H   0  0  0  0  0  0  0  0  0  0  0  0
  150.6465  139.2155  153.0851 H   0  0  0  0  0  0  0  0  0  0  0  0
  151.0737  139.4125  159.5082 H   0  0  0  0  0  0  0  0  0  0  0  0
  152.3023  141.4358  158.5614 H   0  0  0  0  0  0  0  0  0  0  0  0
  152.5494  141.5400  156.8340 H   0  0  0  0  0  0  0  0  0  0  0  0
  149.7284  141.9993  157.6212 H   0  0  0  0  0  0  0  0  0  0  0  0
  149.8421  143.4073  156.0581 H   0  0  0  0  0  0  0  0  0  0  0  0
  149.9020  144.1026  158.6715 H   0  0  0  0  0  0  0  0  0  0  0  0
  152.9044  144.0358  158.1874 H   0  0  0  0  0  0  0  0  0  0  0  0
  151.7715  145.3465  157.8408 H   0  0  0  0  0  0  0  0  0  0  0  0
  153.1221  145.3960  160.1715 H   0  0  0  0  0  0  0  0  0  0  0  0
  151.3804  145.6989  160.2112 H   0  0  0  0  0  0  0  0  0  0  0  0
  152.8105  143.0762  160.7819 H   0  0  0  0  0  0  0  0  0  0  0  0
  151.5206  143.8270  161.7248 H   0  0  0  0  0  0  0  0  0  0  0  0
  149.6296  133.9703  152.7609 H   0  0  0  0  0  0  0  0  0  0  0  0
  149.5987  132.2242  153.2083 H   0  0  0  0  0  0  0  0  0  0  0  0
  147.3878  134.2949  153.6385 H   0  0  0  0  0  0  0  0  0  0  0  0
  147.2179  132.5045  153.5409 H   0  0  0  0  0  0  0  0  0  0  0  0
  148.1312  132.2178  155.7486 H   0  0  0  0  0  0  0  0  0  0  0  0
  147.7669  133.9546  156.0229 H   0  0  0  0  0  0  0  0  0  0  0  0
  1  2  1  0  0  0  0
  1 29  1  0  0  0  0
  1 30  1  0  0  0  0
  1 31  1  0  0  0  0
  2  3  1  0  0  0  0
  3 25  1  0  0  0  0
  3  4  1  0  0  0  0
  3 32  1  0  0  0  0
  4  5  1  0  0  0  0
  4 33  1  0  0  0  0
  4 34  1  0  0  0  0
  5  6  1  0  0  0  0
  5 25  1  0  0  0  0
  5 35  1  0  0  0  0
  6  7  1  0  0  0  0
  6  8  1  0  0  0  0
  7 36  1  0  0  0  0
  7 37  1  0  0  0  0
  7 38  1  0  0  0  0
  8 13  1  0  0  0  0
  8  9  2  0  0  0  0
  9 10  1  0  0  0  0
 10 11  2  0  0  0  0
 10 39  1  0  0  0  0
 11 12  1  0  0  0  0
 12 16  1  0  0  0  0
 12 13  2  0  0  0  0
 13 14  1  0  0  0  0
 14 15  2  0  0  0  0
 15 16  1  0  0  0  0
 15 40  1  0  0  0  0
 16 17  1  0  0  0  0
 17 18  1  0  0  0  0
 17 41  1  0  0  0  0
 17 42  1  0  0  0  0
 18 19  1  0  0  0  0
 18 20  1  0  0  0  0
 18 43  1  0  0  0  0
 19 44  1  0  0  0  0
 20 24  1  0  0  0  0
 20 21  1  0  0  0  0
 20 45  1  0  0  0  0
 21 22  1  0  0  0  0
 21 46  1  0  0  0  0
 21 47  1  0  0  0  0
 22 23  1  0  0  0  0
 22 48  1  0  0  0  0
 22 49  1  0  0  0  0
 23 24  1  0  0  0  0
 23 50  1  0  0  0  0
 23 51  1  0  0  0  0
 25 28  1  0  0  0  0
 25 26  1  0  0  0  0
 26 27  1  0  0  0  0
 26 52  1  0  0  0  0
 26 53  1  0  0  0  0
 27 28  1  0  0  0  0
 27 54  1  0  0  0  0
 27 55  1  0  0  0  0
 28 56  1  0  0  0  0
 28 57  1  0  0  0  0
M  END
> <s_m_source_file>
AV-unprocessed.smi

> <i_m_source_file_index>
276

> <i_lp_mmshare_version>
43012

> <i_f3d_flags>
0

> <s_epik_input>
W0NIMl0xW0NIMl1bQ0gyXUMxMltDQEhdKE9bQ0gzXSlbQ0gyXVtDQEhdMk4oW0NIM10pYyhuW2NIXW4zKWMoYzM0KW5bY0hdbjRbQ0gyXVtDQEhdKFtPSF0pW0NAQEhdNVtDSDJdW0NIMl1bQ0gyXU81

> <s_epik_cmdline>
J2VwaWtfcHl0aG9uJywgJy1waCcsICc3LjAnLCAnLXRuJywgJzgnLCAnLW1hJywgJzIwMCcsICctbWV0YWxfYmluZGluZycsICctaW1hZScsICc8aW5maWxlLm1hZT4nLCAnLW9tYWUnLCAnPG91dGZpbGUubWFlPic=

> <r_lp_tautomer_probability>
1

> <r_epik_Ionization_Penalty>
0.00204117

> <r_epik_Ionization_Penalty_Charging>
0

> <r_epik_Ionization_Penalty_Neutral>
0.00204117

> <r_epik_State_Penalty>
0.00127401

> <r_epik_Charging_Adjusted_Penalty>
0.00127401

> <i_epik_Tot_Q>
0

> <i_epik_Tot_abs_Q>
0

> <r_epik_Metal_State_Penalty>
-0

> <b_epik_Metal_Only>
0

> <s_lp_Force_Field>
OPLS_2005

> <r_lp_Energy>
58.4332

> <b_lp_Chiralities_Consistent>
1

> <s_lp_Variant>
AV-unprocessed.smi:276-3

> <Gold.Version>
5.8.1

> <Gold.Id.Protein>
6NUR|6NUR_protein|mol2

> <Gold.PLP.Fitness>
47.0583

> <Gold.PLP.PLP>
-44.3458

> <Gold.PLP.part.hbond>
-2.8326

> <Gold.PLP.part.metal>
0.0000

> <Gold.PLP.part.buried>
-7.2478

> <Gold.PLP.part.nonpolar>
-33.8632

> <Gold.PLP.part.repulsive>
0.6194

> <Gold.PLP.ligand.clash>
0.5947

> <Gold.PLP.ligand.torsion>
2.2102

> <Gold.PLP.Chemscore.Hbond>
1.3440

> <Gold.PLP.Chemscore.CHOScore>
1.0000

> <Gold.PLP.Chemscore.Metal>
0.0000

> <Gold.Chemscore.Hbonds>
donor molecule, donor type, donor heavy atom, donor atom, acceptor molecule, acceptor atom, score
      L1  H    19    44       P1  8028  0.91
      P1  H  7989  7998       L1    11  0.40
      L1  C    10    39       P1  7957  1.00

> <Gold.PLP.Chemscore.Internal.Correction>
0.6957

> <Gold.Rescore>
     Score         DG    S(hbond)    S(metal)    S(lipo)     H(rot)  DE(clash)    DE(int)     intcor
     11.13     -14.61       0.99        0.00     109.16       2.72       0.24       3.25       ----

> <Gold.Chemscore.Fitness>
11.1260

> <Gold.Chemscore.DG>
-14.6092

> <Gold.Chemscore.ZeroCoef>
-5.4800

> <Gold.Chemscore.Hbond>
0.9920

> <Gold.Chemscore.Metal>
0.0000

> <Gold.Chemscore.Lipo>
109.1620

> <Gold.Chemscore.Internal_Hbond>
0.0000

> <Gold.Chemscore.DEClash>
0.2373

> <Gold.Chemscore.DEInternal>
3.2459

> <Gold.Chemscore.Rot>
2.7172

> <Gold.Chemscore.Internal.Correction>
   9.000000E+99

> <Gold.Chemscore.Hbonds>
donor molecule, donor type, donor heavy atom, donor atom, acceptor molecule, acceptor atom, score
      L1  H    19    44       P1  8028  0.89
      P1  H  7989  7998       L1    11  0.01

> <Gold.Chemscore.Hbond.Weighted>
-3.3133

> <Gold.Chemscore.Metal.Weighted>
-0.0000

> <Gold.Chemscore.Lipo.Weighted>
-12.7720

> <Gold.Chemscore.Internal_Hbond.Weighted>
0.0000

> <Gold.Chemscore.DEClash.Weighted>
0.2373

> <Gold.Chemscore.DEInternal.Weighted>
3.2459

> <Gold.Chemscore.Rot.Weighted>
6.9560

> <Gold.Chemscore.Internal.Correction.Weighted>
   9.000000E+99

> <Gold.Protein.RotatedTorsions>
[ 6907 6896 6895 6894 ] final  144.51 input  -60.11 | X-H torsion
[ 7974 7965 7964 7962 ] final -147.85 input  175.53 | X-H torsion
[ 8008 7997 7996 7995 ] final   86.47 input   59.86 | X-H torsion
[ 10167 10162 10161 10158 ] final  -89.36 input  -65.29 | X-H torsion
[ 10718 10713 10712 10709 ] final  105.70 input   66.30 | X-H torsion
[ 10763 10752 10751 10750 ] final  176.86 input  -60.55 | X-H torsion
[ 11005 11000 10999 10996 ] final  169.11 input  -57.11 | X-H torsion

> <Gold.Protein.ActiveResidues>
 VAL166  LYS551  ARG553  GLY616  TRP617  ASP618  TYR619  PRO620  LYS621  CYS622 
 ASP623  PHE694  ASN695  SER759  ASP760  ASP761  ALA762  ILE779  LEU786  VAL792 
 PHE793  MET794  SER795  GLU796  ALA797  LYS798  CYS799  TRP800  GLU811  SER814 

> <Gold.Protein.RotatedAtoms>
  152.1928  133.4785  159.5016 H   0  0  0  0  0  0  0  0  0  0  0  0  # atno 6907 bound_to 6896
  150.6954  134.1691  159.4214 H   0  0  0  0  0  0  0  0  0  0  0  0  # atno 6908 bound_to 6896
  151.9606  135.0125  160.0598 H   0  0  0  0  0  0  0  0  0  0  0  0  # atno 6909 bound_to 6896
  144.8067  140.5273  143.5670 H   0  0  0  0  0  0  0  0  0  0  0  0  # atno 7974 bound_to 7965
  155.9632  140.3391  155.6509 H   0  0  0  0  0  0  0  0  0  0  0  0  # atno 8008 bound_to 7997
  155.6771  140.0733  157.2517 H   0  0  0  0  0  0  0  0  0  0  0  0  # atno 8009 bound_to 7997
  154.4148  140.1681  156.1929 H   0  0  0  0  0  0  0  0  0  0  0  0  # atno 8010 bound_to 7997
  140.3656  143.2820  151.9562 H   0  0  0  0  0  0  0  0  0  0  0  0  # atno 10167 bound_to 10162
  157.6696  131.0834  150.5896 H   0  0  0  0  0  0  0  0  0  0  0  0  # atno 10718 bound_to 10713
  154.4868  135.2777  155.1528 H   0  0  0  0  0  0  0  0  0  0  0  0  # atno 10763 bound_to 10752
  154.3216  135.6208  153.5514 H   0  0  0  0  0  0  0  0  0  0  0  0  # atno 10764 bound_to 10752
  152.9882  135.5744  154.5281 H   0  0  0  0  0  0  0  0  0  0  0  0  # atno 10765 bound_to 10752
  140.2943  134.7647  157.3864 H   0  0  0  0  0  0  0  0  0  0  0  0  # atno 11005 bound_to 11000
  145.5422  139.1475  143.3440 LP  0  0  0  0  0  0  0  0  0  0  0  0  # atno 17320 bound_to 7965
  146.2359  140.5561  142.8955 LP  0  0  0  0  0  0  0  0  0  0  0  0  # atno 17321 bound_to 7965
  139.4809  144.5954  151.7700 LP  0  0  0  0  0  0  0  0  0  0  0  0  # atno 17342 bound_to 10162
  140.5084  144.1062  150.5988 LP  0  0  0  0  0  0  0  0  0  0  0  0  # atno 17343 bound_to 10162
  156.6196  130.4402  149.5827 LP  0  0  0  0  0  0  0  0  0  0  0  0  # atno 17370 bound_to 10713
  156.2366  130.6826  151.1515 LP  0  0  0  0  0  0  0  0  0  0  0  0  # atno 17371 bound_to 10713
  140.1167  134.5274  155.8219 LP  0  0  0  0  0  0  0  0  0  0  0  0  # atno 17394 bound_to 11000
  141.2140  133.6742  156.6790 LP  0  0  0  0  0  0  0  0  0  0  0  0  # atno 17395 bound_to 11000

$$$$
