AV-unprocessed.smi:3271|AV-procd|sdf|12516|dock10
  -GOLD-   2272018423D 1   1.00000     0.00000
 Structure written by MMmdl.
 41 41  0  0  0  0  0  0  0  0  1 V2000
  152.5488  145.3036  157.7814 C   0  0  0  0  0  0  0  0  0  0  0  0
  151.6337  144.1287  157.4014 C   0  0  0  0  0  0  0  0  0  0  0  0
  151.3943  143.1112  158.5401 C   0  0  0  0  0  0  0  0  0  0  0  0
  152.7397  142.5761  159.0820 C   0  0  0  0  0  0  0  0  0  0  0  0
  152.7504  142.2848  160.5907 C   0  0  0  0  0  0  0  0  0  0  0  0
  150.4740  141.9669  158.0813 C   0  0  0  0  0  0  0  0  0  0  0  0
  150.5158  140.8715  158.6414 O   0  0  0  0  0  0  0  0  0  0  0  0
  149.6457  142.2416  157.0629 N   0  0  0  0  0  0  0  0  0  0  0  0
  148.6823  141.3109  156.4794 C   0  0  0  0  0  0  0  0  0  0  0  0
  148.9564  140.9650  154.9904 C   0  0  1  0  0  0  0  0  0  0  0  0
  147.6581  140.5012  154.3077 C   0  0  0  0  0  0  0  0  0  0  0  0
  149.2872  142.1788  154.3434 O   0  0  0  0  0  0  0  0  0  0  0  0
  150.0338  139.9145  154.8066 C   0  0  0  0  0  0  0  0  0  0  0  0
  149.9246  138.6365  154.1832 C   0  0  0  0  0  0  0  0  0  0  0  0
  151.0630  137.9627  154.1773 N   0  0  0  0  0  0  0  0  0  0  0  0
  151.9349  138.7741  154.8078 N   0  0  0  0  0  0  0  0  0  0  0  0
  153.3073  138.3499  154.9826 C   0  0  0  0  0  0  0  0  0  0  0  0
  151.3420  139.9519  155.2055 C   0  0  0  0  0  0  0  0  0  0  0  0
  152.7329  145.9428  156.9176 H   0  0  0  0  0  0  0  0  0  0  0  0
  153.5145  144.9490  158.1424 H   0  0  0  0  0  0  0  0  0  0  0  0
  152.1065  145.9264  158.5592 H   0  0  0  0  0  0  0  0  0  0  0  0
  150.6802  144.5160  157.0393 H   0  0  0  0  0  0  0  0  0  0  0  0
  152.0838  143.6118  156.5530 H   0  0  0  0  0  0  0  0  0  0  0  0
  150.9018  143.6407  159.3579 H   0  0  0  0  0  0  0  0  0  0  0  0
  153.0313  141.6756  158.5397 H   0  0  0  0  0  0  0  0  0  0  0  0
  153.5186  143.3110  158.8757 H   0  0  0  0  0  0  0  0  0  0  0  0
  153.7527  142.0162  160.9247 H   0  0  0  0  0  0  0  0  0  0  0  0
  152.0931  141.4526  160.8400 H   0  0  0  0  0  0  0  0  0  0  0  0
  152.4295  143.1532  161.1665 H   0  0  0  0  0  0  0  0  0  0  0  0
  149.6783  143.1692  156.6659 H   0  0  0  0  0  0  0  0  0  0  0  0
  148.7849  140.4015  157.0724 H   0  0  0  0  0  0  0  0  0  0  0  0
  147.6554  141.6470  156.6367 H   0  0  0  0  0  0  0  0  0  0  0  0
  147.2953  139.5679  154.7399 H   0  0  0  0  0  0  0  0  0  0  0  0
  147.8090  140.3301  153.2409 H   0  0  0  0  0  0  0  0  0  0  0  0
  146.8639  141.2413  154.4142 H   0  0  0  0  0  0  0  0  0  0  0  0
  148.8753  142.8891  154.8125 H   0  0  0  0  0  0  0  0  0  0  0  0
  149.0566  138.1848  153.7261 H   0  0  0  0  0  0  0  0  0  0  0  0
  153.7993  138.9763  155.7272 H   0  0  0  0  0  0  0  0  0  0  0  0
  153.8407  138.4365  154.0357 H   0  0  0  0  0  0  0  0  0  0  0  0
  153.3378  137.3127  155.3184 H   0  0  0  0  0  0  0  0  0  0  0  0
  151.8953  140.7192  155.7265 H   0  0  0  0  0  0  0  0  0  0  0  0
  1  2  1  0  0  0  0
  1 19  1  0  0  0  0
  1 20  1  0  0  0  0
  1 21  1  0  0  0  0
  2  3  1  0  0  0  0
  2 22  1  0  0  0  0
  2 23  1  0  0  0  0
  3  4  1  0  0  0  0
  3  6  1  0  0  0  0
  3 24  1  0  0  0  0
  4  5  1  0  0  0  0
  4 25  1  0  0  0  0
  4 26  1  0  0  0  0
  5 27  1  0  0  0  0
  5 28  1  0  0  0  0
  5 29  1  0  0  0  0
  6  7  2  0  0  0  0
  6  8  1  0  0  0  0
  8  9  1  0  0  0  0
  8 30  1  0  0  0  0
  9 10  1  0  0  0  0
  9 31  1  0  0  0  0
  9 32  1  0  0  0  0
 10 11  1  0  0  0  0
 10 12  1  0  0  0  0
 10 13  1  0  0  0  0
 11 33  1  0  0  0  0
 11 34  1  0  0  0  0
 11 35  1  0  0  0  0
 12 36  1  0  0  0  0
 13 18  2  0  0  0  0
 13 14  1  0  0  0  0
 14 15  2  0  0  0  0
 14 37  1  0  0  0  0
 15 16  1  0  0  0  0
 16 17  1  0  0  0  0
 16 18  1  0  0  0  0
 17 38  1  0  0  0  0
 17 39  1  0  0  0  0
 17 40  1  0  0  0  0
 18 41  1  0  0  0  0
M  END
> <s_m_source_file>
AV-unprocessed.smi

> <i_m_source_file_index>
3271

> <i_lp_mmshare_version>
43012

> <i_f3d_flags>
0

> <s_epik_input>
W0NIM11bQ0gyXVtDSF0oW0NIMl1bQ0gzXSlDKD1PKVtOSF1bQ0gyXVtDQEBdKFtDSDNdKShbT0hdKWMxW2NIXW5uKFtDSDNdKVtjSF0x

> <s_epik_cmdline>
J2VwaWtfcHl0aG9uJywgJy1waCcsICc3LjAnLCAnLXRuJywgJzgnLCAnLW1hJywgJzIwMCcsICctbWV0YWxfYmluZGluZycsICctaW1hZScsICc8aW5maWxlLm1hZT4nLCAnLW9tYWUnLCAnPG91dGZpbGUubWFlPic=

> <r_lp_tautomer_probability>
1

> <r_epik_Ionization_Penalty>
6.03488e-05

> <r_epik_Ionization_Penalty_Charging>
0

> <r_epik_Ionization_Penalty_Neutral>
6.03488e-05

> <r_epik_State_Penalty>
-0

> <r_epik_Charging_Adjusted_Penalty>
0

> <i_epik_Tot_Q>
0

> <i_epik_Tot_abs_Q>
0

> <r_epik_Metal_State_Penalty>
-0

> <b_epik_Metal_Only>
0

> <s_lp_Force_Field>
OPLS_2005

> <r_lp_Energy>
0.472609

> <b_lp_Chiralities_Consistent>
1

> <s_lp_Variant>
AV-unprocessed.smi:3271-1

> <Gold.Version>
5.8.1

> <Gold.Id.Protein>
6NUR|6NUR_protein|mol2

> <Gold.PLP.Fitness>
44.3161

> <Gold.PLP.PLP>
-38.4074

> <Gold.PLP.part.hbond>
-3.3920

> <Gold.PLP.part.metal>
0.0000

> <Gold.PLP.part.buried>
1.0579

> <Gold.PLP.part.nonpolar>
-35.0791

> <Gold.PLP.part.repulsive>
0.2477

> <Gold.PLP.ligand.clash>
0.0000

> <Gold.PLP.ligand.torsion>
1.4504

> <Gold.PLP.Chemscore.Hbond>
2.2117

> <Gold.PLP.Chemscore.CHOScore>
0.6701

> <Gold.PLP.Chemscore.Metal>
0.0000

> <Gold.Chemscore.Hbonds>
donor molecule, donor type, donor heavy atom, donor atom, acceptor molecule, acceptor atom, score
      L1  H     8    30       P1  8028  1.00
      L1  H    12    36       P1  8028  1.00
      P1  H  8011  8017       L1    12  0.24
      L1  C    14    37       P1  7948  0.60

> <Gold.PLP.Chemscore.Internal.Correction>
0.1639

> <Gold.Rescore>
     Score         DG    S(hbond)    S(metal)    S(lipo)     H(rot)  DE(clash)    DE(int)     intcor
     15.58     -19.18       2.13        0.00     107.35       2.33       2.12       1.48       ----

> <Gold.Chemscore.Fitness>
15.5811

> <Gold.Chemscore.DG>
-19.1848

> <Gold.Chemscore.ZeroCoef>
-5.4800

> <Gold.Chemscore.Hbond>
2.1316

> <Gold.Chemscore.Metal>
0.0000

> <Gold.Chemscore.Lipo>
107.3539

> <Gold.Chemscore.Internal_Hbond>
0.0000

> <Gold.Chemscore.DEClash>
2.1242

> <Gold.Chemscore.DEInternal>
1.4795

> <Gold.Chemscore.Rot>
2.3341

> <Gold.Chemscore.Internal.Correction>
   9.000000E+99

> <Gold.Chemscore.Hbonds>
donor molecule, donor type, donor heavy atom, donor atom, acceptor molecule, acceptor atom, score
      L1  H     8    30       P1  8028  0.92
      L1  H    12    36       P1  8028  0.93
      P1  H  8011  8017       L1    12  0.23

> <Gold.Chemscore.Hbond.Weighted>
-7.1196

> <Gold.Chemscore.Metal.Weighted>
-0.0000

> <Gold.Chemscore.Lipo.Weighted>
-12.5604

> <Gold.Chemscore.Internal_Hbond.Weighted>
0.0000

> <Gold.Chemscore.DEClash.Weighted>
2.1242

> <Gold.Chemscore.DEInternal.Weighted>
1.4795

> <Gold.Chemscore.Rot.Weighted>
5.9753

> <Gold.Chemscore.Internal.Correction.Weighted>
   9.000000E+99

> <Gold.Protein.RotatedTorsions>
[ 6907 6896 6895 6894 ] final  -75.98 input  -60.11 | X-H torsion
[ 7974 7965 7964 7962 ] final  104.05 input  175.53 | X-H torsion
[ 8008 7997 7996 7995 ] final  -22.23 input   59.86 | X-H torsion
[ 10167 10162 10161 10158 ] final   97.16 input  -65.29 | X-H torsion
[ 10718 10713 10712 10709 ] final  119.42 input   66.30 | X-H torsion
[ 10763 10752 10751 10750 ] final  151.36 input  -60.55 | X-H torsion
[ 11005 11000 10999 10996 ] final -100.79 input  -57.11 | X-H torsion

> <Gold.Protein.ActiveResidues>
 VAL166  LYS551  ARG553  GLY616  TRP617  ASP618  TYR619  PRO620  LYS621  CYS622 
 ASP623  PHE694  ASN695  SER759  ASP760  ASP761  ALA762  ILE779  LEU786  VAL792 
 PHE793  MET794  SER795  GLU796  ALA797  LYS798  CYS799  TRP800  GLU811  SER814 

> <Gold.Protein.RotatedAtoms>
  150.7041  134.4640  159.5393 H   0  0  0  0  0  0  0  0  0  0  0  0  # atno 6907 bound_to 6896
  152.2309  134.8320  160.0483 H   0  0  0  0  0  0  0  0  0  0  0  0  # atno 6908 bound_to 6896
  151.9136  133.3532  159.3909 H   0  0  0  0  0  0  0  0  0  0  0  0  # atno 6909 bound_to 6896
  145.3378  139.2470  143.3626 H   0  0  0  0  0  0  0  0  0  0  0  0  # atno 7974 bound_to 7965
  154.4657  140.2013  156.0125 H   0  0  0  0  0  0  0  0  0  0  0  0  # atno 8008 bound_to 7997
  156.0922  140.3256  155.7801 H   0  0  0  0  0  0  0  0  0  0  0  0  # atno 8009 bound_to 7997
  155.4938  140.0548  157.2940 H   0  0  0  0  0  0  0  0  0  0  0  0  # atno 8010 bound_to 7997
  139.7827  144.6882  151.0000 H   0  0  0  0  0  0  0  0  0  0  0  0  # atno 10167 bound_to 10162
  157.5963  131.1057  150.7893 H   0  0  0  0  0  0  0  0  0  0  0  0  # atno 10718 bound_to 10713
  154.1025  135.2844  155.3248 H   0  0  0  0  0  0  0  0  0  0  0  0  # atno 10763 bound_to 10752
  154.6545  135.5357  153.7946 H   0  0  0  0  0  0  0  0  0  0  0  0  # atno 10764 bound_to 10752
  153.0374  135.6518  154.1188 H   0  0  0  0  0  0  0  0  0  0  0  0  # atno 10765 bound_to 10752
  141.1257  133.8426  157.1148 H   0  0  0  0  0  0  0  0  0  0  0  0  # atno 11005 bound_to 11000
  146.3019  140.3969  142.8701 LP  0  0  0  0  0  0  0  0  0  0  0  0  # atno 17320 bound_to 7965
  144.8814  140.7405  143.5984 LP  0  0  0  0  0  0  0  0  0  0  0  0  # atno 17321 bound_to 7965
  140.7819  143.4465  151.0474 LP  0  0  0  0  0  0  0  0  0  0  0  0  # atno 17342 bound_to 10162
  139.8145  143.7904  152.3173 LP  0  0  0  0  0  0  0  0  0  0  0  0  # atno 17343 bound_to 10162
  156.8303  130.5013  149.5332 LP  0  0  0  0  0  0  0  0  0  0  0  0  # atno 17370 bound_to 10713
  156.1026  130.5980  150.9919 LP  0  0  0  0  0  0  0  0  0  0  0  0  # atno 17371 bound_to 10713
  140.0253  134.9927  157.0674 LP  0  0  0  0  0  0  0  0  0  0  0  0  # atno 17394 bound_to 11000
  140.4373  134.1718  155.7171 LP  0  0  0  0  0  0  0  0  0  0  0  0  # atno 17395 bound_to 11000

$$$$
