AV-unprocessed.smi:3346|AV-procd|sdf|12910|dock3
  -GOLD-   2272019323D 1   1.00000     0.00000
 Structure written by MMmdl.
 47 48  0  0  0  0  0  0  0  0  1 V2000
  154.6140  135.8694  161.7423 C   0  0  0  0  0  0  0  0  0  0  0  0
  154.6932  137.1434  162.6008 C   0  0  0  0  0  0  0  0  0  0  0  0
  154.0352  136.9052  163.9684 C   0  0  0  0  0  0  0  0  0  0  0  0
  154.0624  138.3690  161.9025 C   0  0  0  0  0  0  0  0  0  0  0  0
  154.8588  139.6860  162.0263 C   0  0  1  0  0  0  0  0  0  0  0  0
  156.0908  139.6865  161.1102 C   0  0  0  0  0  0  0  0  0  0  0  0
  154.0204  140.8083  161.6239 N   0  0  0  0  0  0  0  0  0  0  0  0
  153.4371  140.5820  160.3114 C   0  0  0  0  0  0  0  0  0  0  0  0
  152.8064  141.8400  159.7400 C   0  0  0  0  0  0  0  0  0  0  0  0
  152.8781  143.0453  160.4689 C   0  0  0  0  0  0  0  0  0  0  0  0
  152.2984  144.2078  159.9285 C   0  0  0  0  0  0  0  0  0  0  0  0
  151.6665  144.1169  158.6744 C   0  0  0  0  0  0  0  0  0  0  0  0
  151.5864  142.9702  157.9677 N   0  0  0  0  0  0  0  0  0  0  0  0
  152.1436  141.8484  158.4857 C   0  0  0  0  0  0  0  0  0  0  0  0
  152.0250  140.6622  157.7426 N   0  0  0  0  0  0  0  0  0  0  0  0
  151.2786  139.6237  158.4409 C   0  0  0  0  0  0  0  0  0  0  0  0
  151.3489  138.3053  157.6512 C   0  0  0  0  0  0  0  0  0  0  0  0
  150.8841  138.5162  156.3205 O   0  0  0  0  0  0  0  0  0  0  0  0
  151.6684  139.4821  155.6254 C   0  0  0  0  0  0  0  0  0  0  0  0
  151.5909  140.8305  156.3610 C   0  0  0  0  0  0  0  0  0  0  0  0
  153.5809  135.6198  161.4986 H   0  0  0  0  0  0  0  0  0  0  0  0
  155.0449  135.0170  162.2684 H   0  0  0  0  0  0  0  0  0  0  0  0
  155.1617  135.9761  160.8065 H   0  0  0  0  0  0  0  0  0  0  0  0
  155.7456  137.3561  162.7905 H   0  0  0  0  0  0  0  0  0  0  0  0
  152.9724  136.6843  163.8635 H   0  0  0  0  0  0  0  0  0  0  0  0
  154.1314  137.7817  164.6097 H   0  0  0  0  0  0  0  0  0  0  0  0
  154.5001  136.0672  164.4886 H   0  0  0  0  0  0  0  0  0  0  0  0
  153.9314  138.1316  160.8458 H   0  0  0  0  0  0  0  0  0  0  0  0
  153.0556  138.5294  162.2919 H   0  0  0  0  0  0  0  0  0  0  0  0
  155.2151  139.8106  163.0492 H   0  0  0  0  0  0  0  0  0  0  0  0
  156.7684  138.8718  161.3668 H   0  0  0  0  0  0  0  0  0  0  0  0
  156.6510  140.6174  161.2047 H   0  0  0  0  0  0  0  0  0  0  0  0
  155.8128  139.5689  160.0620 H   0  0  0  0  0  0  0  0  0  0  0  0
  153.2717  140.9066  162.2942 H   0  0  0  0  0  0  0  0  0  0  0  0
  154.2075  140.2306  159.6243 H   0  0  0  0  0  0  0  0  0  0  0  0
  152.6870  139.7924  160.3712 H   0  0  0  0  0  0  0  0  0  0  0  0
  153.3716  143.0799  161.4292 H   0  0  0  0  0  0  0  0  0  0  0  0
  152.3371  145.1457  160.4621 H   0  0  0  0  0  0  0  0  0  0  0  0
  151.2107  144.9879  158.2273 H   0  0  0  0  0  0  0  0  0  0  0  0
  151.6800  139.4806  159.4447 H   0  0  0  0  0  0  0  0  0  0  0  0
  150.2394  139.9362  158.5525 H   0  0  0  0  0  0  0  0  0  0  0  0
  152.3683  137.9176  157.6319 H   0  0  0  0  0  0  0  0  0  0  0  0
  150.7286  137.5475  158.1296 H   0  0  0  0  0  0  0  0  0  0  0  0
  152.7017  139.1396  155.5480 H   0  0  0  0  0  0  0  0  0  0  0  0
  151.2895  139.5856  154.6085 H   0  0  0  0  0  0  0  0  0  0  0  0
  150.5668  141.2053  156.3347 H   0  0  0  0  0  0  0  0  0  0  0  0
  152.2205  141.5684  155.8627 H   0  0  0  0  0  0  0  0  0  0  0  0
  1  2  1  0  0  0  0
  1 21  1  0  0  0  0
  1 22  1  0  0  0  0
  1 23  1  0  0  0  0
  2  3  1  0  0  0  0
  2  4  1  0  0  0  0
  2 24  1  0  0  0  0
  3 25  1  0  0  0  0
  3 26  1  0  0  0  0
  3 27  1  0  0  0  0
  4  5  1  0  0  0  0
  4 28  1  0  0  0  0
  4 29  1  0  0  0  0
  5  6  1  0  0  0  0
  5  7  1  0  0  0  0
  5 30  1  0  0  0  0
  6 31  1  0  0  0  0
  6 32  1  0  0  0  0
  6 33  1  0  0  0  0
  7  8  1  0  0  0  0
  7 34  1  0  0  0  0
  8  9  1  0  0  0  0
  8 35  1  0  0  0  0
  8 36  1  0  0  0  0
  9 14  1  0  0  0  0
  9 10  2  0  0  0  0
 10 11  1  0  0  0  0
 10 37  1  0  0  0  0
 11 12  2  0  0  0  0
 11 38  1  0  0  0  0
 12 13  1  0  0  0  0
 12 39  1  0  0  0  0
 13 14  2  0  0  0  0
 14 15  1  0  0  0  0
 15 20  1  0  0  0  0
 15 16  1  0  0  0  0
 16 17  1  0  0  0  0
 16 40  1  0  0  0  0
 16 41  1  0  0  0  0
 17 18  1  0  0  0  0
 17 42  1  0  0  0  0
 17 43  1  0  0  0  0
 18 19  1  0  0  0  0
 19 20  1  0  0  0  0
 19 44  1  0  0  0  0
 19 45  1  0  0  0  0
 20 46  1  0  0  0  0
 20 47  1  0  0  0  0
M  END
> <s_m_source_file>
AV-unprocessed.smi

> <i_m_source_file_index>
3346

> <i_lp_mmshare_version>
43012

> <i_f3d_flags>
0

> <s_epik_input>
W0NIM11bQ0hdKFtDSDNdKVtDSDJdW0NASF0oW0NIM10pW05IXVtDSDJdYzFbY0hdW2NIXVtjSF1uYzFOMltDSDJdW0NIMl1PW0NIMl1bQ0gyXTI=

> <s_epik_cmdline>
J2VwaWtfcHl0aG9uJywgJy1waCcsICc3LjAnLCAnLXRuJywgJzgnLCAnLW1hJywgJzIwMCcsICctbWV0YWxfYmluZGluZycsICctaW1hZScsICc8aW5maWxlLm1hZT4nLCAnLW9tYWUnLCAnPG91dGZpbGUubWFlPic=

> <r_lp_tautomer_probability>
1

> <r_epik_Ionization_Penalty>
2.09752

> <r_epik_Ionization_Penalty_Charging>
0

> <r_epik_Ionization_Penalty_Neutral>
2.09752

> <r_epik_State_Penalty>
2.22589

> <r_epik_Charging_Adjusted_Penalty>
2.22589

> <i_epik_Tot_Q>
0

> <i_epik_Tot_abs_Q>
0

> <r_epik_Metal_State_Penalty>
2.21996

> <b_epik_Metal_Only>
0

> <s_lp_Force_Field>
OPLS_2005

> <r_lp_Energy>
27.6792

> <b_lp_Chiralities_Consistent>
1

> <s_lp_Variant>
AV-unprocessed.smi:3346-4

> <Gold.Version>
5.8.1

> <Gold.Id.Protein>
6NUR|6NUR_protein|mol2

> <Gold.PLP.Fitness>
39.0418

> <Gold.PLP.PLP>
-40.6069

> <Gold.PLP.part.hbond>
0.0000

> <Gold.PLP.part.metal>
0.0000

> <Gold.PLP.part.buried>
-5.7604

> <Gold.PLP.part.nonpolar>
-35.1863

> <Gold.PLP.part.repulsive>
0.0641

> <Gold.PLP.ligand.clash>
0.0000

> <Gold.PLP.ligand.torsion>
0.9071

> <Gold.PLP.Chemscore.Hbond>
0.0000

> <Gold.PLP.Chemscore.CHOScore>
0.0000

> <Gold.PLP.Chemscore.Metal>
0.0000

> <Gold.PLP.Chemscore.Internal.Correction>
0.2492

> <Gold.Rescore>
     Score         DG    S(hbond)    S(metal)    S(lipo)     H(rot)  DE(clash)    DE(int)     intcor
     13.36     -15.55       0.00        0.00     120.03       1.55       0.02       2.17       ----

> <Gold.Chemscore.Fitness>
13.3586

> <Gold.Chemscore.DG>
-15.5519

> <Gold.Chemscore.ZeroCoef>
-5.4800

> <Gold.Chemscore.Hbond>
0.0000

> <Gold.Chemscore.Metal>
0.0000

> <Gold.Chemscore.Lipo>
120.0296

> <Gold.Chemscore.Internal_Hbond>
0.0000

> <Gold.Chemscore.DEClash>
0.0202

> <Gold.Chemscore.DEInternal>
2.1731

> <Gold.Chemscore.Rot>
1.5514

> <Gold.Chemscore.Internal.Correction>
   9.000000E+99

> <Gold.Chemscore.Hbond.Weighted>
-0.0000

> <Gold.Chemscore.Metal.Weighted>
-0.0000

> <Gold.Chemscore.Lipo.Weighted>
-14.0435

> <Gold.Chemscore.Internal_Hbond.Weighted>
0.0000

> <Gold.Chemscore.DEClash.Weighted>
0.0202

> <Gold.Chemscore.DEInternal.Weighted>
2.1731

> <Gold.Chemscore.Rot.Weighted>
3.9715

> <Gold.Chemscore.Internal.Correction.Weighted>
   9.000000E+99

> <Gold.Protein.RotatedTorsions>
[ 6907 6896 6895 6894 ] final -172.89 input  -60.11 | X-H torsion
[ 7974 7965 7964 7962 ] final   -4.29 input  175.53 | X-H torsion
[ 8008 7997 7996 7995 ] final   75.89 input   59.86 | X-H torsion
[ 10167 10162 10161 10158 ] final  -58.30 input  -65.29 | X-H torsion
[ 10718 10713 10712 10709 ] final   39.01 input   66.30 | X-H torsion
[ 10763 10752 10751 10750 ] final  -89.61 input  -60.55 | X-H torsion
[ 11005 11000 10999 10996 ] final  145.04 input  -57.11 | X-H torsion

> <Gold.Protein.ActiveResidues>
 VAL166  LYS551  ARG553  GLY616  TRP617  ASP618  TYR619  PRO620  LYS621  CYS622 
 ASP623  PHE694  ASN695  SER759  ASP760  ASP761  ALA762  ILE779  LEU786  VAL792 
 PHE793  MET794  SER795  GLU796  ALA797  LYS798  CYS799  TRP800  GLU811  SER814 

> <Gold.Protein.RotatedAtoms>
  151.5473  133.3423  159.2946 H   0  0  0  0  0  0  0  0  0  0  0  0  # atno 6907 bound_to 6896
  150.8500  134.7824  159.7012 H   0  0  0  0  0  0  0  0  0  0  0  0  # atno 6908 bound_to 6896
  152.4548  134.5323  159.9866 H   0  0  0  0  0  0  0  0  0  0  0  0  # atno 6909 bound_to 6896
  146.2375  140.1850  142.8332 H   0  0  0  0  0  0  0  0  0  0  0  0  # atno 7974 bound_to 7965
  155.8195  140.3470  155.5505 H   0  0  0  0  0  0  0  0  0  0  0  0  # atno 8008 bound_to 7997
  155.8357  140.0934  157.1785 H   0  0  0  0  0  0  0  0  0  0  0  0  # atno 8009 bound_to 7997
  154.4004  140.1404  156.3655 H   0  0  0  0  0  0  0  0  0  0  0  0  # atno 8010 bound_to 7997
  140.6205  143.2418  151.5491 H   0  0  0  0  0  0  0  0  0  0  0  0  # atno 10167 bound_to 10162
  157.3656  130.7673  149.7080 H   0  0  0  0  0  0  0  0  0  0  0  0  # atno 10718 bound_to 10713
  154.6571  135.5334  153.7973 H   0  0  0  0  0  0  0  0  0  0  0  0  # atno 10763 bound_to 10752
  153.0420  135.6496  154.0928 H   0  0  0  0  0  0  0  0  0  0  0  0  # atno 10764 bound_to 10752
  154.0840  135.2945  155.3264 H   0  0  0  0  0  0  0  0  0  0  0  0  # atno 10765 bound_to 10752
  140.0680  134.9168  157.1297 H   0  0  0  0  0  0  0  0  0  0  0  0  # atno 11005 bound_to 11000
  144.9904  140.8541  143.5343 LP  0  0  0  0  0  0  0  0  0  0  0  0  # atno 17320 bound_to 7965
  145.1855  139.2329  143.5270 LP  0  0  0  0  0  0  0  0  0  0  0  0  # atno 17321 bound_to 7965
  139.5435  144.2584  152.1397 LP  0  0  0  0  0  0  0  0  0  0  0  0  # atno 17342 bound_to 10162
  140.1803  144.4851  150.6532 LP  0  0  0  0  0  0  0  0  0  0  0  0  # atno 17343 bound_to 10162
  155.9745  130.4101  150.3915 LP  0  0  0  0  0  0  0  0  0  0  0  0  # atno 17370 bound_to 10713
  157.1999  131.0435  151.2656 LP  0  0  0  0  0  0  0  0  0  0  0  0  # atno 17371 bound_to 10713
  140.3669  134.2432  155.7181 LP  0  0  0  0  0  0  0  0  0  0  0  0  # atno 17394 bound_to 11000
  141.2000  133.7997  157.0507 LP  0  0  0  0  0  0  0  0  0  0  0  0  # atno 17395 bound_to 11000

$$$$
