AV-unprocessed.smi:2072|AV-procd|sdf|8445|dock1
  -GOLD-   2272011143D 1   1.00000     0.00000
 Structure written by MMmdl.
 40 42  0  0  0  0  0  0  0  0  2 V2000
  145.1574  137.7779  153.4088 O   0  0  0  0  0  0  0  0  0  0  0  0
  146.2031  137.2972  152.9745 C   0  0  0  0  0  0  0  0  0  0  0  0
  147.4192  137.8646  153.0512 N   0  0  0  0  0  0  0  0  0  0  0  0
  147.7952  139.1206  153.6032 C   0  0  0  0  0  0  0  0  0  0  0  0
  149.0327  139.3897  154.2388 C   0  0  0  0  0  0  0  0  0  0  0  0
  149.2679  140.6800  154.7514 C   0  0  0  0  0  0  0  0  0  0  0  0
  148.2590  141.6528  154.6165 C   0  0  0  0  0  0  0  0  0  0  0  0
  147.0730  141.4097  154.0208 N   0  0  0  0  0  0  0  0  0  0  0  0
  146.8549  140.1708  153.5311 C   0  0  0  0  0  0  0  0  0  0  0  0
  146.2645  136.1030  152.3673 N   0  0  0  0  0  0  0  0  0  0  0  0
  145.1164  135.2425  152.0858 C   0  0  1  0  0  0  0  0  0  0  0  0
  144.6676  135.2960  150.6135 C   0  0  0  0  0  0  0  0  0  0  0  0
  144.2767  133.8531  150.2785 C   0  0  0  0  0  0  0  0  0  0  0  0
  145.2190  133.0653  151.0812 N   0  3  2  0  0  0  0  0  0  0  0  0
  144.9976  131.6114  151.2137 C   0  0  0  0  0  0  0  0  0  0  0  0
  146.2250  130.9976  151.9210 C   0  0  0  0  0  0  0  0  0  0  0  0
  146.5627  131.7205  153.2453 C   0  0  0  0  0  0  0  0  0  0  0  0
  146.6429  133.2524  153.0632 C   0  0  0  0  0  0  0  0  0  0  0  0
  145.3517  133.7416  152.3830 C   0  0  1  0  0  0  0  0  0  0  0  0
  148.1835  137.3164  152.6847 H   0  0  0  0  0  0  0  0  0  0  0  0
  149.8017  138.6435  154.3556 H   0  0  0  0  0  0  0  0  0  0  0  0
  150.2009  140.9173  155.2408 H   0  0  0  0  0  0  0  0  0  0  0  0
  148.4073  142.6513  155.0004 H   0  0  0  0  0  0  0  0  0  0  0  0
  145.8938  140.0135  153.0636 H   0  0  0  0  0  0  0  0  0  0  0  0
  147.1663  135.7793  152.0495 H   0  0  0  0  0  0  0  0  0  0  0  0
  144.2752  135.5791  152.6956 H   0  0  0  0  0  0  0  0  0  0  0  0
  143.8510  135.9992  150.4472 H   0  0  0  0  0  0  0  0  0  0  0  0
  145.4991  135.5997  149.9754 H   0  0  0  0  0  0  0  0  0  0  0  0
  143.2544  133.6466  150.5990 H   0  0  0  0  0  0  0  0  0  0  0  0
  144.3606  133.6305  149.2144 H   0  0  0  0  0  0  0  0  0  0  0  0
  144.0841  131.4190  151.7783 H   0  0  0  0  0  0  0  0  0  0  0  0
  144.8697  131.1654  150.2268 H   0  0  0  0  0  0  0  0  0  0  0  0
  146.0581  129.9362  152.1066 H   0  0  0  0  0  0  0  0  0  0  0  0
  147.0867  131.0593  151.2549 H   0  0  0  0  0  0  0  0  0  0  0  0
  145.7956  131.4875  153.9851 H   0  0  0  0  0  0  0  0  0  0  0  0
  147.5019  131.3417  153.6493 H   0  0  0  0  0  0  0  0  0  0  0  0
  146.7717  133.7289  154.0350 H   0  0  0  0  0  0  0  0  0  0  0  0
  147.5138  133.5140  152.4607 H   0  0  0  0  0  0  0  0  0  0  0  0
  144.5114  133.4243  153.0044 H   0  0  0  0  0  0  0  0  0  0  0  0
  146.1122  133.1745  150.6228 H   0  0  0  0  0  0  0  0  0  0  0  0
  1  2  2  0  0  0  0
  2  3  1  0  0  0  0
  2 10  1  0  0  0  0
  3  4  1  0  0  0  0
  3 20  1  0  0  0  0
  4  9  1  0  0  0  0
  4  5  2  0  0  0  0
  5  6  1  0  0  0  0
  5 21  1  0  0  0  0
  6  7  2  0  0  0  0
  6 22  1  0  0  0  0
  7  8  1  0  0  0  0
  7 23  1  0  0  0  0
  8  9  2  0  0  0  0
  9 24  1  0  0  0  0
 10 11  1  0  0  0  0
 10 25  1  0  0  0  0
 11 19  1  0  0  0  0
 11 12  1  0  0  0  0
 11 26  1  0  0  0  0
 12 13  1  0  0  0  0
 12 27  1  0  0  0  0
 12 28  1  0  0  0  0
 13 14  1  0  0  0  0
 13 29  1  0  0  0  0
 13 30  1  0  0  0  0
 14 19  1  0  0  0  0
 14 15  1  0  0  0  0
 14 40  1  0  0  0  0
 15 16  1  0  0  0  0
 15 31  1  0  0  0  0
 15 32  1  0  0  0  0
 16 17  1  0  0  0  0
 16 33  1  0  0  0  0
 16 34  1  0  0  0  0
 17 18  1  0  0  0  0
 17 35  1  0  0  0  0
 17 36  1  0  0  0  0
 18 19  1  0  0  0  0
 18 37  1  0  0  0  0
 18 38  1  0  0  0  0
 19 39  1  0  0  0  0
M  CHG  1  14   1
M  END
> <s_m_source_file>
AV-unprocessed.smi

> <i_m_source_file_index>
2072

> <i_lp_mmshare_version>
43012

> <i_f3d_flags>
0

> <s_epik_input>
W0NIMl0xW0NIMl1bQ0gyXVtDSDJdW0NASF0oTjEyKVtDQEBIXShbQ0gyXVtDSDJdMilbTkhdQyg9TylbTkhdYzNbY0hdW2NIXVtjSF1uW2NIXTM=

> <s_epik_cmdline>
J2VwaWtfcHl0aG9uJywgJy1waCcsICc3LjAnLCAnLXRuJywgJzgnLCAnLW1hJywgJzIwMCcsICctbWV0YWxfYmluZGluZycsICctaW1hZScsICc8aW5maWxlLm1hZT4nLCAnLW9tYWUnLCAnPG91dGZpbGUubWFlPic=

> <r_lp_tautomer_probability>
1

> <r_epik_Ionization_Penalty>
0.00482425

> <r_epik_Ionization_Penalty_Charging>
0.000974069

> <r_epik_Ionization_Penalty_Neutral>
0.00385018

> <r_epik_State_Penalty>
-0

> <r_epik_Charging_Adjusted_Penalty>
0.000974069

> <i_epik_Tot_Q>
1

> <i_epik_Tot_abs_Q>
1

> <r_epik_Metal_State_Penalty>
-0

> <b_epik_Metal_Only>
0

> <s_lp_Force_Field>
OPLS_2005

> <r_lp_Energy>
44.3374

> <b_lp_Chiralities_Consistent>
1

> <s_lp_Variant>
AV-unprocessed.smi:2072-4

> <Gold.Version>
5.8.1

> <Gold.Id.Protein>
6NUR|6NUR_protein|mol2

> <Gold.PLP.Fitness>
40.7008

> <Gold.PLP.PLP>
-29.8543

> <Gold.PLP.part.hbond>
-1.9351

> <Gold.PLP.part.metal>
0.0000

> <Gold.PLP.part.buried>
-2.2384

> <Gold.PLP.part.nonpolar>
-26.2876

> <Gold.PLP.part.repulsive>
0.6788

> <Gold.PLP.ligand.clash>
0.0000

> <Gold.PLP.ligand.torsion>
0.4450

> <Gold.PLP.Chemscore.Hbond>
1.9120

> <Gold.PLP.Chemscore.CHOScore>
2.0000

> <Gold.PLP.Chemscore.Metal>
0.0000

> <Gold.Chemscore.Hbonds>
donor molecule, donor type, donor heavy atom, donor atom, acceptor molecule, acceptor atom, score
      L1  H     3    20       P1  7948  1.00
      L1  H    10    25       P1  7948  0.91
      L1  C     7    23       P1  8028  1.00
      L1  C     9    24       P1 10175  1.00

> <Gold.PLP.Chemscore.Internal.Correction>
0.0005

> <Gold.Rescore>
     Score         DG    S(hbond)    S(metal)    S(lipo)     H(rot)  DE(clash)    DE(int)     intcor
     17.00     -18.79       1.92        0.00      80.76       1.00       0.21       1.58       ----

> <Gold.Chemscore.Fitness>
17.0014

> <Gold.Chemscore.DG>
-18.7914

> <Gold.Chemscore.ZeroCoef>
-5.4800

> <Gold.Chemscore.Hbond>
1.9230

> <Gold.Chemscore.Metal>
0.0000

> <Gold.Chemscore.Lipo>
80.7574

> <Gold.Chemscore.Internal_Hbond>
0.0000

> <Gold.Chemscore.DEClash>
0.2105

> <Gold.Chemscore.DEInternal>
1.5794

> <Gold.Chemscore.Rot>
1.0000

> <Gold.Chemscore.Internal.Correction>
   9.000000E+99

> <Gold.Chemscore.Hbonds>
donor molecule, donor type, donor heavy atom, donor atom, acceptor molecule, acceptor atom, score
      L1  H     3    20       P1  7948  0.95
      L1  H    10    25       P1  7948  0.90

> <Gold.Chemscore.Hbond.Weighted>
-6.4228

> <Gold.Chemscore.Metal.Weighted>
-0.0000

> <Gold.Chemscore.Lipo.Weighted>
-9.4486

> <Gold.Chemscore.Internal_Hbond.Weighted>
0.0000

> <Gold.Chemscore.DEClash.Weighted>
0.2105

> <Gold.Chemscore.DEInternal.Weighted>
1.5794

> <Gold.Chemscore.Rot.Weighted>
2.5600

> <Gold.Chemscore.Internal.Correction.Weighted>
   9.000000E+99

> <Gold.Protein.RotatedTorsions>
[ 6907 6896 6895 6894 ] final  103.77 input  -60.11 | X-H torsion
[ 7974 7965 7964 7962 ] final  -58.17 input  175.53 | X-H torsion
[ 8008 7997 7996 7995 ] final  -36.93 input   59.86 | X-H torsion
[ 10167 10162 10161 10158 ] final -138.55 input  -65.29 | X-H torsion
[ 10718 10713 10712 10709 ] final  -39.17 input   66.30 | X-H torsion
[ 10763 10752 10751 10750 ] final   74.60 input  -60.55 | X-H torsion
[ 11005 11000 10999 10996 ] final  -34.40 input  -57.11 | X-H torsion

> <Gold.Protein.ActiveResidues>
 VAL166  LYS551  ARG553  GLY616  TRP617  ASP618  TYR619  PRO620  LYS621  CYS622 
 ASP623  PHE694  ASN695  SER759  ASP760  ASP761  ALA762  ILE779  LEU786  VAL792 
 PHE793  MET794  SER795  GLU796  ALA797  LYS798  CYS799  TRP800  GLU811  SER814 

> <Gold.Protein.RotatedAtoms>
  152.5285  133.9776  159.7791 H   0  0  0  0  0  0  0  0  0  0  0  0  # atno 6907 bound_to 6896
  151.0036  133.6024  159.2699 H   0  0  0  0  0  0  0  0  0  0  0  0  # atno 6908 bound_to 6896
  151.3125  135.0804  159.9330 H   0  0  0  0  0  0  0  0  0  0  0  0  # atno 6909 bound_to 6896
  145.8425  140.8408  143.0027 H   0  0  0  0  0  0  0  0  0  0  0  0  # atno 7974 bound_to 7965
  154.4063  140.1617  156.2454 H   0  0  0  0  0  0  0  0  0  0  0  0  # atno 8008 bound_to 7997
  155.9165  140.3424  155.6117 H   0  0  0  0  0  0  0  0  0  0  0  0  # atno 8009 bound_to 7997
  155.7273  140.0776  157.2295 H   0  0  0  0  0  0  0  0  0  0  0  0  # atno 8010 bound_to 7997
  139.8467  143.7251  152.2660 H   0  0  0  0  0  0  0  0  0  0  0  0  # atno 10167 bound_to 10162
  156.2955  130.4233  149.8195 H   0  0  0  0  0  0  0  0  0  0  0  0  # atno 10718 bound_to 10713
  153.0598  135.5019  154.8066 H   0  0  0  0  0  0  0  0  0  0  0  0  # atno 10763 bound_to 10752
  154.6864  135.2977  154.9543 H   0  0  0  0  0  0  0  0  0  0  0  0  # atno 10764 bound_to 10752
  154.0312  135.6729  153.4833 H   0  0  0  0  0  0  0  0  0  0  0  0  # atno 10765 bound_to 10752
  140.9713  133.7108  156.1529 H   0  0  0  0  0  0  0  0  0  0  0  0  # atno 11005 bound_to 11000
  144.6733  140.0833  143.7468 LP  0  0  0  0  0  0  0  0  0  0  0  0  # atno 17320 bound_to 7965
  145.9449  139.2694  143.1246 LP  0  0  0  0  0  0  0  0  0  0  0  0  # atno 17321 bound_to 7965
  139.7505  144.7535  151.0513 LP  0  0  0  0  0  0  0  0  0  0  0  0  # atno 17342 bound_to 10162
  140.7792  143.4865  150.9949 LP  0  0  0  0  0  0  0  0  0  0  0  0  # atno 17343 bound_to 10162
  156.5592  130.8376  151.3323 LP  0  0  0  0  0  0  0  0  0  0  0  0  # atno 17370 bound_to 10713
  157.7354  130.9762  150.2080 LP  0  0  0  0  0  0  0  0  0  0  0  0  # atno 17371 bound_to 10713
  140.7324  134.4240  157.5564 LP  0  0  0  0  0  0  0  0  0  0  0  0  # atno 17394 bound_to 11000
  139.8913  134.8782  156.2325 LP  0  0  0  0  0  0  0  0  0  0  0  0  # atno 17395 bound_to 11000

$$$$
