AV-unprocessed.smi:2358|AV-procd|sdf|9405|dock4
  -GOLD-   2272013 43D 1   1.00000     0.00000
 Structure written by MMmdl.
 46 48  0  0  0  0  0  0  0  0  2 V2000
  151.6820  144.6557  157.4350 C   0  0  0  0  0  0  0  0  0  0  0  0
  151.8995  143.3634  158.1950 C   0  0  0  0  0  0  0  0  0  0  0  0
  152.8635  143.2946  159.2204 C   0  0  0  0  0  0  0  0  0  0  0  0
  153.0580  142.0922  159.9271 C   0  0  0  0  0  0  0  0  0  0  0  0
  154.0962  142.0250  161.0280 C   0  0  0  0  0  0  0  0  0  0  0  0
  152.2851  140.9581  159.6042 C   0  0  0  0  0  0  0  0  0  0  0  0
  151.3168  141.0096  158.5807 C   0  0  0  0  0  0  0  0  0  0  0  0
  150.6072  139.8538  158.3339 O   0  0  0  0  0  0  0  0  0  0  0  0
  151.0665  138.6426  158.9191 C   0  0  0  0  0  0  0  0  0  0  0  0
  149.9369  137.6009  158.8579 C   0  0  2  0  0  0  0  0  0  0  0  0
  150.0916  136.7475  159.9758 O   0  0  0  0  0  0  0  0  0  0  0  0
  150.0241  136.7308  157.5844 C   0  0  0  0  0  0  0  0  0  0  0  0
  150.0844  137.5480  156.3667 N   0  0  0  0  0  0  0  0  0  0  0  0
  149.1154  138.5334  156.3044 N   0  0  0  0  0  0  0  0  0  0  0  0
  149.0575  139.3453  155.2981 C   0  0  0  0  0  0  0  0  0  0  0  0
  148.0695  140.4056  155.1911 N   0  0  0  0  0  0  0  0  0  0  0  0
  147.7594  141.2242  154.1315 C   0  0  0  0  0  0  0  0  0  0  0  0
  146.7559  142.0512  154.5681 C   0  0  0  0  0  0  0  0  0  0  0  0
  146.4978  141.7038  155.8682 N   0  3  0  0  0  0  0  0  0  0  0  0
  147.2973  140.7015  156.2490 C   0  0  0  0  0  0  0  0  0  0  0  0
  150.0139  139.2172  154.2094 C   0  0  0  0  0  0  0  0  0  0  0  0
  150.9577  138.2537  154.2807 C   0  0  0  0  0  0  0  0  0  0  0  0
  151.0437  137.3385  155.4174 C   0  0  0  0  0  0  0  0  0  0  0  0
  151.9033  136.4635  155.5146 O   0  0  0  0  0  0  0  0  0  0  0  0
  151.1297  142.2260  157.8768 C   0  0  0  0  0  0  0  0  0  0  0  0
  152.4576  145.3872  157.6638 H   0  0  0  0  0  0  0  0  0  0  0  0
  150.7161  145.0874  157.6978 H   0  0  0  0  0  0  0  0  0  0  0  0
  151.6954  144.4720  156.3603 H   0  0  0  0  0  0  0  0  0  0  0  0
  153.4552  144.1642  159.4673 H   0  0  0  0  0  0  0  0  0  0  0  0
  154.0579  141.0710  161.5547 H   0  0  0  0  0  0  0  0  0  0  0  0
  153.9298  142.8205  161.7547 H   0  0  0  0  0  0  0  0  0  0  0  0
  155.0962  142.1445  160.6103 H   0  0  0  0  0  0  0  0  0  0  0  0
  152.4332  140.0349  160.1454 H   0  0  0  0  0  0  0  0  0  0  0  0
  151.9184  138.2861  158.3374 H   0  0  0  0  0  0  0  0  0  0  0  0
  151.4034  138.7934  159.9465 H   0  0  0  0  0  0  0  0  0  0  0  0
  148.9725  138.1085  158.9064 H   0  0  0  0  0  0  0  0  0  0  0  0
  149.2433  136.4029  160.2093 H   0  0  0  0  0  0  0  0  0  0  0  0
  150.9143  136.1004  157.6239 H   0  0  0  0  0  0  0  0  0  0  0  0
  149.1900  136.0274  157.5415 H   0  0  0  0  0  0  0  0  0  0  0  0
  148.2488  141.1737  153.1704 H   0  0  0  0  0  0  0  0  0  0  0  0
  146.2201  142.8419  154.0630 H   0  0  0  0  0  0  0  0  0  0  0  0
  147.3066  140.2374  157.2198 H   0  0  0  0  0  0  0  0  0  0  0  0
  149.9868  139.8728  153.3534 H   0  0  0  0  0  0  0  0  0  0  0  0
  151.6721  138.1559  153.4766 H   0  0  0  0  0  0  0  0  0  0  0  0
  150.3980  142.3112  157.0877 H   0  0  0  0  0  0  0  0  0  0  0  0
  145.8024  142.1421  156.4593 H   0  0  0  0  0  0  0  0  0  0  0  0
  1  2  1  0  0  0  0
  1 26  1  0  0  0  0
  1 27  1  0  0  0  0
  1 28  1  0  0  0  0
  2 25  1  0  0  0  0
  2  3  2  0  0  0  0
  3  4  1  0  0  0  0
  3 29  1  0  0  0  0
  4  5  1  0  0  0  0
  4  6  2  0  0  0  0
  5 30  1  0  0  0  0
  5 31  1  0  0  0  0
  5 32  1  0  0  0  0
  6  7  1  0  0  0  0
  6 33  1  0  0  0  0
  7  8  1  0  0  0  0
  7 25  2  0  0  0  0
  8  9  1  0  0  0  0
  9 10  1  0  0  0  0
  9 34  1  0  0  0  0
  9 35  1  0  0  0  0
 10 11  1  0  0  0  0
 10 12  1  0  0  0  0
 10 36  1  0  0  0  0
 11 37  1  0  0  0  0
 12 13  1  0  0  0  0
 12 38  1  0  0  0  0
 12 39  1  0  0  0  0
 13 23  1  0  0  0  0
 13 14  1  0  0  0  0
 14 15  2  0  0  0  0
 15 16  1  0  0  0  0
 15 21  1  0  0  0  0
 16 20  1  0  0  0  0
 16 17  1  0  0  0  0
 17 18  2  0  0  0  0
 17 40  1  0  0  0  0
 18 19  1  0  0  0  0
 18 41  1  0  0  0  0
 19 20  2  0  0  0  0
 19 46  1  0  0  0  0
 20 42  1  0  0  0  0
 21 22  2  0  0  0  0
 21 43  1  0  0  0  0
 22 23  1  0  0  0  0
 22 44  1  0  0  0  0
 23 24  2  0  0  0  0
 25 45  1  0  0  0  0
M  CHG  1  19   1
M  END
> <s_m_source_file>
AV-unprocessed.smi

> <i_m_source_file_index>
2358

> <i_lp_mmshare_version>
43012

> <i_f3d_flags>
0

> <s_epik_input>
W0NIM11jMVtjSF1jKFtDSDNdKVtjSF1jKFtjSF0xKU9bQ0gyXVtDQEhdKFtPSF0pW0NIMl1uMm5jKFtjSF1bY0hdYzI9TyktbjNbY0hdW2NIXW5bY0hdMw==

> <s_epik_cmdline>
J2VwaWtfcHl0aG9uJywgJy1waCcsICc3LjAnLCAnLXRuJywgJzgnLCAnLW1hJywgJzIwMCcsICctbWV0YWxfYmluZGluZycsICctaW1hZScsICc8aW5maWxlLm1hZT4nLCAnLW9tYWUnLCAnPG91dGZpbGUubWFlPic=

> <r_lp_tautomer_probability>
1

> <r_epik_Ionization_Penalty>
1.66053

> <r_epik_Ionization_Penalty_Charging>
2.42216e-09

> <r_epik_Ionization_Penalty_Neutral>
1.66053

> <r_epik_State_Penalty>
1.76336

> <r_epik_Charging_Adjusted_Penalty>
1.76336

> <i_epik_Tot_Q>
1

> <i_epik_Tot_abs_Q>
1

> <r_epik_Metal_State_Penalty>
1.79856

> <b_epik_Metal_Only>
0

> <s_lp_Force_Field>
OPLS_2005

> <r_lp_Energy>
37.8442

> <b_lp_Chiralities_Consistent>
1

> <s_lp_Variant>
AV-unprocessed.smi:2358-3

> <Gold.Version>
5.8.1

> <Gold.Id.Protein>
6NUR|6NUR_protein|mol2

> <Gold.PLP.Fitness>
51.9034

> <Gold.PLP.PLP>
-45.9141

> <Gold.PLP.part.hbond>
-1.9072

> <Gold.PLP.part.metal>
0.0000

> <Gold.PLP.part.buried>
-4.6374

> <Gold.PLP.part.nonpolar>
-39.0420

> <Gold.PLP.part.repulsive>
0.0902

> <Gold.PLP.ligand.clash>
1.6282

> <Gold.PLP.ligand.torsion>
0.7741

> <Gold.PLP.Chemscore.Hbond>
2.0000

> <Gold.PLP.Chemscore.CHOScore>
1.0000

> <Gold.PLP.Chemscore.Metal>
0.0000

> <Gold.Chemscore.Hbonds>
donor molecule, donor type, donor heavy atom, donor atom, acceptor molecule, acceptor atom, score
      P1  H  6896  6907       L1    11  0.85
      P1  H 10752 10765       L1    24  1.00
      L1  C    17    40       P1  7957  0.66

> <Gold.PLP.Chemscore.Internal.Correction>
0.1658

> <Gold.Rescore>
     Score         DG    S(hbond)    S(metal)    S(lipo)     H(rot)  DE(clash)    DE(int)     intcor
     16.12     -18.15       1.73        0.00     116.97       2.65       0.02       2.02       ----

> <Gold.Chemscore.Fitness>
16.1183

> <Gold.Chemscore.DG>
-18.1550

> <Gold.Chemscore.ZeroCoef>
-5.4800

> <Gold.Chemscore.Hbond>
1.7314

> <Gold.Chemscore.Metal>
0.0000

> <Gold.Chemscore.Lipo>
116.9719

> <Gold.Chemscore.Internal_Hbond>
0.0000

> <Gold.Chemscore.DEClash>
0.0202

> <Gold.Chemscore.DEInternal>
2.0165

> <Gold.Chemscore.Rot>
2.6537

> <Gold.Chemscore.Internal.Correction>
   9.000000E+99

> <Gold.Chemscore.Hbonds>
donor molecule, donor type, donor heavy atom, donor atom, acceptor molecule, acceptor atom, score
      P1  H  6896  6907       L1    11  0.14
      P1  H 10752 10765       L1    24  0.98

> <Gold.Chemscore.Hbond.Weighted>
-5.7828

> <Gold.Chemscore.Metal.Weighted>
-0.0000

> <Gold.Chemscore.Lipo.Weighted>
-13.6857

> <Gold.Chemscore.Internal_Hbond.Weighted>
0.0000

> <Gold.Chemscore.DEClash.Weighted>
0.0202

> <Gold.Chemscore.DEInternal.Weighted>
2.0165

> <Gold.Chemscore.Rot.Weighted>
6.7935

> <Gold.Chemscore.Internal.Correction.Weighted>
   9.000000E+99

> <Gold.Protein.RotatedTorsions>
[ 6907 6896 6895 6894 ] final  -35.47 input  -60.11 | X-H torsion
[ 7974 7965 7964 7962 ] final  140.97 input  175.53 | X-H torsion
[ 8008 7997 7996 7995 ] final  170.83 input   59.86 | X-H torsion
[ 10167 10162 10161 10158 ] final   93.66 input  -65.29 | X-H torsion
[ 10718 10713 10712 10709 ] final  165.19 input   66.30 | X-H torsion
[ 10763 10752 10751 10750 ] final -155.74 input  -60.55 | X-H torsion
[ 11005 11000 10999 10996 ] final -166.19 input  -57.11 | X-H torsion

> <Gold.Protein.ActiveResidues>
 VAL166  LYS551  ARG553  GLY616  TRP617  ASP618  TYR619  PRO620  LYS621  CYS622 
 ASP623  PHE694  ASN695  SER759  ASP760  ASP761  ALA762  ILE779  LEU786  VAL792 
 PHE793  MET794  SER795  GLU796  ALA797  LYS798  CYS799  TRP800  GLU811  SER814 

> <Gold.Protein.RotatedAtoms>
  151.0393  134.9596  159.8152 H   0  0  0  0  0  0  0  0  0  0  0  0  # atno 6907 bound_to 6896
  152.5361  134.2678  159.8970 H   0  0  0  0  0  0  0  0  0  0  0  0  # atno 6908 bound_to 6896
  151.2690  133.4222  159.2654 H   0  0  0  0  0  0  0  0  0  0  0  0  # atno 6909 bound_to 6896
  144.9139  139.5257  143.5696 H   0  0  0  0  0  0  0  0  0  0  0  0  # atno 7974 bound_to 7965
  156.1329  140.1527  156.9039 H   0  0  0  0  0  0  0  0  0  0  0  0  # atno 8008 bound_to 7997
  154.4923  140.0848  156.7661 H   0  0  0  0  0  0  0  0  0  0  0  0  # atno 8009 bound_to 7997
  155.4223  140.3423  155.4275 H   0  0  0  0  0  0  0  0  0  0  0  0  # atno 8010 bound_to 7997
  139.8158  144.6753  150.9582 H   0  0  0  0  0  0  0  0  0  0  0  0  # atno 10167 bound_to 10162
  157.0837  131.0399  151.2565 H   0  0  0  0  0  0  0  0  0  0  0  0  # atno 10718 bound_to 10713
  154.7765  135.3161  154.8081 H   0  0  0  0  0  0  0  0  0  0  0  0  # atno 10763 bound_to 10752
  153.8804  135.6835  153.4771 H   0  0  0  0  0  0  0  0  0  0  0  0  # atno 10764 bound_to 10752
  153.1390  135.4747  154.9402 H   0  0  0  0  0  0  0  0  0  0  0  0  # atno 10765 bound_to 10752
  140.5673  134.5273  157.5155 H   0  0  0  0  0  0  0  0  0  0  0  0  # atno 11005 bound_to 11000
  146.3172  139.7966  142.8974 LP  0  0  0  0  0  0  0  0  0  0  0  0  # atno 17320 bound_to 7965
  145.3409  141.0287  143.3393 LP  0  0  0  0  0  0  0  0  0  0  0  0  # atno 17321 bound_to 7965
  140.7816  143.4140  151.0947 LP  0  0  0  0  0  0  0  0  0  0  0  0  # atno 17342 bound_to 10162
  139.7804  143.8364  152.3136 LP  0  0  0  0  0  0  0  0  0  0  0  0  # atno 17343 bound_to 10162
  157.4779  130.7747  149.7386 LP  0  0  0  0  0  0  0  0  0  0  0  0  # atno 17370 bound_to 10713
  155.9917  130.3936  150.2975 LP  0  0  0  0  0  0  0  0  0  0  0  0  # atno 17371 bound_to 10713
  139.9379  134.7842  156.0755 LP  0  0  0  0  0  0  0  0  0  0  0  0  # atno 17394 bound_to 11000
  141.1078  133.6654  156.2905 LP  0  0  0  0  0  0  0  0  0  0  0  0  # atno 17395 bound_to 11000

$$$$
