AV-unprocessed.smi:169|AV-procd|sdf|1401|dock6
  -GOLD-   2262019153D 1   1.00000     0.00000
 Structure written by MMmdl.
 56 60  0  0  0  0  0  0  0  0  2 V2000
  144.8704  135.0006  150.9835 C   0  0  0  0  0  0  0  0  0  0  0  0
  146.2685  135.1105  151.6156 C   0  0  0  0  0  0  0  0  0  0  0  0
  146.4913  136.3788  152.3572 N   0  3  1  0  0  0  0  0  0  0  0  0
  145.9897  137.5838  151.6068 C   0  0  0  0  0  0  0  0  0  0  0  0
  146.6577  138.9448  152.0264 C   0  0  0  0  0  0  0  0  0  0  0  0
  146.9221  139.0446  153.5425 C   0  0  3  0  0  0  0  0  0  0  0  0
  146.1768  139.5441  154.7856 C   0  0  0  0  0  0  0  0  0  0  0  0
  146.1093  138.2185  155.6157 C   0  0  0  0  0  0  0  0  0  0  0  0
  146.9315  137.1706  154.7917 C   0  0  1  0  0  0  0  0  0  0  0  0
  146.0795  136.2881  153.8078 C   0  0  0  0  0  0  0  0  0  0  0  0
  147.8278  138.0155  154.0186 N   0  0  0  0  0  0  0  0  0  0  0  0
  149.0364  138.4023  154.5139 C   0  0  0  0  0  0  0  0  0  0  0  0
  150.0677  137.5168  154.5018 N   0  0  0  0  0  0  0  0  0  0  0  0
  151.2678  137.8611  154.9760 C   0  0  0  0  0  0  0  0  0  0  0  0
  151.6560  139.0275  155.4916 N   0  0  0  0  0  0  0  0  0  0  0  0
  150.6360  139.9322  155.4904 C   0  0  0  0  0  0  0  0  0  0  0  0
  149.3073  139.7059  155.0282 C   0  0  0  0  0  0  0  0  0  0  0  0
  148.5553  140.8641  155.1926 N   0  0  0  0  0  0  0  0  0  0  0  0
  149.3856  141.7175  155.7248 C   0  0  0  0  0  0  0  0  0  0  0  0
  150.6636  141.2472  155.9224 N   0  0  0  0  0  0  0  0  0  0  0  0
  151.7862  141.9778  156.4941 C   0  0  0  0  0  0  0  0  0  0  0  0
  151.6914  142.2334  158.0183 C   0  0  0  0  0  0  0  0  0  0  0  0
  150.4473  143.0932  158.2775 C   0  0  0  0  0  0  0  0  0  0  0  0
  150.6368  144.4180  157.8230 O   0  0  0  0  0  0  0  0  0  0  0  0
  151.8483  141.0091  158.9380 C   0  0  0  0  0  0  0  0  0  0  0  0
  153.2188  141.3461  159.2393 O   0  0  0  0  0  0  0  0  0  0  0  0
  152.9785  142.6764  158.7340 C   0  0  0  0  0  0  0  0  0  0  0  0
  144.7619  134.0481  150.4645 H   0  0  0  0  0  0  0  0  0  0  0  0
  144.6938  135.7892  150.2524 H   0  0  0  0  0  0  0  0  0  0  0  0
  144.0814  135.0531  151.7338 H   0  0  0  0  0  0  0  0  0  0  0  0
  146.4305  134.2715  152.2933 H   0  0  0  0  0  0  0  0  0  0  0  0
  147.0294  135.0141  150.8404 H   0  0  0  0  0  0  0  0  0  0  0  0
  146.1517  137.4464  150.5371 H   0  0  0  0  0  0  0  0  0  0  0  0
  144.9082  137.6491  151.7365 H   0  0  0  0  0  0  0  0  0  0  0  0
  147.6133  139.0353  151.5088 H   0  0  0  0  0  0  0  0  0  0  0  0
  146.0528  139.7848  151.6811 H   0  0  0  0  0  0  0  0  0  0  0  0
  145.9207  138.6376  153.4679 H   0  0  0  0  0  0  0  0  0  0  0  0
  146.7847  140.2828  155.3096 H   0  0  0  0  0  0  0  0  0  0  0  0
  145.1991  140.0006  154.6014 H   0  0  0  0  0  0  0  0  0  0  0  0
  146.5690  138.3770  156.5920 H   0  0  0  0  0  0  0  0  0  0  0  0
  145.0845  137.8898  155.7899 H   0  0  0  0  0  0  0  0  0  0  0  0
  147.4613  136.5008  155.4691 H   0  0  0  0  0  0  0  0  0  0  0  0
  145.0160  136.5158  153.8931 H   0  0  0  0  0  0  0  0  0  0  0  0
  146.1778  135.2548  154.1424 H   0  0  0  0  0  0  0  0  0  0  0  0
  152.0261  137.0932  154.9338 H   0  0  0  0  0  0  0  0  0  0  0  0
  149.0852  142.7214  155.9870 H   0  0  0  0  0  0  0  0  0  0  0  0
  152.6909  141.4170  156.2566 H   0  0  0  0  0  0  0  0  0  0  0  0
  151.8751  142.9219  155.9552 H   0  0  0  0  0  0  0  0  0  0  0  0
  149.5692  142.6727  157.7863 H   0  0  0  0  0  0  0  0  0  0  0  0
  150.2160  143.1340  159.3423 H   0  0  0  0  0  0  0  0  0  0  0  0
  150.4091  144.4570  156.9066 H   0  0  0  0  0  0  0  0  0  0  0  0
  151.2226  141.0445  159.8317 H   0  0  0  0  0  0  0  0  0  0  0  0
  151.7461  140.0438  158.4456 H   0  0  0  0  0  0  0  0  0  0  0  0
  153.7675  143.0322  158.0729 H   0  0  0  0  0  0  0  0  0  0  0  0
  152.8093  143.3886  159.5435 H   0  0  0  0  0  0  0  0  0  0  0  0
  147.4967  136.4779  152.3768 H   0  0  0  0  0  0  0  0  0  0  0  0
  1  2  1  0  0  0  0
  1 28  1  0  0  0  0
  1 29  1  0  0  0  0
  1 30  1  0  0  0  0
  2  3  1  0  0  0  0
  2 31  1  0  0  0  0
  2 32  1  0  0  0  0
  3 10  1  0  0  0  0
  3  4  1  0  0  0  0
  3 56  1  0  0  0  0
  4  5  1  0  0  0  0
  4 33  1  0  0  0  0
  4 34  1  0  0  0  0
  5  6  1  0  0  0  0
  5 35  1  0  0  0  0
  5 36  1  0  0  0  0
  6 11  1  0  0  0  0
  6  7  1  0  0  0  0
  6 37  1  0  0  0  0
  7  8  1  0  0  0  0
  7 38  1  0  0  0  0
  7 39  1  0  0  0  0
  8  9  1  0  0  0  0
  8 40  1  0  0  0  0
  8 41  1  0  0  0  0
  9 10  1  0  0  0  0
  9 11  1  0  0  0  0
  9 42  1  0  0  0  0
 10 43  1  0  0  0  0
 10 44  1  0  0  0  0
 11 12  1  0  0  0  0
 12 17  1  0  0  0  0
 12 13  2  0  0  0  0
 13 14  1  0  0  0  0
 14 15  2  0  0  0  0
 14 45  1  0  0  0  0
 15 16  1  0  0  0  0
 16 20  1  0  0  0  0
 16 17  2  0  0  0  0
 17 18  1  0  0  0  0
 18 19  2  0  0  0  0
 19 20  1  0  0  0  0
 19 46  1  0  0  0  0
 20 21  1  0  0  0  0
 21 22  1  0  0  0  0
 21 47  1  0  0  0  0
 21 48  1  0  0  0  0
 22 27  1  0  0  0  0
 22 23  1  0  0  0  0
 22 25  1  0  0  0  0
 23 24  1  0  0  0  0
 23 49  1  0  0  0  0
 23 50  1  0  0  0  0
 24 51  1  0  0  0  0
 25 26  1  0  0  0  0
 25 52  1  0  0  0  0
 25 53  1  0  0  0  0
 26 27  1  0  0  0  0
 27 54  1  0  0  0  0
 27 55  1  0  0  0  0
M  CHG  1   3   1
M  END
> <s_m_source_file>
AV-unprocessed.smi

> <i_m_source_file_index>
169

> <i_lp_mmshare_version>
43012

> <i_f3d_flags>
0

> <s_epik_input>
W0NASF0xMltDSDJdW0NIMl1OKFtDSDJdW0NIM10pW0NIMl1bQ0BIXShbQ0gyXVtDSDJdMSlOMmMobltjSF1uMyljKGMzNCluW2NIXW40W0NIMl1DNShbQ0gyXVtPSF0pW0NIMl1PW0NIMl01

> <s_epik_cmdline>
J2VwaWtfcHl0aG9uJywgJy1waCcsICc3LjAnLCAnLXRuJywgJzgnLCAnLW1hJywgJzIwMCcsICctbWV0YWxfYmluZGluZycsICctaW1hZScsICc8aW5maWxlLm1hZT4nLCAnLW9tYWUnLCAnPG91dGZpbGUubWFlPic=

> <r_lp_tautomer_probability>
1

> <r_epik_Ionization_Penalty>
0.00274162

> <r_epik_Ionization_Penalty_Charging>
0.00243722

> <r_epik_Ionization_Penalty_Neutral>
0.000304399

> <r_epik_State_Penalty>
-0

> <r_epik_Charging_Adjusted_Penalty>
0.00243722

> <i_epik_Tot_Q>
1

> <i_epik_Tot_abs_Q>
1

> <r_epik_Metal_State_Penalty>
-0

> <b_epik_Metal_Only>
0

> <s_lp_Force_Field>
OPLS_2005

> <r_lp_Energy>
128.509

> <b_lp_Chiralities_Consistent>
1

> <s_lp_Variant>
AV-unprocessed.smi:169-4

> <Gold.Version>
5.8.1

> <Gold.Id.Protein>
6NUR|6NUR_protein|mol2

> <Gold.PLP.Fitness>
43.2700

> <Gold.PLP.PLP>
-33.2182

> <Gold.PLP.part.hbond>
-2.8111

> <Gold.PLP.part.metal>
0.0000

> <Gold.PLP.part.buried>
-0.8514

> <Gold.PLP.part.nonpolar>
-32.2542

> <Gold.PLP.part.repulsive>
1.6668

> <Gold.PLP.ligand.clash>
0.0000

> <Gold.PLP.ligand.torsion>
1.1871

> <Gold.PLP.Chemscore.Hbond>
3.0000

> <Gold.PLP.Chemscore.CHOScore>
1.0000

> <Gold.PLP.Chemscore.Metal>
0.0000

> <Gold.Chemscore.Hbonds>
donor molecule, donor type, donor heavy atom, donor atom, acceptor molecule, acceptor atom, score
      L1  H     3    56       P1  7948  2.00
      L1  H    24    51       P1  8028  0.85
      L1  C    19    46       P1  8028  1.00

> <Gold.PLP.Chemscore.Internal.Correction>
0.4260

> <Gold.Rescore>
     Score         DG    S(hbond)    S(metal)    S(lipo)     H(rot)  DE(clash)    DE(int)     intcor
      8.53     -14.00       1.85        0.00      77.34       2.62       2.05       3.42       ----

> <Gold.Chemscore.Fitness>
8.5310

> <Gold.Chemscore.DG>
-14.0000

> <Gold.Chemscore.ZeroCoef>
-5.4800

> <Gold.Chemscore.Hbond>
1.8506

> <Gold.Chemscore.Metal>
0.0000

> <Gold.Chemscore.Lipo>
77.3427

> <Gold.Chemscore.Internal_Hbond>
0.0000

> <Gold.Chemscore.DEClash>
2.0529

> <Gold.Chemscore.DEInternal>
3.4161

> <Gold.Chemscore.Rot>
2.6212

> <Gold.Chemscore.Internal.Correction>
   9.000000E+99

> <Gold.Chemscore.Hbonds>
donor molecule, donor type, donor heavy atom, donor atom, acceptor molecule, acceptor atom, score
      L1  H     3    56       P1  7948  0.93
      L1  H    24    51       P1  8028  0.74

> <Gold.Chemscore.Hbond.Weighted>
-6.1811

> <Gold.Chemscore.Metal.Weighted>
-0.0000

> <Gold.Chemscore.Lipo.Weighted>
-9.0491

> <Gold.Chemscore.Internal_Hbond.Weighted>
0.0000

> <Gold.Chemscore.DEClash.Weighted>
2.0529

> <Gold.Chemscore.DEInternal.Weighted>
3.4161

> <Gold.Chemscore.Rot.Weighted>
6.7102

> <Gold.Chemscore.Internal.Correction.Weighted>
   9.000000E+99

> <Gold.Protein.RotatedTorsions>
[ 6907 6896 6895 6894 ] final   38.93 input  -60.11 | X-H torsion
[ 7974 7965 7964 7962 ] final   98.64 input  175.53 | X-H torsion
[ 8008 7997 7996 7995 ] final   12.79 input   59.86 | X-H torsion
[ 10167 10162 10161 10158 ] final   15.38 input  -65.29 | X-H torsion
[ 10718 10713 10712 10709 ] final  148.25 input   66.30 | X-H torsion
[ 10763 10752 10751 10750 ] final   17.91 input  -60.55 | X-H torsion
[ 11005 11000 10999 10996 ] final  -70.88 input  -57.11 | X-H torsion

> <Gold.Protein.ActiveResidues>
 VAL166  LYS551  ARG553  GLY616  TRP617  ASP618  TYR619  PRO620  LYS621  CYS622 
 ASP623  PHE694  ASN695  SER759  ASP760  ASP761  ALA762  ILE779  LEU786  VAL792 
 PHE793  MET794  SER795  GLU796  ALA797  LYS798  CYS799  TRP800  GLU811  SER814 

> <Gold.Protein.RotatedAtoms>
  152.1628  134.8898  160.0540 H   0  0  0  0  0  0  0  0  0  0  0  0  # atno 6907 bound_to 6896
  151.9887  133.3778  159.4144 H   0  0  0  0  0  0  0  0  0  0  0  0  # atno 6908 bound_to 6896
  150.6890  134.3883  159.5108 H   0  0  0  0  0  0  0  0  0  0  0  0  # atno 6909 bound_to 6896
  145.4095  139.2336  143.3256 H   0  0  0  0  0  0  0  0  0  0  0  0  # atno 7974 bound_to 7965
  154.8254  140.2891  155.5758 H   0  0  0  0  0  0  0  0  0  0  0  0  # atno 8008 bound_to 7997
  156.3001  140.2542  156.3100 H   0  0  0  0  0  0  0  0  0  0  0  0  # atno 8009 bound_to 7997
  154.9291  140.0384  157.2028 H   0  0  0  0  0  0  0  0  0  0  0  0  # atno 8010 bound_to 7997
  140.5871  143.8868  150.6840 H   0  0  0  0  0  0  0  0  0  0  0  0  # atno 10167 bound_to 10162
  157.3109  131.0887  151.1317 H   0  0  0  0  0  0  0  0  0  0  0  0  # atno 10718 bound_to 10713
  153.1296  135.6737  153.9199 H   0  0  0  0  0  0  0  0  0  0  0  0  # atno 10763 bound_to 10752
  153.8690  135.3072  155.3442 H   0  0  0  0  0  0  0  0  0  0  0  0  # atno 10764 bound_to 10752
  154.7696  135.4946  153.9703 H   0  0  0  0  0  0  0  0  0  0  0  0  # atno 10765 bound_to 10752
  141.1582  133.6802  156.6820 H   0  0  0  0  0  0  0  0  0  0  0  0  # atno 11005 bound_to 11000
  146.2712  140.4804  142.8814 LP  0  0  0  0  0  0  0  0  0  0  0  0  # atno 17320 bound_to 7965
  144.8319  140.6720  143.6286 LP  0  0  0  0  0  0  0  0  0  0  0  0  # atno 17321 bound_to 7965
  140.2381  143.3684  152.1509 LP  0  0  0  0  0  0  0  0  0  0  0  0  # atno 17342 bound_to 10162
  139.5204  144.7033  151.5429 LP  0  0  0  0  0  0  0  0  0  0  0  0  # atno 17343 bound_to 10162
  157.2639  130.6672  149.5987 LP  0  0  0  0  0  0  0  0  0  0  0  0  # atno 17370 bound_to 10713
  155.9678  130.4500  150.5680 LP  0  0  0  0  0  0  0  0  0  0  0  0  # atno 17371 bound_to 10713
  140.3095  134.8097  157.4165 LP  0  0  0  0  0  0  0  0  0  0  0  0  # atno 17394 bound_to 11000
  140.1191  134.5244  155.8199 LP  0  0  0  0  0  0  0  0  0  0  0  0  # atno 17395 bound_to 11000

$$$$
