AV-unprocessed.smi:3063|AV-procd|sdf|11686|dock4
  -GOLD-   2272017 93D 1   1.00000     0.00000
 Structure written by MMmdl.
 44 45  0  0  0  0  0  0  0  0  1 V2000
  151.3861  141.0809  158.3612 C   0  0  0  0  0  0  0  0  0  0  0  0
  151.9734  140.2076  157.2501 C   0  0  0  0  0  0  0  0  0  0  0  0
  152.8509  139.3984  157.5514 O   0  0  0  0  0  0  0  0  0  0  0  0
  151.5027  140.3368  155.9855 N   0  0  0  0  0  0  0  0  0  0  0  0
  151.9358  139.4347  154.9082 C   0  0  0  0  0  0  0  0  0  0  0  0
  151.0572  138.1670  154.8524 C   0  0  0  0  0  0  0  0  0  0  0  0
  149.5608  138.4643  154.6147 C   0  0  0  0  0  0  0  0  0  0  0  0
  148.9880  139.2825  155.7016 N   0  0  0  0  0  0  0  0  0  0  0  0
  148.4742  138.7932  156.8603 C   0  0  0  0  0  0  0  0  0  0  0  0
  147.8578  139.4845  157.6724 O   0  0  0  0  0  0  0  0  0  0  0  0
  148.7035  137.4846  157.0666 N   0  0  0  0  0  0  0  0  0  0  0  0
  148.2641  136.7106  158.2257 C   0  0  1  0  0  0  0  0  0  0  0  0
  148.5831  135.2255  157.9893 C   0  0  0  0  0  0  0  0  0  0  0  0
  148.8644  137.2626  159.5413 C   0  0  0  0  0  0  0  0  0  0  0  0
  148.3820  136.5867  160.7340 N   0  0  0  0  0  0  0  0  0  0  0  0
  148.2866  135.2325  160.9774 C   0  0  0  0  0  0  0  0  0  0  0  0
  147.7757  135.0801  162.2347 C   0  0  0  0  0  0  0  0  0  0  0  0
  147.5821  136.4160  162.6847 C   0  0  0  0  0  0  0  0  0  0  0  0
  147.9434  137.3132  161.7831 N   0  0  0  0  0  0  0  0  0  0  0  0
  149.0572  140.7319  155.4424 C   0  0  0  0  0  0  0  0  0  0  0  0
  150.4873  141.3210  155.5700 C   0  0  0  0  0  0  0  0  0  0  0  0
  150.2973  141.0299  158.3653 H   0  0  0  0  0  0  0  0  0  0  0  0
  151.6917  142.1199  158.2362 H   0  0  0  0  0  0  0  0  0  0  0  0
  151.7358  140.7435  159.3374 H   0  0  0  0  0  0  0  0  0  0  0  0
  151.8950  139.9447  153.9450 H   0  0  0  0  0  0  0  0  0  0  0  0
  152.9828  139.1535  155.0333 H   0  0  0  0  0  0  0  0  0  0  0  0
  151.4207  137.5231  154.0511 H   0  0  0  0  0  0  0  0  0  0  0  0
  151.1796  137.5933  155.7711 H   0  0  0  0  0  0  0  0  0  0  0  0
  149.4494  138.9795  153.6598 H   0  0  0  0  0  0  0  0  0  0  0  0
  149.0082  137.5324  154.4880 H   0  0  0  0  0  0  0  0  0  0  0  0
  149.2313  136.9868  156.3646 H   0  0  0  0  0  0  0  0  0  0  0  0
  147.1785  136.8001  158.2949 H   0  0  0  0  0  0  0  0  0  0  0  0
  148.2693  134.6181  158.8385 H   0  0  0  0  0  0  0  0  0  0  0  0
  149.6501  135.0599  157.8365 H   0  0  0  0  0  0  0  0  0  0  0  0
  148.0634  134.8501  157.1073 H   0  0  0  0  0  0  0  0  0  0  0  0
  149.9541  137.2105  159.5253 H   0  0  0  0  0  0  0  0  0  0  0  0
  148.6171  138.3207  159.6351 H   0  0  0  0  0  0  0  0  0  0  0  0
  148.5907  134.4988  160.2454 H   0  0  0  0  0  0  0  0  0  0  0  0
  147.5703  134.1555  162.7532 H   0  0  0  0  0  0  0  0  0  0  0  0
  147.1920  136.7597  163.6315 H   0  0  0  0  0  0  0  0  0  0  0  0
  148.6728  140.9324  154.4416 H   0  0  0  0  0  0  0  0  0  0  0  0
  148.3870  141.2905  156.0973 H   0  0  0  0  0  0  0  0  0  0  0  0
  150.4677  142.1894  156.2280 H   0  0  0  0  0  0  0  0  0  0  0  0
  150.7801  141.7395  154.6064 H   0  0  0  0  0  0  0  0  0  0  0  0
  1  2  1  0  0  0  0
  1 22  1  0  0  0  0
  1 23  1  0  0  0  0
  1 24  1  0  0  0  0
  2  3  2  0  0  0  0
  2  4  1  0  0  0  0
  4 21  1  0  0  0  0
  4  5  1  0  0  0  0
  5  6  1  0  0  0  0
  5 25  1  0  0  0  0
  5 26  1  0  0  0  0
  6  7  1  0  0  0  0
  6 27  1  0  0  0  0
  6 28  1  0  0  0  0
  7  8  1  0  0  0  0
  7 29  1  0  0  0  0
  7 30  1  0  0  0  0
  8  9  1  0  0  0  0
  8 20  1  0  0  0  0
  9 10  2  0  0  0  0
  9 11  1  0  0  0  0
 11 12  1  0  0  0  0
 11 31  1  0  0  0  0
 12 13  1  0  0  0  0
 12 14  1  0  0  0  0
 12 32  1  0  0  0  0
 13 33  1  0  0  0  0
 13 34  1  0  0  0  0
 13 35  1  0  0  0  0
 14 15  1  0  0  0  0
 14 36  1  0  0  0  0
 14 37  1  0  0  0  0
 15 19  1  0  0  0  0
 15 16  1  0  0  0  0
 16 17  2  0  0  0  0
 16 38  1  0  0  0  0
 17 18  1  0  0  0  0
 17 39  1  0  0  0  0
 18 19  2  0  0  0  0
 18 40  1  0  0  0  0
 20 21  1  0  0  0  0
 20 41  1  0  0  0  0
 20 42  1  0  0  0  0
 21 43  1  0  0  0  0
 21 44  1  0  0  0  0
M  END
> <s_m_source_file>
AV-unprocessed.smi

> <i_m_source_file_index>
3063

> <i_lp_mmshare_version>
43012

> <i_f3d_flags>
0

> <s_epik_input>
W0NIM11DKD1PKU4xW0NIMl1bQ0gyXVtDSDJdTihbQ0gyXVtDSDJdMSlDKD1PKVtOSF1bQ0BIXShbQ0gzXSlbQ0gyXW4yW2NIXVtjSF1bY0hdbjI=

> <s_epik_cmdline>
J2VwaWtfcHl0aG9uJywgJy1waCcsICc3LjAnLCAnLXRuJywgJzgnLCAnLW1hJywgJzIwMCcsICctbWV0YWxfYmluZGluZycsICctaW1hZScsICc8aW5maWxlLm1hZT4nLCAnLW9tYWUnLCAnPG91dGZpbGUubWFlPic=

> <r_lp_tautomer_probability>
1

> <r_epik_Ionization_Penalty>
6.19559e-05

> <r_epik_Ionization_Penalty_Charging>
0

> <r_epik_Ionization_Penalty_Neutral>
6.19559e-05

> <r_epik_State_Penalty>
-0

> <r_epik_Charging_Adjusted_Penalty>
0

> <i_epik_Tot_Q>
0

> <i_epik_Tot_abs_Q>
0

> <r_epik_Metal_State_Penalty>
-0

> <b_epik_Metal_Only>
0

> <s_lp_Force_Field>
OPLS_2005

> <r_lp_Energy>
38.4864

> <b_lp_Chiralities_Consistent>
1

> <s_lp_Variant>
AV-unprocessed.smi:3063-2

> <Gold.Version>
5.8.1

> <Gold.Id.Protein>
6NUR|6NUR_protein|mol2

> <Gold.PLP.Fitness>
43.0073

> <Gold.PLP.PLP>
-35.1305

> <Gold.PLP.part.hbond>
-2.9902

> <Gold.PLP.part.metal>
0.0000

> <Gold.PLP.part.buried>
-1.9788

> <Gold.PLP.part.nonpolar>
-29.2000

> <Gold.PLP.part.repulsive>
0.0005

> <Gold.PLP.ligand.clash>
0.0000

> <Gold.PLP.ligand.torsion>
0.2131

> <Gold.PLP.Chemscore.Hbond>
2.7520

> <Gold.PLP.Chemscore.CHOScore>
0.0000

> <Gold.PLP.Chemscore.Metal>
0.0000

> <Gold.Chemscore.Hbonds>
donor molecule, donor type, donor heavy atom, donor atom, acceptor molecule, acceptor atom, score
      P1  H  6931  6943       L1    19  0.76
      P1  H  6934  6947       L1    19  0.55
      P1  H  7997  8009       L1     3  1.00

> <Gold.PLP.Chemscore.Internal.Correction>
0.0469

> <Gold.Rescore>
     Score         DG    S(hbond)    S(metal)    S(lipo)     H(rot)  DE(clash)    DE(int)     intcor
     15.91     -18.12       2.24        0.00      75.41       1.44       1.66       0.55       ----

> <Gold.Chemscore.Fitness>
15.9110

> <Gold.Chemscore.DG>
-18.1191

> <Gold.Chemscore.ZeroCoef>
-5.4800

> <Gold.Chemscore.Hbond>
2.2437

> <Gold.Chemscore.Metal>
0.0000

> <Gold.Chemscore.Lipo>
75.4128

> <Gold.Chemscore.Internal_Hbond>
0.0000

> <Gold.Chemscore.DEClash>
1.6561

> <Gold.Chemscore.DEInternal>
0.5519

> <Gold.Chemscore.Rot>
1.4368

> <Gold.Chemscore.Internal.Correction>
   9.000000E+99

> <Gold.Chemscore.Hbonds>
donor molecule, donor type, donor heavy atom, donor atom, acceptor molecule, acceptor atom, score
      P1  H  6931  6943       L1    19  0.22
      P1  H  6934  6947       L1    19  0.26
      P1  H  7997  8009       L1     3  0.55

> <Gold.Chemscore.Hbond.Weighted>
-7.4940

> <Gold.Chemscore.Metal.Weighted>
-0.0000

> <Gold.Chemscore.Lipo.Weighted>
-8.8233

> <Gold.Chemscore.Internal_Hbond.Weighted>
0.0000

> <Gold.Chemscore.DEClash.Weighted>
1.6561

> <Gold.Chemscore.DEInternal.Weighted>
0.5519

> <Gold.Chemscore.Rot.Weighted>
3.6782

> <Gold.Chemscore.Internal.Correction.Weighted>
   9.000000E+99

> <Gold.Protein.RotatedTorsions>
[ 6907 6896 6895 6894 ] final  149.54 input  -60.11 | X-H torsion
[ 7974 7965 7964 7962 ] final -108.70 input  175.53 | X-H torsion
[ 8008 7997 7996 7995 ] final  169.69 input   59.86 | X-H torsion
[ 10167 10162 10161 10158 ] final  -11.93 input  -65.29 | X-H torsion
[ 10718 10713 10712 10709 ] final  -60.39 input   66.30 | X-H torsion
[ 10763 10752 10751 10750 ] final   53.17 input  -60.55 | X-H torsion
[ 11005 11000 10999 10996 ] final  -62.63 input  -57.11 | X-H torsion

> <Gold.Protein.ActiveResidues>
 VAL166  LYS551  ARG553  GLY616  TRP617  ASP618  TYR619  PRO620  LYS621  CYS622 
 ASP623  PHE694  ASN695  SER759  ASP760  ASP761  ALA762  ILE779  LEU786  VAL792 
 PHE793  MET794  SER795  GLU796  ALA797  LYS798  CYS799  TRP800  GLU811  SER814 

> <Gold.Protein.RotatedAtoms>
  152.1266  133.4384  159.4700 H   0  0  0  0  0  0  0  0  0  0  0  0  # atno 6907 bound_to 6896
  150.6875  134.2471  159.4505 H   0  0  0  0  0  0  0  0  0  0  0  0  # atno 6908 bound_to 6896
  152.0351  134.9744  160.0624 H   0  0  0  0  0  0  0  0  0  0  0  0  # atno 6909 bound_to 6896
  145.1896  140.9009  143.3432 H   0  0  0  0  0  0  0  0  0  0  0  0  # atno 7974 bound_to 7965
  156.1434  140.1557  156.8885 H   0  0  0  0  0  0  0  0  0  0  0  0  # atno 8008 bound_to 7997
  154.5007  140.0826  156.7830 H   0  0  0  0  0  0  0  0  0  0  0  0  # atno 8009 bound_to 7997
  155.4035  140.3415  155.4261 H   0  0  0  0  0  0  0  0  0  0  0  0  # atno 8010 bound_to 7997
  140.7150  143.5587  150.9220 H   0  0  0  0  0  0  0  0  0  0  0  0  # atno 10167 bound_to 10162
  156.0994  130.4188  150.0847 H   0  0  0  0  0  0  0  0  0  0  0  0  # atno 10718 bound_to 10713
  152.9793  135.5788  154.4697 H   0  0  0  0  0  0  0  0  0  0  0  0  # atno 10763 bound_to 10752
  154.4261  135.2772  155.1945 H   0  0  0  0  0  0  0  0  0  0  0  0  # atno 10764 bound_to 10752
  154.3673  135.6175  153.5775 H   0  0  0  0  0  0  0  0  0  0  0  0  # atno 10765 bound_to 10752
  141.1366  133.6642  156.5556 H   0  0  0  0  0  0  0  0  0  0  0  0  # atno 11005 bound_to 11000
  145.0054  139.3559  143.6146 LP  0  0  0  0  0  0  0  0  0  0  0  0  # atno 17320 bound_to 7965
  146.3438  139.9295  142.8755 LP  0  0  0  0  0  0  0  0  0  0  0  0  # atno 17321 bound_to 7965
  139.9312  143.6491  152.3076 LP  0  0  0  0  0  0  0  0  0  0  0  0  # atno 17342 bound_to 10162
  139.6942  144.7643  151.1385 LP  0  0  0  0  0  0  0  0  0  0  0  0  # atno 17343 bound_to 10162
  156.8838  130.9565  151.3596 LP  0  0  0  0  0  0  0  0  0  0  0  0  # atno 17370 bound_to 10713
  157.6161  130.8620  149.9031 LP  0  0  0  0  0  0  0  0  0  0  0  0  # atno 17371 bound_to 10713
  140.4029  134.7341  157.4790 LP  0  0  0  0  0  0  0  0  0  0  0  0  # atno 17394 bound_to 11000
  140.0483  134.6167  155.8893 LP  0  0  0  0  0  0  0  0  0  0  0  0  # atno 17395 bound_to 11000

$$$$
