AV-unprocessed.smi:1255|AV-procd|sdf|5282|dock6
  -GOLD-   22720 4403D 1   1.00000     0.00000
 Structure written by MMmdl.
 40 41  0  0  0  0  0  0  0  0  1 V2000
  146.5873  139.4407  151.3446 C   0  0  0  0  0  0  0  0  0  0  0  0
  146.1633  138.7436  152.6483 C   0  0  1  0  0  0  0  0  0  0  0  0
  146.5845  137.3453  152.5721 N   0  0  0  0  0  0  0  0  0  0  0  0
  145.7545  136.2969  152.4685 C   0  0  0  0  0  0  0  0  0  0  0  0
  146.4056  135.1338  152.4494 N   0  0  0  0  0  0  0  0  0  0  0  0
  144.5299  136.3814  152.4006 O   0  0  0  0  0  0  0  0  0  0  0  0
  146.8605  139.4564  153.8193 C   0  0  0  0  0  0  0  0  0  0  0  0
  146.1887  139.9588  154.7214 O   0  0  0  0  0  0  0  0  0  0  0  0
  148.2050  139.4777  153.7655 N   0  0  0  0  0  0  0  0  0  0  0  0
  149.1224  140.0497  154.6883 C   0  0  0  0  0  0  0  0  0  0  0  0
  150.4398  139.5812  154.8993 C   0  0  0  0  0  0  0  0  0  0  0  0
  151.2602  140.2474  155.8298 C   0  0  0  0  0  0  0  0  0  0  0  0
  150.7516  141.3697  156.5256 C   0  0  0  0  0  0  0  0  0  0  0  0
  151.5571  142.0511  157.4648 N   0  0  0  0  0  0  0  0  0  0  0  0
  151.2677  143.4607  157.7233 C   0  0  0  0  0  0  0  0  0  0  0  0
  152.4095  144.1039  158.5281 C   0  0  0  0  0  0  0  0  0  0  0  0
  152.6283  143.3628  159.7235 O   0  0  0  0  0  0  0  0  0  0  0  0
  153.0178  142.0211  159.4495 C   0  0  0  0  0  0  0  0  0  0  0  0
  151.9038  141.3007  158.6698 C   0  0  0  0  0  0  0  0  0  0  0  0
  149.4949  141.8277  156.3044 N   0  0  0  0  0  0  0  0  0  0  0  0
  148.7115  141.1861  155.4125 C   0  0  0  0  0  0  0  0  0  0  0  0
  146.2942  140.4915  151.3439 H   0  0  0  0  0  0  0  0  0  0  0  0
  146.1131  138.9725  150.4815 H   0  0  0  0  0  0  0  0  0  0  0  0
  147.6668  139.3963  151.1908 H   0  0  0  0  0  0  0  0  0  0  0  0
  145.0784  138.8010  152.7579 H   0  0  0  0  0  0  0  0  0  0  0  0
  147.5762  137.1661  152.6277 H   0  0  0  0  0  0  0  0  0  0  0  0
  145.8961  134.2664  152.3676 H   0  0  0  0  0  0  0  0  0  0  0  0
  147.4135  135.1279  152.5105 H   0  0  0  0  0  0  0  0  0  0  0  0
  148.6172  139.0941  152.9273 H   0  0  0  0  0  0  0  0  0  0  0  0
  150.8440  138.7406  154.3575 H   0  0  0  0  0  0  0  0  0  0  0  0
  152.2716  139.9018  155.9820 H   0  0  0  0  0  0  0  0  0  0  0  0
  151.1414  144.0001  156.7837 H   0  0  0  0  0  0  0  0  0  0  0  0
  150.3305  143.5412  158.2756 H   0  0  0  0  0  0  0  0  0  0  0  0
  153.3270  144.1444  157.9385 H   0  0  0  0  0  0  0  0  0  0  0  0
  152.1534  145.1310  158.7883 H   0  0  0  0  0  0  0  0  0  0  0  0
  153.9536  142.0101  158.8885 H   0  0  0  0  0  0  0  0  0  0  0  0
  153.2070  141.5081  160.3924 H   0  0  0  0  0  0  0  0  0  0  0  0
  151.0136  141.2066  159.2929 H   0  0  0  0  0  0  0  0  0  0  0  0
  152.2350  140.2899  158.4368 H   0  0  0  0  0  0  0  0  0  0  0  0
  147.7206  141.5942  155.2764 H   0  0  0  0  0  0  0  0  0  0  0  0
  1  2  1  0  0  0  0
  1 22  1  0  0  0  0
  1 23  1  0  0  0  0
  1 24  1  0  0  0  0
  2  3  1  0  0  0  0
  2  7  1  0  0  0  0
  2 25  1  0  0  0  0
  3  4  1  0  0  0  0
  3 26  1  0  0  0  0
  4  5  1  0  0  0  0
  4  6  2  0  0  0  0
  5 27  1  0  0  0  0
  5 28  1  0  0  0  0
  7  8  2  0  0  0  0
  7  9  1  0  0  0  0
  9 10  1  0  0  0  0
  9 29  1  0  0  0  0
 10 21  1  0  0  0  0
 10 11  2  0  0  0  0
 11 12  1  0  0  0  0
 11 30  1  0  0  0  0
 12 13  2  0  0  0  0
 12 31  1  0  0  0  0
 13 14  1  0  0  0  0
 13 20  1  0  0  0  0
 14 19  1  0  0  0  0
 14 15  1  0  0  0  0
 15 16  1  0  0  0  0
 15 32  1  0  0  0  0
 15 33  1  0  0  0  0
 16 17  1  0  0  0  0
 16 34  1  0  0  0  0
 16 35  1  0  0  0  0
 17 18  1  0  0  0  0
 18 19  1  0  0  0  0
 18 36  1  0  0  0  0
 18 37  1  0  0  0  0
 19 38  1  0  0  0  0
 19 39  1  0  0  0  0
 20 21  2  0  0  0  0
 21 40  1  0  0  0  0
M  END
> <s_m_source_file>
AV-unprocessed.smi

> <i_m_source_file_index>
1255

> <i_lp_mmshare_version>
43012

> <i_f3d_flags>
0

> <s_epik_input>
W05IMl1DKD1PKVtOSF1bQ0BASF0oW0NIM10pQyg9TylbTkhdYzFbY0hdW2NIXWMobltjSF0xKU4yW0NIMl1bQ0gyXU9bQ0gyXVtDSDJdMg==

> <s_epik_cmdline>
J2VwaWtfcHl0aG9uJywgJy1waCcsICc3LjAnLCAnLXRuJywgJzgnLCAnLW1hJywgJzIwMCcsICctbWV0YWxfYmluZGluZycsICctaW1hZScsICc8aW5maWxlLm1hZT4nLCAnLW9tYWUnLCAnPG91dGZpbGUubWFlPic=

> <r_lp_tautomer_probability>
1

> <r_epik_Ionization_Penalty>
0.00069351

> <r_epik_Ionization_Penalty_Charging>
0

> <r_epik_Ionization_Penalty_Neutral>
0.00069351

> <r_epik_State_Penalty>
0.000408291

> <r_epik_Charging_Adjusted_Penalty>
0.000408291

> <i_epik_Tot_Q>
0

> <i_epik_Tot_abs_Q>
0

> <r_epik_Metal_State_Penalty>
-0

> <b_epik_Metal_Only>
0

> <s_lp_Force_Field>
OPLS_2005

> <r_lp_Energy>
18.2011

> <b_lp_Chiralities_Consistent>
1

> <s_lp_Variant>
AV-unprocessed.smi:1255-2

> <Gold.Version>
5.8.1

> <Gold.Id.Protein>
6NUR|6NUR_protein|mol2

> <Gold.PLP.Fitness>
41.5633

> <Gold.PLP.PLP>
-35.4876

> <Gold.PLP.part.hbond>
-3.0000

> <Gold.PLP.part.metal>
0.0000

> <Gold.PLP.part.buried>
1.2047

> <Gold.PLP.part.nonpolar>
-34.7363

> <Gold.PLP.part.repulsive>
1.8467

> <Gold.PLP.ligand.clash>
0.0000

> <Gold.PLP.ligand.torsion>
0.6689

> <Gold.PLP.Chemscore.Hbond>
2.3520

> <Gold.PLP.Chemscore.CHOScore>
0.0000

> <Gold.PLP.Chemscore.Metal>
0.0000

> <Gold.Chemscore.Hbonds>
donor molecule, donor type, donor heavy atom, donor atom, acceptor molecule, acceptor atom, score
      L1  H     3    26       P1  7948  0.86
      L1  H     5    28       P1  7948  0.77
      L1  H     9    29       P1  7957  0.34

> <Gold.PLP.Chemscore.Internal.Correction>
0.3575

> <Gold.Rescore>
     Score         DG    S(hbond)    S(metal)    S(lipo)     H(rot)  DE(clash)    DE(int)     intcor
     15.22     -18.92       2.44        0.00      86.90       1.91       1.75       1.95       ----

> <Gold.Chemscore.Fitness>
15.2202

> <Gold.Chemscore.DG>
-18.9228

> <Gold.Chemscore.ZeroCoef>
-5.4800

> <Gold.Chemscore.Hbond>
2.4419

> <Gold.Chemscore.Metal>
0.0000

> <Gold.Chemscore.Lipo>
86.9041

> <Gold.Chemscore.Internal_Hbond>
0.0000

> <Gold.Chemscore.DEClash>
1.7547

> <Gold.Chemscore.DEInternal>
1.9479

> <Gold.Chemscore.Rot>
1.9067

> <Gold.Chemscore.Internal.Correction>
   9.000000E+99

> <Gold.Chemscore.Hbonds>
donor molecule, donor type, donor heavy atom, donor atom, acceptor molecule, acceptor atom, score
      L1  H     3    26       P1  7948  0.85
      L1  H     5    28       P1  7948  0.74
      L1  H     9    29       P1  7957  0.33

> <Gold.Chemscore.Hbond.Weighted>
-8.1561

> <Gold.Chemscore.Metal.Weighted>
-0.0000

> <Gold.Chemscore.Lipo.Weighted>
-10.1678

> <Gold.Chemscore.Internal_Hbond.Weighted>
0.0000

> <Gold.Chemscore.DEClash.Weighted>
1.7547

> <Gold.Chemscore.DEInternal.Weighted>
1.9479

> <Gold.Chemscore.Rot.Weighted>
4.8811

> <Gold.Chemscore.Internal.Correction.Weighted>
   9.000000E+99

> <Gold.Protein.RotatedTorsions>
[ 6907 6896 6895 6894 ] final   66.54 input  -60.11 | X-H torsion
[ 7974 7965 7964 7962 ] final   11.78 input  175.53 | X-H torsion
[ 8008 7997 7996 7995 ] final  -26.46 input   59.86 | X-H torsion
[ 10167 10162 10161 10158 ] final  141.57 input  -65.29 | X-H torsion
[ 10718 10713 10712 10709 ] final  -16.14 input   66.30 | X-H torsion
[ 10763 10752 10751 10750 ] final  -23.20 input  -60.55 | X-H torsion
[ 11005 11000 10999 10996 ] final   65.50 input  -57.11 | X-H torsion

> <Gold.Protein.ActiveResidues>
 VAL166  LYS551  ARG553  GLY616  TRP617  ASP618  TYR619  PRO620  LYS621  CYS622 
 ASP623  PHE694  ASN695  SER759  ASP760  ASP761  ALA762  ILE779  LEU786  VAL792 
 PHE793  MET794  SER795  GLU796  ALA797  LYS798  CYS799  TRP800  GLU811  SER814 

> <Gold.Protein.RotatedAtoms>
  152.4488  134.5438  159.9846 H   0  0  0  0  0  0  0  0  0  0  0  0  # atno 6907 bound_to 6896
  151.5516  133.3411  159.2962 H   0  0  0  0  0  0  0  0  0  0  0  0  # atno 6908 bound_to 6896
  150.8411  134.7736  159.6996 H   0  0  0  0  0  0  0  0  0  0  0  0  # atno 6909 bound_to 6896
  146.2364  139.9434  142.8480 H   0  0  0  0  0  0  0  0  0  0  0  0  # atno 7974 bound_to 7965
  154.4424  140.1899  156.0779 H   0  0  0  0  0  0  0  0  0  0  0  0  # atno 8008 bound_to 7997
  156.0461  140.3314  155.7271 H   0  0  0  0  0  0  0  0  0  0  0  0  # atno 8009 bound_to 7997
  155.5627  140.0605  157.2816 H   0  0  0  0  0  0  0  0  0  0  0  0  # atno 8010 bound_to 7997
  139.5017  144.6163  151.6156 H   0  0  0  0  0  0  0  0  0  0  0  0  # atno 10167 bound_to 10162
  156.5918  130.4801  149.6276 H   0  0  0  0  0  0  0  0  0  0  0  0  # atno 10718 bound_to 10713
  153.6641  135.6975  153.5168 H   0  0  0  0  0  0  0  0  0  0  0  0  # atno 10763 bound_to 10752
  153.2609  135.4245  155.0892 H   0  0  0  0  0  0  0  0  0  0  0  0  # atno 10764 bound_to 10752
  154.8444  135.3554  154.6185 H   0  0  0  0  0  0  0  0  0  0  0  0  # atno 10765 bound_to 10752
  139.9890  134.6621  156.0124 H   0  0  0  0  0  0  0  0  0  0  0  0  # atno 11005 bound_to 11000
  145.1931  140.9820  143.4199 LP  0  0  0  0  0  0  0  0  0  0  0  0  # atno 17320 bound_to 7965
  144.9840  139.3755  143.6248 LP  0  0  0  0  0  0  0  0  0  0  0  0  # atno 17321 bound_to 7965
  140.5852  143.9877  150.6291 LP  0  0  0  0  0  0  0  0  0  0  0  0  # atno 17342 bound_to 10162
  140.3039  143.3242  152.0945 LP  0  0  0  0  0  0  0  0  0  0  0  0  # atno 17343 bound_to 10162
  156.2543  130.6925  151.1673 LP  0  0  0  0  0  0  0  0  0  0  0  0  # atno 17370 bound_to 10713
  157.7302  131.0618  150.5739 LP  0  0  0  0  0  0  0  0  0  0  0  0  # atno 17371 bound_to 10713
  141.1550  133.6544  156.4132 LP  0  0  0  0  0  0  0  0  0  0  0  0  # atno 17394 bound_to 11000
  140.4945  134.6544  157.5224 LP  0  0  0  0  0  0  0  0  0  0  0  0  # atno 17395 bound_to 11000

$$$$
