AV-unprocessed.smi:1205|AV-procd|sdf|5043|dock3
  -GOLD-   22720 4 63D 1   1.00000     0.00000
 Structure written by MMmdl.
 49 50  0  0  0  0  0  0  0  0  2 V2000
  150.4108  142.0091  156.1426 C   0  0  0  0  0  0  0  0  0  0  0  0
  150.1351  140.7651  155.3506 C   0  0  0  0  0  0  0  0  0  0  0  0
  148.9420  140.4134  154.6547 C   0  0  0  0  0  0  0  0  0  0  0  0
  149.2529  139.1921  154.1222 C   0  0  0  0  0  0  0  0  0  0  0  0
  148.4886  138.3785  153.3457 N   0  0  0  0  0  0  0  0  0  0  0  0
  147.2170  138.5518  152.9458 C   0  0  0  0  0  0  0  0  0  0  0  0
  146.5026  139.5132  153.2308 O   0  0  0  0  0  0  0  0  0  0  0  0
  146.8069  137.5318  152.1771 N   0  0  0  0  0  0  0  0  0  0  0  0
  145.4738  137.3936  151.5954 C   0  0  0  0  0  0  0  0  0  0  0  0
  144.6694  136.2244  152.2110 C   0  0  2  0  0  0  0  0  0  0  0  0
  144.7706  136.1455  153.7507 C   0  0  0  0  0  0  0  0  0  0  0  0
  145.0289  134.9382  151.5444 N   0  3  1  0  0  0  0  0  0  0  0  0
  146.3611  134.3826  151.9095 C   0  0  0  0  0  0  0  0  0  0  0  0
  146.7350  133.2151  150.9838 C   0  0  0  0  0  0  0  0  0  0  0  0
  145.6560  132.1227  151.0167 C   0  0  0  0  0  0  0  0  0  0  0  0
  144.2614  132.7018  150.7113 C   0  0  2  0  0  0  0  0  0  0  0  0
  144.0722  133.0437  149.2229 C   0  0  0  0  0  0  0  0  0  0  0  0
  143.9599  133.9061  151.6282 C   0  0  0  0  0  0  0  0  0  0  0  0
  150.5400  138.8630  154.4853 N   0  0  0  0  0  0  0  0  0  0  0  0
  151.3158  137.6810  154.1642 C   0  0  0  0  0  0  0  0  0  0  0  0
  151.0819  139.8395  155.2445 N   0  0  0  0  0  0  0  0  0  0  0  0
  149.5230  142.6382  156.2106 H   0  0  0  0  0  0  0  0  0  0  0  0
  151.2017  142.6005  155.6808 H   0  0  0  0  0  0  0  0  0  0  0  0
  150.7238  141.7672  157.1588 H   0  0  0  0  0  0  0  0  0  0  0  0
  148.0260  140.9787  154.5721 H   0  0  0  0  0  0  0  0  0  0  0  0
  148.9400  137.5285  153.0414 H   0  0  0  0  0  0  0  0  0  0  0  0
  147.4618  136.7853  151.9934 H   0  0  0  0  0  0  0  0  0  0  0  0
  144.9442  138.3305  151.7713 H   0  0  0  0  0  0  0  0  0  0  0  0
  145.5491  137.2935  150.5122 H   0  0  0  0  0  0  0  0  0  0  0  0
  143.6242  136.4256  151.9714 H   0  0  0  0  0  0  0  0  0  0  0  0
  144.3314  137.0254  154.2204 H   0  0  0  0  0  0  0  0  0  0  0  0
  145.8063  136.0835  154.0851 H   0  0  0  0  0  0  0  0  0  0  0  0
  144.2373  135.2819  154.1470 H   0  0  0  0  0  0  0  0  0  0  0  0
  147.1305  135.1503  151.8393 H   0  0  0  0  0  0  0  0  0  0  0  0
  146.3516  134.0373  152.9442 H   0  0  0  0  0  0  0  0  0  0  0  0
  146.8685  133.5795  149.9649 H   0  0  0  0  0  0  0  0  0  0  0  0
  147.6950  132.7951  151.2854 H   0  0  0  0  0  0  0  0  0  0  0  0
  145.9025  131.3243  150.3162 H   0  0  0  0  0  0  0  0  0  0  0  0
  145.6447  131.6655  152.0072 H   0  0  0  0  0  0  0  0  0  0  0  0
  143.5311  131.9250  150.9419 H   0  0  0  0  0  0  0  0  0  0  0  0
  144.7419  133.8403  148.8986 H   0  0  0  0  0  0  0  0  0  0  0  0
  143.0514  133.3716  149.0244 H   0  0  0  0  0  0  0  0  0  0  0  0
  144.2631  132.1738  148.5939 H   0  0  0  0  0  0  0  0  0  0  0  0
  143.8651  133.5662  152.6603 H   0  0  0  0  0  0  0  0  0  0  0  0
  142.9962  134.3368  151.3529 H   0  0  0  0  0  0  0  0  0  0  0  0
  150.7092  136.7879  154.3179 H   0  0  0  0  0  0  0  0  0  0  0  0
  152.1993  137.6184  154.8011 H   0  0  0  0  0  0  0  0  0  0  0  0
  151.6313  137.7236  153.1215 H   0  0  0  0  0  0  0  0  0  0  0  0
  145.0885  135.1658  150.5621 H   0  0  0  0  0  0  0  0  0  0  0  0
  1  2  1  0  0  0  0
  1 22  1  0  0  0  0
  1 23  1  0  0  0  0
  1 24  1  0  0  0  0
  2 21  2  0  0  0  0
  2  3  1  0  0  0  0
  3  4  2  0  0  0  0
  3 25  1  0  0  0  0
  4  5  1  0  0  0  0
  4 19  1  0  0  0  0
  5  6  1  0  0  0  0
  5 26  1  0  0  0  0
  6  7  2  0  0  0  0
  6  8  1  0  0  0  0
  8  9  1  0  0  0  0
  8 27  1  0  0  0  0
  9 10  1  0  0  0  0
  9 28  1  0  0  0  0
  9 29  1  0  0  0  0
 10 11  1  0  0  0  0
 10 12  1  0  0  0  0
 10 30  1  0  0  0  0
 11 31  1  0  0  0  0
 11 32  1  0  0  0  0
 11 33  1  0  0  0  0
 12 18  1  0  0  0  0
 12 13  1  0  0  0  0
 12 49  1  0  0  0  0
 13 14  1  0  0  0  0
 13 34  1  0  0  0  0
 13 35  1  0  0  0  0
 14 15  1  0  0  0  0
 14 36  1  0  0  0  0
 14 37  1  0  0  0  0
 15 16  1  0  0  0  0
 15 38  1  0  0  0  0
 15 39  1  0  0  0  0
 16 17  1  0  0  0  0
 16 18  1  0  0  0  0
 16 40  1  0  0  0  0
 17 41  1  0  0  0  0
 17 42  1  0  0  0  0
 17 43  1  0  0  0  0
 18 44  1  0  0  0  0
 18 45  1  0  0  0  0
 19 20  1  0  0  0  0
 19 21  1  0  0  0  0
 20 46  1  0  0  0  0
 20 47  1  0  0  0  0
 20 48  1  0  0  0  0
M  CHG  1  12   1
M  END
> <s_m_source_file>
AV-unprocessed.smi

> <i_m_source_file_index>
1205

> <i_lp_mmshare_version>
43012

> <i_f3d_flags>
0

> <s_epik_input>
W0NIM11jMVtjSF1jKG4objEpW0NIM10pW05IXUMoPU8pW05IXVtDSDJdW0NASF0oW0NIM10pTjJbQ0gyXVtDSDJdW0NIMl1bQ0BASF0oW0NIM10pW0NIMl0y

> <s_epik_cmdline>
J2VwaWtfcHl0aG9uJywgJy1waCcsICc3LjAnLCAnLXRuJywgJzgnLCAnLW1hJywgJzIwMCcsICctbWV0YWxfYmluZGluZycsICctaW1hZScsICc8aW5maWxlLm1hZT4nLCAnLW9tYWUnLCAnPG91dGZpbGUubWFlPic=

> <r_lp_tautomer_probability>
1

> <r_epik_Ionization_Penalty>
0.0020309

> <r_epik_Ionization_Penalty_Charging>
0.00195276

> <r_epik_Ionization_Penalty_Neutral>
7.81448e-05

> <r_epik_State_Penalty>
0.00133177

> <r_epik_Charging_Adjusted_Penalty>
0.00328452

> <i_epik_Tot_Q>
1

> <i_epik_Tot_abs_Q>
1

> <r_epik_Metal_State_Penalty>
-0

> <b_epik_Metal_Only>
0

> <s_lp_Force_Field>
OPLS_2005

> <r_lp_Energy>
25.0457

> <b_lp_Chiralities_Consistent>
1

> <s_lp_Variant>
AV-unprocessed.smi:1205-5

> <Gold.Version>
5.8.1

> <Gold.Id.Protein>
6NUR|6NUR_protein|mol2

> <Gold.PLP.Fitness>
42.9439

> <Gold.PLP.PLP>
-37.3958

> <Gold.PLP.part.hbond>
-3.9168

> <Gold.PLP.part.metal>
0.0000

> <Gold.PLP.part.buried>
2.5308

> <Gold.PLP.part.nonpolar>
-36.1142

> <Gold.PLP.part.repulsive>
0.6942

> <Gold.PLP.ligand.clash>
0.0000

> <Gold.PLP.ligand.torsion>
0.4768

> <Gold.PLP.Chemscore.Hbond>
2.1190

> <Gold.PLP.Chemscore.CHOScore>
0.0000

> <Gold.PLP.Chemscore.Metal>
0.0000

> <Gold.Chemscore.Hbonds>
donor molecule, donor type, donor heavy atom, donor atom, acceptor molecule, acceptor atom, score
      L1  H     5    26       P1  7948  0.93
      L1  H     8    27       P1  7948  1.00
      P1  H  7989  7998       L1    21  0.10

> <Gold.PLP.Chemscore.Internal.Correction>
0.1446

> <Gold.Rescore>
     Score         DG    S(hbond)    S(metal)    S(lipo)     H(rot)  DE(clash)    DE(int)     intcor
     15.62     -17.56       1.92        0.00      80.49       1.47       0.30       1.65       ----

> <Gold.Chemscore.Fitness>
15.6175

> <Gold.Chemscore.DG>
-17.5632

> <Gold.Chemscore.ZeroCoef>
-5.4800

> <Gold.Chemscore.Hbond>
1.9216

> <Gold.Chemscore.Metal>
0.0000

> <Gold.Chemscore.Lipo>
80.4924

> <Gold.Chemscore.Internal_Hbond>
0.0000

> <Gold.Chemscore.DEClash>
0.2984

> <Gold.Chemscore.DEInternal>
1.6472

> <Gold.Chemscore.Rot>
1.4658

> <Gold.Chemscore.Internal.Correction>
   9.000000E+99

> <Gold.Chemscore.Hbonds>
donor molecule, donor type, donor heavy atom, donor atom, acceptor molecule, acceptor atom, score
      L1  H     5    26       P1  7948  0.90
      L1  H     8    27       P1  7948  0.94

> <Gold.Chemscore.Hbond.Weighted>
-6.4181

> <Gold.Chemscore.Metal.Weighted>
-0.0000

> <Gold.Chemscore.Lipo.Weighted>
-9.4176

> <Gold.Chemscore.Internal_Hbond.Weighted>
0.0000

> <Gold.Chemscore.DEClash.Weighted>
0.2984

> <Gold.Chemscore.DEInternal.Weighted>
1.6472

> <Gold.Chemscore.Rot.Weighted>
3.7526

> <Gold.Chemscore.Internal.Correction.Weighted>
   9.000000E+99

> <Gold.Protein.RotatedTorsions>
[ 6907 6896 6895 6894 ] final  132.93 input  -60.11 | X-H torsion
[ 7974 7965 7964 7962 ] final   17.13 input  175.53 | X-H torsion
[ 8008 7997 7996 7995 ] final -146.32 input   59.86 | X-H torsion
[ 10167 10162 10161 10158 ] final   58.98 input  -65.29 | X-H torsion
[ 10718 10713 10712 10709 ] final  -97.16 input   66.30 | X-H torsion
[ 10763 10752 10751 10750 ] final   70.09 input  -60.55 | X-H torsion
[ 11005 11000 10999 10996 ] final  -64.70 input  -57.11 | X-H torsion

> <Gold.Protein.ActiveResidues>
 VAL166  LYS551  ARG553  GLY616  TRP617  ASP618  TYR619  PRO620  LYS621  CYS622 
 ASP623  PHE694  ASN695  SER759  ASP760  ASP761  ALA762  ILE779  LEU786  VAL792 
 PHE793  MET794  SER795  GLU796  ALA797  LYS798  CYS799  TRP800  GLU811  SER814 

> <Gold.Protein.RotatedAtoms>
  152.3272  133.5919  159.5784 H   0  0  0  0  0  0  0  0  0  0  0  0  # atno 6907 bound_to 6896
  150.7403  133.9922  159.3619 H   0  0  0  0  0  0  0  0  0  0  0  0  # atno 6908 bound_to 6896
  151.7800  135.0764  160.0423 H   0  0  0  0  0  0  0  0  0  0  0  0  # atno 6909 bound_to 6896
  146.2228  139.8647  142.8598 H   0  0  0  0  0  0  0  0  0  0  0  0  # atno 7974 bound_to 7965
  155.5575  140.0622  157.2836 H   0  0  0  0  0  0  0  0  0  0  0  0  # atno 8008 bound_to 7997
  154.4401  140.1891  156.0794 H   0  0  0  0  0  0  0  0  0  0  0  0  # atno 8009 bound_to 7997
  156.0471  140.3289  155.7313 H   0  0  0  0  0  0  0  0  0  0  0  0  # atno 8010 bound_to 7997
  140.1814  144.4178  150.6614 H   0  0  0  0  0  0  0  0  0  0  0  0  # atno 10167 bound_to 10162
  156.0077  130.5182  150.6334 H   0  0  0  0  0  0  0  0  0  0  0  0  # atno 10718 bound_to 10713
  153.0322  135.5187  154.7387 H   0  0  0  0  0  0  0  0  0  0  0  0  # atno 10763 bound_to 10752
  154.6393  135.2910  155.0125 H   0  0  0  0  0  0  0  0  0  0  0  0  # atno 10764 bound_to 10752
  154.1048  135.6631  153.4927 H   0  0  0  0  0  0  0  0  0  0  0  0  # atno 10765 bound_to 10752
  141.1433  133.6670  156.5874 H   0  0  0  0  0  0  0  0  0  0  0  0  # atno 11005 bound_to 11000
  145.2668  141.0095  143.3794 LP  0  0  0  0  0  0  0  0  0  0  0  0  # atno 17320 bound_to 7965
  144.9254  139.4361  143.6521 LP  0  0  0  0  0  0  0  0  0  0  0  0  # atno 17321 bound_to 7965
  140.6517  143.2227  151.6061 LP  0  0  0  0  0  0  0  0  0  0  0  0  # atno 17342 bound_to 10162
  139.5295  144.2959  152.1113 LP  0  0  0  0  0  0  0  0  0  0  0  0  # atno 17343 bound_to 10162
  157.4128  131.0826  151.1205 LP  0  0  0  0  0  0  0  0  0  0  0  0  # atno 17370 bound_to 10713
  157.1832  130.6318  149.5679 LP  0  0  0  0  0  0  0  0  0  0  0  0  # atno 17371 bound_to 10713
  140.3790  134.7540  157.4649 LP  0  0  0  0  0  0  0  0  0  0  0  0  # atno 17394 bound_to 11000
  140.0652  134.5939  155.8703 LP  0  0  0  0  0  0  0  0  0  0  0  0  # atno 17395 bound_to 11000

$$$$
