AV-unprocessed.smi:1512|AV-procd|sdf|6101|dock8
  -GOLD-   22720 6233D 1   1.00000     0.00000
 Structure written by MMmdl.
 44 46  0  0  0  0  0  0  0  0  3 V2000
  152.7677  139.7320  158.9161 C   0  0  0  0  0  0  0  0  0  0  0  0
  152.4110  140.9505  158.0482 C   0  0  1  0  0  0  0  0  0  0  0  0
  151.4808  140.5176  157.0067 N   0  0  0  0  0  0  0  0  0  0  0  0
  151.7643  139.6879  155.9909 C   0  0  0  0  0  0  0  0  0  0  0  0
  152.8532  139.1305  155.8492 O   0  0  0  0  0  0  0  0  0  0  0  0
  150.6342  139.4495  154.9810 C   0  0  0  0  0  0  0  0  0  0  0  0
  149.3131  139.8234  155.5141 N   0  0  0  0  0  0  0  0  0  0  0  0
  148.8496  139.1075  156.6336 C   0  0  0  0  0  0  0  0  0  0  0  0
  147.6566  139.3589  157.1911 C   0  0  0  0  0  0  0  0  0  0  0  0
  146.8392  140.3985  156.6150 C   0  0  0  0  0  0  0  0  0  0  0  0
  147.2631  141.1005  155.5388 C   0  0  0  0  0  0  0  0  0  0  0  0
  146.3959  142.1303  155.0137 N   0  3  0  0  0  0  0  0  0  0  0  0
  146.7625  142.7718  154.0338 O   0  0  0  0  0  0  0  0  0  0  0  0
  145.3250  142.3374  155.5769 O   0  5  0  0  0  0  0  0  0  0  0  0
  148.5758  140.8152  154.9229 C   0  0  0  0  0  0  0  0  0  0  0  0
  148.9941  141.4161  153.9311 O   0  0  0  0  0  0  0  0  0  0  0  0
  151.7731  142.1058  158.8598 C   0  0  2  0  0  0  0  0  0  0  0  0
  150.9425  143.0939  157.9999 C   0  0  0  0  0  0  0  0  0  0  0  0
  151.5350  144.4663  158.3624 C   0  0  1  0  0  0  0  0  0  0  0  0
  151.1679  144.8222  159.8144 C   0  0  0  0  0  0  0  0  0  0  0  0
  152.0583  143.8678  160.6314 C   0  0  0  0  0  0  0  0  0  0  0  0
  152.7867  143.0621  159.5382 C   0  0  2  0  0  0  0  0  0  0  0  0
  153.0161  144.1346  158.4776 C   0  0  0  0  0  0  0  0  0  0  0  0
  153.5206  139.9733  159.6653 H   0  0  0  0  0  0  0  0  0  0  0  0
  153.1736  138.9244  158.3059 H   0  0  0  0  0  0  0  0  0  0  0  0
  151.8911  139.3450  159.4369 H   0  0  0  0  0  0  0  0  0  0  0  0
  153.3328  141.3176  157.5945 H   0  0  0  0  0  0  0  0  0  0  0  0
  150.5543  140.9177  157.0385 H   0  0  0  0  0  0  0  0  0  0  0  0
  150.8649  140.0138  154.0765 H   0  0  0  0  0  0  0  0  0  0  0  0
  150.6249  138.4029  154.6700 H   0  0  0  0  0  0  0  0  0  0  0  0
  149.5166  138.3409  157.0007 H   0  0  0  0  0  0  0  0  0  0  0  0
  147.3150  138.7955  158.0470 H   0  0  0  0  0  0  0  0  0  0  0  0
  145.8805  140.6140  157.0641 H   0  0  0  0  0  0  0  0  0  0  0  0
  151.1283  141.6622  159.6203 H   0  0  0  0  0  0  0  0  0  0  0  0
  151.0760  142.9115  156.9329 H   0  0  0  0  0  0  0  0  0  0  0  0
  149.8745  143.0323  158.2111 H   0  0  0  0  0  0  0  0  0  0  0  0
  151.2920  145.2499  157.6442 H   0  0  0  0  0  0  0  0  0  0  0  0
  151.4148  145.8614  160.0362 H   0  0  0  0  0  0  0  0  0  0  0  0
  150.1064  144.6780  160.0180 H   0  0  0  0  0  0  0  0  0  0  0  0
  152.7710  144.4328  161.2336 H   0  0  0  0  0  0  0  0  0  0  0  0
  151.4829  143.2336  161.3068 H   0  0  0  0  0  0  0  0  0  0  0  0
  153.6943  142.5834  159.9032 H   0  0  0  0  0  0  0  0  0  0  0  0
  153.4477  143.7502  157.5519 H   0  0  0  0  0  0  0  0  0  0  0  0
  153.6200  144.9723  158.8316 H   0  0  0  0  0  0  0  0  0  0  0  0
  1  2  1  0  0  0  0
  1 24  1  0  0  0  0
  1 25  1  0  0  0  0
  1 26  1  0  0  0  0
  2  3  1  0  0  0  0
  2 17  1  0  0  0  0
  2 27  1  0  0  0  0
  3  4  1  0  0  0  0
  3 28  1  0  0  0  0
  4  5  2  0  0  0  0
  4  6  1  0  0  0  0
  6  7  1  0  0  0  0
  6 29  1  0  0  0  0
  6 30  1  0  0  0  0
  7 15  1  0  0  0  0
  7  8  1  0  0  0  0
  8  9  2  0  0  0  0
  8 31  1  0  0  0  0
  9 10  1  0  0  0  0
  9 32  1  0  0  0  0
 10 11  2  0  0  0  0
 10 33  1  0  0  0  0
 11 12  1  0  0  0  0
 11 15  1  0  0  0  0
 12 13  2  0  0  0  0
 12 14  1  0  0  0  0
 15 16  2  0  0  0  0
 17 22  1  0  0  0  0
 17 18  1  0  0  0  0
 17 34  1  0  0  0  0
 18 19  1  0  0  0  0
 18 35  1  0  0  0  0
 18 36  1  0  0  0  0
 19 23  1  0  0  0  0
 19 20  1  0  0  0  0
 19 37  1  0  0  0  0
 20 21  1  0  0  0  0
 20 38  1  0  0  0  0
 20 39  1  0  0  0  0
 21 22  1  0  0  0  0
 21 40  1  0  0  0  0
 21 41  1  0  0  0  0
 22 23  1  0  0  0  0
 22 42  1  0  0  0  0
 23 43  1  0  0  0  0
 23 44  1  0  0  0  0
M  CHG  1  12   1
M  CHG  1  14  -1
M  END
> <s_m_source_file>
AV-unprocessed.smi

> <i_m_source_file_index>
1512

> <i_lp_mmshare_version>
43012

> <i_f3d_flags>
0

> <s_epik_input>
W0NIMl0xW0NIMl1bQ0BIXShbQ0gyXTIpW0NAQEhdKFtDSDJdW0NAQEhdMTIpW0NASF0oW0NIM10pW05IXUMoPU8pW0NIMl1uM1tjSF1bY0hdW2NIXWMoW04rXSg9TylbTy1dKWMzPU8=

> <s_epik_cmdline>
J2VwaWtfcHl0aG9uJywgJy1waCcsICc3LjAnLCAnLXRuJywgJzgnLCAnLW1hJywgJzIwMCcsICctbWV0YWxfYmluZGluZycsICctaW1hZScsICc8aW5maWxlLm1hZT4nLCAnLW9tYWUnLCAnPG91dGZpbGUubWFlPic=

> <r_lp_tautomer_probability>
1

> <r_epik_Ionization_Penalty>
2.17697e-08

> <r_epik_Ionization_Penalty_Charging>
1.42735e-10

> <r_epik_Ionization_Penalty_Neutral>
2.16269e-08

> <r_epik_State_Penalty>
-0

> <r_epik_Charging_Adjusted_Penalty>
1.42735e-10

> <i_epik_Tot_Q>
0

> <i_epik_Tot_abs_Q>
2

> <r_epik_Metal_State_Penalty>
-0

> <b_epik_Metal_Only>
0

> <s_lp_Force_Field>
OPLS_2005

> <r_lp_Energy>
64.6124

> <b_lp_Chiralities_Consistent>
1

> <s_lp_Variant>
AV-unprocessed.smi:1512-2

> <Gold.Version>
5.8.1

> <Gold.Id.Protein>
6NUR|6NUR_protein|mol2

> <Gold.PLP.Fitness>
47.7079

> <Gold.PLP.PLP>
-43.8083

> <Gold.PLP.part.hbond>
-4.0000

> <Gold.PLP.part.metal>
0.0000

> <Gold.PLP.part.buried>
-3.9567

> <Gold.PLP.part.nonpolar>
-36.0074

> <Gold.PLP.part.repulsive>
1.5225

> <Gold.PLP.ligand.clash>
0.0000

> <Gold.PLP.ligand.torsion>
0.8392

> <Gold.PLP.Chemscore.Hbond>
1.8405

> <Gold.PLP.Chemscore.CHOScore>
0.0000

> <Gold.PLP.Chemscore.Metal>
0.0000

> <Gold.Chemscore.Hbonds>
donor molecule, donor type, donor heavy atom, donor atom, acceptor molecule, acceptor atom, score
      P1  H  7997  8009       L1     5  1.00
      P1  H  8011  8017       L1    16  0.71

> <Gold.PLP.Chemscore.Internal.Correction>
0.0565

> <Gold.Rescore>
     Score         DG    S(hbond)    S(metal)    S(lipo)     H(rot)  DE(clash)    DE(int)     intcor
     16.14     -19.58       1.64        0.00     111.92       1.75       0.13       3.32       ----

> <Gold.Chemscore.Fitness>
16.1376

> <Gold.Chemscore.DG>
-19.5785

> <Gold.Chemscore.ZeroCoef>
-5.4800

> <Gold.Chemscore.Hbond>
1.6400

> <Gold.Chemscore.Metal>
0.0000

> <Gold.Chemscore.Lipo>
111.9164

> <Gold.Chemscore.Internal_Hbond>
0.0000

> <Gold.Chemscore.DEClash>
0.1256

> <Gold.Chemscore.DEInternal>
3.3153

> <Gold.Chemscore.Rot>
1.7474

> <Gold.Chemscore.Internal.Correction>
   9.000000E+99

> <Gold.Chemscore.Hbonds>
donor molecule, donor type, donor heavy atom, donor atom, acceptor molecule, acceptor atom, score
      P1  H  7997  8009       L1     5  0.94
      P1  H  8011  8017       L1    16  0.67

> <Gold.Chemscore.Hbond.Weighted>
-5.4776

> <Gold.Chemscore.Metal.Weighted>
-0.0000

> <Gold.Chemscore.Lipo.Weighted>
-13.0942

> <Gold.Chemscore.Internal_Hbond.Weighted>
0.0000

> <Gold.Chemscore.DEClash.Weighted>
0.1256

> <Gold.Chemscore.DEInternal.Weighted>
3.3153

> <Gold.Chemscore.Rot.Weighted>
4.4733

> <Gold.Chemscore.Internal.Correction.Weighted>
   9.000000E+99

> <Gold.Protein.RotatedTorsions>
[ 6907 6896 6895 6894 ] final  -42.31 input  -60.11 | X-H torsion
[ 7974 7965 7964 7962 ] final  177.88 input  175.53 | X-H torsion
[ 8008 7997 7996 7995 ] final -159.90 input   59.86 | X-H torsion
[ 10167 10162 10161 10158 ] final   -9.50 input  -65.29 | X-H torsion
[ 10718 10713 10712 10709 ] final   -1.34 input   66.30 | X-H torsion
[ 10763 10752 10751 10750 ] final   46.68 input  -60.55 | X-H torsion
[ 11005 11000 10999 10996 ] final  -42.13 input  -57.11 | X-H torsion

> <Gold.Protein.ActiveResidues>
 VAL166  LYS551  ARG553  GLY616  TRP617  ASP618  TYR619  PRO620  LYS621  CYS622 
 ASP623  PHE694  ASN695  SER759  ASP760  ASP761  ALA762  ILE779  LEU786  VAL792 
 PHE793  MET794  SER795  GLU796  ALA797  LYS798  CYS799  TRP800  GLU811  SER814 

> <Gold.Protein.RotatedAtoms>
  150.9567  134.8960  159.7705 H   0  0  0  0  0  0  0  0  0  0  0  0  # atno 6907 bound_to 6896
  152.5140  134.3730  159.9335 H   0  0  0  0  0  0  0  0  0  0  0  0  # atno 6908 bound_to 6896
  151.3744  133.3803  159.2738 H   0  0  0  0  0  0  0  0  0  0  0  0  # atno 6909 bound_to 6896
  144.7163  140.0314  143.6439 H   0  0  0  0  0  0  0  0  0  0  0  0  # atno 7974 bound_to 7965
  155.7694  140.0850  157.2115 H   0  0  0  0  0  0  0  0  0  0  0  0  # atno 8008 bound_to 7997
  154.3997  140.1528  156.2982 H   0  0  0  0  0  0  0  0  0  0  0  0  # atno 8009 bound_to 7997
  155.8762  140.3423  155.5858 H   0  0  0  0  0  0  0  0  0  0  0  0  # atno 8010 bound_to 7997
  140.7089  143.5851  150.8952 H   0  0  0  0  0  0  0  0  0  0  0  0  # atno 10167 bound_to 10162
  156.8071  130.5412  149.5714 H   0  0  0  0  0  0  0  0  0  0  0  0  # atno 10718 bound_to 10713
  152.9808  135.6000  154.3639 H   0  0  0  0  0  0  0  0  0  0  0  0  # atno 10763 bound_to 10752
  154.3318  135.2768  155.2469 H   0  0  0  0  0  0  0  0  0  0  0  0  # atno 10764 bound_to 10752
  154.4590  135.5971  153.6298 H   0  0  0  0  0  0  0  0  0  0  0  0  # atno 10765 bound_to 10752
  141.0294  133.6826  156.2552 H   0  0  0  0  0  0  0  0  0  0  0  0  # atno 11005 bound_to 11000
  146.0099  139.3161  143.0876 LP  0  0  0  0  0  0  0  0  0  0  0  0  # atno 17320 bound_to 7965
  145.8694  140.9429  143.0658 LP  0  0  0  0  0  0  0  0  0  0  0  0  # atno 17321 bound_to 7965
  139.9577  143.6200  152.3011 LP  0  0  0  0  0  0  0  0  0  0  0  0  # atno 17342 bound_to 10162
  139.6741  144.7659  151.1729 LP  0  0  0  0  0  0  0  0  0  0  0  0  # atno 17343 bound_to 10162
  156.1067  130.6009  150.9981 LP  0  0  0  0  0  0  0  0  0  0  0  0  # atno 17370 bound_to 10713
  157.6525  131.0895  150.8020 LP  0  0  0  0  0  0  0  0  0  0  0  0  # atno 17371 bound_to 10713
  140.6433  134.5143  157.5571 LP  0  0  0  0  0  0  0  0  0  0  0  0  # atno 17394 bound_to 11000
  139.9198  134.8172  156.1249 LP  0  0  0  0  0  0  0  0  0  0  0  0  # atno 17395 bound_to 11000

$$$$
