AV-unprocessed.smi:224|AV-procd|sdf|1713|dock1
  -GOLD-   2262020183D 1   1.00000     0.00000
 Structure written by MMmdl.
 56 59  0  0  0  0  0  0  0  0  2 V2000
  145.6776  132.0088  149.3446 C   0  0  0  0  0  0  0  0  0  0  0  0
  145.8812  132.2451  150.8467 C   0  0  2  0  0  0  0  0  0  0  0  0
  146.7513  131.2405  151.3281 O   0  0  0  0  0  0  0  0  0  0  0  0
  144.5477  132.1858  151.6191 C   0  0  0  0  0  0  0  0  0  0  0  0
  144.5000  133.1270  152.7691 N   0  3  1  0  0  0  0  0  0  0  0  0
  145.7896  133.2526  153.5010 C   0  0  0  0  0  0  0  0  0  0  0  0
  145.6224  134.1212  154.7607 C   0  0  0  0  0  0  0  0  0  0  0  0
  145.0213  135.4133  154.4358 N   0  0  0  0  0  0  0  0  0  0  0  0
  145.8257  136.4755  154.1588 C   0  0  0  0  0  0  0  0  0  0  0  0
  145.4162  137.4099  153.2592 N   0  0  0  0  0  0  0  0  0  0  0  0
  146.1835  138.4667  152.9794 C   0  0  0  0  0  0  0  0  0  0  0  0
  147.3819  138.7796  153.4729 N   0  0  0  0  0  0  0  0  0  0  0  0
  147.8075  137.8443  154.3686 C   0  0  0  0  0  0  0  0  0  0  0  0
  147.1007  136.6727  154.7649 C   0  0  0  0  0  0  0  0  0  0  0  0
  147.8615  135.9546  155.6806 N   0  0  0  0  0  0  0  0  0  0  0  0
  148.9463  136.6650  155.8260 C   0  0  0  0  0  0  0  0  0  0  0  0
  148.9958  137.8188  155.0776 N   0  0  0  0  0  0  0  0  0  0  0  0
  150.0832  138.7848  155.0420 C   0  0  0  0  0  0  0  0  0  0  0  0
  151.4851  138.1371  155.1171 C   0  0  2  0  0  0  0  0  0  0  0  0
  151.5924  137.1530  154.1023 O   0  0  0  0  0  0  0  0  0  0  0  0
  151.8034  137.4871  156.4604 C   0  0  0  0  0  0  0  0  0  0  0  0
  153.3092  137.6748  156.5790 C   0  0  0  0  0  0  0  0  0  0  0  0
  153.4994  138.9784  156.0567 O   0  0  0  0  0  0  0  0  0  0  0  0
  152.6347  139.1492  154.9383 C   0  0  0  0  0  0  0  0  0  0  0  0
  143.7543  135.3193  153.7122 C   0  0  0  0  0  0  0  0  0  0  0  0
  143.8804  134.4467  152.4429 C   0  0  1  0  0  0  0  0  0  0  0  0
  144.5936  135.1910  151.2931 C   0  0  0  0  0  0  0  0  0  0  0  0
  145.0283  132.7709  148.9129 H   0  0  0  0  0  0  0  0  0  0  0  0
  145.2232  131.0363  149.1517 H   0  0  0  0  0  0  0  0  0  0  0  0
  146.6266  132.0442  148.8085 H   0  0  0  0  0  0  0  0  0  0  0  0
  146.3665  133.2118  150.9758 H   0  0  0  0  0  0  0  0  0  0  0  0
  147.6209  131.4012  150.9961 H   0  0  0  0  0  0  0  0  0  0  0  0
  143.7133  132.3979  150.9488 H   0  0  0  0  0  0  0  0  0  0  0  0
  144.4019  131.1643  151.9749 H   0  0  0  0  0  0  0  0  0  0  0  0
  146.1558  132.2719  153.8007 H   0  0  0  0  0  0  0  0  0  0  0  0
  146.5486  133.6766  152.8430 H   0  0  0  0  0  0  0  0  0  0  0  0
  144.9639  133.6135  155.4665 H   0  0  0  0  0  0  0  0  0  0  0  0
  146.5749  134.2433  155.2779 H   0  0  0  0  0  0  0  0  0  0  0  0
  145.7796  139.1610  152.2574 H   0  0  0  0  0  0  0  0  0  0  0  0
  149.7462  136.3660  156.4880 H   0  0  0  0  0  0  0  0  0  0  0  0
  149.9886  139.3728  154.1281 H   0  0  0  0  0  0  0  0  0  0  0  0
  149.9472  139.4834  155.8685 H   0  0  0  0  0  0  0  0  0  0  0  0
  152.0484  137.5313  153.3661 H   0  0  0  0  0  0  0  0  0  0  0  0
  151.3213  138.0372  157.2689 H   0  0  0  0  0  0  0  0  0  0  0  0
  151.4893  136.4451  156.5336 H   0  0  0  0  0  0  0  0  0  0  0  0
  153.6667  137.5957  157.6058 H   0  0  0  0  0  0  0  0  0  0  0  0
  153.8467  136.9489  155.9668 H   0  0  0  0  0  0  0  0  0  0  0  0
  153.1924  138.9806  154.0154 H   0  0  0  0  0  0  0  0  0  0  0  0
  152.2802  140.1803  154.9195 H   0  0  0  0  0  0  0  0  0  0  0  0
  143.0253  134.8706  154.3877 H   0  0  0  0  0  0  0  0  0  0  0  0
  143.3512  136.2950  153.4474 H   0  0  0  0  0  0  0  0  0  0  0  0
  142.8638  134.2448  152.1029 H   0  0  0  0  0  0  0  0  0  0  0  0
  144.1201  136.1555  151.1075 H   0  0  0  0  0  0  0  0  0  0  0  0
  144.5492  134.6310  150.3593 H   0  0  0  0  0  0  0  0  0  0  0  0
  145.6431  135.3833  151.5120 H   0  0  0  0  0  0  0  0  0  0  0  0
  143.8592  132.7065  153.4264 H   0  0  0  0  0  0  0  0  0  0  0  0
  1  2  1  0  0  0  0
  1 28  1  0  0  0  0
  1 29  1  0  0  0  0
  1 30  1  0  0  0  0
  2  3  1  0  0  0  0
  2  4  1  0  0  0  0
  2 31  1  0  0  0  0
  3 32  1  0  0  0  0
  4  5  1  0  0  0  0
  4 33  1  0  0  0  0
  4 34  1  0  0  0  0
  5 26  1  0  0  0  0
  5  6  1  0  0  0  0
  5 56  1  0  0  0  0
  6  7  1  0  0  0  0
  6 35  1  0  0  0  0
  6 36  1  0  0  0  0
  7  8  1  0  0  0  0
  7 37  1  0  0  0  0
  7 38  1  0  0  0  0
  8  9  1  0  0  0  0
  8 25  1  0  0  0  0
  9 14  1  0  0  0  0
  9 10  2  0  0  0  0
 10 11  1  0  0  0  0
 11 12  2  0  0  0  0
 11 39  1  0  0  0  0
 12 13  1  0  0  0  0
 13 17  1  0  0  0  0
 13 14  2  0  0  0  0
 14 15  1  0  0  0  0
 15 16  2  0  0  0  0
 16 17  1  0  0  0  0
 16 40  1  0  0  0  0
 17 18  1  0  0  0  0
 18 19  1  0  0  0  0
 18 41  1  0  0  0  0
 18 42  1  0  0  0  0
 19 24  1  0  0  0  0
 19 20  1  0  0  0  0
 19 21  1  0  0  0  0
 20 43  1  0  0  0  0
 21 22  1  0  0  0  0
 21 44  1  0  0  0  0
 21 45  1  0  0  0  0
 22 23  1  0  0  0  0
 22 46  1  0  0  0  0
 22 47  1  0  0  0  0
 23 24  1  0  0  0  0
 24 48  1  0  0  0  0
 24 49  1  0  0  0  0
 25 26  1  0  0  0  0
 25 50  1  0  0  0  0
 25 51  1  0  0  0  0
 26 27  1  0  0  0  0
 26 52  1  0  0  0  0
 27 53  1  0  0  0  0
 27 54  1  0  0  0  0
 27 55  1  0  0  0  0
M  CHG  1   5   1
M  END
> <s_m_source_file>
AV-unprocessed.smi

> <i_m_source_file_index>
224

> <i_lp_mmshare_version>
43012

> <i_f3d_flags>
0

> <s_epik_input>
W0NIM11bQ0BIXShbT0hdKVtDSDJdTjFbQ0gyXVtDSDJdTihbQ0gyXVtDQEhdMVtDSDNdKWMobltjSF1uMiljKGMyMyluW2NIXW4zW0NIMl1bQ0BAXTQoW09IXSlbQ0gyXVtDSDJdT1tDSDJdNA==

> <s_epik_cmdline>
J2VwaWtfcHl0aG9uJywgJy1waCcsICc3LjAnLCAnLXRuJywgJzgnLCAnLW1hJywgJzIwMCcsICctbWV0YWxfYmluZGluZycsICctaW1hZScsICc8aW5maWxlLm1hZT4nLCAnLW9tYWUnLCAnPG91dGZpbGUubWFlPic=

> <r_lp_tautomer_probability>
1

> <r_epik_Ionization_Penalty>
0.00516958

> <r_epik_Ionization_Penalty_Charging>
0.00509693

> <r_epik_Ionization_Penalty_Neutral>
7.26542e-05

> <r_epik_State_Penalty>
-0

> <r_epik_Charging_Adjusted_Penalty>
0.00509693

> <i_epik_Tot_Q>
1

> <i_epik_Tot_abs_Q>
1

> <r_epik_Metal_State_Penalty>
-0

> <b_epik_Metal_Only>
0

> <s_lp_Force_Field>
OPLS_2005

> <r_lp_Energy>
51.1284

> <b_lp_Chiralities_Consistent>
1

> <s_lp_Variant>
AV-unprocessed.smi:224-7

> <Gold.Version>
5.8.1

> <Gold.Id.Protein>
6NUR|6NUR_protein|mol2

> <Gold.PLP.Fitness>
48.2888

> <Gold.PLP.PLP>
-33.0869

> <Gold.PLP.part.hbond>
-4.5950

> <Gold.PLP.part.metal>
0.0000

> <Gold.PLP.part.buried>
-4.1488

> <Gold.PLP.part.nonpolar>
-24.9942

> <Gold.PLP.part.repulsive>
0.4525

> <Gold.PLP.ligand.clash>
0.0000

> <Gold.PLP.ligand.torsion>
1.3781

> <Gold.PLP.Chemscore.Hbond>
4.8640

> <Gold.PLP.Chemscore.CHOScore>
0.9930

> <Gold.PLP.Chemscore.Metal>
0.0000

> <Gold.Chemscore.Hbonds>
donor molecule, donor type, donor heavy atom, donor atom, acceptor molecule, acceptor atom, score
      L1  H     3    32       P1 10747  0.99
      L1  H     5    56       P1 10957  2.00
      P1  H  7997  8009       L1    23  0.75
      P1  H 10752 10764       L1    20  0.70
      L1  C    11    39       P1 10175  0.95

> <Gold.PLP.Chemscore.Internal.Correction>
0.3872

> <Gold.Rescore>
     Score         DG    S(hbond)    S(metal)    S(lipo)     H(rot)  DE(clash)    DE(int)     intcor
     11.91     -15.05       2.47        0.00      77.53       3.02       0.74       2.39       ----

> <Gold.Chemscore.Fitness>
11.9118

> <Gold.Chemscore.DG>
-15.0471

> <Gold.Chemscore.ZeroCoef>
-5.4800

> <Gold.Chemscore.Hbond>
2.4655

> <Gold.Chemscore.Metal>
0.0000

> <Gold.Chemscore.Lipo>
77.5331

> <Gold.Chemscore.Internal_Hbond>
0.0000

> <Gold.Chemscore.DEClash>
0.7416

> <Gold.Chemscore.DEInternal>
2.3937

> <Gold.Chemscore.Rot>
3.0231

> <Gold.Chemscore.Internal.Correction>
   9.000000E+99

> <Gold.Chemscore.Hbonds>
donor molecule, donor type, donor heavy atom, donor atom, acceptor molecule, acceptor atom, score
      L1  H     3    32       P1 10747  0.94
      L1  H     5    56       P1 10957  0.47
      P1  H  7997  8009       L1    23  0.55
      P1  H 10752 10764       L1    20  0.06

> <Gold.Chemscore.Hbond.Weighted>
-8.2348

> <Gold.Chemscore.Metal.Weighted>
-0.0000

> <Gold.Chemscore.Lipo.Weighted>
-9.0714

> <Gold.Chemscore.Internal_Hbond.Weighted>
0.0000

> <Gold.Chemscore.DEClash.Weighted>
0.7416

> <Gold.Chemscore.DEInternal.Weighted>
2.3937

> <Gold.Chemscore.Rot.Weighted>
7.7391

> <Gold.Chemscore.Internal.Correction.Weighted>
   9.000000E+99

> <Gold.Protein.RotatedTorsions>
[ 6907 6896 6895 6894 ] final   98.12 input  -60.11 | X-H torsion
[ 7974 7965 7964 7962 ] final -142.84 input  175.53 | X-H torsion
[ 8008 7997 7996 7995 ] final -155.70 input   59.86 | X-H torsion
[ 10167 10162 10161 10158 ] final -160.55 input  -65.29 | X-H torsion
[ 10718 10713 10712 10709 ] final -172.91 input   66.30 | X-H torsion
[ 10763 10752 10751 10750 ] final  -72.32 input  -60.55 | X-H torsion
[ 11005 11000 10999 10996 ] final  118.11 input  -57.11 | X-H torsion

> <Gold.Protein.ActiveResidues>
 VAL166  LYS551  ARG553  GLY616  TRP617  ASP618  TYR619  PRO620  LYS621  CYS622 
 ASP623  PHE694  ASN695  SER759  ASP760  ASP761  ALA762  ILE779  LEU786  VAL792 
 PHE793  MET794  SER795  GLU796  ALA797  LYS798  CYS799  TRP800  GLU811  SER814 

> <Gold.Protein.RotatedAtoms>
  152.5414  134.0628  159.8159 H   0  0  0  0  0  0  0  0  0  0  0  0  # atno 6907 bound_to 6896
  151.0754  133.5425  159.2631 H   0  0  0  0  0  0  0  0  0  0  0  0  # atno 6908 bound_to 6896
  151.2273  135.0549  159.9027 H   0  0  0  0  0  0  0  0  0  0  0  0  # atno 6909 bound_to 6896
  144.8413  140.5908  143.5450 H   0  0  0  0  0  0  0  0  0  0  0  0  # atno 7974 bound_to 7965
  155.7059  140.0772  157.2391 H   0  0  0  0  0  0  0  0  0  0  0  0  # atno 8008 bound_to 7997
  154.4066  140.1639  156.2296 H   0  0  0  0  0  0  0  0  0  0  0  0  # atno 8009 bound_to 7997
  155.9326  140.3390  155.6264 H   0  0  0  0  0  0  0  0  0  0  0  0  # atno 8010 bound_to 7997
  139.6531  144.0047  152.2175 H   0  0  0  0  0  0  0  0  0  0  0  0  # atno 10167 bound_to 10162
  156.7625  130.9419  151.3118 H   0  0  0  0  0  0  0  0  0  0  0  0  # atno 10718 bound_to 10713
  154.4441  135.5933  153.6148 H   0  0  0  0  0  0  0  0  0  0  0  0  # atno 10763 bound_to 10752
  152.9808  135.6005  154.3686 H   0  0  0  0  0  0  0  0  0  0  0  0  # atno 10764 bound_to 10752
  154.3539  135.2841  155.2336 H   0  0  0  0  0  0  0  0  0  0  0  0  # atno 10765 bound_to 10752
  139.9098  134.9617  156.7453 H   0  0  0  0  0  0  0  0  0  0  0  0  # atno 11005 bound_to 11000
  145.4687  139.1505  143.3826 LP  0  0  0  0  0  0  0  0  0  0  0  0  # atno 17320 bound_to 7965
  146.2705  140.4820  142.8816 LP  0  0  0  0  0  0  0  0  0  0  0  0  # atno 17321 bound_to 7965
  139.9767  144.6457  150.7939 LP  0  0  0  0  0  0  0  0  0  0  0  0  # atno 17342 bound_to 10162
  140.7547  143.3032  151.3028 LP  0  0  0  0  0  0  0  0  0  0  0  0  # atno 17343 bound_to 10162
  157.6728  130.9066  150.0080 LP  0  0  0  0  0  0  0  0  0  0  0  0  # atno 17370 bound_to 10713
  156.1330  130.3643  149.9702 LP  0  0  0  0  0  0  0  0  0  0  0  0  # atno 17371 bound_to 10713
  140.6817  133.9469  155.7914 LP  0  0  0  0  0  0  0  0  0  0  0  0  # atno 17394 bound_to 11000
  141.0506  134.0491  157.3789 LP  0  0  0  0  0  0  0  0  0  0  0  0  # atno 17395 bound_to 11000

$$$$
