AV-unprocessed.smi:72|AV-procd|sdf|692|dock5
  -GOLD-   2262017 03D 1   1.00000     0.00000
 Structure written by MMmdl.
 29 30  0  0  0  0  0  0  0  0  1 V2000
  152.5493  136.7560  159.3591 N   0  0  0  0  0  0  0  0  0  0  0  0
  152.0916  137.6888  158.6037 C   0  0  0  0  0  0  0  0  0  0  0  0
  150.9416  138.4498  158.8594 N   0  0  0  0  0  0  0  0  0  0  0  0
  150.6052  139.3731  158.0124 C   0  0  0  0  0  0  0  0  0  0  0  0
  151.3908  139.6574  156.8173 N   0  0  0  0  0  0  0  0  0  0  0  0
  151.0021  140.7281  155.8103 C   0  0  1  0  0  0  0  0  0  0  0  0
  150.3957  140.1379  154.6956 O   0  0  0  0  0  0  0  0  0  0  0  0
  148.9786  140.2285  154.8122 C   0  0  2  0  0  0  0  0  0  0  0  0
  148.2894  139.9909  153.4576 C   0  0  0  0  0  0  0  0  0  0  0  0
  148.5971  138.6974  152.9840 O   0  0  0  0  0  0  0  0  0  0  0  0
  148.8021  141.6250  155.4153 C   0  0  2  0  0  0  0  0  0  0  0  0
  148.8888  142.6153  154.4033 O   0  0  0  0  0  0  0  0  0  0  0  0
  149.9600  141.6983  156.4106 C   0  0  2  0  0  0  0  0  0  0  0  0
  150.4477  143.0165  156.5773 O   0  0  0  0  0  0  0  0  0  0  0  0
  152.5324  138.8682  156.5289 C   0  0  0  0  0  0  0  0  0  0  0  0
  153.2082  139.0340  155.5135 O   0  0  0  0  0  0  0  0  0  0  0  0
  152.8375  137.9220  157.4423 N   0  0  0  0  0  0  0  0  0  0  0  0
  151.9411  141.1974  155.5115 H   0  0  0  0  0  0  0  0  0  0  0  0
  148.6248  139.4978  155.5423 H   0  0  0  0  0  0  0  0  0  0  0  0
  147.8378  141.7323  155.9132 H   0  0  0  0  0  0  0  0  0  0  0  0
  149.6239  141.3169  157.3763 H   0  0  0  0  0  0  0  0  0  0  0  0
  153.3855  136.3609  158.9532 H   0  0  0  0  0  0  0  0  0  0  0  0
  149.7146  139.9858  158.1507 H   0  0  0  0  0  0  0  0  0  0  0  0
  147.2067  140.0486  153.5724 H   0  0  0  0  0  0  0  0  0  0  0  0
  148.5809  140.7412  152.7219 H   0  0  0  0  0  0  0  0  0  0  0  0
  149.0902  138.7830  152.1822 H   0  0  0  0  0  0  0  0  0  0  0  0
  148.6263  143.4430  154.7767 H   0  0  0  0  0  0  0  0  0  0  0  0
  149.7209  143.6157  156.4949 H   0  0  0  0  0  0  0  0  0  0  0  0
  153.6503  137.3484  157.2699 H   0  0  0  0  0  0  0  0  0  0  0  0
  1  2  2  0  0  0  0
  1 22  1  0  0  0  0
  2 17  1  0  0  0  0
  2  3  1  0  0  0  0
  3  4  2  0  0  0  0
  4  5  1  0  0  0  0
  4 23  1  0  0  0  0
  5  6  1  0  0  0  0
  5 15  1  0  0  0  0
  6 18  1  0  0  0  0
  6 13  1  0  0  0  0
  6  7  1  0  0  0  0
  7  8  1  0  0  0  0
  8 19  1  0  0  0  0
  8  9  1  0  0  0  0
  8 11  1  0  0  0  0
  9 10  1  0  0  0  0
  9 24  1  0  0  0  0
  9 25  1  0  0  0  0
 10 26  1  0  0  0  0
 11 20  1  0  0  0  0
 11 12  1  0  0  0  0
 11 13  1  0  0  0  0
 12 27  1  0  0  0  0
 13 21  1  0  0  0  0
 13 14  1  0  0  0  0
 14 28  1  0  0  0  0
 15 16  2  0  0  0  0
 15 17  1  0  0  0  0
 17 29  1  0  0  0  0
M  END
> <s_m_source_file>
AV-unprocessed.smi

> <i_m_source_file_index>
72

> <i_lp_mmshare_version>
43012

> <i_f3d_flags>
0

> <s_epik_input>
W05IMl1jMW5bY0hdbihjKD1PKW4xKVtDQEBIXTJPW0NASF0oW0NIMl1bT0hdKVtDQEBIXShbT0hdKVtDQEhdMltPSF0=

> <s_epik_cmdline>
J2VwaWtfcHl0aG9uJywgJy1waCcsICc3LjAnLCAnLXRuJywgJzgnLCAnLW1hJywgJzIwMCcsICctbWV0YWxfYmluZGluZycsICctaW1hZScsICc8aW5maWxlLm1hZT4nLCAnLW9tYWUnLCAnPG91dGZpbGUubWFlPic=

> <r_lp_tautomer_probability>
7.17554e-07

> <r_epik_Ionization_Penalty>
0.0066451

> <r_epik_Ionization_Penalty_Charging>
0.00663793

> <r_epik_Ionization_Penalty_Neutral>
7.17052e-06

> <r_epik_State_Penalty>
0.419231

> <r_epik_Charging_Adjusted_Penalty>
0.425868

> <i_epik_Tot_Q>
0

> <i_epik_Tot_abs_Q>
0

> <r_epik_Metal_State_Penalty>
1.44144

> <b_epik_Metal_Only>
0

> <s_epik_Chemistry_Notes>
This compound contains an acetal/aminal-like group ( X-CH(R)-Y where X, Y are N, S, or O) that may be acid/base labile, releasing an aldehyde.

> <s_lp_Force_Field>
OPLS_2005

> <r_lp_Energy>
42.1685

> <b_lp_Chiralities_Consistent>
1

> <s_lp_Variant>
AV-unprocessed.smi:72-30

> <Gold.Version>
5.8.1

> <Gold.Id.Protein>
6NUR|6NUR_protein|mol2

> <Gold.PLP.Fitness>
40.1761

> <Gold.PLP.PLP>
-24.5253

> <Gold.PLP.part.hbond>
-7.4400

> <Gold.PLP.part.metal>
0.0000

> <Gold.PLP.part.buried>
0.2788

> <Gold.PLP.part.nonpolar>
-16.2592

> <Gold.PLP.part.repulsive>
0.1966

> <Gold.PLP.ligand.clash>
0.0000

> <Gold.PLP.ligand.torsion>
0.4194

> <Gold.PLP.Chemscore.Hbond>
5.4891

> <Gold.PLP.Chemscore.CHOScore>
0.0000

> <Gold.PLP.Chemscore.Metal>
0.0000

> <Gold.Chemscore.Hbonds>
donor molecule, donor type, donor heavy atom, donor atom, acceptor molecule, acceptor atom, score
      L1  H    10    26       P1  7957  0.78
      L1  H    12    27       P1  8028  1.00
      L1  H    14    28       P1  8028  1.00
      P1  H  6896  6908       L1     1  0.98
      P1  H  7989  7998       L1     7  0.70
      P1  H  7997  8010       L1    16  1.00
      P1  H  8011  8017       L1    12  0.03

> <Gold.PLP.Chemscore.Internal.Correction>
0.0223

> <Gold.Rescore>
     Score         DG    S(hbond)    S(metal)    S(lipo)     H(rot)  DE(clash)    DE(int)     intcor
      9.99     -11.97       4.16        0.00      25.57       4.06       1.41       0.57       ----

> <Gold.Chemscore.Fitness>
9.9906

> <Gold.Chemscore.DG>
-11.9668

> <Gold.Chemscore.ZeroCoef>
-5.4800

> <Gold.Chemscore.Hbond>
4.1585

> <Gold.Chemscore.Metal>
0.0000

> <Gold.Chemscore.Lipo>
25.5651

> <Gold.Chemscore.Internal_Hbond>
0.0000

> <Gold.Chemscore.DEClash>
1.4098

> <Gold.Chemscore.DEInternal>
0.5664

> <Gold.Chemscore.Rot>
4.0600

> <Gold.Chemscore.Internal.Correction>
   9.000000E+99

> <Gold.Chemscore.Hbonds>
donor molecule, donor type, donor heavy atom, donor atom, acceptor molecule, acceptor atom, score
      L1  H    10    26       P1  7957  0.61
      L1  H    12    27       P1  8028  0.92
      L1  H    14    28       P1  8028  0.94
      P1  H  6896  6908       L1     1  0.24
      P1  H  7989  7998       L1     7  0.07
      P1  H  7997  8010       L1    16  0.25
      P1  H  8011  8017       L1    12  0.05

> <Gold.Chemscore.Hbond.Weighted>
-13.8893

> <Gold.Chemscore.Metal.Weighted>
-0.0000

> <Gold.Chemscore.Lipo.Weighted>
-2.9911

> <Gold.Chemscore.Internal_Hbond.Weighted>
0.0000

> <Gold.Chemscore.DEClash.Weighted>
1.4098

> <Gold.Chemscore.DEInternal.Weighted>
0.5664

> <Gold.Chemscore.Rot.Weighted>
10.3936

> <Gold.Chemscore.Internal.Correction.Weighted>
   9.000000E+99

> <Gold.Protein.RotatedTorsions>
[ 6907 6896 6895 6894 ] final -115.22 input  -60.11 | X-H torsion
[ 7974 7965 7964 7962 ] final   84.54 input  175.53 | X-H torsion
[ 8008 7997 7996 7995 ] final   89.26 input   59.86 | X-H torsion
[ 10167 10162 10161 10158 ] final -174.64 input  -65.29 | X-H torsion
[ 10718 10713 10712 10709 ] final -168.23 input   66.30 | X-H torsion
[ 10763 10752 10751 10750 ] final -155.34 input  -60.55 | X-H torsion
[ 11005 11000 10999 10996 ] final  -54.58 input  -57.11 | X-H torsion

> <Gold.Protein.ActiveResidues>
 VAL166  LYS551  ARG553  GLY616  TRP617  ASP618  TYR619  PRO620  LYS621  CYS622 
 ASP623  PHE694  ASN695  SER759  ASP760  ASP761  ALA762  ILE779  LEU786  VAL792 
 PHE793  MET794  SER795  GLU796  ALA797  LYS798  CYS799  TRP800  GLU811  SER814 

> <Gold.Protein.RotatedAtoms>
  150.7961  133.8689  159.3252 H   0  0  0  0  0  0  0  0  0  0  0  0  # atno 6907 bound_to 6896
  151.6514  135.0999  160.0171 H   0  0  0  0  0  0  0  0  0  0  0  0  # atno 6908 bound_to 6896
  152.4043  133.6826  159.6378 H   0  0  0  0  0  0  0  0  0  0  0  0  # atno 6909 bound_to 6896
  145.5974  139.2347  143.2265 H   0  0  0  0  0  0  0  0  0  0  0  0  # atno 7974 bound_to 7965
  155.9978  140.3362  155.6816 H   0  0  0  0  0  0  0  0  0  0  0  0  # atno 8008 bound_to 7997
  155.6332  140.0687  157.2660 H   0  0  0  0  0  0  0  0  0  0  0  0  # atno 8009 bound_to 7997
  154.4239  140.1756  156.1482 H   0  0  0  0  0  0  0  0  0  0  0  0  # atno 8010 bound_to 7997
  139.5623  144.1840  152.1258 H   0  0  0  0  0  0  0  0  0  0  0  0  # atno 10167 bound_to 10162
  156.6940  130.9170  151.3072 H   0  0  0  0  0  0  0  0  0  0  0  0  # atno 10718 bound_to 10713
  154.7794  135.3170  154.8022 H   0  0  0  0  0  0  0  0  0  0  0  0  # atno 10763 bound_to 10752
  153.8737  135.6842  153.4776 H   0  0  0  0  0  0  0  0  0  0  0  0  # atno 10764 bound_to 10752
  153.1426  135.4732  154.9456 H   0  0  0  0  0  0  0  0  0  0  0  0  # atno 10765 bound_to 10752
  141.1032  133.6616  156.4341 H   0  0  0  0  0  0  0  0  0  0  0  0  # atno 11005 bound_to 11000
  146.1602  140.6800  142.9281 LP  0  0  0  0  0  0  0  0  0  0  0  0  # atno 17320 bound_to 7965
  144.7325  140.4712  143.6928 LP  0  0  0  0  0  0  0  0  0  0  0  0  # atno 17321 bound_to 7965
  140.1356  144.5248  150.6775 LP  0  0  0  0  0  0  0  0  0  0  0  0  # atno 17342 bound_to 10162
  140.6904  143.2372  151.5148 LP  0  0  0  0  0  0  0  0  0  0  0  0  # atno 17343 bound_to 10162
  157.6998  130.9321  150.0752 LP  0  0  0  0  0  0  0  0  0  0  0  0  # atno 17370 bound_to 10713
  156.1777  130.3649  149.9078 LP  0  0  0  0  0  0  0  0  0  0  0  0  # atno 17371 bound_to 10713
  140.4968  134.6523  157.5233 LP  0  0  0  0  0  0  0  0  0  0  0  0  # atno 17394 bound_to 11000
  139.9892  134.7013  155.9720 LP  0  0  0  0  0  0  0  0  0  0  0  0  # atno 17395 bound_to 11000

$$$$
