AV-unprocessed.smi:236|AV-procd|sdf|1811|dock10
  -GOLD-   2262020393D 1   1.00000     0.00000
 Structure written by MMmdl.
 58 62  0  0  0  0  0  0  0  0  1 V2000
  147.6395  138.9789  157.2122 C   0  0  0  0  0  0  0  0  0  0  0  0
  148.0472  139.8649  156.0243 C   0  0  2  0  0  0  0  0  0  0  0  0
  146.9388  140.6619  155.6230 O   0  0  0  0  0  0  0  0  0  0  0  0
  147.1270  141.0170  154.2653 C   0  0  0  0  0  0  0  0  0  0  0  0
  147.6110  139.7103  153.6569 C   0  0  0  0  0  0  0  0  0  0  0  0
  148.5311  139.1376  154.7390 C   0  0  2  0  0  0  0  0  0  0  0  0
  148.3218  137.7364  154.8004 O   0  0  0  0  0  0  0  0  0  0  0  0
  150.0388  139.3997  154.4864 C   0  0  0  0  0  0  0  0  0  0  0  0
  150.8570  139.4125  155.6904 N   0  0  0  0  0  0  0  0  0  0  0  0
  151.5893  140.4704  156.1815 C   0  0  0  0  0  0  0  0  0  0  0  0
  152.2519  140.2277  157.2795 N   0  0  0  0  0  0  0  0  0  0  0  0
  151.9667  138.8968  157.5598 C   0  0  0  0  0  0  0  0  0  0  0  0
  152.3532  137.9892  158.5863 C   0  0  0  0  0  0  0  0  0  0  0  0
  153.1758  138.2892  159.6125 N   0  0  0  0  0  0  0  0  0  0  0  0
  154.4544  137.5935  159.5577 C   0  0  0  0  0  0  0  0  0  0  0  0
  155.2579  137.8801  160.8364 C   0  0  0  0  0  0  0  0  0  0  0  0
  155.3972  139.2882  161.0022 O   0  0  0  0  0  0  0  0  0  0  0  0
  154.1404  139.9479  161.1485 C   0  0  1  0  0  0  0  0  0  0  0  0
  154.4052  141.4390  161.3931 C   0  0  0  0  0  0  0  0  0  0  0  0
  153.9631  142.1798  160.2677 O   0  0  0  0  0  0  0  0  0  0  0  0
  152.7423  142.8589  160.5061 C   0  0  0  0  0  0  0  0  0  0  0  0
  152.5077  143.8591  159.3940 C   0  0  0  0  0  0  0  0  0  0  0  0
  151.7503  145.1429  159.6503 C   0  0  0  0  0  0  0  0  0  0  0  0
  151.1197  144.0503  158.8255 C   0  0  0  0  0  0  0  0  0  0  0  0
  153.3183  139.7173  159.8653 C   0  0  0  0  0  0  0  0  0  0  0  0
  151.8715  136.7237  158.5328 N   0  0  0  0  0  0  0  0  0  0  0  0
  151.0574  136.3612  157.5370 C   0  0  0  0  0  0  0  0  0  0  0  0
  150.6107  137.0935  156.5141 N   0  0  0  0  0  0  0  0  0  0  0  0
  151.0952  138.3678  156.5668 C   0  0  0  0  0  0  0  0  0  0  0  0
  148.4718  138.3566  157.5420 H   0  0  0  0  0  0  0  0  0  0  0  0
  146.8068  138.3237  156.9553 H   0  0  0  0  0  0  0  0  0  0  0  0
  147.3274  139.5892  158.0597 H   0  0  0  0  0  0  0  0  0  0  0  0
  148.8189  140.5574  156.3641 H   0  0  0  0  0  0  0  0  0  0  0  0
  146.2049  141.3786  153.8101 H   0  0  0  0  0  0  0  0  0  0  0  0
  147.8868  141.7960  154.1836 H   0  0  0  0  0  0  0  0  0  0  0  0
  146.7458  139.0626  153.5048 H   0  0  0  0  0  0  0  0  0  0  0  0
  148.0817  139.8494  152.6852 H   0  0  0  0  0  0  0  0  0  0  0  0
  148.4557  137.3762  153.9373 H   0  0  0  0  0  0  0  0  0  0  0  0
  150.4424  138.6437  153.8114 H   0  0  0  0  0  0  0  0  0  0  0  0
  150.1706  140.3570  153.9802 H   0  0  0  0  0  0  0  0  0  0  0  0
  151.6152  141.4360  155.6972 H   0  0  0  0  0  0  0  0  0  0  0  0
  154.2907  136.5202  159.4505 H   0  0  0  0  0  0  0  0  0  0  0  0
  155.0196  137.9238  158.6851 H   0  0  0  0  0  0  0  0  0  0  0  0
  154.7695  137.4459  161.7101 H   0  0  0  0  0  0  0  0  0  0  0  0
  156.2482  137.4298  160.7677 H   0  0  0  0  0  0  0  0  0  0  0  0
  153.6018  139.5351  162.0038 H   0  0  0  0  0  0  0  0  0  0  0  0
  153.9018  141.7717  162.3024 H   0  0  0  0  0  0  0  0  0  0  0  0
  155.4748  141.6074  161.5289 H   0  0  0  0  0  0  0  0  0  0  0  0
  151.9138  142.1493  160.5223 H   0  0  0  0  0  0  0  0  0  0  0  0
  152.7650  143.3716  161.4692 H   0  0  0  0  0  0  0  0  0  0  0  0
  153.3199  143.9114  158.6712 H   0  0  0  0  0  0  0  0  0  0  0  0
  151.3541  145.3090  160.6500 H   0  0  0  0  0  0  0  0  0  0  0  0
  152.0876  146.0364  159.1287 H   0  0  0  0  0  0  0  0  0  0  0  0
  151.0347  144.2148  157.7533 H   0  0  0  0  0  0  0  0  0  0  0  0
  150.3048  143.4876  159.2764 H   0  0  0  0  0  0  0  0  0  0  0  0
  153.8117  140.1978  159.0197 H   0  0  0  0  0  0  0  0  0  0  0  0
  152.3316  140.1718  159.9649 H   0  0  0  0  0  0  0  0  0  0  0  0
  150.7166  135.3367  157.5619 H   0  0  0  0  0  0  0  0  0  0  0  0
  1  2  1  0  0  0  0
  1 30  1  0  0  0  0
  1 31  1  0  0  0  0
  1 32  1  0  0  0  0
  2  6  1  0  0  0  0
  2  3  1  0  0  0  0
  2 33  1  0  0  0  0
  3  4  1  0  0  0  0
  4  5  1  0  0  0  0
  4 34  1  0  0  0  0
  4 35  1  0  0  0  0
  5  6  1  0  0  0  0
  5 36  1  0  0  0  0
  5 37  1  0  0  0  0
  6  7  1  0  0  0  0
  6  8  1  0  0  0  0
  7 38  1  0  0  0  0
  8  9  1  0  0  0  0
  8 39  1  0  0  0  0
  8 40  1  0  0  0  0
  9 29  1  0  0  0  0
  9 10  1  0  0  0  0
 10 11  2  0  0  0  0
 10 41  1  0  0  0  0
 11 12  1  0  0  0  0
 12 29  2  0  0  0  0
 12 13  1  0  0  0  0
 13 14  1  0  0  0  0
 13 26  2  0  0  0  0
 14 25  1  0  0  0  0
 14 15  1  0  0  0  0
 15 16  1  0  0  0  0
 15 42  1  0  0  0  0
 15 43  1  0  0  0  0
 16 17  1  0  0  0  0
 16 44  1  0  0  0  0
 16 45  1  0  0  0  0
 17 18  1  0  0  0  0
 18 19  1  0  0  0  0
 18 25  1  0  0  0  0
 18 46  1  0  0  0  0
 19 20  1  0  0  0  0
 19 47  1  0  0  0  0
 19 48  1  0  0  0  0
 20 21  1  0  0  0  0
 21 22  1  0  0  0  0
 21 49  1  0  0  0  0
 21 50  1  0  0  0  0
 22 24  1  0  0  0  0
 22 23  1  0  0  0  0
 22 51  1  0  0  0  0
 23 24  1  0  0  0  0
 23 52  1  0  0  0  0
 23 53  1  0  0  0  0
 24 54  1  0  0  0  0
 24 55  1  0  0  0  0
 25 56  1  0  0  0  0
 25 57  1  0  0  0  0
 26 27  1  0  0  0  0
 27 28  2  0  0  0  0
 27 58  1  0  0  0  0
 28 29  1  0  0  0  0
M  END
> <s_m_source_file>
AV-unprocessed.smi

> <i_m_source_file_index>
236

> <i_lp_mmshare_version>
43012

> <i_f3d_flags>
0

> <s_epik_input>
W0NIMl0xW0NIMl1PW0NAQEhdKFtDSDNdKVtDQEBdMShbT0hdKVtDSDJdbihbY0hdbjIpYyhjMjMpbltjSF1uYzNONFtDSDJdW0NIMl1PW0NASF0oW0NIMl00KVtDSDJdT1tDSDJdW0NIXTVbQ0gyXVtDSDJdNQ==

> <s_epik_cmdline>
J2VwaWtfcHl0aG9uJywgJy1waCcsICc3LjAnLCAnLXRuJywgJzgnLCAnLW1hJywgJzIwMCcsICctbWV0YWxfYmluZGluZycsICctaW1hZScsICc8aW5maWxlLm1hZT4nLCAnLW9tYWUnLCAnPG91dGZpbGUubWFlPic=

> <r_lp_tautomer_probability>
1

> <r_epik_Ionization_Penalty>
7.21838e-05

> <r_epik_Ionization_Penalty_Charging>
0

> <r_epik_Ionization_Penalty_Neutral>
7.21838e-05

> <r_epik_State_Penalty>
-0

> <r_epik_Charging_Adjusted_Penalty>
0

> <i_epik_Tot_Q>
0

> <i_epik_Tot_abs_Q>
0

> <r_epik_Metal_State_Penalty>
-0

> <b_epik_Metal_Only>
0

> <s_lp_Force_Field>
OPLS_2005

> <r_lp_Energy>
49.5811

> <b_lp_Chiralities_Consistent>
1

> <s_lp_Variant>
AV-unprocessed.smi:236-3

> <Gold.Version>
5.8.1

> <Gold.Id.Protein>
6NUR|6NUR_protein|mol2

> <Gold.PLP.Fitness>
47.6357

> <Gold.PLP.PLP>
-43.3241

> <Gold.PLP.part.hbond>
-3.0000

> <Gold.PLP.part.metal>
0.0000

> <Gold.PLP.part.buried>
0.8870

> <Gold.PLP.part.nonpolar>
-41.0043

> <Gold.PLP.part.repulsive>
0.0985

> <Gold.PLP.ligand.clash>
0.0000

> <Gold.PLP.ligand.torsion>
2.2543

> <Gold.PLP.Chemscore.Hbond>
2.6560

> <Gold.PLP.Chemscore.CHOScore>
0.0000

> <Gold.PLP.Chemscore.Metal>
0.0000

> <Gold.Chemscore.Hbonds>
donor molecule, donor type, donor heavy atom, donor atom, acceptor molecule, acceptor atom, score
      L1  H     7    38       P1  7948  0.05
      P1  H  6896  6908       L1    26  0.48
      P1  H  7997  8008       L1    11  0.52

> <Gold.PLP.Chemscore.Internal.Correction>
0.8522

> <Gold.Rescore>
     Score         DG    S(hbond)    S(metal)    S(lipo)     H(rot)  DE(clash)    DE(int)     intcor
     12.78     -17.92       1.89        0.00     114.99       2.87       1.13       4.01       ----

> <Gold.Chemscore.Fitness>
12.7776

> <Gold.Chemscore.DG>
-17.9173

> <Gold.Chemscore.ZeroCoef>
-5.4800

> <Gold.Chemscore.Hbond>
1.8919

> <Gold.Chemscore.Metal>
0.0000

> <Gold.Chemscore.Lipo>
114.9930

> <Gold.Chemscore.Internal_Hbond>
0.0000

> <Gold.Chemscore.DEClash>
1.1301

> <Gold.Chemscore.DEInternal>
4.0096

> <Gold.Chemscore.Rot>
2.8655

> <Gold.Chemscore.Internal.Correction>
   9.000000E+99

> <Gold.Chemscore.Hbonds>
donor molecule, donor type, donor heavy atom, donor atom, acceptor molecule, acceptor atom, score
      L1  H     7    38       P1  7948  0.09
      P1  H  6896  6908       L1    26  0.11
      P1  H  7997  8008       L1    11  0.06

> <Gold.Chemscore.Hbond.Weighted>
-6.3189

> <Gold.Chemscore.Metal.Weighted>
-0.0000

> <Gold.Chemscore.Lipo.Weighted>
-13.4542

> <Gold.Chemscore.Internal_Hbond.Weighted>
0.0000

> <Gold.Chemscore.DEClash.Weighted>
1.1301

> <Gold.Chemscore.DEInternal.Weighted>
4.0096

> <Gold.Chemscore.Rot.Weighted>
7.3358

> <Gold.Chemscore.Internal.Correction.Weighted>
   9.000000E+99

> <Gold.Protein.RotatedTorsions>
[ 6907 6896 6895 6894 ] final -130.11 input  -60.11 | X-H torsion
[ 7974 7965 7964 7962 ] final   77.74 input  175.53 | X-H torsion
[ 8008 7997 7996 7995 ] final  -53.79 input   59.86 | X-H torsion
[ 10167 10162 10161 10158 ] final  -39.99 input  -65.29 | X-H torsion
[ 10718 10713 10712 10709 ] final  -27.92 input   66.30 | X-H torsion
[ 10763 10752 10751 10750 ] final  -53.90 input  -60.55 | X-H torsion
[ 11005 11000 10999 10996 ] final   86.31 input  -57.11 | X-H torsion

> <Gold.Protein.ActiveResidues>
 VAL166  LYS551  ARG553  GLY616  TRP617  ASP618  TYR619  PRO620  LYS621  CYS622 
 ASP623  PHE694  ASN695  SER759  ASP760  ASP761  ALA762  ILE779  LEU786  VAL792 
 PHE793  MET794  SER795  GLU796  ALA797  LYS798  CYS799  TRP800  GLU811  SER814 

> <Gold.Protein.RotatedAtoms>
  150.9361  133.6710  159.2800 H   0  0  0  0  0  0  0  0  0  0  0  0  # atno 6907 bound_to 6896
  151.4115  135.0984  159.9596 H   0  0  0  0  0  0  0  0  0  0  0  0  # atno 6908 bound_to 6896
  152.5048  133.8833  159.7412 H   0  0  0  0  0  0  0  0  0  0  0  0  # atno 6909 bound_to 6896
  145.6861  139.2538  143.1786 H   0  0  0  0  0  0  0  0  0  0  0  0  # atno 7974 bound_to 7965
  154.4143  140.1192  156.5210 H   0  0  0  0  0  0  0  0  0  0  0  0  # atno 8008 bound_to 7997
  155.6702  140.3496  155.4796 H   0  0  0  0  0  0  0  0  0  0  0  0  # atno 8009 bound_to 7997
  155.9639  140.1128  157.0862 H   0  0  0  0  0  0  0  0  0  0  0  0  # atno 8010 bound_to 7997
  140.7047  143.3180  151.2861 H   0  0  0  0  0  0  0  0  0  0  0  0  # atno 10167 bound_to 10162
  156.4319  130.4447  149.7112 H   0  0  0  0  0  0  0  0  0  0  0  0  # atno 10718 bound_to 10713
  154.1662  135.6466  153.4998 H   0  0  0  0  0  0  0  0  0  0  0  0  # atno 10763 bound_to 10752
  153.0097  135.5372  154.6660 H   0  0  0  0  0  0  0  0  0  0  0  0  # atno 10764 bound_to 10752
  154.5987  135.2941  155.0531 H   0  0  0  0  0  0  0  0  0  0  0  0  # atno 10765 bound_to 10752
  139.8948  134.8347  156.2703 H   0  0  0  0  0  0  0  0  0  0  0  0  # atno 11005 bound_to 11000
  146.0922  140.7642  142.9590 LP  0  0  0  0  0  0  0  0  0  0  0  0  # atno 17320 bound_to 7965
  144.7011  140.3655  143.7155 LP  0  0  0  0  0  0  0  0  0  0  0  0  # atno 17321 bound_to 7965
  139.6625  144.0164  152.2701 LP  0  0  0  0  0  0  0  0  0  0  0  0  # atno 17342 bound_to 10162
  139.9736  144.6477  150.7966 LP  0  0  0  0  0  0  0  0  0  0  0  0  # atno 17343 bound_to 10162
  156.4011  130.7675  151.2683 LP  0  0  0  0  0  0  0  0  0  0  0  0  # atno 17370 bound_to 10713
  157.7508  131.0239  150.3855 LP  0  0  0  0  0  0  0  0  0  0  0  0  # atno 17371 bound_to 10713
  141.0105  133.7098  156.1104 LP  0  0  0  0  0  0  0  0  0  0  0  0  # atno 17394 bound_to 11000
  140.7374  134.4188  157.5559 LP  0  0  0  0  0  0  0  0  0  0  0  0  # atno 17395 bound_to 11000

$$$$
