AV-unprocessed.smi:503|AV-procd|sdf|2746|dock10
  -GOLD-   2262023213D 1   1.00000     0.00000
 Structure written by MMmdl.
 44 45  0  0  0  0  0  0  0  0  1 V2000
  149.9588  135.8413  158.5616 O   0  0  0  0  0  0  0  0  0  0  0  0
  149.2936  136.8448  158.8230 C   0  0  0  0  0  0  0  0  0  0  0  0
  147.8736  136.7244  159.3947 C   0  0  0  0  0  0  0  0  0  0  0  0
  147.7718  135.7763  160.5169 N   0  0  0  0  0  0  0  0  0  0  0  0
  147.8425  134.4042  160.2048 C   0  0  0  0  0  0  0  0  0  0  0  0
  147.7549  133.4350  161.1360 C   0  0  0  0  0  0  0  0  0  0  0  0
  147.8966  131.9639  160.7768 C   0  0  0  0  0  0  0  0  0  0  0  0
  146.8954  131.5632  159.9928 F   0  0  0  0  0  0  0  0  0  0  0  0
  149.0406  131.7666  160.1228 F   0  0  0  0  0  0  0  0  0  0  0  0
  147.9060  131.1981  161.8687 F   0  0  0  0  0  0  0  0  0  0  0  0
  147.6132  133.8727  162.5109 C   0  0  0  0  0  0  0  0  0  0  0  0
  147.5575  135.1811  162.8283 C   0  0  0  0  0  0  0  0  0  0  0  0
  147.6360  136.2229  161.8017 C   0  0  0  0  0  0  0  0  0  0  0  0
  147.5843  137.4214  162.0792 O   0  0  0  0  0  0  0  0  0  0  0  0
  149.7360  138.0947  158.6168 N   0  0  0  0  0  0  0  0  0  0  0  0
  151.0445  138.4578  158.0764 C   0  0  0  0  0  0  0  0  0  0  0  0
  152.0959  138.3781  159.2044 C   0  0  0  0  0  0  0  0  0  0  0  0
  153.4860  138.9507  158.8608 C   0  0  0  0  0  0  0  0  0  0  0  0
  153.7708  140.3434  159.4600 C   0  0  0  0  0  0  0  0  0  0  0  0
  152.9749  141.5297  158.8777 C   0  0  0  0  0  0  0  0  0  0  0  0
  151.4697  141.5267  159.2153 C   0  0  0  0  0  0  0  0  0  0  0  0
  150.5374  141.0483  158.0852 C   0  0  0  0  0  0  0  0  0  0  0  0
  150.9760  139.7952  157.3015 C   0  0  0  0  0  0  0  0  0  0  0  0
  147.5258  137.7122  159.7034 H   0  0  0  0  0  0  0  0  0  0  0  0
  147.2051  136.4284  158.5851 H   0  0  0  0  0  0  0  0  0  0  0  0
  147.9840  134.1902  159.1553 H   0  0  0  0  0  0  0  0  0  0  0  0
  147.5477  133.1384  163.3003 H   0  0  0  0  0  0  0  0  0  0  0  0
  147.4509  135.4703  163.8636 H   0  0  0  0  0  0  0  0  0  0  0  0
  149.1184  138.8576  158.8542 H   0  0  0  0  0  0  0  0  0  0  0  0
  151.3305  137.6965  157.3478 H   0  0  0  0  0  0  0  0  0  0  0  0
  151.7217  138.8243  160.1248 H   0  0  0  0  0  0  0  0  0  0  0  0
  152.2195  137.3227  159.4519 H   0  0  0  0  0  0  0  0  0  0  0  0
  154.2306  138.2710  159.2769 H   0  0  0  0  0  0  0  0  0  0  0  0
  153.6696  138.9395  157.7865 H   0  0  0  0  0  0  0  0  0  0  0  0
  153.6321  140.3087  160.5413 H   0  0  0  0  0  0  0  0  0  0  0  0
  154.8306  140.5546  159.3135 H   0  0  0  0  0  0  0  0  0  0  0  0
  153.4033  142.4358  159.3075 H   0  0  0  0  0  0  0  0  0  0  0  0
  153.1421  141.6249  157.8049 H   0  0  0  0  0  0  0  0  0  0  0  0
  151.2842  140.9679  160.1311 H   0  0  0  0  0  0  0  0  0  0  0  0
  151.1740  142.5472  159.4606 H   0  0  0  0  0  0  0  0  0  0  0  0
  149.5341  140.9017  158.4866 H   0  0  0  0  0  0  0  0  0  0  0  0
  150.4436  141.8628  157.3659 H   0  0  0  0  0  0  0  0  0  0  0  0
  151.9229  139.9839  156.7988 H   0  0  0  0  0  0  0  0  0  0  0  0
  150.2692  139.6670  156.4805 H   0  0  0  0  0  0  0  0  0  0  0  0
  1  2  2  0  0  0  0
  2  3  1  0  0  0  0
  2 15  1  0  0  0  0
  3  4  1  0  0  0  0
  3 24  1  0  0  0  0
  3 25  1  0  0  0  0
  4 13  1  0  0  0  0
  4  5  1  0  0  0  0
  5  6  2  0  0  0  0
  5 26  1  0  0  0  0
  6  7  1  0  0  0  0
  6 11  1  0  0  0  0
  7  8  1  0  0  0  0
  7  9  1  0  0  0  0
  7 10  1  0  0  0  0
 11 12  2  0  0  0  0
 11 27  1  0  0  0  0
 12 13  1  0  0  0  0
 12 28  1  0  0  0  0
 13 14  2  0  0  0  0
 15 16  1  0  0  0  0
 15 29  1  0  0  0  0
 16 23  1  0  0  0  0
 16 17  1  0  0  0  0
 16 30  1  0  0  0  0
 17 18  1  0  0  0  0
 17 31  1  0  0  0  0
 17 32  1  0  0  0  0
 18 19  1  0  0  0  0
 18 33  1  0  0  0  0
 18 34  1  0  0  0  0
 19 20  1  0  0  0  0
 19 35  1  0  0  0  0
 19 36  1  0  0  0  0
 20 21  1  0  0  0  0
 20 37  1  0  0  0  0
 20 38  1  0  0  0  0
 21 22  1  0  0  0  0
 21 39  1  0  0  0  0
 21 40  1  0  0  0  0
 22 23  1  0  0  0  0
 22 41  1  0  0  0  0
 22 42  1  0  0  0  0
 23 43  1  0  0  0  0
 23 44  1  0  0  0  0
M  END
> <s_m_source_file>
AV-unprocessed.smi

> <i_m_source_file_index>
503

> <i_lp_mmshare_version>
43012

> <i_f3d_flags>
0

> <s_epik_input>
Tz1jMVtjSF1bY0hdYyhDKEYpKEYpRilbY0hdbjFbQ0gyXUMoPU8pW05IXVtDSF0yW0NIMl1bQ0gyXVtDSDJdW0NIMl1bQ0gyXVtDSDJdW0NIMl0y

> <s_epik_cmdline>
J2VwaWtfcHl0aG9uJywgJy1waCcsICc3LjAnLCAnLXRuJywgJzgnLCAnLW1hJywgJzIwMCcsICctbWV0YWxfYmluZGluZycsICctaW1hZScsICc8aW5maWxlLm1hZT4nLCAnLW9tYWUnLCAnPG91dGZpbGUubWFlPic=

> <r_lp_tautomer_probability>
1

> <r_epik_Ionization_Penalty>
3.93819e-08

> <r_epik_Ionization_Penalty_Charging>
1.9167e-08

> <r_epik_Ionization_Penalty_Neutral>
2.02148e-08

> <r_epik_State_Penalty>
-0

> <r_epik_Charging_Adjusted_Penalty>
1.9167e-08

> <i_epik_Tot_Q>
0

> <i_epik_Tot_abs_Q>
0

> <r_epik_Metal_State_Penalty>
-0

> <b_epik_Metal_Only>
0

> <s_lp_Force_Field>
OPLS_2005

> <r_lp_Energy>
31.4462

> <b_lp_Chiralities_Consistent>
1

> <s_lp_Variant>
AV-unprocessed.smi:503-1

> <Gold.Version>
5.8.1

> <Gold.Id.Protein>
6NUR|6NUR_protein|mol2

> <Gold.PLP.Fitness>
46.3151

> <Gold.PLP.PLP>
-40.7350

> <Gold.PLP.part.hbond>
-2.8921

> <Gold.PLP.part.metal>
0.0000

> <Gold.PLP.part.buried>
-4.1553

> <Gold.PLP.part.nonpolar>
-34.2126

> <Gold.PLP.part.repulsive>
0.2136

> <Gold.PLP.ligand.clash>
0.0000

> <Gold.PLP.ligand.torsion>
0.6983

> <Gold.PLP.Chemscore.Hbond>
2.2960

> <Gold.PLP.Chemscore.CHOScore>
0.0000

> <Gold.PLP.Chemscore.Metal>
0.0000

> <Gold.Chemscore.Hbonds>
donor molecule, donor type, donor heavy atom, donor atom, acceptor molecule, acceptor atom, score
      P1  H  6896  6908       L1     1  0.99
      P1  H  6931  6943       L1    14  0.83
      P1  H  6934  6947       L1    14  0.56

> <Gold.PLP.Chemscore.Internal.Correction>
0.0886

> <Gold.Rescore>
     Score         DG    S(hbond)    S(metal)    S(lipo)     H(rot)  DE(clash)    DE(int)     intcor
     18.85     -19.62       2.37        0.00      86.20       1.51       0.07       0.69       ----

> <Gold.Chemscore.Fitness>
18.8523

> <Gold.Chemscore.DG>
-19.6218

> <Gold.Chemscore.ZeroCoef>
-5.4800

> <Gold.Chemscore.Hbond>
2.3742

> <Gold.Chemscore.Metal>
0.0000

> <Gold.Chemscore.Lipo>
86.1994

> <Gold.Chemscore.Internal_Hbond>
0.0000

> <Gold.Chemscore.DEClash>
0.0745

> <Gold.Chemscore.DEInternal>
0.6950

> <Gold.Chemscore.Rot>
1.5131

> <Gold.Chemscore.Internal.Correction>
   9.000000E+99

> <Gold.Chemscore.Hbonds>
donor molecule, donor type, donor heavy atom, donor atom, acceptor molecule, acceptor atom, score
      P1  H  6896  6908       L1     1  0.93
      P1  H  6931  6943       L1    14  0.75
      P1  H  6934  6947       L1    14  0.54

> <Gold.Chemscore.Hbond.Weighted>
-7.9299

> <Gold.Chemscore.Metal.Weighted>
-0.0000

> <Gold.Chemscore.Lipo.Weighted>
-10.0853

> <Gold.Chemscore.Internal_Hbond.Weighted>
0.0000

> <Gold.Chemscore.DEClash.Weighted>
0.0745

> <Gold.Chemscore.DEInternal.Weighted>
0.6950

> <Gold.Chemscore.Rot.Weighted>
3.8734

> <Gold.Chemscore.Internal.Correction.Weighted>
   9.000000E+99

> <Gold.Protein.RotatedTorsions>
[ 6907 6896 6895 6894 ] final -163.73 input  -60.11 | X-H torsion
[ 7974 7965 7964 7962 ] final   86.55 input  175.53 | X-H torsion
[ 8008 7997 7996 7995 ] final  -78.60 input   59.86 | X-H torsion
[ 10167 10162 10161 10158 ] final   81.14 input  -65.29 | X-H torsion
[ 10718 10713 10712 10709 ] final   63.93 input   66.30 | X-H torsion
[ 10763 10752 10751 10750 ] final  106.95 input  -60.55 | X-H torsion
[ 11005 11000 10999 10996 ] final  -12.34 input  -57.11 | X-H torsion

> <Gold.Protein.ActiveResidues>
 VAL166  LYS551  ARG553  GLY616  TRP617  ASP618  TYR619  PRO620  LYS621  CYS622 
 ASP623  PHE694  ASN695  SER759  ASP760  ASP761  ALA762  ILE779  LEU786  VAL792 
 PHE793  MET794  SER795  GLU796  ALA797  LYS798  CYS799  TRP800  GLU811  SER814 

> <Gold.Protein.RotatedAtoms>
  151.4006  133.3759  159.2731 H   0  0  0  0  0  0  0  0  0  0  0  0  # atno 6907 bound_to 6896
  150.9436  134.8844  159.7638 H   0  0  0  0  0  0  0  0  0  0  0  0  # atno 6908 bound_to 6896
  152.5082  134.3958  159.9451 H   0  0  0  0  0  0  0  0  0  0  0  0  # atno 6909 bound_to 6896
  145.5708  139.2313  143.2407 H   0  0  0  0  0  0  0  0  0  0  0  0  # atno 7974 bound_to 7965
  154.5704  140.0692  156.8956 H   0  0  0  0  0  0  0  0  0  0  0  0  # atno 8008 bound_to 7997
  155.2644  140.3361  155.4252 H   0  0  0  0  0  0  0  0  0  0  0  0  # atno 8009 bound_to 7997
  156.2114  140.1760  156.7672 H   0  0  0  0  0  0  0  0  0  0  0  0  # atno 8010 bound_to 7997
  139.9424  144.6081  150.8239 H   0  0  0  0  0  0  0  0  0  0  0  0  # atno 10167 bound_to 10162
  157.6005  130.9132  149.9780 H   0  0  0  0  0  0  0  0  0  0  0  0  # atno 10718 bound_to 10713
  153.4000  135.3860  155.1981 H   0  0  0  0  0  0  0  0  0  0  0  0  # atno 10763 bound_to 10752
  154.8728  135.3769  154.4630 H   0  0  0  0  0  0  0  0  0  0  0  0  # atno 10764 bound_to 10752
  153.5126  135.7087  153.5834 H   0  0  0  0  0  0  0  0  0  0  0  0  # atno 10765 bound_to 10752
  140.7647  133.8487  155.9155 H   0  0  0  0  0  0  0  0  0  0  0  0  # atno 11005 bound_to 11000
  146.1785  140.6534  142.9200 LP  0  0  0  0  0  0  0  0  0  0  0  0  # atno 17320 bound_to 7965
  144.7439  140.5015  143.6850 LP  0  0  0  0  0  0  0  0  0  0  0  0  # atno 17321 bound_to 7965
  140.7607  143.3157  151.2739 LP  0  0  0  0  0  0  0  0  0  0  0  0  # atno 17342 bound_to 10162
  139.6694  144.0047  152.2743 LP  0  0  0  0  0  0  0  0  0  0  0  0  # atno 17343 bound_to 10162
  156.1077  130.3651  150.0104 LP  0  0  0  0  0  0  0  0  0  0  0  0  # atno 17370 bound_to 10713
  156.8208  130.9358  151.3641 LP  0  0  0  0  0  0  0  0  0  0  0  0  # atno 17371 bound_to 10713
  140.9630  134.1630  157.4638 LP  0  0  0  0  0  0  0  0  0  0  0  0  # atno 17394 bound_to 11000
  139.8765  134.9952  156.5730 LP  0  0  0  0  0  0  0  0  0  0  0  0  # atno 17395 bound_to 11000

$$$$
