AV-unprocessed.smi:3106|AV-procd|sdf|11824|dock3
  -GOLD-   2272017193D 1   1.00000     0.00000
 Structure written by MMmdl.
 29 30  0  0  0  0  0  0  0  0  1 V2000
  152.4770  143.7424  161.7290 C   0  0  0  0  0  0  0  0  0  0  0  0
  152.2974  142.9572  160.4468 C   0  0  0  0  0  0  0  0  0  0  0  0
  151.3180  143.3278  159.5066 C   0  0  0  0  0  0  0  0  0  0  0  0
  151.1834  142.5662  158.3299 C   0  0  0  0  0  0  0  0  0  0  0  0
  152.0297  141.4541  158.1204 C   0  0  0  0  0  0  0  0  0  0  0  0
  151.8102  140.7526  156.9052 N   0  0  0  0  0  0  0  0  0  0  0  0
  152.4548  139.6667  156.4390 C   0  0  0  0  0  0  0  0  0  0  0  0
  153.3711  139.0904  157.0266 O   0  0  0  0  0  0  0  0  0  0  0  0
  151.9663  139.1382  155.0851 C   0  0  1  0  0  0  0  0  0  0  0  0
  151.5486  137.6556  155.1016 C   0  0  0  0  0  0  0  0  0  0  0  0
  150.0406  137.7056  154.9528 C   0  0  0  0  0  0  0  0  0  0  0  0
  149.8506  138.9816  154.1457 C   0  0  0  0  0  0  0  0  0  0  0  0
  150.7964  139.8692  154.7211 O   0  0  0  0  0  0  0  0  0  0  0  0
  152.9718  141.1053  159.0319 N   0  0  0  0  0  0  0  0  0  0  0  0
  153.0996  141.8352  160.1600 C   0  0  0  0  0  0  0  0  0  0  0  0
  152.5094  144.8119  161.5192 H   0  0  0  0  0  0  0  0  0  0  0  0
  153.4033  143.4673  162.2342 H   0  0  0  0  0  0  0  0  0  0  0  0
  151.6458  143.5495  162.4078 H   0  0  0  0  0  0  0  0  0  0  0  0
  150.6786  144.1807  159.6821 H   0  0  0  0  0  0  0  0  0  0  0  0
  150.4356  142.8369  157.5986 H   0  0  0  0  0  0  0  0  0  0  0  0
  151.0737  141.1178  156.3195 H   0  0  0  0  0  0  0  0  0  0  0  0
  152.7318  139.2923  154.3224 H   0  0  0  0  0  0  0  0  0  0  0  0
  151.9895  137.1415  154.2466 H   0  0  0  0  0  0  0  0  0  0  0  0
  151.8545  137.1141  155.9979 H   0  0  0  0  0  0  0  0  0  0  0  0
  149.6280  136.8234  154.4629 H   0  0  0  0  0  0  0  0  0  0  0  0
  149.5698  137.8086  155.9315 H   0  0  0  0  0  0  0  0  0  0  0  0
  150.0939  138.8189  153.0947 H   0  0  0  0  0  0  0  0  0  0  0  0
  148.8365  139.3766  154.2103 H   0  0  0  0  0  0  0  0  0  0  0  0
  153.8635  141.5110  160.8513 H   0  0  0  0  0  0  0  0  0  0  0  0
  1  2  1  0  0  0  0
  1 16  1  0  0  0  0
  1 17  1  0  0  0  0
  1 18  1  0  0  0  0
  2 15  1  0  0  0  0
  2  3  2  0  0  0  0
  3  4  1  0  0  0  0
  3 19  1  0  0  0  0
  4  5  2  0  0  0  0
  4 20  1  0  0  0  0
  5  6  1  0  0  0  0
  5 14  1  0  0  0  0
  6  7  1  0  0  0  0
  6 21  1  0  0  0  0
  7  8  2  0  0  0  0
  7  9  1  0  0  0  0
  9 13  1  0  0  0  0
  9 10  1  0  0  0  0
  9 22  1  0  0  0  0
 10 11  1  0  0  0  0
 10 23  1  0  0  0  0
 10 24  1  0  0  0  0
 11 12  1  0  0  0  0
 11 25  1  0  0  0  0
 11 26  1  0  0  0  0
 12 13  1  0  0  0  0
 12 27  1  0  0  0  0
 12 28  1  0  0  0  0
 14 15  2  0  0  0  0
 15 29  1  0  0  0  0
M  END
> <s_m_source_file>
AV-unprocessed.smi

> <i_m_source_file_index>
3106

> <i_lp_mmshare_version>
43012

> <i_f3d_flags>
0

> <s_epik_input>
W0NIM11jMVtjSF1bY0hdYyhuW2NIXTEpW05IXUMoPU8pW0NAQEhdMltDSDJdW0NIMl1bQ0gyXU8y

> <s_epik_cmdline>
J2VwaWtfcHl0aG9uJywgJy1waCcsICc3LjAnLCAnLXRuJywgJzgnLCAnLW1hJywgJzIwMCcsICctbWV0YWxfYmluZGluZycsICctaW1hZScsICc8aW5maWxlLm1hZT4nLCAnLW9tYWUnLCAnPG91dGZpbGUubWFlPic=

> <r_epik_Ionization_Penalty>
0.00356606

> <r_epik_Ionization_Penalty_Charging>
0

> <r_epik_Ionization_Penalty_Neutral>
0.00356606

> <r_epik_State_Penalty>
0.00372088

> <r_epik_Charging_Adjusted_Penalty>
0.00372088

> <i_epik_Tot_Q>
0

> <i_epik_Tot_abs_Q>
0

> <r_epik_Metal_State_Penalty>
-0

> <b_epik_Metal_Only>
0

> <s_lp_Force_Field>
OPLS_2005

> <r_lp_Energy>
20.6895

> <b_lp_Chiralities_Consistent>
1

> <s_lp_Variant>
AV-unprocessed.smi:3106-2

> <Gold.Version>
5.8.1

> <Gold.Id.Protein>
6NUR|6NUR_protein|mol2

> <Gold.PLP.Fitness>
37.1347

> <Gold.PLP.PLP>
-31.2841

> <Gold.PLP.part.hbond>
-2.0000

> <Gold.PLP.part.metal>
0.0000

> <Gold.PLP.part.buried>
-1.9291

> <Gold.PLP.part.nonpolar>
-26.3914

> <Gold.PLP.part.repulsive>
0.1970

> <Gold.PLP.ligand.clash>
0.0000

> <Gold.PLP.ligand.torsion>
0.0784

> <Gold.PLP.Chemscore.Hbond>
2.0000

> <Gold.PLP.Chemscore.CHOScore>
0.0000

> <Gold.PLP.Chemscore.Metal>
0.0000

> <Gold.Chemscore.Hbonds>
donor molecule, donor type, donor heavy atom, donor atom, acceptor molecule, acceptor atom, score
      P1  H  7989  7998       L1    13  0.70
      P1  H  7997  8009       L1     8  0.94

> <Gold.PLP.Chemscore.Internal.Correction>
0.0074

> <Gold.Rescore>
     Score         DG    S(hbond)    S(metal)    S(lipo)     H(rot)  DE(clash)    DE(int)     intcor
     15.11     -16.83       1.39        0.00      79.26       1.00       0.41       1.31       ----

> <Gold.Chemscore.Fitness>
15.1065

> <Gold.Chemscore.DG>
-16.8294

> <Gold.Chemscore.ZeroCoef>
-5.4800

> <Gold.Chemscore.Hbond>
1.3881

> <Gold.Chemscore.Metal>
0.0000

> <Gold.Chemscore.Lipo>
79.2566

> <Gold.Chemscore.Internal_Hbond>
0.0000

> <Gold.Chemscore.DEClash>
0.4122

> <Gold.Chemscore.DEInternal>
1.3107

> <Gold.Chemscore.Rot>
1.0000

> <Gold.Chemscore.Internal.Correction>
   9.000000E+99

> <Gold.Chemscore.Hbonds>
donor molecule, donor type, donor heavy atom, donor atom, acceptor molecule, acceptor atom, score
      P1  H  7989  7998       L1    13  0.06
      P1  H  7997  8009       L1     8  0.47

> <Gold.Chemscore.Hbond.Weighted>
-4.6363

> <Gold.Chemscore.Metal.Weighted>
-0.0000

> <Gold.Chemscore.Lipo.Weighted>
-9.2730

> <Gold.Chemscore.Internal_Hbond.Weighted>
0.0000

> <Gold.Chemscore.DEClash.Weighted>
0.4122

> <Gold.Chemscore.DEInternal.Weighted>
1.3107

> <Gold.Chemscore.Rot.Weighted>
2.5600

> <Gold.Chemscore.Internal.Correction.Weighted>
   9.000000E+99

> <Gold.Protein.RotatedTorsions>
[ 6907 6896 6895 6894 ] final   78.39 input  -60.11 | X-H torsion
[ 7974 7965 7964 7962 ] final   72.55 input  175.53 | X-H torsion
[ 8008 7997 7996 7995 ] final  157.39 input   59.86 | X-H torsion
[ 10167 10162 10161 10158 ] final -110.24 input  -65.29 | X-H torsion
[ 10718 10713 10712 10709 ] final -121.32 input   66.30 | X-H torsion
[ 10763 10752 10751 10750 ] final -164.07 input  -60.55 | X-H torsion
[ 11005 11000 10999 10996 ] final -121.11 input  -57.11 | X-H torsion

> <Gold.Protein.ActiveResidues>
 VAL166  LYS551  ARG553  GLY616  TRP617  ASP618  TYR619  PRO620  LYS621  CYS622 
 ASP623  PHE694  ASN695  SER759  ASP760  ASP761  ALA762  ILE779  LEU786  VAL792 
 PHE793  MET794  SER795  GLU796  ALA797  LYS798  CYS799  TRP800  GLU811  SER814 

> <Gold.Protein.RotatedAtoms>
  152.5157  134.3672  159.9305 H   0  0  0  0  0  0  0  0  0  0  0  0  # atno 6907 bound_to 6896
  151.3626  133.3878  159.2699 H   0  0  0  0  0  0  0  0  0  0  0  0  # atno 6908 bound_to 6896
  150.9640  134.9043  159.7806 H   0  0  0  0  0  0  0  0  0  0  0  0  # atno 6909 bound_to 6896
  145.7519  139.2763  143.1426 H   0  0  0  0  0  0  0  0  0  0  0  0  # atno 7974 bound_to 7965
  156.2367  140.1886  156.7101 H   0  0  0  0  0  0  0  0  0  0  0  0  # atno 8008 bound_to 7997
  154.6119  140.0621  156.9532 H   0  0  0  0  0  0  0  0  0  0  0  0  # atno 8009 bound_to 7997
  155.2002  140.3291  155.4347 H   0  0  0  0  0  0  0  0  0  0  0  0  # atno 8010 bound_to 7997
  140.1466  143.4234  152.1524 H   0  0  0  0  0  0  0  0  0  0  0  0  # atno 10167 bound_to 10162
  156.1328  130.6408  150.9648 H   0  0  0  0  0  0  0  0  0  0  0  0  # atno 10718 bound_to 10713
  154.7063  135.2997  154.9266 H   0  0  0  0  0  0  0  0  0  0  0  0  # atno 10763 bound_to 10752
  154.0182  135.6686  153.4774 H   0  0  0  0  0  0  0  0  0  0  0  0  # atno 10764 bound_to 10752
  153.0719  135.5056  154.8235 H   0  0  0  0  0  0  0  0  0  0  0  0  # atno 10765 bound_to 10752
  141.0094  134.0286  157.3433 H   0  0  0  0  0  0  0  0  0  0  0  0  # atno 11005 bound_to 11000
  146.0348  140.8223  142.9858 LP  0  0  0  0  0  0  0  0  0  0  0  0  # atno 17320 bound_to 7965
  144.6848  140.2822  143.7290 LP  0  0  0  0  0  0  0  0  0  0  0  0  # atno 17321 bound_to 7965
  139.5446  144.7287  151.4624 LP  0  0  0  0  0  0  0  0  0  0  0  0  # atno 17342 bound_to 10162
  140.6728  143.8256  150.7021 LP  0  0  0  0  0  0  0  0  0  0  0  0  # atno 17343 bound_to 10162
  157.6504  131.0898  150.8063 LP  0  0  0  0  0  0  0  0  0  0  0  0  # atno 17370 bound_to 10713
  156.8146  130.4963  149.5351 LP  0  0  0  0  0  0  0  0  0  0  0  0  # atno 17371 bound_to 10713
  139.9081  135.0184  156.7576 LP  0  0  0  0  0  0  0  0  0  0  0  0  # atno 17394 bound_to 11000
  140.6758  133.9518  155.7882 LP  0  0  0  0  0  0  0  0  0  0  0  0  # atno 17395 bound_to 11000

$$$$
