AV-unprocessed.smi:58|AV-procd|sdf|583|dock9
  -GOLD-   2262016483D 1   1.00000     0.00000
 Structure written by MMmdl.
 32 33  0  0  0  0  0  0  0  0  1 V2000
  153.3149  141.5372  160.7121 C   0  0  0  0  0  0  0  0  0  0  0  0
  152.6061  142.0162  159.5453 N   0  0  0  0  0  0  0  0  0  0  0  0
  152.2261  143.3040  159.2376 C   0  0  0  0  0  0  0  0  0  0  0  0
  151.5892  143.2642  158.0298 C   0  0  0  0  0  0  0  0  0  0  0  0
  151.0520  144.3759  157.3476 N   0  0  0  0  0  0  0  0  0  0  0  0
  151.6084  141.8776  157.6797 C   0  0  0  0  0  0  0  0  0  0  0  0
  151.0382  141.3949  156.3745 C   0  0  0  0  0  0  0  0  0  0  0  0
  150.1833  142.0729  155.8031 O   0  0  0  0  0  0  0  0  0  0  0  0
  151.4589  140.1967  155.9047 N   0  0  0  0  0  0  0  0  0  0  0  0
  152.4873  139.3496  156.5147 C   0  0  0  0  0  0  0  0  0  0  0  0
  152.5161  138.0607  155.6964 C   0  0  0  0  0  0  0  0  0  0  0  0
  151.9773  138.4805  154.3374 C   0  0  0  0  0  0  0  0  0  0  0  0
  150.9715  139.5949  154.6560 C   0  0  1  0  0  0  0  0  0  0  0  0
  149.5306  139.0602  154.8182 C   0  0  0  0  0  0  0  0  0  0  0  0
  149.0120  138.6599  153.5675 O   0  0  0  0  0  0  0  0  0  0  0  0
  152.2421  141.1430  158.5849 N   0  0  0  0  0  0  0  0  0  0  0  0
  153.5166  142.3647  161.3928 H   0  0  0  0  0  0  0  0  0  0  0  0
  154.2615  141.0879  160.4103 H   0  0  0  0  0  0  0  0  0  0  0  0
  152.7120  140.7909  161.2303 H   0  0  0  0  0  0  0  0  0  0  0  0
  152.4436  144.1341  159.8939 H   0  0  0  0  0  0  0  0  0  0  0  0
  151.1096  145.3091  157.7301 H   0  0  0  0  0  0  0  0  0  0  0  0
  150.4611  144.2664  156.5359 H   0  0  0  0  0  0  0  0  0  0  0  0
  153.4535  139.8511  156.4447 H   0  0  0  0  0  0  0  0  0  0  0  0
  152.2816  139.1450  157.5664 H   0  0  0  0  0  0  0  0  0  0  0  0
  153.5108  137.6179  155.6391 H   0  0  0  0  0  0  0  0  0  0  0  0
  151.8479  137.3248  156.1453 H   0  0  0  0  0  0  0  0  0  0  0  0
  152.7919  138.8884  153.7375 H   0  0  0  0  0  0  0  0  0  0  0  0
  151.5467  137.6484  153.7794 H   0  0  0  0  0  0  0  0  0  0  0  0
  150.9924  140.3421  153.8601 H   0  0  0  0  0  0  0  0  0  0  0  0
  149.4984  138.2195  155.5121 H   0  0  0  0  0  0  0  0  0  0  0  0
  148.8665  139.8270  155.2165 H   0  0  0  0  0  0  0  0  0  0  0  0
  149.1834  139.3441  152.9384 H   0  0  0  0  0  0  0  0  0  0  0  0
  1  2  1  0  0  0  0
  1 17  1  0  0  0  0
  1 18  1  0  0  0  0
  1 19  1  0  0  0  0
  2 16  1  0  0  0  0
  2  3  1  0  0  0  0
  3  4  2  0  0  0  0
  3 20  1  0  0  0  0
  4  5  1  0  0  0  0
  4  6  1  0  0  0  0
  5 21  1  0  0  0  0
  5 22  1  0  0  0  0
  6  7  1  0  0  0  0
  6 16  2  0  0  0  0
  7  8  2  0  0  0  0
  7  9  1  0  0  0  0
  9 13  1  0  0  0  0
  9 10  1  0  0  0  0
 10 11  1  0  0  0  0
 10 23  1  0  0  0  0
 10 24  1  0  0  0  0
 11 12  1  0  0  0  0
 11 25  1  0  0  0  0
 11 26  1  0  0  0  0
 12 13  1  0  0  0  0
 12 27  1  0  0  0  0
 12 28  1  0  0  0  0
 13 14  1  0  0  0  0
 13 29  1  0  0  0  0
 14 15  1  0  0  0  0
 14 30  1  0  0  0  0
 14 31  1  0  0  0  0
 15 32  1  0  0  0  0
M  END
> <s_m_source_file>
AV-unprocessed.smi

> <i_m_source_file_index>
58

> <i_lp_mmshare_version>
43012

> <i_f3d_flags>
0

> <s_epik_input>
W0NIM11uMVtjSF1jKFtOSDJdKWMobjEpQyg9TylOMltDSDJdW0NIMl1bQ0gyXVtDQEhdMltDSDJdW09IXQ==

> <s_epik_cmdline>
J2VwaWtfcHl0aG9uJywgJy1waCcsICc3LjAnLCAnLXRuJywgJzgnLCAnLW1hJywgJzIwMCcsICctbWV0YWxfYmluZGluZycsICctaW1hZScsICc8aW5maWxlLm1hZT4nLCAnLW9tYWUnLCAnPG91dGZpbGUubWFlPic=

> <r_lp_tautomer_probability>
1

> <r_epik_Ionization_Penalty>
5.64206e-05

> <r_epik_Ionization_Penalty_Charging>
0

> <r_epik_Ionization_Penalty_Neutral>
5.64206e-05

> <r_epik_State_Penalty>
-0

> <r_epik_Charging_Adjusted_Penalty>
0

> <i_epik_Tot_Q>
0

> <i_epik_Tot_abs_Q>
0

> <r_epik_Metal_State_Penalty>
-0

> <b_epik_Metal_Only>
0

> <s_lp_Force_Field>
OPLS_2005

> <r_lp_Energy>
40.444

> <b_lp_Chiralities_Consistent>
1

> <s_lp_Variant>
AV-unprocessed.smi:58-1

> <Gold.Version>
5.8.1

> <Gold.Id.Protein>
6NUR|6NUR_protein|mol2

> <Gold.PLP.Fitness>
39.8306

> <Gold.PLP.PLP>
-34.2304

> <Gold.PLP.part.hbond>
-3.0000

> <Gold.PLP.part.metal>
0.0000

> <Gold.PLP.part.buried>
-2.4130

> <Gold.PLP.part.nonpolar>
-29.5198

> <Gold.PLP.part.repulsive>
1.3068

> <Gold.PLP.ligand.clash>
0.0028

> <Gold.PLP.ligand.torsion>
0.2320

> <Gold.PLP.Chemscore.Hbond>
1.9280

> <Gold.PLP.Chemscore.CHOScore>
0.0000

> <Gold.PLP.Chemscore.Metal>
0.0000

> <Gold.Chemscore.Hbonds>
donor molecule, donor type, donor heavy atom, donor atom, acceptor molecule, acceptor atom, score
      L1  H     5    22       P1  8028  0.94
      L1  H    15    32       P1  7957  1.00

> <Gold.PLP.Chemscore.Internal.Correction>
0.2830

> <Gold.Rescore>
     Score         DG    S(hbond)    S(metal)    S(lipo)     H(rot)  DE(clash)    DE(int)     intcor
     12.92     -16.52       1.85        0.00      74.12       1.49       0.65       2.95       ----

> <Gold.Chemscore.Fitness>
12.9239

> <Gold.Chemscore.DG>
-16.5234

> <Gold.Chemscore.ZeroCoef>
-5.4800

> <Gold.Chemscore.Hbond>
1.8527

> <Gold.Chemscore.Metal>
0.0000

> <Gold.Chemscore.Lipo>
74.1172

> <Gold.Chemscore.Internal_Hbond>
0.0000

> <Gold.Chemscore.DEClash>
0.6482

> <Gold.Chemscore.DEInternal>
2.9513

> <Gold.Chemscore.Rot>
1.4907

> <Gold.Chemscore.Internal.Correction>
   9.000000E+99

> <Gold.Chemscore.Hbonds>
donor molecule, donor type, donor heavy atom, donor atom, acceptor molecule, acceptor atom, score
      L1  H     5    22       P1  8028  0.91
      L1  H    15    32       P1  7957  0.97

> <Gold.Chemscore.Hbond.Weighted>
-6.1880

> <Gold.Chemscore.Metal.Weighted>
-0.0000

> <Gold.Chemscore.Lipo.Weighted>
-8.6717

> <Gold.Chemscore.Internal_Hbond.Weighted>
0.0000

> <Gold.Chemscore.DEClash.Weighted>
0.6482

> <Gold.Chemscore.DEInternal.Weighted>
2.9513

> <Gold.Chemscore.Rot.Weighted>
3.8163

> <Gold.Chemscore.Internal.Correction.Weighted>
   9.000000E+99

> <Gold.Protein.RotatedTorsions>
[ 6907 6896 6895 6894 ] final  -47.54 input  -60.11 | X-H torsion
[ 7974 7965 7964 7962 ] final -172.76 input  175.53 | X-H torsion
[ 8008 7997 7996 7995 ] final -102.45 input   59.86 | X-H torsion
[ 10167 10162 10161 10158 ] final   75.16 input  -65.29 | X-H torsion
[ 10718 10713 10712 10709 ] final  157.59 input   66.30 | X-H torsion
[ 10763 10752 10751 10750 ] final   77.15 input  -60.55 | X-H torsion
[ 11005 11000 10999 10996 ] final   54.77 input  -57.11 | X-H torsion

> <Gold.Protein.ActiveResidues>
 VAL166  LYS551  ARG553  GLY616  TRP617  ASP618  TYR619  PRO620  LYS621  CYS622 
 ASP623  PHE694  ASN695  SER759  ASP760  ASP761  ALA762  ILE779  LEU786  VAL792 
 PHE793  MET794  SER795  GLU796  ALA797  LYS798  CYS799  TRP800  GLU811  SER814 

> <Gold.Protein.RotatedAtoms>
  150.8998  134.8409  159.7351 H   0  0  0  0  0  0  0  0  0  0  0  0  # atno 6907 bound_to 6896
  152.4885  134.4521  159.9587 H   0  0  0  0  0  0  0  0  0  0  0  0  # atno 6908 bound_to 6896
  151.4574  133.3562  159.2839 H   0  0  0  0  0  0  0  0  0  0  0  0  # atno 6909 bound_to 6896
  144.7143  140.1723  143.6366 H   0  0  0  0  0  0  0  0  0  0  0  0  # atno 7974 bound_to 7965
  154.8569  140.0428  157.1640 H   0  0  0  0  0  0  0  0  0  0  0  0  # atno 8008 bound_to 7997
  154.8882  140.2982  155.5365 H   0  0  0  0  0  0  0  0  0  0  0  0  # atno 8009 bound_to 7997
  156.2997  140.2398  156.3894 H   0  0  0  0  0  0  0  0  0  0  0  0  # atno 8010 bound_to 7997
  140.0059  144.5651  150.7698 H   0  0  0  0  0  0  0  0  0  0  0  0  # atno 10167 bound_to 10162
  157.1894  131.0651  151.2088 H   0  0  0  0  0  0  0  0  0  0  0  0  # atno 10718 bound_to 10713
  153.0777  135.4925  154.8439 H   0  0  0  0  0  0  0  0  0  0  0  0  # atno 10763 bound_to 10752
  154.7110  135.3020  154.9199 H   0  0  0  0  0  0  0  0  0  0  0  0  # atno 10764 bound_to 10752
  153.9893  135.6780  153.4806 H   0  0  0  0  0  0  0  0  0  0  0  0  # atno 10765 bound_to 10752
  140.0660  134.5536  155.9099 H   0  0  0  0  0  0  0  0  0  0  0  0  # atno 11005 bound_to 11000
  145.8932  139.2387  143.1537 LP  0  0  0  0  0  0  0  0  0  0  0  0  # atno 17320 bound_to 7965
  145.9883  140.8624  143.0079 LP  0  0  0  0  0  0  0  0  0  0  0  0  # atno 17321 bound_to 7965
  140.7400  143.2799  151.3629 LP  0  0  0  0  0  0  0  0  0  0  0  0  # atno 17342 bound_to 10162
  139.6239  144.0853  152.2416 LP  0  0  0  0  0  0  0  0  0  0  0  0  # atno 17343 bound_to 10162
  157.3875  130.7264  149.6674 LP  0  0  0  0  0  0  0  0  0  0  0  0  # atno 17370 bound_to 10713
  155.9713  130.4155  150.4186 LP  0  0  0  0  0  0  0  0  0  0  0  0  # atno 17371 bound_to 10713
  141.1993  133.6606  156.5835 LP  0  0  0  0  0  0  0  0  0  0  0  0  # atno 17394 bound_to 11000
  140.3698  134.7615  157.4591 LP  0  0  0  0  0  0  0  0  0  0  0  0  # atno 17395 bound_to 11000

$$$$
