AV-unprocessed.smi:2822|AV-procd|sdf|10864|dock10
  -GOLD-   2272015313D 1   1.00000     0.00000
 Structure written by MMmdl.
 41 43  0  0  0  0  0  0  0  0  3 V2000
  146.4877  131.0738  149.2729 Cl  0  0  0  0  0  0  0  0  0  0  0  0
  145.8339  132.5625  149.8610 C   0  0  0  0  0  0  0  0  0  0  0  0
  144.5192  132.9265  149.5028 C   0  0  0  0  0  0  0  0  0  0  0  0
  143.9935  134.0863  149.9506 N   0  3  0  0  0  0  0  0  0  0  0  0
  144.6762  134.9373  150.7450 C   0  0  0  0  0  0  0  0  0  0  0  0
  145.9943  134.6281  151.1381 C   0  0  0  0  0  0  0  0  0  0  0  0
  146.5932  133.4230  150.6922 C   0  0  0  0  0  0  0  0  0  0  0  0
  147.9013  133.0587  151.0482 N   0  0  0  0  0  0  0  0  0  0  0  0
  148.7972  134.0160  151.6801 C   0  0  0  0  0  0  0  0  0  0  0  0
  149.0211  133.6892  153.1639 C   0  0  2  0  0  0  0  0  0  0  0  0
  150.3722  134.2306  153.6659 C   0  0  0  0  0  0  0  0  0  0  0  0
  150.6047  133.8289  155.0756 N   0  3  2  0  0  0  0  0  0  0  0  0
  151.8651  134.3638  155.6540 C   0  0  0  0  0  0  0  0  0  0  0  0
  153.1080  133.6143  155.1373 C   0  0  0  0  0  0  0  0  0  0  0  0
  152.9764  132.1028  155.3674 C   0  0  0  0  0  0  0  0  0  0  0  0
  151.6718  131.5793  154.7505 C   0  0  0  0  0  0  0  0  0  0  0  0
  150.4512  132.3623  155.2829 C   0  0  2  0  0  0  0  0  0  0  0  0
  149.1214  131.8747  154.6752 C   0  0  0  0  0  0  0  0  0  0  0  0
  149.0245  132.2732  153.3129 O   0  0  0  0  0  0  0  0  0  0  0  0
  143.8765  132.3274  148.8744 H   0  0  0  0  0  0  0  0  0  0  0  0
  144.1516  135.8339  151.0418 H   0  0  0  0  0  0  0  0  0  0  0  0
  146.5222  135.3199  151.7772 H   0  0  0  0  0  0  0  0  0  0  0  0
  148.3028  132.2277  150.6366 H   0  0  0  0  0  0  0  0  0  0  0  0
  149.7520  134.0356  151.1524 H   0  0  0  0  0  0  0  0  0  0  0  0
  148.3556  135.0095  151.5921 H   0  0  0  0  0  0  0  0  0  0  0  0
  148.2115  134.1237  153.7541 H   0  0  0  0  0  0  0  0  0  0  0  0
  151.1769  133.8647  153.0282 H   0  0  0  0  0  0  0  0  0  0  0  0
  150.3846  135.3190  153.5952 H   0  0  0  0  0  0  0  0  0  0  0  0
  151.9480  135.4312  155.4455 H   0  0  0  0  0  0  0  0  0  0  0  0
  151.8106  134.2679  156.7391 H   0  0  0  0  0  0  0  0  0  0  0  0
  153.2545  133.8137  154.0755 H   0  0  0  0  0  0  0  0  0  0  0  0
  154.0000  133.9878  155.6412 H   0  0  0  0  0  0  0  0  0  0  0  0
  153.8323  131.5803  154.9389 H   0  0  0  0  0  0  0  0  0  0  0  0
  152.9871  131.8919  156.4376 H   0  0  0  0  0  0  0  0  0  0  0  0
  151.7258  131.6487  153.6635 H   0  0  0  0  0  0  0  0  0  0  0  0
  151.5620  130.5190  154.9805 H   0  0  0  0  0  0  0  0  0  0  0  0
  150.4006  132.1942  156.3598 H   0  0  0  0  0  0  0  0  0  0  0  0
  149.0510  130.7884  154.7351 H   0  0  0  0  0  0  0  0  0  0  0  0
  148.2739  132.2731  155.2352 H   0  0  0  0  0  0  0  0  0  0  0  0
  149.8568  134.2614  155.5990 H   0  0  0  0  0  0  0  0  0  0  0  0
  143.0404  134.3288  149.6782 H   0  0  0  0  0  0  0  0  0  0  0  0
  1  2  1  0  0  0  0
  2  7  1  0  0  0  0
  2  3  2  0  0  0  0
  3  4  1  0  0  0  0
  3 20  1  0  0  0  0
  4  5  2  0  0  0  0
  4 41  1  0  0  0  0
  5  6  1  0  0  0  0
  5 21  1  0  0  0  0
  6  7  2  0  0  0  0
  6 22  1  0  0  0  0
  7  8  1  0  0  0  0
  8  9  1  0  0  0  0
  8 23  1  0  0  0  0
  9 10  1  0  0  0  0
  9 24  1  0  0  0  0
  9 25  1  0  0  0  0
 10 19  1  0  0  0  0
 10 11  1  0  0  0  0
 10 26  1  0  0  0  0
 11 12  1  0  0  0  0
 11 27  1  0  0  0  0
 11 28  1  0  0  0  0
 12 17  1  0  0  0  0
 12 13  1  0  0  0  0
 12 40  1  0  0  0  0
 13 14  1  0  0  0  0
 13 29  1  0  0  0  0
 13 30  1  0  0  0  0
 14 15  1  0  0  0  0
 14 31  1  0  0  0  0
 14 32  1  0  0  0  0
 15 16  1  0  0  0  0
 15 33  1  0  0  0  0
 15 34  1  0  0  0  0
 16 17  1  0  0  0  0
 16 35  1  0  0  0  0
 16 36  1  0  0  0  0
 17 18  1  0  0  0  0
 17 37  1  0  0  0  0
 18 19  1  0  0  0  0
 18 38  1  0  0  0  0
 18 39  1  0  0  0  0
M  CHG  1   4   1
M  CHG  1  12   1
M  END
> <s_m_source_file>
AV-unprocessed.smi

> <i_m_source_file_index>
2822

> <i_lp_mmshare_version>
43012

> <i_f3d_flags>
0

> <s_epik_input>
Q2xjMVtjSF1uW2NIXVtjSF1jMVtOSF1bQ0gyXVtDQEhdKFtDSDJdMilPW0NIMl1bQ0BASF0oTjIzKVtDSDJdW0NIMl1bQ0gyXVtDSDJdMw==

> <s_epik_cmdline>
J2VwaWtfcHl0aG9uJywgJy1waCcsICc3LjAnLCAnLXRuJywgJzgnLCAnLW1hJywgJzIwMCcsICctbWV0YWxfYmluZGluZycsICctaW1hZScsICc8aW5maWxlLm1hZT4nLCAnLW9tYWUnLCAnPG91dGZpbGUubWFlPic=

> <r_lp_tautomer_probability>
1

> <r_epik_Ionization_Penalty>
0.254999

> <r_epik_Ionization_Penalty_Charging>
0.254956

> <r_epik_Ionization_Penalty_Neutral>
4.33524e-05

> <r_epik_State_Penalty>
0.230978

> <r_epik_Charging_Adjusted_Penalty>
0.485934

> <i_epik_Tot_Q>
2

> <i_epik_Tot_abs_Q>
2

> <r_epik_Metal_State_Penalty>
3.47007

> <b_epik_Metal_Only>
0

> <s_lp_Force_Field>
OPLS_2005

> <r_lp_Energy>
39.695

> <b_lp_Chiralities_Consistent>
1

> <s_lp_Variant>
AV-unprocessed.smi:2822-5

> <Gold.Version>
5.8.1

> <Gold.Id.Protein>
6NUR|6NUR_protein|mol2

> <Gold.PLP.Fitness>
44.1361

> <Gold.PLP.PLP>
-35.9000

> <Gold.PLP.part.hbond>
-2.0000

> <Gold.PLP.part.metal>
0.0000

> <Gold.PLP.part.buried>
-4.3779

> <Gold.PLP.part.nonpolar>
-29.4995

> <Gold.PLP.part.repulsive>
0.7063

> <Gold.PLP.ligand.clash>
0.0000

> <Gold.PLP.ligand.torsion>
0.3823

> <Gold.PLP.Chemscore.Hbond>
3.0000

> <Gold.PLP.Chemscore.CHOScore>
0.0000

> <Gold.PLP.Chemscore.Metal>
0.0000

> <Gold.Chemscore.Hbonds>
donor molecule, donor type, donor heavy atom, donor atom, acceptor molecule, acceptor atom, score
      L1  H     4    41       P1 10186  1.98
      L1  H     8    23       P1 10747  1.00

> <Gold.PLP.Chemscore.Internal.Correction>
0.0006

> <Gold.Rescore>
     Score         DG    S(hbond)    S(metal)    S(lipo)     H(rot)  DE(clash)    DE(int)     intcor
     18.10     -20.73       1.99        0.00      99.61       1.20       2.12       0.50       ----

> <Gold.Chemscore.Fitness>
18.1030

> <Gold.Chemscore.DG>
-20.7252

> <Gold.Chemscore.ZeroCoef>
-5.4800

> <Gold.Chemscore.Hbond>
1.9918

> <Gold.Chemscore.Metal>
0.0000

> <Gold.Chemscore.Lipo>
99.6149

> <Gold.Chemscore.Internal_Hbond>
0.0000

> <Gold.Chemscore.DEClash>
2.1200

> <Gold.Chemscore.DEInternal>
0.5023

> <Gold.Chemscore.Rot>
1.1962

> <Gold.Chemscore.Internal.Correction>
   9.000000E+99

> <Gold.Chemscore.Hbonds>
donor molecule, donor type, donor heavy atom, donor atom, acceptor molecule, acceptor atom, score
      L1  H     4    41       P1 10186  0.92
      L1  H     8    23       P1 10747  0.95

> <Gold.Chemscore.Hbond.Weighted>
-6.6525

> <Gold.Chemscore.Metal.Weighted>
-0.0000

> <Gold.Chemscore.Lipo.Weighted>
-11.6549

> <Gold.Chemscore.Internal_Hbond.Weighted>
0.0000

> <Gold.Chemscore.DEClash.Weighted>
2.1200

> <Gold.Chemscore.DEInternal.Weighted>
0.5023

> <Gold.Chemscore.Rot.Weighted>
3.0623

> <Gold.Chemscore.Internal.Correction.Weighted>
   9.000000E+99

> <Gold.Protein.RotatedTorsions>
[ 6907 6896 6895 6894 ] final -104.02 input  -60.11 | X-H torsion
[ 7974 7965 7964 7962 ] final  -51.14 input  175.53 | X-H torsion
[ 8008 7997 7996 7995 ] final   44.63 input   59.86 | X-H torsion
[ 10167 10162 10161 10158 ] final  144.92 input  -65.29 | X-H torsion
[ 10718 10713 10712 10709 ] final  -20.94 input   66.30 | X-H torsion
[ 10763 10752 10751 10750 ] final  112.46 input  -60.55 | X-H torsion
[ 11005 11000 10999 10996 ] final   36.94 input  -57.11 | X-H torsion

> <Gold.Protein.ActiveResidues>
 VAL166  LYS551  ARG553  GLY616  TRP617  ASP618  TYR619  PRO620  LYS621  CYS622 
 ASP623  PHE694  ASN695  SER759  ASP760  ASP761  ALA762  ILE779  LEU786  VAL792 
 PHE793  MET794  SER795  GLU796  ALA797  LYS798  CYS799  TRP800  GLU811  SER814 

> <Gold.Protein.RotatedAtoms>
  150.7267  134.0340  159.3742 H   0  0  0  0  0  0  0  0  0  0  0  0  # atno 6907 bound_to 6896
  151.8311  135.0619  160.0446 H   0  0  0  0  0  0  0  0  0  0  0  0  # atno 6908 bound_to 6896
  152.2933  133.5546  159.5608 H   0  0  0  0  0  0  0  0  0  0  0  0  # atno 6909 bound_to 6896
  145.9222  140.7824  142.9642 H   0  0  0  0  0  0  0  0  0  0  0  0  # atno 7974 bound_to 7965
  155.3226  140.3398  155.4241 H   0  0  0  0  0  0  0  0  0  0  0  0  # atno 8008 bound_to 7997
  156.1902  140.1695  156.8145 H   0  0  0  0  0  0  0  0  0  0  0  0  # atno 8009 bound_to 7997
  154.5432  140.0720  156.8529 H   0  0  0  0  0  0  0  0  0  0  0  0  # atno 8010 bound_to 7997
  139.4937  144.5938  151.6625 H   0  0  0  0  0  0  0  0  0  0  0  0  # atno 10167 bound_to 10162
  156.5250  130.4641  149.6577 H   0  0  0  0  0  0  0  0  0  0  0  0  # atno 10718 bound_to 10713
  153.4782  135.3685  155.2428 H   0  0  0  0  0  0  0  0  0  0  0  0  # atno 10763 bound_to 10752
  154.8756  135.3948  154.3731 H   0  0  0  0  0  0  0  0  0  0  0  0  # atno 10764 bound_to 10752
  153.4331  135.7083  153.6283 H   0  0  0  0  0  0  0  0  0  0  0  0  # atno 10765 bound_to 10752
  140.2275  134.3566  155.7978 H   0  0  0  0  0  0  0  0  0  0  0  0  # atno 11005 bound_to 11000
  144.6754  140.1993  143.7388 LP  0  0  0  0  0  0  0  0  0  0  0  0  # atno 17320 bound_to 7965
  145.8535  139.2187  143.1758 LP  0  0  0  0  0  0  0  0  0  0  0  0  # atno 17321 bound_to 7965
  140.5571  144.0330  150.6152 LP  0  0  0  0  0  0  0  0  0  0  0  0  # atno 17342 bound_to 10162
  140.3403  143.3023  152.0595 LP  0  0  0  0  0  0  0  0  0  0  0  0  # atno 17343 bound_to 10162
  156.3114  130.7231  151.2124 LP  0  0  0  0  0  0  0  0  0  0  0  0  # atno 17370 bound_to 10713
  157.7431  131.0480  150.4974 LP  0  0  0  0  0  0  0  0  0  0  0  0  # atno 17371 bound_to 10713
  141.2220  133.7227  156.8678 LP  0  0  0  0  0  0  0  0  0  0  0  0  # atno 17394 bound_to 11000
  140.1785  134.9050  157.2919 LP  0  0  0  0  0  0  0  0  0  0  0  0  # atno 17395 bound_to 11000

$$$$
