AV-unprocessed.smi:2026|AV-procd|sdf|8207|dock9
  -GOLD-   2272010463D 1   1.00000     0.00000
 Structure written by MMmdl.
 46 48  0  0  0  0  0  0  0  0  3 V2000
  151.9643  145.0286  160.3383 C   0  0  0  0  0  0  0  0  0  0  0  0
  151.8985  143.7785  159.4780 C   0  0  0  0  0  0  0  0  0  0  0  0
  151.2042  143.8413  158.2478 C   0  0  0  0  0  0  0  0  0  0  0  0
  151.1612  142.6806  157.4839 C   0  0  0  0  0  0  0  0  0  0  0  0
  150.5698  142.4169  156.2456 N   0  3  0  0  0  0  0  0  0  0  0  0
  150.7999  141.1194  155.8986 C   0  0  0  0  0  0  0  0  0  0  0  0
  151.5286  140.5531  156.8973 N   0  0  0  0  0  0  0  0  0  0  0  0
  152.0526  139.1901  157.0401 C   0  0  0  0  0  0  0  0  0  0  0  0
  151.2047  138.3364  158.0058 C   0  0  2  0  0  0  0  0  0  0  0  0
  152.0431  137.4124  158.6697 O   0  0  0  0  0  0  0  0  0  0  0  0
  150.0648  137.5615  157.3143 C   0  0  0  0  0  0  0  0  0  0  0  0
  148.9206  137.3364  158.2077 N   0  0  0  0  0  0  0  0  0  0  0  0
  147.9937  138.2571  158.5360 C   0  0  0  0  0  0  0  0  0  0  0  0
  148.0222  139.4062  158.0967 O   0  0  0  0  0  0  0  0  0  0  0  0
  147.0806  137.7433  159.3932 N   0  5  0  0  0  0  0  0  0  0  0  0
  147.4201  136.3618  159.6674 C   0  0  0  0  0  0  0  0  0  0  0  0
  147.7116  136.1762  161.1687 C   0  0  0  0  0  0  0  0  0  0  0  0
  146.2890  135.4309  159.1917 C   0  0  0  0  0  0  0  0  0  0  0  0
  148.6731  136.1788  158.8303 C   0  0  0  0  0  0  0  0  0  0  0  0
  149.3284  135.1377  158.7704 O   0  0  0  0  0  0  0  0  0  0  0  0
  151.7780  141.4880  157.9063 C   0  0  0  0  0  0  0  0  0  0  0  0
  152.4679  141.4088  159.1129 C   0  0  0  0  0  0  0  0  0  0  0  0
  152.5239  142.5775  159.9041 C   0  0  0  0  0  0  0  0  0  0  0  0
  153.2710  142.5200  161.2257 C   0  0  0  0  0  0  0  0  0  0  0  0
  151.4084  145.8523  159.8892 H   0  0  0  0  0  0  0  0  0  0  0  0
  152.9978  145.3523  160.4627 H   0  0  0  0  0  0  0  0  0  0  0  0
  151.5389  144.8386  161.3241 H   0  0  0  0  0  0  0  0  0  0  0  0
  150.7286  144.7529  157.9161 H   0  0  0  0  0  0  0  0  0  0  0  0
  150.4682  140.6298  154.9944 H   0  0  0  0  0  0  0  0  0  0  0  0
  152.0945  138.7479  156.0446 H   0  0  0  0  0  0  0  0  0  0  0  0
  153.0836  139.2583  157.3899 H   0  0  0  0  0  0  0  0  0  0  0  0
  150.7751  138.9787  158.7748 H   0  0  0  0  0  0  0  0  0  0  0  0
  152.7914  137.2397  158.1192 H   0  0  0  0  0  0  0  0  0  0  0  0
  149.7543  138.0862  156.4093 H   0  0  0  0  0  0  0  0  0  0  0  0
  150.4328  136.5913  156.9757 H   0  0  0  0  0  0  0  0  0  0  0  0
  148.0120  135.1517  161.3907 H   0  0  0  0  0  0  0  0  0  0  0  0
  146.8284  136.3942  161.7699 H   0  0  0  0  0  0  0  0  0  0  0  0
  148.5090  136.8365  161.5116 H   0  0  0  0  0  0  0  0  0  0  0  0
  146.5299  134.3852  159.3865 H   0  0  0  0  0  0  0  0  0  0  0  0
  146.1039  135.5313  158.1211 H   0  0  0  0  0  0  0  0  0  0  0  0
  145.3542  135.6520  159.7081 H   0  0  0  0  0  0  0  0  0  0  0  0
  152.9456  140.4942  159.4321 H   0  0  0  0  0  0  0  0  0  0  0  0
  153.7373  141.5463  161.3782 H   0  0  0  0  0  0  0  0  0  0  0  0
  152.5897  142.6977  162.0579 H   0  0  0  0  0  0  0  0  0  0  0  0
  154.0598  143.2720  161.2552 H   0  0  0  0  0  0  0  0  0  0  0  0
  150.0493  143.0717  155.6764 H   0  0  0  0  0  0  0  0  0  0  0  0
  1  2  1  0  0  0  0
  1 25  1  0  0  0  0
  1 26  1  0  0  0  0
  1 27  1  0  0  0  0
  2 23  1  0  0  0  0
  2  3  2  0  0  0  0
  3  4  1  0  0  0  0
  3 28  1  0  0  0  0
  4 21  2  0  0  0  0
  4  5  1  0  0  0  0
  5  6  2  0  0  0  0
  5 46  1  0  0  0  0
  6  7  1  0  0  0  0
  6 29  1  0  0  0  0
  7  8  1  0  0  0  0
  7 21  1  0  0  0  0
  8  9  1  0  0  0  0
  8 30  1  0  0  0  0
  8 31  1  0  0  0  0
  9 10  1  0  0  0  0
  9 11  1  0  0  0  0
  9 32  1  0  0  0  0
 10 33  1  0  0  0  0
 11 12  1  0  0  0  0
 11 34  1  0  0  0  0
 11 35  1  0  0  0  0
 12 19  1  0  0  0  0
 12 13  1  0  0  0  0
 13 14  2  0  0  0  0
 13 15  1  0  0  0  0
 15 16  1  0  0  0  0
 16 17  1  0  0  0  0
 16 18  1  0  0  0  0
 16 19  1  0  0  0  0
 17 36  1  0  0  0  0
 17 37  1  0  0  0  0
 17 38  1  0  0  0  0
 18 39  1  0  0  0  0
 18 40  1  0  0  0  0
 18 41  1  0  0  0  0
 19 20  2  0  0  0  0
 21 22  1  0  0  0  0
 22 23  2  0  0  0  0
 22 42  1  0  0  0  0
 23 24  1  0  0  0  0
 24 43  1  0  0  0  0
 24 44  1  0  0  0  0
 24 45  1  0  0  0  0
M  CHG  1   5   1
M  CHG  1  15  -1
M  END
> <s_m_source_file>
AV-unprocessed.smi

> <i_m_source_file_index>
2026

> <i_lp_mmshare_version>
43012

> <i_f3d_flags>
0

> <s_epik_input>
W0NIM11jKFtjSF0xKWMoW0NIM10pW2NIXWMoYzEyKW4oW2NIXW4yKVtDSDJdW0NASF0oW09IXSlbQ0gyXU4oQzM9TylDKD1PKVtOSF1DMyhbQ0gzXSlbQ0gzXQ==

> <s_epik_cmdline>
J2VwaWtfcHl0aG9uJywgJy1waCcsICc3LjAnLCAnLXRuJywgJzgnLCAnLW1hJywgJzIwMCcsICctbWV0YWxfYmluZGluZycsICctaW1hZScsICc8aW5maWxlLm1hZT4nLCAnLW9tYWUnLCAnPG91dGZpbGUubWFlPic=

> <r_lp_tautomer_probability>
1

> <r_epik_Ionization_Penalty>
6.70784

> <r_epik_Ionization_Penalty_Charging>
6.70784

> <r_epik_Ionization_Penalty_Neutral>
1.13852e-06

> <r_epik_State_Penalty>
6.78089

> <r_epik_Charging_Adjusted_Penalty>
13.4887

> <i_epik_Tot_Q>
0

> <i_epik_Tot_abs_Q>
2

> <r_epik_Metal_State_Penalty>
2.84685

> <b_epik_Metal_Only>
1

> <s_lp_Force_Field>
OPLS_2005

> <r_lp_Energy>
17.8482

> <b_lp_Chiralities_Consistent>
1

> <s_lp_Variant>
AV-unprocessed.smi:2026-7

> <Gold.Version>
5.8.1

> <Gold.Id.Protein>
6NUR|6NUR_protein|mol2

> <Gold.PLP.Fitness>
53.4140

> <Gold.PLP.PLP>
-42.3717

> <Gold.PLP.part.hbond>
-4.0000

> <Gold.PLP.part.metal>
0.0000

> <Gold.PLP.part.buried>
-5.0221

> <Gold.PLP.part.nonpolar>
-34.7459

> <Gold.PLP.part.repulsive>
0.0910

> <Gold.PLP.ligand.clash>
0.0000

> <Gold.PLP.ligand.torsion>
1.2248

> <Gold.PLP.Chemscore.Hbond>
4.4880

> <Gold.PLP.Chemscore.CHOScore>
0.0000

> <Gold.PLP.Chemscore.Metal>
0.0000

> <Gold.Chemscore.Hbonds>
donor molecule, donor type, donor heavy atom, donor atom, acceptor molecule, acceptor atom, score
      L1  H     5    46       P1  8028  1.86
      P1  H  6896  6908       L1    20  1.00
      P1  H  6934  6947       L1    15  1.47

> <Gold.PLP.Chemscore.Internal.Correction>
0.0279

> <Gold.Rescore>
     Score         DG    S(hbond)    S(metal)    S(lipo)     H(rot)  DE(clash)    DE(int)     intcor
     17.55     -19.02       2.19        0.00     106.59       2.44       0.16       1.31       ----

> <Gold.Chemscore.Fitness>
17.5465

> <Gold.Chemscore.DG>
-19.0157

> <Gold.Chemscore.ZeroCoef>
-5.4800

> <Gold.Chemscore.Hbond>
2.1855

> <Gold.Chemscore.Metal>
0.0000

> <Gold.Chemscore.Lipo>
106.5943

> <Gold.Chemscore.Internal_Hbond>
0.0000

> <Gold.Chemscore.DEClash>
0.1596

> <Gold.Chemscore.DEInternal>
1.3095

> <Gold.Chemscore.Rot>
2.4357

> <Gold.Chemscore.Internal.Correction>
   9.000000E+99

> <Gold.Chemscore.Hbonds>
donor molecule, donor type, donor heavy atom, donor atom, acceptor molecule, acceptor atom, score
      L1  H     5    46       P1  8028  0.85
      P1  H  6896  6908       L1    20  1.00
      P1  H  6934  6947       L1    15  0.21

> <Gold.Chemscore.Hbond.Weighted>
-7.2995

> <Gold.Chemscore.Metal.Weighted>
-0.0000

> <Gold.Chemscore.Lipo.Weighted>
-12.4715

> <Gold.Chemscore.Internal_Hbond.Weighted>
0.0000

> <Gold.Chemscore.DEClash.Weighted>
0.1596

> <Gold.Chemscore.DEInternal.Weighted>
1.3095

> <Gold.Chemscore.Rot.Weighted>
6.2353

> <Gold.Chemscore.Internal.Correction.Weighted>
   9.000000E+99

> <Gold.Protein.RotatedTorsions>
[ 6907 6896 6895 6894 ] final  152.90 input  -60.11 | X-H torsion
[ 7974 7965 7964 7962 ] final  161.55 input  175.53 | X-H torsion
[ 8008 7997 7996 7995 ] final  -29.95 input   59.86 | X-H torsion
[ 10167 10162 10161 10158 ] final  129.55 input  -65.29 | X-H torsion
[ 10718 10713 10712 10709 ] final -170.16 input   66.30 | X-H torsion
[ 10763 10752 10751 10750 ] final -166.78 input  -60.55 | X-H torsion
[ 11005 11000 10999 10996 ] final   38.07 input  -57.11 | X-H torsion

> <Gold.Protein.ActiveResidues>
 VAL166  LYS551  ARG553  GLY616  TRP617  ASP618  TYR619  PRO620  LYS621  CYS622 
 ASP623  PHE694  ASN695  SER759  ASP760  ASP761  ALA762  ILE779  LEU786  VAL792 
 PHE793  MET794  SER795  GLU796  ALA797  LYS798  CYS799  TRP800  GLU811  SER814 

> <Gold.Protein.RotatedAtoms>
  152.0803  133.4149  159.4497 H   0  0  0  0  0  0  0  0  0  0  0  0  # atno 6907 bound_to 6896
  150.6862  134.2990  159.4707 H   0  0  0  0  0  0  0  0  0  0  0  0  # atno 6908 bound_to 6896
  152.0831  134.9457  160.0624 H   0  0  0  0  0  0  0  0  0  0  0  0  # atno 6909 bound_to 6896
  144.7680  139.7914  143.6308 H   0  0  0  0  0  0  0  0  0  0  0  0  # atno 7974 bound_to 7965
  154.4269  140.1804  156.1330 H   0  0  0  0  0  0  0  0  0  0  0  0  # atno 8008 bound_to 7997
  156.0053  140.3356  155.6861 H   0  0  0  0  0  0  0  0  0  0  0  0  # atno 8009 bound_to 7997
  155.6187  140.0657  157.2675 H   0  0  0  0  0  0  0  0  0  0  0  0  # atno 8010 bound_to 7997
  139.5472  144.6783  151.4435 H   0  0  0  0  0  0  0  0  0  0  0  0  # atno 10167 bound_to 10162
  156.7221  130.9274  151.3098 H   0  0  0  0  0  0  0  0  0  0  0  0  # atno 10718 bound_to 10713
  154.6799  135.2953  154.9627 H   0  0  0  0  0  0  0  0  0  0  0  0  # atno 10763 bound_to 10752
  154.0626  135.6629  153.4817 H   0  0  0  0  0  0  0  0  0  0  0  0  # atno 10764 bound_to 10752
  153.0540  135.5156  154.7837 H   0  0  0  0  0  0  0  0  0  0  0  0  # atno 10765 bound_to 10752
  140.2163  134.3695  155.8025 H   0  0  0  0  0  0  0  0  0  0  0  0  # atno 11005 bound_to 11000
  146.1804  139.4993  142.9870 LP  0  0  0  0  0  0  0  0  0  0  0  0  # atno 17320 bound_to 7965
  145.6410  141.0284  143.1811 LP  0  0  0  0  0  0  0  0  0  0  0  0  # atno 17321 bound_to 7965
  140.6724  143.8264  150.7016 LP  0  0  0  0  0  0  0  0  0  0  0  0  # atno 17342 bound_to 10162
  140.1692  143.4209  152.2013 LP  0  0  0  0  0  0  0  0  0  0  0  0  # atno 17343 bound_to 10162
  157.6894  130.9218  150.0472 LP  0  0  0  0  0  0  0  0  0  0  0  0  # atno 17370 bound_to 10713
  156.1587  130.3643  149.9330 LP  0  0  0  0  0  0  0  0  0  0  0  0  # atno 17371 bound_to 10713
  141.2225  133.7169  156.8501 LP  0  0  0  0  0  0  0  0  0  0  0  0  # atno 17394 bound_to 11000
  140.1897  134.8974  157.3046 LP  0  0  0  0  0  0  0  0  0  0  0  0  # atno 17395 bound_to 11000

$$$$
