AV-unprocessed.smi:84|AV-procd|sdf|809|dock2
  -GOLD-   2262017203D 1   1.00000     0.00000
 Structure written by MMmdl.
 51 55  0  0  0  0  0  0  0  0  1 V2000
  147.4679  125.3336  157.8560 O   0  0  0  0  0  0  0  0  0  0  0  0
  148.3613  125.4066  157.0155 C   0  0  0  0  0  0  0  0  0  0  0  0
  149.3252  126.5772  156.9068 C   0  0  0  0  0  0  0  0  0  0  0  0
  149.9399  126.3817  155.5040 C   0  0  2  0  0  0  0  0  0  0  0  0
  151.3839  126.8879  155.3908 C   0  0  0  0  0  0  0  0  0  0  0  0
  151.2132  128.3757  155.0897 C   0  0  0  0  0  0  0  0  0  0  0  0
  149.9908  128.4560  154.3035 N   0  0  0  0  0  0  0  0  0  0  0  0
  149.4203  129.6449  153.9783 C   0  0  0  0  0  0  0  0  0  0  0  0
  150.0486  130.7923  154.3489 N   0  0  0  0  0  0  0  0  0  0  0  0
  149.5223  131.9826  154.0482 C   0  0  0  0  0  0  0  0  0  0  0  0
  148.3945  132.2535  153.3902 N   0  0  0  0  0  0  0  0  0  0  0  0
  147.7607  131.1092  153.0056 C   0  0  0  0  0  0  0  0  0  0  0  0
  148.2017  129.7761  153.2482 C   0  0  0  0  0  0  0  0  0  0  0  0
  147.3062  128.8789  152.6752 N   0  0  0  0  0  0  0  0  0  0  0  0
  146.3913  129.6350  152.1334 C   0  0  0  0  0  0  0  0  0  0  0  0
  146.5720  130.9879  152.3075 N   0  0  0  0  0  0  0  0  0  0  0  0
  145.7501  132.0427  151.7915 C   0  0  0  0  0  0  0  0  0  0  0  0
  144.3449  131.7521  151.2566 C   0  0  0  0  0  0  0  0  0  0  0  0
  144.5120  132.8983  150.2317 C   0  0  0  0  0  0  0  0  0  0  0  0
  143.9624  132.6641  148.8105 C   0  0  0  0  0  0  0  0  0  0  0  0
  142.6672  132.0977  148.8148 O   0  0  0  0  0  0  0  0  0  0  0  0
  144.0034  134.2769  150.6941 C   0  0  0  0  0  0  0  0  0  0  0  0
  144.3843  135.2986  149.7951 O   0  0  0  0  0  0  0  0  0  0  0  0
  146.0308  132.6856  150.4287 C   0  0  0  0  0  0  0  0  0  0  0  0
  149.1999  127.2425  154.4573 C   0  0  0  0  0  0  0  0  0  0  0  0
  149.7618  124.8703  155.2490 C   0  0  0  0  0  0  0  0  0  0  0  0
  148.6337  124.4970  156.0810 N   0  0  0  0  0  0  0  0  0  0  0  0
  148.8194  127.5361  157.0270 H   0  0  0  0  0  0  0  0  0  0  0  0
  150.0737  126.4840  157.6946 H   0  0  0  0  0  0  0  0  0  0  0  0
  151.9845  126.7017  156.2816 H   0  0  0  0  0  0  0  0  0  0  0  0
  151.8808  126.4031  154.5491 H   0  0  0  0  0  0  0  0  0  0  0  0
  151.0951  128.9406  156.0157 H   0  0  0  0  0  0  0  0  0  0  0  0
  152.0685  128.7777  154.5455 H   0  0  0  0  0  0  0  0  0  0  0  0
  150.0855  132.8409  154.3840 H   0  0  0  0  0  0  0  0  0  0  0  0
  145.5535  129.2205  151.5921 H   0  0  0  0  0  0  0  0  0  0  0  0
  145.7121  132.8012  152.5749 H   0  0  0  0  0  0  0  0  0  0  0  0
  144.2745  130.7633  150.8005 H   0  0  0  0  0  0  0  0  0  0  0  0
  143.5499  131.8960  151.9885 H   0  0  0  0  0  0  0  0  0  0  0  0
  143.9086  133.5984  148.2510 H   0  0  0  0  0  0  0  0  0  0  0  0
  144.6165  131.9976  148.2475 H   0  0  0  0  0  0  0  0  0  0  0  0
  142.0434  132.7757  149.0260 H   0  0  0  0  0  0  0  0  0  0  0  0
  142.9164  134.2937  150.7752 H   0  0  0  0  0  0  0  0  0  0  0  0
  144.3854  134.5235  151.6855 H   0  0  0  0  0  0  0  0  0  0  0  0
  144.8999  134.9124  149.1035 H   0  0  0  0  0  0  0  0  0  0  0  0
  146.6195  133.6023  150.4772 H   0  0  0  0  0  0  0  0  0  0  0  0
  146.4706  131.9818  149.7205 H   0  0  0  0  0  0  0  0  0  0  0  0
  149.1618  126.7434  153.4887 H   0  0  0  0  0  0  0  0  0  0  0  0
  148.1748  127.4521  154.7650 H   0  0  0  0  0  0  0  0  0  0  0  0
  149.5837  124.6291  154.2006 H   0  0  0  0  0  0  0  0  0  0  0  0
  150.6371  124.3090  155.5793 H   0  0  0  0  0  0  0  0  0  0  0  0
  148.1246  123.6333  155.9599 H   0  0  0  0  0  0  0  0  0  0  0  0
  1  2  2  0  0  0  0
  2 27  1  0  0  0  0
  2  3  1  0  0  0  0
  3  4  1  0  0  0  0
  3 28  1  0  0  0  0
  3 29  1  0  0  0  0
  4 25  1  0  0  0  0
  4  5  1  0  0  0  0
  4 26  1  0  0  0  0
  5  6  1  0  0  0  0
  5 30  1  0  0  0  0
  5 31  1  0  0  0  0
  6  7  1  0  0  0  0
  6 32  1  0  0  0  0
  6 33  1  0  0  0  0
  7  8  1  0  0  0  0
  7 25  1  0  0  0  0
  8 13  1  0  0  0  0
  8  9  2  0  0  0  0
  9 10  1  0  0  0  0
 10 11  2  0  0  0  0
 10 34  1  0  0  0  0
 11 12  1  0  0  0  0
 12 16  1  0  0  0  0
 12 13  2  0  0  0  0
 13 14  1  0  0  0  0
 14 15  2  0  0  0  0
 15 16  1  0  0  0  0
 15 35  1  0  0  0  0
 16 17  1  0  0  0  0
 17 24  1  0  0  0  0
 17 18  1  0  0  0  0
 17 36  1  0  0  0  0
 18 19  1  0  0  0  0
 18 37  1  0  0  0  0
 18 38  1  0  0  0  0
 19 20  1  0  0  0  0
 19 22  1  0  0  0  0
 19 24  1  0  0  0  0
 20 21  1  0  0  0  0
 20 39  1  0  0  0  0
 20 40  1  0  0  0  0
 21 41  1  0  0  0  0
 22 23  1  0  0  0  0
 22 42  1  0  0  0  0
 22 43  1  0  0  0  0
 23 44  1  0  0  0  0
 24 45  1  0  0  0  0
 24 46  1  0  0  0  0
 25 47  1  0  0  0  0
 25 48  1  0  0  0  0
 26 27  1  0  0  0  0
 26 49  1  0  0  0  0
 26 50  1  0  0  0  0
 27 51  1  0  0  0  0
M  END
> <s_m_source_file>
AV-unprocessed.smi

> <i_m_source_file_index>
84

> <i_lp_mmshare_version>
43012

> <i_f3d_flags>
0

> <s_epik_input>
W0NIMl0xW05IXUMoPU8pW0NIMl1bQ0BdMTJbQ0gyXVtDSDJdTihbQ0gyXTIpYyhuW2NIXW4zKWMoYzM0KW5bY0hdbjRbQ0hdKFtDSDJdNSlbQ0gyXUM1KFtDSDJdW09IXSlbQ0gyXVtPSF0=

> <s_epik_cmdline>
J2VwaWtfcHl0aG9uJywgJy1waCcsICc3LjAnLCAnLXRuJywgJzgnLCAnLW1hJywgJzIwMCcsICctbWV0YWxfYmluZGluZycsICctaW1hZScsICc8aW5maWxlLm1hZT4nLCAnLW9tYWUnLCAnPG91dGZpbGUubWFlPic=

> <r_lp_tautomer_probability>
1

> <r_epik_Ionization_Penalty>
0.00201507

> <r_epik_Ionization_Penalty_Charging>
0

> <r_epik_Ionization_Penalty_Neutral>
0.00201507

> <r_epik_State_Penalty>
0.00133787

> <r_epik_Charging_Adjusted_Penalty>
0.00133787

> <i_epik_Tot_Q>
0

> <i_epik_Tot_abs_Q>
0

> <r_epik_Metal_State_Penalty>
-0

> <b_epik_Metal_Only>
0

> <s_lp_Force_Field>
OPLS_2005

> <r_lp_Energy>
68.8544

> <b_lp_Chiralities_Consistent>
1

> <s_lp_Variant>
AV-unprocessed.smi:84-2

> <Gold.Version>
5.8.1

> <Gold.Id.Protein>
6NUR|6NUR_protein|mol2

> <Gold.PLP.Fitness>
45.4632

> <Gold.PLP.PLP>
-38.1480

> <Gold.PLP.part.hbond>
-4.1532

> <Gold.PLP.part.metal>
0.0000

> <Gold.PLP.part.buried>
-4.3950

> <Gold.PLP.part.nonpolar>
-29.2361

> <Gold.PLP.part.repulsive>
0.2737

> <Gold.PLP.ligand.clash>
0.0000

> <Gold.PLP.ligand.torsion>
1.1732

> <Gold.PLP.Chemscore.Hbond>
3.0000

> <Gold.PLP.Chemscore.CHOScore>
0.0000

> <Gold.PLP.Chemscore.Metal>
0.0000

> <Gold.Chemscore.Hbonds>
donor molecule, donor type, donor heavy atom, donor atom, acceptor molecule, acceptor atom, score
      L1  H    21    41       P1 10186  1.00
      L1  H    23    44       P1  7921  1.00
      P1  H 10785 10796       L1    21  0.95

> <Gold.PLP.Chemscore.Internal.Correction>
0.6615

> <Gold.Rescore>
     Score         DG    S(hbond)    S(metal)    S(lipo)     H(rot)  DE(clash)    DE(int)     intcor
     12.33     -14.00       2.67        0.00      61.54       2.96       0.04       1.62       ----

> <Gold.Chemscore.Fitness>
12.3340

> <Gold.Chemscore.DG>
-13.9968

> <Gold.Chemscore.ZeroCoef>
-5.4800

> <Gold.Chemscore.Hbond>
2.6665

> <Gold.Chemscore.Metal>
0.0000

> <Gold.Chemscore.Lipo>
61.5444

> <Gold.Chemscore.Internal_Hbond>
0.0000

> <Gold.Chemscore.DEClash>
0.0425

> <Gold.Chemscore.DEInternal>
1.6203

> <Gold.Chemscore.Rot>
2.9649

> <Gold.Chemscore.Internal.Correction>
   9.000000E+99

> <Gold.Chemscore.Hbonds>
donor molecule, donor type, donor heavy atom, donor atom, acceptor molecule, acceptor atom, score
      L1  H    21    41       P1 10186  0.97
      L1  H    23    44       P1  7921  0.99
      P1  H 10785 10796       L1    21  0.20

> <Gold.Chemscore.Hbond.Weighted>
-8.9062

> <Gold.Chemscore.Metal.Weighted>
-0.0000

> <Gold.Chemscore.Lipo.Weighted>
-7.2007

> <Gold.Chemscore.Internal_Hbond.Weighted>
0.0000

> <Gold.Chemscore.DEClash.Weighted>
0.0425

> <Gold.Chemscore.DEInternal.Weighted>
1.6203

> <Gold.Chemscore.Rot.Weighted>
7.5902

> <Gold.Chemscore.Internal.Correction.Weighted>
   9.000000E+99

> <Gold.Protein.RotatedTorsions>
[ 6907 6896 6895 6894 ] final   67.78 input  -60.11 | X-H torsion
[ 7974 7965 7964 7962 ] final   -4.60 input  175.53 | X-H torsion
[ 8008 7997 7996 7995 ] final -174.97 input   59.86 | X-H torsion
[ 10167 10162 10161 10158 ] final  160.30 input  -65.29 | X-H torsion
[ 10718 10713 10712 10709 ] final -141.38 input   66.30 | X-H torsion
[ 10763 10752 10751 10750 ] final  -97.45 input  -60.55 | X-H torsion
[ 11005 11000 10999 10996 ] final -139.39 input  -57.11 | X-H torsion

> <Gold.Protein.ActiveResidues>
 VAL166  LYS551  ARG553  GLY616  TRP617  ASP618  TYR619  PRO620  LYS621  CYS622 
 ASP623  PHE694  ASN695  SER759  ASP760  ASP761  ALA762  ILE779  LEU786  VAL792 
 PHE793  MET794  SER795  GLU796  ALA797  LYS798  CYS799  TRP800  GLU811  SER814 

> <Gold.Protein.RotatedAtoms>
  152.4575  134.5258  159.9796 H   0  0  0  0  0  0  0  0  0  0  0  0  # atno 6907 bound_to 6896
  151.5316  133.3442  159.2927 H   0  0  0  0  0  0  0  0  0  0  0  0  # atno 6908 bound_to 6896
  150.8525  134.7884  159.7082 H   0  0  0  0  0  0  0  0  0  0  0  0  # atno 6909 bound_to 6896
  146.2369  140.1896  142.8332 H   0  0  0  0  0  0  0  0  0  0  0  0  # atno 7974 bound_to 7965
  155.9767  140.1173  157.0763 H   0  0  0  0  0  0  0  0  0  0  0  0  # atno 8008 bound_to 7997
  154.4171  140.1152  156.5447 H   0  0  0  0  0  0  0  0  0  0  0  0  # atno 8009 bound_to 7997
  155.6525  140.3473  155.4755 H   0  0  0  0  0  0  0  0  0  0  0  0  # atno 8010 bound_to 7997
  139.4839  144.4647  151.8657 H   0  0  0  0  0  0  0  0  0  0  0  0  # atno 10167 bound_to 10162
  156.3333  130.7598  151.1720 H   0  0  0  0  0  0  0  0  0  0  0  0  # atno 10718 bound_to 10713
  154.7329  135.5046  153.8994 H   0  0  0  0  0  0  0  0  0  0  0  0  # atno 10763 bound_to 10752
  153.0967  135.6674  153.9758 H   0  0  0  0  0  0  0  0  0  0  0  0  # atno 10764 bound_to 10752
  153.9554  135.3053  155.3415 H   0  0  0  0  0  0  0  0  0  0  0  0  # atno 10765 bound_to 10752
  140.8524  134.2270  157.4753 H   0  0  0  0  0  0  0  0  0  0  0  0  # atno 11005 bound_to 11000
  144.9869  140.8511  143.5363 LP  0  0  0  0  0  0  0  0  0  0  0  0  # atno 17320 bound_to 7965
  145.1896  139.2308  143.5249 LP  0  0  0  0  0  0  0  0  0  0  0  0  # atno 17321 bound_to 7965
  140.4112  144.2367  150.5889 LP  0  0  0  0  0  0  0  0  0  0  0  0  # atno 17342 bound_to 10162
  140.4964  143.2331  151.8743 LP  0  0  0  0  0  0  0  0  0  0  0  0  # atno 17343 bound_to 10162
  157.7434  131.0475  150.4948 LP  0  0  0  0  0  0  0  0  0  0  0  0  # atno 17370 bound_to 10713
  156.5117  130.4141  149.6298 LP  0  0  0  0  0  0  0  0  0  0  0  0  # atno 17371 bound_to 10713
  139.8704  134.9690  156.4649 LP  0  0  0  0  0  0  0  0  0  0  0  0  # atno 17394 bound_to 11000
  140.8775  133.7942  155.9431 LP  0  0  0  0  0  0  0  0  0  0  0  0  # atno 17395 bound_to 11000

$$$$
