AV-unprocessed.smi:2708|AV-procd|sdf|10458|dock5
  -GOLD-   2272014493D 1   1.00000     0.00000
 Structure written by MMmdl.
 35 35  0  0  0  0  0  0  0  0  2 V2000
  151.4970  137.4439  158.8996 C   0  0  0  0  0  0  0  0  0  0  0  0
  152.9982  137.1430  159.0452 C   0  0  2  0  0  0  0  0  0  0  0  0
  153.6618  138.1797  159.8302 N   0  0  0  0  0  0  0  0  0  0  0  0
  153.8361  139.4586  159.4614 C   0  0  0  0  0  0  0  0  0  0  0  0
  153.4449  139.9177  158.3884 O   0  0  0  0  0  0  0  0  0  0  0  0
  154.5659  140.3595  160.4589 C   0  0  0  0  0  0  0  0  0  0  0  0
  153.7535  141.5911  160.7371 C   0  0  0  0  0  0  0  0  0  0  0  0
  153.4592  142.1230  161.9674 C   0  0  0  0  0  0  0  0  0  0  0  0
  152.4964  143.5671  161.8359 S   0  0  0  0  0  0  0  0  0  0  0  0
  152.5164  143.3970  160.0766 C   0  0  0  0  0  0  0  0  0  0  0  0
  151.8451  144.3405  159.1075 C   0  0  0  0  0  0  0  0  0  0  0  0
  151.3424  145.5898  159.8566 C   0  0  0  0  0  0  0  0  0  0  0  0
  150.6771  143.6224  158.4041 C   0  0  0  0  0  0  0  0  0  0  0  0
  152.8273  144.8151  158.0146 C   0  0  0  0  0  0  0  0  0  0  0  0
  153.2055  142.3215  159.6782 N   0  0  0  0  0  0  0  0  0  0  0  0
  153.7196  136.9518  157.7078 C   0  0  0  0  0  0  0  0  0  0  0  0
  153.3053  136.0388  156.9591 O   0  0  0  0  0  0  0  0  0  0  0  0
  154.6724  137.7208  157.4535 O   0  5  0  0  0  0  0  0  0  0  0  0
  153.0920  136.1994  159.5867 H   0  0  0  0  0  0  0  0  0  0  0  0
  150.9987  136.6750  158.3080 H   0  0  0  0  0  0  0  0  0  0  0  0
  151.3292  138.4027  158.4080 H   0  0  0  0  0  0  0  0  0  0  0  0
  151.0048  137.4784  159.8719 H   0  0  0  0  0  0  0  0  0  0  0  0
  154.0107  137.8937  160.7337 H   0  0  0  0  0  0  0  0  0  0  0  0
  154.7545  139.8031  161.3782 H   0  0  0  0  0  0  0  0  0  0  0  0
  155.5435  140.6253  160.0545 H   0  0  0  0  0  0  0  0  0  0  0  0
  153.7572  141.7582  162.9392 H   0  0  0  0  0  0  0  0  0  0  0  0
  150.8658  146.2970  159.1769 H   0  0  0  0  0  0  0  0  0  0  0  0
  152.1619  146.1105  160.3536 H   0  0  0  0  0  0  0  0  0  0  0  0
  150.6081  145.3297  160.6198 H   0  0  0  0  0  0  0  0  0  0  0  0
  149.9212  143.2945  159.1185 H   0  0  0  0  0  0  0  0  0  0  0  0
  151.0220  142.7403  157.8631 H   0  0  0  0  0  0  0  0  0  0  0  0
  150.1815  144.2770  157.6860 H   0  0  0  0  0  0  0  0  0  0  0  0
  152.3415  145.4969  157.3155 H   0  0  0  0  0  0  0  0  0  0  0  0
  153.2146  143.9793  157.4307 H   0  0  0  0  0  0  0  0  0  0  0  0
  153.6787  145.3468  158.4414 H   0  0  0  0  0  0  0  0  0  0  0  0
  1  2  1  0  0  0  0
  1 20  1  0  0  0  0
  1 21  1  0  0  0  0
  1 22  1  0  0  0  0
  2 19  1  0  0  0  0
  2  3  1  0  0  0  0
  2 16  1  0  0  0  0
  3  4  1  0  0  0  0
  3 23  1  0  0  0  0
  4  5  2  0  0  0  0
  4  6  1  0  0  0  0
  6  7  1  0  0  0  0
  6 24  1  0  0  0  0
  6 25  1  0  0  0  0
  7 15  1  0  0  0  0
  7  8  2  0  0  0  0
  8  9  1  0  0  0  0
  8 26  1  0  0  0  0
  9 10  1  0  0  0  0
 10 11  1  0  0  0  0
 10 15  2  0  0  0  0
 11 12  1  0  0  0  0
 11 13  1  0  0  0  0
 11 14  1  0  0  0  0
 12 27  1  0  0  0  0
 12 28  1  0  0  0  0
 12 29  1  0  0  0  0
 13 30  1  0  0  0  0
 13 31  1  0  0  0  0
 13 32  1  0  0  0  0
 14 33  1  0  0  0  0
 14 34  1  0  0  0  0
 14 35  1  0  0  0  0
 16 17  2  0  0  0  0
 16 18  1  0  0  0  0
M  CHG  1  18  -1
M  END
> <s_m_source_file>
AV-unprocessed.smi

> <i_m_source_file_index>
2708

> <i_lp_mmshare_version>
43012

> <i_f3d_flags>
0

> <s_epik_input>
Tz1DKFtPSF0pW0NASF0oW0NIM10pW05IXUMoPU8pW0NIMl1jMVtjSF1zYyhuMSlDKFtDSDNdKShbQ0gzXSlbQ0gzXQ==

> <s_epik_cmdline>
J2VwaWtfcHl0aG9uJywgJy1waCcsICc3LjAnLCAnLXRuJywgJzgnLCAnLW1hJywgJzIwMCcsICctbWV0YWxfYmluZGluZycsICctaW1hZScsICc8aW5maWxlLm1hZT4nLCAnLW9tYWUnLCAnPG91dGZpbGUubWFlPic=

> <r_lp_tautomer_probability>
1

> <r_epik_Ionization_Penalty>
0.000214174

> <r_epik_Ionization_Penalty_Charging>
0.000167453

> <r_epik_Ionization_Penalty_Neutral>
4.67216e-05

> <r_epik_State_Penalty>
-0

> <r_epik_Charging_Adjusted_Penalty>
0.000167453

> <i_epik_Tot_Q>
-1

> <i_epik_Tot_abs_Q>
1

> <r_epik_Metal_State_Penalty>
-0

> <b_epik_Metal_Only>
0

> <s_lp_Force_Field>
OPLS_2005

> <r_lp_Energy>
-5.26793

> <b_lp_Chiralities_Consistent>
1

> <s_lp_Variant>
AV-unprocessed.smi:2708-1

> <Gold.Version>
5.8.1

> <Gold.Id.Protein>
6NUR|6NUR_protein|mol2

> <Gold.PLP.Fitness>
50.8679

> <Gold.PLP.PLP>
-42.6408

> <Gold.PLP.part.hbond>
-3.0000

> <Gold.PLP.part.metal>
0.0000

> <Gold.PLP.part.buried>
-4.3412

> <Gold.PLP.part.nonpolar>
-33.8395

> <Gold.PLP.part.repulsive>
0.0624

> <Gold.PLP.ligand.clash>
0.0000

> <Gold.PLP.ligand.torsion>
0.4240

> <Gold.PLP.Chemscore.Hbond>
3.0000

> <Gold.PLP.Chemscore.CHOScore>
0.0000

> <Gold.PLP.Chemscore.Metal>
0.0000

> <Gold.Chemscore.Hbonds>
donor molecule, donor type, donor heavy atom, donor atom, acceptor molecule, acceptor atom, score
      P1  H  7997  8008       L1     5  1.00
      P1  H 10752 10765       L1    17  2.00

> <Gold.PLP.Chemscore.Internal.Correction>
0.0752

> <Gold.Rescore>
     Score         DG    S(hbond)    S(metal)    S(lipo)     H(rot)  DE(clash)    DE(int)     intcor
     15.63     -19.84       1.98        0.00     115.29       2.25       0.07       4.14       ----

> <Gold.Chemscore.Fitness>
15.6315

> <Gold.Chemscore.DG>
-19.8404

> <Gold.Chemscore.ZeroCoef>
-5.4800

> <Gold.Chemscore.Hbond>
1.9837

> <Gold.Chemscore.Metal>
0.0000

> <Gold.Chemscore.Lipo>
115.2929

> <Gold.Chemscore.Internal_Hbond>
0.0000

> <Gold.Chemscore.DEClash>
0.0657

> <Gold.Chemscore.DEInternal>
4.1432

> <Gold.Chemscore.Rot>
2.2478

> <Gold.Chemscore.Internal.Correction>
   9.000000E+99

> <Gold.Chemscore.Hbonds>
donor molecule, donor type, donor heavy atom, donor atom, acceptor molecule, acceptor atom, score
      P1  H  7997  8008       L1     5  0.94
      P1  H 10752 10765       L1    17  1.00

> <Gold.Chemscore.Hbond.Weighted>
-6.6256

> <Gold.Chemscore.Metal.Weighted>
-0.0000

> <Gold.Chemscore.Lipo.Weighted>
-13.4893

> <Gold.Chemscore.Internal_Hbond.Weighted>
0.0000

> <Gold.Chemscore.DEClash.Weighted>
0.0657

> <Gold.Chemscore.DEInternal.Weighted>
4.1432

> <Gold.Chemscore.Rot.Weighted>
5.7544

> <Gold.Chemscore.Internal.Correction.Weighted>
   9.000000E+99

> <Gold.Protein.RotatedTorsions>
[ 6907 6896 6895 6894 ] final  105.18 input  -60.11 | X-H torsion
[ 7974 7965 7964 7962 ] final   74.27 input  175.53 | X-H torsion
[ 8008 7997 7996 7995 ] final  -79.22 input   59.86 | X-H torsion
[ 10167 10162 10161 10158 ] final   79.12 input  -65.29 | X-H torsion
[ 10718 10713 10712 10709 ] final  102.81 input   66.30 | X-H torsion
[ 10763 10752 10751 10750 ] final -105.62 input  -60.55 | X-H torsion
[ 11005 11000 10999 10996 ] final -120.95 input  -57.11 | X-H torsion

> <Gold.Protein.ActiveResidues>
 VAL166  LYS551  ARG553  GLY616  TRP617  ASP618  TYR619  PRO620  LYS621  CYS622 
 ASP623  PHE694  ASN695  SER759  ASP760  ASP761  ALA762  ILE779  LEU786  VAL792 
 PHE793  MET794  SER795  GLU796  ALA797  LYS798  CYS799  TRP800  GLU811  SER814 

> <Gold.Protein.RotatedAtoms>
  152.5239  133.9567  159.7697 H   0  0  0  0  0  0  0  0  0  0  0  0  # atno 6907 bound_to 6896
  150.9866  133.6183  159.2721 H   0  0  0  0  0  0  0  0  0  0  0  0  # atno 6908 bound_to 6896
  151.3341  135.0854  159.9402 H   0  0  0  0  0  0  0  0  0  0  0  0  # atno 6909 bound_to 6896
  145.7304  139.2681  143.1545 H   0  0  0  0  0  0  0  0  0  0  0  0  # atno 7974 bound_to 7965
  154.5764  140.0682  156.9041 H   0  0  0  0  0  0  0  0  0  0  0  0  # atno 8008 bound_to 7997
  155.2541  140.3354  155.4261 H   0  0  0  0  0  0  0  0  0  0  0  0  # atno 8009 bound_to 7997
  156.2157  140.1777  156.7579 H   0  0  0  0  0  0  0  0  0  0  0  0  # atno 8010 bound_to 7997
  139.9636  144.5943  150.8049 H   0  0  0  0  0  0  0  0  0  0  0  0  # atno 10167 bound_to 10162
  157.6791  131.0762  150.5460 H   0  0  0  0  0  0  0  0  0  0  0  0  # atno 10718 bound_to 10713
  154.7958  135.4742  154.0159 H   0  0  0  0  0  0  0  0  0  0  0  0  # atno 10763 bound_to 10752
  153.1702  135.6824  153.8626 H   0  0  0  0  0  0  0  0  0  0  0  0  # atno 10764 bound_to 10752
  153.8211  135.3204  155.3388 H   0  0  0  0  0  0  0  0  0  0  0  0  # atno 10765 bound_to 10752
  141.0106  134.0270  157.3419 H   0  0  0  0  0  0  0  0  0  0  0  0  # atno 11005 bound_to 11000
  146.0543  140.8037  142.9766 LP  0  0  0  0  0  0  0  0  0  0  0  0  # atno 17320 bound_to 7965
  144.6894  140.3100  143.7249 LP  0  0  0  0  0  0  0  0  0  0  0  0  # atno 17321 bound_to 7965
  140.7545  143.3028  151.3037 LP  0  0  0  0  0  0  0  0  0  0  0  0  # atno 17342 bound_to 10162
  139.6534  144.0320  152.2643 LP  0  0  0  0  0  0  0  0  0  0  0  0  # atno 17343 bound_to 10162
  156.5766  130.4293  149.5996 LP  0  0  0  0  0  0  0  0  0  0  0  0  # atno 17370 bound_to 10713
  156.2696  130.7009  151.1803 LP  0  0  0  0  0  0  0  0  0  0  0  0  # atno 17371 bound_to 10713
  139.9087  135.0185  156.7601 LP  0  0  0  0  0  0  0  0  0  0  0  0  # atno 17394 bound_to 11000
  140.6740  133.9534  155.7872 LP  0  0  0  0  0  0  0  0  0  0  0  0  # atno 17395 bound_to 11000

$$$$
