AV-unprocessed.smi:1664|AV-procd|sdf|6667|dock6
  -GOLD-   22720 7373D 1   1.00000     0.00000
 Structure written by MMmdl.
 35 36  0  0  0  0  0  0  0  0  3 V2000
  148.9936  140.0787  155.5112 C   0  0  0  0  0  0  0  0  0  0  0  0
  148.2204  141.2088  156.2194 C   0  0  1  0  0  0  0  0  0  0  0  0
  147.4425  140.6361  157.3385 C   0  0  0  0  0  0  0  0  0  0  0  0
  146.8331  140.1881  158.2150 N   0  0  0  0  0  0  0  0  0  0  0  0
  149.1681  142.2097  156.7125 N   0  0  0  0  0  0  0  0  0  0  0  0
  150.1360  142.0394  157.6294 C   0  0  0  0  0  0  0  0  0  0  0  0
  150.3881  140.9622  158.1668 O   0  0  0  0  0  0  0  0  0  0  0  0
  150.9379  143.2892  158.0051 C   0  0  0  0  0  0  0  0  0  0  0  0
  151.7506  143.0667  159.2116 N   0  0  0  0  0  0  0  0  0  0  0  0
  152.7234  142.0492  159.1450 C   0  0  0  0  0  0  0  0  0  0  0  0
  153.5384  141.7678  160.1802 C   0  0  0  0  0  0  0  0  0  0  0  0
  154.5398  140.7280  160.0871 N   0  3  0  0  0  0  0  0  0  0  0  0
  155.3684  140.6265  160.9860 O   0  0  0  0  0  0  0  0  0  0  0  0
  154.5323  139.9802  159.1136 O   0  5  0  0  0  0  0  0  0  0  0  0
  153.3840  142.5498  161.3914 C   0  0  0  0  0  0  0  0  0  0  0  0
  152.4580  143.5265  161.4607 C   0  0  0  0  0  0  0  0  0  0  0  0
  151.5770  143.8361  160.3299 C   0  0  0  0  0  0  0  0  0  0  0  0
  150.7354  144.7324  160.3854 O   0  0  0  0  0  0  0  0  0  0  0  0
  147.2678  141.8514  155.2132 C   0  0  0  0  0  0  0  0  0  0  0  0
  146.5363  141.0531  154.1568 C   0  0  0  0  0  0  0  0  0  0  0  0
  147.6205  142.0285  153.7531 C   0  0  0  0  0  0  0  0  0  0  0  0
  148.3092  139.3407  155.0917 H   0  0  0  0  0  0  0  0  0  0  0  0
  149.6558  139.5472  156.1952 H   0  0  0  0  0  0  0  0  0  0  0  0
  149.6029  140.4647  154.6933 H   0  0  0  0  0  0  0  0  0  0  0  0
  149.0555  143.1397  156.3360 H   0  0  0  0  0  0  0  0  0  0  0  0
  151.5666  143.5832  157.1626 H   0  0  0  0  0  0  0  0  0  0  0  0
  150.2507  144.1245  158.1492 H   0  0  0  0  0  0  0  0  0  0  0  0
  152.7629  141.5290  158.1988 H   0  0  0  0  0  0  0  0  0  0  0  0
  154.0100  142.3591  162.2508 H   0  0  0  0  0  0  0  0  0  0  0  0
  152.3610  144.0979  162.3722 H   0  0  0  0  0  0  0  0  0  0  0  0
  146.6953  142.6709  155.6453 H   0  0  0  0  0  0  0  0  0  0  0  0
  146.7553  139.9914  154.0659 H   0  0  0  0  0  0  0  0  0  0  0  0
  145.5060  141.3314  153.9447 H   0  0  0  0  0  0  0  0  0  0  0  0
  147.3098  142.9540  153.2727 H   0  0  0  0  0  0  0  0  0  0  0  0
  148.5610  141.6150  153.3951 H   0  0  0  0  0  0  0  0  0  0  0  0
  1  2  1  0  0  0  0
  1 22  1  0  0  0  0
  1 23  1  0  0  0  0
  1 24  1  0  0  0  0
  2  3  1  0  0  0  0
  2  5  1  0  0  0  0
  2 19  1  0  0  0  0
  3  4  3  0  0  0  0
  5  6  1  0  0  0  0
  5 25  1  0  0  0  0
  6  7  2  0  0  0  0
  6  8  1  0  0  0  0
  8  9  1  0  0  0  0
  8 26  1  0  0  0  0
  8 27  1  0  0  0  0
  9 17  1  0  0  0  0
  9 10  1  0  0  0  0
 10 11  2  0  0  0  0
 10 28  1  0  0  0  0
 11 12  1  0  0  0  0
 11 15  1  0  0  0  0
 12 13  2  0  0  0  0
 12 14  1  0  0  0  0
 15 16  2  0  0  0  0
 15 29  1  0  0  0  0
 16 17  1  0  0  0  0
 16 30  1  0  0  0  0
 17 18  2  0  0  0  0
 19 21  1  0  0  0  0
 19 20  1  0  0  0  0
 19 31  1  0  0  0  0
 20 21  1  0  0  0  0
 20 32  1  0  0  0  0
 20 33  1  0  0  0  0
 21 34  1  0  0  0  0
 21 35  1  0  0  0  0
M  CHG  1  12   1
M  CHG  1  14  -1
M  END
> <s_m_source_file>
AV-unprocessed.smi

> <i_m_source_file_index>
1664

> <i_lp_mmshare_version>
43012

> <i_f3d_flags>
0

> <s_epik_input>
W0NIMl0xW0NIMl1bQ0hdMVtDQF0oW0NIM10pKEMjTilbTkhdQyg9TylbQ0gyXW4yW2NIXWMoW04rXSg9TylbTy1dKVtjSF1bY0hdYzI9Tw==

> <s_epik_cmdline>
J2VwaWtfcHl0aG9uJywgJy1waCcsICc3LjAnLCAnLXRuJywgJzgnLCAnLW1hJywgJzIwMCcsICctbWV0YWxfYmluZGluZycsICctaW1hZScsICc8aW5maWxlLm1hZT4nLCAnLW9tYWUnLCAnPG91dGZpbGUubWFlPic=

> <r_lp_tautomer_probability>
1

> <r_epik_Ionization_Penalty>
4.65324e-07

> <r_epik_Ionization_Penalty_Charging>
6.17383e-11

> <r_epik_Ionization_Penalty_Neutral>
4.65262e-07

> <r_epik_State_Penalty>
-0

> <r_epik_Charging_Adjusted_Penalty>
6.17383e-11

> <i_epik_Tot_Q>
0

> <i_epik_Tot_abs_Q>
2

> <r_epik_Metal_State_Penalty>
-0

> <b_epik_Metal_Only>
0

> <s_lp_Force_Field>
OPLS_2005

> <r_lp_Energy>
25.9803

> <b_lp_Chiralities_Consistent>
1

> <s_lp_Variant>
AV-unprocessed.smi:1664-1

> <Gold.Version>
5.8.1

> <Gold.Id.Protein>
6NUR|6NUR_protein|mol2

> <Gold.PLP.Fitness>
45.6690

> <Gold.PLP.PLP>
-39.9969

> <Gold.PLP.part.hbond>
-4.0000

> <Gold.PLP.part.metal>
0.0000

> <Gold.PLP.part.buried>
-5.7398

> <Gold.PLP.part.nonpolar>
-29.6605

> <Gold.PLP.part.repulsive>
0.1924

> <Gold.PLP.ligand.clash>
0.0000

> <Gold.PLP.ligand.torsion>
0.9386

> <Gold.PLP.Chemscore.Hbond>
2.0000

> <Gold.PLP.Chemscore.CHOScore>
0.0000

> <Gold.PLP.Chemscore.Metal>
0.0000

> <Gold.Chemscore.Hbonds>
donor molecule, donor type, donor heavy atom, donor atom, acceptor molecule, acceptor atom, score
      L1  H     5    25       P1  8028  1.00
      P1  H  7997  8008       L1    14  1.00

> <Gold.PLP.Chemscore.Internal.Correction>
1.5494

> <Gold.Rescore>
     Score         DG    S(hbond)    S(metal)    S(lipo)     H(rot)  DE(clash)    DE(int)     intcor
     13.56     -16.15       1.97        0.00      77.36       1.94       0.03       2.55       ----

> <Gold.Chemscore.Fitness>
13.5647

> <Gold.Chemscore.DG>
-16.1471

> <Gold.Chemscore.ZeroCoef>
-5.4800

> <Gold.Chemscore.Hbond>
1.9696

> <Gold.Chemscore.Metal>
0.0000

> <Gold.Chemscore.Lipo>
77.3627

> <Gold.Chemscore.Internal_Hbond>
0.0000

> <Gold.Chemscore.DEClash>
0.0300

> <Gold.Chemscore.DEInternal>
2.5524

> <Gold.Chemscore.Rot>
1.9386

> <Gold.Chemscore.Internal.Correction>
   9.000000E+99

> <Gold.Chemscore.Hbonds>
donor molecule, donor type, donor heavy atom, donor atom, acceptor molecule, acceptor atom, score
      L1  H     5    25       P1  8028  1.00
      P1  H  7997  8008       L1    14  0.97

> <Gold.Chemscore.Hbond.Weighted>
-6.5784

> <Gold.Chemscore.Metal.Weighted>
-0.0000

> <Gold.Chemscore.Lipo.Weighted>
-9.0514

> <Gold.Chemscore.Internal_Hbond.Weighted>
0.0000

> <Gold.Chemscore.DEClash.Weighted>
0.0300

> <Gold.Chemscore.DEInternal.Weighted>
2.5524

> <Gold.Chemscore.Rot.Weighted>
4.9627

> <Gold.Chemscore.Internal.Correction.Weighted>
   9.000000E+99

> <Gold.Protein.RotatedTorsions>
[ 6907 6896 6895 6894 ] final  112.30 input  -60.11 | X-H torsion
[ 7974 7965 7964 7962 ] final  -41.96 input  175.53 | X-H torsion
[ 8008 7997 7996 7995 ] final -120.08 input   59.86 | X-H torsion
[ 10167 10162 10161 10158 ] final  154.67 input  -65.29 | X-H torsion
[ 10718 10713 10712 10709 ] final  -49.87 input   66.30 | X-H torsion
[ 10763 10752 10751 10750 ] final   25.24 input  -60.55 | X-H torsion
[ 11005 11000 10999 10996 ] final  133.75 input  -57.11 | X-H torsion

> <Gold.Protein.ActiveResidues>
 VAL166  LYS551  ARG553  GLY616  TRP617  ASP618  TYR619  PRO620  LYS621  CYS622 
 ASP623  PHE694  ASN695  SER759  ASP760  ASP761  ALA762  ILE779  LEU786  VAL792 
 PHE793  MET794  SER795  GLU796  ALA797  LYS798  CYS799  TRP800  GLU811  SER814 

> <Gold.Protein.RotatedAtoms>
  152.4924  133.8535  159.7213 H   0  0  0  0  0  0  0  0  0  0  0  0  # atno 6907 bound_to 6896
  150.9066  133.7041  159.2872 H   0  0  0  0  0  0  0  0  0  0  0  0  # atno 6908 bound_to 6896
  151.4465  135.1029  159.9737 H   0  0  0  0  0  0  0  0  0  0  0  0  # atno 6909 bound_to 6896
  146.0161  140.6906  142.9201 H   0  0  0  0  0  0  0  0  0  0  0  0  # atno 7974 bound_to 7965
  155.1261  140.0399  157.2762 H   0  0  0  0  0  0  0  0  0  0  0  0  # atno 8008 bound_to 7997
  154.6577  140.2584  155.7117 H   0  0  0  0  0  0  0  0  0  0  0  0  # atno 8009 bound_to 7997
  156.2605  140.2823  156.1037 H   0  0  0  0  0  0  0  0  0  0  0  0  # atno 8010 bound_to 7997
  139.4823  144.5166  151.7942 H   0  0  0  0  0  0  0  0  0  0  0  0  # atno 10167 bound_to 10162
  156.1853  130.4151  149.9448 H   0  0  0  0  0  0  0  0  0  0  0  0  # atno 10718 bound_to 10713
  153.0706  135.6587  154.0257 H   0  0  0  0  0  0  0  0  0  0  0  0  # atno 10763 bound_to 10752
  153.9903  135.2946  155.3414 H   0  0  0  0  0  0  0  0  0  0  0  0  # atno 10764 bound_to 10752
  154.7079  135.5217  153.8692 H   0  0  0  0  0  0  0  0  0  0  0  0  # atno 10765 bound_to 10752
  139.9871  134.9528  156.9769 H   0  0  0  0  0  0  0  0  0  0  0  0  # atno 11005 bound_to 11000
  144.6971  140.3483  143.7186 LP  0  0  0  0  0  0  0  0  0  0  0  0  # atno 17320 bound_to 7965
  145.7267  139.1724  143.2454 LP  0  0  0  0  0  0  0  0  0  0  0  0  # atno 17321 bound_to 7965
  140.4675  144.1634  150.5913 LP  0  0  0  0  0  0  0  0  0  0  0  0  # atno 17342 bound_to 10162
  140.4418  143.2523  151.9462 LP  0  0  0  0  0  0  0  0  0  0  0  0  # atno 17343 bound_to 10162
  156.7205  130.9005  151.3618 LP  0  0  0  0  0  0  0  0  0  0  0  0  # atno 17370 bound_to 10713
  157.6895  130.9219  150.0475 LP  0  0  0  0  0  0  0  0  0  0  0  0  # atno 17371 bound_to 10713
  140.4980  134.1126  155.7245 LP  0  0  0  0  0  0  0  0  0  0  0  0  # atno 17394 bound_to 11000
  141.1534  133.8927  157.2039 LP  0  0  0  0  0  0  0  0  0  0  0  0  # atno 17395 bound_to 11000

$$$$
