AV-unprocessed.smi:3071|AV-procd|sdf|11715|dock7
  -GOLD-   2272017113D 1   1.00000     0.00000
 Structure written by MMmdl.
 29 30  0  0  0  0  0  0  0  0  3 V2000
  147.9981  139.4610  153.8548 C   0  0  0  0  0  0  0  0  0  0  0  0
  149.4117  139.1423  154.2221 C   0  0  0  0  0  0  0  0  0  0  0  0
  150.0599  138.0142  153.9094 N   0  3  0  0  0  0  0  0  0  0  0  0
  151.3346  138.0432  154.4054 C   0  0  0  0  0  0  0  0  0  0  0  0
  151.4716  139.2444  155.0501 C   0  0  0  0  0  0  0  0  0  0  0  0
  150.2744  139.9024  154.9187 N   0  0  0  0  0  0  0  0  0  0  0  0
  149.9480  141.2334  155.4507 C   0  0  0  0  0  0  0  0  0  0  0  0
  151.0569  141.8071  156.3534 C   0  0  2  0  0  0  0  0  0  0  0  0
  151.0561  141.2865  157.7941 C   0  0  0  0  0  0  0  0  0  0  0  0
  151.7961  142.3842  158.5488 C   0  0  0  0  0  0  0  0  0  0  0  0
  151.3461  143.6658  157.8430 C   0  0  0  0  0  0  0  0  0  0  0  0
  150.9721  143.2774  156.4675 N   0  3  0  0  0  0  0  0  0  0  0  0
  147.5985  138.6509  153.2437 H   0  0  0  0  0  0  0  0  0  0  0  0
  147.9802  140.3927  153.2904 H   0  0  0  0  0  0  0  0  0  0  0  0
  147.4121  139.5597  154.7688 H   0  0  0  0  0  0  0  0  0  0  0  0
  152.0298  137.2277  154.2668 H   0  0  0  0  0  0  0  0  0  0  0  0
  152.3138  139.6689  155.5778 H   0  0  0  0  0  0  0  0  0  0  0  0
  149.7425  141.9017  154.6136 H   0  0  0  0  0  0  0  0  0  0  0  0
  149.0156  141.1412  156.0098 H   0  0  0  0  0  0  0  0  0  0  0  0
  152.0314  141.5857  155.9163 H   0  0  0  0  0  0  0  0  0  0  0  0
  150.0352  141.2057  158.1709 H   0  0  0  0  0  0  0  0  0  0  0  0
  151.5316  140.3103  157.8941 H   0  0  0  0  0  0  0  0  0  0  0  0
  151.5763  142.3891  159.6169 H   0  0  0  0  0  0  0  0  0  0  0  0
  152.8725  142.2525  158.4284 H   0  0  0  0  0  0  0  0  0  0  0  0
  150.4651  144.0806  158.3343 H   0  0  0  0  0  0  0  0  0  0  0  0
  152.1228  144.4310  157.8431 H   0  0  0  0  0  0  0  0  0  0  0  0
  151.5878  143.7131  155.7952 H   0  0  0  0  0  0  0  0  0  0  0  0
  150.0219  143.5766  156.2987 H   0  0  0  0  0  0  0  0  0  0  0  0
  149.6601  137.2476  153.3824 H   0  0  0  0  0  0  0  0  0  0  0  0
  1  2  1  0  0  0  0
  1 13  1  0  0  0  0
  1 14  1  0  0  0  0
  1 15  1  0  0  0  0
  2  6  1  0  0  0  0
  2  3  2  0  0  0  0
  3  4  1  0  0  0  0
  3 29  1  0  0  0  0
  4  5  2  0  0  0  0
  4 16  1  0  0  0  0
  5  6  1  0  0  0  0
  5 17  1  0  0  0  0
  6  7  1  0  0  0  0
  7  8  1  0  0  0  0
  7 18  1  0  0  0  0
  7 19  1  0  0  0  0
  8 12  1  0  0  0  0
  8  9  1  0  0  0  0
  8 20  1  0  0  0  0
  9 10  1  0  0  0  0
  9 21  1  0  0  0  0
  9 22  1  0  0  0  0
 10 11  1  0  0  0  0
 10 23  1  0  0  0  0
 10 24  1  0  0  0  0
 11 12  1  0  0  0  0
 11 25  1  0  0  0  0
 11 26  1  0  0  0  0
 12 27  1  0  0  0  0
 12 28  1  0  0  0  0
M  CHG  1   3   1
M  CHG  1  12   1
M  END
> <s_m_source_file>
AV-unprocessed.smi

> <i_m_source_file_index>
3071

> <i_lp_mmshare_version>
43012

> <i_f3d_flags>
0

> <s_epik_input>
W0NIM11jMW5bY0hdW2NIXW4xW0NIMl1bQ0BASF0yW0NIMl1bQ0gyXVtDSDJdW05IXTI=

> <s_epik_cmdline>
J2VwaWtfcHl0aG9uJywgJy1waCcsICc3LjAnLCAnLXRuJywgJzgnLCAnLW1hJywgJzIwMCcsICctbWV0YWxfYmluZGluZycsICctaW1hZScsICc8aW5maWxlLm1hZT4nLCAnLW9tYWUnLCAnPG91dGZpbGUubWFlPic=

> <r_lp_tautomer_probability>
1

> <r_epik_Ionization_Penalty>
0.770167

> <r_epik_Ionization_Penalty_Charging>
0.000985251

> <r_epik_Ionization_Penalty_Neutral>
0.769181

> <r_epik_State_Penalty>
0.493256

> <r_epik_Charging_Adjusted_Penalty>
0.494241

> <i_epik_Tot_Q>
2

> <i_epik_Tot_abs_Q>
2

> <r_epik_Metal_State_Penalty>
4.24699

> <b_epik_Metal_Only>
0

> <s_lp_Force_Field>
OPLS_2005

> <r_lp_Energy>
34.2939

> <b_lp_Chiralities_Consistent>
1

> <s_lp_Variant>
AV-unprocessed.smi:3071-3

> <Gold.Version>
5.8.1

> <Gold.Id.Protein>
6NUR|6NUR_protein|mol2

> <Gold.PLP.Fitness>
39.0404

> <Gold.PLP.PLP>
-27.5461

> <Gold.PLP.part.hbond>
-2.0000

> <Gold.PLP.part.metal>
0.0000

> <Gold.PLP.part.buried>
-1.6537

> <Gold.PLP.part.nonpolar>
-23.3273

> <Gold.PLP.part.repulsive>
0.1300

> <Gold.PLP.ligand.clash>
0.0000

> <Gold.PLP.ligand.torsion>
0.2531

> <Gold.PLP.Chemscore.Hbond>
4.0000

> <Gold.PLP.Chemscore.CHOScore>
0.0000

> <Gold.PLP.Chemscore.Metal>
0.0000

> <Gold.Chemscore.Hbonds>
donor molecule, donor type, donor heavy atom, donor atom, acceptor molecule, acceptor atom, score
      L1  H     3    29       P1  7948  2.00
      L1  H    12    28       P1  8028  2.00

> <Gold.PLP.Chemscore.Internal.Correction>
0.0005

> <Gold.Rescore>
     Score         DG    S(hbond)    S(metal)    S(lipo)     H(rot)  DE(clash)    DE(int)     intcor
     16.16     -16.47       1.97        0.00      65.02       1.25       0.08       0.23       ----

> <Gold.Chemscore.Fitness>
16.1559

> <Gold.Chemscore.DG>
-16.4719

> <Gold.Chemscore.ZeroCoef>
-5.4800

> <Gold.Chemscore.Hbond>
1.9695

> <Gold.Chemscore.Metal>
0.0000

> <Gold.Chemscore.Lipo>
65.0236

> <Gold.Chemscore.Internal_Hbond>
0.0000

> <Gold.Chemscore.DEClash>
0.0813

> <Gold.Chemscore.DEInternal>
0.2347

> <Gold.Chemscore.Rot>
1.2477

> <Gold.Chemscore.Internal.Correction>
   9.000000E+99

> <Gold.Chemscore.Hbonds>
donor molecule, donor type, donor heavy atom, donor atom, acceptor molecule, acceptor atom, score
      L1  H     3    29       P1  7948  0.74
      L1  H    12    28       P1  8028  0.94

> <Gold.Chemscore.Hbond.Weighted>
-6.5782

> <Gold.Chemscore.Metal.Weighted>
-0.0000

> <Gold.Chemscore.Lipo.Weighted>
-7.6078

> <Gold.Chemscore.Internal_Hbond.Weighted>
0.0000

> <Gold.Chemscore.DEClash.Weighted>
0.0813

> <Gold.Chemscore.DEInternal.Weighted>
0.2347

> <Gold.Chemscore.Rot.Weighted>
3.1941

> <Gold.Chemscore.Internal.Correction.Weighted>
   9.000000E+99

> <Gold.Protein.RotatedTorsions>
[ 6907 6896 6895 6894 ] final   82.52 input  -60.11 | X-H torsion
[ 7974 7965 7964 7962 ] final   64.80 input  175.53 | X-H torsion
[ 8008 7997 7996 7995 ] final -120.08 input   59.86 | X-H torsion
[ 10167 10162 10161 10158 ] final  144.87 input  -65.29 | X-H torsion
[ 10718 10713 10712 10709 ] final   22.70 input   66.30 | X-H torsion
[ 10763 10752 10751 10750 ] final -106.93 input  -60.55 | X-H torsion
[ 11005 11000 10999 10996 ] final   95.20 input  -57.11 | X-H torsion

> <Gold.Protein.ActiveResidues>
 VAL166  LYS551  ARG553  GLY616  TRP617  ASP618  TYR619  PRO620  LYS621  CYS622 
 ASP623  PHE694  ASN695  SER759  ASP760  ASP761  ALA762  ILE779  LEU786  VAL792 
 PHE793  MET794  SER795  GLU796  ALA797  LYS798  CYS799  TRP800  GLU811  SER814 

> <Gold.Protein.RotatedAtoms>
  152.5301  134.3037  159.9087 H   0  0  0  0  0  0  0  0  0  0  0  0  # atno 6907 bound_to 6896
  151.2987  133.4125  159.2646 H   0  0  0  0  0  0  0  0  0  0  0  0  # atno 6908 bound_to 6896
  151.0137  134.9433  159.8078 H   0  0  0  0  0  0  0  0  0  0  0  0  # atno 6909 bound_to 6896
  145.8459  139.3224  143.0904 H   0  0  0  0  0  0  0  0  0  0  0  0  # atno 7974 bound_to 7965
  155.1261  140.0399  157.2762 H   0  0  0  0  0  0  0  0  0  0  0  0  # atno 8008 bound_to 7997
  154.6577  140.2584  155.7117 H   0  0  0  0  0  0  0  0  0  0  0  0  # atno 8009 bound_to 7997
  156.2605  140.2823  156.1037 H   0  0  0  0  0  0  0  0  0  0  0  0  # atno 8010 bound_to 7997
  139.4938  144.5942  151.6618 H   0  0  0  0  0  0  0  0  0  0  0  0  # atno 10167 bound_to 10162
  157.1560  130.6695  149.6028 H   0  0  0  0  0  0  0  0  0  0  0  0  # atno 10718 bound_to 10713
  154.8043  135.4693  154.0354 H   0  0  0  0  0  0  0  0  0  0  0  0  # atno 10763 bound_to 10752
  153.1835  135.6844  153.8453 H   0  0  0  0  0  0  0  0  0  0  0  0  # atno 10764 bound_to 10752
  153.7996  135.3232  155.3366 H   0  0  0  0  0  0  0  0  0  0  0  0  # atno 10765 bound_to 10752
  139.8791  134.8886  156.3975 H   0  0  0  0  0  0  0  0  0  0  0  0  # atno 11005 bound_to 11000
  145.9412  140.8978  143.0306 LP  0  0  0  0  0  0  0  0  0  0  0  0  # atno 17320 bound_to 7965
  144.6731  140.1551  143.7427 LP  0  0  0  0  0  0  0  0  0  0  0  0  # atno 17321 bound_to 7965
  140.5576  144.0322  150.6155 LP  0  0  0  0  0  0  0  0  0  0  0  0  # atno 17342 bound_to 10162
  140.3397  143.3027  152.0601 LP  0  0  0  0  0  0  0  0  0  0  0  0  # atno 17343 bound_to 10162
  155.9762  130.4728  150.6512 LP  0  0  0  0  0  0  0  0  0  0  0  0  # atno 17370 bound_to 10713
  157.4177  131.0832  151.1161 LP  0  0  0  0  0  0  0  0  0  0  0  0  # atno 17371 bound_to 10713
  140.9290  133.7592  156.0000 LP  0  0  0  0  0  0  0  0  0  0  0  0  # atno 17394 bound_to 11000
  140.8353  134.3130  157.5334 LP  0  0  0  0  0  0  0  0  0  0  0  0  # atno 17395 bound_to 11000

$$$$
