AV-unprocessed.smi:2977|AV-procd|sdf|11367|dock1
  -GOLD-   2272016283D 1   1.00000     0.00000
 Structure written by MMmdl.
 38 39  0  0  0  0  0  0  0  0  1 V2000
  152.0076  140.0959  155.4144 O   0  0  0  0  0  0  0  0  0  0  0  0
  151.6920  139.7543  156.5543 C   0  0  0  0  0  0  0  0  0  0  0  0
  152.2425  138.4522  157.1482 C   0  0  0  0  0  0  0  0  0  0  0  0
  152.8665  138.6697  158.4602 N   0  0  0  0  0  0  0  0  0  0  0  0
  153.4802  139.9020  158.6020 N   0  0  0  0  0  0  0  0  0  0  0  0
  154.0301  140.2102  159.7257 C   0  0  0  0  0  0  0  0  0  0  0  0
  154.0365  139.3056  160.8546 C   0  0  0  0  0  0  0  0  0  0  0  0
  154.7883  139.7755  162.3380 Cl  0  0  0  0  0  0  0  0  0  0  0  0
  153.4434  138.0952  160.7002 C   0  0  0  0  0  0  0  0  0  0  0  0
  153.4157  136.9565  162.0027 Cl  0  0  0  0  0  0  0  0  0  0  0  0
  152.8090  137.7087  159.4326 C   0  0  0  0  0  0  0  0  0  0  0  0
  152.2692  136.6171  159.2488 O   0  0  0  0  0  0  0  0  0  0  0  0
  150.8579  140.4600  157.3325 N   0  0  0  0  0  0  0  0  0  0  0  0
  150.2249  141.7241  156.9669 C   0  0  0  0  0  0  0  0  0  0  0  0
  151.2017  142.9193  156.9414 C   0  0  0  0  0  0  0  0  0  0  0  0
  151.6096  143.4249  158.3179 C   0  0  0  0  0  0  0  0  0  0  0  0
  152.3291  142.6690  159.1705 C   0  0  0  0  0  0  0  0  0  0  0  0
  152.7537  143.1168  160.5576 C   0  0  0  0  0  0  0  0  0  0  0  0
  151.9907  144.3661  161.0284 C   0  0  0  0  0  0  0  0  0  0  0  0
  151.8856  145.4059  159.9058 C   0  0  0  0  0  0  0  0  0  0  0  0
  151.1558  144.8350  158.6764 C   0  0  0  0  0  0  0  0  0  0  0  0
  151.4539  137.7001  157.2188 H   0  0  0  0  0  0  0  0  0  0  0  0
  152.9713  138.0424  156.4467 H   0  0  0  0  0  0  0  0  0  0  0  0
  154.5204  141.1705  159.8860 H   0  0  0  0  0  0  0  0  0  0  0  0
  150.6554  140.1011  158.2544 H   0  0  0  0  0  0  0  0  0  0  0  0
  149.7310  141.6219  155.9996 H   0  0  0  0  0  0  0  0  0  0  0  0
  149.4347  141.9157  157.6931 H   0  0  0  0  0  0  0  0  0  0  0  0
  152.0976  142.6391  156.3861 H   0  0  0  0  0  0  0  0  0  0  0  0
  150.7552  143.7441  156.3854 H   0  0  0  0  0  0  0  0  0  0  0  0
  152.6459  141.6794  158.8753 H   0  0  0  0  0  0  0  0  0  0  0  0
  152.5994  142.2998  161.2620 H   0  0  0  0  0  0  0  0  0  0  0  0
  153.8252  143.3162  160.5337 H   0  0  0  0  0  0  0  0  0  0  0  0
  150.9868  144.0834  161.3476 H   0  0  0  0  0  0  0  0  0  0  0  0
  152.4819  144.7957  161.9017 H   0  0  0  0  0  0  0  0  0  0  0  0
  151.3711  146.2985  160.2623 H   0  0  0  0  0  0  0  0  0  0  0  0
  152.8890  145.7228  159.6181 H   0  0  0  0  0  0  0  0  0  0  0  0
  151.3093  145.4958  157.8227 H   0  0  0  0  0  0  0  0  0  0  0  0
  150.0823  144.8069  158.8656 H   0  0  0  0  0  0  0  0  0  0  0  0
  1  2  2  0  0  0  0
  2  3  1  0  0  0  0
  2 13  1  0  0  0  0
  3  4  1  0  0  0  0
  3 22  1  0  0  0  0
  3 23  1  0  0  0  0
  4 11  1  0  0  0  0
  4  5  1  0  0  0  0
  5  6  2  0  0  0  0
  6  7  1  0  0  0  0
  6 24  1  0  0  0  0
  7  8  1  0  0  0  0
  7  9  2  0  0  0  0
  9 10  1  0  0  0  0
  9 11  1  0  0  0  0
 11 12  2  0  0  0  0
 13 14  1  0  0  0  0
 13 25  1  0  0  0  0
 14 15  1  0  0  0  0
 14 26  1  0  0  0  0
 14 27  1  0  0  0  0
 15 16  1  0  0  0  0
 15 28  1  0  0  0  0
 15 29  1  0  0  0  0
 16 21  1  0  0  0  0
 16 17  2  0  0  0  0
 17 18  1  0  0  0  0
 17 30  1  0  0  0  0
 18 19  1  0  0  0  0
 18 31  1  0  0  0  0
 18 32  1  0  0  0  0
 19 20  1  0  0  0  0
 19 33  1  0  0  0  0
 19 34  1  0  0  0  0
 20 21  1  0  0  0  0
 20 35  1  0  0  0  0
 20 36  1  0  0  0  0
 21 37  1  0  0  0  0
 21 38  1  0  0  0  0
M  END
> <s_m_source_file>
AV-unprocessed.smi

> <i_m_source_file_index>
2977

> <i_lp_mmshare_version>
43012

> <i_f3d_flags>
0

> <s_epik_input>
Tz1jMWMoQ2wpYyhDbClbY0hdbm4xW0NIMl1DKD1PKVtOSF1bQ0gyXVtDSDJdQzI9W0NIXVtDSDJdW0NIMl1bQ0gyXVtDSDJdMg==

> <s_epik_cmdline>
J2VwaWtfcHl0aG9uJywgJy1waCcsICc3LjAnLCAnLXRuJywgJzgnLCAnLW1hJywgJzIwMCcsICctbWV0YWxfYmluZGluZycsICctaW1hZScsICc8aW5maWxlLm1hZT4nLCAnLW9tYWUnLCAnPG91dGZpbGUubWFlPic=

> <r_lp_tautomer_probability>
1

> <r_epik_Ionization_Penalty>
1.81325e-08

> <r_epik_Ionization_Penalty_Charging>
2.89782e-11

> <r_epik_Ionization_Penalty_Neutral>
1.81035e-08

> <r_epik_State_Penalty>
-0

> <r_epik_Charging_Adjusted_Penalty>
2.89782e-11

> <i_epik_Tot_Q>
0

> <i_epik_Tot_abs_Q>
0

> <r_epik_Metal_State_Penalty>
-0

> <b_epik_Metal_Only>
0

> <s_lp_Force_Field>
OPLS_2005

> <r_lp_Energy>
20.3958

> <b_lp_Chiralities_Consistent>
1

> <s_lp_Variant>
AV-unprocessed.smi:2977-1

> <Gold.Version>
5.8.1

> <Gold.Id.Protein>
6NUR|6NUR_protein|mol2

> <Gold.PLP.Fitness>
51.9746

> <Gold.PLP.PLP>
-44.7352

> <Gold.PLP.part.hbond>
-3.0000

> <Gold.PLP.part.metal>
0.0000

> <Gold.PLP.part.buried>
-3.8504

> <Gold.PLP.part.nonpolar>
-37.9283

> <Gold.PLP.part.repulsive>
0.0479

> <Gold.PLP.ligand.clash>
0.0000

> <Gold.PLP.ligand.torsion>
0.5630

> <Gold.PLP.Chemscore.Hbond>
2.7644

> <Gold.PLP.Chemscore.CHOScore>
0.0000

> <Gold.PLP.Chemscore.Metal>
0.0000

> <Gold.Chemscore.Hbonds>
donor molecule, donor type, donor heavy atom, donor atom, acceptor molecule, acceptor atom, score
      P1  H  6896  6909       L1    12  0.93
      P1  H  7989  7998       L1     1  0.68
      P1  H  7997  8010       L1     5  1.00

> <Gold.PLP.Chemscore.Internal.Correction>
0.0722

> <Gold.Rescore>
     Score         DG    S(hbond)    S(metal)    S(lipo)     H(rot)  DE(clash)    DE(int)     intcor
     21.12     -21.64       2.01        0.00     122.12       1.89       0.02       0.50       ----

> <Gold.Chemscore.Fitness>
21.1156

> <Gold.Chemscore.DG>
-21.6357

> <Gold.Chemscore.ZeroCoef>
-5.4800

> <Gold.Chemscore.Hbond>
2.0091

> <Gold.Chemscore.Metal>
0.0000

> <Gold.Chemscore.Lipo>
122.1178

> <Gold.Chemscore.Internal_Hbond>
0.0000

> <Gold.Chemscore.DEClash>
0.0178

> <Gold.Chemscore.DEInternal>
0.5023

> <Gold.Chemscore.Rot>
1.8916

> <Gold.Chemscore.Internal.Correction>
   9.000000E+99

> <Gold.Chemscore.Hbonds>
donor molecule, donor type, donor heavy atom, donor atom, acceptor molecule, acceptor atom, score
      P1  H  6896  6909       L1    12  0.91
      P1  H  7989  7998       L1     1  0.65
      P1  H  7997  8010       L1     5  0.43

> <Gold.Chemscore.Hbond.Weighted>
-6.7104

> <Gold.Chemscore.Metal.Weighted>
-0.0000

> <Gold.Chemscore.Lipo.Weighted>
-14.2878

> <Gold.Chemscore.Internal_Hbond.Weighted>
0.0000

> <Gold.Chemscore.DEClash.Weighted>
0.0178

> <Gold.Chemscore.DEInternal.Weighted>
0.5023

> <Gold.Chemscore.Rot.Weighted>
4.8425

> <Gold.Chemscore.Internal.Correction.Weighted>
   9.000000E+99

> <Gold.Protein.RotatedTorsions>
[ 6907 6896 6895 6894 ] final  142.38 input  -60.11 | X-H torsion
[ 7974 7965 7964 7962 ] final   51.19 input  175.53 | X-H torsion
[ 8008 7997 7996 7995 ] final   23.95 input   59.86 | X-H torsion
[ 10167 10162 10161 10158 ] final   75.94 input  -65.29 | X-H torsion
[ 10718 10713 10712 10709 ] final   20.00 input   66.30 | X-H torsion
[ 10763 10752 10751 10750 ] final  -83.25 input  -60.55 | X-H torsion
[ 11005 11000 10999 10996 ] final   39.77 input  -57.11 | X-H torsion

> <Gold.Protein.ActiveResidues>
 VAL166  LYS551  ARG553  GLY616  TRP617  ASP618  TYR619  PRO620  LYS621  CYS622 
 ASP623  PHE694  ASN695  SER759  ASP760  ASP761  ALA762  ILE779  LEU786  VAL792 
 PHE793  MET794  SER795  GLU796  ALA797  LYS798  CYS799  TRP800  GLU811  SER814 

> <Gold.Protein.RotatedAtoms>
  152.2195  133.4972  159.5154 H   0  0  0  0  0  0  0  0  0  0  0  0  # atno 6907 bound_to 6896
  150.7009  134.1361  159.4097 H   0  0  0  0  0  0  0  0  0  0  0  0  # atno 6908 bound_to 6896
  151.9282  135.0268  160.0578 H   0  0  0  0  0  0  0  0  0  0  0  0  # atno 6909 bound_to 6896
  145.9938  139.4366  143.0057 H   0  0  0  0  0  0  0  0  0  0  0  0  # atno 7974 bound_to 7965
  154.9889  140.3111  155.4915 H   0  0  0  0  0  0  0  0  0  0  0  0  # atno 8008 bound_to 7997
  156.2943  140.2253  156.4932 H   0  0  0  0  0  0  0  0  0  0  0  0  # atno 8009 bound_to 7997
  154.7722  140.0451  157.1048 H   0  0  0  0  0  0  0  0  0  0  0  0  # atno 8010 bound_to 7997
  139.9976  144.5711  150.7765 H   0  0  0  0  0  0  0  0  0  0  0  0  # atno 10167 bound_to 10162
  157.1184  130.6539  149.5917 H   0  0  0  0  0  0  0  0  0  0  0  0  # atno 10718 bound_to 10713
  154.5855  135.5562  153.7227 H   0  0  0  0  0  0  0  0  0  0  0  0  # atno 10763 bound_to 10752
  153.0097  135.6330  154.1923 H   0  0  0  0  0  0  0  0  0  0  0  0  # atno 10764 bound_to 10752
  154.1864  135.2884  155.3016 H   0  0  0  0  0  0  0  0  0  0  0  0  # atno 10765 bound_to 10752
  140.1995  134.3887  155.8103 H   0  0  0  0  0  0  0  0  0  0  0  0  # atno 11005 bound_to 11000
  145.7591  140.9942  143.1209 LP  0  0  0  0  0  0  0  0  0  0  0  0  # atno 17320 bound_to 7965
  144.6897  139.9308  143.7471 LP  0  0  0  0  0  0  0  0  0  0  0  0  # atno 17321 bound_to 7965
  140.7431  143.2842  151.3512 LP  0  0  0  0  0  0  0  0  0  0  0  0  # atno 17342 bound_to 10162
  139.6295  144.0749  152.2464 LP  0  0  0  0  0  0  0  0  0  0  0  0  # atno 17343 bound_to 10162
  155.9834  130.4853  150.6931 LP  0  0  0  0  0  0  0  0  0  0  0  0  # atno 17370 bound_to 10713
  157.4498  131.0871  151.0858 LP  0  0  0  0  0  0  0  0  0  0  0  0  # atno 17371 bound_to 10713
  141.2227  133.7087  156.8234 LP  0  0  0  0  0  0  0  0  0  0  0  0  # atno 17394 bound_to 11000
  140.2070  134.8856  157.3232 LP  0  0  0  0  0  0  0  0  0  0  0  0  # atno 17395 bound_to 11000

$$$$
