AV-unprocessed.smi:2141|AV-procd|sdf|8718|dock10
  -GOLD-   2272011483D 1   1.00000     0.00000
 Structure written by MMmdl.
 42 43  0  0  0  0  0  0  0  0  1 V2000
  141.4732  138.4601  152.8846 C   0  0  0  0  0  0  0  0  0  0  0  0
  142.9294  137.4499  153.3807 S   0  0  0  0  0  0  0  0  0  0  0  0
  143.3797  137.8930  154.7089 O   0  0  0  0  0  0  0  0  0  0  0  0
  142.6105  136.0349  153.1389 O   0  0  0  0  0  0  0  0  0  0  0  0
  144.1407  137.9043  152.2365 N   0  0  0  0  0  0  0  0  0  0  0  0
  145.4837  137.3153  152.2820 C   0  0  0  0  0  0  0  0  0  0  0  0
  146.5930  138.3699  152.0902 C   0  0  0  0  0  0  0  0  0  0  0  0
  147.0334  139.0306  153.3990 C   0  0  0  0  0  0  0  0  0  0  0  0
  146.3004  138.9670  154.3854 O   0  0  0  0  0  0  0  0  0  0  0  0
  148.2327  139.6395  153.3714 N   0  0  0  0  0  0  0  0  0  0  0  0
  148.9356  140.2398  154.4490 C   0  0  0  0  0  0  0  0  0  0  0  0
  148.3154  140.8975  155.5359 C   0  0  0  0  0  0  0  0  0  0  0  0
  149.1236  141.4560  156.5446 C   0  0  0  0  0  0  0  0  0  0  0  0
  150.5310  141.3528  156.4416 C   0  0  0  0  0  0  0  0  0  0  0  0
  151.3580  141.8969  157.4474 N   0  0  0  0  0  0  0  0  0  0  0  0
  151.3336  141.2041  158.7330 C   0  0  0  0  0  0  0  0  0  0  0  0
  152.4892  141.6897  159.6253 C   0  0  0  0  0  0  0  0  0  0  0  0
  152.4364  143.1065  159.7568 O   0  0  0  0  0  0  0  0  0  0  0  0
  152.5762  143.7605  158.5001 C   0  0  0  0  0  0  0  0  0  0  0  0
  151.4187  143.3519  157.5736 C   0  0  0  0  0  0  0  0  0  0  0  0
  151.1209  140.7317  155.3908 N   0  0  0  0  0  0  0  0  0  0  0  0
  150.3433  140.2017  154.4244 C   0  0  0  0  0  0  0  0  0  0  0  0
  140.6336  138.2267  153.5387 H   0  0  0  0  0  0  0  0  0  0  0  0
  141.1999  138.2294  151.8551 H   0  0  0  0  0  0  0  0  0  0  0  0
  141.7099  139.5196  152.9715 H   0  0  0  0  0  0  0  0  0  0  0  0
  144.1032  138.8836  151.9531 H   0  0  0  0  0  0  0  0  0  0  0  0
  145.6235  136.7928  153.2291 H   0  0  0  0  0  0  0  0  0  0  0  0
  145.5547  136.5590  151.5004 H   0  0  0  0  0  0  0  0  0  0  0  0
  147.4566  137.9109  151.6070 H   0  0  0  0  0  0  0  0  0  0  0  0
  146.2450  139.1481  151.4094 H   0  0  0  0  0  0  0  0  0  0  0  0
  148.7495  139.5582  152.5076 H   0  0  0  0  0  0  0  0  0  0  0  0
  147.2431  140.9902  155.6130 H   0  0  0  0  0  0  0  0  0  0  0  0
  148.6559  141.9415  157.3882 H   0  0  0  0  0  0  0  0  0  0  0  0
  150.3781  141.4025  159.2203 H   0  0  0  0  0  0  0  0  0  0  0  0
  151.4084  140.1243  158.6115 H   0  0  0  0  0  0  0  0  0  0  0  0
  152.4133  141.2390  160.6149 H   0  0  0  0  0  0  0  0  0  0  0  0
  153.4528  141.3881  159.2116 H   0  0  0  0  0  0  0  0  0  0  0  0
  152.5688  144.8391  158.6572 H   0  0  0  0  0  0  0  0  0  0  0  0
  153.5395  143.5106  158.0523 H   0  0  0  0  0  0  0  0  0  0  0  0
  151.5609  143.8104  156.5941 H   0  0  0  0  0  0  0  0  0  0  0  0
  150.4728  143.7201  157.9731 H   0  0  0  0  0  0  0  0  0  0  0  0
  150.8652  139.7196  153.6105 H   0  0  0  0  0  0  0  0  0  0  0  0
  1  2  1  0  0  0  0
  1 23  1  0  0  0  0
  1 24  1  0  0  0  0
  1 25  1  0  0  0  0
  2  3  2  0  0  0  0
  2  4  2  0  0  0  0
  2  5  1  0  0  0  0
  5  6  1  0  0  0  0
  5 26  1  0  0  0  0
  6  7  1  0  0  0  0
  6 27  1  0  0  0  0
  6 28  1  0  0  0  0
  7  8  1  0  0  0  0
  7 29  1  0  0  0  0
  7 30  1  0  0  0  0
  8  9  2  0  0  0  0
  8 10  1  0  0  0  0
 10 11  1  0  0  0  0
 10 31  1  0  0  0  0
 11 22  1  0  0  0  0
 11 12  2  0  0  0  0
 12 13  1  0  0  0  0
 12 32  1  0  0  0  0
 13 14  2  0  0  0  0
 13 33  1  0  0  0  0
 14 15  1  0  0  0  0
 14 21  1  0  0  0  0
 15 20  1  0  0  0  0
 15 16  1  0  0  0  0
 16 17  1  0  0  0  0
 16 34  1  0  0  0  0
 16 35  1  0  0  0  0
 17 18  1  0  0  0  0
 17 36  1  0  0  0  0
 17 37  1  0  0  0  0
 18 19  1  0  0  0  0
 19 20  1  0  0  0  0
 19 38  1  0  0  0  0
 19 39  1  0  0  0  0
 20 40  1  0  0  0  0
 20 41  1  0  0  0  0
 21 22  2  0  0  0  0
 22 42  1  0  0  0  0
M  END
> <s_m_source_file>
AV-unprocessed.smi

> <i_m_source_file_index>
2141

> <i_lp_mmshare_version>
43012

> <i_f3d_flags>
0

> <s_epik_input>
W0NIM11TKD1PKSg9TylbTkhdW0NIMl1bQ0gyXUMoPU8pW05IXWMxW2NIXVtjSF1jKG5bY0hdMSlOMltDSDJdW0NIMl1PW0NIMl1bQ0gyXTI=

> <s_epik_cmdline>
J2VwaWtfcHl0aG9uJywgJy1waCcsICc3LjAnLCAnLXRuJywgJzgnLCAnLW1hJywgJzIwMCcsICctbWV0YWxfYmluZGluZycsICctaW1hZScsICc8aW5maWxlLm1hZT4nLCAnLW9tYWUnLCAnPG91dGZpbGUubWFlPic=

> <r_lp_tautomer_probability>
1

> <r_epik_Ionization_Penalty>
0.000610192

> <r_epik_Ionization_Penalty_Charging>
0

> <r_epik_Ionization_Penalty_Neutral>
0.000610192

> <r_epik_State_Penalty>
0.000370803

> <r_epik_Charging_Adjusted_Penalty>
0.000370803

> <i_epik_Tot_Q>
0

> <i_epik_Tot_abs_Q>
0

> <r_epik_Metal_State_Penalty>
0.0170256

> <b_epik_Metal_Only>
0

> <s_lp_Force_Field>
OPLS_2005

> <r_lp_Energy>
9.95274

> <b_lp_Chiralities_Consistent>
1

> <s_lp_Variant>
AV-unprocessed.smi:2141-1

> <Gold.Version>
5.8.1

> <Gold.Id.Protein>
6NUR|6NUR_protein|mol2

> <Gold.PLP.Fitness>
42.6628

> <Gold.PLP.PLP>
-35.9622

> <Gold.PLP.part.hbond>
-4.0000

> <Gold.PLP.part.metal>
0.0000

> <Gold.PLP.part.buried>
-0.8109

> <Gold.PLP.part.nonpolar>
-31.7643

> <Gold.PLP.part.repulsive>
0.5276

> <Gold.PLP.ligand.clash>
0.0000

> <Gold.PLP.ligand.torsion>
1.5406

> <Gold.PLP.Chemscore.Hbond>
2.0000

> <Gold.PLP.Chemscore.CHOScore>
0.8019

> <Gold.PLP.Chemscore.Metal>
0.0000

> <Gold.Chemscore.Hbonds>
donor molecule, donor type, donor heavy atom, donor atom, acceptor molecule, acceptor atom, score
      L1  H     5    26       P1 10175  0.90
      L1  H    10    31       P1  7957  1.00
      L1  C    22    42       P1  7957  0.30

> <Gold.PLP.Chemscore.Internal.Correction>
1.3762

> <Gold.Rescore>
     Score         DG    S(hbond)    S(metal)    S(lipo)     H(rot)  DE(clash)    DE(int)     intcor
     13.04     -16.91       1.98        0.00      84.66       1.99       1.49       2.38       ----

> <Gold.Chemscore.Fitness>
13.0413

> <Gold.Chemscore.DG>
-16.9115

> <Gold.Chemscore.ZeroCoef>
-5.4800

> <Gold.Chemscore.Hbond>
1.9842

> <Gold.Chemscore.Metal>
0.0000

> <Gold.Chemscore.Lipo>
84.6591

> <Gold.Chemscore.Internal_Hbond>
0.0000

> <Gold.Chemscore.DEClash>
1.4950

> <Gold.Chemscore.DEInternal>
2.3753

> <Gold.Chemscore.Rot>
1.9925

> <Gold.Chemscore.Internal.Correction>
   9.000000E+99

> <Gold.Chemscore.Hbonds>
donor molecule, donor type, donor heavy atom, donor atom, acceptor molecule, acceptor atom, score
      L1  H     5    26       P1 10175  0.88
      L1  H    10    31       P1  7957  0.99

> <Gold.Chemscore.Hbond.Weighted>
-6.6272

> <Gold.Chemscore.Metal.Weighted>
-0.0000

> <Gold.Chemscore.Lipo.Weighted>
-9.9051

> <Gold.Chemscore.Internal_Hbond.Weighted>
0.0000

> <Gold.Chemscore.DEClash.Weighted>
1.4950

> <Gold.Chemscore.DEInternal.Weighted>
2.3753

> <Gold.Chemscore.Rot.Weighted>
5.1008

> <Gold.Chemscore.Internal.Correction.Weighted>
   9.000000E+99

> <Gold.Protein.RotatedTorsions>
[ 6907 6896 6895 6894 ] final   56.11 input  -60.11 | X-H torsion
[ 7974 7965 7964 7962 ] final  114.45 input  175.53 | X-H torsion
[ 8008 7997 7996 7995 ] final  -57.88 input   59.86 | X-H torsion
[ 10167 10162 10161 10158 ] final   56.37 input  -65.29 | X-H torsion
[ 10718 10713 10712 10709 ] final -143.92 input   66.30 | X-H torsion
[ 10763 10752 10751 10750 ] final  -11.43 input  -60.55 | X-H torsion
[ 11005 11000 10999 10996 ] final  -95.18 input  -57.11 | X-H torsion

> <Gold.Protein.ActiveResidues>
 VAL166  LYS551  ARG553  GLY616  TRP617  ASP618  TYR619  PRO620  LYS621  CYS622 
 ASP623  PHE694  ASN695  SER759  ASP760  ASP761  ALA762  ILE779  LEU786  VAL792 
 PHE793  MET794  SER795  GLU796  ALA797  LYS798  CYS799  TRP800  GLU811  SER814 

> <Gold.Protein.RotatedAtoms>
  152.3605  134.6879  160.0208 H   0  0  0  0  0  0  0  0  0  0  0  0  # atno 6907 bound_to 6896
  151.7204  133.3309  159.3322 H   0  0  0  0  0  0  0  0  0  0  0  0  # atno 6908 bound_to 6896
  150.7601  134.6387  159.6270 H   0  0  0  0  0  0  0  0  0  0  0  0  # atno 6909 bound_to 6896
  145.2043  139.2937  143.4302 H   0  0  0  0  0  0  0  0  0  0  0  0  # atno 7974 bound_to 7965
  154.4286  140.1096  156.5868 H   0  0  0  0  0  0  0  0  0  0  0  0  # atno 8008 bound_to 7997
  155.6054  140.3493  155.4587 H   0  0  0  0  0  0  0  0  0  0  0  0  # atno 8009 bound_to 7997
  156.0141  140.1225  157.0413 H   0  0  0  0  0  0  0  0  0  0  0  0  # atno 8010 bound_to 7997
  140.2094  144.3905  150.6495 H   0  0  0  0  0  0  0  0  0  0  0  0  # atno 10167 bound_to 10162
  156.3638  130.7752  151.1923 H   0  0  0  0  0  0  0  0  0  0  0  0  # atno 10718 bound_to 10713
  153.4836  135.7017  153.5924 H   0  0  0  0  0  0  0  0  0  0  0  0  # atno 10763 bound_to 10752
  153.4126  135.3845  155.2060 H   0  0  0  0  0  0  0  0  0  0  0  0  # atno 10764 bound_to 10752
  154.8720  135.3908  154.4289 H   0  0  0  0  0  0  0  0  0  0  0  0  # atno 10765 bound_to 10752
  141.1449  133.8008  157.0400 H   0  0  0  0  0  0  0  0  0  0  0  0  # atno 11005 bound_to 11000
  146.3411  140.2298  142.8593 LP  0  0  0  0  0  0  0  0  0  0  0  0  # atno 17320 bound_to 7965
  144.9917  140.8553  143.5335 LP  0  0  0  0  0  0  0  0  0  0  0  0  # atno 17321 bound_to 7965
  140.6334  143.2191  151.6447 LP  0  0  0  0  0  0  0  0  0  0  0  0  # atno 17342 bound_to 10162
  139.5186  144.3280  152.0851 LP  0  0  0  0  0  0  0  0  0  0  0  0  # atno 17343 bound_to 10162
  157.7476  131.0392  150.4540 LP  0  0  0  0  0  0  0  0  0  0  0  0  # atno 17370 bound_to 10713
  156.4756  130.4062  149.6492 LP  0  0  0  0  0  0  0  0  0  0  0  0  # atno 17371 bound_to 10713
  140.0698  134.9708  157.1449 LP  0  0  0  0  0  0  0  0  0  0  0  0  # atno 17394 bound_to 11000
  140.3726  134.2373  155.7176 LP  0  0  0  0  0  0  0  0  0  0  0  0  # atno 17395 bound_to 11000

$$$$
