AV-unprocessed.smi:2154|AV-procd|sdf|8774|dock6
  -GOLD-   2272011553D 1   1.00000     0.00000
 Structure written by MMmdl.
 31 32  0  0  0  0  0  0  0  0  2 V2000
  151.7726  145.0559  160.3644 C   0  0  0  0  0  0  0  0  0  0  0  0
  152.2792  144.1498  159.2635 C   0  0  2  0  0  0  0  0  0  0  0  0
  152.7922  144.7227  157.9613 C   0  0  0  0  0  0  0  0  0  0  0  0
  151.4827  143.9711  157.9914 C   0  0  1  0  0  0  0  0  0  0  0  0
  151.3534  142.6105  157.3415 C   0  0  0  0  0  0  0  0  0  0  0  0
  150.2137  142.5101  156.4413 N   0  0  0  0  0  0  0  0  0  0  0  0
  150.0394  141.5921  155.4764 C   0  0  0  0  0  0  0  0  0  0  0  0
  150.8413  140.6831  155.2638 O   0  0  0  0  0  0  0  0  0  0  0  0
  148.7726  141.6898  154.6073 C   0  0  0  0  0  0  0  0  0  0  0  0
  147.8838  140.5144  154.6709 N   0  0  0  0  0  0  0  0  0  0  0  0
  147.5072  139.9184  153.4544 C   0  0  0  0  0  0  0  0  0  0  0  0
  146.7111  138.8333  153.4108 C   0  0  0  0  0  0  0  0  0  0  0  0
  146.2362  138.2745  154.6705 C   0  0  0  0  0  0  0  0  0  0  0  0
  145.5098  137.2829  154.6500 O   0  0  0  0  0  0  0  0  0  0  0  0
  146.6293  138.8882  155.8249 N   0  5  0  0  0  0  0  0  0  0  0  0
  147.4402  139.9909  155.8541 C   0  0  0  0  0  0  0  0  0  0  0  0
  147.7912  140.5230  156.9074 O   0  0  0  0  0  0  0  0  0  0  0  0
  151.2644  145.9257  159.9476 H   0  0  0  0  0  0  0  0  0  0  0  0
  152.6039  145.4000  160.9793 H   0  0  0  0  0  0  0  0  0  0  0  0
  151.0699  144.5146  160.9981 H   0  0  0  0  0  0  0  0  0  0  0  0
  152.7995  143.2676  159.6323 H   0  0  0  0  0  0  0  0  0  0  0  0
  152.7461  145.8015  157.8269 H   0  0  0  0  0  0  0  0  0  0  0  0
  153.6485  144.2331  157.5018 H   0  0  0  0  0  0  0  0  0  0  0  0
  150.5883  144.5842  157.8927 H   0  0  0  0  0  0  0  0  0  0  0  0
  152.2869  142.3993  156.8182 H   0  0  0  0  0  0  0  0  0  0  0  0
  151.2495  141.8478  158.1142 H   0  0  0  0  0  0  0  0  0  0  0  0
  149.5014  143.2202  156.5366 H   0  0  0  0  0  0  0  0  0  0  0  0
  148.2265  142.5903  154.8930 H   0  0  0  0  0  0  0  0  0  0  0  0
  149.0841  141.8661  153.5768 H   0  0  0  0  0  0  0  0  0  0  0  0
  147.9067  140.3899  152.5686 H   0  0  0  0  0  0  0  0  0  0  0  0
  146.4337  138.3860  152.4677 H   0  0  0  0  0  0  0  0  0  0  0  0
  1  2  1  0  0  0  0
  1 18  1  0  0  0  0
  1 19  1  0  0  0  0
  1 20  1  0  0  0  0
  2  4  1  0  0  0  0
  2  3  1  0  0  0  0
  2 21  1  0  0  0  0
  3  4  1  0  0  0  0
  3 22  1  0  0  0  0
  3 23  1  0  0  0  0
  4  5  1  0  0  0  0
  4 24  1  0  0  0  0
  5  6  1  0  0  0  0
  5 25  1  0  0  0  0
  5 26  1  0  0  0  0
  6  7  1  0  0  0  0
  6 27  1  0  0  0  0
  7  8  2  0  0  0  0
  7  9  1  0  0  0  0
  9 10  1  0  0  0  0
  9 28  1  0  0  0  0
  9 29  1  0  0  0  0
 10 16  1  0  0  0  0
 10 11  1  0  0  0  0
 11 12  2  0  0  0  0
 11 30  1  0  0  0  0
 12 13  1  0  0  0  0
 12 31  1  0  0  0  0
 13 14  2  0  0  0  0
 13 15  1  0  0  0  0
 15 16  1  0  0  0  0
 16 17  2  0  0  0  0
M  CHG  1  15  -1
M  END
> <s_m_source_file>
AV-unprocessed.smi

> <i_m_source_file_index>
2154

> <i_lp_mmshare_version>
43012

> <i_f3d_flags>
0

> <s_epik_input>
W0NIM11bQ0BASF0xW0NIMl1bQ0BIXTFbQ0gyXVtOSF1DKD1PKVtDSDJdbjJbY0hdW2NIXWMoPU8pW25IXWMyPU8=

> <s_epik_cmdline>
J2VwaWtfcHl0aG9uJywgJy1waCcsICc3LjAnLCAnLXRuJywgJzgnLCAnLW1hJywgJzIwMCcsICctbWV0YWxfYmluZGluZycsICctaW1hZScsICc8aW5maWxlLm1hZT4nLCAnLW9tYWUnLCAnPG91dGZpbGUubWFlPic=

> <r_lp_tautomer_probability>
0.999537

> <r_epik_Ionization_Penalty>
3.12283

> <r_epik_Ionization_Penalty_Charging>
2.83566e-08

> <r_epik_Ionization_Penalty_Neutral>
3.12283

> <r_epik_State_Penalty>
3.12192

> <r_epik_Charging_Adjusted_Penalty>
3.12192

> <i_epik_Tot_Q>
-1

> <i_epik_Tot_abs_Q>
1

> <r_epik_Metal_State_Penalty>
0.463748

> <b_epik_Metal_Only>
1

> <s_lp_Force_Field>
OPLS_2005

> <r_lp_Energy>
23.7869

> <b_lp_Chiralities_Consistent>
1

> <s_lp_Variant>
AV-unprocessed.smi:2154-5

> <Gold.Version>
5.8.1

> <Gold.Id.Protein>
6NUR|6NUR_protein|mol2

> <Gold.PLP.Fitness>
40.1769

> <Gold.PLP.PLP>
-32.7875

> <Gold.PLP.part.hbond>
-2.0000

> <Gold.PLP.part.metal>
0.0000

> <Gold.PLP.part.buried>
-2.9408

> <Gold.PLP.part.nonpolar>
-27.8647

> <Gold.PLP.part.repulsive>
0.2271

> <Gold.PLP.ligand.clash>
0.0000

> <Gold.PLP.ligand.torsion>
0.6413

> <Gold.PLP.Chemscore.Hbond>
1.7120

> <Gold.PLP.Chemscore.CHOScore>
1.0000

> <Gold.PLP.Chemscore.Metal>
0.0000

> <Gold.Chemscore.Hbonds>
donor molecule, donor type, donor heavy atom, donor atom, acceptor molecule, acceptor atom, score
      L1  H     6    27       P1  8028  0.80
      P1  H  7989  7998       L1     8  0.88
      L1  C    11    30       P1  7957  1.00

> <Gold.PLP.Chemscore.Internal.Correction>
0.5359

> <Gold.Rescore>
     Score         DG    S(hbond)    S(metal)    S(lipo)     H(rot)  DE(clash)    DE(int)     intcor
     13.49     -15.34       1.57        0.00      82.37       1.96       0.07       1.78       ----

> <Gold.Chemscore.Fitness>
13.4949

> <Gold.Chemscore.DG>
-15.3364

> <Gold.Chemscore.ZeroCoef>
-5.4800

> <Gold.Chemscore.Hbond>
1.5686

> <Gold.Chemscore.Metal>
0.0000

> <Gold.Chemscore.Lipo>
82.3692

> <Gold.Chemscore.Internal_Hbond>
0.0000

> <Gold.Chemscore.DEClash>
0.0655

> <Gold.Chemscore.DEInternal>
1.7760

> <Gold.Chemscore.Rot>
1.9609

> <Gold.Chemscore.Internal.Correction>
   9.000000E+99

> <Gold.Chemscore.Hbonds>
donor molecule, donor type, donor heavy atom, donor atom, acceptor molecule, acceptor atom, score
      L1  H     6    27       P1  8028  0.80
      P1  H  7989  7998       L1     8  0.64

> <Gold.Chemscore.Hbond.Weighted>
-5.2392

> <Gold.Chemscore.Metal.Weighted>
-0.0000

> <Gold.Chemscore.Lipo.Weighted>
-9.6372

> <Gold.Chemscore.Internal_Hbond.Weighted>
0.0000

> <Gold.Chemscore.DEClash.Weighted>
0.0655

> <Gold.Chemscore.DEInternal.Weighted>
1.7760

> <Gold.Chemscore.Rot.Weighted>
5.0200

> <Gold.Chemscore.Internal.Correction.Weighted>
   9.000000E+99

> <Gold.Protein.RotatedTorsions>
[ 6907 6896 6895 6894 ] final  -99.46 input  -60.11 | X-H torsion
[ 7974 7965 7964 7962 ] final   66.75 input  175.53 | X-H torsion
[ 8008 7997 7996 7995 ] final   47.82 input   59.86 | X-H torsion
[ 10167 10162 10161 10158 ] final   -5.32 input  -65.29 | X-H torsion
[ 10718 10713 10712 10709 ] final  -82.46 input   66.30 | X-H torsion
[ 10763 10752 10751 10750 ] final   -9.47 input  -60.55 | X-H torsion
[ 11005 11000 10999 10996 ] final -174.17 input  -57.11 | X-H torsion

> <Gold.Protein.ActiveResidues>
 VAL166  LYS551  ARG553  GLY616  TRP617  ASP618  TYR619  PRO620  LYS621  CYS622 
 ASP623  PHE694  ASN695  SER759  ASP760  ASP761  ALA762  ILE779  LEU786  VAL792 
 PHE793  MET794  SER795  GLU796  ALA797  LYS798  CYS799  TRP800  GLU811  SER814 

> <Gold.Protein.RotatedAtoms>
  150.7081  134.1037  159.3974 H   0  0  0  0  0  0  0  0  0  0  0  0  # atno 6907 bound_to 6896
  151.9023  135.0371  160.0517 H   0  0  0  0  0  0  0  0  0  0  0  0  # atno 6908 bound_to 6896
  152.2404  133.5095  159.5303 H   0  0  0  0  0  0  0  0  0  0  0  0  # atno 6909 bound_to 6896
  145.8229  139.3095  143.1032 H   0  0  0  0  0  0  0  0  0  0  0  0  # atno 7974 bound_to 7965
  155.3755  140.3426  155.4245 H   0  0  0  0  0  0  0  0  0  0  0  0  # atno 8008 bound_to 7997
  156.1639  140.1610  156.8598 H   0  0  0  0  0  0  0  0  0  0  0  0  # atno 8009 bound_to 7997
  154.5166  140.0777  156.8075 H   0  0  0  0  0  0  0  0  0  0  0  0  # atno 8010 bound_to 7997
  140.6959  143.6321  150.8513 H   0  0  0  0  0  0  0  0  0  0  0  0  # atno 10167 bound_to 10162
  156.0033  130.4635  150.4109 H   0  0  0  0  0  0  0  0  0  0  0  0  # atno 10718 bound_to 10713
  153.4553  135.7015  153.6083 H   0  0  0  0  0  0  0  0  0  0  0  0  # atno 10763 bound_to 10752
  153.4401  135.3782  155.2223 H   0  0  0  0  0  0  0  0  0  0  0  0  # atno 10764 bound_to 10752
  154.8728  135.3972  154.3971 H   0  0  0  0  0  0  0  0  0  0  0  0  # atno 10765 bound_to 10752
  140.4775  134.6107  157.4906 H   0  0  0  0  0  0  0  0  0  0  0  0  # atno 11005 bound_to 11000
  145.9655  140.8802  143.0189 LP  0  0  0  0  0  0  0  0  0  0  0  0  # atno 17320 bound_to 7965
  144.6746  140.1872  143.7400 LP  0  0  0  0  0  0  0  0  0  0  0  0  # atno 17321 bound_to 7965
  140.0039  143.5714  152.2865 LP  0  0  0  0  0  0  0  0  0  0  0  0  # atno 17342 bound_to 10162
  139.6414  144.7655  151.2332 LP  0  0  0  0  0  0  0  0  0  0  0  0  # atno 17343 bound_to 10162
  157.2171  131.0474  151.2567 LP  0  0  0  0  0  0  0  0  0  0  0  0  # atno 17370 bound_to 10713
  157.3835  130.7244  149.6646 LP  0  0  0  0  0  0  0  0  0  0  0  0  # atno 17371 bound_to 10713
  139.9847  134.7081  155.9796 LP  0  0  0  0  0  0  0  0  0  0  0  0  # atno 17394 bound_to 11000
  141.1547  133.6544  156.4124 LP  0  0  0  0  0  0  0  0  0  0  0  0  # atno 17395 bound_to 11000

$$$$
