AV-unprocessed.smi:821|AV-procd|sdf|3838|dock2
  -GOLD-   22720 1283D 1   1.00000     0.00000
 Structure written by MMmdl.
 44 45  0  0  0  0  0  0  0  0  1 V2000
  151.4752  145.6857  159.8677 C   0  0  0  0  0  0  0  0  0  0  0  0
  150.4319  144.5555  159.8962 C   0  0  2  0  0  0  0  0  0  0  0  0
  150.7221  143.4988  158.8077 C   0  0  0  0  0  0  0  0  0  0  0  0
  152.0118  142.8175  158.9223 N   0  0  0  0  0  0  0  0  0  0  0  0
  152.4904  142.7400  160.3008 C   0  0  0  0  0  0  0  0  0  0  0  0
  153.8305  141.9907  160.4039 C   0  0  0  0  0  0  0  0  0  0  0  0
  153.6987  140.6916  159.8366 O   0  0  0  0  0  0  0  0  0  0  0  0
  153.2831  140.7283  158.4755 C   0  0  0  0  0  0  0  0  0  0  0  0
  151.9393  141.4691  158.3687 C   0  0  0  0  0  0  0  0  0  0  0  0
  149.1022  145.1235  159.6867 N   0  0  0  0  0  0  0  0  0  0  0  0
  148.1955  145.3594  160.6470 C   0  0  0  0  0  0  0  0  0  0  0  0
  148.3837  145.0961  161.8351 O   0  0  0  0  0  0  0  0  0  0  0  0
  146.8652  145.9697  160.1864 C   0  0  0  0  0  0  0  0  0  0  0  0
  145.7113  145.1013  160.4753 N   0  0  0  0  0  0  0  0  0  0  0  0
  145.9526  143.9515  161.2483 C   0  0  0  0  0  0  0  0  0  0  0  0
  144.9706  143.0985  161.5692 C   0  0  0  0  0  0  0  0  0  0  0  0
  143.6371  143.3852  161.0993 C   0  0  0  0  0  0  0  0  0  0  0  0
  143.3735  144.4845  160.3556 C   0  0  0  0  0  0  0  0  0  0  0  0
  141.9675  144.8052  159.8532 C   0  0  0  0  0  0  0  0  0  0  0  0
  141.4784  145.8762  160.4797 F   0  0  0  0  0  0  0  0  0  0  0  0
  141.9850  145.0602  158.5443 F   0  0  0  0  0  0  0  0  0  0  0  0
  141.1246  143.7923  160.0599 F   0  0  0  0  0  0  0  0  0  0  0  0
  144.4635  145.4189  160.0085 C   0  0  0  0  0  0  0  0  0  0  0  0
  144.2730  146.4331  159.3347 O   0  0  0  0  0  0  0  0  0  0  0  0
  152.4797  145.2958  160.0342 H   0  0  0  0  0  0  0  0  0  0  0  0
  151.2821  146.4254  160.6454 H   0  0  0  0  0  0  0  0  0  0  0  0
  151.4735  146.2038  158.9081 H   0  0  0  0  0  0  0  0  0  0  0  0
  150.4825  144.0784  160.8772 H   0  0  0  0  0  0  0  0  0  0  0  0
  149.9109  142.7702  158.7583 H   0  0  0  0  0  0  0  0  0  0  0  0
  150.7064  144.0080  157.8430 H   0  0  0  0  0  0  0  0  0  0  0  0
  152.6210  143.7412  160.7108 H   0  0  0  0  0  0  0  0  0  0  0  0
  151.7474  142.2398  160.9238 H   0  0  0  0  0  0  0  0  0  0  0  0
  154.6207  142.5409  159.8907 H   0  0  0  0  0  0  0  0  0  0  0  0
  154.1326  141.8956  161.4469 H   0  0  0  0  0  0  0  0  0  0  0  0
  154.0452  141.2187  157.8680 H   0  0  0  0  0  0  0  0  0  0  0  0
  153.1843  139.7080  158.1044 H   0  0  0  0  0  0  0  0  0  0  0  0
  151.1714  140.8959  158.8906 H   0  0  0  0  0  0  0  0  0  0  0  0
  151.6368  141.5140  157.3219 H   0  0  0  0  0  0  0  0  0  0  0  0
  148.8577  145.3645  158.7372 H   0  0  0  0  0  0  0  0  0  0  0  0
  146.7224  146.9475  160.6511 H   0  0  0  0  0  0  0  0  0  0  0  0
  146.9394  146.1716  159.1172 H   0  0  0  0  0  0  0  0  0  0  0  0
  146.9760  143.8136  161.5662 H   0  0  0  0  0  0  0  0  0  0  0  0
  145.1709  142.2217  162.1669 H   0  0  0  0  0  0  0  0  0  0  0  0
  142.8443  142.6989  161.3566 H   0  0  0  0  0  0  0  0  0  0  0  0
  1  2  1  0  0  0  0
  1 25  1  0  0  0  0
  1 26  1  0  0  0  0
  1 27  1  0  0  0  0
  2  3  1  0  0  0  0
  2 10  1  0  0  0  0
  2 28  1  0  0  0  0
  3  4  1  0  0  0  0
  3 29  1  0  0  0  0
  3 30  1  0  0  0  0
  4  9  1  0  0  0  0
  4  5  1  0  0  0  0
  5  6  1  0  0  0  0
  5 31  1  0  0  0  0
  5 32  1  0  0  0  0
  6  7  1  0  0  0  0
  6 33  1  0  0  0  0
  6 34  1  0  0  0  0
  7  8  1  0  0  0  0
  8  9  1  0  0  0  0
  8 35  1  0  0  0  0
  8 36  1  0  0  0  0
  9 37  1  0  0  0  0
  9 38  1  0  0  0  0
 10 11  1  0  0  0  0
 10 39  1  0  0  0  0
 11 12  2  0  0  0  0
 11 13  1  0  0  0  0
 13 14  1  0  0  0  0
 13 40  1  0  0  0  0
 13 41  1  0  0  0  0
 14 23  1  0  0  0  0
 14 15  1  0  0  0  0
 15 16  2  0  0  0  0
 15 42  1  0  0  0  0
 16 17  1  0  0  0  0
 16 43  1  0  0  0  0
 17 18  2  0  0  0  0
 17 44  1  0  0  0  0
 18 19  1  0  0  0  0
 18 23  1  0  0  0  0
 19 20  1  0  0  0  0
 19 21  1  0  0  0  0
 19 22  1  0  0  0  0
 23 24  2  0  0  0  0
M  END
> <s_m_source_file>
AV-unprocessed.smi

> <i_m_source_file_index>
821

> <i_lp_mmshare_version>
43012

> <i_f3d_flags>
0

> <s_epik_input>
W0NIMl0xW0NIMl1PW0NIMl1bQ0gyXU4xW0NIMl1bQ0BASF0oW0NIM10pW05IXUMoPU8pW0NIMl1uMltjSF1bY0hdW2NIXWMoQyhGKShGKUYpYzI9Tw==

> <s_epik_cmdline>
J2VwaWtfcHl0aG9uJywgJy1waCcsICc3LjAnLCAnLXRuJywgJzgnLCAnLW1hJywgJzIwMCcsICctbWV0YWxfYmluZGluZycsICctaW1hZScsICc8aW5maWxlLm1hZT4nLCAnLW9tYWUnLCAnPG91dGZpbGUubWFlPic=

> <r_lp_tautomer_probability>
1

> <r_epik_Ionization_Penalty>
0.237382

> <r_epik_Ionization_Penalty_Charging>
1.90699e-09

> <r_epik_Ionization_Penalty_Neutral>
0.237382

> <r_epik_State_Penalty>
0.228245

> <r_epik_Charging_Adjusted_Penalty>
0.228245

> <i_epik_Tot_Q>
0

> <i_epik_Tot_abs_Q>
0

> <r_epik_Metal_State_Penalty>
0.228219

> <b_epik_Metal_Only>
0

> <s_lp_Force_Field>
OPLS_2005

> <r_lp_Energy>
36.3962

> <b_lp_Chiralities_Consistent>
1

> <s_lp_Variant>
AV-unprocessed.smi:821-1

> <Gold.Version>
5.8.1

> <Gold.Id.Protein>
6NUR|6NUR_protein|mol2

> <Gold.PLP.Fitness>
42.9982

> <Gold.PLP.PLP>
-42.6606

> <Gold.PLP.part.hbond>
-1.0000

> <Gold.PLP.part.metal>
0.0000

> <Gold.PLP.part.buried>
-7.0499

> <Gold.PLP.part.nonpolar>
-35.3579

> <Gold.PLP.part.repulsive>
2.0176

> <Gold.PLP.ligand.clash>
1.2701

> <Gold.PLP.ligand.torsion>
0.9280

> <Gold.PLP.Chemscore.Hbond>
1.0000

> <Gold.PLP.Chemscore.CHOScore>
0.0000

> <Gold.PLP.Chemscore.Metal>
0.0000

> <Gold.Chemscore.Hbonds>
donor molecule, donor type, donor heavy atom, donor atom, acceptor molecule, acceptor atom, score
      L1  H    10    39       P1  8029  1.00

> <Gold.PLP.Chemscore.Internal.Correction>
0.4637

> <Gold.Rescore>
     Score         DG    S(hbond)    S(metal)    S(lipo)     H(rot)  DE(clash)    DE(int)     intcor
     10.08     -15.09       0.99        0.00      99.70       2.09       0.89       4.11       ----

> <Gold.Chemscore.Fitness>
10.0813

> <Gold.Chemscore.DG>
-15.0871

> <Gold.Chemscore.ZeroCoef>
-5.4800

> <Gold.Chemscore.Hbond>
0.9875

> <Gold.Chemscore.Metal>
0.0000

> <Gold.Chemscore.Lipo>
99.7046

> <Gold.Chemscore.Internal_Hbond>
0.0000

> <Gold.Chemscore.DEClash>
0.8910

> <Gold.Chemscore.DEInternal>
4.1148

> <Gold.Chemscore.Rot>
2.0924

> <Gold.Chemscore.Internal.Correction>
   9.000000E+99

> <Gold.Chemscore.Hbonds>
donor molecule, donor type, donor heavy atom, donor atom, acceptor molecule, acceptor atom, score
      L1  H    10    39       P1  8029  1.00

> <Gold.Chemscore.Hbond.Weighted>
-3.2983

> <Gold.Chemscore.Metal.Weighted>
-0.0000

> <Gold.Chemscore.Lipo.Weighted>
-11.6654

> <Gold.Chemscore.Internal_Hbond.Weighted>
0.0000

> <Gold.Chemscore.DEClash.Weighted>
0.8910

> <Gold.Chemscore.DEInternal.Weighted>
4.1148

> <Gold.Chemscore.Rot.Weighted>
5.3566

> <Gold.Chemscore.Internal.Correction.Weighted>
   9.000000E+99

> <Gold.Protein.RotatedTorsions>
[ 6907 6896 6895 6894 ] final  -54.72 input  -60.11 | X-H torsion
[ 7974 7965 7964 7962 ] final  -71.20 input  175.53 | X-H torsion
[ 8008 7997 7996 7995 ] final   77.63 input   59.86 | X-H torsion
[ 10167 10162 10161 10158 ] final   83.82 input  -65.29 | X-H torsion
[ 10718 10713 10712 10709 ] final  -48.61 input   66.30 | X-H torsion
[ 10763 10752 10751 10750 ] final  132.50 input  -60.55 | X-H torsion
[ 11005 11000 10999 10996 ] final  100.92 input  -57.11 | X-H torsion

> <Gold.Protein.ActiveResidues>
 VAL166  LYS551  ARG553  GLY616  TRP617  ASP618  TYR619  PRO620  LYS621  CYS622 
 ASP623  PHE694  ASN695  SER759  ASP760  ASP761  ALA762  ILE779  LEU786  VAL792 
 PHE793  MET794  SER795  GLU796  ALA797  LYS798  CYS799  TRP800  GLU811  SER814 

> <Gold.Protein.RotatedAtoms>
  150.8314  134.7568  159.6856 H   0  0  0  0  0  0  0  0  0  0  0  0  # atno 6907 bound_to 6896
  152.4418  134.5573  159.9894 H   0  0  0  0  0  0  0  0  0  0  0  0  # atno 6908 bound_to 6896
  151.5733  133.3349  159.3030 H   0  0  0  0  0  0  0  0  0  0  0  0  # atno 6909 bound_to 6896
  145.6812  140.9187  143.0831 H   0  0  0  0  0  0  0  0  0  0  0  0  # atno 7974 bound_to 7965
  155.8443  140.3461  155.5652 H   0  0  0  0  0  0  0  0  0  0  0  0  # atno 8008 bound_to 7997
  155.8107  140.0898  157.1925 H   0  0  0  0  0  0  0  0  0  0  0  0  # atno 8009 bound_to 7997
  154.4006  140.1448  156.3371 H   0  0  0  0  0  0  0  0  0  0  0  0  # atno 8010 bound_to 7997
  139.9144  144.6252  150.8504 H   0  0  0  0  0  0  0  0  0  0  0  0  # atno 10167 bound_to 10162
  156.1971  130.4155  149.9291 H   0  0  0  0  0  0  0  0  0  0  0  0  # atno 10718 bound_to 10713
  153.7917  135.3154  155.3379 H   0  0  0  0  0  0  0  0  0  0  0  0  # atno 10763 bound_to 10752
  154.8123  135.4659  154.0553 H   0  0  0  0  0  0  0  0  0  0  0  0  # atno 10764 bound_to 10752
  153.1873  135.6903  153.8485 H   0  0  0  0  0  0  0  0  0  0  0  0  # atno 10765 bound_to 10752
  139.8772  134.9161  156.4828 H   0  0  0  0  0  0  0  0  0  0  0  0  # atno 11005 bound_to 11000
  144.7025  139.8699  143.7440 LP  0  0  0  0  0  0  0  0  0  0  0  0  # atno 17320 bound_to 7965
  146.0963  139.3955  143.0375 LP  0  0  0  0  0  0  0  0  0  0  0  0  # atno 17321 bound_to 7965
  140.7677  143.3342  151.2345 LP  0  0  0  0  0  0  0  0  0  0  0  0  # atno 17342 bound_to 10162
  139.6915  143.9684  152.2861 LP  0  0  0  0  0  0  0  0  0  0  0  0  # atno 17343 bound_to 10162
  156.7012  130.8934  151.3599 LP  0  0  0  0  0  0  0  0  0  0  0  0  # atno 17370 bound_to 10713
  157.6964  130.9286  150.0657 LP  0  0  0  0  0  0  0  0  0  0  0  0  # atno 17371 bound_to 10713
  140.8715  133.7985  155.9369 LP  0  0  0  0  0  0  0  0  0  0  0  0  # atno 17394 bound_to 11000
  140.8948  134.2451  157.5074 LP  0  0  0  0  0  0  0  0  0  0  0  0  # atno 17395 bound_to 11000

$$$$
