AV-unprocessed.smi:235|AV-procd|sdf|1801|dock8
  -GOLD-   2262020373D 1   1.00000     0.00000
 Structure written by MMmdl.
 54 58  0  0  0  0  0  0  0  0  1 V2000
  146.1557  137.6569  160.6318 O   0  0  0  0  0  0  0  0  0  0  0  0
  146.6450  136.6797  160.0639 C   0  0  0  0  0  0  0  0  0  0  0  0
  146.8308  135.4940  160.6615 N   0  0  0  0  0  0  0  0  0  0  0  0
  146.4876  135.1805  162.0103 C   0  0  0  0  0  0  0  0  0  0  0  0
  147.6139  134.8230  162.9559 C   0  0  0  0  0  0  0  0  0  0  0  0
  146.6793  133.7506  162.4679 C   0  0  0  0  0  0  0  0  0  0  0  0
  147.0989  136.7709  158.5999 C   0  0  2  0  0  0  0  0  0  0  0  0
  146.2245  135.9194  157.6712 C   0  0  0  0  0  0  0  0  0  0  0  0
  147.1389  135.6712  156.4779 C   0  0  0  0  0  0  0  0  0  0  0  0
  148.5189  135.5338  157.1215 C   0  0  0  0  0  0  0  0  0  0  0  0
  148.4485  136.2387  158.3983 N   0  0  0  0  0  0  0  0  0  0  0  0
  149.4630  137.0958  158.6477 C   0  0  0  0  0  0  0  0  0  0  0  0
  150.2886  136.7965  159.6800 N   0  0  0  0  0  0  0  0  0  0  0  0
  151.3078  137.6089  159.9761 C   0  0  0  0  0  0  0  0  0  0  0  0
  151.6704  138.7470  159.3792 N   0  0  0  0  0  0  0  0  0  0  0  0
  150.8399  139.0474  158.3398 C   0  0  0  0  0  0  0  0  0  0  0  0
  149.7214  138.2828  157.9064 C   0  0  0  0  0  0  0  0  0  0  0  0
  149.1175  138.8986  156.8162 N   0  0  0  0  0  0  0  0  0  0  0  0
  149.8370  139.9698  156.6188 C   0  0  0  0  0  0  0  0  0  0  0  0
  150.8928  140.1345  157.4871 N   0  0  0  0  0  0  0  0  0  0  0  0
  151.8540  141.2219  157.4942 C   0  0  0  0  0  0  0  0  0  0  0  0
  151.1801  142.6087  157.5018 C   0  0  2  0  0  0  0  0  0  0  0  0
  150.8074  142.9487  156.1814 O   0  0  0  0  0  0  0  0  0  0  0  0
  152.0356  143.7328  158.1289 C   0  0  2  0  0  0  0  0  0  0  0  0
  152.4991  143.5021  159.5779 C   0  0  0  0  0  0  0  0  0  0  0  0
  151.9392  144.6973  160.3287 C   0  0  0  0  0  0  0  0  0  0  0  0
  151.7721  145.7367  159.2281 C   0  0  0  0  0  0  0  0  0  0  0  0
  151.3196  144.9646  158.1289 O   0  0  0  0  0  0  0  0  0  0  0  0
  147.2465  134.7530  160.1160 H   0  0  0  0  0  0  0  0  0  0  0  0
  145.6461  135.7145  162.4499 H   0  0  0  0  0  0  0  0  0  0  0  0
  148.6287  134.8210  162.5623 H   0  0  0  0  0  0  0  0  0  0  0  0
  147.5178  135.1392  163.9926 H   0  0  0  0  0  0  0  0  0  0  0  0
  145.9579  133.3512  163.1779 H   0  0  0  0  0  0  0  0  0  0  0  0
  147.0692  133.0333  161.7479 H   0  0  0  0  0  0  0  0  0  0  0  0
  147.0534  137.8114  158.2729 H   0  0  0  0  0  0  0  0  0  0  0  0
  145.9637  134.9678  158.1386 H   0  0  0  0  0  0  0  0  0  0  0  0
  145.2985  136.4212  157.3887 H   0  0  0  0  0  0  0  0  0  0  0  0
  146.8528  134.7969  155.8926 H   0  0  0  0  0  0  0  0  0  0  0  0
  147.1243  136.5399  155.8182 H   0  0  0  0  0  0  0  0  0  0  0  0
  148.7328  134.4854  157.3314 H   0  0  0  0  0  0  0  0  0  0  0  0
  149.3054  135.8993  156.4589 H   0  0  0  0  0  0  0  0  0  0  0  0
  151.9205  137.3033  160.8114 H   0  0  0  0  0  0  0  0  0  0  0  0
  149.6211  140.6698  155.8246 H   0  0  0  0  0  0  0  0  0  0  0  0
  152.4971  141.1063  158.3678 H   0  0  0  0  0  0  0  0  0  0  0  0
  152.4969  141.1175  156.6193 H   0  0  0  0  0  0  0  0  0  0  0  0
  150.2538  142.5369  158.0731 H   0  0  0  0  0  0  0  0  0  0  0  0
  150.0505  143.5131  156.2220 H   0  0  0  0  0  0  0  0  0  0  0  0
  152.9260  143.8849  157.5167 H   0  0  0  0  0  0  0  0  0  0  0  0
  152.1590  142.5584  160.0048 H   0  0  0  0  0  0  0  0  0  0  0  0
  153.5889  143.5051  159.6220 H   0  0  0  0  0  0  0  0  0  0  0  0
  150.9646  144.4472  160.7496 H   0  0  0  0  0  0  0  0  0  0  0  0
  152.5844  145.0346  161.1403 H   0  0  0  0  0  0  0  0  0  0  0  0
  151.0609  146.5202  159.4901 H   0  0  0  0  0  0  0  0  0  0  0  0
  152.7274  146.2022  158.9810 H   0  0  0  0  0  0  0  0  0  0  0  0
  1  2  2  0  0  0  0
  2  3  1  0  0  0  0
  2  7  1  0  0  0  0
  3  4  1  0  0  0  0
  3 29  1  0  0  0  0
  4  6  1  0  0  0  0
  4  5  1  0  0  0  0
  4 30  1  0  0  0  0
  5  6  1  0  0  0  0
  5 31  1  0  0  0  0
  5 32  1  0  0  0  0
  6 33  1  0  0  0  0
  6 34  1  0  0  0  0
  7 11  1  0  0  0  0
  7  8  1  0  0  0  0
  7 35  1  0  0  0  0
  8  9  1  0  0  0  0
  8 36  1  0  0  0  0
  8 37  1  0  0  0  0
  9 10  1  0  0  0  0
  9 38  1  0  0  0  0
  9 39  1  0  0  0  0
 10 11  1  0  0  0  0
 10 40  1  0  0  0  0
 10 41  1  0  0  0  0
 11 12  1  0  0  0  0
 12 17  1  0  0  0  0
 12 13  2  0  0  0  0
 13 14  1  0  0  0  0
 14 15  2  0  0  0  0
 14 42  1  0  0  0  0
 15 16  1  0  0  0  0
 16 20  1  0  0  0  0
 16 17  2  0  0  0  0
 17 18  1  0  0  0  0
 18 19  2  0  0  0  0
 19 20  1  0  0  0  0
 19 43  1  0  0  0  0
 20 21  1  0  0  0  0
 21 22  1  0  0  0  0
 21 44  1  0  0  0  0
 21 45  1  0  0  0  0
 22 23  1  0  0  0  0
 22 24  1  0  0  0  0
 22 46  1  0  0  0  0
 23 47  1  0  0  0  0
 24 28  1  0  0  0  0
 24 25  1  0  0  0  0
 24 48  1  0  0  0  0
 25 26  1  0  0  0  0
 25 49  1  0  0  0  0
 25 50  1  0  0  0  0
 26 27  1  0  0  0  0
 26 51  1  0  0  0  0
 26 52  1  0  0  0  0
 27 28  1  0  0  0  0
 27 53  1  0  0  0  0
 27 54  1  0  0  0  0
M  END
> <s_m_source_file>
AV-unprocessed.smi

> <i_m_source_file_index>
235

> <i_lp_mmshare_version>
43012

> <i_f3d_flags>
0

> <s_epik_input>
W0NIMl0xW0NIMl1bQ0hdMVtOSF1DKD1PKVtDQEBIXTJbQ0gyXVtDSDJdW0NIMl1OMmMobltjSF1uMyljKGMzNCluW2NIXW40W0NIMl1bQ0BIXShbT0hdKVtDQEBIXTVbQ0gyXVtDSDJdW0NIMl1PNQ==

> <s_epik_cmdline>
J2VwaWtfcHl0aG9uJywgJy1waCcsICc3LjAnLCAnLXRuJywgJzgnLCAnLW1hJywgJzIwMCcsICctbWV0YWxfYmluZGluZycsICctaW1hZScsICc8aW5maWxlLm1hZT4nLCAnLW9tYWUnLCAnPG91dGZpbGUubWFlPic=

> <r_lp_tautomer_probability>
1

> <r_epik_Ionization_Penalty>
0.000526714

> <r_epik_Ionization_Penalty_Charging>
0

> <r_epik_Ionization_Penalty_Neutral>
0.000526714

> <r_epik_State_Penalty>
0.000272704

> <r_epik_Charging_Adjusted_Penalty>
0.000272704

> <i_epik_Tot_Q>
0

> <i_epik_Tot_abs_Q>
0

> <r_epik_Metal_State_Penalty>
-0

> <b_epik_Metal_Only>
0

> <s_lp_Force_Field>
OPLS_2005

> <r_lp_Energy>
63.4887

> <b_lp_Chiralities_Consistent>
1

> <s_lp_Variant>
AV-unprocessed.smi:235-1

> <Gold.Version>
5.8.1

> <Gold.Id.Protein>
6NUR|6NUR_protein|mol2

> <Gold.PLP.Fitness>
49.9222

> <Gold.PLP.PLP>
-42.2114

> <Gold.PLP.part.hbond>
-3.0000

> <Gold.PLP.part.metal>
0.0000

> <Gold.PLP.part.buried>
-6.3829

> <Gold.PLP.part.nonpolar>
-33.6944

> <Gold.PLP.part.repulsive>
0.1551

> <Gold.PLP.ligand.clash>
0.0000

> <Gold.PLP.ligand.torsion>
0.5882

> <Gold.PLP.Chemscore.Hbond>
2.8796

> <Gold.PLP.Chemscore.CHOScore>
0.0000

> <Gold.PLP.Chemscore.Metal>
0.0000

> <Gold.Chemscore.Hbonds>
donor molecule, donor type, donor heavy atom, donor atom, acceptor molecule, acceptor atom, score
      L1  H    23    47       P1  8028  1.00
      P1  H  6896  6909       L1    13  0.72
      P1  H  6934  6947       L1     1  1.00

> <Gold.PLP.Chemscore.Internal.Correction>
0.2484

> <Gold.Rescore>
     Score         DG    S(hbond)    S(metal)    S(lipo)     H(rot)  DE(clash)    DE(int)     intcor
     16.55     -17.65       2.53        0.00      97.31       3.00       0.38       0.72       ----

> <Gold.Chemscore.Fitness>
16.5467

> <Gold.Chemscore.DG>
-17.6477

> <Gold.Chemscore.ZeroCoef>
-5.4800

> <Gold.Chemscore.Hbond>
2.5329

> <Gold.Chemscore.Metal>
0.0000

> <Gold.Chemscore.Lipo>
97.3073

> <Gold.Chemscore.Internal_Hbond>
0.0000

> <Gold.Chemscore.DEClash>
0.3794

> <Gold.Chemscore.DEInternal>
0.7216

> <Gold.Chemscore.Rot>
2.9989

> <Gold.Chemscore.Internal.Correction>
   9.000000E+99

> <Gold.Chemscore.Hbonds>
donor molecule, donor type, donor heavy atom, donor atom, acceptor molecule, acceptor atom, score
      L1  H    23    47       P1  8028  0.99
      P1  H  6896  6909       L1    13  0.47
      P1  H  6934  6947       L1     1  0.97

> <Gold.Chemscore.Hbond.Weighted>
-8.4599

> <Gold.Chemscore.Metal.Weighted>
-0.0000

> <Gold.Chemscore.Lipo.Weighted>
-11.3850

> <Gold.Chemscore.Internal_Hbond.Weighted>
0.0000

> <Gold.Chemscore.DEClash.Weighted>
0.3794

> <Gold.Chemscore.DEInternal.Weighted>
0.7216

> <Gold.Chemscore.Rot.Weighted>
7.6772

> <Gold.Chemscore.Internal.Correction.Weighted>
   9.000000E+99

> <Gold.Protein.RotatedTorsions>
[ 6907 6896 6895 6894 ] final   61.84 input  -60.11 | X-H torsion
[ 7974 7965 7964 7962 ] final   42.32 input  175.53 | X-H torsion
[ 8008 7997 7996 7995 ] final   69.31 input   59.86 | X-H torsion
[ 10167 10162 10161 10158 ] final  165.53 input  -65.29 | X-H torsion
[ 10718 10713 10712 10709 ] final -168.87 input   66.30 | X-H torsion
[ 10763 10752 10751 10750 ] final -162.35 input  -60.55 | X-H torsion
[ 11005 11000 10999 10996 ] final  116.98 input  -57.11 | X-H torsion

> <Gold.Protein.ActiveResidues>
 VAL166  LYS551  ARG553  GLY616  TRP617  ASP618  TYR619  PRO620  LYS621  CYS622 
 ASP623  PHE694  ASN695  SER759  ASP760  ASP761  ALA762  ILE779  LEU786  VAL792 
 PHE793  MET794  SER795  GLU796  ALA797  LYS798  CYS799  TRP800  GLU811  SER814 

> <Gold.Protein.RotatedAtoms>
  152.4122  134.6104  160.0023 H   0  0  0  0  0  0  0  0  0  0  0  0  # atno 6907 bound_to 6896
  151.6278  133.3328  159.3110 H   0  0  0  0  0  0  0  0  0  0  0  0  # atno 6908 bound_to 6896
  150.8012  134.7148  159.6669 H   0  0  0  0  0  0  0  0  0  0  0  0  # atno 6909 bound_to 6896
  146.0750  139.5313  142.9573 H   0  0  0  0  0  0  0  0  0  0  0  0  # atno 7974 bound_to 7965
  155.7216  140.3493  155.5018 H   0  0  0  0  0  0  0  0  0  0  0  0  # atno 8008 bound_to 7997
  155.9264  140.1076  157.1188 H   0  0  0  0  0  0  0  0  0  0  0  0  # atno 8009 bound_to 7997
  154.4078  140.1239  156.4733 H   0  0  0  0  0  0  0  0  0  0  0  0  # atno 8010 bound_to 7997
  139.4907  144.4122  151.9286 H   0  0  0  0  0  0  0  0  0  0  0  0  # atno 10167 bound_to 10162
  156.7032  130.9204  151.3082 H   0  0  0  0  0  0  0  0  0  0  0  0  # atno 10718 bound_to 10713
  154.7222  135.3028  154.9028 H   0  0  0  0  0  0  0  0  0  0  0  0  # atno 10763 bound_to 10752
  153.9896  135.6720  153.4757 H   0  0  0  0  0  0  0  0  0  0  0  0  # atno 10764 bound_to 10752
  153.0844  135.4992  154.8485 H   0  0  0  0  0  0  0  0  0  0  0  0  # atno 10765 bound_to 10752
  139.9059  134.9605  156.7281 H   0  0  0  0  0  0  0  0  0  0  0  0  # atno 11005 bound_to 11000
  145.6323  141.0301  143.1856 LP  0  0  0  0  0  0  0  0  0  0  0  0  # atno 17320 bound_to 7965
  144.7255  139.7888  143.7366 LP  0  0  0  0  0  0  0  0  0  0  0  0  # atno 17321 bound_to 7965
  140.3564  144.3027  150.5940 LP  0  0  0  0  0  0  0  0  0  0  0  0  # atno 17342 bound_to 10162
  140.5441  143.2218  151.8036 LP  0  0  0  0  0  0  0  0  0  0  0  0  # atno 17343 bound_to 10162
  157.6965  130.9287  150.0659 LP  0  0  0  0  0  0  0  0  0  0  0  0  # atno 17370 bound_to 10713
  156.1714  130.3646  149.9160 LP  0  0  0  0  0  0  0  0  0  0  0  0  # atno 17371 bound_to 10713
  140.6947  133.9359  155.7987 LP  0  0  0  0  0  0  0  0  0  0  0  0  # atno 17394 bound_to 11000
  141.0416  134.0614  157.3895 LP  0  0  0  0  0  0  0  0  0  0  0  0  # atno 17395 bound_to 11000

$$$$
