AV-unprocessed.smi:3117|AV-procd|sdf|11880|dock2
  -GOLD-   2272017263D 1   1.00000     0.00000
 Structure written by MMmdl.
 37 37  0  0  0  0  0  0  0  0  2 V2000
  145.7809  136.1451  150.3332 C   0  0  0  0  0  0  0  0  0  0  0  0
  145.6508  135.7187  151.8068 C   0  0  2  0  0  0  0  0  0  0  0  0
  146.4250  136.6608  152.6451 N   0  3  0  0  0  0  0  0  0  0  0  0
  146.2758  138.0875  152.2851 C   0  0  0  0  0  0  0  0  0  0  0  0
  147.1108  139.0101  153.1982 C   0  0  0  0  0  0  0  0  0  0  0  0
  146.9969  140.4703  152.7294 C   0  0  0  0  0  0  0  0  0  0  0  0
  146.6985  138.8904  154.6772 C   0  0  0  0  0  0  0  0  0  0  0  0
  148.4723  138.6455  153.0774 O   0  0  0  0  0  0  0  0  0  0  0  0
  146.1176  134.2624  152.0676 C   0  0  1  0  0  0  0  0  0  0  0  0
  146.0683  133.8744  153.5570 C   0  0  0  0  0  0  0  0  0  0  0  0
  145.3574  133.3001  151.2796 N   0  0  0  0  0  0  0  0  0  0  0  0
  145.7413  132.0501  150.8348 C   0  0  0  0  0  0  0  0  0  0  0  0
  144.6872  131.5190  150.1488 C   0  0  0  0  0  0  0  0  0  0  0  0
  143.6875  132.5278  150.2315 C   0  0  0  0  0  0  0  0  0  0  0  0
  144.0906  133.5901  150.9095 N   0  0  0  0  0  0  0  0  0  0  0  0
  145.1462  135.5469  149.6790 H   0  0  0  0  0  0  0  0  0  0  0  0
  146.8083  136.0459  149.9809 H   0  0  0  0  0  0  0  0  0  0  0  0
  145.4832  137.1856  150.2000 H   0  0  0  0  0  0  0  0  0  0  0  0
  144.5933  135.7932  152.0671 H   0  0  0  0  0  0  0  0  0  0  0  0
  146.1410  136.5393  153.6066 H   0  0  0  0  0  0  0  0  0  0  0  0
  146.5730  138.2160  151.2431 H   0  0  0  0  0  0  0  0  0  0  0  0
  145.2227  138.3646  152.3495 H   0  0  0  0  0  0  0  0  0  0  0  0
  145.9673  140.8251  152.7915 H   0  0  0  0  0  0  0  0  0  0  0  0
  147.3210  140.5836  151.6938 H   0  0  0  0  0  0  0  0  0  0  0  0
  147.6099  141.1350  153.3394 H   0  0  0  0  0  0  0  0  0  0  0  0
  145.6484  139.1509  154.8139 H   0  0  0  0  0  0  0  0  0  0  0  0
  147.2864  139.5582  155.3083 H   0  0  0  0  0  0  0  0  0  0  0  0
  146.8385  137.8785  155.0586 H   0  0  0  0  0  0  0  0  0  0  0  0
  148.5304  137.8660  152.5451 H   0  0  0  0  0  0  0  0  0  0  0  0
  147.1598  134.1864  151.7500 H   0  0  0  0  0  0  0  0  0  0  0  0
  146.7370  134.4938  154.1546 H   0  0  0  0  0  0  0  0  0  0  0  0
  146.3775  132.8385  153.7006 H   0  0  0  0  0  0  0  0  0  0  0  0
  145.0631  133.9805  153.9662 H   0  0  0  0  0  0  0  0  0  0  0  0
  146.7215  131.6466  151.0413 H   0  0  0  0  0  0  0  0  0  0  0  0
  144.6374  130.5557  149.6629 H   0  0  0  0  0  0  0  0  0  0  0  0
  142.6876  132.5197  149.8231 H   0  0  0  0  0  0  0  0  0  0  0  0
  147.4046  136.4253  152.5725 H   0  0  0  0  0  0  0  0  0  0  0  0
  1  2  1  0  0  0  0
  1 16  1  0  0  0  0
  1 17  1  0  0  0  0
  1 18  1  0  0  0  0
  2  3  1  0  0  0  0
  2  9  1  0  0  0  0
  2 19  1  0  0  0  0
  3  4  1  0  0  0  0
  3 20  1  0  0  0  0
  3 37  1  0  0  0  0
  4  5  1  0  0  0  0
  4 21  1  0  0  0  0
  4 22  1  0  0  0  0
  5  6  1  0  0  0  0
  5  7  1  0  0  0  0
  5  8  1  0  0  0  0
  6 23  1  0  0  0  0
  6 24  1  0  0  0  0
  6 25  1  0  0  0  0
  7 26  1  0  0  0  0
  7 27  1  0  0  0  0
  7 28  1  0  0  0  0
  8 29  1  0  0  0  0
  9 10  1  0  0  0  0
  9 11  1  0  0  0  0
  9 30  1  0  0  0  0
 10 31  1  0  0  0  0
 10 32  1  0  0  0  0
 10 33  1  0  0  0  0
 11 15  1  0  0  0  0
 11 12  1  0  0  0  0
 12 13  2  0  0  0  0
 12 34  1  0  0  0  0
 13 14  1  0  0  0  0
 13 35  1  0  0  0  0
 14 15  2  0  0  0  0
 14 36  1  0  0  0  0
M  CHG  1   3   1
M  END
> <s_m_source_file>
AV-unprocessed.smi

> <i_m_source_file_index>
3117

> <i_lp_mmshare_version>
43012

> <i_f3d_flags>
0

> <s_epik_input>
W0NIM11DKFtDSDNdKShbT0hdKVtDSDJdW05IXVtDQEBIXShbQ0gzXSlbQ0BIXShbQ0gzXSluMVtjSF1bY0hdW2NIXW4x

> <s_epik_cmdline>
J2VwaWtfcHl0aG9uJywgJy1waCcsICc3LjAnLCAnLXRuJywgJzgnLCAnLW1hJywgJzIwMCcsICctbWV0YWxfYmluZGluZycsICctaW1hZScsICc8aW5maWxlLm1hZT4nLCAnLW9tYWUnLCAnPG91dGZpbGUubWFlPic=

> <r_lp_tautomer_probability>
1

> <r_epik_Ionization_Penalty>
0.0164263

> <r_epik_Ionization_Penalty_Charging>
0.0164138

> <r_epik_Ionization_Penalty_Neutral>
1.24697e-05

> <r_epik_State_Penalty>
0.0129543

> <r_epik_Charging_Adjusted_Penalty>
0.0293681

> <i_epik_Tot_Q>
1

> <i_epik_Tot_abs_Q>
1

> <r_epik_Metal_State_Penalty>
0.0129806

> <b_epik_Metal_Only>
0

> <s_lp_Force_Field>
OPLS_2005

> <r_lp_Energy>
14.6887

> <b_lp_Chiralities_Consistent>
1

> <s_lp_Variant>
AV-unprocessed.smi:3117-3

> <Gold.Version>
5.8.1

> <Gold.Id.Protein>
6NUR|6NUR_protein|mol2

> <Gold.PLP.Fitness>
41.1544

> <Gold.PLP.PLP>
-26.8805

> <Gold.PLP.part.hbond>
-2.7544

> <Gold.PLP.part.metal>
0.0000

> <Gold.PLP.part.buried>
-0.8493

> <Gold.PLP.part.nonpolar>
-23.9844

> <Gold.PLP.part.repulsive>
0.1858

> <Gold.PLP.ligand.clash>
0.0000

> <Gold.PLP.ligand.torsion>
0.7895

> <Gold.PLP.Chemscore.Hbond>
3.0000

> <Gold.PLP.Chemscore.CHOScore>
2.2538

> <Gold.PLP.Chemscore.Metal>
0.0000

> <Gold.Chemscore.Hbonds>
donor molecule, donor type, donor heavy atom, donor atom, acceptor molecule, acceptor atom, score
      L1  H     3    37       P1  7948  2.00
      L1  H     8    29       P1  7948  1.00
      L1  C    12    34       P1 10747  1.00
      L1  C    14    36       P1 10186  0.96
      L1  C    14    36       P1 10952  0.16

> <Gold.PLP.Chemscore.Internal.Correction>
0.0914

> <Gold.Rescore>
     Score         DG    S(hbond)    S(metal)    S(lipo)     H(rot)  DE(clash)    DE(int)     intcor
     14.12     -15.31       1.99        0.00      76.97       2.27       0.48       0.71       ----

> <Gold.Chemscore.Fitness>
14.1192

> <Gold.Chemscore.DG>
-15.3107

> <Gold.Chemscore.ZeroCoef>
-5.4800

> <Gold.Chemscore.Hbond>
1.9889

> <Gold.Chemscore.Metal>
0.0000

> <Gold.Chemscore.Lipo>
76.9674

> <Gold.Chemscore.Internal_Hbond>
0.0000

> <Gold.Chemscore.DEClash>
0.4772

> <Gold.Chemscore.DEInternal>
0.7142

> <Gold.Chemscore.Rot>
2.2725

> <Gold.Chemscore.Internal.Correction>
   9.000000E+99

> <Gold.Chemscore.Hbonds>
donor molecule, donor type, donor heavy atom, donor atom, acceptor molecule, acceptor atom, score
      L1  H     3    37       P1  7948  0.99
      L1  H     8    29       P1  7948  1.00

> <Gold.Chemscore.Hbond.Weighted>
-6.6431

> <Gold.Chemscore.Metal.Weighted>
-0.0000

> <Gold.Chemscore.Lipo.Weighted>
-9.0052

> <Gold.Chemscore.Internal_Hbond.Weighted>
0.0000

> <Gold.Chemscore.DEClash.Weighted>
0.4772

> <Gold.Chemscore.DEInternal.Weighted>
0.7142

> <Gold.Chemscore.Rot.Weighted>
5.8176

> <Gold.Chemscore.Internal.Correction.Weighted>
   9.000000E+99

> <Gold.Protein.RotatedTorsions>
[ 6907 6896 6895 6894 ] final   43.62 input  -60.11 | X-H torsion
[ 7974 7965 7964 7962 ] final   46.70 input  175.53 | X-H torsion
[ 8008 7997 7996 7995 ] final   62.74 input   59.86 | X-H torsion
[ 10167 10162 10161 10158 ] final  -83.63 input  -65.29 | X-H torsion
[ 10718 10713 10712 10709 ] final   23.21 input   66.30 | X-H torsion
[ 10763 10752 10751 10750 ] final  116.16 input  -60.55 | X-H torsion
[ 11005 11000 10999 10996 ] final -176.00 input  -57.11 | X-H torsion

> <Gold.Protein.ActiveResidues>
 VAL166  LYS551  ARG553  GLY616  TRP617  ASP618  TYR619  PRO620  LYS621  CYS622 
 ASP623  PHE694  ASN695  SER759  ASP760  ASP761  ALA762  ILE779  LEU786  VAL792 
 PHE793  MET794  SER795  GLU796  ALA797  LYS798  CYS799  TRP800  GLU811  SER814 

> <Gold.Protein.RotatedAtoms>
  152.2225  134.8399  160.0483 H   0  0  0  0  0  0  0  0  0  0  0  0  # atno 6907 bound_to 6896
  151.9177  133.3572  159.3894 H   0  0  0  0  0  0  0  0  0  0  0  0  # atno 6908 bound_to 6896
  150.7004  134.4592  159.5417 H   0  0  0  0  0  0  0  0  0  0  0  0  # atno 6909 bound_to 6896
  146.0365  139.4827  142.9805 H   0  0  0  0  0  0  0  0  0  0  0  0  # atno 7974 bound_to 7965
  155.6191  140.3495  155.4646 H   0  0  0  0  0  0  0  0  0  0  0  0  # atno 8008 bound_to 7997
  156.0093  140.1230  157.0494 H   0  0  0  0  0  0  0  0  0  0  0  0  # atno 8009 bound_to 7997
  154.4275  140.1085  156.5793 H   0  0  0  0  0  0  0  0  0  0  0  0  # atno 8010 bound_to 7997
  140.4208  143.2585  151.8892 H   0  0  0  0  0  0  0  0  0  0  0  0  # atno 10167 bound_to 10162
  157.1629  130.6725  149.6050 H   0  0  0  0  0  0  0  0  0  0  0  0  # atno 10718 bound_to 10713
  153.5331  135.3574  155.2684 H   0  0  0  0  0  0  0  0  0  0  0  0  # atno 10763 bound_to 10752
  154.8725  135.4073  154.3129 H   0  0  0  0  0  0  0  0  0  0  0  0  # atno 10764 bound_to 10752
  153.3821  135.7068  153.6625 H   0  0  0  0  0  0  0  0  0  0  0  0  # atno 10765 bound_to 10752
  140.4570  134.6290  157.4826 H   0  0  0  0  0  0  0  0  0  0  0  0  # atno 11005 bound_to 11000
  145.6954  141.0152  143.1532 LP  0  0  0  0  0  0  0  0  0  0  0  0  # atno 17320 bound_to 7965
  144.7054  139.8582  143.7431 LP  0  0  0  0  0  0  0  0  0  0  0  0  # atno 17321 bound_to 7965
  139.4782  144.5439  151.8487 LP  0  0  0  0  0  0  0  0  0  0  0  0  # atno 17342 bound_to 10162
  140.4535  144.1821  150.5899 LP  0  0  0  0  0  0  0  0  0  0  0  0  # atno 17343 bound_to 10162
  155.9751  130.4705  150.6433 LP  0  0  0  0  0  0  0  0  0  0  0  0  # atno 17370 bound_to 10713
  157.4116  131.0824  151.1216 LP  0  0  0  0  0  0  0  0  0  0  0  0  # atno 17371 bound_to 10713
  139.9969  134.6896  155.9594 LP  0  0  0  0  0  0  0  0  0  0  0  0  # atno 17394 bound_to 11000
  141.1638  133.6537  156.4410 LP  0  0  0  0  0  0  0  0  0  0  0  0  # atno 17395 bound_to 11000

$$$$
