AV-unprocessed.smi:160|AV-procd|sdf|1356|dock4
  -GOLD-   2262019 63D 1   1.00000     0.00000
 Structure written by MMmdl.
 29 30  0  0  0  0  0  0  0  0  1 V2000
  146.2677  143.9994  158.3817 N   0  0  0  0  0  0  0  0  0  0  0  0
  146.7238  142.7679  158.6333 C   0  0  0  0  0  0  0  0  0  0  0  0
  146.0639  141.9360  159.2542 O   0  0  0  0  0  0  0  0  0  0  0  0
  148.0991  142.4496  158.1140 C   0  0  0  0  0  0  0  0  0  0  0  0
  149.2055  142.6218  158.8964 N   0  0  0  0  0  0  0  0  0  0  0  0
  150.1343  142.2289  158.0341 C   0  0  0  0  0  0  0  0  0  0  0  0
  149.6506  141.8395  156.8483 N   0  0  0  0  0  0  0  0  0  0  0  0
  150.3386  141.3600  155.6082 C   0  0  1  0  0  0  0  0  0  0  0  0
  151.3623  140.4912  155.9910 O   0  0  0  0  0  0  0  0  0  0  0  0
  150.8854  139.1508  155.9462 C   0  0  2  0  0  0  0  0  0  0  0  0
  152.0467  138.1411  155.9633 C   0  0  0  0  0  0  0  0  0  0  0  0
  151.6668  136.9555  155.2975 O   0  0  0  0  0  0  0  0  0  0  0  0
  150.0371  139.1687  154.6686 C   0  0  2  0  0  0  0  0  0  0  0  0
  150.8619  139.0257  153.5228 O   0  0  0  0  0  0  0  0  0  0  0  0
  149.3619  140.5394  154.7417 C   0  0  2  0  0  0  0  0  0  0  0  0
  149.1307  141.1072  153.4658 O   0  0  0  0  0  0  0  0  0  0  0  0
  148.3035  141.9913  156.8773 N   0  0  0  0  0  0  0  0  0  0  0  0
  150.7316  142.2621  155.1377 H   0  0  0  0  0  0  0  0  0  0  0  0
  150.2231  138.9736  156.7961 H   0  0  0  0  0  0  0  0  0  0  0  0
  149.3036  138.3618  154.6601 H   0  0  0  0  0  0  0  0  0  0  0  0
  148.4066  140.4400  155.2598 H   0  0  0  0  0  0  0  0  0  0  0  0
  145.3521  144.2733  158.7066 H   0  0  0  0  0  0  0  0  0  0  0  0
  146.8458  144.6490  157.8684 H   0  0  0  0  0  0  0  0  0  0  0  0
  151.1876  142.2249  158.2747 H   0  0  0  0  0  0  0  0  0  0  0  0
  152.9080  138.5507  155.4348 H   0  0  0  0  0  0  0  0  0  0  0  0
  152.3652  137.9161  156.9817 H   0  0  0  0  0  0  0  0  0  0  0  0
  150.8445  137.1089  154.8578 H   0  0  0  0  0  0  0  0  0  0  0  0
  150.3156  139.0929  152.7541 H   0  0  0  0  0  0  0  0  0  0  0  0
  148.9921  140.4060  152.8474 H   0  0  0  0  0  0  0  0  0  0  0  0
  1  2  1  0  0  0  0
  1 22  1  0  0  0  0
  1 23  1  0  0  0  0
  2  3  2  0  0  0  0
  2  4  1  0  0  0  0
  4 17  2  0  0  0  0
  4  5  1  0  0  0  0
  5  6  2  0  0  0  0
  6  7  1  0  0  0  0
  6 24  1  0  0  0  0
  7  8  1  0  0  0  0
  7 17  1  0  0  0  0
  8 18  1  0  0  0  0
  8 15  1  0  0  0  0
  8  9  1  0  0  0  0
  9 10  1  0  0  0  0
 10 19  1  0  0  0  0
 10 11  1  0  0  0  0
 10 13  1  0  0  0  0
 11 12  1  0  0  0  0
 11 25  1  0  0  0  0
 11 26  1  0  0  0  0
 12 27  1  0  0  0  0
 13 20  1  0  0  0  0
 13 14  1  0  0  0  0
 13 15  1  0  0  0  0
 14 28  1  0  0  0  0
 15 21  1  0  0  0  0
 15 16  1  0  0  0  0
 16 29  1  0  0  0  0
M  END
> <s_m_source_file>
AV-unprocessed.smi

> <i_m_source_file_index>
160

> <i_lp_mmshare_version>
43012

> <i_f3d_flags>
0

> <s_epik_input>
W05IMl1DKD1PKWMxbltjSF1uKG4xKVtDQEBIXTJPW0NASF0oW0NIMl1bT0hdKVtDQEBIXShbT0hdKVtDQEhdMltPSF0=

> <s_epik_cmdline>
J2VwaWtfcHl0aG9uJywgJy1waCcsICc3LjAnLCAnLXRuJywgJzgnLCAnLW1hJywgJzIwMCcsICctbWV0YWxfYmluZGluZycsICctaW1hZScsICc8aW5maWxlLm1hZT4nLCAnLW9tYWUnLCAnPG91dGZpbGUubWFlPic=

> <r_lp_tautomer_probability>
1

> <r_epik_Ionization_Penalty>
1.06932e-05

> <r_epik_Ionization_Penalty_Charging>
0

> <r_epik_Ionization_Penalty_Neutral>
1.06932e-05

> <r_epik_State_Penalty>
-0

> <r_epik_Charging_Adjusted_Penalty>
0

> <i_epik_Tot_Q>
0

> <i_epik_Tot_abs_Q>
0

> <r_epik_Metal_State_Penalty>
0.0142097

> <b_epik_Metal_Only>
0

> <s_epik_Chemistry_Notes>
This compound contains an acetal/aminal-like group ( X-CH(R)-Y where X, Y are N, S, or O) that may be acid/base labile, releasing an aldehyde.

> <s_lp_Force_Field>
OPLS_2005

> <r_lp_Energy>
42.1222

> <b_lp_Chiralities_Consistent>
1

> <s_lp_Variant>
AV-unprocessed.smi:160-14

> <Gold.Version>
5.8.1

> <Gold.Id.Protein>
6NUR|6NUR_protein|mol2

> <Gold.PLP.Fitness>
37.9392

> <Gold.PLP.PLP>
-23.3323

> <Gold.PLP.part.hbond>
-9.0000

> <Gold.PLP.part.metal>
0.0000

> <Gold.PLP.part.buried>
0.0288

> <Gold.PLP.part.nonpolar>
-14.2074

> <Gold.PLP.part.repulsive>
0.8705

> <Gold.PLP.ligand.clash>
0.0000

> <Gold.PLP.ligand.torsion>
2.3887

> <Gold.PLP.Chemscore.Hbond>
6.4512

> <Gold.PLP.Chemscore.CHOScore>
0.0000

> <Gold.PLP.Chemscore.Metal>
0.0000

> <Gold.Chemscore.Hbonds>
donor molecule, donor type, donor heavy atom, donor atom, acceptor molecule, acceptor atom, score
      L1  H     1    23       P1  8029  1.00
      L1  H    14    28       P1  7957  1.00
      L1  H    16    29       P1  7957  0.69
      P1  H  6934  6946       L1     3  1.00
      P1  H  7989  7998       L1    14  0.76
      P1  H  8011  8017       L1    16  1.00
      P1  H 10752 10765       L1    12  1.00

> <Gold.PLP.Chemscore.Internal.Correction>
0.0307

> <Gold.Rescore>
     Score         DG    S(hbond)    S(metal)    S(lipo)     H(rot)  DE(clash)    DE(int)     intcor
      9.78     -13.62       4.67        0.00      25.00       4.06       1.38       2.46       ----

> <Gold.Chemscore.Fitness>
9.7788

> <Gold.Chemscore.DG>
-13.6181

> <Gold.Chemscore.ZeroCoef>
-5.4800

> <Gold.Chemscore.Hbond>
4.6728

> <Gold.Chemscore.Metal>
0.0000

> <Gold.Chemscore.Lipo>
24.9959

> <Gold.Chemscore.Internal_Hbond>
0.0000

> <Gold.Chemscore.DEClash>
1.3808

> <Gold.Chemscore.DEInternal>
2.4585

> <Gold.Chemscore.Rot>
4.0600

> <Gold.Chemscore.Internal.Correction>
   9.000000E+99

> <Gold.Chemscore.Hbonds>
donor molecule, donor type, donor heavy atom, donor atom, acceptor molecule, acceptor atom, score
      L1  H     1    23       P1  8029  0.40
      L1  H    14    28       P1  7957  0.53
      L1  H    16    29       P1  7957  0.68
      P1  H  6934  6946       L1     3  0.92
      P1  H  7989  7998       L1    14  0.04
      P1  H  8011  8017       L1    16  0.25
      P1  H 10752 10765       L1    12  0.95

> <Gold.Chemscore.Hbond.Weighted>
-15.6072

> <Gold.Chemscore.Metal.Weighted>
-0.0000

> <Gold.Chemscore.Lipo.Weighted>
-2.9245

> <Gold.Chemscore.Internal_Hbond.Weighted>
0.0000

> <Gold.Chemscore.DEClash.Weighted>
1.3808

> <Gold.Chemscore.DEInternal.Weighted>
2.4585

> <Gold.Chemscore.Rot.Weighted>
10.3936

> <Gold.Chemscore.Internal.Correction.Weighted>
   9.000000E+99

> <Gold.Protein.RotatedTorsions>
[ 6907 6896 6895 6894 ] final   -6.08 input  -60.11 | X-H torsion
[ 7974 7965 7964 7962 ] final   70.46 input  175.53 | X-H torsion
[ 8008 7997 7996 7995 ] final   19.27 input   59.86 | X-H torsion
[ 10167 10162 10161 10158 ] final   13.46 input  -65.29 | X-H torsion
[ 10718 10713 10712 10709 ] final  130.98 input   66.30 | X-H torsion
[ 10763 10752 10751 10750 ] final -173.53 input  -60.55 | X-H torsion
[ 11005 11000 10999 10996 ] final  -23.32 input  -57.11 | X-H torsion

> <Gold.Protein.ActiveResidues>
 VAL166  LYS551  ARG553  GLY616  TRP617  ASP618  TYR619  PRO620  LYS621  CYS622 
 ASP623  PHE694  ASN695  SER759  ASP760  ASP761  ALA762  ILE779  LEU786  VAL792 
 PHE793  MET794  SER795  GLU796  ALA797  LYS798  CYS799  TRP800  GLU811  SER814 

> <Gold.Protein.RotatedAtoms>
  151.4713  135.1046  159.9752 H   0  0  0  0  0  0  0  0  0  0  0  0  # atno 6907 bound_to 6896
  152.4815  133.8262  159.7090 H   0  0  0  0  0  0  0  0  0  0  0  0  # atno 6908 bound_to 6896
  150.8891  133.7207  159.2936 H   0  0  0  0  0  0  0  0  0  0  0  0  # atno 6909 bound_to 6896
  145.7778  139.2873  143.1283 H   0  0  0  0  0  0  0  0  0  0  0  0  # atno 7974 bound_to 7965
  154.9183  140.3024  155.5229 H   0  0  0  0  0  0  0  0  0  0  0  0  # atno 8008 bound_to 7997
  156.3011  140.2376  156.4166 H   0  0  0  0  0  0  0  0  0  0  0  0  # atno 8009 bound_to 7997
  154.8356  140.0416  157.1495 H   0  0  0  0  0  0  0  0  0  0  0  0  # atno 8010 bound_to 7997
  140.6001  143.8622  150.6957 H   0  0  0  0  0  0  0  0  0  0  0  0  # atno 10167 bound_to 10162
  157.5011  131.1094  150.9426 H   0  0  0  0  0  0  0  0  0  0  0  0  # atno 10718 bound_to 10713
  154.6068  135.2860  155.0475 H   0  0  0  0  0  0  0  0  0  0  0  0  # atno 10763 bound_to 10752
  154.1720  135.6471  153.5015 H   0  0  0  0  0  0  0  0  0  0  0  0  # atno 10764 bound_to 10752
  153.0179  135.5403  154.6807 H   0  0  0  0  0  0  0  0  0  0  0  0  # atno 10765 bound_to 10752
  140.8741  133.7700  156.0222 H   0  0  0  0  0  0  0  0  0  0  0  0  # atno 11005 bound_to 11000
  146.0104  140.8440  142.9973 LP  0  0  0  0  0  0  0  0  0  0  0  0  # atno 17320 bound_to 7965
  144.6801  140.2482  143.7335 LP  0  0  0  0  0  0  0  0  0  0  0  0  # atno 17321 bound_to 7965
  140.2166  143.3842  152.1676 LP  0  0  0  0  0  0  0  0  0  0  0  0  # atno 17342 bound_to 10162
  139.5285  144.7131  151.5141 LP  0  0  0  0  0  0  0  0  0  0  0  0  # atno 17343 bound_to 10162
  157.0097  130.5632  149.5319 LP  0  0  0  0  0  0  0  0  0  0  0  0  # atno 17370 bound_to 10713
  156.0229  130.5324  150.8327 LP  0  0  0  0  0  0  0  0  0  0  0  0  # atno 17371 bound_to 10713
  140.8539  134.2921  157.5264 LP  0  0  0  0  0  0  0  0  0  0  0  0  # atno 17394 bound_to 11000
  139.8714  134.9482  156.3990 LP  0  0  0  0  0  0  0  0  0  0  0  0  # atno 17395 bound_to 11000

$$$$
