AV-unprocessed.smi:284|AV-procd|sdf|2162|dock3
  -GOLD-   2262021513D 1   1.00000     0.00000
 Structure written by MMmdl.
 60 62  0  0  0  0  0  0  0  0  1 V2000
  155.5987  133.7005  160.0653 C   0  0  0  0  0  0  0  0  0  0  0  0
  155.2900  134.4316  161.3629 C   0  0  0  0  0  0  0  0  0  0  0  0
  154.8514  133.7838  162.4668 C   0  0  0  0  0  0  0  0  0  0  0  0
  154.5647  134.4128  163.6683 N   0  0  0  0  0  0  0  0  0  0  0  0
  154.1597  133.6558  164.9270 C   0  0  1  0  0  0  0  0  0  0  0  0
  152.9904  132.6762  164.7478 C   0  0  0  0  0  0  0  0  0  0  0  0
  153.6791  131.3132  164.6754 C   0  0  1  0  0  0  0  0  0  0  0  0
  153.3049  130.6180  163.5030 O   0  0  0  0  0  0  0  0  0  0  0  0
  155.1848  131.6333  164.6911 C   0  0  2  0  0  0  0  0  0  0  0  0
  156.0500  130.6177  165.4520 C   0  0  0  0  0  0  0  0  0  0  0  0
  155.6824  130.5813  166.8147 O   0  0  0  0  0  0  0  0  0  0  0  0
  155.2450  132.8935  165.3464 O   0  0  0  0  0  0  0  0  0  0  0  0
  154.8227  135.7951  163.7931 C   0  0  0  0  0  0  0  0  0  0  0  0
  154.6691  136.3715  164.8729 O   0  0  0  0  0  0  0  0  0  0  0  0
  155.2638  136.5056  162.6541 N   0  0  0  0  0  0  0  0  0  0  0  0
  155.5262  137.9558  162.7900 C   0  0  0  0  0  0  0  0  0  0  0  0
  154.6612  138.8158  161.8550 C   0  0  0  0  0  0  0  0  0  0  0  0
  154.1602  138.3208  160.8449 O   0  0  0  0  0  0  0  0  0  0  0  0
  154.4776  140.0880  162.2530 N   0  0  0  0  0  0  0  0  0  0  0  0
  153.7707  141.1353  161.6017 C   0  0  0  0  0  0  0  0  0  0  0  0
  153.2627  142.2755  162.2663 C   0  0  0  0  0  0  0  0  0  0  0  0
  152.5513  143.2595  161.5527 C   0  0  0  0  0  0  0  0  0  0  0  0
  152.3205  143.1271  160.1613 C   0  0  0  0  0  0  0  0  0  0  0  0
  151.5419  144.1802  159.3497 C   0  0  0  0  0  0  0  0  0  0  0  0
  150.2292  143.5656  158.8198 C   0  0  0  0  0  0  0  0  0  0  0  0
  152.3327  144.7097  158.1319 C   0  0  0  0  0  0  0  0  0  0  0  0
  151.2111  145.3849  160.2547 C   0  0  0  0  0  0  0  0  0  0  0  0
  152.8194  141.9742  159.5110 C   0  0  0  0  0  0  0  0  0  0  0  0
  153.5314  140.9900  160.2218 C   0  0  0  0  0  0  0  0  0  0  0  0
  155.5072  135.8783  161.4088 C   0  0  0  0  0  0  0  0  0  0  0  0
  155.8956  136.5329  160.4393 O   0  0  0  0  0  0  0  0  0  0  0  0
  155.3829  132.6340  160.1366 H   0  0  0  0  0  0  0  0  0  0  0  0
  156.6531  133.8105  159.8092 H   0  0  0  0  0  0  0  0  0  0  0  0
  155.0025  134.1053  159.2467 H   0  0  0  0  0  0  0  0  0  0  0  0
  154.7435  132.7147  162.3881 H   0  0  0  0  0  0  0  0  0  0  0  0
  153.9108  134.4242  165.6605 H   0  0  0  0  0  0  0  0  0  0  0  0
  152.3688  132.7213  165.6426 H   0  0  0  0  0  0  0  0  0  0  0  0
  152.3527  132.9338  163.9024 H   0  0  0  0  0  0  0  0  0  0  0  0
  153.4021  130.7210  165.5485 H   0  0  0  0  0  0  0  0  0  0  0  0
  152.4108  130.3266  163.5975 H   0  0  0  0  0  0  0  0  0  0  0  0
  155.5679  131.7637  163.6774 H   0  0  0  0  0  0  0  0  0  0  0  0
  155.9104  129.6204  165.0346 H   0  0  0  0  0  0  0  0  0  0  0  0
  157.1098  130.8584  165.3617 H   0  0  0  0  0  0  0  0  0  0  0  0
  155.9426  131.3952  167.2184 H   0  0  0  0  0  0  0  0  0  0  0  0
  155.3664  138.3014  163.8123 H   0  0  0  0  0  0  0  0  0  0  0  0
  156.5807  138.1683  162.6040 H   0  0  0  0  0  0  0  0  0  0  0  0
  154.8638  140.3257  163.1552 H   0  0  0  0  0  0  0  0  0  0  0  0
  153.3905  142.4133  163.3286 H   0  0  0  0  0  0  0  0  0  0  0  0
  152.1863  144.1088  162.1085 H   0  0  0  0  0  0  0  0  0  0  0  0
  149.6705  144.2834  158.2182 H   0  0  0  0  0  0  0  0  0  0  0  0
  149.5686  143.2453  159.6253 H   0  0  0  0  0  0  0  0  0  0  0  0
  150.4268  142.6960  158.1916 H   0  0  0  0  0  0  0  0  0  0  0  0
  152.5865  143.9084  157.4369 H   0  0  0  0  0  0  0  0  0  0  0  0
  153.2575  145.2032  158.4335 H   0  0  0  0  0  0  0  0  0  0  0  0
  151.7512  145.4437  157.5725 H   0  0  0  0  0  0  0  0  0  0  0  0
  150.6694  146.1563  159.7062 H   0  0  0  0  0  0  0  0  0  0  0  0
  152.1192  145.8411  160.6505 H   0  0  0  0  0  0  0  0  0  0  0  0
  150.5899  145.1007  161.1044 H   0  0  0  0  0  0  0  0  0  0  0  0
  152.6567  141.8303  158.4536 H   0  0  0  0  0  0  0  0  0  0  0  0
  153.8977  140.1194  159.6975 H   0  0  0  0  0  0  0  0  0  0  0  0
  1  2  1  0  0  0  0
  1 32  1  0  0  0  0
  1 33  1  0  0  0  0
  1 34  1  0  0  0  0
  2 30  1  0  0  0  0
  2  3  2  0  0  0  0
  3  4  1  0  0  0  0
  3 35  1  0  0  0  0
  4  5  1  0  0  0  0
  4 13  1  0  0  0  0
  5 12  1  0  0  0  0
  5  6  1  0  0  0  0
  5 36  1  0  0  0  0
  6  7  1  0  0  0  0
  6 37  1  0  0  0  0
  6 38  1  0  0  0  0
  7  8  1  0  0  0  0
  7  9  1  0  0  0  0
  7 39  1  0  0  0  0
  8 40  1  0  0  0  0
  9 10  1  0  0  0  0
  9 12  1  0  0  0  0
  9 41  1  0  0  0  0
 10 11  1  0  0  0  0
 10 42  1  0  0  0  0
 10 43  1  0  0  0  0
 11 44  1  0  0  0  0
 13 14  2  0  0  0  0
 13 15  1  0  0  0  0
 15 16  1  0  0  0  0
 15 30  1  0  0  0  0
 16 17  1  0  0  0  0
 16 45  1  0  0  0  0
 16 46  1  0  0  0  0
 17 18  2  0  0  0  0
 17 19  1  0  0  0  0
 19 20  1  0  0  0  0
 19 47  1  0  0  0  0
 20 29  1  0  0  0  0
 20 21  2  0  0  0  0
 21 22  1  0  0  0  0
 21 48  1  0  0  0  0
 22 23  2  0  0  0  0
 22 49  1  0  0  0  0
 23 24  1  0  0  0  0
 23 28  1  0  0  0  0
 24 25  1  0  0  0  0
 24 26  1  0  0  0  0
 24 27  1  0  0  0  0
 25 50  1  0  0  0  0
 25 51  1  0  0  0  0
 25 52  1  0  0  0  0
 26 53  1  0  0  0  0
 26 54  1  0  0  0  0
 26 55  1  0  0  0  0
 27 56  1  0  0  0  0
 27 57  1  0  0  0  0
 27 58  1  0  0  0  0
 28 29  2  0  0  0  0
 28 59  1  0  0  0  0
 29 60  1  0  0  0  0
 30 31  2  0  0  0  0
M  END
> <s_m_source_file>
AV-unprocessed.smi

> <i_m_source_file_index>
284

> <i_lp_mmshare_version>
43012

> <i_f3d_flags>
0

> <s_epik_input>
W09IXVtDSDJdW0NAQEhdKE8xKVtDQEhdKFtPSF0pW0NIMl1bQ0BIXTFuKFtjSF1jMltDSDNdKWMoPU8pbihjMj1PKVtDSDJdQyg9TylbTkhdYzNbY0hdW2NIXWMoQyhbQ0gzXSkoW0NIM10pW0NIM10pW2NIXVtjSF0z

> <s_epik_cmdline>
J2VwaWtfcHl0aG9uJywgJy1waCcsICc3LjAnLCAnLXRuJywgJzgnLCAnLW1hJywgJzIwMCcsICctbWV0YWxfYmluZGluZycsICctaW1hZScsICc8aW5maWxlLm1hZT4nLCAnLW9tYWUnLCAnPG91dGZpbGUubWFlPic=

> <r_lp_tautomer_probability>
1

> <r_epik_Ionization_Penalty>
4.92358e-06

> <r_epik_Ionization_Penalty_Charging>
1.29777e-07

> <r_epik_Ionization_Penalty_Neutral>
4.79381e-06

> <r_epik_State_Penalty>
-0

> <r_epik_Charging_Adjusted_Penalty>
1.29777e-07

> <i_epik_Tot_Q>
0

> <i_epik_Tot_abs_Q>
0

> <r_epik_Metal_State_Penalty>
-0

> <b_epik_Metal_Only>
0

> <s_epik_Chemistry_Notes>
This compound contains an acetal/aminal-like group ( X-CH(R)-Y where X, Y are N, S, or O) that may be acid/base labile, releasing an aldehyde.

> <s_lp_Force_Field>
OPLS_2005

> <r_lp_Energy>
37.3947

> <b_lp_Chiralities_Consistent>
1

> <s_lp_Variant>
AV-unprocessed.smi:284-6

> <Gold.Version>
5.8.1

> <Gold.Id.Protein>
6NUR|6NUR_protein|mol2

> <Gold.PLP.Fitness>
55.2417

> <Gold.PLP.PLP>
-56.5633

> <Gold.PLP.part.hbond>
0.0000

> <Gold.PLP.part.metal>
0.0000

> <Gold.PLP.part.buried>
-8.2845

> <Gold.PLP.part.nonpolar>
-49.0911

> <Gold.PLP.part.repulsive>
1.4024

> <Gold.PLP.ligand.clash>
0.0000

> <Gold.PLP.ligand.torsion>
0.7443

> <Gold.PLP.Chemscore.Hbond>
0.0000

> <Gold.PLP.Chemscore.CHOScore>
0.0000

> <Gold.PLP.Chemscore.Metal>
0.0000

> <Gold.PLP.Chemscore.Internal.Correction>
0.1669

> <Gold.Rescore>
     Score         DG    S(hbond)    S(metal)    S(lipo)     H(rot)  DE(clash)    DE(int)     intcor
      8.00     -14.31       0.00        0.00     147.10       3.27       0.08       6.22       ----

> <Gold.Chemscore.Fitness>
8.0041

> <Gold.Chemscore.DG>
-14.3104

> <Gold.Chemscore.ZeroCoef>
-5.4800

> <Gold.Chemscore.Hbond>
0.0000

> <Gold.Chemscore.Metal>
0.0000

> <Gold.Chemscore.Lipo>
147.0983

> <Gold.Chemscore.Internal_Hbond>
0.0000

> <Gold.Chemscore.DEClash>
0.0817

> <Gold.Chemscore.DEInternal>
6.2247

> <Gold.Chemscore.Rot>
3.2735

> <Gold.Chemscore.Internal.Correction>
   9.000000E+99

> <Gold.Chemscore.Hbond.Weighted>
-0.0000

> <Gold.Chemscore.Metal.Weighted>
-0.0000

> <Gold.Chemscore.Lipo.Weighted>
-17.2105

> <Gold.Chemscore.Internal_Hbond.Weighted>
0.0000

> <Gold.Chemscore.DEClash.Weighted>
0.0817

> <Gold.Chemscore.DEInternal.Weighted>
6.2247

> <Gold.Chemscore.Rot.Weighted>
8.3801

> <Gold.Chemscore.Internal.Correction.Weighted>
   9.000000E+99

> <Gold.Protein.RotatedTorsions>
[ 6907 6896 6895 6894 ] final   96.88 input  -60.11 | X-H torsion
[ 7974 7965 7964 7962 ] final  -36.63 input  175.53 | X-H torsion
[ 8008 7997 7996 7995 ] final -179.48 input   59.86 | X-H torsion
[ 10167 10162 10161 10158 ] final -121.27 input  -65.29 | X-H torsion
[ 10718 10713 10712 10709 ] final    0.99 input   66.30 | X-H torsion
[ 10763 10752 10751 10750 ] final  -54.68 input  -60.55 | X-H torsion
[ 11005 11000 10999 10996 ] final   31.32 input  -57.11 | X-H torsion

> <Gold.Protein.ActiveResidues>
 VAL166  LYS551  ARG553  GLY616  TRP617  ASP618  TYR619  PRO620  LYS621  CYS622 
 ASP623  PHE694  ASN695  SER759  ASP760  ASP761  ALA762  ILE779  LEU786  VAL792 
 PHE793  MET794  SER795  GLU796  ALA797  LYS798  CYS799  TRP800  GLU811  SER814 

> <Gold.Protein.RotatedAtoms>
  152.5430  134.0819  159.8238 H   0  0  0  0  0  0  0  0  0  0  0  0  # atno 6907 bound_to 6896
  151.0920  133.5301  159.2622 H   0  0  0  0  0  0  0  0  0  0  0  0  # atno 6908 bound_to 6896
  151.2089  135.0482  159.8957 H   0  0  0  0  0  0  0  0  0  0  0  0  # atno 6909 bound_to 6896
  146.0645  140.6301  142.8981 H   0  0  0  0  0  0  0  0  0  0  0  0  # atno 7974 bound_to 7965
  156.0310  140.1282  157.0258 H   0  0  0  0  0  0  0  0  0  0  0  0  # atno 8008 bound_to 7997
  154.4350  140.1049  156.6169 H   0  0  0  0  0  0  0  0  0  0  0  0  # atno 8009 bound_to 7997
  155.5807  140.3468  155.4542 H   0  0  0  0  0  0  0  0  0  0  0  0  # atno 8010 bound_to 7997
  140.0268  143.5288  152.2195 H   0  0  0  0  0  0  0  0  0  0  0  0  # atno 10167 bound_to 10162
  156.8416  130.5523  149.5677 H   0  0  0  0  0  0  0  0  0  0  0  0  # atno 10718 bound_to 10713
  154.1787  135.6447  153.5028 H   0  0  0  0  0  0  0  0  0  0  0  0  # atno 10763 bound_to 10752
  153.0065  135.5401  154.6537 H   0  0  0  0  0  0  0  0  0  0  0  0  # atno 10764 bound_to 10752
  154.5895  135.2933  155.0622 H   0  0  0  0  0  0  0  0  0  0  0  0  # atno 10765 bound_to 10752
  140.2851  134.2928  155.7790 H   0  0  0  0  0  0  0  0  0  0  0  0  # atno 11005 bound_to 11000
  144.7194  140.4322  143.7019 LP  0  0  0  0  0  0  0  0  0  0  0  0  # atno 17320 bound_to 7965
  145.6502  139.1563  143.2866 LP  0  0  0  0  0  0  0  0  0  0  0  0  # atno 17321 bound_to 7965
  139.6102  144.7607  151.2968 LP  0  0  0  0  0  0  0  0  0  0  0  0  # atno 17342 bound_to 10162
  140.7319  143.6838  150.7978 LP  0  0  0  0  0  0  0  0  0  0  0  0  # atno 17343 bound_to 10162
  156.0877  130.5871  150.9678 LP  0  0  0  0  0  0  0  0  0  0  0  0  # atno 17370 bound_to 10713
  157.6352  131.0917  150.8362 LP  0  0  0  0  0  0  0  0  0  0  0  0  # atno 17371 bound_to 10713
  141.2156  133.7550  156.9540 LP  0  0  0  0  0  0  0  0  0  0  0  0  # atno 17394 bound_to 11000
  140.1247  134.9394  157.2253 LP  0  0  0  0  0  0  0  0  0  0  0  0  # atno 17395 bound_to 11000

$$$$
