AV-unprocessed.smi:3325|AV-procd|sdf|12784|dock10
  -GOLD-   2272019133D 1   1.00000     0.00000
 Structure written by MMmdl.
 44 45  0  0  0  0  0  0  0  0  2 V2000
  147.6943  136.6283  163.0950 C   0  0  0  0  0  0  0  0  0  0  0  0
  147.1095  136.0342  161.8050 C   0  0  0  0  0  0  0  0  0  0  0  0
  146.5851  134.6024  161.9886 C   0  0  0  0  0  0  0  0  0  0  0  0
  148.0737  136.1269  160.6621 C   0  0  0  0  0  0  0  0  0  0  0  0
  148.3666  135.0654  159.9196 N   0  0  0  0  0  0  0  0  0  0  0  0
  149.2996  135.5593  158.9971 O   0  0  0  0  0  0  0  0  0  0  0  0
  149.4447  136.8737  159.2875 C   0  0  0  0  0  0  0  0  0  0  0  0
  150.4335  137.6800  158.5114 C   0  0  0  0  0  0  0  0  0  0  0  0
  149.9648  139.1204  158.2565 C   0  0  0  0  0  0  0  0  0  0  0  0
  151.0889  139.9999  157.8747 N   0  3  0  0  0  0  0  0  0  0  0  0
  150.6851  141.3723  157.5101 C   0  0  0  0  0  0  0  0  0  0  0  0
  151.6314  142.4226  158.1203 C   0  0  0  0  0  0  0  0  0  0  0  0
  151.8862  142.1706  159.6230 C   0  0  0  0  0  0  0  0  0  0  0  0
  152.8180  143.2331  160.2282 C   0  0  0  0  0  0  0  0  0  0  0  0
  152.2677  144.6495  160.0051 C   0  0  0  0  0  0  0  0  0  0  0  0
  152.0104  144.9132  158.5143 C   0  0  0  0  0  0  0  0  0  0  0  0
  151.0788  143.8478  157.9132 C   0  0  0  0  0  0  0  0  0  0  0  0
  148.7251  137.2776  160.3309 N   0  0  0  0  0  0  0  0  0  0  0  0
  147.9911  137.6675  162.9494 H   0  0  0  0  0  0  0  0  0  0  0  0
  148.5727  136.0737  163.4261 H   0  0  0  0  0  0  0  0  0  0  0  0
  146.9636  136.6043  163.9037 H   0  0  0  0  0  0  0  0  0  0  0  0
  146.2441  136.6486  161.5500 H   0  0  0  0  0  0  0  0  0  0  0  0
  146.1076  134.2403  161.0777 H   0  0  0  0  0  0  0  0  0  0  0  0
  145.8463  134.5548  162.7891 H   0  0  0  0  0  0  0  0  0  0  0  0
  147.3913  133.9125  162.2399 H   0  0  0  0  0  0  0  0  0  0  0  0
  151.3753  137.6915  159.0611 H   0  0  0  0  0  0  0  0  0  0  0  0
  150.6345  137.1752  157.5656 H   0  0  0  0  0  0  0  0  0  0  0  0
  149.2092  139.1320  157.4697 H   0  0  0  0  0  0  0  0  0  0  0  0
  149.4960  139.5175  159.1575 H   0  0  0  0  0  0  0  0  0  0  0  0
  151.7346  140.0516  158.6500 H   0  0  0  0  0  0  0  0  0  0  0  0
  150.6949  141.4536  156.4221 H   0  0  0  0  0  0  0  0  0  0  0  0
  149.6591  141.5527  157.8338 H   0  0  0  0  0  0  0  0  0  0  0  0
  152.5869  142.3612  157.5961 H   0  0  0  0  0  0  0  0  0  0  0  0
  150.9382  142.1713  160.1634 H   0  0  0  0  0  0  0  0  0  0  0  0
  152.3251  141.1840  159.7743 H   0  0  0  0  0  0  0  0  0  0  0  0
  152.9470  143.0496  161.2953 H   0  0  0  0  0  0  0  0  0  0  0  0
  153.8084  143.1502  159.7788 H   0  0  0  0  0  0  0  0  0  0  0  0
  151.3391  144.7740  160.5640 H   0  0  0  0  0  0  0  0  0  0  0  0
  152.9674  145.3875  160.3986 H   0  0  0  0  0  0  0  0  0  0  0  0
  151.5761  145.9048  158.3825 H   0  0  0  0  0  0  0  0  0  0  0  0
  152.9583  144.9175  157.9748 H   0  0  0  0  0  0  0  0  0  0  0  0
  150.9433  144.0458  156.8495 H   0  0  0  0  0  0  0  0  0  0  0  0
  150.0915  143.9309  158.3696 H   0  0  0  0  0  0  0  0  0  0  0  0
  151.5668  139.5871  157.0860 H   0  0  0  0  0  0  0  0  0  0  0  0
  1  2  1  0  0  0  0
  1 19  1  0  0  0  0
  1 20  1  0  0  0  0
  1 21  1  0  0  0  0
  2  3  1  0  0  0  0
  2  4  1  0  0  0  0
  2 22  1  0  0  0  0
  3 23  1  0  0  0  0
  3 24  1  0  0  0  0
  3 25  1  0  0  0  0
  4 18  1  0  0  0  0
  4  5  2  0  0  0  0
  5  6  1  0  0  0  0
  6  7  1  0  0  0  0
  7  8  1  0  0  0  0
  7 18  2  0  0  0  0
  8  9  1  0  0  0  0
  8 26  1  0  0  0  0
  8 27  1  0  0  0  0
  9 10  1  0  0  0  0
  9 28  1  0  0  0  0
  9 29  1  0  0  0  0
 10 11  1  0  0  0  0
 10 30  1  0  0  0  0
 10 44  1  0  0  0  0
 11 12  1  0  0  0  0
 11 31  1  0  0  0  0
 11 32  1  0  0  0  0
 12 17  1  0  0  0  0
 12 13  1  0  0  0  0
 12 33  1  0  0  0  0
 13 14  1  0  0  0  0
 13 34  1  0  0  0  0
 13 35  1  0  0  0  0
 14 15  1  0  0  0  0
 14 36  1  0  0  0  0
 14 37  1  0  0  0  0
 15 16  1  0  0  0  0
 15 38  1  0  0  0  0
 15 39  1  0  0  0  0
 16 17  1  0  0  0  0
 16 40  1  0  0  0  0
 16 41  1  0  0  0  0
 17 42  1  0  0  0  0
 17 43  1  0  0  0  0
M  CHG  1  10   1
M  END
> <s_m_source_file>
AV-unprocessed.smi

> <i_m_source_file_index>
3325

> <i_lp_mmshare_version>
43012

> <i_f3d_flags>
0

> <s_epik_input>
W0NIM11bQ0hdKFtDSDNdKWMxbm9jKG4xKVtDSDJdW0NIMl1bTkhdW0NIMl1bQ0hdMltDSDJdW0NIMl1bQ0gyXVtDSDJdW0NIMl0y

> <s_epik_cmdline>
J2VwaWtfcHl0aG9uJywgJy1waCcsICc3LjAnLCAnLXRuJywgJzgnLCAnLW1hJywgJzIwMCcsICctbWV0YWxfYmluZGluZycsICctaW1hZScsICc8aW5maWxlLm1hZT4nLCAnLW9tYWUnLCAnPG91dGZpbGUubWFlPic=

> <r_lp_tautomer_probability>
1

> <r_epik_Ionization_Penalty>
0.00142412

> <r_epik_Ionization_Penalty_Charging>
0.00142412

> <r_epik_Ionization_Penalty_Neutral>
2.66011e-13

> <r_epik_State_Penalty>
0.000950746

> <r_epik_Charging_Adjusted_Penalty>
0.00237487

> <i_epik_Tot_Q>
1

> <i_epik_Tot_abs_Q>
1

> <r_epik_Metal_State_Penalty>
-0

> <b_epik_Metal_Only>
0

> <s_lp_Force_Field>
OPLS_2005

> <r_lp_Energy>
7.21373

> <b_lp_Chiralities_Consistent>
1

> <s_lp_Variant>
AV-unprocessed.smi:3325-1

> <Gold.Version>
5.8.1

> <Gold.Id.Protein>
6NUR|6NUR_protein|mol2

> <Gold.PLP.Fitness>
45.2623

> <Gold.PLP.PLP>
-41.8451

> <Gold.PLP.part.hbond>
-3.1984

> <Gold.PLP.part.metal>
0.0000

> <Gold.PLP.part.buried>
-4.9678

> <Gold.PLP.part.nonpolar>
-34.5962

> <Gold.PLP.part.repulsive>
0.0885

> <Gold.PLP.ligand.clash>
0.0000

> <Gold.PLP.ligand.torsion>
0.8420

> <Gold.PLP.Chemscore.Hbond>
1.6501

> <Gold.PLP.Chemscore.CHOScore>
0.0000

> <Gold.PLP.Chemscore.Metal>
0.0000

> <Gold.Chemscore.Hbonds>
donor molecule, donor type, donor heavy atom, donor atom, acceptor molecule, acceptor atom, score
      P1  H  6896  6909       L1     6  1.00
      P1  H  6931  6943       L1    18  0.59
      P1  H  6934  6947       L1    18  0.05

> <Gold.PLP.Chemscore.Internal.Correction>
0.1509

> <Gold.Rescore>
     Score         DG    S(hbond)    S(metal)    S(lipo)     H(rot)  DE(clash)    DE(int)     intcor
     17.70     -18.78       1.71        0.00     105.45       1.86       0.19       0.89       ----

> <Gold.Chemscore.Fitness>
17.7007

> <Gold.Chemscore.DG>
-18.7782

> <Gold.Chemscore.ZeroCoef>
-5.4800

> <Gold.Chemscore.Hbond>
1.7129

> <Gold.Chemscore.Metal>
0.0000

> <Gold.Chemscore.Lipo>
105.4548

> <Gold.Chemscore.Internal_Hbond>
0.0000

> <Gold.Chemscore.DEClash>
0.1866

> <Gold.Chemscore.DEInternal>
0.8909

> <Gold.Chemscore.Rot>
1.8597

> <Gold.Chemscore.Internal.Correction>
   9.000000E+99

> <Gold.Chemscore.Hbonds>
donor molecule, donor type, donor heavy atom, donor atom, acceptor molecule, acceptor atom, score
      P1  H  6896  6909       L1     6  0.06
      P1  H  6931  6943       L1    18  0.41
      P1  H  6934  6947       L1    18  0.03

> <Gold.Chemscore.Hbond.Weighted>
-5.7209

> <Gold.Chemscore.Metal.Weighted>
-0.0000

> <Gold.Chemscore.Lipo.Weighted>
-12.3382

> <Gold.Chemscore.Internal_Hbond.Weighted>
0.0000

> <Gold.Chemscore.DEClash.Weighted>
0.1866

> <Gold.Chemscore.DEInternal.Weighted>
0.8909

> <Gold.Chemscore.Rot.Weighted>
4.7610

> <Gold.Chemscore.Internal.Correction.Weighted>
   9.000000E+99

> <Gold.Protein.RotatedTorsions>
[ 6907 6896 6895 6894 ] final   74.20 input  -60.11 | X-H torsion
[ 7974 7965 7964 7962 ] final  103.10 input  175.53 | X-H torsion
[ 8008 7997 7996 7995 ] final   47.95 input   59.86 | X-H torsion
[ 10167 10162 10161 10158 ] final -147.39 input  -65.29 | X-H torsion
[ 10718 10713 10712 10709 ] final -115.09 input   66.30 | X-H torsion
[ 10763 10752 10751 10750 ] final -176.61 input  -60.55 | X-H torsion
[ 11005 11000 10999 10996 ] final  145.31 input  -57.11 | X-H torsion

> <Gold.Protein.ActiveResidues>
 VAL166  LYS551  ARG553  GLY616  TRP617  ASP618  TYR619  PRO620  LYS621  CYS622 
 ASP623  PHE694  ASN695  SER759  ASP760  ASP761  ALA762  ILE779  LEU786  VAL792 
 PHE793  MET794  SER795  GLU796  ALA797  LYS798  CYS799  TRP800  GLU811  SER814 

> <Gold.Protein.RotatedAtoms>
  152.4963  134.4307  159.9510 H   0  0  0  0  0  0  0  0  0  0  0  0  # atno 6907 bound_to 6896
  151.4285  133.3671  159.2773 H   0  0  0  0  0  0  0  0  0  0  0  0  # atno 6908 bound_to 6896
  150.9171  134.8612  159.7524 H   0  0  0  0  0  0  0  0  0  0  0  0  # atno 6909 bound_to 6896
  145.3504  139.2440  143.3561 H   0  0  0  0  0  0  0  0  0  0  0  0  # atno 7974 bound_to 7965
  155.3776  140.3427  155.4245 H   0  0  0  0  0  0  0  0  0  0  0  0  # atno 8008 bound_to 7997
  156.1628  140.1606  156.8616 H   0  0  0  0  0  0  0  0  0  0  0  0  # atno 8009 bound_to 7997
  154.5156  140.0779  156.8057 H   0  0  0  0  0  0  0  0  0  0  0  0  # atno 8010 bound_to 7997
  139.7626  143.8354  152.2610 H   0  0  0  0  0  0  0  0  0  0  0  0  # atno 10167 bound_to 10162
  156.0872  130.6062  150.8860 H   0  0  0  0  0  0  0  0  0  0  0  0  # atno 10718 bound_to 10713
  154.5703  135.2827  155.0834 H   0  0  0  0  0  0  0  0  0  0  0  0  # atno 10763 bound_to 10752
  154.2209  135.6391  153.5148 H   0  0  0  0  0  0  0  0  0  0  0  0  # atno 10764 bound_to 10752
  153.0055  135.5514  154.6324 H   0  0  0  0  0  0  0  0  0  0  0  0  # atno 10765 bound_to 10752
  140.0702  134.9156  157.1332 H   0  0  0  0  0  0  0  0  0  0  0  0  # atno 11005 bound_to 11000
  146.2970  140.4119  142.8718 LP  0  0  0  0  0  0  0  0  0  0  0  0  # atno 17320 bound_to 7965
  144.8722  140.7288  143.6040 LP  0  0  0  0  0  0  0  0  0  0  0  0  # atno 17321 bound_to 7965
  139.8365  144.7230  150.9384 LP  0  0  0  0  0  0  0  0  0  0  0  0  # atno 17342 bound_to 10162
  140.7808  143.4022  151.1130 LP  0  0  0  0  0  0  0  0  0  0  0  0  # atno 17343 bound_to 10162
  157.6011  131.0941  150.8959 LP  0  0  0  0  0  0  0  0  0  0  0  0  # atno 17370 bound_to 10713
  156.9116  130.5283  149.5280 LP  0  0  0  0  0  0  0  0  0  0  0  0  # atno 17371 bound_to 10713
  140.3639  134.2464  155.7184 LP  0  0  0  0  0  0  0  0  0  0  0  0  # atno 17394 bound_to 11000
  141.2008  133.7977  157.0469 LP  0  0  0  0  0  0  0  0  0  0  0  0  # atno 17395 bound_to 11000

$$$$
