AV-unprocessed.smi:72|AV-procd|sdf|685|dock2
  -GOLD-   2262016593D 1   1.00000     0.00000
 Structure written by MMmdl.
 29 30  0  0  0  0  0  0  0  0  1 V2000
  150.7966  143.2761  157.4733 N   0  0  0  0  0  0  0  0  0  0  0  0
  150.7661  142.1609  156.8365 C   0  0  0  0  0  0  0  0  0  0  0  0
  151.4822  141.0065  157.1850 N   0  0  0  0  0  0  0  0  0  0  0  0
  151.3707  139.9543  156.4338 C   0  0  0  0  0  0  0  0  0  0  0  0
  150.5487  139.9405  155.2295 N   0  0  0  0  0  0  0  0  0  0  0  0
  150.3961  138.7082  154.3511 C   0  0  2  0  0  0  0  0  0  0  0  0
  149.2372  138.0070  154.6914 O   0  0  0  0  0  0  0  0  0  0  0  0
  149.5570  136.9778  155.6194 C   0  0  1  0  0  0  0  0  0  0  0  0
  148.4435  135.9203  155.6328 C   0  0  0  0  0  0  0  0  0  0  0  0
  148.3509  135.3029  154.3669 O   0  0  0  0  0  0  0  0  0  0  0  0
  150.8897  136.4625  155.0740 C   0  0  2  0  0  0  0  0  0  0  0  0
  151.6512  135.8761  156.1105 O   0  0  0  0  0  0  0  0  0  0  0  0
  151.5723  137.7255  154.5521 C   0  0  1  0  0  0  0  0  0  0  0  0
  152.2370  137.4548  153.3353 O   0  0  0  0  0  0  0  0  0  0  0  0
  149.7749  141.0824  154.9018 C   0  0  0  0  0  0  0  0  0  0  0  0
  149.0112  141.1053  153.9365 O   0  0  0  0  0  0  0  0  0  0  0  0
  149.9300  142.1497  155.7138 N   0  0  0  0  0  0  0  0  0  0  0  0
  150.3036  139.1024  153.3374 H   0  0  0  0  0  0  0  0  0  0  0  0
  149.7050  137.4036  156.6138 H   0  0  0  0  0  0  0  0  0  0  0  0
  150.7171  135.7453  154.2695 H   0  0  0  0  0  0  0  0  0  0  0  0
  152.2780  138.1248  155.2826 H   0  0  0  0  0  0  0  0  0  0  0  0
  150.1911  143.9482  157.0239 H   0  0  0  0  0  0  0  0  0  0  0  0
  151.8854  139.0221  156.6661 H   0  0  0  0  0  0  0  0  0  0  0  0
  148.6122  135.1738  156.4095 H   0  0  0  0  0  0  0  0  0  0  0  0
  147.4816  136.3911  155.8380 H   0  0  0  0  0  0  0  0  0  0  0  0
  148.7150  135.8879  153.7201 H   0  0  0  0  0  0  0  0  0  0  0  0
  151.1179  135.8451  156.8903 H   0  0  0  0  0  0  0  0  0  0  0  0
  151.5990  137.1419  152.7116 H   0  0  0  0  0  0  0  0  0  0  0  0
  149.4039  142.9839  155.4978 H   0  0  0  0  0  0  0  0  0  0  0  0
  1  2  2  0  0  0  0
  1 22  1  0  0  0  0
  2 17  1  0  0  0  0
  2  3  1  0  0  0  0
  3  4  2  0  0  0  0
  4  5  1  0  0  0  0
  4 23  1  0  0  0  0
  5  6  1  0  0  0  0
  5 15  1  0  0  0  0
  6 18  1  0  0  0  0
  6 13  1  0  0  0  0
  6  7  1  0  0  0  0
  7  8  1  0  0  0  0
  8 19  1  0  0  0  0
  8  9  1  0  0  0  0
  8 11  1  0  0  0  0
  9 10  1  0  0  0  0
  9 24  1  0  0  0  0
  9 25  1  0  0  0  0
 10 26  1  0  0  0  0
 11 20  1  0  0  0  0
 11 12  1  0  0  0  0
 11 13  1  0  0  0  0
 12 27  1  0  0  0  0
 13 21  1  0  0  0  0
 13 14  1  0  0  0  0
 14 28  1  0  0  0  0
 15 16  2  0  0  0  0
 15 17  1  0  0  0  0
 17 29  1  0  0  0  0
M  END
> <s_m_source_file>
AV-unprocessed.smi

> <i_m_source_file_index>
72

> <i_lp_mmshare_version>
43012

> <i_f3d_flags>
0

> <s_epik_input>
W05IMl1jMW5bY0hdbihjKD1PKW4xKVtDQEBIXTJPW0NASF0oW0NIMl1bT0hdKVtDQEBIXShbT0hdKVtDQEhdMltPSF0=

> <s_epik_cmdline>
J2VwaWtfcHl0aG9uJywgJy1waCcsICc3LjAnLCAnLXRuJywgJzgnLCAnLW1hJywgJzIwMCcsICctbWV0YWxfYmluZGluZycsICctaW1hZScsICc8aW5maWxlLm1hZT4nLCAnLW9tYWUnLCAnPG91dGZpbGUubWFlPic=

> <r_lp_tautomer_probability>
7.17554e-07

> <r_epik_Ionization_Penalty>
0.0066451

> <r_epik_Ionization_Penalty_Charging>
0.00663793

> <r_epik_Ionization_Penalty_Neutral>
7.17052e-06

> <r_epik_State_Penalty>
0.419231

> <r_epik_Charging_Adjusted_Penalty>
0.425868

> <i_epik_Tot_Q>
0

> <i_epik_Tot_abs_Q>
0

> <r_epik_Metal_State_Penalty>
1.44144

> <b_epik_Metal_Only>
0

> <s_epik_Chemistry_Notes>
This compound contains an acetal/aminal-like group ( X-CH(R)-Y where X, Y are N, S, or O) that may be acid/base labile, releasing an aldehyde.

> <s_lp_Force_Field>
OPLS_2005

> <r_lp_Energy>
35.407

> <b_lp_Chiralities_Consistent>
1

> <s_lp_Variant>
AV-unprocessed.smi:72-23

> <Gold.Version>
5.8.1

> <Gold.Id.Protein>
6NUR|6NUR_protein|mol2

> <Gold.PLP.Fitness>
41.4602

> <Gold.PLP.PLP>
-23.2983

> <Gold.PLP.part.hbond>
-7.9458

> <Gold.PLP.part.metal>
0.0000

> <Gold.PLP.part.buried>
2.4342

> <Gold.PLP.part.nonpolar>
-17.7100

> <Gold.PLP.part.repulsive>
1.8651

> <Gold.PLP.ligand.clash>
0.0000

> <Gold.PLP.ligand.torsion>
0.5960

> <Gold.PLP.Chemscore.Hbond>
6.4384

> <Gold.PLP.Chemscore.CHOScore>
0.0000

> <Gold.PLP.Chemscore.Metal>
0.0000

> <Gold.Chemscore.Hbonds>
donor molecule, donor type, donor heavy atom, donor atom, acceptor molecule, acceptor atom, score
      L1  H     1    22       P1  8028  1.00
      L1  H    10    26       P1  7948  0.91
      L1  H    14    28       P1  7949  0.96
      L1  H    17    29       P1  8028  1.00
      P1  H  8011  8017       L1    16  0.47
      P1  H 10752 10763       L1    14  0.61
      P1  H 10752 10764       L1    12  0.98

> <Gold.PLP.Chemscore.Internal.Correction>
0.0388

> <Gold.Rescore>
     Score         DG    S(hbond)    S(metal)    S(lipo)     H(rot)  DE(clash)    DE(int)     intcor
     10.96     -11.56       4.33        0.00      17.12       4.06       0.20       0.39       ----

> <Gold.Chemscore.Fitness>
10.9620

> <Gold.Chemscore.DG>
-11.5585

> <Gold.Chemscore.ZeroCoef>
-5.4800

> <Gold.Chemscore.Hbond>
4.3321

> <Gold.Chemscore.Metal>
0.0000

> <Gold.Chemscore.Lipo>
17.1171

> <Gold.Chemscore.Internal_Hbond>
0.0000

> <Gold.Chemscore.DEClash>
0.2041

> <Gold.Chemscore.DEInternal>
0.3924

> <Gold.Chemscore.Rot>
4.0600

> <Gold.Chemscore.Internal.Correction>
   9.000000E+99

> <Gold.Chemscore.Hbonds>
donor molecule, donor type, donor heavy atom, donor atom, acceptor molecule, acceptor atom, score
      L1  H     1    22       P1  8028  0.91
      L1  H    10    26       P1  7948  0.89
      L1  H    14    28       P1  7949  0.89
      L1  H    17    29       P1  8028  0.99
      P1  H  8011  8017       L1    16  0.37
      P1  H 10752 10763       L1    14  0.15
      P1  H 10752 10764       L1    12  0.37

> <Gold.Chemscore.Hbond.Weighted>
-14.4694

> <Gold.Chemscore.Metal.Weighted>
-0.0000

> <Gold.Chemscore.Lipo.Weighted>
-2.0027

> <Gold.Chemscore.Internal_Hbond.Weighted>
0.0000

> <Gold.Chemscore.DEClash.Weighted>
0.2041

> <Gold.Chemscore.DEInternal.Weighted>
0.3924

> <Gold.Chemscore.Rot.Weighted>
10.3936

> <Gold.Chemscore.Internal.Correction.Weighted>
   9.000000E+99

> <Gold.Protein.RotatedTorsions>
[ 6907 6896 6895 6894 ] final -103.04 input  -60.11 | X-H torsion
[ 7974 7965 7964 7962 ] final   11.21 input  175.53 | X-H torsion
[ 8008 7997 7996 7995 ] final  159.04 input   59.86 | X-H torsion
[ 10167 10162 10161 10158 ] final  110.24 input  -65.29 | X-H torsion
[ 10718 10713 10712 10709 ] final  -98.19 input   66.30 | X-H torsion
[ 10763 10752 10751 10750 ] final  -12.78 input  -60.55 | X-H torsion
[ 11005 11000 10999 10996 ] final  116.68 input  -57.11 | X-H torsion

> <Gold.Protein.ActiveResidues>
 VAL166  LYS551  ARG553  GLY616  TRP617  ASP618  TYR619  PRO620  LYS621  CYS622 
 ASP623  PHE694  ASN695  SER759  ASP760  ASP761  ALA762  ILE779  LEU786  VAL792 
 PHE793  MET794  SER795  GLU796  ALA797  LYS798  CYS799  TRP800  GLU811  SER814 

> <Gold.Protein.RotatedAtoms>
  150.7222  134.0490  159.3791 H   0  0  0  0  0  0  0  0  0  0  0  0  # atno 6907 bound_to 6896
  151.8466  135.0570  160.0463 H   0  0  0  0  0  0  0  0  0  0  0  0  # atno 6908 bound_to 6896
  152.2822  133.5445  159.5541 H   0  0  0  0  0  0  0  0  0  0  0  0  # atno 6909 bound_to 6896
  146.2375  139.9519  142.8469 H   0  0  0  0  0  0  0  0  0  0  0  0  # atno 7974 bound_to 7965
  156.2264  140.1842  156.7351 H   0  0  0  0  0  0  0  0  0  0  0  0  # atno 8008 bound_to 7997
  154.5949  140.0645  156.9318 H   0  0  0  0  0  0  0  0  0  0  0  0  # atno 8009 bound_to 7997
  155.2273  140.3312  155.4310 H   0  0  0  0  0  0  0  0  0  0  0  0  # atno 8010 bound_to 7997
  139.6704  144.7125  151.1699 H   0  0  0  0  0  0  0  0  0  0  0  0  # atno 10167 bound_to 10162
  156.0101  130.5227  150.6486 H   0  0  0  0  0  0  0  0  0  0  0  0  # atno 10718 bound_to 10713
  153.5036  135.7017  153.5819 H   0  0  0  0  0  0  0  0  0  0  0  0  # atno 10763 bound_to 10752
  153.3939  135.3889  155.1942 H   0  0  0  0  0  0  0  0  0  0  0  0  # atno 10764 bound_to 10752
  154.8709  135.3865  154.4509 H   0  0  0  0  0  0  0  0  0  0  0  0  # atno 10765 bound_to 10752
  139.9049  134.9601  156.7235 H   0  0  0  0  0  0  0  0  0  0  0  0  # atno 11005 bound_to 11000
  145.1853  140.9786  143.4242 LP  0  0  0  0  0  0  0  0  0  0  0  0  # atno 17320 bound_to 7965
  144.9905  139.3694  143.6217 LP  0  0  0  0  0  0  0  0  0  0  0  0  # atno 17321 bound_to 7965
  140.7615  143.5854  150.8851 LP  0  0  0  0  0  0  0  0  0  0  0  0  # atno 17342 bound_to 10162
  139.9519  143.6263  152.3027 LP  0  0  0  0  0  0  0  0  0  0  0  0  # atno 17343 bound_to 10162
  157.4252  131.0842  151.1093 LP  0  0  0  0  0  0  0  0  0  0  0  0  # atno 17370 bound_to 10713
  157.1682  130.6256  149.5632 LP  0  0  0  0  0  0  0  0  0  0  0  0  # atno 17371 bound_to 10713
  140.6981  133.9330  155.8007 LP  0  0  0  0  0  0  0  0  0  0  0  0  # atno 17394 bound_to 11000
  141.0392  134.0646  157.3923 LP  0  0  0  0  0  0  0  0  0  0  0  0  # atno 17395 bound_to 11000

$$$$
