AV-unprocessed.smi:2265|AV-procd|sdf|9145|dock1
  -GOLD-   2272012353D 1   1.00000     0.00000
 Structure written by MMmdl.
 36 37  0  0  0  0  0  0  0  0  1 V2000
  146.8155  144.9558  161.2314 C   0  0  0  0  0  0  0  0  0  0  0  0
  148.3082  145.3010  161.2593 C   0  0  0  0  0  0  0  0  0  0  0  0
  149.0242  144.9217  159.9563 C   0  0  0  0  0  0  0  0  0  0  0  0
  150.5332  144.8783  160.1190 C   0  0  2  0  0  0  0  0  0  0  0  0
  151.4316  145.7271  159.2593 C   0  0  0  0  0  0  0  0  0  0  0  0
  151.4390  144.2204  159.0969 C   0  0  2  0  0  0  0  0  0  0  0  0
  150.8735  143.6925  157.8909 N   0  0  0  0  0  0  0  0  0  0  0  0
  150.8578  142.4107  157.4840 C   0  0  0  0  0  0  0  0  0  0  0  0
  151.3989  141.5309  158.1535 O   0  0  0  0  0  0  0  0  0  0  0  0
  150.2466  142.2229  156.2932 N   0  0  0  0  0  0  0  0  0  0  0  0
  150.0850  141.0309  155.5764 C   0  0  0  0  0  0  0  0  0  0  0  0
  148.9910  140.7219  154.9380 N   0  0  0  0  0  0  0  0  0  0  0  0
  148.8662  139.5244  154.2335 C   0  0  0  0  0  0  0  0  0  0  0  0
  149.8810  138.6427  154.1864 C   0  0  0  0  0  0  0  0  0  0  0  0
  151.0899  138.9068  154.8452 N   0  0  0  0  0  0  0  0  0  0  0  0
  152.1595  137.9117  154.7646 C   0  0  0  0  0  0  0  0  0  0  0  0
  151.2663  140.0565  155.5514 C   0  0  0  0  0  0  0  0  0  0  0  0
  152.3078  140.3304  156.1512 O   0  0  0  0  0  0  0  0  0  0  0  0
  146.3337  145.2398  162.1671 H   0  0  0  0  0  0  0  0  0  0  0  0
  146.6615  143.8858  161.0890 H   0  0  0  0  0  0  0  0  0  0  0  0
  146.3052  145.4788  160.4223 H   0  0  0  0  0  0  0  0  0  0  0  0
  148.4273  146.3693  161.4435 H   0  0  0  0  0  0  0  0  0  0  0  0
  148.7794  144.7886  162.0989 H   0  0  0  0  0  0  0  0  0  0  0  0
  148.6870  143.9419  159.6165 H   0  0  0  0  0  0  0  0  0  0  0  0
  148.7602  145.6341  159.1738 H   0  0  0  0  0  0  0  0  0  0  0  0
  150.8460  144.7549  161.1542 H   0  0  0  0  0  0  0  0  0  0  0  0
  150.9658  146.3221  158.4757 H   0  0  0  0  0  0  0  0  0  0  0  0
  152.2943  146.1856  159.7380 H   0  0  0  0  0  0  0  0  0  0  0  0
  152.3303  143.7270  159.4822 H   0  0  0  0  0  0  0  0  0  0  0  0
  150.5133  144.3753  157.2400 H   0  0  0  0  0  0  0  0  0  0  0  0
  149.8715  143.0565  155.8647 H   0  0  0  0  0  0  0  0  0  0  0  0
  147.9235  139.3488  153.7364 H   0  0  0  0  0  0  0  0  0  0  0  0
  149.8312  137.7032  153.6555 H   0  0  0  0  0  0  0  0  0  0  0  0
  152.3459  137.4754  155.7467 H   0  0  0  0  0  0  0  0  0  0  0  0
  153.0864  138.3674  154.4130 H   0  0  0  0  0  0  0  0  0  0  0  0
  151.9195  137.0966  154.0811 H   0  0  0  0  0  0  0  0  0  0  0  0
  1  2  1  0  0  0  0
  1 19  1  0  0  0  0
  1 20  1  0  0  0  0
  1 21  1  0  0  0  0
  2  3  1  0  0  0  0
  2 22  1  0  0  0  0
  2 23  1  0  0  0  0
  3  4  1  0  0  0  0
  3 24  1  0  0  0  0
  3 25  1  0  0  0  0
  4  6  1  0  0  0  0
  4  5  1  0  0  0  0
  4 26  1  0  0  0  0
  5  6  1  0  0  0  0
  5 27  1  0  0  0  0
  5 28  1  0  0  0  0
  6  7  1  0  0  0  0
  6 29  1  0  0  0  0
  7  8  1  0  0  0  0
  7 30  1  0  0  0  0
  8  9  2  0  0  0  0
  8 10  1  0  0  0  0
 10 11  1  0  0  0  0
 10 31  1  0  0  0  0
 11 17  1  0  0  0  0
 11 12  2  0  0  0  0
 12 13  1  0  0  0  0
 13 14  2  0  0  0  0
 13 32  1  0  0  0  0
 14 15  1  0  0  0  0
 14 33  1  0  0  0  0
 15 16  1  0  0  0  0
 15 17  1  0  0  0  0
 16 34  1  0  0  0  0
 16 35  1  0  0  0  0
 16 36  1  0  0  0  0
 17 18  2  0  0  0  0
M  END
> <s_m_source_file>
AV-unprocessed.smi

> <i_m_source_file_index>
2265

> <i_lp_mmshare_version>
43012

> <i_f3d_flags>
0

> <s_epik_input>
W0NIM11bQ0gyXVtDSDJdW0NAQEhdMVtDSDJdW0NASF0xW05IXUMoPU8pW05IXWMybltjSF1bY0hdbihbQ0gzXSljMj1P

> <s_epik_cmdline>
J2VwaWtfcHl0aG9uJywgJy1waCcsICc3LjAnLCAnLXRuJywgJzgnLCAnLW1hJywgJzIwMCcsICctbWV0YWxfYmluZGluZycsICctaW1hZScsICc8aW5maWxlLm1hZT4nLCAnLW9tYWUnLCAnPG91dGZpbGUubWFlPic=

> <r_lp_tautomer_probability>
1

> <r_epik_Ionization_Penalty>
0.000728552

> <r_epik_Ionization_Penalty_Charging>
1.67739e-07

> <r_epik_Ionization_Penalty_Neutral>
0.000728385

> <r_epik_State_Penalty>
-0

> <r_epik_Charging_Adjusted_Penalty>
1.67739e-07

> <i_epik_Tot_Q>
0

> <i_epik_Tot_abs_Q>
0

> <r_epik_Metal_State_Penalty>
-0

> <b_epik_Metal_Only>
0

> <s_lp_Force_Field>
OPLS_2005

> <r_lp_Energy>
43.9494

> <b_lp_Chiralities_Consistent>
1

> <s_lp_Variant>
AV-unprocessed.smi:2265-3

> <Gold.Version>
5.8.1

> <Gold.Id.Protein>
6NUR|6NUR_protein|mol2

> <Gold.PLP.Fitness>
47.5137

> <Gold.PLP.PLP>
-38.7462

> <Gold.PLP.part.hbond>
-2.4394

> <Gold.PLP.part.metal>
0.0000

> <Gold.PLP.part.buried>
-1.5338

> <Gold.PLP.part.nonpolar>
-35.3244

> <Gold.PLP.part.repulsive>
0.2127

> <Gold.PLP.ligand.clash>
0.0000

> <Gold.PLP.ligand.torsion>
0.8244

> <Gold.PLP.Chemscore.Hbond>
2.2584

> <Gold.PLP.Chemscore.CHOScore>
1.0000

> <Gold.PLP.Chemscore.Metal>
0.0000

> <Gold.Chemscore.Hbonds>
donor molecule, donor type, donor heavy atom, donor atom, acceptor molecule, acceptor atom, score
      L1  H     7    30       P1  8028  0.37
      L1  H    10    31       P1  8028  1.00
      P1  H  7997  8010       L1    18  0.89
      L1  C    14    33       P1  7948  1.00

> <Gold.PLP.Chemscore.Internal.Correction>
0.6411

> <Gold.Rescore>
     Score         DG    S(hbond)    S(metal)    S(lipo)     H(rot)  DE(clash)    DE(int)     intcor
     12.00     -17.30       2.15        0.00      71.69       1.46       0.35       4.95       ----

> <Gold.Chemscore.Fitness>
12.0032

> <Gold.Chemscore.DG>
-17.3025

> <Gold.Chemscore.ZeroCoef>
-5.4800

> <Gold.Chemscore.Hbond>
2.1476

> <Gold.Chemscore.Metal>
0.0000

> <Gold.Chemscore.Lipo>
71.6944

> <Gold.Chemscore.Internal_Hbond>
0.0000

> <Gold.Chemscore.DEClash>
0.3521

> <Gold.Chemscore.DEInternal>
4.9472

> <Gold.Chemscore.Rot>
1.4604

> <Gold.Chemscore.Internal.Correction>
   9.000000E+99

> <Gold.Chemscore.Hbonds>
donor molecule, donor type, donor heavy atom, donor atom, acceptor molecule, acceptor atom, score
      L1  H     7    30       P1  8028  0.28
      L1  H    10    31       P1  8028  0.99
      P1  H  7997  8010       L1    18  0.80

> <Gold.Chemscore.Hbond.Weighted>
-7.1730

> <Gold.Chemscore.Metal.Weighted>
-0.0000

> <Gold.Chemscore.Lipo.Weighted>
-8.3883

> <Gold.Chemscore.Internal_Hbond.Weighted>
0.0000

> <Gold.Chemscore.DEClash.Weighted>
0.3521

> <Gold.Chemscore.DEInternal.Weighted>
4.9472

> <Gold.Chemscore.Rot.Weighted>
3.7387

> <Gold.Chemscore.Internal.Correction.Weighted>
   9.000000E+99

> <Gold.Protein.RotatedTorsions>
[ 6907 6896 6895 6894 ] final  -68.91 input  -60.11 | X-H torsion
[ 7974 7965 7964 7962 ] final  -91.27 input  175.53 | X-H torsion
[ 8008 7997 7996 7995 ] final   69.06 input   59.86 | X-H torsion
[ 10167 10162 10161 10158 ] final  102.17 input  -65.29 | X-H torsion
[ 10718 10713 10712 10709 ] final  -43.68 input   66.30 | X-H torsion
[ 10763 10752 10751 10750 ] final   58.36 input  -60.55 | X-H torsion
[ 11005 11000 10999 10996 ] final  171.47 input  -57.11 | X-H torsion

> <Gold.Protein.ActiveResidues>
 VAL166  LYS551  ARG553  GLY616  TRP617  ASP618  TYR619  PRO620  LYS621  CYS622 
 ASP623  PHE694  ASN695  SER759  ASP760  ASP761  ALA762  ILE779  LEU786  VAL792 
 PHE793  MET794  SER795  GLU796  ALA797  LYS798  CYS799  TRP800  GLU811  SER814 

> <Gold.Protein.RotatedAtoms>
  150.7332  134.5671  159.5871 H   0  0  0  0  0  0  0  0  0  0  0  0  # atno 6907 bound_to 6896
  152.3120  134.7483  160.0343 H   0  0  0  0  0  0  0  0  0  0  0  0  # atno 6908 bound_to 6896
  151.8028  133.3336  159.3568 H   0  0  0  0  0  0  0  0  0  0  0  0  # atno 6909 bound_to 6896
  145.4154  140.9548  143.2210 H   0  0  0  0  0  0  0  0  0  0  0  0  # atno 7974 bound_to 7965
  155.7179  140.3493  155.5003 H   0  0  0  0  0  0  0  0  0  0  0  0  # atno 8008 bound_to 7997
  155.9296  140.1082  157.1164 H   0  0  0  0  0  0  0  0  0  0  0  0  # atno 8009 bound_to 7997
  154.4083  140.1233  156.4772 H   0  0  0  0  0  0  0  0  0  0  0  0  # atno 8010 bound_to 7997
  139.7373  144.7020  151.0629 H   0  0  0  0  0  0  0  0  0  0  0  0  # atno 10167 bound_to 10162
  156.2465  130.4184  149.8700 H   0  0  0  0  0  0  0  0  0  0  0  0  # atno 10718 bound_to 10713
  152.9869  135.5609  154.5539 H   0  0  0  0  0  0  0  0  0  0  0  0  # atno 10763 bound_to 10752
  154.4971  135.2795  155.1452 H   0  0  0  0  0  0  0  0  0  0  0  0  # atno 10764 bound_to 10752
  154.2898  135.6328  153.5433 H   0  0  0  0  0  0  0  0  0  0  0  0  # atno 10765 bound_to 10752
  140.3193  134.7451  157.4052 H   0  0  0  0  0  0  0  0  0  0  0  0  # atno 11005 bound_to 11000
  144.8281  139.5676  143.6956 LP  0  0  0  0  0  0  0  0  0  0  0  0  # atno 17320 bound_to 7965
  146.2683  139.6574  142.9313 LP  0  0  0  0  0  0  0  0  0  0  0  0  # atno 17321 bound_to 7965
  140.7781  143.4968  150.9823 LP  0  0  0  0  0  0  0  0  0  0  0  0  # atno 17342 bound_to 10162
  139.8656  143.7258  152.3170 LP  0  0  0  0  0  0  0  0  0  0  0  0  # atno 17343 bound_to 10162
  156.6263  130.8647  151.3486 LP  0  0  0  0  0  0  0  0  0  0  0  0  # atno 17370 bound_to 10713
  157.7197  130.9542  150.1390 LP  0  0  0  0  0  0  0  0  0  0  0  0  # atno 17371 bound_to 10713
  140.0956  134.5542  155.8402 LP  0  0  0  0  0  0  0  0  0  0  0  0  # atno 17394 bound_to 11000
  141.2090  133.6679  156.6411 LP  0  0  0  0  0  0  0  0  0  0  0  0  # atno 17395 bound_to 11000

$$$$
