AV-unprocessed.smi:1508|AV-procd|sdf|6089|dock6
  -GOLD-   22720 6213D 1   1.00000     0.00000
 Structure written by MMmdl.
 37 38  0  0  0  0  0  0  0  0  3 V2000
  149.1268  132.2500  154.2849 C   0  0  0  0  0  0  0  0  0  0  0  0
  148.3509  132.8559  153.1045 C   0  0  0  0  0  0  0  0  0  0  0  0
  147.2579  133.8848  153.5034 C   0  0  1  0  0  0  0  0  0  0  0  0
  147.7574  134.9181  154.5475 C   0  0  0  0  0  0  0  0  0  0  0  0
  149.0831  135.4358  154.2185 N   0  0  0  0  0  0  0  0  0  0  0  0
  150.2049  135.2772  154.9352 C   0  0  0  0  0  0  0  0  0  0  0  0
  150.1890  134.6115  155.9726 O   0  0  0  0  0  0  0  0  0  0  0  0
  151.2763  135.9087  154.4064 N   0  5  0  0  0  0  0  0  0  0  0  0
  151.3858  137.2437  154.5091 C   0  0  0  0  0  0  0  0  0  0  0  0
  150.3921  138.0094  154.9876 N   0  0  0  0  0  0  0  0  0  0  0  0
  150.7068  139.3614  155.0094 N   0  0  0  0  0  0  0  0  0  0  0  0
  151.9334  139.5822  154.5374 C   0  0  0  0  0  0  0  0  0  0  0  0
  152.8136  138.1598  154.0193 S   0  0  0  0  0  0  0  0  0  0  0  0
  146.6820  134.5485  152.2965 N   0  3  0  0  0  0  0  0  0  0  0  0
  146.0325  133.6372  151.3199 C   0  0  0  0  0  0  0  0  0  0  0  0
  144.8249  134.3823  150.7336 C   0  0  0  0  0  0  0  0  0  0  0  0
  144.9599  135.8125  151.2439 C   0  0  0  0  0  0  0  0  0  0  0  0
  145.7204  135.6422  152.5536 C   0  0  0  0  0  0  0  0  0  0  0  0
  149.8690  131.5358  153.9278 H   0  0  0  0  0  0  0  0  0  0  0  0
  148.4703  131.7180  154.9718 H   0  0  0  0  0  0  0  0  0  0  0  0
  149.6558  133.0148  154.8533 H   0  0  0  0  0  0  0  0  0  0  0  0
  149.0641  133.3144  152.4197 H   0  0  0  0  0  0  0  0  0  0  0  0
  147.9036  132.0463  152.5274 H   0  0  0  0  0  0  0  0  0  0  0  0
  146.4467  133.3269  153.9743 H   0  0  0  0  0  0  0  0  0  0  0  0
  147.0282  135.7200  154.6703 H   0  0  0  0  0  0  0  0  0  0  0  0
  147.8574  134.4537  155.5281 H   0  0  0  0  0  0  0  0  0  0  0  0
  149.1575  135.9859  153.3749 H   0  0  0  0  0  0  0  0  0  0  0  0
  152.3204  140.5889  154.4900 H   0  0  0  0  0  0  0  0  0  0  0  0
  146.7499  133.3673  150.5442 H   0  0  0  0  0  0  0  0  0  0  0  0
  145.6941  132.7153  151.7952 H   0  0  0  0  0  0  0  0  0  0  0  0
  144.7902  134.3324  149.6448 H   0  0  0  0  0  0  0  0  0  0  0  0
  143.9025  133.9414  151.1140 H   0  0  0  0  0  0  0  0  0  0  0  0
  145.5551  136.4016  150.5445 H   0  0  0  0  0  0  0  0  0  0  0  0
  143.9986  136.3111  151.3721 H   0  0  0  0  0  0  0  0  0  0  0  0
  145.0297  135.3479  153.3459 H   0  0  0  0  0  0  0  0  0  0  0  0
  146.2191  136.5634  152.8563 H   0  0  0  0  0  0  0  0  0  0  0  0
  147.4541  134.9763  151.8055 H   0  0  0  0  0  0  0  0  0  0  0  0
  1  2  1  0  0  0  0
  1 19  1  0  0  0  0
  1 20  1  0  0  0  0
  1 21  1  0  0  0  0
  2  3  1  0  0  0  0
  2 22  1  0  0  0  0
  2 23  1  0  0  0  0
  3  4  1  0  0  0  0
  3 14  1  0  0  0  0
  3 24  1  0  0  0  0
  4  5  1  0  0  0  0
  4 25  1  0  0  0  0
  4 26  1  0  0  0  0
  5  6  1  0  0  0  0
  5 27  1  0  0  0  0
  6  7  2  0  0  0  0
  6  8  1  0  0  0  0
  8  9  1  0  0  0  0
  9 13  1  0  0  0  0
  9 10  2  0  0  0  0
 10 11  1  0  0  0  0
 11 12  2  0  0  0  0
 12 13  1  0  0  0  0
 12 28  1  0  0  0  0
 14 18  1  0  0  0  0
 14 15  1  0  0  0  0
 14 37  1  0  0  0  0
 15 16  1  0  0  0  0
 15 29  1  0  0  0  0
 15 30  1  0  0  0  0
 16 17  1  0  0  0  0
 16 31  1  0  0  0  0
 16 32  1  0  0  0  0
 17 18  1  0  0  0  0
 17 33  1  0  0  0  0
 17 34  1  0  0  0  0
 18 35  1  0  0  0  0
 18 36  1  0  0  0  0
M  CHG  1   8  -1
M  CHG  1  14   1
M  END
> <s_m_source_file>
AV-unprocessed.smi

> <i_m_source_file_index>
1508

> <i_lp_mmshare_version>
43012

> <i_f3d_flags>
0

> <s_epik_input>
W0NIMl0xW0NIMl1bQ0gyXVtDSDJdTjFbQ0BIXShbQ0gyXVtDSDNdKVtDSDJdW05IXUMoPU8pW05IXWMybm5bY0hdczI=

> <s_epik_cmdline>
J2VwaWtfcHl0aG9uJywgJy1waCcsICc3LjAnLCAnLXRuJywgJzgnLCAnLW1hJywgJzIwMCcsICctbWV0YWxfYmluZGluZycsICctaW1hZScsICc8aW5maWxlLm1hZT4nLCAnLW9tYWUnLCAnPG91dGZpbGUubWFlPic=

> <r_lp_tautomer_probability>
1

> <r_epik_Ionization_Penalty>
3.98086

> <r_epik_Ionization_Penalty_Charging>
3.94833

> <r_epik_Ionization_Penalty_Neutral>
0.032525

> <r_epik_State_Penalty>
3.94643

> <r_epik_Charging_Adjusted_Penalty>
7.89477

> <i_epik_Tot_Q>
0

> <i_epik_Tot_abs_Q>
2

> <r_epik_Metal_State_Penalty>
0.605555

> <b_epik_Metal_Only>
1

> <s_lp_Force_Field>
OPLS_2005

> <r_lp_Energy>
25.5937

> <b_lp_Chiralities_Consistent>
1

> <s_lp_Variant>
AV-unprocessed.smi:1508-4

> <Gold.Version>
5.8.1

> <Gold.Id.Protein>
6NUR|6NUR_protein|mol2

> <Gold.PLP.Fitness>
44.2832

> <Gold.PLP.PLP>
-31.3487

> <Gold.PLP.part.hbond>
-3.0000

> <Gold.PLP.part.metal>
0.0000

> <Gold.PLP.part.buried>
-3.5197

> <Gold.PLP.part.nonpolar>
-25.7305

> <Gold.PLP.part.repulsive>
0.2864

> <Gold.PLP.ligand.clash>
0.0000

> <Gold.PLP.ligand.torsion>
1.0020

> <Gold.PLP.Chemscore.Hbond>
4.9280

> <Gold.PLP.Chemscore.CHOScore>
0.0000

> <Gold.PLP.Chemscore.Metal>
0.0000

> <Gold.Chemscore.Hbonds>
donor molecule, donor type, donor heavy atom, donor atom, acceptor molecule, acceptor atom, score
      L1  H     5    27       P1  7948  0.98
      L1  H    14    37       P1  7948  1.98
      P1  H 10752 10765       L1     8  1.41

> <Gold.PLP.Chemscore.Internal.Correction>
0.1546

> <Gold.Rescore>
     Score         DG    S(hbond)    S(metal)    S(lipo)     H(rot)  DE(clash)    DE(int)     intcor
     14.15     -15.63       2.64        0.00      51.88       1.86       0.01       1.46       ----

> <Gold.Chemscore.Fitness>
14.1463

> <Gold.Chemscore.DG>
-15.6253

> <Gold.Chemscore.ZeroCoef>
-5.4800

> <Gold.Chemscore.Hbond>
2.6437

> <Gold.Chemscore.Metal>
0.0000

> <Gold.Chemscore.Lipo>
51.8844

> <Gold.Chemscore.Internal_Hbond>
0.0000

> <Gold.Chemscore.DEClash>
0.0149

> <Gold.Chemscore.DEInternal>
1.4641

> <Gold.Chemscore.Rot>
1.8575

> <Gold.Chemscore.Internal.Correction>
   9.000000E+99

> <Gold.Chemscore.Hbonds>
donor molecule, donor type, donor heavy atom, donor atom, acceptor molecule, acceptor atom, score
      L1  H     5    27       P1  7948  0.74
      L1  H    14    37       P1  7948  0.76
      P1  H 10752 10765       L1     8  0.12

> <Gold.Chemscore.Hbond.Weighted>
-8.8300

> <Gold.Chemscore.Metal.Weighted>
-0.0000

> <Gold.Chemscore.Lipo.Weighted>
-6.0705

> <Gold.Chemscore.Internal_Hbond.Weighted>
0.0000

> <Gold.Chemscore.DEClash.Weighted>
0.0149

> <Gold.Chemscore.DEInternal.Weighted>
1.4641

> <Gold.Chemscore.Rot.Weighted>
4.7551

> <Gold.Chemscore.Internal.Correction.Weighted>
   9.000000E+99

> <Gold.Protein.RotatedTorsions>
[ 6907 6896 6895 6894 ] final  -35.44 input  -60.11 | X-H torsion
[ 7974 7965 7964 7962 ] final  160.59 input  175.53 | X-H torsion
[ 8008 7997 7996 7995 ] final  145.33 input   59.86 | X-H torsion
[ 10167 10162 10161 10158 ] final  -66.39 input  -65.29 | X-H torsion
[ 10718 10713 10712 10709 ] final   18.38 input   66.30 | X-H torsion
[ 10763 10752 10751 10750 ] final -167.28 input  -60.55 | X-H torsion
[ 11005 11000 10999 10996 ] final  112.34 input  -57.11 | X-H torsion

> <Gold.Protein.ActiveResidues>
 VAL166  LYS551  ARG553  GLY616  TRP617  ASP618  TYR619  PRO620  LYS621  CYS622 
 ASP623  PHE694  ASN695  SER759  ASP760  ASP761  ALA762  ILE779  LEU786  VAL792 
 PHE793  MET794  SER795  GLU796  ALA797  LYS798  CYS799  TRP800  GLU811  SER814 

> <Gold.Protein.RotatedAtoms>
  151.0398  134.9599  159.8155 H   0  0  0  0  0  0  0  0  0  0  0  0  # atno 6907 bound_to 6896
  152.5362  134.2672  159.8968 H   0  0  0  0  0  0  0  0  0  0  0  0  # atno 6908 bound_to 6896
  151.2684  133.4224  159.2654 H   0  0  0  0  0  0  0  0  0  0  0  0  # atno 6909 bound_to 6896
  144.7729  139.7779  143.6290 H   0  0  0  0  0  0  0  0  0  0  0  0  # atno 7974 bound_to 7965
  156.2886  140.2212  156.5198 H   0  0  0  0  0  0  0  0  0  0  0  0  # atno 8008 bound_to 7997
  154.7538  140.0478  157.0938 H   0  0  0  0  0  0  0  0  0  0  0  0  # atno 8009 bound_to 7997
  155.0076  140.3109  155.4845 H   0  0  0  0  0  0  0  0  0  0  0  0  # atno 8010 bound_to 7997
  140.5660  143.2315  151.6633 H   0  0  0  0  0  0  0  0  0  0  0  0  # atno 10167 bound_to 10162
  157.0955  130.6445  149.5859 H   0  0  0  0  0  0  0  0  0  0  0  0  # atno 10718 bound_to 10713
  154.6748  135.2945  154.9694 H   0  0  0  0  0  0  0  0  0  0  0  0  # atno 10763 bound_to 10752
  154.0709  135.6618  153.4828 H   0  0  0  0  0  0  0  0  0  0  0  0  # atno 10764 bound_to 10752
  153.0509  135.5174  154.7761 H   0  0  0  0  0  0  0  0  0  0  0  0  # atno 10765 bound_to 10752
  139.8925  134.9528  156.6571 H   0  0  0  0  0  0  0  0  0  0  0  0  # atno 11005 bound_to 11000
  146.1888  139.5117  142.9818 LP  0  0  0  0  0  0  0  0  0  0  0  0  # atno 17320 bound_to 7965
  145.6271  141.0311  143.1883 LP  0  0  0  0  0  0  0  0  0  0  0  0  # atno 17321 bound_to 7965
  139.5093  144.3580  152.0589 LP  0  0  0  0  0  0  0  0  0  0  0  0  # atno 17342 bound_to 10162
  140.2712  144.3962  150.6151 LP  0  0  0  0  0  0  0  0  0  0  0  0  # atno 17343 bound_to 10162
  155.9887  130.4931  150.7181 LP  0  0  0  0  0  0  0  0  0  0  0  0  # atno 17370 bound_to 10713
  157.4685  131.0890  151.0668 LP  0  0  0  0  0  0  0  0  0  0  0  0  # atno 17371 bound_to 10713
  140.7476  133.8925  155.8323 LP  0  0  0  0  0  0  0  0  0  0  0  0  # atno 17394 bound_to 11000
  141.0027  134.1128  157.4301 LP  0  0  0  0  0  0  0  0  0  0  0  0  # atno 17395 bound_to 11000

$$$$
