AV-unprocessed.smi:639|AV-procd|sdf|3144|dock1
  -GOLD-   22720 0 73D 1   1.00000     0.00000
 Structure written by MMmdl.
 24 25  0  0  0  0  0  0  0  0  1 V2000
  151.7023  144.0635  158.9300 C   0  0  0  0  0  0  0  0  0  0  0  0
  151.3554  142.8401  158.2392 N   0  0  0  0  0  0  0  0  0  0  0  0
  150.2175  142.5546  157.5175 C   0  0  0  0  0  0  0  0  0  0  0  0
  150.3316  141.2749  157.0464 C   0  0  0  0  0  0  0  0  0  0  0  0
  149.3482  140.4874  156.2027 C   0  0  1  0  0  0  0  0  0  0  0  0
  148.9881  139.1314  156.8374 C   0  0  0  0  0  0  0  0  0  0  0  0
  148.1465  141.2459  155.8878 N   0  0  0  0  0  0  0  0  0  0  0  0
  148.0323  141.5215  154.5813 C   0  0  0  0  0  0  0  0  0  0  0  0
  147.1267  142.1635  154.0547 O   0  0  0  0  0  0  0  0  0  0  0  0
  149.0736  140.9679  153.9525 N   0  0  0  0  0  0  0  0  0  0  0  0
  149.8901  140.3273  154.7876 C   0  0  0  0  0  0  0  0  0  0  0  0
  150.9103  139.7083  154.4889 O   0  0  0  0  0  0  0  0  0  0  0  0
  151.6027  140.8628  157.5466 C   0  0  0  0  0  0  0  0  0  0  0  0
  152.2112  141.7990  158.2555 N   0  0  0  0  0  0  0  0  0  0  0  0
  150.8021  144.6445  159.1331 H   0  0  0  0  0  0  0  0  0  0  0  0
  152.3761  144.6557  158.3103 H   0  0  0  0  0  0  0  0  0  0  0  0
  152.1938  143.8337  159.8762 H   0  0  0  0  0  0  0  0  0  0  0  0
  149.4237  143.2776  157.4002 H   0  0  0  0  0  0  0  0  0  0  0  0
  149.8740  138.5153  156.9951 H   0  0  0  0  0  0  0  0  0  0  0  0
  148.3018  138.5623  156.2087 H   0  0  0  0  0  0  0  0  0  0  0  0
  148.5072  139.2697  157.8062 H   0  0  0  0  0  0  0  0  0  0  0  0
  147.4873  141.5439  156.5923 H   0  0  0  0  0  0  0  0  0  0  0  0
  149.2190  141.0196  152.9548 H   0  0  0  0  0  0  0  0  0  0  0  0
  152.0995  139.9127  157.4160 H   0  0  0  0  0  0  0  0  0  0  0  0
  1  2  1  0  0  0  0
  1 15  1  0  0  0  0
  1 16  1  0  0  0  0
  1 17  1  0  0  0  0
  2 14  1  0  0  0  0
  2  3  1  0  0  0  0
  3  4  2  0  0  0  0
  3 18  1  0  0  0  0
  4  5  1  0  0  0  0
  4 13  1  0  0  0  0
  5 11  1  0  0  0  0
  5  6  1  0  0  0  0
  5  7  1  0  0  0  0
  6 19  1  0  0  0  0
  6 20  1  0  0  0  0
  6 21  1  0  0  0  0
  7  8  1  0  0  0  0
  7 22  1  0  0  0  0
  8  9  2  0  0  0  0
  8 10  1  0  0  0  0
 10 11  1  0  0  0  0
 10 23  1  0  0  0  0
 11 12  2  0  0  0  0
 13 14  2  0  0  0  0
 13 24  1  0  0  0  0
M  END
> <s_m_source_file>
AV-unprocessed.smi

> <i_m_source_file_index>
639

> <i_lp_mmshare_version>
43012

> <i_f3d_flags>
0

> <s_epik_input>
W0NIM11uMVtjSF1jKFtjSF1uMSlbQ0BAXTIoW0NIM10pW05IXUMoPU8pW05IXUMyPU8=

> <s_epik_cmdline>
J2VwaWtfcHl0aG9uJywgJy1waCcsICc3LjAnLCAnLXRuJywgJzgnLCAnLW1hJywgJzIwMCcsICctbWV0YWxfYmluZGluZycsICctaW1hZScsICc8aW5maWxlLm1hZT4nLCAnLW9tYWUnLCAnPG91dGZpbGUubWFlPic=

> <r_lp_tautomer_probability>
1

> <r_epik_Ionization_Penalty>
0.0282779

> <r_epik_Ionization_Penalty_Charging>
0

> <r_epik_Ionization_Penalty_Neutral>
0.0282779

> <r_epik_State_Penalty>
0.022996

> <r_epik_Charging_Adjusted_Penalty>
0.022996

> <i_epik_Tot_Q>
0

> <i_epik_Tot_abs_Q>
0

> <r_epik_Metal_State_Penalty>
0.428533

> <b_epik_Metal_Only>
0

> <s_lp_Force_Field>
OPLS_2005

> <r_lp_Energy>
13.4697

> <b_lp_Chiralities_Consistent>
1

> <s_lp_Variant>
AV-unprocessed.smi:639-1

> <Gold.Version>
5.8.1

> <Gold.Id.Protein>
6NUR|6NUR_protein|mol2

> <Gold.PLP.Fitness>
29.1782

> <Gold.PLP.PLP>
-20.6786

> <Gold.PLP.part.hbond>
-2.0000

> <Gold.PLP.part.metal>
0.0000

> <Gold.PLP.part.buried>
-2.5677

> <Gold.PLP.part.nonpolar>
-16.8994

> <Gold.PLP.part.repulsive>
0.4928

> <Gold.PLP.ligand.clash>
0.0000

> <Gold.PLP.ligand.torsion>
0.1524

> <Gold.PLP.Chemscore.Hbond>
1.8925

> <Gold.PLP.Chemscore.CHOScore>
1.0000

> <Gold.PLP.Chemscore.Metal>
0.0000

> <Gold.Chemscore.Hbonds>
donor molecule, donor type, donor heavy atom, donor atom, acceptor molecule, acceptor atom, score
      L1  H    10    23       P1  7957  0.89
      P1  H  7989  7998       L1    12  0.95
      L1  C     3    18       P1  8028  1.00

> <Gold.PLP.Chemscore.Internal.Correction>
0.1268

> <Gold.Rescore>
     Score         DG    S(hbond)    S(metal)    S(lipo)     H(rot)  DE(clash)    DE(int)     intcor
     11.38     -11.70       1.45        0.00      33.58       1.00       0.26       0.06       ----

> <Gold.Chemscore.Fitness>
11.3769

> <Gold.Chemscore.DG>
-11.6984

> <Gold.Chemscore.ZeroCoef>
-5.4800

> <Gold.Chemscore.Hbond>
1.4520

> <Gold.Chemscore.Metal>
0.0000

> <Gold.Chemscore.Lipo>
33.5795

> <Gold.Chemscore.Internal_Hbond>
0.0000

> <Gold.Chemscore.DEClash>
0.2581

> <Gold.Chemscore.DEInternal>
0.0634

> <Gold.Chemscore.Rot>
1.0000

> <Gold.Chemscore.Internal.Correction>
   9.000000E+99

> <Gold.Chemscore.Hbonds>
donor molecule, donor type, donor heavy atom, donor atom, acceptor molecule, acceptor atom, score
      L1  H    10    23       P1  7957  0.82
      P1  H  7989  7998       L1    12  0.22

> <Gold.Chemscore.Hbond.Weighted>
-4.8496

> <Gold.Chemscore.Metal.Weighted>
-0.0000

> <Gold.Chemscore.Lipo.Weighted>
-3.9288

> <Gold.Chemscore.Internal_Hbond.Weighted>
0.0000

> <Gold.Chemscore.DEClash.Weighted>
0.2581

> <Gold.Chemscore.DEInternal.Weighted>
0.0634

> <Gold.Chemscore.Rot.Weighted>
2.5600

> <Gold.Chemscore.Internal.Correction.Weighted>
   9.000000E+99

> <Gold.Protein.RotatedTorsions>
[ 6907 6896 6895 6894 ] final  174.27 input  -60.11 | X-H torsion
[ 7974 7965 7964 7962 ] final  146.62 input  175.53 | X-H torsion
[ 8008 7997 7996 7995 ] final   68.34 input   59.86 | X-H torsion
[ 10167 10162 10161 10158 ] final   -0.99 input  -65.29 | X-H torsion
[ 10718 10713 10712 10709 ] final  -67.00 input   66.30 | X-H torsion
[ 10763 10752 10751 10750 ] final  140.25 input  -60.55 | X-H torsion
[ 11005 11000 10999 10996 ] final    6.37 input  -57.11 | X-H torsion

> <Gold.Protein.ActiveResidues>
 VAL166  LYS551  ARG553  GLY616  TRP617  ASP618  TYR619  PRO620  LYS621  CYS622 
 ASP623  PHE694  ASN695  SER759  ASP760  ASP761  ALA762  ILE779  LEU786  VAL792 
 PHE793  MET794  SER795  GLU796  ALA797  LYS798  CYS799  TRP800  GLU811  SER814 

> <Gold.Protein.RotatedAtoms>
  151.7550  133.3330  159.3401 H   0  0  0  0  0  0  0  0  0  0  0  0  # atno 6907 bound_to 6896
  150.7520  134.6157  159.6119 H   0  0  0  0  0  0  0  0  0  0  0  0  # atno 6908 bound_to 6896
  152.3443  134.7094  160.0306 H   0  0  0  0  0  0  0  0  0  0  0  0  # atno 6909 bound_to 6896
  144.8657  139.5927  143.5910 H   0  0  0  0  0  0  0  0  0  0  0  0  # atno 7974 bound_to 7965
  155.7068  140.3495  155.4956 H   0  0  0  0  0  0  0  0  0  0  0  0  # atno 8008 bound_to 7997
  155.9391  140.1098  157.1092 H   0  0  0  0  0  0  0  0  0  0  0  0  # atno 8009 bound_to 7997
  154.4099  140.1216  156.4890 H   0  0  0  0  0  0  0  0  0  0  0  0  # atno 8010 bound_to 7997
  140.6791  143.6829  150.8090 H   0  0  0  0  0  0  0  0  0  0  0  0  # atno 10167 bound_to 10162
  156.0581  130.4271  150.1790 H   0  0  0  0  0  0  0  0  0  0  0  0  # atno 10718 bound_to 10713
  153.9196  135.3002  155.3448 H   0  0  0  0  0  0  0  0  0  0  0  0  # atno 10763 bound_to 10752
  154.7582  135.4947  153.9417 H   0  0  0  0  0  0  0  0  0  0  0  0  # atno 10764 bound_to 10752
  153.1149  135.6768  153.9539 H   0  0  0  0  0  0  0  0  0  0  0  0  # atno 10765 bound_to 10752
  140.5602  134.0200  155.7969 H   0  0  0  0  0  0  0  0  0  0  0  0  # atno 11005 bound_to 11000
  146.2894  139.7095  142.9172 LP  0  0  0  0  0  0  0  0  0  0  0  0  # atno 17320 bound_to 7965
  145.4227  141.0408  143.2955 LP  0  0  0  0  0  0  0  0  0  0  0  0  # atno 17321 bound_to 7965
  140.0527  143.5234  152.2666 LP  0  0  0  0  0  0  0  0  0  0  0  0  # atno 17342 bound_to 10162
  139.6101  144.7606  151.2971 LP  0  0  0  0  0  0  0  0  0  0  0  0  # atno 17343 bound_to 10162
  156.9863  130.9879  151.3425 LP  0  0  0  0  0  0  0  0  0  0  0  0  # atno 17370 bound_to 10713
  157.5568  130.8219  149.8215 LP  0  0  0  0  0  0  0  0  0  0  0  0  # atno 17371 bound_to 10713
  141.1119  133.9603  157.2894 LP  0  0  0  0  0  0  0  0  0  0  0  0  # atno 17394 bound_to 11000
  139.9411  135.0191  156.8712 LP  0  0  0  0  0  0  0  0  0  0  0  0  # atno 17395 bound_to 11000

$$$$
