AV-unprocessed.smi:189|AV-procd|sdf|1486|dock1
  -GOLD-   2262019303D 1   1.00000     0.00000
 Structure written by MMmdl.
 53 57  0  0  0  0  0  0  0  0  1 V2000
  149.2160  141.7206  156.0554 C   0  0  0  0  0  0  0  0  0  0  0  0
  150.6934  141.7601  156.4722 C   0  0  1  0  0  0  0  0  0  0  0  0
  151.0492  142.9498  157.3970 C   0  0  0  0  0  0  0  0  0  0  0  0
  151.6336  142.2779  158.6394 C   0  0  2  0  0  0  0  0  0  0  0  0
  152.7294  143.0020  159.4307 C   0  0  0  0  0  0  0  0  0  0  0  0
  153.2140  142.0841  160.5740 C   0  0  0  0  0  0  0  0  0  0  0  0
  153.6404  140.6850  160.0711 C   0  0  0  0  0  0  0  0  0  0  0  0
  152.5571  140.0132  159.2007 C   0  0  0  0  0  0  0  0  0  0  0  0
  152.1628  140.9740  158.0684 C   0  0  1  0  0  0  0  0  0  0  0  0
  151.0888  140.5448  157.1913 N   0  0  0  0  0  0  0  0  0  0  0  0
  151.3642  139.4606  156.4315 C   0  0  0  0  0  0  0  0  0  0  0  0
  152.4254  139.4639  155.5819 N   0  0  0  0  0  0  0  0  0  0  0  0
  152.6969  138.3786  154.8508 C   0  0  0  0  0  0  0  0  0  0  0  0
  152.0520  137.2101  154.8192 N   0  0  0  0  0  0  0  0  0  0  0  0
  150.9872  137.2072  155.6722 C   0  0  0  0  0  0  0  0  0  0  0  0
  150.5787  138.2820  156.5096 C   0  0  0  0  0  0  0  0  0  0  0  0
  149.4609  137.9163  157.2475 N   0  0  0  0  0  0  0  0  0  0  0  0
  149.2206  136.6908  156.8671 C   0  0  0  0  0  0  0  0  0  0  0  0
  150.0827  136.1885  155.9172 N   0  0  0  0  0  0  0  0  0  0  0  0
  150.0481  134.8598  155.3242 C   0  0  0  0  0  0  0  0  0  0  0  0
  148.6395  134.2184  155.3134 C   0  0  2  0  0  0  0  0  0  0  0  0
  147.7182  135.1475  154.7715 O   0  0  0  0  0  0  0  0  0  0  0  0
  148.1736  133.8134  156.7138 C   0  0  0  0  0  0  0  0  0  0  0  0
  148.2360  132.2911  156.6858 C   0  0  0  0  0  0  0  0  0  0  0  0
  147.8667  131.9913  155.3519 O   0  0  0  0  0  0  0  0  0  0  0  0
  148.5622  132.9023  154.5130 C   0  0  0  0  0  0  0  0  0  0  0  0
  148.9336  142.6351  155.5334 H   0  0  0  0  0  0  0  0  0  0  0  0
  148.5639  141.6156  156.9230 H   0  0  0  0  0  0  0  0  0  0  0  0
  149.0173  140.8835  155.3855 H   0  0  0  0  0  0  0  0  0  0  0  0
  151.2930  141.8573  155.5659 H   0  0  0  0  0  0  0  0  0  0  0  0
  151.7924  143.5857  156.9142 H   0  0  0  0  0  0  0  0  0  0  0  0
  150.1890  143.5723  157.6455 H   0  0  0  0  0  0  0  0  0  0  0  0
  150.8049  142.0561  159.3155 H   0  0  0  0  0  0  0  0  0  0  0  0
  153.5639  143.2544  158.7752 H   0  0  0  0  0  0  0  0  0  0  0  0
  152.3489  143.9403  159.8350 H   0  0  0  0  0  0  0  0  0  0  0  0
  154.0421  142.5564  161.1033 H   0  0  0  0  0  0  0  0  0  0  0  0
  152.4115  141.9691  161.3038 H   0  0  0  0  0  0  0  0  0  0  0  0
  154.5570  140.7809  159.4879 H   0  0  0  0  0  0  0  0  0  0  0  0
  153.8844  140.0442  160.9190 H   0  0  0  0  0  0  0  0  0  0  0  0
  152.9346  139.0743  158.7946 H   0  0  0  0  0  0  0  0  0  0  0  0
  151.6854  139.7667  159.8087 H   0  0  0  0  0  0  0  0  0  0  0  0
  153.0469  141.1804  157.4610 H   0  0  0  0  0  0  0  0  0  0  0  0
  153.5545  138.4572  154.1990 H   0  0  0  0  0  0  0  0  0  0  0  0
  148.3992  136.1157  157.2695 H   0  0  0  0  0  0  0  0  0  0  0  0
  150.4329  134.9292  154.3059 H   0  0  0  0  0  0  0  0  0  0  0  0
  150.7484  134.2260  155.8701 H   0  0  0  0  0  0  0  0  0  0  0  0
  148.1322  135.5883  154.0448 H   0  0  0  0  0  0  0  0  0  0  0  0
  148.7802  134.2374  157.5147 H   0  0  0  0  0  0  0  0  0  0  0  0
  147.1414  134.1221  156.8887 H   0  0  0  0  0  0  0  0  0  0  0  0
  149.2497  131.9356  156.8779 H   0  0  0  0  0  0  0  0  0  0  0  0
  147.5628  131.8274  157.4072 H   0  0  0  0  0  0  0  0  0  0  0  0
  148.0716  133.0065  153.5442 H   0  0  0  0  0  0  0  0  0  0  0  0
  149.5552  132.4891  154.3355 H   0  0  0  0  0  0  0  0  0  0  0  0
  1  2  1  0  0  0  0
  1 27  1  0  0  0  0
  1 28  1  0  0  0  0
  1 29  1  0  0  0  0
  2 10  1  0  0  0  0
  2  3  1  0  0  0  0
  2 30  1  0  0  0  0
  3  4  1  0  0  0  0
  3 31  1  0  0  0  0
  3 32  1  0  0  0  0
  4  9  1  0  0  0  0
  4  5  1  0  0  0  0
  4 33  1  0  0  0  0
  5  6  1  0  0  0  0
  5 34  1  0  0  0  0
  5 35  1  0  0  0  0
  6  7  1  0  0  0  0
  6 36  1  0  0  0  0
  6 37  1  0  0  0  0
  7  8  1  0  0  0  0
  7 38  1  0  0  0  0
  7 39  1  0  0  0  0
  8  9  1  0  0  0  0
  8 40  1  0  0  0  0
  8 41  1  0  0  0  0
  9 10  1  0  0  0  0
  9 42  1  0  0  0  0
 10 11  1  0  0  0  0
 11 16  1  0  0  0  0
 11 12  2  0  0  0  0
 12 13  1  0  0  0  0
 13 14  2  0  0  0  0
 13 43  1  0  0  0  0
 14 15  1  0  0  0  0
 15 19  1  0  0  0  0
 15 16  2  0  0  0  0
 16 17  1  0  0  0  0
 17 18  2  0  0  0  0
 18 19  1  0  0  0  0
 18 44  1  0  0  0  0
 19 20  1  0  0  0  0
 20 21  1  0  0  0  0
 20 45  1  0  0  0  0
 20 46  1  0  0  0  0
 21 26  1  0  0  0  0
 21 22  1  0  0  0  0
 21 23  1  0  0  0  0
 22 47  1  0  0  0  0
 23 24  1  0  0  0  0
 23 48  1  0  0  0  0
 23 49  1  0  0  0  0
 24 25  1  0  0  0  0
 24 50  1  0  0  0  0
 24 51  1  0  0  0  0
 25 26  1  0  0  0  0
 26 52  1  0  0  0  0
 26 53  1  0  0  0  0
M  END
> <s_m_source_file>
AV-unprocessed.smi

> <i_m_source_file_index>
189

> <i_lp_mmshare_version>
43012

> <i_f3d_flags>
0

> <s_epik_input>
W0NIMl0xW0NIMl1bQ0gyXVtDSDJdW0NASF0oW0NASF0xMilOKFtDQEhdKFtDSDNdKVtDSDJdMiljKG5bY0hdbjMpYyhjMzQpbltjSF1uNFtDSDJdW0NAQF01KFtPSF0pW0NIMl1bQ0gyXU9bQ0gyXTU=

> <s_epik_cmdline>
J2VwaWtfcHl0aG9uJywgJy1waCcsICc3LjAnLCAnLXRuJywgJzgnLCAnLW1hJywgJzIwMCcsICctbWV0YWxfYmluZGluZycsICctaW1hZScsICc8aW5maWxlLm1hZT4nLCAnLW9tYWUnLCAnPG91dGZpbGUubWFlPic=

> <r_lp_tautomer_probability>
1

> <r_epik_Ionization_Penalty>
0.00594261

> <r_epik_Ionization_Penalty_Charging>
0

> <r_epik_Ionization_Penalty_Neutral>
0.00594261

> <r_epik_State_Penalty>
0.00429776

> <r_epik_Charging_Adjusted_Penalty>
0.00429776

> <i_epik_Tot_Q>
0

> <i_epik_Tot_abs_Q>
0

> <r_epik_Metal_State_Penalty>
-0

> <b_epik_Metal_Only>
0

> <s_lp_Force_Field>
OPLS_2005

> <r_lp_Energy>
58.4258

> <b_lp_Chiralities_Consistent>
1

> <s_lp_Variant>
AV-unprocessed.smi:189-12

> <Gold.Version>
5.8.1

> <Gold.Id.Protein>
6NUR|6NUR_protein|mol2

> <Gold.PLP.Fitness>
51.2935

> <Gold.PLP.PLP>
-43.8987

> <Gold.PLP.part.hbond>
-3.6202

> <Gold.PLP.part.metal>
0.0000

> <Gold.PLP.part.buried>
-5.9678

> <Gold.PLP.part.nonpolar>
-35.6241

> <Gold.PLP.part.repulsive>
0.1462

> <Gold.PLP.ligand.clash>
0.0000

> <Gold.PLP.ligand.torsion>
0.4577

> <Gold.PLP.Chemscore.Hbond>
2.7616

> <Gold.PLP.Chemscore.CHOScore>
0.0000

> <Gold.PLP.Chemscore.Metal>
0.0000

> <Gold.Chemscore.Hbonds>
donor molecule, donor type, donor heavy atom, donor atom, acceptor molecule, acceptor atom, score
      L1  H    22    47       P1  7948  0.05
      P1  H  7997  8008       L1    12  0.76
      P1  H 10752 10764       L1    14  0.80

> <Gold.PLP.Chemscore.Internal.Correction>
0.0254

> <Gold.Rescore>
     Score         DG    S(hbond)    S(metal)    S(lipo)     H(rot)  DE(clash)    DE(int)     intcor
     18.48     -20.22       2.31        0.00     104.42       2.03       0.04       1.70       ----

> <Gold.Chemscore.Fitness>
18.4822

> <Gold.Chemscore.DG>
-20.2198

> <Gold.Chemscore.ZeroCoef>
-5.4800

> <Gold.Chemscore.Hbond>
2.3110

> <Gold.Chemscore.Metal>
0.0000

> <Gold.Chemscore.Lipo>
104.4201

> <Gold.Chemscore.Internal_Hbond>
0.0000

> <Gold.Chemscore.DEClash>
0.0353

> <Gold.Chemscore.DEInternal>
1.7023

> <Gold.Chemscore.Rot>
2.0297

> <Gold.Chemscore.Internal.Correction>
   9.000000E+99

> <Gold.Chemscore.Hbonds>
donor molecule, donor type, donor heavy atom, donor atom, acceptor molecule, acceptor atom, score
      L1  H    22    47       P1  7948  0.10
      P1  H  7997  8008       L1    12  0.26
      P1  H 10752 10764       L1    14  0.77

> <Gold.Chemscore.Hbond.Weighted>
-7.7187

> <Gold.Chemscore.Metal.Weighted>
-0.0000

> <Gold.Chemscore.Lipo.Weighted>
-12.2172

> <Gold.Chemscore.Internal_Hbond.Weighted>
0.0000

> <Gold.Chemscore.DEClash.Weighted>
0.0353

> <Gold.Chemscore.DEInternal.Weighted>
1.7023

> <Gold.Chemscore.Rot.Weighted>
5.1960

> <Gold.Chemscore.Internal.Correction.Weighted>
   9.000000E+99

> <Gold.Protein.RotatedTorsions>
[ 6907 6896 6895 6894 ] final -176.53 input  -60.11 | X-H torsion
[ 7974 7965 7964 7962 ] final -100.40 input  175.53 | X-H torsion
[ 8008 7997 7996 7995 ] final  -29.22 input   59.86 | X-H torsion
[ 10167 10162 10161 10158 ] final  107.58 input  -65.29 | X-H torsion
[ 10718 10713 10712 10709 ] final    4.88 input   66.30 | X-H torsion
[ 10763 10752 10751 10750 ] final  -82.41 input  -60.55 | X-H torsion
[ 11005 11000 10999 10996 ] final  133.20 input  -57.11 | X-H torsion

> <Gold.Protein.ActiveResidues>
 VAL166  LYS551  ARG553  GLY616  TRP617  ASP618  TYR619  PRO620  LYS621  CYS622 
 ASP623  PHE694  ASN695  SER759  ASP760  ASP761  ALA762  ILE779  LEU786  VAL792 
 PHE793  MET794  SER795  GLU796  ALA797  LYS798  CYS799  TRP800  GLU811  SER814 

> <Gold.Protein.RotatedAtoms>
  151.6063  133.3351  159.3057 H   0  0  0  0  0  0  0  0  0  0  0  0  # atno 6907 bound_to 6896
  150.8180  134.7377  159.6759 H   0  0  0  0  0  0  0  0  0  0  0  0  # atno 6908 bound_to 6896
  152.4275  134.5845  160.0008 H   0  0  0  0  0  0  0  0  0  0  0  0  # atno 6909 bound_to 6896
  145.2950  140.9363  143.2856 H   0  0  0  0  0  0  0  0  0  0  0  0  # atno 7974 bound_to 7965
  154.4299  140.1824  156.1213 H   0  0  0  0  0  0  0  0  0  0  0  0  # atno 8008 bound_to 7997
  156.0141  140.3347  155.6945 H   0  0  0  0  0  0  0  0  0  0  0  0  # atno 8009 bound_to 7997
  155.6069  140.0646  157.2708 H   0  0  0  0  0  0  0  0  0  0  0  0  # atno 8010 bound_to 7997
  139.6915  144.7107  151.1339 H   0  0  0  0  0  0  0  0  0  0  0  0  # atno 10167 bound_to 10162
  156.8992  130.5715  149.5648 H   0  0  0  0  0  0  0  0  0  0  0  0  # atno 10718 bound_to 10713
  154.5754  135.5592  153.7135 H   0  0  0  0  0  0  0  0  0  0  0  0  # atno 10763 bound_to 10752
  153.0063  135.6307  154.2056 H   0  0  0  0  0  0  0  0  0  0  0  0  # atno 10764 bound_to 10752
  154.1996  135.2878  155.2975 H   0  0  0  0  0  0  0  0  0  0  0  0  # atno 10765 bound_to 10752
  139.9837  134.9539  156.9691 H   0  0  0  0  0  0  0  0  0  0  0  0  # atno 11005 bound_to 11000
  144.9140  139.4493  143.6573 LP  0  0  0  0  0  0  0  0  0  0  0  0  # atno 17320 bound_to 7965
  146.3172  139.7965  142.8974 LP  0  0  0  0  0  0  0  0  0  0  0  0  # atno 17321 bound_to 7965
  140.7684  143.5552  150.9160 LP  0  0  0  0  0  0  0  0  0  0  0  0  # atno 17342 bound_to 10162
  139.9229  143.6584  152.3093 LP  0  0  0  0  0  0  0  0  0  0  0  0  # atno 17343 bound_to 10162
  156.0590  130.5646  150.9153 LP  0  0  0  0  0  0  0  0  0  0  0  0  # atno 17370 bound_to 10713
  157.6037  131.0940  150.8917 LP  0  0  0  0  0  0  0  0  0  0  0  0  # atno 17371 bound_to 10713
  140.5045  134.1064  155.7257 LP  0  0  0  0  0  0  0  0  0  0  0  0  # atno 17394 bound_to 11000
  141.1505  133.8977  157.2109 LP  0  0  0  0  0  0  0  0  0  0  0  0  # atno 17395 bound_to 11000

$$$$
