AV-unprocessed.smi:528|AV-procd|sdf|2831|dock7
  -GOLD-   2262023323D 1   1.00000     0.00000
 Structure written by MMmdl.
 45 47  0  0  0  0  0  0  0  0  1 V2000
  154.2837  137.2297  163.3736 C   0  0  0  0  0  0  0  0  0  0  0  0
  154.6917  138.7097  163.3100 C   0  0  2  0  0  0  0  0  0  0  0  0
  154.6808  139.1432  161.9142 N   0  0  0  0  0  0  0  0  0  0  0  0
  154.5974  140.4115  161.4828 C   0  0  0  0  0  0  0  0  0  0  0  0
  154.4647  141.3769  162.2360 O   0  0  0  0  0  0  0  0  0  0  0  0
  154.6718  140.6079  159.9628 C   0  0  0  0  0  0  0  0  0  0  0  0
  153.4788  141.2770  159.4194 N   0  0  0  0  0  0  0  0  0  0  0  0
  153.1411  142.5209  159.9878 C   0  0  0  0  0  0  0  0  0  0  0  0
  152.0758  143.2435  159.5928 C   0  0  0  0  0  0  0  0  0  0  0  0
  151.7033  144.5517  160.2726 C   0  0  0  0  0  0  0  0  0  0  0  0
  152.2548  144.6396  161.4831 F   0  0  0  0  0  0  0  0  0  0  0  0
  152.1056  145.5990  159.5515 F   0  0  0  0  0  0  0  0  0  0  0  0
  150.3805  144.6286  160.4117 F   0  0  0  0  0  0  0  0  0  0  0  0
  151.2529  142.6613  158.5509 C   0  0  0  0  0  0  0  0  0  0  0  0
  151.5536  141.4658  158.0064 C   0  0  0  0  0  0  0  0  0  0  0  0
  152.7232  140.6972  158.4395 C   0  0  0  0  0  0  0  0  0  0  0  0
  153.0025  139.6013  157.9533 O   0  0  0  0  0  0  0  0  0  0  0  0
  156.0908  138.9572  163.9229 C   0  0  2  0  0  0  0  0  0  0  0  0
  156.2698  138.4478  165.3710 C   0  0  0  0  0  0  0  0  0  0  0  0
  156.8871  139.6610  166.0924 C   0  0  2  0  0  0  0  0  0  0  0  0
  155.7970  140.7262  166.3081 C   0  0  0  0  0  0  0  0  0  0  0  0
  155.5775  141.2757  164.8874 C   0  0  0  0  0  0  0  0  0  0  0  0
  156.5522  140.4329  164.0383 C   0  0  1  0  0  0  0  0  0  0  0  0
  157.7329  140.2962  164.9944 C   0  0  0  0  0  0  0  0  0  0  0  0
  154.2447  136.8718  164.4025 H   0  0  0  0  0  0  0  0  0  0  0  0
  154.9870  136.5990  162.8290 H   0  0  0  0  0  0  0  0  0  0  0  0
  153.2950  137.0776  162.9391 H   0  0  0  0  0  0  0  0  0  0  0  0
  153.9548  139.2711  163.8857 H   0  0  0  0  0  0  0  0  0  0  0  0
  154.7763  138.4178  161.2186 H   0  0  0  0  0  0  0  0  0  0  0  0
  155.5586  141.1944  159.7155 H   0  0  0  0  0  0  0  0  0  0  0  0
  154.8351  139.6358  159.4949 H   0  0  0  0  0  0  0  0  0  0  0  0
  153.8019  142.8446  160.7795 H   0  0  0  0  0  0  0  0  0  0  0  0
  150.3820  143.1934  158.1978 H   0  0  0  0  0  0  0  0  0  0  0  0
  150.9188  141.0630  157.2308 H   0  0  0  0  0  0  0  0  0  0  0  0
  156.8200  138.4431  163.2936 H   0  0  0  0  0  0  0  0  0  0  0  0
  155.3322  138.1392  165.8352 H   0  0  0  0  0  0  0  0  0  0  0  0
  156.9459  137.5922  165.3935 H   0  0  0  0  0  0  0  0  0  0  0  0
  157.4289  139.4004  167.0020 H   0  0  0  0  0  0  0  0  0  0  0  0
  154.8862  140.3070  166.7372 H   0  0  0  0  0  0  0  0  0  0  0  0
  156.1484  141.5154  166.9739 H   0  0  0  0  0  0  0  0  0  0  0  0
  154.5406  141.1995  164.5638 H   0  0  0  0  0  0  0  0  0  0  0  0
  155.8515  142.3307  164.8443 H   0  0  0  0  0  0  0  0  0  0  0  0
  156.7996  140.8898  163.0796 H   0  0  0  0  0  0  0  0  0  0  0  0
  158.1705  141.2534  165.2840 H   0  0  0  0  0  0  0  0  0  0  0  0
  158.5222  139.6407  164.6221 H   0  0  0  0  0  0  0  0  0  0  0  0
  1  2  1  0  0  0  0
  1 25  1  0  0  0  0
  1 26  1  0  0  0  0
  1 27  1  0  0  0  0
  2  3  1  0  0  0  0
  2 18  1  0  0  0  0
  2 28  1  0  0  0  0
  3  4  1  0  0  0  0
  3 29  1  0  0  0  0
  4  5  2  0  0  0  0
  4  6  1  0  0  0  0
  6  7  1  0  0  0  0
  6 30  1  0  0  0  0
  6 31  1  0  0  0  0
  7 16  1  0  0  0  0
  7  8  1  0  0  0  0
  8  9  2  0  0  0  0
  8 32  1  0  0  0  0
  9 10  1  0  0  0  0
  9 14  1  0  0  0  0
 10 11  1  0  0  0  0
 10 12  1  0  0  0  0
 10 13  1  0  0  0  0
 14 15  2  0  0  0  0
 14 33  1  0  0  0  0
 15 16  1  0  0  0  0
 15 34  1  0  0  0  0
 16 17  2  0  0  0  0
 18 23  1  0  0  0  0
 18 19  1  0  0  0  0
 18 35  1  0  0  0  0
 19 20  1  0  0  0  0
 19 36  1  0  0  0  0
 19 37  1  0  0  0  0
 20 24  1  0  0  0  0
 20 21  1  0  0  0  0
 20 38  1  0  0  0  0
 21 22  1  0  0  0  0
 21 39  1  0  0  0  0
 21 40  1  0  0  0  0
 22 23  1  0  0  0  0
 22 41  1  0  0  0  0
 22 42  1  0  0  0  0
 23 24  1  0  0  0  0
 23 43  1  0  0  0  0
 24 44  1  0  0  0  0
 24 45  1  0  0  0  0
M  END
> <s_m_source_file>
AV-unprocessed.smi

> <i_m_source_file_index>
528

> <i_lp_mmshare_version>
43012

> <i_f3d_flags>
0

> <s_epik_input>
W0NIMl0xW0NIMl1bQ0BASF0oW0NIMl0yKVtDQEBIXShbQ0gyXVtDQEhdMTIpW0NASF0oW0NIM10pW05IXUMoPU8pW0NIMl1uM1tjSF1jKEMoRikoRilGKVtjSF1bY0hdYzM9Tw==

> <s_epik_cmdline>
J2VwaWtfcHl0aG9uJywgJy1waCcsICc3LjAnLCAnLXRuJywgJzgnLCAnLW1hJywgJzIwMCcsICctbWV0YWxfYmluZGluZycsICctaW1hZScsICc8aW5maWxlLm1hZT4nLCAnLW9tYWUnLCAnPG91dGZpbGUubWFlPic=

> <r_lp_tautomer_probability>
1

> <r_epik_Ionization_Penalty>
4.09479e-08

> <r_epik_Ionization_Penalty_Charging>
1.9321e-08

> <r_epik_Ionization_Penalty_Neutral>
2.16269e-08

> <r_epik_State_Penalty>
-0

> <r_epik_Charging_Adjusted_Penalty>
1.9321e-08

> <i_epik_Tot_Q>
0

> <i_epik_Tot_abs_Q>
0

> <r_epik_Metal_State_Penalty>
-0

> <b_epik_Metal_Only>
0

> <s_lp_Force_Field>
OPLS_2005

> <r_lp_Energy>
62.8802

> <b_lp_Chiralities_Consistent>
1

> <s_lp_Variant>
AV-unprocessed.smi:528-1

> <Gold.Version>
5.8.1

> <Gold.Id.Protein>
6NUR|6NUR_protein|mol2

> <Gold.PLP.Fitness>
47.3090

> <Gold.PLP.PLP>
-47.0249

> <Gold.PLP.part.hbond>
-2.0000

> <Gold.PLP.part.metal>
0.0000

> <Gold.PLP.part.buried>
-4.5265

> <Gold.PLP.part.nonpolar>
-38.9498

> <Gold.PLP.part.repulsive>
0.0000

> <Gold.PLP.ligand.clash>
0.3443

> <Gold.PLP.ligand.torsion>
1.2125

> <Gold.PLP.Chemscore.Hbond>
1.0000

> <Gold.PLP.Chemscore.CHOScore>
0.0000

> <Gold.PLP.Chemscore.Metal>
0.0000

> <Gold.Chemscore.Hbonds>
donor molecule, donor type, donor heavy atom, donor atom, acceptor molecule, acceptor atom, score
      P1  H  7997  8008       L1    17  1.00

> <Gold.PLP.Chemscore.Internal.Correction>
0.0534

> <Gold.Rescore>
     Score         DG    S(hbond)    S(metal)    S(lipo)     H(rot)  DE(clash)    DE(int)     intcor
     11.02     -16.18       0.85        0.00     104.55       1.71       0.30       4.86       ----

> <Gold.Chemscore.Fitness>
11.0242

> <Gold.Chemscore.DG>
-16.1838

> <Gold.Chemscore.ZeroCoef>
-5.4800

> <Gold.Chemscore.Hbond>
0.8549

> <Gold.Chemscore.Metal>
0.0000

> <Gold.Chemscore.Lipo>
104.5516

> <Gold.Chemscore.Internal_Hbond>
0.0000

> <Gold.Chemscore.DEClash>
0.2971

> <Gold.Chemscore.DEInternal>
4.8624

> <Gold.Chemscore.Rot>
1.7125

> <Gold.Chemscore.Internal.Correction>
   9.000000E+99

> <Gold.Chemscore.Hbonds>
donor molecule, donor type, donor heavy atom, donor atom, acceptor molecule, acceptor atom, score
      P1  H  7997  8008       L1    17  0.26

> <Gold.Chemscore.Hbond.Weighted>
-2.8552

> <Gold.Chemscore.Metal.Weighted>
-0.0000

> <Gold.Chemscore.Lipo.Weighted>
-12.2325

> <Gold.Chemscore.Internal_Hbond.Weighted>
0.0000

> <Gold.Chemscore.DEClash.Weighted>
0.2971

> <Gold.Chemscore.DEInternal.Weighted>
4.8624

> <Gold.Chemscore.Rot.Weighted>
4.3840

> <Gold.Chemscore.Internal.Correction.Weighted>
   9.000000E+99

> <Gold.Protein.RotatedTorsions>
[ 6907 6896 6895 6894 ] final  -96.45 input  -60.11 | X-H torsion
[ 7974 7965 7964 7962 ] final  112.49 input  175.53 | X-H torsion
[ 8008 7997 7996 7995 ] final  -85.35 input   59.86 | X-H torsion
[ 10167 10162 10161 10158 ] final -178.93 input  -65.29 | X-H torsion
[ 10718 10713 10712 10709 ] final  157.15 input   66.30 | X-H torsion
[ 10763 10752 10751 10750 ] final  135.95 input  -60.55 | X-H torsion
[ 11005 11000 10999 10996 ] final  119.60 input  -57.11 | X-H torsion

> <Gold.Protein.ActiveResidues>
 VAL166  LYS551  ARG553  GLY616  TRP617  ASP618  TYR619  PRO620  LYS621  CYS622 
 ASP623  PHE694  ASN695  SER759  ASP760  ASP761  ALA762  ILE779  LEU786  VAL792 
 PHE793  MET794  SER795  GLU796  ALA797  LYS798  CYS799  TRP800  GLU811  SER814 

> <Gold.Protein.RotatedAtoms>
  150.6989  134.1501  159.4137 H   0  0  0  0  0  0  0  0  0  0  0  0  # atno 6907 bound_to 6896
  151.9484  135.0178  160.0549 H   0  0  0  0  0  0  0  0  0  0  0  0  # atno 6908 bound_to 6896
  152.2032  133.4821  159.5107 H   0  0  0  0  0  0  0  0  0  0  0  0  # atno 6909 bound_to 6896
  145.2289  139.2828  143.4178 H   0  0  0  0  0  0  0  0  0  0  0  0  # atno 7974 bound_to 7965
  154.6398  140.0592  156.9832 H   0  0  0  0  0  0  0  0  0  0  0  0  # atno 8008 bound_to 7997
  155.1534  140.3276  155.4408 H   0  0  0  0  0  0  0  0  0  0  0  0  # atno 8009 bound_to 7997
  156.2525  140.1943  156.6645 H   0  0  0  0  0  0  0  0  0  0  0  0  # atno 8010 bound_to 7997
  139.5409  144.2364  152.0894 H   0  0  0  0  0  0  0  0  0  0  0  0  # atno 10167 bound_to 10162
  157.1954  131.0664  151.2056 H   0  0  0  0  0  0  0  0  0  0  0  0  # atno 10718 bound_to 10713
  153.8484  135.3082  155.3431 H   0  0  0  0  0  0  0  0  0  0  0  0  # atno 10763 bound_to 10752
  154.7902  135.4787  154.0038 H   0  0  0  0  0  0  0  0  0  0  0  0  # atno 10764 bound_to 10752
  153.1533  135.6847  153.8942 H   0  0  0  0  0  0  0  0  0  0  0  0  # atno 10765 bound_to 10752
  139.9153  134.9629  156.7680 H   0  0  0  0  0  0  0  0  0  0  0  0  # atno 11005 bound_to 11000
  146.3358  140.2618  142.8602 LP  0  0  0  0  0  0  0  0  0  0  0  0  # atno 17320 bound_to 7965
  144.9695  140.8355  143.5464 LP  0  0  0  0  0  0  0  0  0  0  0  0  # atno 17321 bound_to 7965
  140.1843  144.4814  150.6512 LP  0  0  0  0  0  0  0  0  0  0  0  0  # atno 17342 bound_to 10162
  140.6639  143.2261  151.5790 LP  0  0  0  0  0  0  0  0  0  0  0  0  # atno 17343 bound_to 10162
  157.3820  130.7236  149.6636 LP  0  0  0  0  0  0  0  0  0  0  0  0  # atno 17370 bound_to 10713
  155.9706  130.4170  150.4257 LP  0  0  0  0  0  0  0  0  0  0  0  0  # atno 17371 bound_to 10713
  140.6644  133.9616  155.7822 LP  0  0  0  0  0  0  0  0  0  0  0  0  # atno 17394 bound_to 11000
  141.0621  134.0331  157.3644 LP  0  0  0  0  0  0  0  0  0  0  0  0  # atno 17395 bound_to 11000

$$$$
