AV-unprocessed.smi:2273|AV-procd|sdf|9164|dock9
  -GOLD-   2272012373D 1   1.00000     0.00000
 Structure written by MMmdl.
 53 54  0  0  0  0  0  0  0  0  1 V2000
  150.4932  141.6896  155.9041 C   0  0  0  0  0  0  0  0  0  0  0  0
  149.0412  141.3729  155.5265 C   0  0  0  0  0  0  0  0  0  0  0  0
  148.8378  140.4787  154.2733 C   0  0  0  0  0  0  0  0  0  0  0  0
  147.3221  140.3072  153.9843 C   0  0  0  0  0  0  0  0  0  0  0  0
  146.9793  139.3332  152.8459 C   0  0  0  0  0  0  0  0  0  0  0  0
  149.5630  139.1053  154.4136 C   0  0  2  0  0  0  0  0  0  0  0  0
  149.1296  138.3111  155.6719 C   0  0  0  0  0  0  0  0  0  0  0  0
  149.8521  136.9540  155.7668 C   0  0  1  0  0  0  0  0  0  0  0  0
  149.3931  136.0295  154.7245 N   0  0  0  0  0  0  0  0  0  0  0  0
  149.0216  134.7427  154.8484 C   0  0  0  0  0  0  0  0  0  0  0  0
  149.0428  134.1739  155.9387 O   0  0  0  0  0  0  0  0  0  0  0  0
  148.6466  134.1565  153.6930 N   0  0  0  0  0  0  0  0  0  0  0  0
  148.2275  132.8270  153.5225 C   0  0  0  0  0  0  0  0  0  0  0  0
  147.0967  132.5836  152.8088 C   0  0  0  0  0  0  0  0  0  0  0  0
  146.3030  133.7044  152.1570 C   0  0  0  0  0  0  0  0  0  0  0  0
  146.6504  131.2166  152.6389 C   0  0  0  0  0  0  0  0  0  0  0  0
  147.3528  130.2201  153.1940 C   0  0  0  0  0  0  0  0  0  0  0  0
  148.5041  130.4662  153.9551 N   0  0  0  0  0  0  0  0  0  0  0  0
  149.1929  129.3103  154.5348 C   0  0  0  0  0  0  0  0  0  0  0  0
  148.9650  131.7279  154.1937 C   0  0  0  0  0  0  0  0  0  0  0  0
  149.9266  131.9154  154.9425 O   0  0  0  0  0  0  0  0  0  0  0  0
  151.3671  137.1763  155.6527 C   0  0  0  0  0  0  0  0  0  0  0  0
  151.7129  138.0614  154.4448 C   0  0  0  0  0  0  0  0  0  0  0  0
  150.9776  139.2787  154.5122 O   0  0  0  0  0  0  0  0  0  0  0  0
  150.5273  142.4212  156.7117 H   0  0  0  0  0  0  0  0  0  0  0  0
  151.0390  142.1080  155.0584 H   0  0  0  0  0  0  0  0  0  0  0  0
  151.0198  140.8032  156.2574 H   0  0  0  0  0  0  0  0  0  0  0  0
  148.5446  140.9184  156.3845 H   0  0  0  0  0  0  0  0  0  0  0  0
  148.5492  142.3318  155.3705 H   0  0  0  0  0  0  0  0  0  0  0  0
  149.2607  140.9965  153.4111 H   0  0  0  0  0  0  0  0  0  0  0  0
  146.8232  139.9207  154.8731 H   0  0  0  0  0  0  0  0  0  0  0  0
  146.8702  141.2785  153.7800 H   0  0  0  0  0  0  0  0  0  0  0  0
  145.9044  139.1566  152.8061 H   0  0  0  0  0  0  0  0  0  0  0  0
  147.4668  138.3687  152.9902 H   0  0  0  0  0  0  0  0  0  0  0  0
  147.2723  139.7221  151.8713 H   0  0  0  0  0  0  0  0  0  0  0  0
  149.3640  138.5231  153.5120 H   0  0  0  0  0  0  0  0  0  0  0  0
  149.3688  138.8991  156.5591 H   0  0  0  0  0  0  0  0  0  0  0  0
  148.0539  138.1580  155.7071 H   0  0  0  0  0  0  0  0  0  0  0  0
  149.6584  136.5105  156.7445 H   0  0  0  0  0  0  0  0  0  0  0  0
  149.3066  136.4283  153.8007 H   0  0  0  0  0  0  0  0  0  0  0  0
  148.7844  134.6851  152.8442 H   0  0  0  0  0  0  0  0  0  0  0  0
  145.3935  133.3250  151.6906 H   0  0  0  0  0  0  0  0  0  0  0  0
  146.9006  134.1862  151.3842 H   0  0  0  0  0  0  0  0  0  0  0  0
  146.0131  134.4552  152.8929 H   0  0  0  0  0  0  0  0  0  0  0  0
  145.7643  130.9947  152.0623 H   0  0  0  0  0  0  0  0  0  0  0  0
  147.0713  129.1815  153.0993 H   0  0  0  0  0  0  0  0  0  0  0  0
  150.2530  129.3222  154.2762 H   0  0  0  0  0  0  0  0  0  0  0  0
  148.7886  128.3601  154.1839 H   0  0  0  0  0  0  0  0  0  0  0  0
  149.1078  129.3229  155.6222 H   0  0  0  0  0  0  0  0  0  0  0  0
  151.7235  137.6669  156.5594 H   0  0  0  0  0  0  0  0  0  0  0  0
  151.8943  136.2234  155.5923 H   0  0  0  0  0  0  0  0  0  0  0  0
  152.7777  138.2941  154.4468 H   0  0  0  0  0  0  0  0  0  0  0  0
  151.5051  137.5460  153.5059 H   0  0  0  0  0  0  0  0  0  0  0  0
  1  2  1  0  0  0  0
  1 25  1  0  0  0  0
  1 26  1  0  0  0  0
  1 27  1  0  0  0  0
  2  3  1  0  0  0  0
  2 28  1  0  0  0  0
  2 29  1  0  0  0  0
  3  4  1  0  0  0  0
  3  6  1  0  0  0  0
  3 30  1  0  0  0  0
  4  5  1  0  0  0  0
  4 31  1  0  0  0  0
  4 32  1  0  0  0  0
  5 33  1  0  0  0  0
  5 34  1  0  0  0  0
  5 35  1  0  0  0  0
  6 24  1  0  0  0  0
  6  7  1  0  0  0  0
  6 36  1  0  0  0  0
  7  8  1  0  0  0  0
  7 37  1  0  0  0  0
  7 38  1  0  0  0  0
  8  9  1  0  0  0  0
  8 22  1  0  0  0  0
  8 39  1  0  0  0  0
  9 10  1  0  0  0  0
  9 40  1  0  0  0  0
 10 11  2  0  0  0  0
 10 12  1  0  0  0  0
 12 13  1  0  0  0  0
 12 41  1  0  0  0  0
 13 20  1  0  0  0  0
 13 14  2  0  0  0  0
 14 15  1  0  0  0  0
 14 16  1  0  0  0  0
 15 42  1  0  0  0  0
 15 43  1  0  0  0  0
 15 44  1  0  0  0  0
 16 17  2  0  0  0  0
 16 45  1  0  0  0  0
 17 18  1  0  0  0  0
 17 46  1  0  0  0  0
 18 19  1  0  0  0  0
 18 20  1  0  0  0  0
 19 47  1  0  0  0  0
 19 48  1  0  0  0  0
 19 49  1  0  0  0  0
 20 21  2  0  0  0  0
 22 23  1  0  0  0  0
 22 50  1  0  0  0  0
 22 51  1  0  0  0  0
 23 24  1  0  0  0  0
 23 52  1  0  0  0  0
 23 53  1  0  0  0  0
M  END
> <s_m_source_file>
AV-unprocessed.smi

> <i_m_source_file_index>
2273

> <i_lp_mmshare_version>
43012

> <i_f3d_flags>
0

> <s_epik_input>
W0NIM11bQ0gyXVtDSF0oW0NIMl1bQ0gzXSlbQ0BASF0xW0NIMl1bQ0BIXShbQ0gyXVtDSDJdTzEpW05IXUMoPU8pW05IXWMyYyhbQ0gzXSlbY0hdW2NIXW4oW0NIM10pYzI9Tw==

> <s_epik_cmdline>
J2VwaWtfcHl0aG9uJywgJy1waCcsICc3LjAnLCAnLXRuJywgJzgnLCAnLW1hJywgJzIwMCcsICctbWV0YWxfYmluZGluZycsICctaW1hZScsICc8aW5maWxlLm1hZT4nLCAnLW9tYWUnLCAnPG91dGZpbGUubWFlPic=

> <r_lp_tautomer_probability>
1

> <r_epik_Ionization_Penalty>
2.66245e-05

> <r_epik_Ionization_Penalty_Charging>
6.91055e-06

> <r_epik_Ionization_Penalty_Neutral>
1.97139e-05

> <r_epik_State_Penalty>
-0

> <r_epik_Charging_Adjusted_Penalty>
6.91055e-06

> <i_epik_Tot_Q>
0

> <i_epik_Tot_abs_Q>
0

> <r_epik_Metal_State_Penalty>
-0

> <b_epik_Metal_Only>
0

> <s_lp_Force_Field>
OPLS_2005

> <r_lp_Energy>
42.8548

> <b_lp_Chiralities_Consistent>
1

> <s_lp_Variant>
AV-unprocessed.smi:2273-1

> <Gold.Version>
5.8.1

> <Gold.Id.Protein>
6NUR|6NUR_protein|mol2

> <Gold.PLP.Fitness>
48.1411

> <Gold.PLP.PLP>
-40.8779

> <Gold.PLP.part.hbond>
-3.0000

> <Gold.PLP.part.metal>
0.0000

> <Gold.PLP.part.buried>
-4.4718

> <Gold.PLP.part.nonpolar>
-34.1216

> <Gold.PLP.part.repulsive>
0.1852

> <Gold.PLP.ligand.clash>
0.0000

> <Gold.PLP.ligand.torsion>
0.6126

> <Gold.PLP.Chemscore.Hbond>
2.6420

> <Gold.PLP.Chemscore.CHOScore>
0.0000

> <Gold.PLP.Chemscore.Metal>
0.0000

> <Gold.Chemscore.Hbonds>
donor molecule, donor type, donor heavy atom, donor atom, acceptor molecule, acceptor atom, score
      L1  H     9    40       P1  7948  1.00
      L1  H    12    41       P1  7948  0.70
      P1  H  7989  7998       L1    24  1.00

> <Gold.PLP.Chemscore.Internal.Correction>
0.5623

> <Gold.Rescore>
     Score         DG    S(hbond)    S(metal)    S(lipo)     H(rot)  DE(clash)    DE(int)     intcor
     15.36     -18.55       1.89        0.00      88.95       1.42       0.03       3.16       ----

> <Gold.Chemscore.Fitness>
15.3604

> <Gold.Chemscore.DG>
-18.5495

> <Gold.Chemscore.ZeroCoef>
-5.4800

> <Gold.Chemscore.Hbond>
1.8882

> <Gold.Chemscore.Metal>
0.0000

> <Gold.Chemscore.Lipo>
88.9533

> <Gold.Chemscore.Internal_Hbond>
0.0000

> <Gold.Chemscore.DEClash>
0.0294

> <Gold.Chemscore.DEInternal>
3.1597

> <Gold.Chemscore.Rot>
1.4236

> <Gold.Chemscore.Internal.Correction>
   9.000000E+99

> <Gold.Chemscore.Hbonds>
donor molecule, donor type, donor heavy atom, donor atom, acceptor molecule, acceptor atom, score
      L1  H     9    40       P1  7948  0.85
      L1  H    12    41       P1  7948  0.07
      P1  H  7989  7998       L1    24  0.80

> <Gold.Chemscore.Hbond.Weighted>
-6.3064

> <Gold.Chemscore.Metal.Weighted>
-0.0000

> <Gold.Chemscore.Lipo.Weighted>
-10.4075

> <Gold.Chemscore.Internal_Hbond.Weighted>
0.0000

> <Gold.Chemscore.DEClash.Weighted>
0.0294

> <Gold.Chemscore.DEInternal.Weighted>
3.1597

> <Gold.Chemscore.Rot.Weighted>
3.6445

> <Gold.Chemscore.Internal.Correction.Weighted>
   9.000000E+99

> <Gold.Protein.RotatedTorsions>
[ 6907 6896 6895 6894 ] final  154.43 input  -60.11 | X-H torsion
[ 7974 7965 7964 7962 ] final  -86.63 input  175.53 | X-H torsion
[ 8008 7997 7996 7995 ] final -109.43 input   59.86 | X-H torsion
[ 10167 10162 10161 10158 ] final  116.62 input  -65.29 | X-H torsion
[ 10718 10713 10712 10709 ] final  -65.78 input   66.30 | X-H torsion
[ 10763 10752 10751 10750 ] final -163.83 input  -60.55 | X-H torsion
[ 11005 11000 10999 10996 ] final  -51.07 input  -57.11 | X-H torsion

> <Gold.Protein.ActiveResidues>
 VAL166  LYS551  ARG553  GLY616  TRP617  ASP618  TYR619  PRO620  LYS621  CYS622 
 ASP623  PHE694  ASN695  SER759  ASP760  ASP761  ALA762  ILE779  LEU786  VAL792 
 PHE793  MET794  SER795  GLU796  ALA797  LYS798  CYS799  TRP800  GLU811  SER814 

> <Gold.Protein.RotatedAtoms>
  152.0586  133.4051  159.4407 H   0  0  0  0  0  0  0  0  0  0  0  0  # atno 6907 bound_to 6896
  150.6867  134.3226  159.4802 H   0  0  0  0  0  0  0  0  0  0  0  0  # atno 6908 bound_to 6896
  152.1044  134.9318  160.0619 H   0  0  0  0  0  0  0  0  0  0  0  0  # atno 6909 bound_to 6896
  145.4773  140.9558  143.1884 H   0  0  0  0  0  0  0  0  0  0  0  0  # atno 7974 bound_to 7965
  154.9593  140.0399  157.2182 H   0  0  0  0  0  0  0  0  0  0  0  0  # atno 8008 bound_to 7997
  154.7904  140.2834  155.5973 H   0  0  0  0  0  0  0  0  0  0  0  0  # atno 8009 bound_to 7997
  156.2949  140.2574  156.2750 H   0  0  0  0  0  0  0  0  0  0  0  0  # atno 8010 bound_to 7997
  139.6234  144.7104  151.2585 H   0  0  0  0  0  0  0  0  0  0  0  0  # atno 10167 bound_to 10162
  156.0650  130.4252  150.1613 H   0  0  0  0  0  0  0  0  0  0  0  0  # atno 10718 bound_to 10713
  154.7085  135.3001  154.9233 H   0  0  0  0  0  0  0  0  0  0  0  0  # atno 10763 bound_to 10752
  154.0142  135.6691  153.4771 H   0  0  0  0  0  0  0  0  0  0  0  0  # atno 10764 bound_to 10752
  153.0736  135.5047  154.8270 H   0  0  0  0  0  0  0  0  0  0  0  0  # atno 10765 bound_to 10752
  141.0851  133.6644  156.3823 H   0  0  0  0  0  0  0  0  0  0  0  0  # atno 11005 bound_to 11000
  144.7910  139.6329  143.7113 LP  0  0  0  0  0  0  0  0  0  0  0  0  # atno 17320 bound_to 7965
  146.2362  139.5909  142.9522 LP  0  0  0  0  0  0  0  0  0  0  0  0  # atno 17321 bound_to 7965
  140.7396  143.6612  150.8162 LP  0  0  0  0  0  0  0  0  0  0  0  0  # atno 17342 bound_to 10162
  140.0227  143.5526  152.2794 LP  0  0  0  0  0  0  0  0  0  0  0  0  # atno 17343 bound_to 10162
  156.9675  130.9824  151.3466 LP  0  0  0  0  0  0  0  0  0  0  0  0  # atno 17370 bound_to 10713
  157.5685  130.8294  149.8360 LP  0  0  0  0  0  0  0  0  0  0  0  0  # atno 17371 bound_to 10713
  140.5382  134.6146  157.5371 LP  0  0  0  0  0  0  0  0  0  0  0  0  # atno 17394 bound_to 11000
  139.9668  134.7359  156.0122 LP  0  0  0  0  0  0  0  0  0  0  0  0  # atno 17395 bound_to 11000

$$$$
