AV-unprocessed.smi:102|AV-procd|sdf|946|dock5
  -GOLD-   2262017473D 1   1.00000     0.00000
 Structure written by MMmdl.
 44 45  0  0  0  0  0  0  0  0  1 V2000
  146.9079  135.1041  160.8465 C   0  0  0  0  0  0  0  0  0  0  0  0
  147.5077  136.4992  160.7296 C   0  0  0  0  0  0  0  0  0  0  0  0
  147.9267  137.1034  161.7170 O   0  0  0  0  0  0  0  0  0  0  0  0
  147.5099  136.9523  159.4663 O   0  0  0  0  0  0  0  0  0  0  0  0
  148.4385  137.9523  159.0794 C   0  0  0  0  0  0  0  0  0  0  0  0
  149.8550  137.3479  159.0576 C   0  0  1  0  0  0  0  0  0  0  0  0
  149.8210  136.0927  158.3772 O   0  0  0  0  0  0  0  0  0  0  0  0
  150.2531  136.2136  157.0495 C   0  0  1  0  0  0  0  0  0  0  0  0
  149.1627  135.7420  156.1073 N   0  0  0  0  0  0  0  0  0  0  0  0
  147.9322  135.2788  156.5573 C   0  0  0  0  0  0  0  0  0  0  0  0
  146.9453  134.8796  155.7209 C   0  0  0  0  0  0  0  0  0  0  0  0
  145.7802  134.4454  156.2306 F   0  0  0  0  0  0  0  0  0  0  0  0
  147.1352  134.9138  154.2738 C   0  0  0  0  0  0  0  0  0  0  0  0
  146.2995  134.5774  153.4372 O   0  0  0  0  0  0  0  0  0  0  0  0
  148.3905  135.3749  153.8672 N   0  0  0  0  0  0  0  0  0  0  0  0
  149.4158  135.7891  154.7187 C   0  0  0  0  0  0  0  0  0  0  0  0
  150.4837  136.1847  154.2535 O   0  0  0  0  0  0  0  0  0  0  0  0
  150.6496  137.6875  156.8224 C   0  0  1  0  0  0  0  0  0  0  0  0
  149.5903  138.4123  156.1948 O   0  0  0  0  0  0  0  0  0  0  0  0
  149.8436  139.3039  155.2222 C   0  0  0  0  0  0  0  0  0  0  0  0
  148.5698  139.8211  154.5681 C   0  0  0  0  0  0  0  0  0  0  0  0
  150.9544  139.6911  154.8606 O   0  0  0  0  0  0  0  0  0  0  0  0
  150.8805  138.1514  158.2541 C   0  0  1  0  0  0  0  0  0  0  0  0
  150.7719  139.5597  158.4331 O   0  0  0  0  0  0  0  0  0  0  0  0
  151.5626  140.3940  157.7355 C   0  0  0  0  0  0  0  0  0  0  0  0
  151.2453  141.8580  158.0081 C   0  0  0  0  0  0  0  0  0  0  0  0
  152.4459  140.0630  156.9447 O   0  0  0  0  0  0  0  0  0  0  0  0
  148.5684  135.4139  152.8741 H   0  0  0  0  0  0  0  0  0  0  0  0
  146.0129  135.0207  160.2297 H   0  0  0  0  0  0  0  0  0  0  0  0
  146.6336  134.8918  161.8801 H   0  0  0  0  0  0  0  0  0  0  0  0
  147.6276  134.3545  160.5181 H   0  0  0  0  0  0  0  0  0  0  0  0
  148.1786  138.3640  158.1042 H   0  0  0  0  0  0  0  0  0  0  0  0
  148.3831  138.7680  159.8008 H   0  0  0  0  0  0  0  0  0  0  0  0
  150.2055  137.2110  160.0811 H   0  0  0  0  0  0  0  0  0  0  0  0
  151.0853  135.5216  156.9072 H   0  0  0  0  0  0  0  0  0  0  0  0
  147.7266  135.2219  157.6144 H   0  0  0  0  0  0  0  0  0  0  0  0
  151.5676  137.7214  156.2340 H   0  0  0  0  0  0  0  0  0  0  0  0
  147.7560  139.8626  155.2923 H   0  0  0  0  0  0  0  0  0  0  0  0
  148.2730  139.1635  153.7508 H   0  0  0  0  0  0  0  0  0  0  0  0
  148.7267  140.8229  154.1683 H   0  0  0  0  0  0  0  0  0  0  0  0
  151.8702  137.8157  158.5688 H   0  0  0  0  0  0  0  0  0  0  0  0
  151.1548  142.0358  159.0798 H   0  0  0  0  0  0  0  0  0  0  0  0
  150.3058  142.1344  157.5291 H   0  0  0  0  0  0  0  0  0  0  0  0
  152.0349  142.5000  157.6169 H   0  0  0  0  0  0  0  0  0  0  0  0
  1  2  1  0  0  0  0
  1 29  1  0  0  0  0
  1 30  1  0  0  0  0
  1 31  1  0  0  0  0
  2  3  2  0  0  0  0
  2  4  1  0  0  0  0
  4  5  1  0  0  0  0
  5  6  1  0  0  0  0
  5 32  1  0  0  0  0
  5 33  1  0  0  0  0
  6 23  1  0  0  0  0
  6  7  1  0  0  0  0
  6 34  1  0  0  0  0
  7  8  1  0  0  0  0
  8  9  1  0  0  0  0
  8 18  1  0  0  0  0
  8 35  1  0  0  0  0
  9 16  1  0  0  0  0
  9 10  1  0  0  0  0
 10 11  2  0  0  0  0
 10 36  1  0  0  0  0
 11 12  1  0  0  0  0
 11 13  1  0  0  0  0
 13 14  2  0  0  0  0
 13 15  1  0  0  0  0
 15 28  1  0  0  0  0
 15 16  1  0  0  0  0
 16 17  2  0  0  0  0
 18 19  1  0  0  0  0
 18 23  1  0  0  0  0
 18 37  1  0  0  0  0
 19 20  1  0  0  0  0
 20 21  1  0  0  0  0
 20 22  2  0  0  0  0
 21 38  1  0  0  0  0
 21 39  1  0  0  0  0
 21 40  1  0  0  0  0
 23 24  1  0  0  0  0
 23 41  1  0  0  0  0
 24 25  1  0  0  0  0
 25 26  1  0  0  0  0
 25 27  2  0  0  0  0
 26 42  1  0  0  0  0
 26 43  1  0  0  0  0
 26 44  1  0  0  0  0
M  END
> <s_m_source_file>
AV-unprocessed.smi

> <i_m_source_file_index>
102

> <i_lp_mmshare_version>
43012

> <i_f3d_flags>
0

> <s_epik_input>
W0NIM11DKD1PKU9bQ0gyXVtDQEBIXTFPW0NASF0oW0NAQEhdKE9DKD1PKVtDSDNdKVtDQEhdMU9DKD1PKVtDSDNdKW4yW2NIXWMoRiljKD1PKVtuSF1jMj1P

> <s_epik_cmdline>
J2VwaWtfcHl0aG9uJywgJy1waCcsICc3LjAnLCAnLXRuJywgJzgnLCAnLW1hJywgJzIwMCcsICctbWV0YWxfYmluZGluZycsICctaW1hZScsICc8aW5maWxlLm1hZT4nLCAnLW9tYWUnLCAnPG91dGZpbGUubWFlPic=

> <r_lp_tautomer_probability>
0.999537

> <r_epik_Ionization_Penalty>
0.058267

> <r_epik_Ionization_Penalty_Charging>
0.058267

> <r_epik_Ionization_Penalty_Neutral>
6.57791e-16

> <r_epik_State_Penalty>
0.0503774

> <r_epik_Charging_Adjusted_Penalty>
0.108644

> <i_epik_Tot_Q>
0

> <i_epik_Tot_abs_Q>
0

> <r_epik_Metal_State_Penalty>
2.6644

> <b_epik_Metal_Only>
0

> <s_epik_Chemistry_Notes>
This compound has an ester and may undergo hydrolysis at high or low pH. This compound contains an acetal/aminal-like group ( X-CH(R)-Y where X, Y are N, S, or O) that may be acid/base labile, releasing an aldehyde.

> <s_lp_Force_Field>
OPLS_2005

> <r_lp_Energy>
16.4745

> <b_lp_Chiralities_Consistent>
1

> <s_lp_Variant>
AV-unprocessed.smi:102-2

> <Gold.Version>
5.8.1

> <Gold.Id.Protein>
6NUR|6NUR_protein|mol2

> <Gold.PLP.Fitness>
39.8710

> <Gold.PLP.PLP>
-24.5110

> <Gold.PLP.part.hbond>
-6.9864

> <Gold.PLP.part.metal>
0.0000

> <Gold.PLP.part.buried>
-2.6011

> <Gold.PLP.part.nonpolar>
-16.4582

> <Gold.PLP.part.repulsive>
1.0178

> <Gold.PLP.ligand.clash>
0.0000

> <Gold.PLP.ligand.torsion>
1.1891

> <Gold.PLP.Chemscore.Hbond>
5.8487

> <Gold.PLP.Chemscore.CHOScore>
0.0000

> <Gold.PLP.Chemscore.Metal>
0.0000

> <Gold.Chemscore.Hbonds>
donor molecule, donor type, donor heavy atom, donor atom, acceptor molecule, acceptor atom, score
      L1  H    15    28       P1  7948  0.46
      P1  H  6896  6907       L1     7  0.89
      P1  H  6931  6943       L1     3  1.00
      P1  H  6934  6947       L1     3  0.22
      P1  H  7989  7998       L1    22  1.00
      P1  H  7997  8008       L1    27  1.00

> <Gold.PLP.Chemscore.Internal.Correction>
0.1921

> <Gold.Rescore>
     Score         DG    S(hbond)    S(metal)    S(lipo)     H(rot)  DE(clash)    DE(int)     intcor
     12.15     -14.90       4.72        0.00      34.56       4.05       0.60       2.15       ----

> <Gold.Chemscore.Fitness>
12.1480

> <Gold.Chemscore.DG>
-14.9022

> <Gold.Chemscore.ZeroCoef>
-5.4800

> <Gold.Chemscore.Hbond>
4.7163

> <Gold.Chemscore.Metal>
0.0000

> <Gold.Chemscore.Lipo>
34.5554

> <Gold.Chemscore.Internal_Hbond>
0.0000

> <Gold.Chemscore.DEClash>
0.6021

> <Gold.Chemscore.DEInternal>
2.1520

> <Gold.Chemscore.Rot>
4.0520

> <Gold.Chemscore.Internal.Correction>
   9.000000E+99

> <Gold.Chemscore.Hbonds>
donor molecule, donor type, donor heavy atom, donor atom, acceptor molecule, acceptor atom, score
      L1  H    15    28       P1  7948  0.40
      P1  H  6896  6907       L1     7  0.25
      P1  H  6931  6943       L1     3  0.98
      P1  H  6934  6947       L1     3  0.02
      P1  H  7989  7998       L1    22  1.00
      P1  H  7997  8008       L1    27  0.97
      P1  H 10752 10764       L1    17  0.01

> <Gold.Chemscore.Hbond.Weighted>
-15.7524

> <Gold.Chemscore.Metal.Weighted>
-0.0000

> <Gold.Chemscore.Lipo.Weighted>
-4.0430

> <Gold.Chemscore.Internal_Hbond.Weighted>
0.0000

> <Gold.Chemscore.DEClash.Weighted>
0.6021

> <Gold.Chemscore.DEInternal.Weighted>
2.1520

> <Gold.Chemscore.Rot.Weighted>
10.3732

> <Gold.Chemscore.Internal.Correction.Weighted>
   9.000000E+99

> <Gold.Protein.RotatedTorsions>
[ 6907 6896 6895 6894 ] final  -46.60 input  -60.11 | X-H torsion
[ 7974 7965 7964 7962 ] final   17.09 input  175.53 | X-H torsion
[ 8008 7997 7996 7995 ] final  -60.02 input   59.86 | X-H torsion
[ 10167 10162 10161 10158 ] final  -15.92 input  -65.29 | X-H torsion
[ 10718 10713 10712 10709 ] final   49.19 input   66.30 | X-H torsion
[ 10763 10752 10751 10750 ] final  -79.07 input  -60.55 | X-H torsion
[ 11005 11000 10999 10996 ] final  146.27 input  -57.11 | X-H torsion

> <Gold.Protein.ActiveResidues>
 VAL166  LYS551  ARG553  GLY616  TRP617  ASP618  TYR619  PRO620  LYS621  CYS622 
 ASP623  PHE694  ASN695  SER759  ASP760  ASP761  ALA762  ILE779  LEU786  VAL792 
 PHE793  MET794  SER795  GLU796  ALA797  LYS798  CYS799  TRP800  GLU811  SER814 

> <Gold.Protein.RotatedAtoms>
  150.9095  134.8511  159.7415 H   0  0  0  0  0  0  0  0  0  0  0  0  # atno 6907 bound_to 6896
  152.4936  134.4381  159.9544 H   0  0  0  0  0  0  0  0  0  0  0  0  # atno 6908 bound_to 6896
  151.4424  133.3600  159.2819 H   0  0  0  0  0  0  0  0  0  0  0  0  # atno 6909 bound_to 6896
  146.2229  139.8652  142.8597 H   0  0  0  0  0  0  0  0  0  0  0  0  # atno 7974 bound_to 7965
  154.4379  140.1049  156.6208 H   0  0  0  0  0  0  0  0  0  0  0  0  # atno 8008 bound_to 7997
  155.5710  140.3489  155.4496 H   0  0  0  0  0  0  0  0  0  0  0  0  # atno 8009 bound_to 7997
  156.0390  140.1277  157.0166 H   0  0  0  0  0  0  0  0  0  0  0  0  # atno 8010 bound_to 7997
  140.7226  143.5169  150.9681 H   0  0  0  0  0  0  0  0  0  0  0  0  # atno 10167 bound_to 10162
  157.4762  130.8286  149.8042 H   0  0  0  0  0  0  0  0  0  0  0  0  # atno 10718 bound_to 10713
  154.5340  135.5708  153.6782 H   0  0  0  0  0  0  0  0  0  0  0  0  # atno 10763 bound_to 10752
  152.9946  135.6211  154.2591 H   0  0  0  0  0  0  0  0  0  0  0  0  # atno 10764 bound_to 10752
  154.2519  135.2859  155.2793 H   0  0  0  0  0  0  0  0  0  0  0  0  # atno 10765 bound_to 10752
  140.0779  134.9114  157.1453 H   0  0  0  0  0  0  0  0  0  0  0  0  # atno 11005 bound_to 11000
  145.2664  141.0094  143.3797 LP  0  0  0  0  0  0  0  0  0  0  0  0  # atno 17320 bound_to 7965
  144.9258  139.4357  143.6519 LP  0  0  0  0  0  0  0  0  0  0  0  0  # atno 17321 bound_to 7965
  139.8885  143.6983  152.3148 LP  0  0  0  0  0  0  0  0  0  0  0  0  # atno 17342 bound_to 10162
  139.7290  144.7586  151.0832 LP  0  0  0  0  0  0  0  0  0  0  0  0  # atno 17343 bound_to 10162
  156.0098  130.3838  150.2304 LP  0  0  0  0  0  0  0  0  0  0  0  0  # atno 17370 bound_to 10713
  157.0488  131.0057  151.3260 LP  0  0  0  0  0  0  0  0  0  0  0  0  # atno 17371 bound_to 10713
  140.3530  134.2578  155.7196 LP  0  0  0  0  0  0  0  0  0  0  0  0  # atno 17394 bound_to 11000
  141.2036  133.7907  157.0330 LP  0  0  0  0  0  0  0  0  0  0  0  0  # atno 17395 bound_to 11000

$$$$
