AV-unprocessed.smi:793|AV-procd|sdf|3754|dock3
  -GOLD-   22720 1183D 1   1.00000     0.00000
 Structure written by MMmdl.
 38 39  0  0  0  0  0  0  0  0  2 V2000
  155.0152  140.1679  160.8198 C   0  0  0  0  0  0  0  0  0  0  0  0
  153.6944  139.8001  160.1323 C   0  0  0  0  0  0  0  0  0  0  0  0
  153.0841  140.9774  159.3483 C   0  0  2  0  0  0  0  0  0  0  0  0
  152.6744  141.9662  160.2952 O   0  0  0  0  0  0  0  0  0  0  0  0
  152.8389  143.3334  159.9216 C   0  0  0  0  0  0  0  0  0  0  0  0
  152.0776  144.3127  160.8201 C   0  0  0  0  0  0  0  0  0  0  0  0
  151.8549  145.5551  159.9507 C   0  0  0  0  0  0  0  0  0  0  0  0
  151.9613  145.0852  158.4911 C   0  0  0  0  0  0  0  0  0  0  0  0
  152.2232  143.5762  158.5450 C   0  0  0  0  0  0  0  0  0  0  0  0
  151.8900  140.5287  158.4888 C   0  0  0  0  0  0  0  0  0  0  0  0
  150.7414  140.7844  158.8514 O   0  0  0  0  0  0  0  0  0  0  0  0
  152.2088  139.8905  157.3484 N   0  0  0  0  0  0  0  0  0  0  0  0
  151.3469  139.4019  156.3291 C   0  0  0  0  0  0  0  0  0  0  0  0
  149.9603  139.6894  156.2731 C   0  0  0  0  0  0  0  0  0  0  0  0
  149.1368  139.2094  155.3162 N   0  0  0  0  0  0  0  0  0  0  0  0
  149.6689  138.4091  154.3687 C   0  0  0  0  0  0  0  0  0  0  0  0
  151.0290  138.0454  154.3367 C   0  0  0  0  0  0  0  0  0  0  0  0
  151.8832  138.5467  155.3378 C   0  0  0  0  0  0  0  0  0  0  0  0
  153.2077  138.2041  155.3300 O   0  5  0  0  0  0  0  0  0  0  0  0
  155.4230  139.3130  161.3593 H   0  0  0  0  0  0  0  0  0  0  0  0
  154.8755  140.9778  161.5363 H   0  0  0  0  0  0  0  0  0  0  0  0
  155.7614  140.4891  160.0925 H   0  0  0  0  0  0  0  0  0  0  0  0
  153.8756  138.9619  159.4578 H   0  0  0  0  0  0  0  0  0  0  0  0
  152.9863  139.4436  160.8815 H   0  0  0  0  0  0  0  0  0  0  0  0
  153.8585  141.3844  158.6962 H   0  0  0  0  0  0  0  0  0  0  0  0
  153.8921  143.6140  159.8778 H   0  0  0  0  0  0  0  0  0  0  0  0
  151.1129  143.8838  161.0947 H   0  0  0  0  0  0  0  0  0  0  0  0
  152.6140  144.5430  161.7410 H   0  0  0  0  0  0  0  0  0  0  0  0
  150.8906  146.0186  160.1613 H   0  0  0  0  0  0  0  0  0  0  0  0
  152.6260  146.2990  160.1554 H   0  0  0  0  0  0  0  0  0  0  0  0
  151.0601  145.3132  157.9212 H   0  0  0  0  0  0  0  0  0  0  0  0
  152.7938  145.5923  158.0019 H   0  0  0  0  0  0  0  0  0  0  0  0
  152.8633  143.2308  157.7329 H   0  0  0  0  0  0  0  0  0  0  0  0
  151.2751  143.0421  158.4682 H   0  0  0  0  0  0  0  0  0  0  0  0
  153.1938  139.8332  157.1327 H   0  0  0  0  0  0  0  0  0  0  0  0
  149.4760  140.3000  157.0191 H   0  0  0  0  0  0  0  0  0  0  0  0
  148.9881  138.0417  153.6152 H   0  0  0  0  0  0  0  0  0  0  0  0
  151.4053  137.3954  153.5602 H   0  0  0  0  0  0  0  0  0  0  0  0
  1  2  1  0  0  0  0
  1 20  1  0  0  0  0
  1 21  1  0  0  0  0
  1 22  1  0  0  0  0
  2  3  1  0  0  0  0
  2 23  1  0  0  0  0
  2 24  1  0  0  0  0
  3  4  1  0  0  0  0
  3 10  1  0  0  0  0
  3 25  1  0  0  0  0
  4  5  1  0  0  0  0
  5  9  1  0  0  0  0
  5  6  1  0  0  0  0
  5 26  1  0  0  0  0
  6  7  1  0  0  0  0
  6 27  1  0  0  0  0
  6 28  1  0  0  0  0
  7  8  1  0  0  0  0
  7 29  1  0  0  0  0
  7 30  1  0  0  0  0
  8  9  1  0  0  0  0
  8 31  1  0  0  0  0
  8 32  1  0  0  0  0
  9 33  1  0  0  0  0
  9 34  1  0  0  0  0
 10 11  2  0  0  0  0
 10 12  1  0  0  0  0
 12 35  1  0  0  0  0
 12 13  1  0  0  0  0
 13 18  1  0  0  0  0
 13 14  2  0  0  0  0
 14 36  1  0  0  0  0
 14 15  1  0  0  0  0
 15 16  2  0  0  0  0
 16 37  1  0  0  0  0
 16 17  1  0  0  0  0
 17 18  2  0  0  0  0
 17 38  1  0  0  0  0
 18 19  1  0  0  0  0
M  CHG  1  19  -1
M  END
> <s_m_source_file>
AV-unprocessed.smi

> <i_m_source_file_index>
793

> <i_lp_mmshare_version>
43012

> <i_f3d_flags>
0

> <s_epik_input>
W0NIMl0xW0NIMl1bQ0gyXVtDSDJdW0NIXTFPW0NAQEhdKFtDSDJdW0NIM10pQyg9TylbTkhdYzJbY0hdbltjSF1bY0hdYzJbT0hd

> <s_epik_cmdline>
J2VwaWtfcHl0aG9uJywgJy1waCcsICc3LjAnLCAnLXRuJywgJzgnLCAnLW1hJywgJzIwMCcsICctbWV0YWxfYmluZGluZycsICctaW1hZScsICc8aW5maWxlLm1hZT4nLCAnLW9tYWUnLCAnPG91dGZpbGUubWFlPic=

> <r_lp_tautomer_probability>
1

> <r_epik_Ionization_Penalty>
5.91611

> <r_epik_Ionization_Penalty_Charging>
1.01889

> <r_epik_Ionization_Penalty_Neutral>
4.89722

> <r_epik_State_Penalty>
4.89706

> <r_epik_Charging_Adjusted_Penalty>
5.91595

> <i_epik_Tot_Q>
-1

> <i_epik_Tot_abs_Q>
1

> <r_epik_Metal_State_Penalty>
1.05012

> <b_epik_Metal_Only>
1

> <s_lp_Force_Field>
OPLS_2005

> <r_lp_Energy>
28.2146

> <b_lp_Chiralities_Consistent>
1

> <s_lp_Variant>
AV-unprocessed.smi:793-3

> <Gold.Version>
5.8.1

> <Gold.Id.Protein>
6NUR|6NUR_protein|mol2

> <Gold.PLP.Fitness>
51.4933

> <Gold.PLP.PLP>
-44.3536

> <Gold.PLP.part.hbond>
-1.0000

> <Gold.PLP.part.metal>
0.0000

> <Gold.PLP.part.buried>
-6.8603

> <Gold.PLP.part.nonpolar>
-36.6898

> <Gold.PLP.part.repulsive>
1.2339

> <Gold.PLP.ligand.clash>
0.0000

> <Gold.PLP.ligand.torsion>
1.0547

> <Gold.PLP.Chemscore.Hbond>
1.5360

> <Gold.PLP.Chemscore.CHOScore>
1.5182

> <Gold.PLP.Chemscore.Metal>
0.0000

> <Gold.Chemscore.Hbonds>
donor molecule, donor type, donor heavy atom, donor atom, acceptor molecule, acceptor atom, score
      P1  H  7997  8008       L1    19  0.17
      L1  C    16    37       P1  7948  1.00

> <Gold.PLP.Chemscore.Internal.Correction>
0.0864

> <Gold.Rescore>
     Score         DG    S(hbond)    S(metal)    S(lipo)     H(rot)  DE(clash)    DE(int)     intcor
     15.78     -19.15       0.91        0.00     123.56       1.49       0.02       3.34       ----

> <Gold.Chemscore.Fitness>
15.7836

> <Gold.Chemscore.DG>
-19.1456

> <Gold.Chemscore.ZeroCoef>
-5.4800

> <Gold.Chemscore.Hbond>
0.9077

> <Gold.Chemscore.Metal>
0.0000

> <Gold.Chemscore.Lipo>
123.5606

> <Gold.Chemscore.Internal_Hbond>
0.0000

> <Gold.Chemscore.DEClash>
0.0234

> <Gold.Chemscore.DEInternal>
3.3386

> <Gold.Chemscore.Rot>
1.4932

> <Gold.Chemscore.Internal.Correction>
   9.000000E+99

> <Gold.Chemscore.Hbonds>
donor molecule, donor type, donor heavy atom, donor atom, acceptor molecule, acceptor atom, score
      P1  H  7997  8008       L1    19  0.07

> <Gold.Chemscore.Hbond.Weighted>
-3.0316

> <Gold.Chemscore.Metal.Weighted>
-0.0000

> <Gold.Chemscore.Lipo.Weighted>
-14.4566

> <Gold.Chemscore.Internal_Hbond.Weighted>
0.0000

> <Gold.Chemscore.DEClash.Weighted>
0.0234

> <Gold.Chemscore.DEInternal.Weighted>
3.3386

> <Gold.Chemscore.Rot.Weighted>
3.8226

> <Gold.Chemscore.Internal.Correction.Weighted>
   9.000000E+99

> <Gold.Protein.RotatedTorsions>
[ 6907 6896 6895 6894 ] final  -52.10 input  -60.11 | X-H torsion
[ 7974 7965 7964 7962 ] final  -38.09 input  175.53 | X-H torsion
[ 8008 7997 7996 7995 ] final  -18.17 input   59.86 | X-H torsion
[ 10167 10162 10161 10158 ] final    2.17 input  -65.29 | X-H torsion
[ 10718 10713 10712 10709 ] final -105.84 input   66.30 | X-H torsion
[ 10763 10752 10751 10750 ] final  175.77 input  -60.55 | X-H torsion
[ 11005 11000 10999 10996 ] final  -53.30 input  -57.11 | X-H torsion

> <Gold.Protein.ActiveResidues>
 VAL166  LYS551  ARG553  GLY616  TRP617  ASP618  TYR619  PRO620  LYS621  CYS622 
 ASP623  PHE694  ASN695  SER759  ASP760  ASP761  ALA762  ILE779  LEU786  VAL792 
 PHE793  MET794  SER795  GLU796  ALA797  LYS798  CYS799  TRP800  GLU811  SER814 

> <Gold.Protein.RotatedAtoms>
  150.8549  134.7885  159.7037 H   0  0  0  0  0  0  0  0  0  0  0  0  # atno 6907 bound_to 6896
  152.4603  134.5195  159.9788 H   0  0  0  0  0  0  0  0  0  0  0  0  # atno 6908 bound_to 6896
  151.5309  133.3411  159.2954 H   0  0  0  0  0  0  0  0  0  0  0  0  # atno 6909 bound_to 6896
  146.0517  140.6471  142.9038 H   0  0  0  0  0  0  0  0  0  0  0  0  # atno 7974 bound_to 7965
  154.4925  140.2123  155.9517 H   0  0  0  0  0  0  0  0  0  0  0  0  # atno 8008 bound_to 7997
  156.1326  140.3194  155.8340 H   0  0  0  0  0  0  0  0  0  0  0  0  # atno 8009 bound_to 7997
  155.4269  140.0501  157.3012 H   0  0  0  0  0  0  0  0  0  0  0  0  # atno 8010 bound_to 7997
  140.6648  143.7209  150.7806 H   0  0  0  0  0  0  0  0  0  0  0  0  # atno 10167 bound_to 10162
  156.0363  130.5583  150.7595 H   0  0  0  0  0  0  0  0  0  0  0  0  # atno 10718 bound_to 10713
  154.4721  135.2771  155.1635 H   0  0  0  0  0  0  0  0  0  0  0  0  # atno 10763 bound_to 10752
  154.3380  135.6176  153.5586 H   0  0  0  0  0  0  0  0  0  0  0  0  # atno 10764 bound_to 10752
  152.9865  135.5781  154.5104 H   0  0  0  0  0  0  0  0  0  0  0  0  # atno 10765 bound_to 10752
  141.0969  133.6623  156.4152 H   0  0  0  0  0  0  0  0  0  0  0  0  # atno 11005 bound_to 11000
  144.7126  140.4095  143.7069 LP  0  0  0  0  0  0  0  0  0  0  0  0  # atno 17320 bound_to 7965
  145.6712  139.1599  143.2753 LP  0  0  0  0  0  0  0  0  0  0  0  0  # atno 17321 bound_to 7965
  140.0884  143.4901  152.2492 LP  0  0  0  0  0  0  0  0  0  0  0  0  # atno 17342 bound_to 10162
  139.5893  144.7543  151.3442 LP  0  0  0  0  0  0  0  0  0  0  0  0  # atno 17343 bound_to 10162
  157.5118  131.0926  151.0188 LP  0  0  0  0  0  0  0  0  0  0  0  0  # atno 17370 bound_to 10713
  157.0541  130.5799  149.5375 LP  0  0  0  0  0  0  0  0  0  0  0  0  # atno 17371 bound_to 10713
  140.5118  134.6388  157.5287 LP  0  0  0  0  0  0  0  0  0  0  0  0  # atno 17394 bound_to 11000
  139.9808  134.7140  155.9863 LP  0  0  0  0  0  0  0  0  0  0  0  0  # atno 17395 bound_to 11000

$$$$
