AV-unprocessed.smi:2671|AV-procd|sdf|10350|dock5
  -GOLD-   2272014373D 1   1.00000     0.00000
 Structure written by MMmdl.
 29 30  0  0  0  0  0  0  0  0  1 V2000
  154.1851  140.0390  160.2199 O   0  0  0  0  0  0  0  0  0  0  0  0
  153.4401  140.7189  159.5175 C   0  0  0  0  0  0  0  0  0  0  0  0
  153.0055  142.0527  159.9489 C   0  0  0  0  0  0  0  0  0  0  0  0
  152.1944  142.7792  159.1544 C   0  0  0  0  0  0  0  0  0  0  0  0
  151.6804  144.1598  159.5298 C   0  0  0  0  0  0  0  0  0  0  0  0
  152.1265  145.0708  158.6653 F   0  0  0  0  0  0  0  0  0  0  0  0
  150.3483  144.1759  159.4989 F   0  0  0  0  0  0  0  0  0  0  0  0
  152.0741  144.5170  160.7541 F   0  0  0  0  0  0  0  0  0  0  0  0
  151.7612  142.2664  157.9436 N   0  0  0  0  0  0  0  0  0  0  0  0
  152.1838  140.9992  157.5547 C   0  0  0  0  0  0  0  0  0  0  0  0
  151.5128  140.5017  155.9286 S   0  0  0  0  0  0  0  0  0  0  0  0
  149.8544  141.2506  155.8762 C   0  0  0  0  0  0  0  0  0  0  0  0
  149.2181  141.1130  154.4871 C   0  0  2  0  0  0  0  0  0  0  0  0
  147.8306  141.7424  154.3791 C   0  0  0  0  0  0  0  0  0  0  0  0
  147.2385  140.9709  153.2223 C   0  0  0  0  0  0  0  0  0  0  0  0
  147.7805  139.5672  153.4765 C   0  0  0  0  0  0  0  0  0  0  0  0
  149.0249  139.7412  154.1503 O   0  0  0  0  0  0  0  0  0  0  0  0
  152.9719  140.2556  158.2770 N   0  0  0  0  0  0  0  0  0  0  0  0
  151.1417  142.8367  157.3862 H   0  0  0  0  0  0  0  0  0  0  0  0
  153.3350  142.4474  160.8989 H   0  0  0  0  0  0  0  0  0  0  0  0
  149.9369  142.3069  156.1342 H   0  0  0  0  0  0  0  0  0  0  0  0
  149.2173  140.7761  156.6233 H   0  0  0  0  0  0  0  0  0  0  0  0
  149.8679  141.5559  153.7304 H   0  0  0  0  0  0  0  0  0  0  0  0
  147.2508  141.5581  155.2846 H   0  0  0  0  0  0  0  0  0  0  0  0
  147.8628  142.8184  154.2056 H   0  0  0  0  0  0  0  0  0  0  0  0
  146.1494  141.0090  153.1911 H   0  0  0  0  0  0  0  0  0  0  0  0
  147.6230  141.3582  152.2776 H   0  0  0  0  0  0  0  0  0  0  0  0
  147.1083  139.0125  154.1320 H   0  0  0  0  0  0  0  0  0  0  0  0
  147.9026  138.9968  152.5556 H   0  0  0  0  0  0  0  0  0  0  0  0
  1  2  2  0  0  0  0
  2 18  1  0  0  0  0
  2  3  1  0  0  0  0
  3 20  1  0  0  0  0
  3  4  2  0  0  0  0
  4  5  1  0  0  0  0
  4  9  1  0  0  0  0
  5  6  1  0  0  0  0
  5  7  1  0  0  0  0
  5  8  1  0  0  0  0
  9 10  1  0  0  0  0
  9 19  1  0  0  0  0
 10 11  1  0  0  0  0
 10 18  2  0  0  0  0
 11 12  1  0  0  0  0
 12 13  1  0  0  0  0
 12 21  1  0  0  0  0
 12 22  1  0  0  0  0
 13 17  1  0  0  0  0
 13 14  1  0  0  0  0
 13 23  1  0  0  0  0
 14 15  1  0  0  0  0
 14 24  1  0  0  0  0
 14 25  1  0  0  0  0
 15 16  1  0  0  0  0
 15 26  1  0  0  0  0
 15 27  1  0  0  0  0
 16 17  1  0  0  0  0
 16 28  1  0  0  0  0
 16 29  1  0  0  0  0
M  END
> <s_m_source_file>
AV-unprocessed.smi

> <i_m_source_file_index>
2671

> <i_lp_mmshare_version>
43012

> <i_f3d_flags>
0

> <s_epik_input>
W09IXWMxW2NIXWMoQyhGKShGKUYpbmMobjEpU1tDSDJdW0NAQEhdMltDSDJdW0NIMl1bQ0gyXU8y

> <s_epik_cmdline>
J2VwaWtfcHl0aG9uJywgJy1waCcsICc3LjAnLCAnLXRuJywgJzgnLCAnLW1hJywgJzIwMCcsICctbWV0YWxfYmluZGluZycsICctaW1hZScsICc8aW5maWxlLm1hZT4nLCAnLW9tYWUnLCAnPG91dGZpbGUubWFlPic=

> <r_lp_tautomer_probability>
0.273662

> <r_epik_Ionization_Penalty>
1.33793

> <r_epik_Ionization_Penalty_Charging>
1.33793

> <r_epik_Ionization_Penalty_Neutral>
8.2996e-08

> <r_epik_State_Penalty>
1.59174

> <r_epik_Charging_Adjusted_Penalty>
2.92967

> <i_epik_Tot_Q>
0

> <i_epik_Tot_abs_Q>
0

> <r_epik_Metal_State_Penalty>
2.31522

> <b_epik_Metal_Only>
0

> <s_lp_Force_Field>
OPLS_2005

> <r_lp_Energy>
28.2074

> <b_lp_Chiralities_Consistent>
1

> <s_lp_Variant>
AV-unprocessed.smi:2671-5

> <Gold.Version>
5.8.1

> <Gold.Id.Protein>
6NUR|6NUR_protein|mol2

> <Gold.PLP.Fitness>
43.4567

> <Gold.PLP.PLP>
-41.7198

> <Gold.PLP.part.hbond>
-1.0000

> <Gold.PLP.part.metal>
0.0000

> <Gold.PLP.part.buried>
-5.0119

> <Gold.PLP.part.nonpolar>
-34.8016

> <Gold.PLP.part.repulsive>
0.1933

> <Gold.PLP.ligand.clash>
0.0000

> <Gold.PLP.ligand.torsion>
0.4271

> <Gold.PLP.Chemscore.Hbond>
0.8580

> <Gold.PLP.Chemscore.CHOScore>
0.0000

> <Gold.PLP.Chemscore.Metal>
0.0000

> <Gold.Chemscore.Hbonds>
donor molecule, donor type, donor heavy atom, donor atom, acceptor molecule, acceptor atom, score
      P1  H  7997  8010       L1    18  0.91

> <Gold.PLP.Chemscore.Internal.Correction>
0.0172

> <Gold.Rescore>
     Score         DG    S(hbond)    S(metal)    S(lipo)     H(rot)  DE(clash)    DE(int)     intcor
     10.41     -10.90       0.42        0.00      71.34       1.69       0.13       0.36       ----

> <Gold.Chemscore.Fitness>
10.4110

> <Gold.Chemscore.DG>
-10.8997

> <Gold.Chemscore.ZeroCoef>
-5.4800

> <Gold.Chemscore.Hbond>
0.4208

> <Gold.Chemscore.Metal>
0.0000

> <Gold.Chemscore.Lipo>
71.3404

> <Gold.Chemscore.Internal_Hbond>
0.0000

> <Gold.Chemscore.DEClash>
0.1326

> <Gold.Chemscore.DEInternal>
0.3561

> <Gold.Chemscore.Rot>
1.6924

> <Gold.Chemscore.Internal.Correction>
   9.000000E+99

> <Gold.Chemscore.Hbonds>
donor molecule, donor type, donor heavy atom, donor atom, acceptor molecule, acceptor atom, score
      P1  H  7997  8010       L1    18  0.15

> <Gold.Chemscore.Hbond.Weighted>
-1.4053

> <Gold.Chemscore.Metal.Weighted>
-0.0000

> <Gold.Chemscore.Lipo.Weighted>
-8.3468

> <Gold.Chemscore.Internal_Hbond.Weighted>
0.0000

> <Gold.Chemscore.DEClash.Weighted>
0.1326

> <Gold.Chemscore.DEInternal.Weighted>
0.3561

> <Gold.Chemscore.Rot.Weighted>
4.3324

> <Gold.Chemscore.Internal.Correction.Weighted>
   9.000000E+99

> <Gold.Protein.RotatedTorsions>
[ 6907 6896 6895 6894 ] final  120.24 input  -60.11 | X-H torsion
[ 7974 7965 7964 7962 ] final  -69.86 input  175.53 | X-H torsion
[ 8008 7997 7996 7995 ] final   37.44 input   59.86 | X-H torsion
[ 10167 10162 10161 10158 ] final -164.86 input  -65.29 | X-H torsion
[ 10718 10713 10712 10709 ] final  -75.33 input   66.30 | X-H torsion
[ 10763 10752 10751 10750 ] final   71.61 input  -60.55 | X-H torsion
[ 11005 11000 10999 10996 ] final  -32.94 input  -57.11 | X-H torsion

> <Gold.Protein.ActiveResidues>
 VAL166  LYS551  ARG553  GLY616  TRP617  ASP618  TYR619  PRO620  LYS621  CYS622 
 ASP623  PHE694  ASN695  SER759  ASP760  ASP761  ALA762  ILE779  LEU786  VAL792 
 PHE793  MET794  SER795  GLU796  ALA797  LYS798  CYS799  TRP800  GLU811  SER814 

> <Gold.Protein.RotatedAtoms>
  152.4412  133.7452  159.6663 H   0  0  0  0  0  0  0  0  0  0  0  0  # atno 6907 bound_to 6896
  150.8304  133.8091  159.3107 H   0  0  0  0  0  0  0  0  0  0  0  0  # atno 6908 bound_to 6896
  151.5747  135.1063  160.0055 H   0  0  0  0  0  0  0  0  0  0  0  0  # atno 6909 bound_to 6896
  145.6983  140.9126  143.0745 H   0  0  0  0  0  0  0  0  0  0  0  0  # atno 7974 bound_to 7965
  155.2038  140.3318  155.4339 H   0  0  0  0  0  0  0  0  0  0  0  0  # atno 8008 bound_to 7997
  156.2397  140.1889  156.7073 H   0  0  0  0  0  0  0  0  0  0  0  0  # atno 8009 bound_to 7997
  154.6124  140.0607  156.9496 H   0  0  0  0  0  0  0  0  0  0  0  0  # atno 8010 bound_to 7997
  139.6221  144.0604  152.1942 H   0  0  0  0  0  0  0  0  0  0  0  0  # atno 10167 bound_to 10162
  156.0211  130.4438  150.3027 H   0  0  0  0  0  0  0  0  0  0  0  0  # atno 10718 bound_to 10713
  153.0409  135.5130  154.7619 H   0  0  0  0  0  0  0  0  0  0  0  0  # atno 10763 bound_to 10752
  154.6558  135.2931  154.9932 H   0  0  0  0  0  0  0  0  0  0  0  0  # atno 10764 bound_to 10752
  154.0801  135.6665  153.4889 H   0  0  0  0  0  0  0  0  0  0  0  0  # atno 10765 bound_to 10752
  140.9593  133.7174  156.1344 H   0  0  0  0  0  0  0  0  0  0  0  0  # atno 11005 bound_to 11000
  144.6976  139.8913  143.7453 LP  0  0  0  0  0  0  0  0  0  0  0  0  # atno 17320 bound_to 7965
  146.0820  139.3808  143.0458 LP  0  0  0  0  0  0  0  0  0  0  0  0  # atno 17321 bound_to 7965
  140.0248  144.6125  150.7536 LP  0  0  0  0  0  0  0  0  0  0  0  0  # atno 17342 bound_to 10162
  140.7388  143.2783  151.3674 LP  0  0  0  0  0  0  0  0  0  0  0  0  # atno 17343 bound_to 10162
  157.1129  131.0226  151.3040 LP  0  0  0  0  0  0  0  0  0  0  0  0  # atno 17370 bound_to 10713
  157.4690  130.7697  149.7305 LP  0  0  0  0  0  0  0  0  0  0  0  0  # atno 17371 bound_to 10713
  140.7490  134.4066  157.5544 LP  0  0  0  0  0  0  0  0  0  0  0  0  # atno 17394 bound_to 11000
  139.8873  134.8887  156.2538 LP  0  0  0  0  0  0  0  0  0  0  0  0  # atno 17395 bound_to 11000

$$$$
