AV-unprocessed.smi:3255|AV-procd|sdf|12463|dock8
  -GOLD-   2272018363D 1   1.00000     0.00000
 Structure written by MMmdl.
 38 39  0  0  0  0  0  0  0  0  1 V2000
  143.9925  136.6188  152.2731 C   0  0  0  0  0  0  0  0  0  0  0  0
  145.1719  135.6470  152.4240 C   0  0  2  0  0  0  0  0  0  0  0  0
  146.3803  136.4137  152.7246 N   0  0  0  0  0  0  0  0  0  0  0  0
  146.4557  137.4530  153.5681 C   0  0  0  0  0  0  0  0  0  0  0  0
  145.4954  137.9156  154.1841 O   0  0  0  0  0  0  0  0  0  0  0  0
  147.7103  137.9113  153.6812 N   0  0  0  0  0  0  0  0  0  0  0  0
  148.1336  138.9845  154.5766 C   0  0  0  0  0  0  0  0  0  0  0  0
  149.3908  139.7076  154.0573 C   0  0  0  0  0  0  0  0  0  0  0  0
  150.6232  139.0844  154.5044 N   0  0  0  0  0  0  0  0  0  0  0  0
  151.6082  139.6528  155.3019 C   0  0  0  0  0  0  0  0  0  0  0  0
  152.5886  138.6989  155.4562 C   0  0  0  0  0  0  0  0  0  0  0  0
  152.2256  137.5394  154.7755 N   0  0  0  0  0  0  0  0  0  0  0  0
  151.0501  137.8419  154.2393 C   0  0  0  0  0  0  0  0  0  0  0  0
  145.3758  134.7889  151.1573 C   0  0  1  0  0  0  0  0  0  0  0  0
  146.4940  133.7463  151.2512 C   0  0  0  0  0  0  0  0  0  0  0  0
  146.0394  132.7098  150.2513 C   0  0  0  0  0  0  0  0  0  0  0  0
  144.5338  132.7055  150.4877 C   0  0  0  0  0  0  0  0  0  0  0  0
  144.1977  134.0371  150.8678 O   0  0  0  0  0  0  0  0  0  0  0  0
  143.0621  136.0829  152.0835 H   0  0  0  0  0  0  0  0  0  0  0  0
  144.1508  137.3120  151.4463 H   0  0  0  0  0  0  0  0  0  0  0  0
  143.8512  137.2074  153.1801 H   0  0  0  0  0  0  0  0  0  0  0  0
  144.9418  134.9794  153.2562 H   0  0  0  0  0  0  0  0  0  0  0  0
  147.2298  136.1110  152.2706 H   0  0  0  0  0  0  0  0  0  0  0  0
  148.4306  137.4662  153.1316 H   0  0  0  0  0  0  0  0  0  0  0  0
  147.3121  139.6978  154.6438 H   0  0  0  0  0  0  0  0  0  0  0  0
  148.2931  138.6131  155.5905 H   0  0  0  0  0  0  0  0  0  0  0  0
  149.3877  139.7427  152.9671 H   0  0  0  0  0  0  0  0  0  0  0  0
  149.3917  140.7418  154.4033 H   0  0  0  0  0  0  0  0  0  0  0  0
  151.5372  140.6636  155.6758 H   0  0  0  0  0  0  0  0  0  0  0  0
  153.5196  138.7581  156.0005 H   0  0  0  0  0  0  0  0  0  0  0  0
  150.4893  137.1460  153.6327 H   0  0  0  0  0  0  0  0  0  0  0  0
  145.5713  135.4325  150.2981 H   0  0  0  0  0  0  0  0  0  0  0  0
  147.4772  134.1572  151.0217 H   0  0  0  0  0  0  0  0  0  0  0  0
  146.5311  133.3055  152.2487 H   0  0  0  0  0  0  0  0  0  0  0  0
  146.2630  133.0425  149.2368 H   0  0  0  0  0  0  0  0  0  0  0  0
  146.4998  131.7333  150.4037 H   0  0  0  0  0  0  0  0  0  0  0  0
  143.9733  132.3863  149.6087 H   0  0  0  0  0  0  0  0  0  0  0  0
  144.2814  132.0374  151.3119 H   0  0  0  0  0  0  0  0  0  0  0  0
  1  2  1  0  0  0  0
  1 19  1  0  0  0  0
  1 20  1  0  0  0  0
  1 21  1  0  0  0  0
  2  3  1  0  0  0  0
  2 14  1  0  0  0  0
  2 22  1  0  0  0  0
  3  4  1  0  0  0  0
  3 23  1  0  0  0  0
  4  5  2  0  0  0  0
  4  6  1  0  0  0  0
  6  7  1  0  0  0  0
  6 24  1  0  0  0  0
  7  8  1  0  0  0  0
  7 25  1  0  0  0  0
  7 26  1  0  0  0  0
  8  9  1  0  0  0  0
  8 27  1  0  0  0  0
  8 28  1  0  0  0  0
  9 13  1  0  0  0  0
  9 10  1  0  0  0  0
 10 11  2  0  0  0  0
 10 29  1  0  0  0  0
 11 12  1  0  0  0  0
 11 30  1  0  0  0  0
 12 13  2  0  0  0  0
 13 31  1  0  0  0  0
 14 18  1  0  0  0  0
 14 15  1  0  0  0  0
 14 32  1  0  0  0  0
 15 16  1  0  0  0  0
 15 33  1  0  0  0  0
 15 34  1  0  0  0  0
 16 17  1  0  0  0  0
 16 35  1  0  0  0  0
 16 36  1  0  0  0  0
 17 18  1  0  0  0  0
 17 37  1  0  0  0  0
 17 38  1  0  0  0  0
M  END
> <s_m_source_file>
AV-unprocessed.smi

> <i_m_source_file_index>
3255

> <i_lp_mmshare_version>
43012

> <i_f3d_flags>
0

> <s_epik_input>
TzFbQ0gyXVtDSDJdW0NIMl1bQ0BIXTFbQ0BIXShbQ0gzXSlbTkhdQyg9TylbTkhdW0NIMl1bQ0gyXW4yW2NIXVtjSF1uW2NIXTI=

> <s_epik_cmdline>
J2VwaWtfcHl0aG9uJywgJy1waCcsICc3LjAnLCAnLXRuJywgJzgnLCAnLW1hJywgJzIwMCcsICctbWV0YWxfYmluZGluZycsICctaW1hZScsICc8aW5maWxlLm1hZT4nLCAnLW9tYWUnLCAnPG91dGZpbGUubWFlPic=

> <r_lp_tautomer_probability>
1

> <r_epik_Ionization_Penalty>
0.620274

> <r_epik_Ionization_Penalty_Charging>
0.620225

> <r_epik_Ionization_Penalty_Neutral>
4.91362e-05

> <r_epik_State_Penalty>
0.636186

> <r_epik_Charging_Adjusted_Penalty>
1.25641

> <i_epik_Tot_Q>
0

> <i_epik_Tot_abs_Q>
0

> <r_epik_Metal_State_Penalty>
0.306491

> <b_epik_Metal_Only>
0

> <s_lp_Force_Field>
OPLS_2005

> <r_lp_Energy>
16.3443

> <b_lp_Chiralities_Consistent>
1

> <s_lp_Variant>
AV-unprocessed.smi:3255-7

> <Gold.Version>
5.8.1

> <Gold.Id.Protein>
6NUR|6NUR_protein|mol2

> <Gold.PLP.Fitness>
43.1619

> <Gold.PLP.PLP>
-32.6749

> <Gold.PLP.part.hbond>
-3.0000

> <Gold.PLP.part.metal>
0.0000

> <Gold.PLP.part.buried>
-2.2949

> <Gold.PLP.part.nonpolar>
-27.5556

> <Gold.PLP.part.repulsive>
0.3859

> <Gold.PLP.ligand.clash>
0.0000

> <Gold.PLP.ligand.torsion>
0.5756

> <Gold.PLP.Chemscore.Hbond>
2.7200

> <Gold.PLP.Chemscore.CHOScore>
1.1505

> <Gold.PLP.Chemscore.Metal>
0.0000

> <Gold.Chemscore.Hbonds>
donor molecule, donor type, donor heavy atom, donor atom, acceptor molecule, acceptor atom, score
      L1  H     3    23       P1  7948  1.00
      L1  H     6    24       P1  7948  1.00
      P1  H 10752 10764       L1    12  0.68
      L1  C    13    31       P1  7948  0.65
      L1  C    13    31       P1  7949  0.50

> <Gold.PLP.Chemscore.Internal.Correction>
0.0267

> <Gold.Rescore>
     Score         DG    S(hbond)    S(metal)    S(lipo)     H(rot)  DE(clash)    DE(int)     intcor
     14.83     -16.91       2.87        0.00      63.64       2.18       0.12       1.95       ----

> <Gold.Chemscore.Fitness>
14.8328

> <Gold.Chemscore.DG>
-16.9086

> <Gold.Chemscore.ZeroCoef>
-5.4800

> <Gold.Chemscore.Hbond>
2.8656

> <Gold.Chemscore.Metal>
0.0000

> <Gold.Chemscore.Lipo>
63.6369

> <Gold.Chemscore.Internal_Hbond>
0.0000

> <Gold.Chemscore.DEClash>
0.1219

> <Gold.Chemscore.DEInternal>
1.9539

> <Gold.Chemscore.Rot>
2.1828

> <Gold.Chemscore.Internal.Correction>
   9.000000E+99

> <Gold.Chemscore.Hbonds>
donor molecule, donor type, donor heavy atom, donor atom, acceptor molecule, acceptor atom, score
      L1  H     3    23       P1  7948  0.98
      L1  H     6    24       P1  7948  0.96
      P1  H 10752 10764       L1    12  0.62

> <Gold.Chemscore.Hbond.Weighted>
-9.5711

> <Gold.Chemscore.Metal.Weighted>
-0.0000

> <Gold.Chemscore.Lipo.Weighted>
-7.4455

> <Gold.Chemscore.Internal_Hbond.Weighted>
0.0000

> <Gold.Chemscore.DEClash.Weighted>
0.1219

> <Gold.Chemscore.DEInternal.Weighted>
1.9539

> <Gold.Chemscore.Rot.Weighted>
5.5881

> <Gold.Chemscore.Internal.Correction.Weighted>
   9.000000E+99

> <Gold.Protein.RotatedTorsions>
[ 6907 6896 6895 6894 ] final  136.29 input  -60.11 | X-H torsion
[ 7974 7965 7964 7962 ] final   65.20 input  175.53 | X-H torsion
[ 8008 7997 7996 7995 ] final -102.63 input   59.86 | X-H torsion
[ 10167 10162 10161 10158 ] final   24.70 input  -65.29 | X-H torsion
[ 10718 10713 10712 10709 ] final  175.48 input   66.30 | X-H torsion
[ 10763 10752 10751 10750 ] final  -63.97 input  -60.55 | X-H torsion
[ 11005 11000 10999 10996 ] final  104.81 input  -57.11 | X-H torsion

> <Gold.Protein.ActiveResidues>
 VAL166  LYS551  ARG553  GLY616  TRP617  ASP618  TYR619  PRO620  LYS621  CYS622 
 ASP623  PHE694  ASN695  SER759  ASP760  ASP761  ALA762  ILE779  LEU786  VAL792 
 PHE793  MET794  SER795  GLU796  ALA797  LYS798  CYS799  TRP800  GLU811  SER814 

> <Gold.Protein.RotatedAtoms>
  152.2910  133.5561  159.5557 H   0  0  0  0  0  0  0  0  0  0  0  0  # atno 6907 bound_to 6896
  150.7235  134.0428  159.3780 H   0  0  0  0  0  0  0  0  0  0  0  0  # atno 6908 bound_to 6896
  151.8334  135.0614  160.0490 H   0  0  0  0  0  0  0  0  0  0  0  0  # atno 6909 bound_to 6896
  145.8412  139.3197  143.0930 H   0  0  0  0  0  0  0  0  0  0  0  0  # atno 7974 bound_to 7965
  154.8594  140.0427  157.1656 H   0  0  0  0  0  0  0  0  0  0  0  0  # atno 8008 bound_to 7997
  154.8856  140.2979  155.5379 H   0  0  0  0  0  0  0  0  0  0  0  0  # atno 8009 bound_to 7997
  156.2998  140.2403  156.3865 H   0  0  0  0  0  0  0  0  0  0  0  0  # atno 8010 bound_to 7997
  140.5166  144.0071  150.6397 H   0  0  0  0  0  0  0  0  0  0  0  0  # atno 10167 bound_to 10162
  156.9343  130.9981  151.2981 H   0  0  0  0  0  0  0  0  0  0  0  0  # atno 10718 bound_to 10713
  154.3230  135.6192  153.5516 H   0  0  0  0  0  0  0  0  0  0  0  0  # atno 10763 bound_to 10752
  152.9818  135.5728  154.5048 H   0  0  0  0  0  0  0  0  0  0  0  0  # atno 10764 bound_to 10752
  154.4720  135.2859  155.1612 H   0  0  0  0  0  0  0  0  0  0  0  0  # atno 10765 bound_to 10752
  139.8795  134.9314  156.5418 H   0  0  0  0  0  0  0  0  0  0  0  0  # atno 11005 bound_to 11000
  145.9462  140.8943  143.0282 LP  0  0  0  0  0  0  0  0  0  0  0  0  # atno 17320 bound_to 7965
  144.6733  140.1617  143.7422 LP  0  0  0  0  0  0  0  0  0  0  0  0  # atno 17321 bound_to 7965
  140.3409  143.3020  152.0589 LP  0  0  0  0  0  0  0  0  0  0  0  0  # atno 17342 bound_to 10162
  139.4911  144.6443  151.6811 LP  0  0  0  0  0  0  0  0  0  0  0  0  # atno 17343 bound_to 10162
  157.5827  130.8387  149.8545 LP  0  0  0  0  0  0  0  0  0  0  0  0  # atno 17370 bound_to 10713
  156.0433  130.3734  150.1380 LP  0  0  0  0  0  0  0  0  0  0  0  0  # atno 17371 bound_to 10713
  140.8305  133.8283  155.8979 LP  0  0  0  0  0  0  0  0  0  0  0  0  # atno 17394 bound_to 11000
  140.9333  134.1993  157.4848 LP  0  0  0  0  0  0  0  0  0  0  0  0  # atno 17395 bound_to 11000

$$$$
