AV-unprocessed.smi:1080|AV-procd|sdf|4706|dock1
  -GOLD-   22720 3233D 1   1.00000     0.00000
 Structure written by MMmdl.
 48 50  0  0  0  0  0  0  0  0  1 V2000
  149.7597  136.1706  157.0084 O   0  0  0  0  0  0  0  0  0  0  0  0
  149.6976  136.5181  155.8295 C   0  0  0  0  0  0  0  0  0  0  0  0
  149.6219  135.6888  154.7735 N   0  0  0  0  0  0  0  0  0  0  0  0
  149.5980  134.2670  154.7465 C   0  0  0  0  0  0  0  0  0  0  0  0
  149.0389  133.6466  153.6096 C   0  0  0  0  0  0  0  0  0  0  0  0
  148.9900  132.2394  153.5567 C   0  0  0  0  0  0  0  0  0  0  0  0
  149.4470  131.4438  154.5460 N   0  0  0  0  0  0  0  0  0  0  0  0
  149.9715  132.0379  155.6386 C   0  0  0  0  0  0  0  0  0  0  0  0
  150.0674  133.4356  155.7927 C   0  0  0  0  0  0  0  0  0  0  0  0
  149.7134  137.7991  155.4318 N   0  0  0  0  0  0  0  0  0  0  0  0
  149.8086  138.9666  156.3046 C   0  0  2  0  0  0  0  0  0  0  0  0
  149.8468  140.2528  155.4585 C   0  0  0  0  0  0  0  0  0  0  0  0
  150.0401  141.5003  156.3368 C   0  0  0  0  0  0  0  0  0  0  0  0
  151.3087  141.3883  157.2079 C   0  0  1  0  0  0  0  0  0  0  0  0
  151.4817  142.6513  158.0802 C   0  0  0  0  0  0  0  0  0  0  0  0
  150.6463  143.5507  157.9736 O   0  0  0  0  0  0  0  0  0  0  0  0
  152.5136  142.7365  158.9580 N   0  0  0  0  0  0  0  0  0  0  0  0
  152.5991  143.8025  159.9641 C   0  0  0  0  0  0  0  0  0  0  0  0
  152.1367  143.2435  161.3209 C   0  0  0  0  0  0  0  0  0  0  0  0
  153.2147  141.8842  161.8763 S   0  0  0  0  0  0  0  0  0  0  0  0
  153.2494  140.8741  160.3617 C   0  0  0  0  0  0  0  0  0  0  0  0
  153.5783  141.7419  159.1363 C   0  0  0  0  0  0  0  0  0  0  0  0
  151.2449  140.1029  158.0644 C   0  0  0  0  0  0  0  0  0  0  0  0
  151.0661  138.8544  157.1856 C   0  0  0  0  0  0  0  0  0  0  0  0
  149.6338  136.1326  153.8669 H   0  0  0  0  0  0  0  0  0  0  0  0
  148.6568  134.2341  152.7874 H   0  0  0  0  0  0  0  0  0  0  0  0
  148.5714  131.7398  152.6956 H   0  0  0  0  0  0  0  0  0  0  0  0
  150.3222  131.3789  156.4191 H   0  0  0  0  0  0  0  0  0  0  0  0
  150.4853  133.8304  156.7051 H   0  0  0  0  0  0  0  0  0  0  0  0
  149.6594  137.9838  154.4409 H   0  0  0  0  0  0  0  0  0  0  0  0
  148.9407  139.0188  156.9645 H   0  0  0  0  0  0  0  0  0  0  0  0
  150.6593  140.1950  154.7328 H   0  0  0  0  0  0  0  0  0  0  0  0
  148.9251  140.3486  154.8832 H   0  0  0  0  0  0  0  0  0  0  0  0
  150.0936  142.3847  155.7006 H   0  0  0  0  0  0  0  0  0  0  0  0
  149.1624  141.6329  156.9716 H   0  0  0  0  0  0  0  0  0  0  0  0
  152.1767  141.2652  156.5620 H   0  0  0  0  0  0  0  0  0  0  0  0
  153.6221  144.1744  160.0379 H   0  0  0  0  0  0  0  0  0  0  0  0
  151.9962  144.6722  159.6996 H   0  0  0  0  0  0  0  0  0  0  0  0
  152.1442  144.0279  162.0779 H   0  0  0  0  0  0  0  0  0  0  0  0
  151.1117  142.8775  161.2502 H   0  0  0  0  0  0  0  0  0  0  0  0
  153.9946  140.0880  160.4830 H   0  0  0  0  0  0  0  0  0  0  0  0
  152.2833  140.3840  160.2365 H   0  0  0  0  0  0  0  0  0  0  0  0
  153.7353  141.1252  158.2526 H   0  0  0  0  0  0  0  0  0  0  0  0
  154.5344  142.2447  159.2891 H   0  0  0  0  0  0  0  0  0  0  0  0
  152.1546  140.0019  158.6577 H   0  0  0  0  0  0  0  0  0  0  0  0
  150.4171  140.1550  158.7736 H   0  0  0  0  0  0  0  0  0  0  0  0
  151.0015  137.9674  157.8173 H   0  0  0  0  0  0  0  0  0  0  0  0
  151.9494  138.7239  156.5587 H   0  0  0  0  0  0  0  0  0  0  0  0
  1  2  2  0  0  0  0
  2  3  1  0  0  0  0
  2 10  1  0  0  0  0
  3  4  1  0  0  0  0
  3 25  1  0  0  0  0
  4  9  1  0  0  0  0
  4  5  2  0  0  0  0
  5  6  1  0  0  0  0
  5 26  1  0  0  0  0
  6  7  2  0  0  0  0
  6 27  1  0  0  0  0
  7  8  1  0  0  0  0
  8  9  2  0  0  0  0
  8 28  1  0  0  0  0
  9 29  1  0  0  0  0
 10 11  1  0  0  0  0
 10 30  1  0  0  0  0
 11 24  1  0  0  0  0
 11 12  1  0  0  0  0
 11 31  1  0  0  0  0
 12 13  1  0  0  0  0
 12 32  1  0  0  0  0
 12 33  1  0  0  0  0
 13 14  1  0  0  0  0
 13 34  1  0  0  0  0
 13 35  1  0  0  0  0
 14 15  1  0  0  0  0
 14 23  1  0  0  0  0
 14 36  1  0  0  0  0
 15 16  2  0  0  0  0
 15 17  1  0  0  0  0
 17 22  1  0  0  0  0
 17 18  1  0  0  0  0
 18 19  1  0  0  0  0
 18 37  1  0  0  0  0
 18 38  1  0  0  0  0
 19 20  1  0  0  0  0
 19 39  1  0  0  0  0
 19 40  1  0  0  0  0
 20 21  1  0  0  0  0
 21 22  1  0  0  0  0
 21 41  1  0  0  0  0
 21 42  1  0  0  0  0
 22 43  1  0  0  0  0
 22 44  1  0  0  0  0
 23 24  1  0  0  0  0
 23 45  1  0  0  0  0
 23 46  1  0  0  0  0
 24 47  1  0  0  0  0
 24 48  1  0  0  0  0
M  END
> <s_m_source_file>
AV-unprocessed.smi

> <i_m_source_file_index>
1080

> <i_lp_mmshare_version>
43012

> <i_f3d_flags>
0

> <s_epik_input>
W2NIXTFbY0hdbltjSF1bY0hdYzFbTkhdQyg9TylbTkhdW0NAQEhdMltDSDJdW0NIMl1bQ0BIXShbQ0gyXVtDSDJdMilDKD1PKU4zW0NIMl1bQ0gyXVNbQ0gyXVtDSDJdMw==

> <s_epik_cmdline>
J2VwaWtfcHl0aG9uJywgJy1waCcsICc3LjAnLCAnLXRuJywgJzgnLCAnLW1hJywgJzIwMCcsICctbWV0YWxfYmluZGluZycsICctaW1hZScsICc8aW5maWxlLm1hZT4nLCAnLW9tYWUnLCAnPG91dGZpbGUubWFlPic=

> <r_epik_Ionization_Penalty>
0.118325

> <r_epik_Ionization_Penalty_Charging>
0

> <r_epik_Ionization_Penalty_Neutral>
0.118325

> <r_epik_State_Penalty>
0.107868

> <r_epik_Charging_Adjusted_Penalty>
0.107868

> <i_epik_Tot_Q>
0

> <i_epik_Tot_abs_Q>
0

> <r_epik_Metal_State_Penalty>
0.0897632

> <b_epik_Metal_Only>
0

> <s_lp_Force_Field>
OPLS_2005

> <r_lp_Energy>
33.2651

> <b_lp_Chiralities_Consistent>
1

> <s_lp_Variant>
AV-unprocessed.smi:1080-1

> <Gold.Version>
5.8.1

> <Gold.Id.Protein>
6NUR|6NUR_protein|mol2

> <Gold.PLP.Fitness>
47.6956

> <Gold.PLP.PLP>
-42.4413

> <Gold.PLP.part.hbond>
-1.0000

> <Gold.PLP.part.metal>
0.0000

> <Gold.PLP.part.buried>
-5.5136

> <Gold.PLP.part.nonpolar>
-35.7136

> <Gold.PLP.part.repulsive>
0.3495

> <Gold.PLP.ligand.clash>
0.0000

> <Gold.PLP.ligand.torsion>
0.1611

> <Gold.PLP.Chemscore.Hbond>
0.8382

> <Gold.PLP.Chemscore.CHOScore>
1.0000

> <Gold.PLP.Chemscore.Metal>
0.0000

> <Gold.Chemscore.Hbonds>
donor molecule, donor type, donor heavy atom, donor atom, acceptor molecule, acceptor atom, score
      L1  H     3    25       P1  7948  0.86
      L1  C     6    27       P1 10747  0.85

> <Gold.PLP.Chemscore.Internal.Correction>
0.0617

> <Gold.Rescore>
     Score         DG    S(hbond)    S(metal)    S(lipo)     H(rot)  DE(clash)    DE(int)     intcor
     14.61     -17.31       0.67        0.00     108.93       1.23       0.16       2.54       ----

> <Gold.Chemscore.Fitness>
14.6092

> <Gold.Chemscore.DG>
-17.3067

> <Gold.Chemscore.ZeroCoef>
-5.4800

> <Gold.Chemscore.Hbond>
0.6713

> <Gold.Chemscore.Metal>
0.0000

> <Gold.Chemscore.Lipo>
108.9288

> <Gold.Chemscore.Internal_Hbond>
0.0000

> <Gold.Chemscore.DEClash>
0.1596

> <Gold.Chemscore.DEInternal>
2.5380

> <Gold.Chemscore.Rot>
1.2344

> <Gold.Chemscore.Internal.Correction>
   9.000000E+99

> <Gold.Chemscore.Hbonds>
donor molecule, donor type, donor heavy atom, donor atom, acceptor molecule, acceptor atom, score
      L1  H     3    25       P1  7948  0.40

> <Gold.Chemscore.Hbond.Weighted>
-2.2420

> <Gold.Chemscore.Metal.Weighted>
-0.0000

> <Gold.Chemscore.Lipo.Weighted>
-12.7447

> <Gold.Chemscore.Internal_Hbond.Weighted>
0.0000

> <Gold.Chemscore.DEClash.Weighted>
0.1596

> <Gold.Chemscore.DEInternal.Weighted>
2.5380

> <Gold.Chemscore.Rot.Weighted>
3.1600

> <Gold.Chemscore.Internal.Correction.Weighted>
   9.000000E+99

> <Gold.Protein.RotatedTorsions>
[ 6907 6896 6895 6894 ] final -179.79 input  -60.11 | X-H torsion
[ 7974 7965 7964 7962 ] final  -73.95 input  175.53 | X-H torsion
[ 8008 7997 7996 7995 ] final    9.79 input   59.86 | X-H torsion
[ 10167 10162 10161 10158 ] final   44.08 input  -65.29 | X-H torsion
[ 10718 10713 10712 10709 ] final  117.48 input   66.30 | X-H torsion
[ 10763 10752 10751 10750 ] final  -86.49 input  -60.55 | X-H torsion
[ 11005 11000 10999 10996 ] final  119.75 input  -57.11 | X-H torsion

> <Gold.Protein.ActiveResidues>
 VAL166  LYS551  ARG553  GLY616  TRP617  ASP618  TYR619  PRO620  LYS621  CYS622 
 ASP623  PHE694  ASN695  SER759  ASP760  ASP761  ALA762  ILE779  LEU786  VAL792 
 PHE793  MET794  SER795  GLU796  ALA797  LYS798  CYS799  TRP800  GLU811  SER814 

> <Gold.Protein.RotatedAtoms>
  151.6592  133.3317  159.3169 H   0  0  0  0  0  0  0  0  0  0  0  0  # atno 6907 bound_to 6896
  150.7922  134.6958  159.6531 H   0  0  0  0  0  0  0  0  0  0  0  0  # atno 6908 bound_to 6896
  152.4003  134.6301  160.0124 H   0  0  0  0  0  0  0  0  0  0  0  0  # atno 6909 bound_to 6896
  145.6455  140.9298  143.1013 H   0  0  0  0  0  0  0  0  0  0  0  0  # atno 7974 bound_to 7965
  154.7848  140.2825  155.6036 H   0  0  0  0  0  0  0  0  0  0  0  0  # atno 8008 bound_to 7997
  156.2955  140.2616  156.2610 H   0  0  0  0  0  0  0  0  0  0  0  0  # atno 8009 bound_to 7997
  154.9741  140.0375  157.2237 H   0  0  0  0  0  0  0  0  0  0  0  0  # atno 8010 bound_to 7997
  140.3379  144.2507  150.6159 H   0  0  0  0  0  0  0  0  0  0  0  0  # atno 10167 bound_to 10162
  157.6094  131.1037  150.7621 H   0  0  0  0  0  0  0  0  0  0  0  0  # atno 10718 bound_to 10713
  154.6230  135.5447  153.7596 H   0  0  0  0  0  0  0  0  0  0  0  0  # atno 10763 bound_to 10752
  153.0247  135.6417  154.1412 H   0  0  0  0  0  0  0  0  0  0  0  0  # atno 10764 bound_to 10752
  154.1346  135.2912  155.3156 H   0  0  0  0  0  0  0  0  0  0  0  0  # atno 10765 bound_to 10752
  139.9158  134.9630  156.7702 H   0  0  0  0  0  0  0  0  0  0  0  0  # atno 11005 bound_to 11000
  144.7142  139.8259  143.7404 LP  0  0  0  0  0  0  0  0  0  0  0  0  # atno 17320 bound_to 7965
  146.1246  139.4270  143.0207 LP  0  0  0  0  0  0  0  0  0  0  0  0  # atno 17321 bound_to 7965
  140.5336  143.2238  151.8199 LP  0  0  0  0  0  0  0  0  0  0  0  0  # atno 17342 bound_to 10162
  139.4845  144.4689  151.9449 LP  0  0  0  0  0  0  0  0  0  0  0  0  # atno 17343 bound_to 10162
  156.8002  130.4918  149.5371 LP  0  0  0  0  0  0  0  0  0  0  0  0  # atno 17370 bound_to 10713
  156.1191  130.6096  151.0166 LP  0  0  0  0  0  0  0  0  0  0  0  0  # atno 17371 bound_to 10713
  140.6627  133.9631  155.7813 LP  0  0  0  0  0  0  0  0  0  0  0  0  # atno 17394 bound_to 11000
  141.0632  134.0315  157.3629 LP  0  0  0  0  0  0  0  0  0  0  0  0  # atno 17395 bound_to 11000

$$$$
