AV-unprocessed.smi:1945|AV-procd|sdf|7860|dock10
  -GOLD-   2272010 13D 1   1.00000     0.00000
 Structure written by MMmdl.
 47 48  0  0  0  0  0  0  0  0  1 V2000
  151.9442  141.5933  158.2085 C   0  0  0  0  0  0  0  0  0  0  0  0
  151.6391  140.7453  157.0095 C   0  0  0  0  0  0  0  0  0  0  0  0
  150.3955  140.6030  156.3285 C   0  0  0  0  0  0  0  0  0  0  0  0
  150.6974  139.7172  155.3302 C   0  0  0  0  0  0  0  0  0  0  0  0
  149.8835  139.2111  154.3654 N   0  0  0  0  0  0  0  0  0  0  0  0
  148.9186  139.8347  153.6673 C   0  0  0  0  0  0  0  0  0  0  0  0
  148.6223  141.0256  153.7664 O   0  0  0  0  0  0  0  0  0  0  0  0
  148.2967  138.9842  152.8379 N   0  0  0  0  0  0  0  0  0  0  0  0
  147.1547  139.3195  151.9932 C   0  0  0  0  0  0  0  0  0  0  0  0
  146.5319  138.0598  151.3746 C   0  0  0  0  0  0  0  0  0  0  0  0
  145.7691  137.3863  152.3647 O   0  0  0  0  0  0  0  0  0  0  0  0
  144.8324  136.4455  151.8592 C   0  0  1  0  0  0  0  0  0  0  0  0
  145.5942  135.3025  151.1544 C   0  0  0  0  0  0  0  0  0  0  0  0
  144.6476  134.1753  150.7170 C   0  0  0  0  0  0  0  0  0  0  0  0
  143.8415  133.6404  151.9085 C   0  0  0  0  0  0  0  0  0  0  0  0
  143.0732  134.7726  152.6065 C   0  0  0  0  0  0  0  0  0  0  0  0
  144.0129  135.9099  153.0551 C   0  0  2  0  0  0  0  0  0  0  0  0
  143.2191  137.0282  153.7494 C   0  0  0  0  0  0  0  0  0  0  0  0
  152.0296  139.3761  155.4269 N   0  0  0  0  0  0  0  0  0  0  0  0
  152.8278  138.4790  154.6135 C   0  0  0  0  0  0  0  0  0  0  0  0
  152.6059  140.0127  156.4687 N   0  0  0  0  0  0  0  0  0  0  0  0
  151.0636  142.1475  158.5336 H   0  0  0  0  0  0  0  0  0  0  0  0
  152.7288  142.3174  157.9883 H   0  0  0  0  0  0  0  0  0  0  0  0
  152.2790  140.9816  159.0466 H   0  0  0  0  0  0  0  0  0  0  0  0
  149.4534  141.0798  156.5529 H   0  0  0  0  0  0  0  0  0  0  0  0
  150.0050  138.2278  154.1735 H   0  0  0  0  0  0  0  0  0  0  0  0
  148.6105  138.0250  152.8160 H   0  0  0  0  0  0  0  0  0  0  0  0
  146.4070  139.8886  152.5482 H   0  0  0  0  0  0  0  0  0  0  0  0
  147.5132  139.9742  151.1988 H   0  0  0  0  0  0  0  0  0  0  0  0
  145.8770  138.3365  150.5475 H   0  0  0  0  0  0  0  0  0  0  0  0
  147.3154  137.4206  150.9669 H   0  0  0  0  0  0  0  0  0  0  0  0
  144.1514  136.9288  151.1557 H   0  0  0  0  0  0  0  0  0  0  0  0
  146.1312  135.6762  150.2832 H   0  0  0  0  0  0  0  0  0  0  0  0
  146.3497  134.8987  151.8299 H   0  0  0  0  0  0  0  0  0  0  0  0
  143.9673  134.5455  149.9492 H   0  0  0  0  0  0  0  0  0  0  0  0
  145.2192  133.3662  150.2615 H   0  0  0  0  0  0  0  0  0  0  0  0
  143.1464  132.8708  151.5719 H   0  0  0  0  0  0  0  0  0  0  0  0
  144.5140  133.1605  152.6205 H   0  0  0  0  0  0  0  0  0  0  0  0
  142.3149  135.1672  151.9285 H   0  0  0  0  0  0  0  0  0  0  0  0
  142.5373  134.3707  153.4671 H   0  0  0  0  0  0  0  0  0  0  0  0
  144.7109  135.4975  153.7855 H   0  0  0  0  0  0  0  0  0  0  0  0
  142.5034  137.4884  153.0674 H   0  0  0  0  0  0  0  0  0  0  0  0
  143.8787  137.8138  154.1191 H   0  0  0  0  0  0  0  0  0  0  0  0
  142.6635  136.6412  154.6040 H   0  0  0  0  0  0  0  0  0  0  0  0
  152.2815  138.1817  153.7183 H   0  0  0  0  0  0  0  0  0  0  0  0
  153.0765  137.5871  155.1891 H   0  0  0  0  0  0  0  0  0  0  0  0
  153.7498  138.9765  154.3109 H   0  0  0  0  0  0  0  0  0  0  0  0
  1  2  1  0  0  0  0
  1 22  1  0  0  0  0
  1 23  1  0  0  0  0
  1 24  1  0  0  0  0
  2 21  2  0  0  0  0
  2  3  1  0  0  0  0
  3  4  2  0  0  0  0
  3 25  1  0  0  0  0
  4  5  1  0  0  0  0
  4 19  1  0  0  0  0
  5  6  1  0  0  0  0
  5 26  1  0  0  0  0
  6  7  2  0  0  0  0
  6  8  1  0  0  0  0
  8  9  1  0  0  0  0
  8 27  1  0  0  0  0
  9 10  1  0  0  0  0
  9 28  1  0  0  0  0
  9 29  1  0  0  0  0
 10 11  1  0  0  0  0
 10 30  1  0  0  0  0
 10 31  1  0  0  0  0
 11 12  1  0  0  0  0
 12 17  1  0  0  0  0
 12 13  1  0  0  0  0
 12 32  1  0  0  0  0
 13 14  1  0  0  0  0
 13 33  1  0  0  0  0
 13 34  1  0  0  0  0
 14 15  1  0  0  0  0
 14 35  1  0  0  0  0
 14 36  1  0  0  0  0
 15 16  1  0  0  0  0
 15 37  1  0  0  0  0
 15 38  1  0  0  0  0
 16 17  1  0  0  0  0
 16 39  1  0  0  0  0
 16 40  1  0  0  0  0
 17 18  1  0  0  0  0
 17 41  1  0  0  0  0
 18 42  1  0  0  0  0
 18 43  1  0  0  0  0
 18 44  1  0  0  0  0
 19 20  1  0  0  0  0
 19 21  1  0  0  0  0
 20 45  1  0  0  0  0
 20 46  1  0  0  0  0
 20 47  1  0  0  0  0
M  END
> <s_m_source_file>
AV-unprocessed.smi

> <i_m_source_file_index>
1945

> <i_lp_mmshare_version>
43012

> <i_f3d_flags>
0

> <s_epik_input>
W0NIM11jMVtjSF1jKG4objEpW0NIM10pW05IXUMoPU8pW05IXVtDSDJdW0NIMl1PW0NAQEhdMltDSDJdW0NIMl1bQ0gyXVtDSDJdW0NASF0yW0NIM10=

> <s_epik_cmdline>
J2VwaWtfcHl0aG9uJywgJy1waCcsICc3LjAnLCAnLXRuJywgJzgnLCAnLW1hJywgJzIwMCcsICctbWV0YWxfYmluZGluZycsICctaW1hZScsICc8aW5maWxlLm1hZT4nLCAnLW9tYWUnLCAnPG91dGZpbGUubWFlPic=

> <r_lp_tautomer_probability>
1

> <r_epik_Ionization_Penalty>
9.47735e-05

> <r_epik_Ionization_Penalty_Charging>
0

> <r_epik_Ionization_Penalty_Neutral>
9.47735e-05

> <r_epik_State_Penalty>
-0

> <r_epik_Charging_Adjusted_Penalty>
0

> <i_epik_Tot_Q>
0

> <i_epik_Tot_abs_Q>
0

> <r_epik_Metal_State_Penalty>
-0

> <b_epik_Metal_Only>
0

> <s_lp_Force_Field>
OPLS_2005

> <r_lp_Energy>
11.6834

> <b_lp_Chiralities_Consistent>
1

> <s_lp_Variant>
AV-unprocessed.smi:1945-4

> <Gold.Version>
5.8.1

> <Gold.Id.Protein>
6NUR|6NUR_protein|mol2

> <Gold.PLP.Fitness>
42.1647

> <Gold.PLP.PLP>
-36.9034

> <Gold.PLP.part.hbond>
-2.9649

> <Gold.PLP.part.metal>
0.0000

> <Gold.PLP.part.buried>
4.5130

> <Gold.PLP.part.nonpolar>
-39.0857

> <Gold.PLP.part.repulsive>
1.3975

> <Gold.PLP.ligand.clash>
0.0000

> <Gold.PLP.ligand.torsion>
0.5032

> <Gold.PLP.Chemscore.Hbond>
2.0813

> <Gold.PLP.Chemscore.CHOScore>
0.0000

> <Gold.PLP.Chemscore.Metal>
0.0000

> <Gold.Chemscore.Hbonds>
donor molecule, donor type, donor heavy atom, donor atom, acceptor molecule, acceptor atom, score
      L1  H     8    27       P1  7948  0.99
      P1  H  7997  8009       L1    21  0.93
      P1  H  8011  8017       L1     7  0.27

> <Gold.PLP.Chemscore.Internal.Correction>
0.0236

> <Gold.Rescore>
     Score         DG    S(hbond)    S(metal)    S(lipo)     H(rot)  DE(clash)    DE(int)     intcor
     13.95     -18.26       2.22        0.00      81.48       1.63       3.98       0.33       ----

> <Gold.Chemscore.Fitness>
13.9518

> <Gold.Chemscore.DG>
-18.2589

> <Gold.Chemscore.ZeroCoef>
-5.4800

> <Gold.Chemscore.Hbond>
2.2223

> <Gold.Chemscore.Metal>
0.0000

> <Gold.Chemscore.Lipo>
81.4800

> <Gold.Chemscore.Internal_Hbond>
0.0000

> <Gold.Chemscore.DEClash>
3.9779

> <Gold.Chemscore.DEInternal>
0.3292

> <Gold.Chemscore.Rot>
1.6316

> <Gold.Chemscore.Internal.Correction>
   9.000000E+99

> <Gold.Chemscore.Hbonds>
donor molecule, donor type, donor heavy atom, donor atom, acceptor molecule, acceptor atom, score
      L1  H     8    27       P1  7948  0.89
      P1  H  7997  8009       L1    21  0.90
      P1  H  8011  8017       L1     7  0.22

> <Gold.Chemscore.Hbond.Weighted>
-7.4225

> <Gold.Chemscore.Metal.Weighted>
-0.0000

> <Gold.Chemscore.Lipo.Weighted>
-9.5332

> <Gold.Chemscore.Internal_Hbond.Weighted>
0.0000

> <Gold.Chemscore.DEClash.Weighted>
3.9779

> <Gold.Chemscore.DEInternal.Weighted>
0.3292

> <Gold.Chemscore.Rot.Weighted>
4.1768

> <Gold.Chemscore.Internal.Correction.Weighted>
   9.000000E+99

> <Gold.Protein.RotatedTorsions>
[ 6907 6896 6895 6894 ] final  125.40 input  -60.11 | X-H torsion
[ 7974 7965 7964 7962 ] final   34.51 input  175.53 | X-H torsion
[ 8008 7997 7996 7995 ] final  175.19 input   59.86 | X-H torsion
[ 10167 10162 10161 10158 ] final   80.44 input  -65.29 | X-H torsion
[ 10718 10713 10712 10709 ] final -172.27 input   66.30 | X-H torsion
[ 10763 10752 10751 10750 ] final  -10.07 input  -60.55 | X-H torsion
[ 11005 11000 10999 10996 ] final -134.20 input  -57.11 | X-H torsion

> <Gold.Protein.ActiveResidues>
 VAL166  LYS551  ARG553  GLY616  TRP617  ASP618  TYR619  PRO620  LYS621  CYS622 
 ASP623  PHE694  ASN695  SER759  ASP760  ASP761  ALA762  ILE779  LEU786  VAL792 
 PHE793  MET794  SER795  GLU796  ALA797  LYS798  CYS799  TRP800  GLU811  SER814 

> <Gold.Protein.RotatedAtoms>
  152.3995  133.6797  159.6304 H   0  0  0  0  0  0  0  0  0  0  0  0  # atno 6907 bound_to 6896
  150.7889  133.8815  159.3296 H   0  0  0  0  0  0  0  0  0  0  0  0  # atno 6908 bound_to 6896
  151.6584  135.0994  160.0226 H   0  0  0  0  0  0  0  0  0  0  0  0  # atno 6909 bound_to 6896
  146.1348  139.6260  142.9203 H   0  0  0  0  0  0  0  0  0  0  0  0  # atno 7974 bound_to 7965
  156.0896  140.1415  156.9609 H   0  0  0  0  0  0  0  0  0  0  0  0  # atno 8008 bound_to 7997
  154.4634  140.0935  156.7002 H   0  0  0  0  0  0  0  0  0  0  0  0  # atno 8009 bound_to 7997
  155.4941  140.3449  155.4362 H   0  0  0  0  0  0  0  0  0  0  0  0  # atno 8010 bound_to 7997
  139.9497  144.6034  150.8172 H   0  0  0  0  0  0  0  0  0  0  0  0  # atno 10167 bound_to 10162
  156.7531  130.9385  151.3115 H   0  0  0  0  0  0  0  0  0  0  0  0  # atno 10718 bound_to 10713
  153.4638  135.7016  153.6034 H   0  0  0  0  0  0  0  0  0  0  0  0  # atno 10763 bound_to 10752
  153.4317  135.3801  155.2175 H   0  0  0  0  0  0  0  0  0  0  0  0  # atno 10764 bound_to 10752
  154.8727  135.3952  154.4067 H   0  0  0  0  0  0  0  0  0  0  0  0  # atno 10765 bound_to 10752
  140.9012  134.1688  157.4459 H   0  0  0  0  0  0  0  0  0  0  0  0  # atno 11005 bound_to 11000
  145.5181  141.0433  143.2450 LP  0  0  0  0  0  0  0  0  0  0  0  0  # atno 17320 bound_to 7965
  144.7728  139.6697  143.7187 LP  0  0  0  0  0  0  0  0  0  0  0  0  # atno 17321 bound_to 7965
  140.7586  143.3111  151.2842 LP  0  0  0  0  0  0  0  0  0  0  0  0  # atno 17342 bound_to 10162
  139.6638  144.0142  152.2710 LP  0  0  0  0  0  0  0  0  0  0  0  0  # atno 17343 bound_to 10162
  157.6768  130.9102  150.0170 LP  0  0  0  0  0  0  0  0  0  0  0  0  # atno 17370 bound_to 10713
  156.1388  130.3642  149.9615 LP  0  0  0  0  0  0  0  0  0  0  0  0  # atno 17371 bound_to 10713
  139.8742  134.9899  156.5476 LP  0  0  0  0  0  0  0  0  0  0  0  0  # atno 17394 bound_to 11000
  140.8227  133.8340  155.8911 LP  0  0  0  0  0  0  0  0  0  0  0  0  # atno 17395 bound_to 11000

$$$$
