AV-unprocessed.smi:36|AV-procd|sdf|300|dock2
  -GOLD-   2262016103D 1   1.00000     0.00000
 Structure written by MMmdl.
 63 66  0  0  0  0  0  0  0  0  2 V2000
  145.0056  133.5497  162.4492 C   0  0  0  0  0  0  0  0  0  0  0  0
  143.6745  134.2064  162.0477 C   0  0  0  0  0  0  0  0  0  0  0  0
  142.8418  133.2279  161.2021 C   0  0  0  0  0  0  0  0  0  0  0  0
  142.8863  134.6036  163.3067 C   0  0  0  0  0  0  0  0  0  0  0  0
  144.0267  135.7730  161.0134 Si  0  0  0  0  0  0  0  0  0  0  0  0
  142.4160  136.6223  160.4718 C   0  0  0  0  0  0  0  0  0  0  0  0
  145.1017  137.0037  161.9864 C   0  0  0  0  0  0  0  0  0  0  0  0
  144.8661  135.3042  159.6206 O   0  0  0  0  0  0  0  0  0  0  0  0
  145.3962  136.2256  158.6907 C   0  0  0  0  0  0  0  0  0  0  0  0
  146.3372  135.5064  157.7139 C   0  0  1  0  0  0  0  0  0  0  0  0
  147.1598  136.5069  157.1111 O   0  0  0  0  0  0  0  0  0  0  0  0
  148.5023  136.1791  157.2719 C   0  0  1  0  0  0  0  0  0  0  0  0
  149.2822  137.4392  157.4438 N   0  0  0  0  0  0  0  0  0  0  0  0
  149.6684  138.0175  158.5983 C   0  0  0  0  0  0  0  0  0  0  0  0
  150.3681  139.1472  158.5143 N   0  0  0  0  0  0  0  0  0  0  0  0
  150.4531  139.3233  157.1409 C   0  0  0  0  0  0  0  0  0  0  0  0
  151.0565  140.3311  156.3395 C   0  0  0  0  0  0  0  0  0  0  0  0
  151.7135  141.3766  156.8630 N   0  5  0  0  0  0  0  0  0  0  0  0
  152.1968  141.3077  158.1293 C   0  0  0  0  0  0  0  0  0  0  0  0
  152.6063  140.3114  158.7294 O   0  0  0  0  0  0  0  0  0  0  0  0
  152.1401  142.6228  158.8602 C   0  0  0  0  0  0  0  0  0  0  0  0
  152.3047  142.6514  160.2641 C   0  0  0  0  0  0  0  0  0  0  0  0
  152.2780  143.8733  160.9640 C   0  0  0  0  0  0  0  0  0  0  0  0
  152.0950  145.0818  160.2665 C   0  0  0  0  0  0  0  0  0  0  0  0
  151.9446  145.0677  158.8673 C   0  0  0  0  0  0  0  0  0  0  0  0
  151.9717  143.8462  158.1665 C   0  0  0  0  0  0  0  0  0  0  0  0
  150.9610  140.1868  154.9931 N   0  0  0  0  0  0  0  0  0  0  0  0
  150.3107  139.1411  154.4700 C   0  0  0  0  0  0  0  0  0  0  0  0
  149.6939  138.1362  155.0984 N   0  0  0  0  0  0  0  0  0  0  0  0
  149.7895  138.2658  156.4541 C   0  0  0  0  0  0  0  0  0  0  0  0
  148.5912  135.2960  158.5114 C   0  0  0  0  0  0  0  0  0  0  0  0
  147.2969  134.5174  158.4034 C   0  0  2  0  0  0  0  0  0  0  0  0
  147.4745  133.3671  157.6002 O   0  0  0  0  0  0  0  0  0  0  0  0
  144.8403  132.6506  163.0437 H   0  0  0  0  0  0  0  0  0  0  0  0
  145.6201  134.2273  163.0423 H   0  0  0  0  0  0  0  0  0  0  0  0
  145.5864  133.2608  161.5730 H   0  0  0  0  0  0  0  0  0  0  0  0
  143.3797  132.9181  160.3059 H   0  0  0  0  0  0  0  0  0  0  0  0
  141.9030  133.6810  160.8813 H   0  0  0  0  0  0  0  0  0  0  0  0
  142.5970  132.3265  161.7649 H   0  0  0  0  0  0  0  0  0  0  0  0
  142.6457  133.7316  163.9158 H   0  0  0  0  0  0  0  0  0  0  0  0
  141.9473  135.0936  163.0473 H   0  0  0  0  0  0  0  0  0  0  0  0
  143.4551  135.2926  163.9316 H   0  0  0  0  0  0  0  0  0  0  0  0
  141.8200  136.9351  161.3286 H   0  0  0  0  0  0  0  0  0  0  0  0
  141.7962  135.9594  159.8686 H   0  0  0  0  0  0  0  0  0  0  0  0
  142.6162  137.5111  159.8735 H   0  0  0  0  0  0  0  0  0  0  0  0
  144.6005  137.3411  162.8932 H   0  0  0  0  0  0  0  0  0  0  0  0
  145.3325  137.8904  161.3964 H   0  0  0  0  0  0  0  0  0  0  0  0
  146.0499  136.5595  162.2874 H   0  0  0  0  0  0  0  0  0  0  0  0
  144.5698  136.6859  158.1486 H   0  0  0  0  0  0  0  0  0  0  0  0
  145.9216  137.0271  159.2092 H   0  0  0  0  0  0  0  0  0  0  0  0
  145.7450  135.0111  156.9427 H   0  0  0  0  0  0  0  0  0  0  0  0
  148.8922  135.7030  156.3710 H   0  0  0  0  0  0  0  0  0  0  0  0
  149.4192  137.5870  159.5570 H   0  0  0  0  0  0  0  0  0  0  0  0
  152.4474  141.7331  160.8149 H   0  0  0  0  0  0  0  0  0  0  0  0
  152.3988  143.8827  162.0372 H   0  0  0  0  0  0  0  0  0  0  0  0
  152.0748  146.0186  160.8032 H   0  0  0  0  0  0  0  0  0  0  0  0
  151.8109  145.9944  158.3292 H   0  0  0  0  0  0  0  0  0  0  0  0
  151.8643  143.8588  157.0913 H   0  0  0  0  0  0  0  0  0  0  0  0
  150.2783  139.1050  153.3914 H   0  0  0  0  0  0  0  0  0  0  0  0
  149.4943  134.6845  158.5069 H   0  0  0  0  0  0  0  0  0  0  0  0
  148.5824  135.9104  159.4120 H   0  0  0  0  0  0  0  0  0  0  0  0
  146.9395  134.1934  159.3806 H   0  0  0  0  0  0  0  0  0  0  0  0
  146.6484  133.1554  157.1932 H   0  0  0  0  0  0  0  0  0  0  0  0
  1  2  1  0  0  0  0
  1 34  1  0  0  0  0
  1 35  1  0  0  0  0
  1 36  1  0  0  0  0
  2  3  1  0  0  0  0
  2  4  1  0  0  0  0
  2  5  1  0  0  0  0
  3 37  1  0  0  0  0
  3 38  1  0  0  0  0
  3 39  1  0  0  0  0
  4 40  1  0  0  0  0
  4 41  1  0  0  0  0
  4 42  1  0  0  0  0
  5  6  1  0  0  0  0
  5  7  1  0  0  0  0
  5  8  1  0  0  0  0
  6 43  1  0  0  0  0
  6 44  1  0  0  0  0
  6 45  1  0  0  0  0
  7 46  1  0  0  0  0
  7 47  1  0  0  0  0
  7 48  1  0  0  0  0
  8  9  1  0  0  0  0
  9 10  1  0  0  0  0
  9 49  1  0  0  0  0
  9 50  1  0  0  0  0
 10 32  1  0  0  0  0
 10 11  1  0  0  0  0
 10 51  1  0  0  0  0
 11 12  1  0  0  0  0
 12 13  1  0  0  0  0
 12 31  1  0  0  0  0
 12 52  1  0  0  0  0
 13 30  1  0  0  0  0
 13 14  1  0  0  0  0
 14 15  2  0  0  0  0
 14 53  1  0  0  0  0
 15 16  1  0  0  0  0
 16 30  2  0  0  0  0
 16 17  1  0  0  0  0
 17 18  1  0  0  0  0
 17 27  2  0  0  0  0
 18 19  1  0  0  0  0
 19 20  2  0  0  0  0
 19 21  1  0  0  0  0
 21 26  1  0  0  0  0
 21 22  2  0  0  0  0
 22 23  1  0  0  0  0
 22 54  1  0  0  0  0
 23 24  2  0  0  0  0
 23 55  1  0  0  0  0
 24 25  1  0  0  0  0
 24 56  1  0  0  0  0
 25 26  2  0  0  0  0
 25 57  1  0  0  0  0
 26 58  1  0  0  0  0
 27 28  1  0  0  0  0
 28 29  2  0  0  0  0
 28 59  1  0  0  0  0
 29 30  1  0  0  0  0
 31 32  1  0  0  0  0
 31 60  1  0  0  0  0
 31 61  1  0  0  0  0
 32 33  1  0  0  0  0
 32 62  1  0  0  0  0
 33 63  1  0  0  0  0
M  CHG  1  18  -1
M  END
> <s_m_source_file>
AV-unprocessed.smi

> <i_m_source_file_index>
36

> <i_lp_mmshare_version>
43012

> <i_f3d_flags>
0

> <s_epik_input>
W0NIM11DKFtDSDNdKShbQ0gzXSlbU2ldKFtDSDNdKShbQ0gzXSlPW0NIMl1bQ0BASF0xT1tDQEhdKFtDSDJdW0NASF0xW09IXSluKFtjSF1uMiljKGMyMyluW2NIXW5jM1tOSF1DKD1PKWM0W2NIXVtjSF1bY0hdW2NIXVtjSF00

> <s_epik_cmdline>
J2VwaWtfcHl0aG9uJywgJy1waCcsICc3LjAnLCAnLXRuJywgJzgnLCAnLW1hJywgJzIwMCcsICctbWV0YWxfYmluZGluZycsICctaW1hZScsICc8aW5maWxlLm1hZT4nLCAnLW9tYWUnLCAnPG91dGZpbGUubWFlPic=

> <r_lp_tautomer_probability>
1

> <r_epik_Ionization_Penalty>
4.75685

> <r_epik_Ionization_Penalty_Charging>
3.55822

> <r_epik_Ionization_Penalty_Neutral>
1.19863

> <r_epik_State_Penalty>
3.564

> <r_epik_Charging_Adjusted_Penalty>
7.12222

> <i_epik_Tot_Q>
-1

> <i_epik_Tot_abs_Q>
1

> <r_epik_Metal_State_Penalty>
0.523258

> <b_epik_Metal_Only>
1

> <s_epik_Chemistry_Notes>
This compound contains an acetal/aminal-like group ( X-CH(R)-Y where X, Y are N, S, or O) that may be acid/base labile, releasing an aldehyde.

> <s_lp_Force_Field>
OPLS_2005

> <r_lp_Energy>
29.6254

> <b_lp_Chiralities_Consistent>
1

> <s_lp_Variant>
AV-unprocessed.smi:36-22

> <Gold.Version>
5.8.1

> <Gold.Id.Protein>
6NUR|6NUR_protein|mol2

> <Gold.PLP.Fitness>
51.3171

> <Gold.PLP.PLP>
-47.1518

> <Gold.PLP.part.hbond>
-1.0000

> <Gold.PLP.part.metal>
0.0000

> <Gold.PLP.part.buried>
-6.5395

> <Gold.PLP.part.nonpolar>
-39.6035

> <Gold.PLP.part.repulsive>
0.1981

> <Gold.PLP.ligand.clash>
0.0000

> <Gold.PLP.ligand.torsion>
1.2848

> <Gold.PLP.Chemscore.Hbond>
1.0000

> <Gold.PLP.Chemscore.CHOScore>
1.0000

> <Gold.PLP.Chemscore.Metal>
0.0000

> <Gold.Chemscore.Hbonds>
donor molecule, donor type, donor heavy atom, donor atom, acceptor molecule, acceptor atom, score
      P1  H  7989  7998       L1    27  0.95
      L1  C    28    59       P1  7957  1.00

> <Gold.PLP.Chemscore.Internal.Correction>
0.7350

> <Gold.Rescore>
     Score         DG    S(hbond)    S(metal)    S(lipo)     H(rot)  DE(clash)    DE(int)     intcor
     12.72     -17.65       1.69        0.00     114.32       2.67       0.35       4.58       ----

> <Gold.Chemscore.Fitness>
12.7154

> <Gold.Chemscore.DG>
-17.6489

> <Gold.Chemscore.ZeroCoef>
-5.4800

> <Gold.Chemscore.Hbond>
1.6855

> <Gold.Chemscore.Metal>
0.0000

> <Gold.Chemscore.Lipo>
114.3176

> <Gold.Chemscore.Internal_Hbond>
0.0000

> <Gold.Chemscore.DEClash>
0.3501

> <Gold.Chemscore.DEInternal>
4.5834

> <Gold.Chemscore.Rot>
2.6702

> <Gold.Chemscore.Internal.Correction>
   9.000000E+99

> <Gold.Chemscore.Hbonds>
donor molecule, donor type, donor heavy atom, donor atom, acceptor molecule, acceptor atom, score
      P1  H  7989  7998       L1    27  0.21

> <Gold.Chemscore.Hbond.Weighted>
-5.6295

> <Gold.Chemscore.Metal.Weighted>
-0.0000

> <Gold.Chemscore.Lipo.Weighted>
-13.3752

> <Gold.Chemscore.Internal_Hbond.Weighted>
0.0000

> <Gold.Chemscore.DEClash.Weighted>
0.3501

> <Gold.Chemscore.DEInternal.Weighted>
4.5834

> <Gold.Chemscore.Rot.Weighted>
6.8358

> <Gold.Chemscore.Internal.Correction.Weighted>
   9.000000E+99

> <Gold.Protein.RotatedTorsions>
[ 6907 6896 6895 6894 ] final   70.27 input  -60.11 | X-H torsion
[ 7974 7965 7964 7962 ] final -178.28 input  175.53 | X-H torsion
[ 8008 7997 7996 7995 ] final   42.08 input   59.86 | X-H torsion
[ 10167 10162 10161 10158 ] final   89.40 input  -65.29 | X-H torsion
[ 10718 10713 10712 10709 ] final -133.26 input   66.30 | X-H torsion
[ 10763 10752 10751 10750 ] final   65.67 input  -60.55 | X-H torsion
[ 11005 11000 10999 10996 ] final   77.03 input  -57.11 | X-H torsion

> <Gold.Protein.ActiveResidues>
 VAL166  LYS551  ARG553  GLY616  TRP617  ASP618  TYR619  PRO620  LYS621  CYS622 
 ASP623  PHE694  ASN695  SER759  ASP760  ASP761  ALA762  ILE779  LEU786  VAL792 
 PHE793  MET794  SER795  GLU796  ALA797  LYS798  CYS799  TRP800  GLU811  SER814 

> <Gold.Protein.RotatedAtoms>
  152.4739  134.4893  159.9689 H   0  0  0  0  0  0  0  0  0  0  0  0  # atno 6907 bound_to 6896
  151.4913  133.3518  159.2862 H   0  0  0  0  0  0  0  0  0  0  0  0  # atno 6908 bound_to 6896
  150.8765  134.8176  159.7255 H   0  0  0  0  0  0  0  0  0  0  0  0  # atno 6909 bound_to 6896
  144.7130  140.0893  143.6422 H   0  0  0  0  0  0  0  0  0  0  0  0  # atno 7974 bound_to 7965
  155.2803  140.3372  155.4259 H   0  0  0  0  0  0  0  0  0  0  0  0  # atno 8008 bound_to 7997
  156.2093  140.1763  156.7772 H   0  0  0  0  0  0  0  0  0  0  0  0  # atno 8009 bound_to 7997
  154.5663  140.0678  156.8882 H   0  0  0  0  0  0  0  0  0  0  0  0  # atno 8010 bound_to 7997
  139.8577  144.6561  150.9095 H   0  0  0  0  0  0  0  0  0  0  0  0  # atno 10167 bound_to 10162
  156.2431  130.7108  151.0977 H   0  0  0  0  0  0  0  0  0  0  0  0  # atno 10718 bound_to 10713
  153.0106  135.5348  154.6704 H   0  0  0  0  0  0  0  0  0  0  0  0  # atno 10763 bound_to 10752
  154.5890  135.2857  155.0657 H   0  0  0  0  0  0  0  0  0  0  0  0  # atno 10764 bound_to 10752
  154.1758  135.6524  153.5073 H   0  0  0  0  0  0  0  0  0  0  0  0  # atno 10765 bound_to 10752
  139.9272  134.7650  156.1471 H   0  0  0  0  0  0  0  0  0  0  0  0  # atno 11005 bound_to 11000
  145.9634  139.2817  143.1142 LP  0  0  0  0  0  0  0  0  0  0  0  0  # atno 17320 bound_to 7965
  145.9195  140.9125  143.0412 LP  0  0  0  0  0  0  0  0  0  0  0  0  # atno 17321 bound_to 7965
  140.7779  143.3772  151.1542 LP  0  0  0  0  0  0  0  0  0  0  0  0  # atno 17342 bound_to 10162
  139.7404  143.8933  152.3048 LP  0  0  0  0  0  0  0  0  0  0  0  0  # atno 17343 bound_to 10162
  157.7183  131.0696  150.6237 LP  0  0  0  0  0  0  0  0  0  0  0  0  # atno 17370 bound_to 10713
  156.6312  130.4432  149.5786 LP  0  0  0  0  0  0  0  0  0  0  0  0  # atno 17371 bound_to 10713
  141.0837  133.6743  156.2391 LP  0  0  0  0  0  0  0  0  0  0  0  0  # atno 17394 bound_to 11000
  140.6303  134.5271  157.5558 LP  0  0  0  0  0  0  0  0  0  0  0  0  # atno 17395 bound_to 11000

$$$$
