AV-unprocessed.smi:3142|AV-procd|sdf|11970|dock2
  -GOLD-   2272017373D 1   1.00000     0.00000
 Structure written by MMmdl.
 36 38  0  0  0  0  0  0  0  0  1 V2000
  150.2563  141.4328  155.7664 C   0  0  0  0  0  0  0  0  0  0  0  0
  150.7411  140.2618  156.6426 C   0  0  2  0  0  0  0  0  0  0  0  0
  151.9385  140.6301  157.5338 C   0  0  0  0  0  0  0  0  0  0  0  0
  152.9091  139.8781  157.6285 O   0  0  0  0  0  0  0  0  0  0  0  0
  151.8475  141.8002  158.1857 N   0  0  0  0  0  0  0  0  0  0  0  0
  152.8390  142.3462  159.1053 C   0  0  0  0  0  0  0  0  0  0  0  0
  152.7590  141.6770  160.4649 C   0  0  0  0  0  0  0  0  0  0  0  0
  152.8021  142.4794  161.7438 C   0  0  0  0  0  0  0  0  0  0  0  0
  153.9696  141.5964  161.3631 C   0  0  0  0  0  0  0  0  0  0  0  0
  152.7297  143.8549  159.2492 C   0  0  0  0  0  0  0  0  0  0  0  0
  151.3935  144.5560  159.1821 C   0  0  0  0  0  0  0  0  0  0  0  0
  152.3985  144.7360  158.0677 C   0  0  0  0  0  0  0  0  0  0  0  0
  151.0511  139.0893  155.8361 N   0  0  0  0  0  0  0  0  0  0  0  0
  150.8730  138.9524  154.4647 C   0  0  0  0  0  0  0  0  0  0  0  0
  151.2806  137.6791  154.1374 C   0  0  0  0  0  0  0  0  0  0  0  0
  151.7051  137.0135  155.2842 N   0  0  0  0  0  0  0  0  0  0  0  0
  151.5392  137.9088  156.2490 C   0  0  0  0  0  0  0  0  0  0  0  0
  149.9900  142.2976  156.3752 H   0  0  0  0  0  0  0  0  0  0  0  0
  149.3701  141.1505  155.1973 H   0  0  0  0  0  0  0  0  0  0  0  0
  151.0181  141.7503  155.0532 H   0  0  0  0  0  0  0  0  0  0  0  0
  149.9199  139.9927  157.3090 H   0  0  0  0  0  0  0  0  0  0  0  0
  151.0119  142.3497  158.0465 H   0  0  0  0  0  0  0  0  0  0  0  0
  153.8316  142.1265  158.7064 H   0  0  0  0  0  0  0  0  0  0  0  0
  152.1069  140.8055  160.4795 H   0  0  0  0  0  0  0  0  0  0  0  0
  152.9462  143.5554  161.6688 H   0  0  0  0  0  0  0  0  0  0  0  0
  152.1678  142.1501  162.5640 H   0  0  0  0  0  0  0  0  0  0  0  0
  154.1137  140.6785  161.9293 H   0  0  0  0  0  0  0  0  0  0  0  0
  154.8820  142.0857  161.0279 H   0  0  0  0  0  0  0  0  0  0  0  0
  153.4457  144.2729  159.9548 H   0  0  0  0  0  0  0  0  0  0  0  0
  150.5124  143.9546  158.9680 H   0  0  0  0  0  0  0  0  0  0  0  0
  151.2329  145.3940  159.8569 H   0  0  0  0  0  0  0  0  0  0  0  0
  152.9077  145.6952  157.9989 H   0  0  0  0  0  0  0  0  0  0  0  0
  152.1782  144.2559  157.1167 H   0  0  0  0  0  0  0  0  0  0  0  0
  150.4813  139.7500  153.8508 H   0  0  0  0  0  0  0  0  0  0  0  0
  151.2967  137.1936  153.1728 H   0  0  0  0  0  0  0  0  0  0  0  0
  151.7743  137.6994  157.2825 H   0  0  0  0  0  0  0  0  0  0  0  0
  1  2  1  0  0  0  0
  1 18  1  0  0  0  0
  1 19  1  0  0  0  0
  1 20  1  0  0  0  0
  2  3  1  0  0  0  0
  2 13  1  0  0  0  0
  2 21  1  0  0  0  0
  3  4  2  0  0  0  0
  3  5  1  0  0  0  0
  5  6  1  0  0  0  0
  5 22  1  0  0  0  0
  6  7  1  0  0  0  0
  6 10  1  0  0  0  0
  6 23  1  0  0  0  0
  7  9  1  0  0  0  0
  7  8  1  0  0  0  0
  7 24  1  0  0  0  0
  8  9  1  0  0  0  0
  8 25  1  0  0  0  0
  8 26  1  0  0  0  0
  9 27  1  0  0  0  0
  9 28  1  0  0  0  0
 10 12  1  0  0  0  0
 10 11  1  0  0  0  0
 10 29  1  0  0  0  0
 11 12  1  0  0  0  0
 11 30  1  0  0  0  0
 11 31  1  0  0  0  0
 12 32  1  0  0  0  0
 12 33  1  0  0  0  0
 13 17  1  0  0  0  0
 13 14  1  0  0  0  0
 14 15  2  0  0  0  0
 14 34  1  0  0  0  0
 15 16  1  0  0  0  0
 15 35  1  0  0  0  0
 16 17  2  0  0  0  0
 17 36  1  0  0  0  0
M  END
> <s_m_source_file>
AV-unprocessed.smi

> <i_m_source_file_index>
3142

> <i_lp_mmshare_version>
43012

> <i_f3d_flags>
0

> <s_epik_input>
W2NIXTFuW2NIXVtjSF1uMVtDQEhdKFtDSDNdKUMoPU8pW05IXVtDSF0oW0NIXTJbQ0gyXVtDSDJdMilbQ0hdM1tDSDJdW0NIMl0z

> <s_epik_cmdline>
J2VwaWtfcHl0aG9uJywgJy1waCcsICc3LjAnLCAnLXRuJywgJzgnLCAnLW1hJywgJzIwMCcsICctbWV0YWxfYmluZGluZycsICctaW1hZScsICc8aW5maWxlLm1hZT4nLCAnLW9tYWUnLCAnPG91dGZpbGUubWFlPic=

> <r_lp_tautomer_probability>
1

> <r_epik_Ionization_Penalty>
0.32285

> <r_epik_Ionization_Penalty_Charging>
0.32285

> <r_epik_Ionization_Penalty_Neutral>
3.37967e-08

> <r_epik_State_Penalty>
0.317502

> <r_epik_Charging_Adjusted_Penalty>
0.640352

> <i_epik_Tot_Q>
0

> <i_epik_Tot_abs_Q>
0

> <r_epik_Metal_State_Penalty>
0.20415

> <b_epik_Metal_Only>
0

> <s_lp_Force_Field>
OPLS_2005

> <r_lp_Energy>
29.0844

> <b_lp_Chiralities_Consistent>
1

> <s_lp_Variant>
AV-unprocessed.smi:3142-1

> <Gold.Version>
5.8.1

> <Gold.Id.Protein>
6NUR|6NUR_protein|mol2

> <Gold.PLP.Fitness>
51.9859

> <Gold.PLP.PLP>
-43.8603

> <Gold.PLP.part.hbond>
-2.0000

> <Gold.PLP.part.metal>
0.0000

> <Gold.PLP.part.buried>
-2.6186

> <Gold.PLP.part.nonpolar>
-38.3498

> <Gold.PLP.part.repulsive>
0.1587

> <Gold.PLP.ligand.clash>
0.0000

> <Gold.PLP.ligand.torsion>
2.1003

> <Gold.PLP.Chemscore.Hbond>
2.0000

> <Gold.PLP.Chemscore.CHOScore>
1.3732

> <Gold.PLP.Chemscore.Metal>
0.0000

> <Gold.Chemscore.Hbonds>
donor molecule, donor type, donor heavy atom, donor atom, acceptor molecule, acceptor atom, score
      P1  H  7997  8008       L1     4  1.00
      P1  H 10752 10765       L1    16  1.00
      L1  C    14    34       P1  7957  0.24
      L1  C    15    35       P1  7949  1.00

> <Gold.PLP.Chemscore.Internal.Correction>
2.2067

> <Gold.Rescore>
     Score         DG    S(hbond)    S(metal)    S(lipo)     H(rot)  DE(clash)    DE(int)     intcor
     16.64     -20.42       1.87        0.00     114.65       1.85       0.22       3.55       ----

> <Gold.Chemscore.Fitness>
16.6404

> <Gold.Chemscore.DG>
-20.4156

> <Gold.Chemscore.ZeroCoef>
-5.4800

> <Gold.Chemscore.Hbond>
1.8738

> <Gold.Chemscore.Metal>
0.0000

> <Gold.Chemscore.Lipo>
114.6524

> <Gold.Chemscore.Internal_Hbond>
0.0000

> <Gold.Chemscore.DEClash>
0.2202

> <Gold.Chemscore.DEInternal>
3.5550

> <Gold.Chemscore.Rot>
1.8505

> <Gold.Chemscore.Internal.Correction>
   9.000000E+99

> <Gold.Chemscore.Hbonds>
donor molecule, donor type, donor heavy atom, donor atom, acceptor molecule, acceptor atom, score
      P1  H  7997  8008       L1     4  0.99
      P1  H 10752 10765       L1    16  0.58

> <Gold.Chemscore.Hbond.Weighted>
-6.2585

> <Gold.Chemscore.Metal.Weighted>
-0.0000

> <Gold.Chemscore.Lipo.Weighted>
-13.4143

> <Gold.Chemscore.Internal_Hbond.Weighted>
0.0000

> <Gold.Chemscore.DEClash.Weighted>
0.2202

> <Gold.Chemscore.DEInternal.Weighted>
3.5550

> <Gold.Chemscore.Rot.Weighted>
4.7373

> <Gold.Chemscore.Internal.Correction.Weighted>
   9.000000E+99

> <Gold.Protein.RotatedTorsions>
[ 6907 6896 6895 6894 ] final -132.04 input  -60.11 | X-H torsion
[ 7974 7965 7964 7962 ] final -147.26 input  175.53 | X-H torsion
[ 8008 7997 7996 7995 ] final  -79.76 input   59.86 | X-H torsion
[ 10167 10162 10161 10158 ] final  142.68 input  -65.29 | X-H torsion
[ 10718 10713 10712 10709 ] final   73.81 input   66.30 | X-H torsion
[ 10763 10752 10751 10750 ] final -173.91 input  -60.55 | X-H torsion
[ 11005 11000 10999 10996 ] final -171.79 input  -57.11 | X-H torsion

> <Gold.Protein.ActiveResidues>
 VAL166  LYS551  ARG553  GLY616  TRP617  ASP618  TYR619  PRO620  LYS621  CYS622 
 ASP623  PHE694  ASN695  SER759  ASP760  ASP761  ALA762  ILE779  LEU786  VAL792 
 PHE793  MET794  SER795  GLU796  ALA797  LYS798  CYS799  TRP800  GLU811  SER814 

> <Gold.Protein.RotatedAtoms>
  150.9578  133.6478  159.2759 H   0  0  0  0  0  0  0  0  0  0  0  0  # atno 6907 bound_to 6896
  151.3812  135.0939  159.9506 H   0  0  0  0  0  0  0  0  0  0  0  0  # atno 6908 bound_to 6896
  152.5136  133.9112  159.7543 H   0  0  0  0  0  0  0  0  0  0  0  0  # atno 6909 bound_to 6896
  144.8105  140.5350  143.5646 H   0  0  0  0  0  0  0  0  0  0  0  0  # atno 7974 bound_to 7965
  154.5817  140.0673  156.9113 H   0  0  0  0  0  0  0  0  0  0  0  0  # atno 8008 bound_to 7997
  155.2452  140.3347  155.4270 H   0  0  0  0  0  0  0  0  0  0  0  0  # atno 8009 bound_to 7997
  156.2194  140.1792  156.7498 H   0  0  0  0  0  0  0  0  0  0  0  0  # atno 8010 bound_to 7997
  139.4988  144.6091  151.6312 H   0  0  0  0  0  0  0  0  0  0  0  0  # atno 10167 bound_to 10162
  157.6564  130.9647  150.1121 H   0  0  0  0  0  0  0  0  0  0  0  0  # atno 10718 bound_to 10713
  154.6023  135.2856  155.0521 H   0  0  0  0  0  0  0  0  0  0  0  0  # atno 10763 bound_to 10752
  154.1782  135.6461  153.5031 H   0  0  0  0  0  0  0  0  0  0  0  0  # atno 10764 bound_to 10752
  153.0162  135.5417  154.6747 H   0  0  0  0  0  0  0  0  0  0  0  0  # atno 10765 bound_to 10752
  140.5043  134.5864  157.4998 H   0  0  0  0  0  0  0  0  0  0  0  0  # atno 11005 bound_to 11000
  145.5335  139.1475  143.3486 LP  0  0  0  0  0  0  0  0  0  0  0  0  # atno 17320 bound_to 7965
  146.2403  140.5476  142.8937 LP  0  0  0  0  0  0  0  0  0  0  0  0  # atno 17321 bound_to 7965
  140.5760  144.0027  150.6242 LP  0  0  0  0  0  0  0  0  0  0  0  0  # atno 17342 bound_to 10162
  140.3160  143.3167  152.0831 LP  0  0  0  0  0  0  0  0  0  0  0  0  # atno 17343 bound_to 10162
  156.2015  130.3660  149.8782 LP  0  0  0  0  0  0  0  0  0  0  0  0  # atno 17370 bound_to 10713
  156.6685  130.8810  151.3558 LP  0  0  0  0  0  0  0  0  0  0  0  0  # atno 17371 bound_to 10713
  139.9695  134.7316  156.0069 LP  0  0  0  0  0  0  0  0  0  0  0  0  # atno 17394 bound_to 11000
  141.1419  133.6563  156.3755 LP  0  0  0  0  0  0  0  0  0  0  0  0  # atno 17395 bound_to 11000

$$$$
