AV-unprocessed.smi:1242|AV-procd|sdf|5217|dock10
  -GOLD-   22720 4313D 1   1.00000     0.00000
 Structure written by MMmdl.
 39 40  0  0  0  0  0  0  0  0  1 V2000
  152.9460  138.1985  160.4823 O   0  0  0  0  0  0  0  0  0  0  0  0
  154.0714  138.6989  160.4716 C   0  0  0  0  0  0  0  0  0  0  0  0
  154.3409  140.0064  159.7146 C   0  0  0  0  0  0  0  0  0  0  0  0
  153.7591  141.1852  160.3777 N   0  0  0  0  0  0  0  0  0  0  0  0
  153.0495  142.0943  159.5684 C   0  0  0  0  0  0  0  0  0  0  0  0
  152.4557  143.2006  160.0559 C   0  0  0  0  0  0  0  0  0  0  0  0
  151.7385  144.1897  159.1505 C   0  0  0  0  0  0  0  0  0  0  0  0
  151.2310  145.2026  159.8534 F   0  0  0  0  0  0  0  0  0  0  0  0
  152.5656  144.6907  158.2321 F   0  0  0  0  0  0  0  0  0  0  0  0
  150.7366  143.5804  158.5182 F   0  0  0  0  0  0  0  0  0  0  0  0
  152.6094  143.4421  161.4770 C   0  0  0  0  0  0  0  0  0  0  0  0
  153.2893  142.5857  162.2641 C   0  0  0  0  0  0  0  0  0  0  0  0
  153.9078  141.3734  161.7233 C   0  0  0  0  0  0  0  0  0  0  0  0
  154.5232  140.5785  162.4344 O   0  0  0  0  0  0  0  0  0  0  0  0
  155.1278  138.1468  161.0896 N   0  0  0  0  0  0  0  0  0  0  0  0
  155.1001  136.9177  161.8859 C   0  0  1  0  0  0  0  0  0  0  0  0
  154.1933  137.1756  163.1111 C   0  0  0  0  0  0  0  0  0  0  0  0
  154.4657  136.2313  164.2951 C   0  0  0  0  0  0  0  0  0  0  0  0
  154.1549  134.7505  164.0295 C   0  0  0  0  0  0  0  0  0  0  0  0
  155.0115  134.1293  162.9134 C   0  0  0  0  0  0  0  0  0  0  0  0
  154.5427  134.5086  161.5872 N   0  0  0  0  0  0  0  0  0  0  0  0
  154.5211  135.7432  161.0622 C   0  0  0  0  0  0  0  0  0  0  0  0
  154.0431  135.9343  159.9441 O   0  0  0  0  0  0  0  0  0  0  0  0
  155.4169  140.1419  159.5878 H   0  0  0  0  0  0  0  0  0  0  0  0
  153.9466  139.8991  158.7033 H   0  0  0  0  0  0  0  0  0  0  0  0
  153.0134  141.8304  158.5213 H   0  0  0  0  0  0  0  0  0  0  0  0
  152.1669  144.3220  161.9199 H   0  0  0  0  0  0  0  0  0  0  0  0
  153.3807  142.7959  163.3197 H   0  0  0  0  0  0  0  0  0  0  0  0
  156.0135  138.6275  161.0304 H   0  0  0  0  0  0  0  0  0  0  0  0
  156.1149  136.6827  162.2121 H   0  0  0  0  0  0  0  0  0  0  0  0
  154.3626  138.1919  163.4706 H   0  0  0  0  0  0  0  0  0  0  0  0
  153.1387  137.1381  162.8324 H   0  0  0  0  0  0  0  0  0  0  0  0
  155.5058  136.3331  164.6068 H   0  0  0  0  0  0  0  0  0  0  0  0
  153.8686  136.5614  165.1457 H   0  0  0  0  0  0  0  0  0  0  0  0
  154.3363  134.1969  164.9514 H   0  0  0  0  0  0  0  0  0  0  0  0
  153.0949  134.6211  163.8078 H   0  0  0  0  0  0  0  0  0  0  0  0
  156.0654  134.3831  163.0353 H   0  0  0  0  0  0  0  0  0  0  0  0
  154.9489  133.0427  162.9764 H   0  0  0  0  0  0  0  0  0  0  0  0
  154.1682  133.7633  161.0180 H   0  0  0  0  0  0  0  0  0  0  0  0
  1  2  2  0  0  0  0
  2  3  1  0  0  0  0
  2 15  1  0  0  0  0
  3  4  1  0  0  0  0
  3 24  1  0  0  0  0
  3 25  1  0  0  0  0
  4 13  1  0  0  0  0
  4  5  1  0  0  0  0
  5  6  2  0  0  0  0
  5 26  1  0  0  0  0
  6  7  1  0  0  0  0
  6 11  1  0  0  0  0
  7  8  1  0  0  0  0
  7  9  1  0  0  0  0
  7 10  1  0  0  0  0
 11 12  2  0  0  0  0
 11 27  1  0  0  0  0
 12 13  1  0  0  0  0
 12 28  1  0  0  0  0
 13 14  2  0  0  0  0
 15 16  1  0  0  0  0
 15 29  1  0  0  0  0
 16 22  1  0  0  0  0
 16 17  1  0  0  0  0
 16 30  1  0  0  0  0
 17 18  1  0  0  0  0
 17 31  1  0  0  0  0
 17 32  1  0  0  0  0
 18 19  1  0  0  0  0
 18 33  1  0  0  0  0
 18 34  1  0  0  0  0
 19 20  1  0  0  0  0
 19 35  1  0  0  0  0
 19 36  1  0  0  0  0
 20 21  1  0  0  0  0
 20 37  1  0  0  0  0
 20 38  1  0  0  0  0
 21 22  1  0  0  0  0
 21 39  1  0  0  0  0
 22 23  2  0  0  0  0
M  END
> <s_m_source_file>
AV-unprocessed.smi

> <i_m_source_file_index>
1242

> <i_lp_mmshare_version>
43012

> <i_f3d_flags>
0

> <s_epik_input>
Tz1jMVtjSF1bY0hdYyhDKEYpKEYpRilbY0hdbjFbQ0gyXUMoPU8pW05IXVtDQEBIXTJbQ0gyXVtDSDJdW0NIMl1bQ0gyXVtOSF1DMj1P

> <s_epik_cmdline>
J2VwaWtfcHl0aG9uJywgJy1waCcsICc3LjAnLCAnLXRuJywgJzgnLCAnLW1hJywgJzIwMCcsICctbWV0YWxfYmluZGluZycsICctaW1hZScsICc8aW5maWxlLm1hZT4nLCAnLW9tYWUnLCAnPG91dGZpbGUubWFlPic=

> <r_lp_tautomer_probability>
1

> <r_epik_Ionization_Penalty>
6.92876e-08

> <r_epik_Ionization_Penalty_Charging>
1.59659e-08

> <r_epik_Ionization_Penalty_Neutral>
5.33217e-08

> <r_epik_State_Penalty>
-0

> <r_epik_Charging_Adjusted_Penalty>
1.59659e-08

> <i_epik_Tot_Q>
0

> <i_epik_Tot_abs_Q>
0

> <r_epik_Metal_State_Penalty>
-0

> <b_epik_Metal_Only>
0

> <s_lp_Force_Field>
OPLS_2005

> <r_lp_Energy>
23.3592

> <b_lp_Chiralities_Consistent>
1

> <s_lp_Variant>
AV-unprocessed.smi:1242-2

> <Gold.Version>
5.8.1

> <Gold.Id.Protein>
6NUR|6NUR_protein|mol2

> <Gold.PLP.Fitness>
56.6768

> <Gold.PLP.PLP>
-54.3132

> <Gold.PLP.part.hbond>
-1.0915

> <Gold.PLP.part.metal>
0.0000

> <Gold.PLP.part.buried>
-5.4610

> <Gold.PLP.part.nonpolar>
-47.1050

> <Gold.PLP.part.repulsive>
0.0839

> <Gold.PLP.ligand.clash>
0.0000

> <Gold.PLP.ligand.torsion>
0.3355

> <Gold.PLP.Chemscore.Hbond>
1.0000

> <Gold.PLP.Chemscore.CHOScore>
0.0000

> <Gold.PLP.Chemscore.Metal>
0.0000

> <Gold.Chemscore.Hbonds>
donor molecule, donor type, donor heavy atom, donor atom, acceptor molecule, acceptor atom, score
      P1  H  6896  6907       L1    23  1.00

> <Gold.PLP.Chemscore.Internal.Correction>
0.0345

> <Gold.Rescore>
     Score         DG    S(hbond)    S(metal)    S(lipo)     H(rot)  DE(clash)    DE(int)     intcor
      9.74     -15.71       0.92        0.00      98.72       1.72       0.43       5.54       ----

> <Gold.Chemscore.Fitness>
9.7416

> <Gold.Chemscore.DG>
-15.7113

> <Gold.Chemscore.ZeroCoef>
-5.4800

> <Gold.Chemscore.Hbond>
0.9245

> <Gold.Chemscore.Metal>
0.0000

> <Gold.Chemscore.Lipo>
98.7153

> <Gold.Chemscore.Internal_Hbond>
0.0000

> <Gold.Chemscore.DEClash>
0.4253

> <Gold.Chemscore.DEInternal>
5.5444

> <Gold.Chemscore.Rot>
1.7212

> <Gold.Chemscore.Internal.Correction>
   9.000000E+99

> <Gold.Chemscore.Hbonds>
donor molecule, donor type, donor heavy atom, donor atom, acceptor molecule, acceptor atom, score
      P1  H  6896  6907       L1    23  0.28

> <Gold.Chemscore.Hbond.Weighted>
-3.0878

> <Gold.Chemscore.Metal.Weighted>
-0.0000

> <Gold.Chemscore.Lipo.Weighted>
-11.5497

> <Gold.Chemscore.Internal_Hbond.Weighted>
0.0000

> <Gold.Chemscore.DEClash.Weighted>
0.4253

> <Gold.Chemscore.DEInternal.Weighted>
5.5444

> <Gold.Chemscore.Rot.Weighted>
4.4062

> <Gold.Chemscore.Internal.Correction.Weighted>
   9.000000E+99

> <Gold.Protein.RotatedTorsions>
[ 6907 6896 6895 6894 ] final   56.67 input  -60.11 | X-H torsion
[ 7974 7965 7964 7962 ] final  -13.61 input  175.53 | X-H torsion
[ 8008 7997 7996 7995 ] final  121.97 input   59.86 | X-H torsion
[ 10167 10162 10161 10158 ] final  -85.43 input  -65.29 | X-H torsion
[ 10718 10713 10712 10709 ] final -137.92 input   66.30 | X-H torsion
[ 10763 10752 10751 10750 ] final -124.53 input  -60.55 | X-H torsion
[ 11005 11000 10999 10996 ] final -113.43 input  -57.11 | X-H torsion

> <Gold.Protein.ActiveResidues>
 VAL166  LYS551  ARG553  GLY616  TRP617  ASP618  TYR619  PRO620  LYS621  CYS622 
 ASP623  PHE694  ASN695  SER759  ASP760  ASP761  ALA762  ILE779  LEU786  VAL792 
 PHE793  MET794  SER795  GLU796  ALA797  LYS798  CYS799  TRP800  GLU811  SER814 

> <Gold.Protein.RotatedAtoms>
  152.3659  134.6805  160.0191 H   0  0  0  0  0  0  0  0  0  0  0  0  # atno 6907 bound_to 6896
  151.7114  133.3307  159.3299 H   0  0  0  0  0  0  0  0  0  0  0  0  # atno 6908 bound_to 6896
  150.7638  134.6463  159.6309 H   0  0  0  0  0  0  0  0  0  0  0  0  # atno 6909 bound_to 6896
  146.2107  140.3228  142.8392 H   0  0  0  0  0  0  0  0  0  0  0  0  # atno 7974 bound_to 7965
  156.2709  140.2796  156.1394 H   0  0  0  0  0  0  0  0  0  0  0  0  # atno 8008 bound_to 7997
  155.0970  140.0389  157.2703 H   0  0  0  0  0  0  0  0  0  0  0  0  # atno 8009 bound_to 7997
  154.6845  140.2616  155.6881 H   0  0  0  0  0  0  0  0  0  0  0  0  # atno 8010 bound_to 7997
  140.4038  143.2651  151.9107 H   0  0  0  0  0  0  0  0  0  0  0  0  # atno 10167 bound_to 10162
  156.2935  130.7388  151.1421 H   0  0  0  0  0  0  0  0  0  0  0  0  # atno 10718 bound_to 10713
  154.8724  135.4060  154.3121 H   0  0  0  0  0  0  0  0  0  0  0  0  # atno 10763 bound_to 10752
  153.3963  135.7016  153.6464 H   0  0  0  0  0  0  0  0  0  0  0  0  # atno 10764 bound_to 10752
  153.5225  135.3684  155.2610 H   0  0  0  0  0  0  0  0  0  0  0  0  # atno 10765 bound_to 10752
  141.0615  133.9528  157.2658 H   0  0  0  0  0  0  0  0  0  0  0  0  # atno 11005 bound_to 11000
  144.8908  140.7521  143.5928 LP  0  0  0  0  0  0  0  0  0  0  0  0  # atno 17320 bound_to 7965
  145.3150  139.1806  143.4618 LP  0  0  0  0  0  0  0  0  0  0  0  0  # atno 17321 bound_to 7965
  139.4784  144.5606  151.8244 LP  0  0  0  0  0  0  0  0  0  0  0  0  # atno 17342 bound_to 10162
  140.4711  144.1585  150.5918 LP  0  0  0  0  0  0  0  0  0  0  0  0  # atno 17343 bound_to 10162
  157.7349  131.0577  150.5500 LP  0  0  0  0  0  0  0  0  0  0  0  0  # atno 17370 bound_to 10713
  156.5619  130.4257  149.6059 LP  0  0  0  0  0  0  0  0  0  0  0  0  # atno 17371 bound_to 10713
  139.9437  135.0187  156.8786 LP  0  0  0  0  0  0  0  0  0  0  0  0  # atno 17394 bound_to 11000
  140.5859  134.0307  155.7481 LP  0  0  0  0  0  0  0  0  0  0  0  0  # atno 17395 bound_to 11000

$$$$
