AV-unprocessed.smi:17|AV-procd|sdf|101|dock5
  -GOLD-   2262015253D 1   1.00000     0.00000
 Structure written by MMmdl.
 57 59  0  0  0  0  0  0  0  0  1 V2000
  147.0184  134.0778  162.5037 C   0  0  0  0  0  0  0  0  0  0  0  0
  147.1860  135.5881  162.2846 C   0  0  0  0  0  0  0  0  0  0  0  0
  146.6684  136.0245  160.9843 N   0  0  0  0  0  0  0  0  0  0  0  0
  147.5525  136.4442  160.0382 C   0  0  0  0  0  0  0  0  0  0  0  0
  148.7585  136.9142  160.4540 N   0  0  0  0  0  0  0  0  0  0  0  0
  149.6701  137.3274  159.5701 C   0  0  0  0  0  0  0  0  0  0  0  0
  149.5830  137.3662  158.2407 N   0  0  0  0  0  0  0  0  0  0  0  0
  148.3699  136.9168  157.8119 C   0  0  0  0  0  0  0  0  0  0  0  0
  147.3054  136.4420  158.6322 C   0  0  0  0  0  0  0  0  0  0  0  0
  146.2233  136.0918  157.8305 N   0  0  0  0  0  0  0  0  0  0  0  0
  146.6295  136.3286  156.6137 C   0  0  0  0  0  0  0  0  0  0  0  0
  147.9053  136.8312  156.5116 N   0  0  0  0  0  0  0  0  0  0  0  0
  148.5968  137.1912  155.2867 C   0  0  0  0  0  0  0  0  0  0  0  0
  149.1680  138.6332  155.3417 C   0  0  2  0  0  0  0  0  0  0  0  0
  148.6992  139.4237  154.0975 C   0  0  0  0  0  0  0  0  0  0  0  0
  148.6897  138.6234  152.9338 O   0  0  0  0  0  0  0  0  0  0  0  0
  150.7124  138.6174  155.5036 C   0  0  1  0  0  0  0  0  0  0  0  0
  151.4974  138.1554  154.2880 C   0  0  0  0  0  0  0  0  0  0  0  0
  152.8924  138.6937  154.5781 C   0  0  0  0  0  0  0  0  0  0  0  0
  152.6864  139.9212  155.2647 O   0  0  0  0  0  0  0  0  0  0  0  0
  151.3400  140.0012  155.7232 C   0  0  0  0  0  0  0  0  0  0  0  0
  145.2261  136.0814  160.7204 C   0  0  2  0  0  0  0  0  0  0  0  0
  144.4779  136.7865  161.8638 C   0  0  0  0  0  0  0  0  0  0  0  0
  144.6211  134.6945  160.4130 C   0  0  0  0  0  0  0  0  0  0  0  0
  142.8688  134.7782  159.8194 S   0  0  0  0  0  0  0  0  0  0  0  0
  141.9317  134.0392  161.2205 C   0  0  0  0  0  0  0  0  0  0  0  0
  142.4874  136.1958  159.7328 O   0  0  0  0  0  0  0  0  0  0  0  0
  142.7082  133.9049  158.6465 O   0  0  0  0  0  0  0  0  0  0  0  0
  147.4397  133.7789  163.4634 H   0  0  0  0  0  0  0  0  0  0  0  0
  147.5253  133.5055  161.7264 H   0  0  0  0  0  0  0  0  0  0  0  0
  145.9671  133.7889  162.5004 H   0  0  0  0  0  0  0  0  0  0  0  0
  146.7011  136.1381  163.0912 H   0  0  0  0  0  0  0  0  0  0  0  0
  148.2444  135.8347  162.3573 H   0  0  0  0  0  0  0  0  0  0  0  0
  150.6025  137.6773  159.9879 H   0  0  0  0  0  0  0  0  0  0  0  0
  146.0026  136.1518  155.7517 H   0  0  0  0  0  0  0  0  0  0  0  0
  149.3774  136.4546  155.0968 H   0  0  0  0  0  0  0  0  0  0  0  0
  147.8927  137.0706  154.4625 H   0  0  0  0  0  0  0  0  0  0  0  0
  148.7503  139.1337  156.2176 H   0  0  0  0  0  0  0  0  0  0  0  0
  147.7100  139.8536  154.2581 H   0  0  0  0  0  0  0  0  0  0  0  0
  149.3783  140.2529  153.8965 H   0  0  0  0  0  0  0  0  0  0  0  0
  149.3324  138.9627  152.3294 H   0  0  0  0  0  0  0  0  0  0  0  0
  150.9812  137.9775  156.3459 H   0  0  0  0  0  0  0  0  0  0  0  0
  151.4929  137.0730  154.1574 H   0  0  0  0  0  0  0  0  0  0  0  0
  151.1020  138.6136  153.3801 H   0  0  0  0  0  0  0  0  0  0  0  0
  153.4332  138.0120  155.2358 H   0  0  0  0  0  0  0  0  0  0  0  0
  153.4842  138.8349  153.6734 H   0  0  0  0  0  0  0  0  0  0  0  0
  150.8252  140.7602  155.1327 H   0  0  0  0  0  0  0  0  0  0  0  0
  151.3107  140.3117  156.7674 H   0  0  0  0  0  0  0  0  0  0  0  0
  145.0466  136.6749  159.8266 H   0  0  0  0  0  0  0  0  0  0  0  0
  143.4220  136.9100  161.6225 H   0  0  0  0  0  0  0  0  0  0  0  0
  144.8889  137.7793  162.0486 H   0  0  0  0  0  0  0  0  0  0  0  0
  144.5392  136.2220  162.7942 H   0  0  0  0  0  0  0  0  0  0  0  0
  145.2113  134.1222  159.6984 H   0  0  0  0  0  0  0  0  0  0  0  0
  144.5993  134.1101  161.3332 H   0  0  0  0  0  0  0  0  0  0  0  0
  140.8638  134.1220  161.0203 H   0  0  0  0  0  0  0  0  0  0  0  0
  142.1670  134.5722  162.1410 H   0  0  0  0  0  0  0  0  0  0  0  0
  142.1896  132.9886  161.3313 H   0  0  0  0  0  0  0  0  0  0  0  0
  1  2  1  0  0  0  0
  1 29  1  0  0  0  0
  1 30  1  0  0  0  0
  1 31  1  0  0  0  0
  2  3  1  0  0  0  0
  2 32  1  0  0  0  0
  2 33  1  0  0  0  0
  3  4  1  0  0  0  0
  3 22  1  0  0  0  0
  4  9  1  0  0  0  0
  4  5  2  0  0  0  0
  5  6  1  0  0  0  0
  6  7  2  0  0  0  0
  6 34  1  0  0  0  0
  7  8  1  0  0  0  0
  8 12  1  0  0  0  0
  8  9  2  0  0  0  0
  9 10  1  0  0  0  0
 10 11  2  0  0  0  0
 11 12  1  0  0  0  0
 11 35  1  0  0  0  0
 12 13  1  0  0  0  0
 13 14  1  0  0  0  0
 13 36  1  0  0  0  0
 13 37  1  0  0  0  0
 14 15  1  0  0  0  0
 14 17  1  0  0  0  0
 14 38  1  0  0  0  0
 15 16  1  0  0  0  0
 15 39  1  0  0  0  0
 15 40  1  0  0  0  0
 16 41  1  0  0  0  0
 17 21  1  0  0  0  0
 17 18  1  0  0  0  0
 17 42  1  0  0  0  0
 18 19  1  0  0  0  0
 18 43  1  0  0  0  0
 18 44  1  0  0  0  0
 19 20  1  0  0  0  0
 19 45  1  0  0  0  0
 19 46  1  0  0  0  0
 20 21  1  0  0  0  0
 21 47  1  0  0  0  0
 21 48  1  0  0  0  0
 22 23  1  0  0  0  0
 22 24  1  0  0  0  0
 22 49  1  0  0  0  0
 23 50  1  0  0  0  0
 23 51  1  0  0  0  0
 23 52  1  0  0  0  0
 24 25  1  0  0  0  0
 24 53  1  0  0  0  0
 24 54  1  0  0  0  0
 25 26  1  0  0  0  0
 25 27  2  0  0  0  0
 25 28  2  0  0  0  0
 26 55  1  0  0  0  0
 26 56  1  0  0  0  0
 26 57  1  0  0  0  0
M  END
> <s_m_source_file>
AV-unprocessed.smi

> <i_m_source_file_index>
17

> <i_lp_mmshare_version>
43012

> <i_f3d_flags>
0

> <s_epik_input>
W0NIM11TKD1PKSg9TylbQ0gyXVtDQEBIXShbQ0gzXSlOKFtDSDJdW0NIM10pYyhuW2NIXW4xKWMoYzEyKW5bY0hdbjJbQ0gyXVtDQEhdKFtDSDJdW09IXSlbQ0BASF0zW0NIMl1bQ0gyXU9bQ0gyXTM=

> <s_epik_cmdline>
J2VwaWtfcHl0aG9uJywgJy1waCcsICc3LjAnLCAnLXRuJywgJzgnLCAnLW1hJywgJzIwMCcsICctbWV0YWxfYmluZGluZycsICctaW1hZScsICc8aW5maWxlLm1hZT4nLCAnLW9tYWUnLCAnPG91dGZpbGUubWFlPic=

> <r_lp_tautomer_probability>
1

> <r_epik_Ionization_Penalty>
0.00119955

> <r_epik_Ionization_Penalty_Charging>
0

> <r_epik_Ionization_Penalty_Neutral>
0.00119955

> <r_epik_State_Penalty>
0.000665399

> <r_epik_Charging_Adjusted_Penalty>
0.000665399

> <i_epik_Tot_Q>
0

> <i_epik_Tot_abs_Q>
0

> <r_epik_Metal_State_Penalty>
-0

> <b_epik_Metal_Only>
0

> <s_lp_Force_Field>
OPLS_2005

> <r_lp_Energy>
37.2201

> <b_lp_Chiralities_Consistent>
1

> <s_lp_Variant>
AV-unprocessed.smi:17-3

> <Gold.Version>
5.8.1

> <Gold.Id.Protein>
6NUR|6NUR_protein|mol2

> <Gold.PLP.Fitness>
45.7535

> <Gold.PLP.PLP>
-37.6348

> <Gold.PLP.part.hbond>
-5.6957

> <Gold.PLP.part.metal>
0.0000

> <Gold.PLP.part.buried>
-5.7616

> <Gold.PLP.part.nonpolar>
-26.3664

> <Gold.PLP.part.repulsive>
0.0122

> <Gold.PLP.ligand.clash>
0.0000

> <Gold.PLP.ligand.torsion>
1.9273

> <Gold.PLP.Chemscore.Hbond>
3.7680

> <Gold.PLP.Chemscore.CHOScore>
0.0000

> <Gold.PLP.Chemscore.Metal>
0.0000

> <Gold.Chemscore.Hbonds>
donor molecule, donor type, donor heavy atom, donor atom, acceptor molecule, acceptor atom, score
      L1  H    16    41       P1  7957  0.91
      P1  H  6931  6943       L1     5  0.73
      P1  H  7997  8008       L1    20  1.00
      P1  H 11000 11005       L1    28  0.80

> <Gold.PLP.Chemscore.Internal.Correction>
0.6694

> <Gold.Rescore>
     Score         DG    S(hbond)    S(metal)    S(lipo)     H(rot)  DE(clash)    DE(int)     intcor
     12.18     -14.84       3.01        0.00      70.64       3.51       0.02       2.64       ----

> <Gold.Chemscore.Fitness>
12.1784

> <Gold.Chemscore.DG>
-14.8368

> <Gold.Chemscore.ZeroCoef>
-5.4800

> <Gold.Chemscore.Hbond>
3.0142

> <Gold.Chemscore.Metal>
0.0000

> <Gold.Chemscore.Lipo>
70.6370

> <Gold.Chemscore.Internal_Hbond>
0.0000

> <Gold.Chemscore.DEClash>
0.0178

> <Gold.Chemscore.DEInternal>
2.6406

> <Gold.Chemscore.Rot>
3.5059

> <Gold.Chemscore.Internal.Correction>
   9.000000E+99

> <Gold.Chemscore.Hbonds>
donor molecule, donor type, donor heavy atom, donor atom, acceptor molecule, acceptor atom, score
      L1  H    16    41       P1  7957  0.78
      P1  H  6931  6943       L1     5  0.16
      P1  H  7997  8008       L1    20  0.38
      P1  H 11000 11005       L1    28  0.74

> <Gold.Chemscore.Hbond.Weighted>
-10.0673

> <Gold.Chemscore.Metal.Weighted>
-0.0000

> <Gold.Chemscore.Lipo.Weighted>
-8.2645

> <Gold.Chemscore.Internal_Hbond.Weighted>
0.0000

> <Gold.Chemscore.DEClash.Weighted>
0.0178

> <Gold.Chemscore.DEInternal.Weighted>
2.6406

> <Gold.Chemscore.Rot.Weighted>
8.9750

> <Gold.Chemscore.Internal.Correction.Weighted>
   9.000000E+99

> <Gold.Protein.RotatedTorsions>
[ 6907 6896 6895 6894 ] final -101.35 input  -60.11 | X-H torsion
[ 7974 7965 7964 7962 ] final  -58.20 input  175.53 | X-H torsion
[ 8008 7997 7996 7995 ] final  -40.77 input   59.86 | X-H torsion
[ 10167 10162 10161 10158 ] final -179.62 input  -65.29 | X-H torsion
[ 10718 10713 10712 10709 ] final  -67.74 input   66.30 | X-H torsion
[ 10763 10752 10751 10750 ] final  -22.13 input  -60.55 | X-H torsion
[ 11005 11000 10999 10996 ] final -133.60 input  -57.11 | X-H torsion

> <Gold.Protein.ActiveResidues>
 VAL166  LYS551  ARG553  GLY616  TRP617  ASP618  TYR619  PRO620  LYS621  CYS622 
 ASP623  PHE694  ASN695  SER759  ASP760  ASP761  ALA762  ILE779  LEU786  VAL792 
 PHE793  MET794  SER795  GLU796  ALA797  LYS798  CYS799  TRP800  GLU811  SER814 

> <Gold.Protein.RotatedAtoms>
  150.7151  134.0748  159.3876 H   0  0  0  0  0  0  0  0  0  0  0  0  # atno 6907 bound_to 6896
  151.8731  135.0480  160.0490 H   0  0  0  0  0  0  0  0  0  0  0  0  # atno 6908 bound_to 6896
  152.2627  133.5276  159.5428 H   0  0  0  0  0  0  0  0  0  0  0  0  # atno 6909 bound_to 6896
  145.8421  140.8410  143.0029 H   0  0  0  0  0  0  0  0  0  0  0  0  # atno 7974 bound_to 7965
  154.4009  140.1517  156.3082 H   0  0  0  0  0  0  0  0  0  0  0  0  # atno 8008 bound_to 7997
  155.8640  140.3452  155.5754 H   0  0  0  0  0  0  0  0  0  0  0  0  # atno 8009 bound_to 7997
  155.7849  140.0848  157.2030 H   0  0  0  0  0  0  0  0  0  0  0  0  # atno 8010 bound_to 7997
  139.5378  144.2448  152.0831 H   0  0  0  0  0  0  0  0  0  0  0  0  # atno 10167 bound_to 10162
  156.0542  130.4283  150.1898 H   0  0  0  0  0  0  0  0  0  0  0  0  # atno 10718 bound_to 10713
  153.6470  135.6982  153.5222 H   0  0  0  0  0  0  0  0  0  0  0  0  # atno 10763 bound_to 10752
  153.2737  135.4207  155.1011 H   0  0  0  0  0  0  0  0  0  0  0  0  # atno 10764 bound_to 10752
  154.8486  135.3584  154.6014 H   0  0  0  0  0  0  0  0  0  0  0  0  # atno 10765 bound_to 10752
  140.9066  134.1622  157.4421 H   0  0  0  0  0  0  0  0  0  0  0  0  # atno 11005 bound_to 11000
  144.6733  140.0827  143.7468 LP  0  0  0  0  0  0  0  0  0  0  0  0  # atno 17320 bound_to 7965
  145.9454  139.2697  143.1244 LP  0  0  0  0  0  0  0  0  0  0  0  0  # atno 17321 bound_to 7965
  140.1921  144.4741  150.6473 LP  0  0  0  0  0  0  0  0  0  0  0  0  # atno 17342 bound_to 10162
  140.6593  143.2247  151.5893 LP  0  0  0  0  0  0  0  0  0  0  0  0  # atno 17343 bound_to 10162
  156.9977  130.9912  151.3399 LP  0  0  0  0  0  0  0  0  0  0  0  0  # atno 17370 bound_to 10713
  157.5496  130.8173  149.8129 LP  0  0  0  0  0  0  0  0  0  0  0  0  # atno 17371 bound_to 10713
  139.8750  134.9919  156.5572 LP  0  0  0  0  0  0  0  0  0  0  0  0  # atno 17394 bound_to 11000
  140.8163  133.8389  155.8855 LP  0  0  0  0  0  0  0  0  0  0  0  0  # atno 17395 bound_to 11000

$$$$
