AV-unprocessed.smi:3025|AV-procd|sdf|11506|dock5
  -GOLD-   2272016443D 1   1.00000     0.00000
 Structure written by MMmdl.
 42 43  0  0  0  0  0  0  0  0  2 V2000
  145.3079  132.2122  149.5773 C   0  0  0  0  0  0  0  0  0  0  0  0
  143.9243  132.2306  150.2358 C   0  0  0  0  0  0  0  0  0  0  0  0
  143.9180  132.9971  151.5694 C   0  0  0  0  0  0  0  0  0  0  0  0
  144.1308  134.5185  151.4257 C   0  0  2  0  0  0  0  0  0  0  0  0
  145.5508  134.8767  150.9365 C   0  0  0  0  0  0  0  0  0  0  0  0
  145.7500  136.3982  150.8235 C   0  0  0  0  0  0  0  0  0  0  0  0
  145.4437  137.1316  152.1464 C   0  0  2  0  0  0  0  0  0  0  0  0
  146.4541  136.8547  153.1944 N   0  3  0  0  0  0  0  0  0  0  0  0
  146.7976  137.9988  154.0646 C   0  0  0  0  0  0  0  0  0  0  0  0
  147.5115  139.0991  153.2686 C   0  0  0  0  0  0  0  0  0  0  0  0
  147.2091  140.4659  153.7894 C   0  0  0  0  0  0  0  0  0  0  0  0
  145.9618  140.9146  153.9444 N   0  0  0  0  0  0  0  0  0  0  0  0
  145.9991  142.1790  154.4141 N   0  0  0  0  0  0  0  0  0  0  0  0
  147.3084  142.4041  154.5076 C   0  0  0  0  0  0  0  0  0  0  0  0
  148.1202  141.3713  154.1287 N   0  0  0  0  0  0  0  0  0  0  0  0
  144.0360  136.7596  152.6479 C   0  0  0  0  0  0  0  0  0  0  0  0
  143.8377  135.2374  152.7578 C   0  0  0  0  0  0  0  0  0  0  0  0
  145.0998  140.4225  153.7563 H   0  0  0  0  0  0  0  0  0  0  0  0
  145.2809  131.6689  148.6325 H   0  0  0  0  0  0  0  0  0  0  0  0
  146.0437  131.7263  150.2184 H   0  0  0  0  0  0  0  0  0  0  0  0
  145.6586  133.2233  149.3693 H   0  0  0  0  0  0  0  0  0  0  0  0
  143.2139  132.6772  149.5409 H   0  0  0  0  0  0  0  0  0  0  0  0
  143.5939  131.2044  150.4007 H   0  0  0  0  0  0  0  0  0  0  0  0
  142.9577  132.8219  152.0563 H   0  0  0  0  0  0  0  0  0  0  0  0
  144.6733  132.5800  152.2369 H   0  0  0  0  0  0  0  0  0  0  0  0
  143.4147  134.8875  150.6898 H   0  0  0  0  0  0  0  0  0  0  0  0
  146.2945  134.4570  151.6150 H   0  0  0  0  0  0  0  0  0  0  0  0
  145.7402  134.4288  149.9614 H   0  0  0  0  0  0  0  0  0  0  0  0
  146.7578  136.6192  150.4728 H   0  0  0  0  0  0  0  0  0  0  0  0
  145.0824  136.7789  150.0492 H   0  0  0  0  0  0  0  0  0  0  0  0
  145.4536  138.2069  151.9617 H   0  0  0  0  0  0  0  0  0  0  0  0
  146.0822  136.1273  153.7884 H   0  0  0  0  0  0  0  0  0  0  0  0
  145.8918  138.4037  154.5159 H   0  0  0  0  0  0  0  0  0  0  0  0
  147.4403  137.6570  154.8772 H   0  0  0  0  0  0  0  0  0  0  0  0
  148.5907  138.9411  153.2941 H   0  0  0  0  0  0  0  0  0  0  0  0
  147.2155  139.0569  152.2195 H   0  0  0  0  0  0  0  0  0  0  0  0
  147.6948  143.3489  154.8608 H   0  0  0  0  0  0  0  0  0  0  0  0
  143.8400  137.2325  153.6110 H   0  0  0  0  0  0  0  0  0  0  0  0
  143.2933  137.1635  151.9584 H   0  0  0  0  0  0  0  0  0  0  0  0
  142.8137  135.0319  153.0728 H   0  0  0  0  0  0  0  0  0  0  0  0
  144.4823  134.8382  153.5420 H   0  0  0  0  0  0  0  0  0  0  0  0
  147.2938  136.5076  152.7532 H   0  0  0  0  0  0  0  0  0  0  0  0
  1  2  1  0  0  0  0
  1 19  1  0  0  0  0
  1 20  1  0  0  0  0
  1 21  1  0  0  0  0
  2  3  1  0  0  0  0
  2 22  1  0  0  0  0
  2 23  1  0  0  0  0
  3  4  1  0  0  0  0
  3 24  1  0  0  0  0
  3 25  1  0  0  0  0
  4 17  1  0  0  0  0
  4  5  1  0  0  0  0
  4 26  1  0  0  0  0
  5  6  1  0  0  0  0
  5 27  1  0  0  0  0
  5 28  1  0  0  0  0
  6  7  1  0  0  0  0
  6 29  1  0  0  0  0
  6 30  1  0  0  0  0
  7  8  1  0  0  0  0
  7 16  1  0  0  0  0
  7 31  1  0  0  0  0
  8  9  1  0  0  0  0
  8 32  1  0  0  0  0
  8 42  1  0  0  0  0
  9 10  1  0  0  0  0
  9 33  1  0  0  0  0
  9 34  1  0  0  0  0
 10 35  1  0  0  0  0
 10 36  1  0  0  0  0
 10 11  1  0  0  0  0
 11 15  2  0  0  0  0
 11 12  1  0  0  0  0
 12 18  1  0  0  0  0
 12 13  1  0  0  0  0
 13 14  2  0  0  0  0
 14 15  1  0  0  0  0
 14 37  1  0  0  0  0
 16 17  1  0  0  0  0
 16 38  1  0  0  0  0
 16 39  1  0  0  0  0
 17 40  1  0  0  0  0
 17 41  1  0  0  0  0
M  CHG  1   8   1
M  END
> <s_m_source_file>
AV-unprocessed.smi

> <i_m_source_file_index>
3025

> <i_lp_mmshare_version>
43012

> <i_f3d_flags>
0

> <s_epik_input>
W0NIM11bQ0gyXVtDSDJdW0NAQEhdMVtDSDJdW0NIMl1bQ0BIXShbQ0gyXVtDSDJdMSlbTkhdW0NIMl1bQ0gyXWMybm5bY0hdW25IXTI=

> <s_epik_cmdline>
J2VwaWtfcHl0aG9uJywgJy1waCcsICc3LjAnLCAnLXRuJywgJzgnLCAnLW1hJywgJzIwMCcsICctbWV0YWxfYmluZGluZycsICctaW1hZScsICc8aW5maWxlLm1hZT4nLCAnLW9tYWUnLCAnPG91dGZpbGUubWFlPic=

> <r_lp_tautomer_probability>
0.948284

> <r_epik_Ionization_Penalty>
0.0093758

> <r_epik_Ionization_Penalty_Charging>
0.000546397

> <r_epik_Ionization_Penalty_Neutral>
0.00882941

> <r_epik_State_Penalty>
0.401098

> <r_epik_Charging_Adjusted_Penalty>
0.401645

> <i_epik_Tot_Q>
1

> <i_epik_Tot_abs_Q>
1

> <r_epik_Metal_State_Penalty>
0.634803

> <b_epik_Metal_Only>
0

> <s_lp_Force_Field>
OPLS_2005

> <r_lp_Energy>
16.9982

> <b_lp_Chiralities_Consistent>
1

> <s_lp_Variant>
AV-unprocessed.smi:3025-2

> <Gold.Version>
5.8.1

> <Gold.Id.Protein>
6NUR|6NUR_protein|mol2

> <Gold.PLP.Fitness>
41.6256

> <Gold.PLP.PLP>
-31.0220

> <Gold.PLP.part.hbond>
-2.4722

> <Gold.PLP.part.metal>
0.0000

> <Gold.PLP.part.buried>
0.8390

> <Gold.PLP.part.nonpolar>
-27.9593

> <Gold.PLP.part.repulsive>
0.3680

> <Gold.PLP.ligand.clash>
0.0000

> <Gold.PLP.ligand.torsion>
0.8125

> <Gold.PLP.Chemscore.Hbond>
3.0567

> <Gold.PLP.Chemscore.CHOScore>
0.9922

> <Gold.PLP.Chemscore.Metal>
0.0000

> <Gold.Chemscore.Hbonds>
donor molecule, donor type, donor heavy atom, donor atom, acceptor molecule, acceptor atom, score
      L1  H     8    42       P1  7948  2.00
      L1  H    12    18       P1 10175  0.75
      L1  C    14    37       P1  8028  0.77

> <Gold.PLP.Chemscore.Internal.Correction>
0.0818

> <Gold.Rescore>
     Score         DG    S(hbond)    S(metal)    S(lipo)     H(rot)  DE(clash)    DE(int)     intcor
     12.54     -13.87       1.91        0.00      73.11       2.56       0.36       0.97       ----

> <Gold.Chemscore.Fitness>
12.5443

> <Gold.Chemscore.DG>
-13.8687

> <Gold.Chemscore.ZeroCoef>
-5.4800

> <Gold.Chemscore.Hbond>
1.9128

> <Gold.Chemscore.Metal>
0.0000

> <Gold.Chemscore.Lipo>
73.1119

> <Gold.Chemscore.Internal_Hbond>
0.0000

> <Gold.Chemscore.DEClash>
0.3582

> <Gold.Chemscore.DEInternal>
0.9662

> <Gold.Chemscore.Rot>
2.5602

> <Gold.Chemscore.Internal.Correction>
   9.000000E+99

> <Gold.Chemscore.Hbonds>
donor molecule, donor type, donor heavy atom, donor atom, acceptor molecule, acceptor atom, score
      L1  H     8    42       P1  7948  1.00
      L1  H    12    18       P1 10175  0.76

> <Gold.Chemscore.Hbond.Weighted>
-6.3889

> <Gold.Chemscore.Metal.Weighted>
-0.0000

> <Gold.Chemscore.Lipo.Weighted>
-8.5541

> <Gold.Chemscore.Internal_Hbond.Weighted>
0.0000

> <Gold.Chemscore.DEClash.Weighted>
0.3582

> <Gold.Chemscore.DEInternal.Weighted>
0.9662

> <Gold.Chemscore.Rot.Weighted>
6.5542

> <Gold.Chemscore.Internal.Correction.Weighted>
   9.000000E+99

> <Gold.Protein.RotatedTorsions>
[ 6907 6896 6895 6894 ] final   75.87 input  -60.11 | X-H torsion
[ 7974 7965 7964 7962 ] final   93.23 input  175.53 | X-H torsion
[ 8008 7997 7996 7995 ] final   14.00 input   59.86 | X-H torsion
[ 10167 10162 10161 10158 ] final -144.10 input  -65.29 | X-H torsion
[ 10718 10713 10712 10709 ] final   83.14 input   66.30 | X-H torsion
[ 10763 10752 10751 10750 ] final   21.41 input  -60.55 | X-H torsion
[ 11005 11000 10999 10996 ] final   85.36 input  -57.11 | X-H torsion

> <Gold.Protein.ActiveResidues>
 VAL166  LYS551  ARG553  GLY616  TRP617  ASP618  TYR619  PRO620  LYS621  CYS622 
 ASP623  PHE694  ASN695  SER759  ASP760  ASP761  ALA762  ILE779  LEU786  VAL792 
 PHE793  MET794  SER795  GLU796  ALA797  LYS798  CYS799  TRP800  GLU811  SER814 

> <Gold.Protein.RotatedAtoms>
  152.5046  134.4055  159.9430 H   0  0  0  0  0  0  0  0  0  0  0  0  # atno 6907 bound_to 6896
  151.4021  133.3748  159.2741 H   0  0  0  0  0  0  0  0  0  0  0  0  # atno 6908 bound_to 6896
  150.9354  134.8788  159.7637 H   0  0  0  0  0  0  0  0  0  0  0  0  # atno 6909 bound_to 6896
  145.4817  139.2278  143.2878 H   0  0  0  0  0  0  0  0  0  0  0  0  # atno 7974 bound_to 7965
  154.8423  140.2916  155.5651 H   0  0  0  0  0  0  0  0  0  0  0  0  # atno 8008 bound_to 7997
  156.3012  140.2511  156.3299 H   0  0  0  0  0  0  0  0  0  0  0  0  # atno 8009 bound_to 7997
  154.9111  140.0388  157.1936 H   0  0  0  0  0  0  0  0  0  0  0  0  # atno 8010 bound_to 7997
  139.7930  143.7939  152.2652 H   0  0  0  0  0  0  0  0  0  0  0  0  # atno 10167 bound_to 10162
  157.6872  131.0078  150.2479 H   0  0  0  0  0  0  0  0  0  0  0  0  # atno 10718 bound_to 10713
  153.0997  135.6669  153.9695 H   0  0  0  0  0  0  0  0  0  0  0  0  # atno 10763 bound_to 10752
  153.9269  135.3008  155.3448 H   0  0  0  0  0  0  0  0  0  0  0  0  # atno 10764 bound_to 10752
  154.7418  135.5076  153.9210 H   0  0  0  0  0  0  0  0  0  0  0  0  # atno 10765 bound_to 10752
  139.8974  134.8281  156.2571 H   0  0  0  0  0  0  0  0  0  0  0  0  # atno 11005 bound_to 11000
  146.2337  140.5604  142.8964 LP  0  0  0  0  0  0  0  0  0  0  0  0  # atno 17320 bound_to 7965
  144.7885  140.5984  143.6558 LP  0  0  0  0  0  0  0  0  0  0  0  0  # atno 17321 bound_to 7965
  139.8036  144.7364  150.9791 LP  0  0  0  0  0  0  0  0  0  0  0  0  # atno 17342 bound_to 10162
  140.7820  143.4320  151.0680 LP  0  0  0  0  0  0  0  0  0  0  0  0  # atno 17343 bound_to 10162
  156.3081  130.3768  149.7687 LP  0  0  0  0  0  0  0  0  0  0  0  0  # atno 17370 bound_to 10713
  156.5296  130.8251  151.3232 LP  0  0  0  0  0  0  0  0  0  0  0  0  # atno 17371 bound_to 10713
  141.0186  133.7054  156.1231 LP  0  0  0  0  0  0  0  0  0  0  0  0  # atno 17394 bound_to 11000
  140.7266  134.4301  157.5570 LP  0  0  0  0  0  0  0  0  0  0  0  0  # atno 17395 bound_to 11000

$$$$
