AV-unprocessed.smi:3141|AV-procd|sdf|11964|dock4
  -GOLD-   2272017363D 1   1.00000     0.00000
 Structure written by MMmdl.
 36 38  0  0  0  0  0  0  0  0  2 V2000
  151.2668  142.1415  158.5773 O   0  0  0  0  0  0  0  0  0  0  0  0
  150.5416  142.6848  157.7440 C   0  0  0  0  0  0  0  0  0  0  0  0
  150.4485  144.0096  157.5737 N   0  0  0  0  0  0  0  0  0  0  0  0
  151.1605  144.9916  158.3251 C   0  0  0  0  0  0  0  0  0  0  0  0
  152.6186  144.7209  158.6269 C   0  0  0  0  0  0  0  0  0  0  0  0
  151.5974  144.6237  159.7264 C   0  0  0  0  0  0  0  0  0  0  0  0
  149.7329  142.0194  156.9067 N   0  0  0  0  0  0  0  0  0  0  0  0
  149.6150  140.5624  156.8132 C   0  0  2  0  0  0  0  0  0  0  0  0
  151.0153  139.9252  156.9196 C   0  0  0  0  0  0  0  0  0  0  0  0
  151.3826  139.4000  155.5208 C   0  0  0  0  0  0  0  0  0  0  0  0
  150.3288  139.9638  154.5662 C   0  0  0  0  0  0  0  0  0  0  0  0
  149.0815  140.0781  155.4483 C   0  0  2  0  0  0  0  0  0  0  0  0
  147.9521  140.8460  154.8899 N   0  0  0  0  0  0  0  0  0  0  0  0
  148.0032  142.1463  154.4548 C   0  0  0  0  0  0  0  0  0  0  0  0
  146.7573  142.4529  153.9734 C   0  0  0  0  0  0  0  0  0  0  0  0
  145.9970  141.3258  154.1246 N   0  3  0  0  0  0  0  0  0  0  0  0
  146.7241  140.3486  154.6753 C   0  0  0  0  0  0  0  0  0  0  0  0
  149.8250  144.3537  156.8579 H   0  0  0  0  0  0  0  0  0  0  0  0
  150.8913  146.0351  158.1668 H   0  0  0  0  0  0  0  0  0  0  0  0
  153.0512  143.7918  158.2606 H   0  0  0  0  0  0  0  0  0  0  0  0
  153.2941  145.5738  158.6432 H   0  0  0  0  0  0  0  0  0  0  0  0
  151.5912  145.4119  160.4768 H   0  0  0  0  0  0  0  0  0  0  0  0
  151.3477  143.6302  160.0943 H   0  0  0  0  0  0  0  0  0  0  0  0
  149.1748  142.5591  156.2611 H   0  0  0  0  0  0  0  0  0  0  0  0
  148.9784  140.1969  157.6213 H   0  0  0  0  0  0  0  0  0  0  0  0
  151.7605  140.6378  157.2768 H   0  0  0  0  0  0  0  0  0  0  0  0
  151.0065  139.1002  157.6329 H   0  0  0  0  0  0  0  0  0  0  0  0
  152.3938  139.6812  155.2255 H   0  0  0  0  0  0  0  0  0  0  0  0
  151.3332  138.3103  155.5171 H   0  0  0  0  0  0  0  0  0  0  0  0
  150.6601  140.9420  154.2177 H   0  0  0  0  0  0  0  0  0  0  0  0
  150.1730  139.3291  153.6934 H   0  0  0  0  0  0  0  0  0  0  0  0
  148.7042  139.0635  155.5904 H   0  0  0  0  0  0  0  0  0  0  0  0
  148.9033  142.7412  154.5132 H   0  0  0  0  0  0  0  0  0  0  0  0
  146.3677  143.3626  153.5399 H   0  0  0  0  0  0  0  0  0  0  0  0
  146.3793  139.3536  154.8897 H   0  0  0  0  0  0  0  0  0  0  0  0
  145.0263  141.2388  153.8510 H   0  0  0  0  0  0  0  0  0  0  0  0
  1  2  2  0  0  0  0
  2  3  1  0  0  0  0
  2  7  1  0  0  0  0
  3  4  1  0  0  0  0
  3 18  1  0  0  0  0
  4  6  1  0  0  0  0
  4  5  1  0  0  0  0
  4 19  1  0  0  0  0
  5  6  1  0  0  0  0
  5 20  1  0  0  0  0
  5 21  1  0  0  0  0
  6 22  1  0  0  0  0
  6 23  1  0  0  0  0
  7  8  1  0  0  0  0
  7 24  1  0  0  0  0
  8 12  1  0  0  0  0
  8  9  1  0  0  0  0
  8 25  1  0  0  0  0
  9 10  1  0  0  0  0
  9 26  1  0  0  0  0
  9 27  1  0  0  0  0
 10 11  1  0  0  0  0
 10 28  1  0  0  0  0
 10 29  1  0  0  0  0
 11 12  1  0  0  0  0
 11 30  1  0  0  0  0
 11 31  1  0  0  0  0
 12 13  1  0  0  0  0
 12 32  1  0  0  0  0
 13 17  1  0  0  0  0
 13 14  1  0  0  0  0
 14 15  2  0  0  0  0
 14 33  1  0  0  0  0
 15 16  1  0  0  0  0
 15 34  1  0  0  0  0
 16 17  2  0  0  0  0
 16 36  1  0  0  0  0
 17 35  1  0  0  0  0
M  CHG  1  16   1
M  END
> <s_m_source_file>
AV-unprocessed.smi

> <i_m_source_file_index>
3141

> <i_lp_mmshare_version>
43012

> <i_f3d_flags>
0

> <s_epik_input>
W0NIMl0xW0NIMl1bQ0hdMVtOSF1DKD1PKVtOSF1bQ0BASF0yW0NIMl1bQ0gyXVtDSDJdW0NASF0ybjNbY0hdW2NIXW5bY0hdMw==

> <s_epik_cmdline>
J2VwaWtfcHl0aG9uJywgJy1waCcsICc3LjAnLCAnLXRuJywgJzgnLCAnLW1hJywgJzIwMCcsICctbWV0YWxfYmluZGluZycsICctaW1hZScsICc8aW5maWxlLm1hZT4nLCAnLW9tYWUnLCAnPG91dGZpbGUubWFlPic=

> <r_lp_tautomer_probability>
1

> <r_epik_Ionization_Penalty>
0.205063

> <r_epik_Ionization_Penalty_Charging>
0

> <r_epik_Ionization_Penalty_Neutral>
0.205063

> <r_epik_State_Penalty>
0.194948

> <r_epik_Charging_Adjusted_Penalty>
0.194948

> <i_epik_Tot_Q>
1

> <i_epik_Tot_abs_Q>
1

> <r_epik_Metal_State_Penalty>
0.500882

> <b_epik_Metal_Only>
0

> <s_lp_Force_Field>
OPLS_2005

> <r_lp_Energy>
37.736

> <b_lp_Chiralities_Consistent>
1

> <s_lp_Variant>
AV-unprocessed.smi:3141-3

> <Gold.Version>
5.8.1

> <Gold.Id.Protein>
6NUR|6NUR_protein|mol2

> <Gold.PLP.Fitness>
43.5794

> <Gold.PLP.PLP>
-32.4200

> <Gold.PLP.part.hbond>
-3.3401

> <Gold.PLP.part.metal>
0.0000

> <Gold.PLP.part.buried>
-1.0527

> <Gold.PLP.part.nonpolar>
-28.6912

> <Gold.PLP.part.repulsive>
0.0573

> <Gold.PLP.ligand.clash>
0.0000

> <Gold.PLP.ligand.torsion>
0.6420

> <Gold.PLP.Chemscore.Hbond>
3.3245

> <Gold.PLP.Chemscore.CHOScore>
0.8003

> <Gold.PLP.Chemscore.Metal>
0.0000

> <Gold.Chemscore.Hbonds>
donor molecule, donor type, donor heavy atom, donor atom, acceptor molecule, acceptor atom, score
      L1  H     3    18       P1  8028  1.00
      L1  H     7    24       P1  8028  0.33
      L1  H    16    36       P1 10175  1.78
      L1  C    14    33       P1  8028  0.79

> <Gold.PLP.Chemscore.Internal.Correction>
0.0693

> <Gold.Rescore>
     Score         DG    S(hbond)    S(metal)    S(lipo)     H(rot)  DE(clash)    DE(int)     intcor
     11.81     -15.70       1.50        0.00      79.83       1.61       0.32       3.57       ----

> <Gold.Chemscore.Fitness>
11.8058

> <Gold.Chemscore.DG>
-15.6977

> <Gold.Chemscore.ZeroCoef>
-5.4800

> <Gold.Chemscore.Hbond>
1.4958

> <Gold.Chemscore.Metal>
0.0000

> <Gold.Chemscore.Lipo>
79.8332

> <Gold.Chemscore.Internal_Hbond>
0.0000

> <Gold.Chemscore.DEClash>
0.3248

> <Gold.Chemscore.DEInternal>
3.5671

> <Gold.Chemscore.Rot>
1.6088

> <Gold.Chemscore.Internal.Correction>
   9.000000E+99

> <Gold.Chemscore.Hbonds>
donor molecule, donor type, donor heavy atom, donor atom, acceptor molecule, acceptor atom, score
      L1  H     3    18       P1  8028  0.70
      L1  H     7    24       P1  8028  0.34
      L1  H    16    36       P1 10175  0.46

> <Gold.Chemscore.Hbond.Weighted>
-4.9958

> <Gold.Chemscore.Metal.Weighted>
-0.0000

> <Gold.Chemscore.Lipo.Weighted>
-9.3405

> <Gold.Chemscore.Internal_Hbond.Weighted>
0.0000

> <Gold.Chemscore.DEClash.Weighted>
0.3248

> <Gold.Chemscore.DEInternal.Weighted>
3.5671

> <Gold.Chemscore.Rot.Weighted>
4.1186

> <Gold.Chemscore.Internal.Correction.Weighted>
   9.000000E+99

> <Gold.Protein.RotatedTorsions>
[ 6907 6896 6895 6894 ] final  -84.77 input  -60.11 | X-H torsion
[ 7974 7965 7964 7962 ] final   56.56 input  175.53 | X-H torsion
[ 8008 7997 7996 7995 ] final   67.92 input   59.86 | X-H torsion
[ 10167 10162 10161 10158 ] final   72.03 input  -65.29 | X-H torsion
[ 10718 10713 10712 10709 ] final -176.10 input   66.30 | X-H torsion
[ 10763 10752 10751 10750 ] final  -60.44 input  -60.55 | X-H torsion
[ 11005 11000 10999 10996 ] final  173.51 input  -57.11 | X-H torsion

> <Gold.Protein.ActiveResidues>
 VAL166  LYS551  ARG553  GLY616  TRP617  ASP618  TYR619  PRO620  LYS621  CYS622 
 ASP623  PHE694  ASN695  SER759  ASP760  ASP761  ALA762  ILE779  LEU786  VAL792 
 PHE793  MET794  SER795  GLU796  ALA797  LYS798  CYS799  TRP800  GLU811  SER814 

> <Gold.Protein.RotatedAtoms>
  150.6874  134.3307  159.4825 H   0  0  0  0  0  0  0  0  0  0  0  0  # atno 6907 bound_to 6896
  152.1172  134.9229  160.0573 H   0  0  0  0  0  0  0  0  0  0  0  0  # atno 6908 bound_to 6896
  152.0449  133.3959  159.4389 H   0  0  0  0  0  0  0  0  0  0  0  0  # atno 6909 bound_to 6896
  145.9385  139.3868  143.0378 H   0  0  0  0  0  0  0  0  0  0  0  0  # atno 7974 bound_to 7965
  155.7003  140.3495  155.4930 H   0  0  0  0  0  0  0  0  0  0  0  0  # atno 8008 bound_to 7997
  155.9446  140.1108  157.1049 H   0  0  0  0  0  0  0  0  0  0  0  0  # atno 8009 bound_to 7997
  154.4109  140.1206  156.4959 H   0  0  0  0  0  0  0  0  0  0  0  0  # atno 8010 bound_to 7997
  140.0396  144.5400  150.7444 H   0  0  0  0  0  0  0  0  0  0  0  0  # atno 10167 bound_to 10162
  156.8096  130.9581  151.3116 H   0  0  0  0  0  0  0  0  0  0  0  0  # atno 10718 bound_to 10713
  154.2692  135.6293  153.5303 H   0  0  0  0  0  0  0  0  0  0  0  0  # atno 10763 bound_to 10752
  152.9883  135.5606  154.5619 H   0  0  0  0  0  0  0  0  0  0  0  0  # atno 10764 bound_to 10752
  154.5185  135.2881  155.1258 H   0  0  0  0  0  0  0  0  0  0  0  0  # atno 10765 bound_to 10752
  140.3413  134.7274  157.4204 H   0  0  0  0  0  0  0  0  0  0  0  0  # atno 11005 bound_to 11000
  145.8331  140.9620  143.0838 LP  0  0  0  0  0  0  0  0  0  0  0  0  # atno 17320 bound_to 7965
  144.6775  140.0188  143.7484 LP  0  0  0  0  0  0  0  0  0  0  0  0  # atno 17321 bound_to 7965
  140.7266  143.2642  151.4100 LP  0  0  0  0  0  0  0  0  0  0  0  0  # atno 17342 bound_to 10162
  139.6022  144.1271  152.2210 LP  0  0  0  0  0  0  0  0  0  0  0  0  # atno 17343 bound_to 10162
  157.6512  130.8886  149.9637 LP  0  0  0  0  0  0  0  0  0  0  0  0  # atno 17370 bound_to 10713
  156.1052  130.3653  150.0146 LP  0  0  0  0  0  0  0  0  0  0  0  0  # atno 17371 bound_to 10713
  140.0779  134.5772  155.8571 LP  0  0  0  0  0  0  0  0  0  0  0  0  # atno 17394 bound_to 11000
  141.2038  133.6634  156.6082 LP  0  0  0  0  0  0  0  0  0  0  0  0  # atno 17395 bound_to 11000

$$$$
