AV-unprocessed.smi:2540|AV-procd|sdf|9987|dock2
  -GOLD-   2272014 33D 1   1.00000     0.00000
 Structure written by MMmdl.
 28 29  0  0  0  0  0  0  0  0  2 V2000
  152.1270  140.6393  158.4529 C   0  0  0  0  0  0  0  0  0  0  0  0
  152.7361  139.6460  157.6472 O   0  0  0  0  0  0  0  0  0  0  0  0
  151.8346  139.0726  156.7143 C   0  0  0  0  0  0  0  0  0  0  0  0
  151.4517  140.1101  155.6493 C   0  0  0  0  0  0  0  0  0  0  0  0
  150.4109  139.6160  154.7356 N   0  0  0  0  0  0  0  0  0  0  0  0
  150.3648  138.5049  153.9567 C   0  0  0  0  0  0  0  0  0  0  0  0
  151.3669  137.5411  153.8630 N   0  0  0  0  0  0  0  0  0  0  0  0
  149.1913  138.4718  153.2763 N   0  3  0  0  0  0  0  0  0  0  0  0
  148.4525  139.6065  153.6254 C   0  0  0  0  0  0  0  0  0  0  0  0
  147.1970  140.0357  153.2060 C   0  0  0  0  0  0  0  0  0  0  0  0
  146.7268  141.2485  153.7509 C   0  0  0  0  0  0  0  0  0  0  0  0
  147.4948  141.9864  154.6748 C   0  0  0  0  0  0  0  0  0  0  0  0
  148.7653  141.5431  155.0969 C   0  0  0  0  0  0  0  0  0  0  0  0
  149.2260  140.3429  154.5562 C   0  0  0  0  0  0  0  0  0  0  0  0
  152.8599  141.0457  159.1500 H   0  0  0  0  0  0  0  0  0  0  0  0
  151.3034  140.2243  159.0350 H   0  0  0  0  0  0  0  0  0  0  0  0
  151.7473  141.4618  157.8454 H   0  0  0  0  0  0  0  0  0  0  0  0
  152.2936  138.2047  156.2381 H   0  0  0  0  0  0  0  0  0  0  0  0
  150.9374  138.7251  157.2286 H   0  0  0  0  0  0  0  0  0  0  0  0
  151.0698  141.0121  156.1283 H   0  0  0  0  0  0  0  0  0  0  0  0
  152.3220  140.4161  155.0690 H   0  0  0  0  0  0  0  0  0  0  0  0
  151.2749  136.7346  153.2621 H   0  0  0  0  0  0  0  0  0  0  0  0
  152.2222  137.6184  154.3947 H   0  0  0  0  0  0  0  0  0  0  0  0
  146.6063  139.4747  152.4969 H   0  0  0  0  0  0  0  0  0  0  0  0
  145.7580  141.6220  153.4522 H   0  0  0  0  0  0  0  0  0  0  0  0
  147.1021  142.9133  155.0674 H   0  0  0  0  0  0  0  0  0  0  0  0
  149.3469  142.1204  155.8003 H   0  0  0  0  0  0  0  0  0  0  0  0
  148.9208  137.7419  152.6299 H   0  0  0  0  0  0  0  0  0  0  0  0
  1  2  1  0  0  0  0
  1 15  1  0  0  0  0
  1 16  1  0  0  0  0
  1 17  1  0  0  0  0
  2  3  1  0  0  0  0
  3  4  1  0  0  0  0
  3 18  1  0  0  0  0
  3 19  1  0  0  0  0
  4  5  1  0  0  0  0
  4 20  1  0  0  0  0
  4 21  1  0  0  0  0
  5 14  1  0  0  0  0
  5  6  1  0  0  0  0
  6  7  1  0  0  0  0
  6  8  2  0  0  0  0
  7 22  1  0  0  0  0
  7 23  1  0  0  0  0
  8  9  1  0  0  0  0
  8 28  1  0  0  0  0
  9 14  2  0  0  0  0
  9 10  1  0  0  0  0
 10 11  2  0  0  0  0
 10 24  1  0  0  0  0
 11 12  1  0  0  0  0
 11 25  1  0  0  0  0
 12 13  2  0  0  0  0
 12 26  1  0  0  0  0
 13 14  1  0  0  0  0
 13 27  1  0  0  0  0
M  CHG  1   8   1
M  END
> <s_m_source_file>
AV-unprocessed.smi

> <i_m_source_file_index>
2540

> <i_lp_mmshare_version>
43012

> <i_f3d_flags>
0

> <s_epik_input>
W0NIM11PW0NIMl1bQ0gyXW4oYyhuMSlbTkgyXSljKGMxMilbY0hdW2NIXVtjSF1bY0hdMg==

> <s_epik_cmdline>
J2VwaWtfcHl0aG9uJywgJy1waCcsICc3LjAnLCAnLXRuJywgJzgnLCAnLW1hJywgJzIwMCcsICctbWV0YWxfYmluZGluZycsICctaW1hZScsICc8aW5maWxlLm1hZT4nLCAnLW9tYWUnLCAnPG91dGZpbGUubWFlPic=

> <r_epik_Ionization_Penalty>
0.266071

> <r_epik_Ionization_Penalty_Charging>
0.266069

> <r_epik_Ionization_Penalty_Neutral>
1.55827e-06

> <r_epik_State_Penalty>
0.258006

> <r_epik_Charging_Adjusted_Penalty>
0.524075

> <i_epik_Tot_Q>
1

> <i_epik_Tot_abs_Q>
1

> <r_epik_Metal_State_Penalty>
3.73495

> <b_epik_Metal_Only>
0

> <s_lp_Force_Field>
OPLS_2005

> <r_lp_Energy>
14.4512

> <b_lp_Chiralities_Consistent>
1

> <s_lp_Variant>
AV-unprocessed.smi:2540-1

> <Gold.Version>
5.8.1

> <Gold.Id.Protein>
6NUR|6NUR_protein|mol2

> <Gold.PLP.Fitness>
43.5303

> <Gold.PLP.PLP>
-28.6266

> <Gold.PLP.part.hbond>
-4.0689

> <Gold.PLP.part.metal>
0.0000

> <Gold.PLP.part.buried>
3.5317

> <Gold.PLP.part.nonpolar>
-26.8577

> <Gold.PLP.part.repulsive>
0.2096

> <Gold.PLP.ligand.clash>
0.0000

> <Gold.PLP.ligand.torsion>
0.0512

> <Gold.PLP.Chemscore.Hbond>
5.0000

> <Gold.PLP.Chemscore.CHOScore>
0.0000

> <Gold.PLP.Chemscore.Metal>
0.0000

> <Gold.Chemscore.Hbonds>
donor molecule, donor type, donor heavy atom, donor atom, acceptor molecule, acceptor atom, score
      L1  H     7    22       P1  7949  1.98
      L1  H     8    28       P1  7948  2.00
      P1  H  7997  8010       L1     2  1.00

> <Gold.PLP.Chemscore.Internal.Correction>
0.0061

> <Gold.Rescore>
     Score         DG    S(hbond)    S(metal)    S(lipo)     H(rot)  DE(clash)    DE(int)     intcor
     16.96     -17.15       2.78        0.00      53.21       1.49       0.16       0.03       ----

> <Gold.Chemscore.Fitness>
16.9628

> <Gold.Chemscore.DG>
-17.1540

> <Gold.Chemscore.ZeroCoef>
-5.4800

> <Gold.Chemscore.Hbond>
2.7763

> <Gold.Chemscore.Metal>
0.0000

> <Gold.Chemscore.Lipo>
53.2113

> <Gold.Chemscore.Internal_Hbond>
0.0000

> <Gold.Chemscore.DEClash>
0.1611

> <Gold.Chemscore.DEInternal>
0.0301

> <Gold.Chemscore.Rot>
1.4940

> <Gold.Chemscore.Internal.Correction>
   9.000000E+99

> <Gold.Chemscore.Hbonds>
donor molecule, donor type, donor heavy atom, donor atom, acceptor molecule, acceptor atom, score
      L1  H     7    22       P1  7949  0.61
      L1  H     8    28       P1  7948  0.99
      P1  H  7997  8010       L1     2  0.70

> <Gold.Chemscore.Hbond.Weighted>
-9.2729

> <Gold.Chemscore.Metal.Weighted>
-0.0000

> <Gold.Chemscore.Lipo.Weighted>
-6.2257

> <Gold.Chemscore.Internal_Hbond.Weighted>
0.0000

> <Gold.Chemscore.DEClash.Weighted>
0.1611

> <Gold.Chemscore.DEInternal.Weighted>
0.0301

> <Gold.Chemscore.Rot.Weighted>
3.8247

> <Gold.Chemscore.Internal.Correction.Weighted>
   9.000000E+99

> <Gold.Protein.RotatedTorsions>
[ 6907 6896 6895 6894 ] final  113.04 input  -60.11 | X-H torsion
[ 7974 7965 7964 7962 ] final  101.25 input  175.53 | X-H torsion
[ 8008 7997 7996 7995 ] final   52.86 input   59.86 | X-H torsion
[ 10167 10162 10161 10158 ] final  -67.42 input  -65.29 | X-H torsion
[ 10718 10713 10712 10709 ] final   14.66 input   66.30 | X-H torsion
[ 10763 10752 10751 10750 ] final  -38.46 input  -60.55 | X-H torsion
[ 11005 11000 10999 10996 ] final -108.66 input  -57.11 | X-H torsion

> <Gold.Protein.ActiveResidues>
 VAL166  LYS551  ARG553  GLY616  TRP617  ASP618  TYR619  PRO620  LYS621  CYS622 
 ASP623  PHE694  ASN695  SER759  ASP760  ASP761  ALA762  ILE779  LEU786  VAL792 
 PHE793  MET794  SER795  GLU796  ALA797  LYS798  CYS799  TRP800  GLU811  SER814 

> <Gold.Protein.RotatedAtoms>
  152.4883  133.8431  159.7162 H   0  0  0  0  0  0  0  0  0  0  0  0  # atno 6907 bound_to 6896
  150.8989  133.7135  159.2891 H   0  0  0  0  0  0  0  0  0  0  0  0  # atno 6908 bound_to 6896
  151.4583  135.1040  159.9770 H   0  0  0  0  0  0  0  0  0  0  0  0  # atno 6909 bound_to 6896
  145.3748  139.2391  143.3435 H   0  0  0  0  0  0  0  0  0  0  0  0  # atno 7974 bound_to 7965
  155.4588  140.3461  155.4310 H   0  0  0  0  0  0  0  0  0  0  0  0  # atno 8008 bound_to 7997
  156.1174  140.1477  156.9282 H   0  0  0  0  0  0  0  0  0  0  0  0  # atno 8009 bound_to 7997
  154.4799  140.0873  156.7331 H   0  0  0  0  0  0  0  0  0  0  0  0  # atno 8010 bound_to 7997
  140.5584  143.2312  151.6775 H   0  0  0  0  0  0  0  0  0  0  0  0  # atno 10167 bound_to 10162
  157.0424  130.6236  149.5753 H   0  0  0  0  0  0  0  0  0  0  0  0  # atno 10718 bound_to 10713
  153.9131  135.6790  153.4750 H   0  0  0  0  0  0  0  0  0  0  0  0  # atno 10763 bound_to 10752
  153.1068  135.4802  154.8962 H   0  0  0  0  0  0  0  0  0  0  0  0  # atno 10764 bound_to 10752
  154.7516  135.3186  154.8502 H   0  0  0  0  0  0  0  0  0  0  0  0  # atno 10765 bound_to 10752
  141.0890  133.9089  157.2120 H   0  0  0  0  0  0  0  0  0  0  0  0  # atno 11005 bound_to 11000
  146.2869  140.4406  142.8754 LP  0  0  0  0  0  0  0  0  0  0  0  0  # atno 17320 bound_to 7965
  144.8550  140.7057  143.6144 LP  0  0  0  0  0  0  0  0  0  0  0  0  # atno 17321 bound_to 7965
  139.5059  144.3702  152.0477 LP  0  0  0  0  0  0  0  0  0  0  0  0  # atno 17342 bound_to 10162
  140.2826  144.3843  150.6114 LP  0  0  0  0  0  0  0  0  0  0  0  0  # atno 17343 bound_to 10162
  156.0034  130.5117  150.7744 LP  0  0  0  0  0  0  0  0  0  0  0  0  # atno 17370 bound_to 10713
  157.5094  131.0924  151.0217 LP  0  0  0  0  0  0  0  0  0  0  0  0  # atno 17371 bound_to 10713
  139.9712  135.0127  156.9517 LP  0  0  0  0  0  0  0  0  0  0  0  0  # atno 17394 bound_to 11000
  140.5297  134.0826  155.7312 LP  0  0  0  0  0  0  0  0  0  0  0  0  # atno 17395 bound_to 11000

$$$$
