AV-unprocessed.smi:1582|AV-procd|sdf|6362|dock2
  -GOLD-   22720 6583D 1   1.00000     0.00000
 Structure written by MMmdl.
 41 42  0  0  0  0  0  0  0  0  2 V2000
  144.6323  137.5653  152.8070 O   0  0  0  0  0  0  0  0  0  0  0  0
  145.7904  137.2740  152.5099 C   0  0  0  0  0  0  0  0  0  0  0  0
  146.8443  138.0540  152.7884 N   0  0  0  0  0  0  0  0  0  0  0  0
  146.7863  139.3203  153.5128 C   0  0  0  0  0  0  0  0  0  0  0  0
  148.1280  139.7048  154.1714 C   0  0  1  0  0  0  0  0  0  0  0  0
  149.1573  139.0464  153.4607 O   0  0  0  0  0  0  0  0  0  0  0  0
  148.4071  141.2234  154.1515 C   0  0  0  0  0  0  0  0  0  0  0  0
  148.9356  141.7221  155.4475 N   0  3  0  0  0  0  0  0  0  0  0  0
  148.0947  141.2988  156.5976 C   0  0  0  0  0  0  0  0  0  0  0  0
  148.5761  141.9443  157.9080 C   0  0  0  0  0  0  0  0  0  0  0  0
  150.0544  141.6274  158.1678 C   0  0  0  0  0  0  0  0  0  0  0  0
  150.8987  142.0419  156.9559 C   0  0  0  0  0  0  0  0  0  0  0  0
  150.3699  141.3905  155.6667 C   0  0  0  0  0  0  0  0  0  0  0  0
  146.1676  136.1539  151.8726 N   0  0  0  0  0  0  0  0  0  0  0  0
  145.3355  135.0904  151.4420 C   0  0  0  0  0  0  0  0  0  0  0  0
  145.6365  133.7021  151.3175 C   0  0  0  0  0  0  0  0  0  0  0  0
  144.5871  133.0216  150.8780 N   0  0  0  0  0  0  0  0  0  0  0  0
  143.6238  133.9573  150.7213 N   0  0  0  0  0  0  0  0  0  0  0  0
  144.0365  135.2288  151.0535 C   0  0  0  0  0  0  0  0  0  0  0  0
  142.7006  133.7145  150.3904 H   0  0  0  0  0  0  0  0  0  0  0  0
  147.7594  137.7316  152.5090 H   0  0  0  0  0  0  0  0  0  0  0  0
  146.4597  140.1077  152.8309 H   0  0  0  0  0  0  0  0  0  0  0  0
  146.0094  139.2312  154.2731 H   0  0  0  0  0  0  0  0  0  0  0  0
  148.1395  139.3264  155.1927 H   0  0  0  0  0  0  0  0  0  0  0  0
  149.4154  139.5862  152.7288 H   0  0  0  0  0  0  0  0  0  0  0  0
  149.1223  141.4304  153.3539 H   0  0  0  0  0  0  0  0  0  0  0  0
  147.5063  141.7853  153.9012 H   0  0  0  0  0  0  0  0  0  0  0  0
  147.0573  141.5856  156.4212 H   0  0  0  0  0  0  0  0  0  0  0  0
  148.1137  140.2108  156.6825 H   0  0  0  0  0  0  0  0  0  0  0  0
  148.4364  143.0249  157.8565 H   0  0  0  0  0  0  0  0  0  0  0  0
  147.9679  141.5931  158.7422 H   0  0  0  0  0  0  0  0  0  0  0  0
  150.3998  142.1443  159.0636 H   0  0  0  0  0  0  0  0  0  0  0  0
  150.1763  140.5597  158.3557 H   0  0  0  0  0  0  0  0  0  0  0  0
  150.8823  143.1276  156.8511 H   0  0  0  0  0  0  0  0  0  0  0  0
  151.9408  141.7625  157.1150 H   0  0  0  0  0  0  0  0  0  0  0  0
  150.4909  140.3073  155.7188 H   0  0  0  0  0  0  0  0  0  0  0  0
  150.9742  141.7328  154.8275 H   0  0  0  0  0  0  0  0  0  0  0  0
  147.1545  136.0406  151.6931 H   0  0  0  0  0  0  0  0  0  0  0  0
  146.5530  133.1695  151.5235 H   0  0  0  0  0  0  0  0  0  0  0  0
  143.3894  136.0909  150.9847 H   0  0  0  0  0  0  0  0  0  0  0  0
  148.8691  142.7297  155.4078 H   0  0  0  0  0  0  0  0  0  0  0  0
  1  2  2  0  0  0  0
  2  3  1  0  0  0  0
  2 14  1  0  0  0  0
  3  4  1  0  0  0  0
  3 21  1  0  0  0  0
  4  5  1  0  0  0  0
  4 22  1  0  0  0  0
  4 23  1  0  0  0  0
  5  6  1  0  0  0  0
  5  7  1  0  0  0  0
  5 24  1  0  0  0  0
  6 25  1  0  0  0  0
  7  8  1  0  0  0  0
  7 26  1  0  0  0  0
  7 27  1  0  0  0  0
  8 13  1  0  0  0  0
  8  9  1  0  0  0  0
  8 41  1  0  0  0  0
  9 10  1  0  0  0  0
  9 28  1  0  0  0  0
  9 29  1  0  0  0  0
 10 11  1  0  0  0  0
 10 30  1  0  0  0  0
 10 31  1  0  0  0  0
 11 12  1  0  0  0  0
 11 32  1  0  0  0  0
 11 33  1  0  0  0  0
 12 13  1  0  0  0  0
 12 34  1  0  0  0  0
 12 35  1  0  0  0  0
 13 36  1  0  0  0  0
 13 37  1  0  0  0  0
 14 15  1  0  0  0  0
 14 38  1  0  0  0  0
 15 19  2  0  0  0  0
 15 16  1  0  0  0  0
 16 17  2  0  0  0  0
 16 39  1  0  0  0  0
 17 18  1  0  0  0  0
 18 20  1  0  0  0  0
 18 19  1  0  0  0  0
 19 40  1  0  0  0  0
M  CHG  1   8   1
M  END
> <s_m_source_file>
AV-unprocessed.smi

> <i_m_source_file_index>
1582

> <i_lp_mmshare_version>
43012

> <i_f3d_flags>
0

> <s_epik_input>
W2NIXTFbbkhdbltjSF1jMVtOSF1DKD1PKVtOSF1bQ0gyXVtDQEhdKFtPSF0pW0NIMl1OMltDSDJdW0NIMl1bQ0gyXVtDSDJdW0NIMl0y

> <s_epik_cmdline>
J2VwaWtfcHl0aG9uJywgJy1waCcsICc3LjAnLCAnLXRuJywgJzgnLCAnLW1hJywgJzIwMCcsICctbWV0YWxfYmluZGluZycsICctaW1hZScsICc8aW5maWxlLm1hZT4nLCAnLW9tYWUnLCAnPG91dGZpbGUubWFlPic=

> <r_lp_tautomer_probability>
0.5

> <r_epik_Ionization_Penalty>
0.00519658

> <r_epik_Ionization_Penalty_Charging>
0.00515354

> <r_epik_Ionization_Penalty_Neutral>
4.30332e-05

> <r_epik_State_Penalty>
0.00375424

> <r_epik_Charging_Adjusted_Penalty>
0.00890779

> <i_epik_Tot_Q>
1

> <i_epik_Tot_abs_Q>
1

> <r_epik_Metal_State_Penalty>
-0

> <b_epik_Metal_Only>
0

> <s_lp_Force_Field>
OPLS_2005

> <r_lp_Energy>
21.3928

> <b_lp_Chiralities_Consistent>
1

> <s_lp_Variant>
AV-unprocessed.smi:1582-2

> <Gold.Version>
5.8.1

> <Gold.Id.Protein>
6NUR|6NUR_protein|mol2

> <Gold.PLP.Fitness>
49.9343

> <Gold.PLP.PLP>
-32.2590

> <Gold.PLP.part.hbond>
-5.0399

> <Gold.PLP.part.metal>
0.0000

> <Gold.PLP.part.buried>
-7.7524

> <Gold.PLP.part.nonpolar>
-22.0454

> <Gold.PLP.part.repulsive>
1.7364

> <Gold.PLP.ligand.clash>
0.0000

> <Gold.PLP.ligand.torsion>
1.5585

> <Gold.PLP.Chemscore.Hbond>
5.9040

> <Gold.PLP.Chemscore.CHOScore>
1.0000

> <Gold.PLP.Chemscore.Metal>
0.0000

> <Gold.Chemscore.Hbonds>
donor molecule, donor type, donor heavy atom, donor atom, acceptor molecule, acceptor atom, score
      L1  H     3    21       P1  7948  0.99
      L1  H     6    25       P1  7957  1.00
      L1  H     8    41       P1  8028  2.00
      L1  H    14    38       P1  7948  1.00
      L1  H    18    20       P1 10186  0.90
      L1  C    19    40       P1 10171  0.38

> <Gold.PLP.Chemscore.Internal.Correction>
0.0803

> <Gold.Rescore>
     Score         DG    S(hbond)    S(metal)    S(lipo)     H(rot)  DE(clash)    DE(int)     intcor
     18.37     -21.41       4.65        0.00      59.95       2.59       0.50       2.53       ----

> <Gold.Chemscore.Fitness>
18.3750

> <Gold.Chemscore.DG>
-21.4081

> <Gold.Chemscore.ZeroCoef>
-5.4800

> <Gold.Chemscore.Hbond>
4.6522

> <Gold.Chemscore.Metal>
0.0000

> <Gold.Chemscore.Lipo>
59.9472

> <Gold.Chemscore.Internal_Hbond>
0.0000

> <Gold.Chemscore.DEClash>
0.4983

> <Gold.Chemscore.DEInternal>
2.5348

> <Gold.Chemscore.Rot>
2.5876

> <Gold.Chemscore.Internal.Correction>
   9.000000E+99

> <Gold.Chemscore.Hbonds>
donor molecule, donor type, donor heavy atom, donor atom, acceptor molecule, acceptor atom, score
      L1  H     3    21       P1  7948  0.90
      L1  H     6    25       P1  7957  0.99
      L1  H     8    41       P1  8028  0.96
      L1  H    14    38       P1  7948  1.00
      L1  H    18    20       P1 10186  0.82

> <Gold.Chemscore.Hbond.Weighted>
-15.5384

> <Gold.Chemscore.Metal.Weighted>
-0.0000

> <Gold.Chemscore.Lipo.Weighted>
-7.0138

> <Gold.Chemscore.Internal_Hbond.Weighted>
0.0000

> <Gold.Chemscore.DEClash.Weighted>
0.4983

> <Gold.Chemscore.DEInternal.Weighted>
2.5348

> <Gold.Chemscore.Rot.Weighted>
6.6242

> <Gold.Chemscore.Internal.Correction.Weighted>
   9.000000E+99

> <Gold.Protein.RotatedTorsions>
[ 6907 6896 6895 6894 ] final   19.19 input  -60.11 | X-H torsion
[ 7974 7965 7964 7962 ] final -149.29 input  175.53 | X-H torsion
[ 8008 7997 7996 7995 ] final   26.40 input   59.86 | X-H torsion
[ 10167 10162 10161 10158 ] final  -57.84 input  -65.29 | X-H torsion
[ 10718 10713 10712 10709 ] final   98.87 input   66.30 | X-H torsion
[ 10763 10752 10751 10750 ] final   45.57 input  -60.55 | X-H torsion
[ 11005 11000 10999 10996 ] final -109.70 input  -57.11 | X-H torsion

> <Gold.Protein.ActiveResidues>
 VAL166  LYS551  ARG553  GLY616  TRP617  ASP618  TYR619  PRO620  LYS621  CYS622 
 ASP623  PHE694  ASN695  SER759  ASP760  ASP761  ALA762  ILE779  LEU786  VAL792 
 PHE793  MET794  SER795  GLU796  ALA797  LYS798  CYS799  TRP800  GLU811  SER814 

> <Gold.Protein.RotatedAtoms>
  151.8770  135.0468  160.0484 H   0  0  0  0  0  0  0  0  0  0  0  0  # atno 6907 bound_to 6896
  152.2543  133.5237  159.5352 H   0  0  0  0  0  0  0  0  0  0  0  0  # atno 6908 bound_to 6896
  150.7094  134.0834  159.3948 H   0  0  0  0  0  0  0  0  0  0  0  0  # atno 6909 bound_to 6896
  144.7976  140.5084  143.5729 H   0  0  0  0  0  0  0  0  0  0  0  0  # atno 7974 bound_to 7965
  155.0267  140.3154  155.4773 H   0  0  0  0  0  0  0  0  0  0  0  0  # atno 8008 bound_to 7997
  156.2882  140.2187  156.5329 H   0  0  0  0  0  0  0  0  0  0  0  0  # atno 8009 bound_to 7997
  154.7405  140.0474  157.0795 H   0  0  0  0  0  0  0  0  0  0  0  0  # atno 8010 bound_to 7997
  140.6233  143.2428  151.5425 H   0  0  0  0  0  0  0  0  0  0  0  0  # atno 10167 bound_to 10162
  157.6887  131.0653  150.4863 H   0  0  0  0  0  0  0  0  0  0  0  0  # atno 10718 bound_to 10713
  152.9822  135.6035  154.3459 H   0  0  0  0  0  0  0  0  0  0  0  0  # atno 10763 bound_to 10752
  154.3152  135.2770  155.2548 H   0  0  0  0  0  0  0  0  0  0  0  0  # atno 10764 bound_to 10752
  154.4740  135.5934  153.6397 H   0  0  0  0  0  0  0  0  0  0  0  0  # atno 10765 bound_to 10752
  141.0833  133.9182  157.2241 H   0  0  0  0  0  0  0  0  0  0  0  0  # atno 11005 bound_to 11000
  145.5633  139.1480  143.3329 LP  0  0  0  0  0  0  0  0  0  0  0  0  # atno 17320 bound_to 7965
  146.2249  140.5769  142.9001 LP  0  0  0  0  0  0  0  0  0  0  0  0  # atno 17321 bound_to 7965
  139.5458  144.2525  152.1439 LP  0  0  0  0  0  0  0  0  0  0  0  0  # atno 17342 bound_to 10162
  140.1751  144.4899  150.6558 LP  0  0  0  0  0  0  0  0  0  0  0  0  # atno 17343 bound_to 10162
  156.5192  130.4158  149.6260 LP  0  0  0  0  0  0  0  0  0  0  0  0  # atno 17370 bound_to 10713
  156.3170  130.7260  151.2164 LP  0  0  0  0  0  0  0  0  0  0  0  0  # atno 17371 bound_to 10713
  139.9649  135.0144  156.9360 LP  0  0  0  0  0  0  0  0  0  0  0  0  # atno 17394 bound_to 11000
  140.5419  134.0711  155.7344 LP  0  0  0  0  0  0  0  0  0  0  0  0  # atno 17395 bound_to 11000

$$$$
