AV-unprocessed.smi:249|AV-procd|sdf|1901|dock2
  -GOLD-   2262020573D 1   1.00000     0.00000
 Structure written by MMmdl.
 64 67  0  0  0  0  0  0  0  0  2 V2000
  146.5126  133.6359  151.5058 C   0  0  0  0  0  0  0  0  0  0  0  0
  145.9100  135.0222  151.2338 C   0  0  0  0  0  0  0  0  0  0  0  0
  146.3693  136.0640  152.1921 N   0  3  1  0  0  0  0  0  0  0  0  0
  145.8537  137.4141  151.8378 C   0  0  0  0  0  0  0  0  0  0  0  0
  146.5165  138.5114  152.6849 C   0  0  0  0  0  0  0  0  0  0  0  0
  146.3349  138.2253  154.1879 C   0  0  2  0  0  0  0  0  0  0  0  0
  146.8608  139.2830  155.0624 N   0  0  0  0  0  0  0  0  0  0  0  0
  145.9822  140.4043  155.3788 C   0  0  0  0  0  0  0  0  0  0  0  0
  148.1858  139.5767  155.1475 C   0  0  0  0  0  0  0  0  0  0  0  0
  149.0875  138.9144  154.3763 N   0  0  0  0  0  0  0  0  0  0  0  0
  150.3874  139.2171  154.4408 C   0  0  0  0  0  0  0  0  0  0  0  0
  150.9929  140.1362  155.1941 N   0  0  0  0  0  0  0  0  0  0  0  0
  150.0956  140.8083  155.9696 C   0  0  0  0  0  0  0  0  0  0  0  0
  148.6882  140.5954  156.0069 C   0  0  0  0  0  0  0  0  0  0  0  0
  148.1038  141.4633  156.9221 N   0  0  0  0  0  0  0  0  0  0  0  0
  149.1060  142.1534  157.3937 C   0  0  0  0  0  0  0  0  0  0  0  0
  150.3370  141.8303  156.8712 N   0  0  0  0  0  0  0  0  0  0  0  0
  151.6088  142.4406  157.2180 C   0  0  0  0  0  0  0  0  0  0  0  0
  152.3277  141.7244  158.3880 C   0  0  2  0  0  0  0  0  0  0  0  0
  152.0861  140.1949  158.3890 C   0  0  0  0  0  0  0  0  0  0  0  0
  152.8057  139.5574  157.3536 O   0  0  0  0  0  0  0  0  0  0  0  0
  151.9864  142.3738  159.7531 C   0  0  2  0  0  0  0  0  0  0  0  0
  152.1720  143.8800  159.8072 C   0  0  0  0  0  0  0  0  0  0  0  0
  152.2285  144.1432  161.3075 C   0  0  0  0  0  0  0  0  0  0  0  0
  152.8387  142.9903  161.8758 O   0  0  0  0  0  0  0  0  0  0  0  0
  152.8903  141.9419  160.9130 C   0  0  0  0  0  0  0  0  0  0  0  0
  146.8521  136.8099  154.5248 C   0  0  0  0  0  0  0  0  0  0  0  0
  146.1928  135.7306  153.6409 C   0  0  1  0  0  0  0  0  0  0  0  0
  144.7268  135.4583  154.0426 C   0  0  0  0  0  0  0  0  0  0  0  0
  146.2580  132.9453  150.7016 H   0  0  0  0  0  0  0  0  0  0  0  0
  146.1346  133.2006  152.4307 H   0  0  0  0  0  0  0  0  0  0  0  0
  147.6000  133.6813  151.5692 H   0  0  0  0  0  0  0  0  0  0  0  0
  146.2146  135.3219  150.2302 H   0  0  0  0  0  0  0  0  0  0  0  0
  144.8214  134.9702  151.2121 H   0  0  0  0  0  0  0  0  0  0  0  0
  146.0548  137.6174  150.7852 H   0  0  0  0  0  0  0  0  0  0  0  0
  144.7701  137.4444  151.9555 H   0  0  0  0  0  0  0  0  0  0  0  0
  147.5723  138.5682  152.4228 H   0  0  0  0  0  0  0  0  0  0  0  0
  146.0841  139.4786  152.4275 H   0  0  0  0  0  0  0  0  0  0  0  0
  145.2618  138.2172  154.3809 H   0  0  0  0  0  0  0  0  0  0  0  0
  145.7824  140.4365  156.4496 H   0  0  0  0  0  0  0  0  0  0  0  0
  145.0241  140.3137  154.8669 H   0  0  0  0  0  0  0  0  0  0  0  0
  146.4267  141.3555  155.0825 H   0  0  0  0  0  0  0  0  0  0  0  0
  151.0349  138.6429  153.7948 H   0  0  0  0  0  0  0  0  0  0  0  0
  148.9743  142.9254  158.1382 H   0  0  0  0  0  0  0  0  0  0  0  0
  152.2295  142.4308  156.3221 H   0  0  0  0  0  0  0  0  0  0  0  0
  151.4404  143.4900  157.4627 H   0  0  0  0  0  0  0  0  0  0  0  0
  153.3982  141.8624  158.2293 H   0  0  0  0  0  0  0  0  0  0  0  0
  152.3770  139.7522  159.3415 H   0  0  0  0  0  0  0  0  0  0  0  0
  151.0270  139.9688  158.2667 H   0  0  0  0  0  0  0  0  0  0  0  0
  152.3131  138.8050  157.0634 H   0  0  0  0  0  0  0  0  0  0  0  0
  150.9518  142.1485  160.0173 H   0  0  0  0  0  0  0  0  0  0  0  0
  153.1163  144.1665  159.3416 H   0  0  0  0  0  0  0  0  0  0  0  0
  151.3682  144.4320  159.3196 H   0  0  0  0  0  0  0  0  0  0  0  0
  152.7813  145.0503  161.5518 H   0  0  0  0  0  0  0  0  0  0  0  0
  151.2211  144.2394  161.7146 H   0  0  0  0  0  0  0  0  0  0  0  0
  152.5802  140.9931  161.3517 H   0  0  0  0  0  0  0  0  0  0  0  0
  153.9241  141.8372  160.5804 H   0  0  0  0  0  0  0  0  0  0  0  0
  147.9301  136.7479  154.3810 H   0  0  0  0  0  0  0  0  0  0  0  0
  146.6768  136.5887  155.5784 H   0  0  0  0  0  0  0  0  0  0  0  0
  146.7470  134.8134  153.8380 H   0  0  0  0  0  0  0  0  0  0  0  0
  144.6542  135.2463  155.1096 H   0  0  0  0  0  0  0  0  0  0  0  0
  144.3200  134.5906  153.5242 H   0  0  0  0  0  0  0  0  0  0  0  0
  144.0732  136.3052  153.8372 H   0  0  0  0  0  0  0  0  0  0  0  0
  147.3684  136.1243  152.0552 H   0  0  0  0  0  0  0  0  0  0  0  0
  1  2  1  0  0  0  0
  1 30  1  0  0  0  0
  1 31  1  0  0  0  0
  1 32  1  0  0  0  0
  2  3  1  0  0  0  0
  2 33  1  0  0  0  0
  2 34  1  0  0  0  0
  3 28  1  0  0  0  0
  3  4  1  0  0  0  0
  3 64  1  0  0  0  0
  4  5  1  0  0  0  0
  4 35  1  0  0  0  0
  4 36  1  0  0  0  0
  5  6  1  0  0  0  0
  5 37  1  0  0  0  0
  5 38  1  0  0  0  0
  6  7  1  0  0  0  0
  6 27  1  0  0  0  0
  6 39  1  0  0  0  0
  7  8  1  0  0  0  0
  7  9  1  0  0  0  0
  8 40  1  0  0  0  0
  8 41  1  0  0  0  0
  8 42  1  0  0  0  0
  9 14  1  0  0  0  0
  9 10  2  0  0  0  0
 10 11  1  0  0  0  0
 11 12  2  0  0  0  0
 11 43  1  0  0  0  0
 12 13  1  0  0  0  0
 13 17  1  0  0  0  0
 13 14  2  0  0  0  0
 14 15  1  0  0  0  0
 15 16  2  0  0  0  0
 16 17  1  0  0  0  0
 16 44  1  0  0  0  0
 17 18  1  0  0  0  0
 18 19  1  0  0  0  0
 18 45  1  0  0  0  0
 18 46  1  0  0  0  0
 19 20  1  0  0  0  0
 19 22  1  0  0  0  0
 19 47  1  0  0  0  0
 20 21  1  0  0  0  0
 20 48  1  0  0  0  0
 20 49  1  0  0  0  0
 21 50  1  0  0  0  0
 22 26  1  0  0  0  0
 22 23  1  0  0  0  0
 22 51  1  0  0  0  0
 23 24  1  0  0  0  0
 23 52  1  0  0  0  0
 23 53  1  0  0  0  0
 24 25  1  0  0  0  0
 24 54  1  0  0  0  0
 24 55  1  0  0  0  0
 25 26  1  0  0  0  0
 26 56  1  0  0  0  0
 26 57  1  0  0  0  0
 27 28  1  0  0  0  0
 27 58  1  0  0  0  0
 27 59  1  0  0  0  0
 28 29  1  0  0  0  0
 28 60  1  0  0  0  0
 29 61  1  0  0  0  0
 29 62  1  0  0  0  0
 29 63  1  0  0  0  0
M  CHG  1   3   1
M  END
> <s_m_source_file>
AV-unprocessed.smi

> <i_m_source_file_index>
249

> <i_lp_mmshare_version>
43012

> <i_f3d_flags>
0

> <s_epik_input>
W0NIM11bQ0gyXU4xW0NIMl1bQ0gyXVtDQEhdKFtDSDJdW0NASF0xW0NIM10pTihbQ0gzXSljKG5bY0hdbjIpYyhjMjMpbltjSF1uM1tDSDJdW0NASF0oW0NIMl1bT0hdKVtDQEBIXTRbQ0gyXVtDSDJdT1tDSDJdNA==

> <s_epik_cmdline>
J2VwaWtfcHl0aG9uJywgJy1waCcsICc3LjAnLCAnLXRuJywgJzgnLCAnLW1hJywgJzIwMCcsICctbWV0YWxfYmluZGluZycsICctaW1hZScsICc8aW5maWxlLm1hZT4nLCAnLW9tYWUnLCAnPG91dGZpbGUubWFlPic=

> <r_lp_tautomer_probability>
1

> <r_epik_Ionization_Penalty>
0.00294688

> <r_epik_Ionization_Penalty_Charging>
0.00169971

> <r_epik_Ionization_Penalty_Neutral>
0.00124717

> <r_epik_State_Penalty>
-0

> <r_epik_Charging_Adjusted_Penalty>
0.00169971

> <i_epik_Tot_Q>
1

> <i_epik_Tot_abs_Q>
1

> <r_epik_Metal_State_Penalty>
-0

> <b_epik_Metal_Only>
0

> <s_lp_Force_Field>
OPLS_2005

> <r_lp_Energy>
54.0004

> <b_lp_Chiralities_Consistent>
1

> <s_lp_Variant>
AV-unprocessed.smi:249-4

> <Gold.Version>
5.8.1

> <Gold.Id.Protein>
6NUR|6NUR_protein|mol2

> <Gold.PLP.Fitness>
51.0634

> <Gold.PLP.PLP>
-43.3556

> <Gold.PLP.part.hbond>
-3.0000

> <Gold.PLP.part.metal>
0.0000

> <Gold.PLP.part.buried>
-4.5984

> <Gold.PLP.part.nonpolar>
-35.5240

> <Gold.PLP.part.repulsive>
0.4583

> <Gold.PLP.ligand.clash>
0.0000

> <Gold.PLP.ligand.torsion>
1.5114

> <Gold.PLP.Chemscore.Hbond>
3.2000

> <Gold.PLP.Chemscore.CHOScore>
0.0000

> <Gold.PLP.Chemscore.Metal>
0.0000

> <Gold.Chemscore.Hbonds>
donor molecule, donor type, donor heavy atom, donor atom, acceptor molecule, acceptor atom, score
      L1  H     3    64       P1  7948  2.00
      P1  H  7989  7998       L1    12  0.30
      P1  H  7997  8008       L1    21  1.00

> <Gold.PLP.Chemscore.Internal.Correction>
1.1306

> <Gold.Rescore>
     Score         DG    S(hbond)    S(metal)    S(lipo)     H(rot)  DE(clash)    DE(int)     intcor
     13.37     -17.13       1.99        0.00     100.94       2.65       0.01       3.76       ----

> <Gold.Chemscore.Fitness>
13.3650

> <Gold.Chemscore.DG>
-17.1341

> <Gold.Chemscore.ZeroCoef>
-5.4800

> <Gold.Chemscore.Hbond>
1.9856

> <Gold.Chemscore.Metal>
0.0000

> <Gold.Chemscore.Lipo>
100.9408

> <Gold.Chemscore.Internal_Hbond>
0.0000

> <Gold.Chemscore.DEClash>
0.0130

> <Gold.Chemscore.DEInternal>
3.7560

> <Gold.Chemscore.Rot>
2.6515

> <Gold.Chemscore.Internal.Correction>
   9.000000E+99

> <Gold.Chemscore.Hbonds>
donor molecule, donor type, donor heavy atom, donor atom, acceptor molecule, acceptor atom, score
      L1  H     3    64       P1  7948  0.97
      P1  H  7997  8008       L1    21  0.97

> <Gold.Chemscore.Hbond.Weighted>
-6.6319

> <Gold.Chemscore.Metal.Weighted>
-0.0000

> <Gold.Chemscore.Lipo.Weighted>
-11.8101

> <Gold.Chemscore.Internal_Hbond.Weighted>
0.0000

> <Gold.Chemscore.DEClash.Weighted>
0.0130

> <Gold.Chemscore.DEInternal.Weighted>
3.7560

> <Gold.Chemscore.Rot.Weighted>
6.7880

> <Gold.Chemscore.Internal.Correction.Weighted>
   9.000000E+99

> <Gold.Protein.RotatedTorsions>
[ 6907 6896 6895 6894 ] final   41.13 input  -60.11 | X-H torsion
[ 7974 7965 7964 7962 ] final  -35.50 input  175.53 | X-H torsion
[ 8008 7997 7996 7995 ] final  -81.92 input   59.86 | X-H torsion
[ 10167 10162 10161 10158 ] final  144.76 input  -65.29 | X-H torsion
[ 10718 10713 10712 10709 ] final -115.50 input   66.30 | X-H torsion
[ 10763 10752 10751 10750 ] final   16.53 input  -60.55 | X-H torsion
[ 11005 11000 10999 10996 ] final   47.07 input  -57.11 | X-H torsion

> <Gold.Protein.ActiveResidues>
 VAL166  LYS551  ARG553  GLY616  TRP617  ASP618  TYR619  PRO620  LYS621  CYS622 
 ASP623  PHE694  ASN695  SER759  ASP760  ASP761  ALA762  ILE779  LEU786  VAL792 
 PHE793  MET794  SER795  GLU796  ALA797  LYS798  CYS799  TRP800  GLU811  SER814 

> <Gold.Protein.RotatedAtoms>
  152.1914  134.8669  160.0516 H   0  0  0  0  0  0  0  0  0  0  0  0  # atno 6907 bound_to 6896
  151.9556  133.3674  159.4024 H   0  0  0  0  0  0  0  0  0  0  0  0  # atno 6908 bound_to 6896
  150.6936  134.4218  159.5252 H   0  0  0  0  0  0  0  0  0  0  0  0  # atno 6909 bound_to 6896
  146.0741  140.6166  142.8939 H   0  0  0  0  0  0  0  0  0  0  0  0  # atno 7974 bound_to 7965
  154.6033  140.0641  156.9397 H   0  0  0  0  0  0  0  0  0  0  0  0  # atno 8008 bound_to 7997
  155.2096  140.3321  155.4312 H   0  0  0  0  0  0  0  0  0  0  0  0  # atno 8009 bound_to 7997
  156.2332  140.1850  156.7173 H   0  0  0  0  0  0  0  0  0  0  0  0  # atno 8010 bound_to 7997
  139.4940  144.5949  151.6603 H   0  0  0  0  0  0  0  0  0  0  0  0  # atno 10167 bound_to 10162
  156.0900  130.6084  150.8914 H   0  0  0  0  0  0  0  0  0  0  0  0  # atno 10718 bound_to 10713
  153.1422  135.6762  153.9009 H   0  0  0  0  0  0  0  0  0  0  0  0  # atno 10763 bound_to 10752
  153.8462  135.3099  155.3431 H   0  0  0  0  0  0  0  0  0  0  0  0  # atno 10764 bound_to 10752
  154.7797  135.4895  153.9902 H   0  0  0  0  0  0  0  0  0  0  0  0  # atno 10765 bound_to 10752
  140.1312  134.4703  155.8520 H   0  0  0  0  0  0  0  0  0  0  0  0  # atno 11005 bound_to 11000
  144.7250  140.4497  143.6979 LP  0  0  0  0  0  0  0  0  0  0  0  0  # atno 17320 bound_to 7965
  145.6338  139.1540  143.2954 LP  0  0  0  0  0  0  0  0  0  0  0  0  # atno 17321 bound_to 7965
  140.5585  144.0308  150.6158 LP  0  0  0  0  0  0  0  0  0  0  0  0  # atno 17342 bound_to 10162
  140.3386  143.3033  152.0612 LP  0  0  0  0  0  0  0  0  0  0  0  0  # atno 17343 bound_to 10162
  157.6046  131.0939  150.8901 LP  0  0  0  0  0  0  0  0  0  0  0  0  # atno 17370 bound_to 10713
  156.9051  130.5261  149.5281 LP  0  0  0  0  0  0  0  0  0  0  0  0  # atno 17371 bound_to 10713
  141.2170  133.6797  156.7073 LP  0  0  0  0  0  0  0  0  0  0  0  0  # atno 17394 bound_to 11000
  140.2840  134.8294  157.3958 LP  0  0  0  0  0  0  0  0  0  0  0  0  # atno 17395 bound_to 11000

$$$$
