AV-unprocessed.smi:961|AV-procd|sdf|4274|dock5
  -GOLD-   22720 2183D 1   1.00000     0.00000
 Structure written by MMmdl.
 37 38  0  0  0  0  0  0  0  0  1 V2000
  150.7736  144.9690  160.0653 C   0  0  0  0  0  0  0  0  0  0  0  0
  151.6080  143.9291  159.2917 C   0  0  0  0  0  0  0  0  0  0  0  0
  150.6750  142.9876  158.5048 C   0  0  0  0  0  0  0  0  0  0  0  0
  152.4880  144.6865  158.2740 C   0  0  0  0  0  0  0  0  0  0  0  0
  152.4567  143.1267  160.2579 C   0  0  0  0  0  0  0  0  0  0  0  0
  152.5210  143.2412  161.6281 C   0  0  0  0  0  0  0  0  0  0  0  0
  153.6413  142.1109  162.3360 S   0  0  0  0  0  0  0  0  0  0  0  0
  153.9849  141.4942  160.7274 C   0  0  0  0  0  0  0  0  0  0  0  0
  154.9803  140.4162  160.4612 C   0  0  0  0  0  0  0  0  0  0  0  0
  155.5142  139.7822  161.7556 C   0  0  0  0  0  0  0  0  0  0  0  0
  154.7389  138.6082  162.1392 N   0  0  0  0  0  0  0  0  0  0  0  0
  154.9680  137.8547  163.2254 C   0  0  0  0  0  0  0  0  0  0  0  0
  155.8779  138.0868  164.0228 O   0  0  0  0  0  0  0  0  0  0  0  0
  154.0183  136.7126  163.3826 C   0  0  0  0  0  0  0  0  0  0  0  0
  153.2173  136.6397  164.6668 C   0  0  0  0  0  0  0  0  0  0  0  0
  154.3431  135.6648  164.4281 C   0  0  0  0  0  0  0  0  0  0  0  0
  153.3078  142.1272  159.7669 N   0  0  0  0  0  0  0  0  0  0  0  0
  150.1632  145.5708  159.3911 H   0  0  0  0  0  0  0  0  0  0  0  0
  151.4130  145.6509  160.6272 H   0  0  0  0  0  0  0  0  0  0  0  0
  150.0967  144.4939  160.7763 H   0  0  0  0  0  0  0  0  0  0  0  0
  149.9908  142.4545  159.1657 H   0  0  0  0  0  0  0  0  0  0  0  0
  151.2433  142.2405  157.9497 H   0  0  0  0  0  0  0  0  0  0  0  0
  150.0668  143.5390  157.7868 H   0  0  0  0  0  0  0  0  0  0  0  0
  151.8802  145.2645  157.5769 H   0  0  0  0  0  0  0  0  0  0  0  0
  153.0951  144.0011  157.6810 H   0  0  0  0  0  0  0  0  0  0  0  0
  153.1634  145.3852  158.7693 H   0  0  0  0  0  0  0  0  0  0  0  0
  151.9811  143.9221  162.2689 H   0  0  0  0  0  0  0  0  0  0  0  0
  154.5067  139.6606  159.8335 H   0  0  0  0  0  0  0  0  0  0  0  0
  155.8031  140.8339  159.8792 H   0  0  0  0  0  0  0  0  0  0  0  0
  156.5506  139.4735  161.6169 H   0  0  0  0  0  0  0  0  0  0  0  0
  155.5133  140.5118  162.5674 H   0  0  0  0  0  0  0  0  0  0  0  0
  153.9721  138.3501  161.5351 H   0  0  0  0  0  0  0  0  0  0  0  0
  153.5231  136.3629  162.4777 H   0  0  0  0  0  0  0  0  0  0  0  0
  153.3732  137.4087  165.4218 H   0  0  0  0  0  0  0  0  0  0  0  0
  152.1963  136.2715  164.5908 H   0  0  0  0  0  0  0  0  0  0  0  0
  154.0856  134.6348  164.1903 H   0  0  0  0  0  0  0  0  0  0  0  0
  155.2448  135.7866  165.0261 H   0  0  0  0  0  0  0  0  0  0  0  0
  1  2  1  0  0  0  0
  1 18  1  0  0  0  0
  1 19  1  0  0  0  0
  1 20  1  0  0  0  0
  2  3  1  0  0  0  0
  2  4  1  0  0  0  0
  2  5  1  0  0  0  0
  3 21  1  0  0  0  0
  3 22  1  0  0  0  0
  3 23  1  0  0  0  0
  4 24  1  0  0  0  0
  4 25  1  0  0  0  0
  4 26  1  0  0  0  0
  5 17  1  0  0  0  0
  5  6  2  0  0  0  0
  6  7  1  0  0  0  0
  6 27  1  0  0  0  0
  7  8  1  0  0  0  0
  8  9  1  0  0  0  0
  8 17  2  0  0  0  0
  9 10  1  0  0  0  0
  9 28  1  0  0  0  0
  9 29  1  0  0  0  0
 10 11  1  0  0  0  0
 10 30  1  0  0  0  0
 10 31  1  0  0  0  0
 11 12  1  0  0  0  0
 11 32  1  0  0  0  0
 12 13  2  0  0  0  0
 12 14  1  0  0  0  0
 14 16  1  0  0  0  0
 14 15  1  0  0  0  0
 14 33  1  0  0  0  0
 15 16  1  0  0  0  0
 15 34  1  0  0  0  0
 15 35  1  0  0  0  0
 16 36  1  0  0  0  0
 16 37  1  0  0  0  0
M  END
> <s_m_source_file>
AV-unprocessed.smi

> <i_m_source_file_index>
961

> <i_lp_mmshare_version>
43012

> <i_f3d_flags>
0

> <s_epik_input>
W0NIM11DKFtDSDNdKShbQ0gzXSljMVtjSF1zYyhuMSlbQ0gyXVtDSDJdW05IXUMoPU8pW0NIXTJbQ0gyXVtDSDJdMg==

> <s_epik_cmdline>
J2VwaWtfcHl0aG9uJywgJy1waCcsICc3LjAnLCAnLXRuJywgJzgnLCAnLW1hJywgJzIwMCcsICctbWV0YWxfYmluZGluZycsICctaW1hZScsICc8aW5maWxlLm1hZT4nLCAnLW9tYWUnLCAnPG91dGZpbGUubWFlPic=

> <r_epik_Ionization_Penalty>
0.000842111

> <r_epik_Ionization_Penalty_Charging>
0

> <r_epik_Ionization_Penalty_Neutral>
0.000842111

> <r_epik_State_Penalty>
0.000542609

> <r_epik_Charging_Adjusted_Penalty>
0.000542609

> <i_epik_Tot_Q>
0

> <i_epik_Tot_abs_Q>
0

> <r_epik_Metal_State_Penalty>
-0

> <b_epik_Metal_Only>
0

> <s_lp_Force_Field>
OPLS_2005

> <r_lp_Energy>
-3.24501

> <b_lp_Chiralities_Consistent>
1

> <s_lp_Variant>
AV-unprocessed.smi:961-1

> <Gold.Version>
5.8.1

> <Gold.Id.Protein>
6NUR|6NUR_protein|mol2

> <Gold.PLP.Fitness>
45.0797

> <Gold.PLP.PLP>
-45.7280

> <Gold.PLP.part.hbond>
0.0000

> <Gold.PLP.part.metal>
0.0000

> <Gold.PLP.part.buried>
-5.5185

> <Gold.PLP.part.nonpolar>
-40.7873

> <Gold.PLP.part.repulsive>
0.0118

> <Gold.PLP.ligand.clash>
0.0000

> <Gold.PLP.ligand.torsion>
0.3739

> <Gold.PLP.Chemscore.Hbond>
0.0000

> <Gold.PLP.Chemscore.CHOScore>
0.0000

> <Gold.PLP.Chemscore.Metal>
0.0000

> <Gold.PLP.Chemscore.Internal.Correction>
0.0994

> <Gold.Rescore>
     Score         DG    S(hbond)    S(metal)    S(lipo)     H(rot)  DE(clash)    DE(int)     intcor
     16.62     -16.99       0.00        0.00     131.96       1.54       0.05       0.32       ----

> <Gold.Chemscore.Fitness>
16.6177

> <Gold.Chemscore.DG>
-16.9861

> <Gold.Chemscore.ZeroCoef>
-5.4800

> <Gold.Chemscore.Hbond>
0.0000

> <Gold.Chemscore.Metal>
0.0000

> <Gold.Chemscore.Lipo>
131.9602

> <Gold.Chemscore.Internal_Hbond>
0.0000

> <Gold.Chemscore.DEClash>
0.0507

> <Gold.Chemscore.DEInternal>
0.3178

> <Gold.Chemscore.Rot>
1.5364

> <Gold.Chemscore.Internal.Correction>
   9.000000E+99

> <Gold.Chemscore.Hbond.Weighted>
-0.0000

> <Gold.Chemscore.Metal.Weighted>
-0.0000

> <Gold.Chemscore.Lipo.Weighted>
-15.4393

> <Gold.Chemscore.Internal_Hbond.Weighted>
0.0000

> <Gold.Chemscore.DEClash.Weighted>
0.0507

> <Gold.Chemscore.DEInternal.Weighted>
0.3178

> <Gold.Chemscore.Rot.Weighted>
3.9332

> <Gold.Chemscore.Internal.Correction.Weighted>
   9.000000E+99

> <Gold.Protein.RotatedTorsions>
[ 6907 6896 6895 6894 ] final  115.51 input  -60.11 | X-H torsion
[ 7974 7965 7964 7962 ] final  -87.36 input  175.53 | X-H torsion
[ 8008 7997 7996 7995 ] final -163.70 input   59.86 | X-H torsion
[ 10167 10162 10161 10158 ] final   22.55 input  -65.29 | X-H torsion
[ 10718 10713 10712 10709 ] final  -43.90 input   66.30 | X-H torsion
[ 10763 10752 10751 10750 ] final  -58.25 input  -60.55 | X-H torsion
[ 11005 11000 10999 10996 ] final   18.59 input  -57.11 | X-H torsion

> <Gold.Protein.ActiveResidues>
 VAL166  LYS551  ARG553  GLY616  TRP617  ASP618  TYR619  PRO620  LYS621  CYS622 
 ASP623  PHE694  ASN695  SER759  ASP760  ASP761  ALA762  ILE779  LEU786  VAL792 
 PHE793  MET794  SER795  GLU796  ALA797  LYS798  CYS799  TRP800  GLU811  SER814 

> <Gold.Protein.RotatedAtoms>
  152.4737  133.8088  159.6991 H   0  0  0  0  0  0  0  0  0  0  0  0  # atno 6907 bound_to 6896
  150.8740  133.7455  159.2959 H   0  0  0  0  0  0  0  0  0  0  0  0  # atno 6908 bound_to 6896
  151.4980  135.1064  159.9873 H   0  0  0  0  0  0  0  0  0  0  0  0  # atno 6909 bound_to 6896
  145.4675  140.9560  143.1935 H   0  0  0  0  0  0  0  0  0  0  0  0  # atno 7974 bound_to 7965
  155.8250  140.0925  157.1826 H   0  0  0  0  0  0  0  0  0  0  0  0  # atno 8008 bound_to 7997
  154.3979  140.1429  156.3605 H   0  0  0  0  0  0  0  0  0  0  0  0  # atno 8009 bound_to 7997
  155.8226  140.3445  155.5526 H   0  0  0  0  0  0  0  0  0  0  0  0  # atno 8010 bound_to 7997
  140.5339  143.9794  150.6481 H   0  0  0  0  0  0  0  0  0  0  0  0  # atno 10167 bound_to 10162
  156.2441  130.4182  149.8726 H   0  0  0  0  0  0  0  0  0  0  0  0  # atno 10718 bound_to 10713
  154.2352  135.6353  153.5188 H   0  0  0  0  0  0  0  0  0  0  0  0  # atno 10763 bound_to 10752
  152.9941  135.5529  154.5969 H   0  0  0  0  0  0  0  0  0  0  0  0  # atno 10764 bound_to 10752
  154.5462  135.2898  155.1025 H   0  0  0  0  0  0  0  0  0  0  0  0  # atno 10765 bound_to 10752
  140.4231  134.1497  155.7674 H   0  0  0  0  0  0  0  0  0  0  0  0  # atno 11005 bound_to 11000
  144.7965  139.6224  143.7090 LP  0  0  0  0  0  0  0  0  0  0  0  0  # atno 17320 bound_to 7965
  146.2416  139.6012  142.9488 LP  0  0  0  0  0  0  0  0  0  0  0  0  # atno 17321 bound_to 7965
  140.3176  143.3157  152.0816 LP  0  0  0  0  0  0  0  0  0  0  0  0  # atno 17342 bound_to 10162
  139.4964  144.6595  151.6497 LP  0  0  0  0  0  0  0  0  0  0  0  0  # atno 17343 bound_to 10162
  156.6297  130.8660  151.3493 LP  0  0  0  0  0  0  0  0  0  0  0  0  # atno 17370 bound_to 10713
  157.7188  130.9531  150.1356 LP  0  0  0  0  0  0  0  0  0  0  0  0  # atno 17371 bound_to 10713
  141.1776  133.8482  157.1369 LP  0  0  0  0  0  0  0  0  0  0  0  0  # atno 17394 bound_to 11000
  140.0186  134.9956  157.0545 LP  0  0  0  0  0  0  0  0  0  0  0  0  # atno 17395 bound_to 11000

$$$$
