AV-unprocessed.smi:2984|AV-procd|sdf|11378|dock4
  -GOLD-   2272016293D 1   1.00000     0.00000
 Structure written by MMmdl.
 38 39  0  0  0  0  0  0  0  0  1 V2000
  150.3873  136.4320  158.6886 O   0  0  0  0  0  0  0  0  0  0  0  0
  151.3359  136.8161  158.0026 C   0  0  0  0  0  0  0  0  0  0  0  0
  152.2033  135.7767  157.2789 C   0  0  0  0  0  0  0  0  0  0  0  0
  151.4016  134.8192  156.5012 N   0  0  0  0  0  0  0  0  0  0  0  0
  150.5895  135.4080  155.5469 N   0  0  0  0  0  0  0  0  0  0  0  0
  149.8235  134.6682  154.8214 C   0  0  0  0  0  0  0  0  0  0  0  0
  149.7832  133.2299  154.9630 C   0  0  0  0  0  0  0  0  0  0  0  0
  148.7322  132.2899  153.9633 Cl  0  0  0  0  0  0  0  0  0  0  0  0
  150.5915  132.6615  155.8928 C   0  0  0  0  0  0  0  0  0  0  0  0
  150.6002  130.9459  156.1182 Cl  0  0  0  0  0  0  0  0  0  0  0  0
  151.4794  133.4731  156.7369 C   0  0  0  0  0  0  0  0  0  0  0  0
  152.2287  132.9948  157.5891 O   0  0  0  0  0  0  0  0  0  0  0  0
  151.6971  138.1050  157.8299 N   0  0  0  0  0  0  0  0  0  0  0  0
  151.0942  139.2027  158.3233 C   0  0  0  0  0  0  0  0  0  0  0  0
  149.9552  139.2484  158.7927 O   0  0  0  0  0  0  0  0  0  0  0  0
  151.8992  140.2718  158.2331 N   0  0  0  0  0  0  0  0  0  0  0  0
  151.5939  141.6042  158.7460 C   0  0  0  0  0  0  0  0  0  0  0  0
  151.3689  142.5936  157.5834 C   0  0  0  0  0  0  0  0  0  0  0  0
  151.1249  144.0214  158.0984 C   0  0  0  0  0  0  0  0  0  0  0  0
  152.2719  144.4907  159.0068 C   0  0  0  0  0  0  0  0  0  0  0  0
  152.4941  143.5109  160.1695 C   0  0  0  0  0  0  0  0  0  0  0  0
  152.7407  142.0828  159.6564 C   0  0  0  0  0  0  0  0  0  0  0  0
  152.9021  136.3071  156.6293 H   0  0  0  0  0  0  0  0  0  0  0  0
  152.8249  135.2479  158.0039 H   0  0  0  0  0  0  0  0  0  0  0  0
  149.1638  135.0880  154.0620 H   0  0  0  0  0  0  0  0  0  0  0  0
  152.5058  138.2632  157.2472 H   0  0  0  0  0  0  0  0  0  0  0  0
  152.7866  140.1602  157.7652 H   0  0  0  0  0  0  0  0  0  0  0  0
  150.6842  141.5540  159.3476 H   0  0  0  0  0  0  0  0  0  0  0  0
  152.2376  142.5918  156.9233 H   0  0  0  0  0  0  0  0  0  0  0  0
  150.5203  142.2762  156.9759 H   0  0  0  0  0  0  0  0  0  0  0  0
  151.0133  144.7060  157.2572 H   0  0  0  0  0  0  0  0  0  0  0  0
  150.1847  144.0550  158.6505 H   0  0  0  0  0  0  0  0  0  0  0  0
  153.1886  144.5784  158.4222 H   0  0  0  0  0  0  0  0  0  0  0  0
  152.0558  145.4864  159.3948 H   0  0  0  0  0  0  0  0  0  0  0  0
  153.3388  143.8392  160.7758 H   0  0  0  0  0  0  0  0  0  0  0  0
  151.6221  143.5178  160.8248 H   0  0  0  0  0  0  0  0  0  0  0  0
  152.8543  141.4043  160.5028 H   0  0  0  0  0  0  0  0  0  0  0  0
  153.6842  142.0553  159.1093 H   0  0  0  0  0  0  0  0  0  0  0  0
  1  2  2  0  0  0  0
  2  3  1  0  0  0  0
  2 13  1  0  0  0  0
  3  4  1  0  0  0  0
  3 23  1  0  0  0  0
  3 24  1  0  0  0  0
  4 11  1  0  0  0  0
  4  5  1  0  0  0  0
  5  6  2  0  0  0  0
  6  7  1  0  0  0  0
  6 25  1  0  0  0  0
  7  8  1  0  0  0  0
  7  9  2  0  0  0  0
  9 10  1  0  0  0  0
  9 11  1  0  0  0  0
 11 12  2  0  0  0  0
 13 14  1  0  0  0  0
 13 26  1  0  0  0  0
 14 15  2  0  0  0  0
 14 16  1  0  0  0  0
 16 17  1  0  0  0  0
 16 27  1  0  0  0  0
 17 22  1  0  0  0  0
 17 18  1  0  0  0  0
 17 28  1  0  0  0  0
 18 19  1  0  0  0  0
 18 29  1  0  0  0  0
 18 30  1  0  0  0  0
 19 20  1  0  0  0  0
 19 31  1  0  0  0  0
 19 32  1  0  0  0  0
 20 21  1  0  0  0  0
 20 33  1  0  0  0  0
 20 34  1  0  0  0  0
 21 22  1  0  0  0  0
 21 35  1  0  0  0  0
 21 36  1  0  0  0  0
 22 37  1  0  0  0  0
 22 38  1  0  0  0  0
M  END
> <s_m_source_file>
AV-unprocessed.smi

> <i_m_source_file_index>
2984

> <i_lp_mmshare_version>
43012

> <i_f3d_flags>
0

> <s_epik_input>
Tz1jMWMoQ2wpYyhDbClbY0hdbm4xW0NIMl1DKD1PKVtOSF1DKD1PKVtOSF1bQ0hdMltDSDJdW0NIMl1bQ0gyXVtDSDJdW0NIMl0y

> <s_epik_cmdline>
J2VwaWtfcHl0aG9uJywgJy1waCcsICc3LjAnLCAnLXRuJywgJzgnLCAnLW1hJywgJzIwMCcsICctbWV0YWxfYmluZGluZycsICctaW1hZScsICc8aW5maWxlLm1hZT4nLCAnLW9tYWUnLCAnPG91dGZpbGUubWFlPic=

> <r_lp_tautomer_probability>
1

> <r_epik_Ionization_Penalty>
3.27035e-05

> <r_epik_Ionization_Penalty_Charging>
2.24292e-11

> <r_epik_Ionization_Penalty_Neutral>
3.27035e-05

> <r_epik_State_Penalty>
-0

> <r_epik_Charging_Adjusted_Penalty>
2.24292e-11

> <i_epik_Tot_Q>
0

> <i_epik_Tot_abs_Q>
0

> <r_epik_Metal_State_Penalty>
-0

> <b_epik_Metal_Only>
0

> <s_lp_Force_Field>
OPLS_2005

> <r_lp_Energy>
25.082

> <b_lp_Chiralities_Consistent>
1

> <s_lp_Variant>
AV-unprocessed.smi:2984-1

> <Gold.Version>
5.8.1

> <Gold.Id.Protein>
6NUR|6NUR_protein|mol2

> <Gold.PLP.Fitness>
44.6021

> <Gold.PLP.PLP>
-37.4120

> <Gold.PLP.part.hbond>
-2.4903

> <Gold.PLP.part.metal>
0.0000

> <Gold.PLP.part.buried>
-2.6907

> <Gold.PLP.part.nonpolar>
-33.3760

> <Gold.PLP.part.repulsive>
0.2590

> <Gold.PLP.ligand.clash>
0.0000

> <Gold.PLP.ligand.torsion>
0.2148

> <Gold.PLP.Chemscore.Hbond>
1.5357

> <Gold.PLP.Chemscore.CHOScore>
1.0000

> <Gold.PLP.Chemscore.Metal>
0.0000

> <Gold.Chemscore.Hbonds>
donor molecule, donor type, donor heavy atom, donor atom, acceptor molecule, acceptor atom, score
      P1  H  6896  6908       L1    12  0.83
      P1  H  6896  6909       L1     1  0.77
      L1  C     6    25       P1  7948  1.00

> <Gold.PLP.Chemscore.Internal.Correction>
0.0126

> <Gold.Rescore>
     Score         DG    S(hbond)    S(metal)    S(lipo)     H(rot)  DE(clash)    DE(int)     intcor
     15.92     -17.66       1.49        0.00      97.20       1.63       0.11       1.63       ----

> <Gold.Chemscore.Fitness>
15.9241

> <Gold.Chemscore.DG>
-17.6617

> <Gold.Chemscore.ZeroCoef>
-5.4800

> <Gold.Chemscore.Hbond>
1.4903

> <Gold.Chemscore.Metal>
0.0000

> <Gold.Chemscore.Lipo>
97.2006

> <Gold.Chemscore.Internal_Hbond>
0.0000

> <Gold.Chemscore.DEClash>
0.1124

> <Gold.Chemscore.DEInternal>
1.6251

> <Gold.Chemscore.Rot>
1.6283

> <Gold.Chemscore.Internal.Correction>
   9.000000E+99

> <Gold.Chemscore.Hbonds>
donor molecule, donor type, donor heavy atom, donor atom, acceptor molecule, acceptor atom, score
      P1  H  6896  6908       L1    12  0.74
      P1  H  6896  6909       L1     1  0.62

> <Gold.Chemscore.Hbond.Weighted>
-4.9776

> <Gold.Chemscore.Metal.Weighted>
-0.0000

> <Gold.Chemscore.Lipo.Weighted>
-11.3725

> <Gold.Chemscore.Internal_Hbond.Weighted>
0.0000

> <Gold.Chemscore.DEClash.Weighted>
0.1124

> <Gold.Chemscore.DEInternal.Weighted>
1.6251

> <Gold.Chemscore.Rot.Weighted>
4.1684

> <Gold.Chemscore.Internal.Correction.Weighted>
   9.000000E+99

> <Gold.Protein.RotatedTorsions>
[ 6907 6896 6895 6894 ] final   54.66 input  -60.11 | X-H torsion
[ 7974 7965 7964 7962 ] final  113.68 input  175.53 | X-H torsion
[ 8008 7997 7996 7995 ] final -120.37 input   59.86 | X-H torsion
[ 10167 10162 10161 10158 ] final   27.53 input  -65.29 | X-H torsion
[ 10718 10713 10712 10709 ] final   95.57 input   66.30 | X-H torsion
[ 10763 10752 10751 10750 ] final   46.84 input  -60.55 | X-H torsion
[ 11005 11000 10999 10996 ] final  -33.52 input  -57.11 | X-H torsion

> <Gold.Protein.ActiveResidues>
 VAL166  LYS551  ARG553  GLY616  TRP617  ASP618  TYR619  PRO620  LYS621  CYS622 
 ASP623  PHE694  ASN695  SER759  ASP760  ASP761  ALA762  ILE779  LEU786  VAL792 
 PHE793  MET794  SER795  GLU796  ALA797  LYS798  CYS799  TRP800  GLU811  SER814 

> <Gold.Protein.RotatedAtoms>
  152.3461  134.7068  160.0249 H   0  0  0  0  0  0  0  0  0  0  0  0  # atno 6907 bound_to 6896
  151.7438  133.3318  159.3381 H   0  0  0  0  0  0  0  0  0  0  0  0  # atno 6908 bound_to 6896
  150.7510  134.6187  159.6169 H   0  0  0  0  0  0  0  0  0  0  0  0  # atno 6909 bound_to 6896
  145.2139  139.2893  143.4254 H   0  0  0  0  0  0  0  0  0  0  0  0  # atno 7974 bound_to 7965
  155.1307  140.0400  157.2774 H   0  0  0  0  0  0  0  0  0  0  0  0  # atno 8008 bound_to 7997
  154.6545  140.2577  155.7151 H   0  0  0  0  0  0  0  0  0  0  0  0  # atno 8009 bound_to 7997
  156.2592  140.2829  156.0992 H   0  0  0  0  0  0  0  0  0  0  0  0  # atno 8010 bound_to 7997
  140.4930  144.0436  150.6304 H   0  0  0  0  0  0  0  0  0  0  0  0  # atno 10167 bound_to 10162
  157.6937  131.0550  150.4359 H   0  0  0  0  0  0  0  0  0  0  0  0  # atno 10718 bound_to 10713
  152.9806  135.5995  154.3666 H   0  0  0  0  0  0  0  0  0  0  0  0  # atno 10763 bound_to 10752
  154.3343  135.2768  155.2457 H   0  0  0  0  0  0  0  0  0  0  0  0  # atno 10764 bound_to 10752
  154.4567  135.5976  153.6283 H   0  0  0  0  0  0  0  0  0  0  0  0  # atno 10765 bound_to 10752
  140.9642  133.7147  156.1418 H   0  0  0  0  0  0  0  0  0  0  0  0  # atno 11005 bound_to 11000
  146.3391  140.2423  142.8596 LP  0  0  0  0  0  0  0  0  0  0  0  0  # atno 17320 bound_to 7965
  144.9829  140.8476  143.5386 LP  0  0  0  0  0  0  0  0  0  0  0  0  # atno 17321 bound_to 7965
  140.3711  143.2854  152.0277 LP  0  0  0  0  0  0  0  0  0  0  0  0  # atno 17342 bound_to 10162
  139.4855  144.6229  151.7220 LP  0  0  0  0  0  0  0  0  0  0  0  0  # atno 17343 bound_to 10162
  156.4721  130.4055  149.6511 LP  0  0  0  0  0  0  0  0  0  0  0  0  # atno 17370 bound_to 10713
  156.3588  130.7470  151.2440 LP  0  0  0  0  0  0  0  0  0  0  0  0  # atno 17371 bound_to 10713
  140.7424  134.4136  157.5553 LP  0  0  0  0  0  0  0  0  0  0  0  0  # atno 17394 bound_to 11000
  139.8888  134.8845  156.2452 LP  0  0  0  0  0  0  0  0  0  0  0  0  # atno 17395 bound_to 11000

$$$$
