AV-unprocessed.smi:3029|AV-procd|sdf|11529|dock6
  -GOLD-   2272016473D 1   1.00000     0.00000
 Structure written by MMmdl.
 41 42  0  0  0  0  0  0  0  0  3 V2000
  150.8105  132.1556  156.2153 O   0  0  0  0  0  0  0  0  0  0  0  0
  150.0112  132.2905  155.2888 C   0  0  0  0  0  0  0  0  0  0  0  0
  149.2997  131.1493  154.7036 C   0  0  0  0  0  0  0  0  0  0  0  0
  148.4146  131.3056  153.6996 C   0  0  0  0  0  0  0  0  0  0  0  0
  148.1343  132.6241  153.1648 C   0  0  0  0  0  0  0  0  0  0  0  0
  147.1747  132.8048  152.0978 N   0  3  0  0  0  0  0  0  0  0  0  0
  146.5602  131.8288  151.6779 O   0  0  0  0  0  0  0  0  0  0  0  0
  147.0044  133.9320  151.6445 O   0  5  0  0  0  0  0  0  0  0  0  0
  148.7945  133.6703  153.6994 C   0  0  0  0  0  0  0  0  0  0  0  0
  149.7290  133.5112  154.7408 N   0  0  0  0  0  0  0  0  0  0  0  0
  150.3842  134.7268  155.2398 C   0  0  0  0  0  0  0  0  0  0  0  0
  149.3671  135.8583  155.4527 C   0  0  0  0  0  0  0  0  0  0  0  0
  149.5840  136.8987  154.4601 N   0  0  0  0  0  0  0  0  0  0  0  0
  149.0693  138.1831  154.9201 C   0  0  2  0  0  0  0  0  0  0  0  0
  147.7748  138.4437  154.1224 C   0  0  0  0  0  0  0  0  0  0  0  0
  147.1743  139.8178  154.4415 C   0  0  0  0  0  0  0  0  0  0  0  0
  148.1986  140.9265  154.1778 C   0  0  0  0  0  0  0  0  0  0  0  0
  149.4804  140.6891  154.9886 C   0  0  0  0  0  0  0  0  0  0  0  0
  150.1208  139.3098  154.7009 C   0  0  1  0  0  0  0  0  0  0  0  0
  151.4058  139.1320  155.5502 C   0  0  0  0  0  0  0  0  0  0  0  0
  152.1579  138.1449  155.0620 F   0  0  0  0  0  0  0  0  0  0  0  0
  152.1301  140.2504  155.5804 F   0  0  0  0  0  0  0  0  0  0  0  0
  151.0810  138.8366  156.8091 F   0  0  0  0  0  0  0  0  0  0  0  0
  149.4924  130.1583  155.0877 H   0  0  0  0  0  0  0  0  0  0  0  0
  147.9162  130.4344  153.3004 H   0  0  0  0  0  0  0  0  0  0  0  0
  148.6530  134.6918  153.3766 H   0  0  0  0  0  0  0  0  0  0  0  0
  150.9138  134.5177  156.1714 H   0  0  0  0  0  0  0  0  0  0  0  0
  151.1576  135.0513  154.5412 H   0  0  0  0  0  0  0  0  0  0  0  0
  148.3496  135.4752  155.3648 H   0  0  0  0  0  0  0  0  0  0  0  0
  149.4748  136.2775  156.4539 H   0  0  0  0  0  0  0  0  0  0  0  0
  149.1309  136.6397  153.5953 H   0  0  0  0  0  0  0  0  0  0  0  0
  148.8132  138.1407  155.9804 H   0  0  0  0  0  0  0  0  0  0  0  0
  147.9777  138.3857  153.0516 H   0  0  0  0  0  0  0  0  0  0  0  0
  147.0389  137.6680  154.3390 H   0  0  0  0  0  0  0  0  0  0  0  0
  146.2817  139.9836  153.8376 H   0  0  0  0  0  0  0  0  0  0  0  0
  146.8555  139.8487  155.4841 H   0  0  0  0  0  0  0  0  0  0  0  0
  148.4367  140.9644  153.1140 H   0  0  0  0  0  0  0  0  0  0  0  0
  147.7710  141.8961  154.4343 H   0  0  0  0  0  0  0  0  0  0  0  0
  150.1896  141.4866  154.7657 H   0  0  0  0  0  0  0  0  0  0  0  0
  149.2522  140.7724  156.0518 H   0  0  0  0  0  0  0  0  0  0  0  0
  150.4144  139.3016  153.6497 H   0  0  0  0  0  0  0  0  0  0  0  0
  1  2  2  0  0  0  0
  2 10  1  0  0  0  0
  2  3  1  0  0  0  0
  3  4  2  0  0  0  0
  3 24  1  0  0  0  0
  4  5  1  0  0  0  0
  4 25  1  0  0  0  0
  5  6  1  0  0  0  0
  5  9  2  0  0  0  0
  6  7  2  0  0  0  0
  6  8  1  0  0  0  0
  9 10  1  0  0  0  0
  9 26  1  0  0  0  0
 10 11  1  0  0  0  0
 11 12  1  0  0  0  0
 11 27  1  0  0  0  0
 11 28  1  0  0  0  0
 12 13  1  0  0  0  0
 12 29  1  0  0  0  0
 12 30  1  0  0  0  0
 13 14  1  0  0  0  0
 13 31  1  0  0  0  0
 14 19  1  0  0  0  0
 14 15  1  0  0  0  0
 14 32  1  0  0  0  0
 15 16  1  0  0  0  0
 15 33  1  0  0  0  0
 15 34  1  0  0  0  0
 16 17  1  0  0  0  0
 16 35  1  0  0  0  0
 16 36  1  0  0  0  0
 17 18  1  0  0  0  0
 17 37  1  0  0  0  0
 17 38  1  0  0  0  0
 18 19  1  0  0  0  0
 18 39  1  0  0  0  0
 18 40  1  0  0  0  0
 19 20  1  0  0  0  0
 19 41  1  0  0  0  0
 20 21  1  0  0  0  0
 20 22  1  0  0  0  0
 20 23  1  0  0  0  0
M  CHG  1   6   1
M  CHG  1   8  -1
M  END
> <s_m_source_file>
AV-unprocessed.smi

> <i_m_source_file_index>
3029

> <i_lp_mmshare_version>
43012

> <i_f3d_flags>
0

> <s_epik_input>
Tz1jMVtjSF1bY0hdYyhbTitdKD1PKVtPLV0pW2NIXW4xW0NIMl1bQ0gyXVtOSF1bQ0BASF0yW0NIMl1bQ0gyXVtDSDJdW0NIMl1bQ0BIXTJDKEYpKEYpRg==

> <s_epik_cmdline>
J2VwaWtfcHl0aG9uJywgJy1waCcsICc3LjAnLCAnLXRuJywgJzgnLCAnLW1hJywgJzIwMCcsICctbWV0YWxfYmluZGluZycsICctaW1hZScsICc8aW5maWxlLm1hZT4nLCAnLW9tYWUnLCAnPG91dGZpbGUubWFlPic=

> <r_lp_tautomer_probability>
1

> <r_epik_Ionization_Penalty>
1.65565

> <r_epik_Ionization_Penalty_Charging>
3.32684e-10

> <r_epik_Ionization_Penalty_Neutral>
1.65565

> <r_epik_State_Penalty>
1.75811

> <r_epik_Charging_Adjusted_Penalty>
1.75811

> <i_epik_Tot_Q>
0

> <i_epik_Tot_abs_Q>
2

> <r_epik_Metal_State_Penalty>
1.75811

> <b_epik_Metal_Only>
0

> <s_lp_Force_Field>
OPLS_2005

> <r_lp_Energy>
33.0444

> <b_lp_Chiralities_Consistent>
1

> <s_lp_Variant>
AV-unprocessed.smi:3029-5

> <Gold.Version>
5.8.1

> <Gold.Id.Protein>
6NUR|6NUR_protein|mol2

> <Gold.PLP.Fitness>
40.4114

> <Gold.PLP.PLP>
-37.7206

> <Gold.PLP.part.hbond>
-1.0000

> <Gold.PLP.part.metal>
0.0000

> <Gold.PLP.part.buried>
-1.8518

> <Gold.PLP.part.nonpolar>
-35.8523

> <Gold.PLP.part.repulsive>
0.3142

> <Gold.PLP.ligand.clash>
0.0000

> <Gold.PLP.ligand.torsion>
1.6754

> <Gold.PLP.Chemscore.Hbond>
1.0000

> <Gold.PLP.Chemscore.CHOScore>
1.0000

> <Gold.PLP.Chemscore.Metal>
0.0000

> <Gold.Chemscore.Hbonds>
donor molecule, donor type, donor heavy atom, donor atom, acceptor molecule, acceptor atom, score
      L1  H    13    31       P1  7948  1.00
      L1  C     9    26       P1  7948  1.00

> <Gold.PLP.Chemscore.Internal.Correction>
0.0417

> <Gold.Rescore>
     Score         DG    S(hbond)    S(metal)    S(lipo)     H(rot)  DE(clash)    DE(int)     intcor
      8.14     -11.52       0.94        0.00      65.55       1.86       0.73       2.66       ----

> <Gold.Chemscore.Fitness>
8.1357

> <Gold.Chemscore.DG>
-11.5212

> <Gold.Chemscore.ZeroCoef>
-5.4800

> <Gold.Chemscore.Hbond>
0.9371

> <Gold.Chemscore.Metal>
0.0000

> <Gold.Chemscore.Lipo>
65.5468

> <Gold.Chemscore.Internal_Hbond>
0.0000

> <Gold.Chemscore.DEClash>
0.7295

> <Gold.Chemscore.DEInternal>
2.6560

> <Gold.Chemscore.Rot>
1.8584

> <Gold.Chemscore.Internal.Correction>
   9.000000E+99

> <Gold.Chemscore.Hbonds>
donor molecule, donor type, donor heavy atom, donor atom, acceptor molecule, acceptor atom, score
      L1  H    13    31       P1  7948  0.98

> <Gold.Chemscore.Hbond.Weighted>
-3.1298

> <Gold.Chemscore.Metal.Weighted>
-0.0000

> <Gold.Chemscore.Lipo.Weighted>
-7.6690

> <Gold.Chemscore.Internal_Hbond.Weighted>
0.0000

> <Gold.Chemscore.DEClash.Weighted>
0.7295

> <Gold.Chemscore.DEInternal.Weighted>
2.6560

> <Gold.Chemscore.Rot.Weighted>
4.7576

> <Gold.Chemscore.Internal.Correction.Weighted>
   9.000000E+99

> <Gold.Protein.RotatedTorsions>
[ 6907 6896 6895 6894 ] final   33.06 input  -60.11 | X-H torsion
[ 7974 7965 7964 7962 ] final -166.28 input  175.53 | X-H torsion
[ 8008 7997 7996 7995 ] final   17.51 input   59.86 | X-H torsion
[ 10167 10162 10161 10158 ] final  -55.37 input  -65.29 | X-H torsion
[ 10718 10713 10712 10709 ] final  117.13 input   66.30 | X-H torsion
[ 10763 10752 10751 10750 ] final   20.02 input  -60.55 | X-H torsion
[ 11005 11000 10999 10996 ] final -133.46 input  -57.11 | X-H torsion

> <Gold.Protein.ActiveResidues>
 VAL166  LYS551  ARG553  GLY616  TRP617  ASP618  TYR619  PRO620  LYS621  CYS622 
 ASP623  PHE694  ASN695  SER759  ASP760  ASP761  ALA762  ILE779  LEU786  VAL792 
 PHE793  MET794  SER795  GLU796  ALA797  LYS798  CYS799  TRP800  GLU811  SER814 

> <Gold.Protein.RotatedAtoms>
  152.0832  134.9457  160.0572 H   0  0  0  0  0  0  0  0  0  0  0  0  # atno 6907 bound_to 6896
  152.0738  133.4114  159.4479 H   0  0  0  0  0  0  0  0  0  0  0  0  # atno 6908 bound_to 6896
  150.6836  134.2981  159.4738 H   0  0  0  0  0  0  0  0  0  0  0  0  # atno 6909 bound_to 6896
  144.7249  140.2689  143.6253 H   0  0  0  0  0  0  0  0  0  0  0  0  # atno 7974 bound_to 7965
  154.8924  140.2989  155.5363 H   0  0  0  0  0  0  0  0  0  0  0  0  # atno 8008 bound_to 7997
  156.3020  140.2422  156.3876 H   0  0  0  0  0  0  0  0  0  0  0  0  # atno 8009 bound_to 7997
  154.8605  140.0405  157.1651 H   0  0  0  0  0  0  0  0  0  0  0  0  # atno 8010 bound_to 7997
  140.6378  143.2491  151.5071 H   0  0  0  0  0  0  0  0  0  0  0  0  # atno 10167 bound_to 10162
  157.6116  131.1033  150.7571 H   0  0  0  0  0  0  0  0  0  0  0  0  # atno 10718 bound_to 10713
  153.1113  135.6697  153.9496 H   0  0  0  0  0  0  0  0  0  0  0  0  # atno 10763 bound_to 10752
  153.9038  135.3033  155.3450 H   0  0  0  0  0  0  0  0  0  0  0  0  # atno 10764 bound_to 10752
  154.7532  135.5024  153.9404 H   0  0  0  0  0  0  0  0  0  0  0  0  # atno 10765 bound_to 10752
  140.9079  134.1606  157.4412 H   0  0  0  0  0  0  0  0  0  0  0  0  # atno 11005 bound_to 11000
  145.8062  139.1984  143.2019 LP  0  0  0  0  0  0  0  0  0  0  0  0  # atno 17320 bound_to 7965
  146.0635  140.7946  142.9723 LP  0  0  0  0  0  0  0  0  0  0  0  0  # atno 17321 bound_to 7965
  139.5588  144.2208  152.1657 LP  0  0  0  0  0  0  0  0  0  0  0  0  # atno 17342 bound_to 10162
  140.1470  144.5150  150.6710 LP  0  0  0  0  0  0  0  0  0  0  0  0  # atno 17343 bound_to 10162
  156.7947  130.4901  149.5379 LP  0  0  0  0  0  0  0  0  0  0  0  0  # atno 17370 bound_to 10713
  156.1222  130.6118  151.0210 LP  0  0  0  0  0  0  0  0  0  0  0  0  # atno 17371 bound_to 10713
  139.8752  134.9924  156.5594 LP  0  0  0  0  0  0  0  0  0  0  0  0  # atno 17394 bound_to 11000
  140.8148  133.8400  155.8842 LP  0  0  0  0  0  0  0  0  0  0  0  0  # atno 17395 bound_to 11000

$$$$
