AV-unprocessed.smi:759|AV-procd|sdf|3622|dock3
  -GOLD-   22720 1 13D 1   1.00000     0.00000
 Structure written by MMmdl.
 24 25  0  0  0  0  0  0  0  0  2 V2000
  152.0488  137.9063  155.3071 C   0  0  0  0  0  0  0  0  0  0  0  0
  151.4847  137.0372  154.4709 N   0  0  0  0  0  0  0  0  0  0  0  0
  150.5066  137.7782  153.9097 N   0  0  0  0  0  0  0  0  0  0  0  0
  150.5381  139.0112  154.4199 C   0  0  0  0  0  0  0  0  0  0  0  0
  149.5720  140.0767  154.0002 C   0  0  1  0  0  0  0  0  0  0  0  0
  148.1149  139.5765  154.0206 C   0  0  0  0  0  0  0  0  0  0  0  0
  147.1543  140.6982  153.5964 C   0  0  0  0  0  0  0  0  0  0  0  0
  147.3608  141.9550  154.4582 C   0  0  0  0  0  0  0  0  0  0  0  0
  148.7700  142.4010  154.4024 N   0  3  0  0  0  0  0  0  0  0  0  0
  149.7245  141.3598  154.8433 C   0  0  0  0  0  0  0  0  0  0  0  0
  151.5025  139.1592  155.3232 N   0  0  0  0  0  0  0  0  0  0  0  0
  152.8869  137.6282  155.9293 H   0  0  0  0  0  0  0  0  0  0  0  0
  149.8114  140.3371  152.9674 H   0  0  0  0  0  0  0  0  0  0  0  0
  148.0005  138.7186  153.3569 H   0  0  0  0  0  0  0  0  0  0  0  0
  147.8518  139.2328  155.0222 H   0  0  0  0  0  0  0  0  0  0  0  0
  147.3174  140.9428  152.5460 H   0  0  0  0  0  0  0  0  0  0  0  0
  146.1223  140.3553  153.6772 H   0  0  0  0  0  0  0  0  0  0  0  0
  146.7178  142.7633  154.1089 H   0  0  0  0  0  0  0  0  0  0  0  0
  147.0871  141.7548  155.4951 H   0  0  0  0  0  0  0  0  0  0  0  0
  148.9888  142.6548  153.4496 H   0  0  0  0  0  0  0  0  0  0  0  0
  149.5543  141.1484  155.9002 H   0  0  0  0  0  0  0  0  0  0  0  0
  150.7377  141.7533  154.7568 H   0  0  0  0  0  0  0  0  0  0  0  0
  148.8797  143.2155  154.9896 H   0  0  0  0  0  0  0  0  0  0  0  0
  149.8704  137.4141  153.2148 H   0  0  0  0  0  0  0  0  0  0  0  0
  1 11  1  0  0  0  0
  1 12  1  0  0  0  0
  1  2  2  0  0  0  0
  2  3  1  0  0  0  0
  3  4  1  0  0  0  0
  3 24  1  0  0  0  0
  4 11  2  0  0  0  0
  4  5  1  0  0  0  0
  5 10  1  0  0  0  0
  5  6  1  0  0  0  0
  5 13  1  0  0  0  0
  6  7  1  0  0  0  0
  6 14  1  0  0  0  0
  6 15  1  0  0  0  0
  7  8  1  0  0  0  0
  7 16  1  0  0  0  0
  7 17  1  0  0  0  0
  8  9  1  0  0  0  0
  8 18  1  0  0  0  0
  8 19  1  0  0  0  0
  9 10  1  0  0  0  0
  9 20  1  0  0  0  0
  9 23  1  0  0  0  0
 10 21  1  0  0  0  0
 10 22  1  0  0  0  0
M  CHG  1   9   1
M  END
> <s_m_source_file>
AV-unprocessed.smi

> <i_m_source_file_index>
759

> <i_lp_mmshare_version>
43012

> <i_f3d_flags>
0

> <s_epik_input>
W25IXTFbY0hdbm5jMVtDQEBIXTJbQ0gyXVtDSDJdW0NIMl1bTkhdW0NIMl0y

> <s_epik_cmdline>
J2VwaWtfcHl0aG9uJywgJy1waCcsICc3LjAnLCAnLXRuJywgJzgnLCAnLW1hJywgJzIwMCcsICctbWV0YWxfYmluZGluZycsICctaW1hZScsICc8aW5maWxlLm1hZT4nLCAnLW9tYWUnLCAnPG91dGZpbGUubWFlPic=

> <r_epik_Ionization_Penalty>
0.00885924

> <r_epik_Ionization_Penalty_Charging>
0.000426856

> <r_epik_Ionization_Penalty_Neutral>
0.00843239

> <r_epik_State_Penalty>
0.640618

> <r_epik_Charging_Adjusted_Penalty>
0.641045

> <i_epik_Tot_Q>
1

> <i_epik_Tot_abs_Q>
1

> <r_epik_Metal_State_Penalty>
0.906339

> <b_epik_Metal_Only>
0

> <s_lp_Force_Field>
OPLS_2005

> <r_lp_Energy>
13.0828

> <b_lp_Chiralities_Consistent>
1

> <s_lp_Variant>
AV-unprocessed.smi:759-4

> <Gold.Version>
5.8.1

> <Gold.Id.Protein>
6NUR|6NUR_protein|mol2

> <Gold.PLP.Fitness>
32.7327

> <Gold.PLP.PLP>
-20.9984

> <Gold.PLP.part.hbond>
-3.9491

> <Gold.PLP.part.metal>
0.0000

> <Gold.PLP.part.buried>
-1.1510

> <Gold.PLP.part.nonpolar>
-17.3484

> <Gold.PLP.part.repulsive>
0.9487

> <Gold.PLP.ligand.clash>
0.0000

> <Gold.PLP.ligand.torsion>
0.1474

> <Gold.PLP.Chemscore.Hbond>
4.0000

> <Gold.PLP.Chemscore.CHOScore>
0.0000

> <Gold.PLP.Chemscore.Metal>
0.0000

> <Gold.Chemscore.Hbonds>
donor molecule, donor type, donor heavy atom, donor atom, acceptor molecule, acceptor atom, score
      L1  H     3    24       P1  7948  1.00
      L1  H     9    23       P1  8028  2.00
      P1  H 10752 10763       L1     2  1.00

> <Gold.PLP.Chemscore.Internal.Correction>
0.0290

> <Gold.Rescore>
     Score         DG    S(hbond)    S(metal)    S(lipo)     H(rot)  DE(clash)    DE(int)     intcor
     13.09     -13.26       1.99        0.00      31.51       1.00       0.00       0.17       ----

> <Gold.Chemscore.Fitness>
13.0898

> <Gold.Chemscore.DG>
-13.2552

> <Gold.Chemscore.ZeroCoef>
-5.4800

> <Gold.Chemscore.Hbond>
1.9907

> <Gold.Chemscore.Metal>
0.0000

> <Gold.Chemscore.Lipo>
31.5064

> <Gold.Chemscore.Internal_Hbond>
0.0000

> <Gold.Chemscore.DEClash>
0.0000

> <Gold.Chemscore.DEInternal>
0.1654

> <Gold.Chemscore.Rot>
1.0000

> <Gold.Chemscore.Internal.Correction>
   9.000000E+99

> <Gold.Chemscore.Hbonds>
donor molecule, donor type, donor heavy atom, donor atom, acceptor molecule, acceptor atom, score
      L1  H     3    24       P1  7948  0.44
      L1  H     9    23       P1  8028  0.99
      P1  H 10752 10763       L1     2  0.24

> <Gold.Chemscore.Hbond.Weighted>
-6.6489

> <Gold.Chemscore.Metal.Weighted>
-0.0000

> <Gold.Chemscore.Lipo.Weighted>
-3.6862

> <Gold.Chemscore.Internal_Hbond.Weighted>
0.0000

> <Gold.Chemscore.DEClash.Weighted>
0.0000

> <Gold.Chemscore.DEInternal.Weighted>
0.1654

> <Gold.Chemscore.Rot.Weighted>
2.5600

> <Gold.Chemscore.Internal.Correction.Weighted>
   9.000000E+99

> <Gold.Protein.RotatedTorsions>
[ 6907 6896 6895 6894 ] final -136.65 input  -60.11 | X-H torsion
[ 7974 7965 7964 7962 ] final   57.27 input  175.53 | X-H torsion
[ 8008 7997 7996 7995 ] final   61.01 input   59.86 | X-H torsion
[ 10167 10162 10161 10158 ] final   15.75 input  -65.29 | X-H torsion
[ 10718 10713 10712 10709 ] final -147.29 input   66.30 | X-H torsion
[ 10763 10752 10751 10750 ] final   49.05 input  -60.55 | X-H torsion
[ 11005 11000 10999 10996 ] final  -40.00 input  -57.11 | X-H torsion

> <Gold.Protein.ActiveResidues>
 VAL166  LYS551  ARG553  GLY616  TRP617  ASP618  TYR619  PRO620  LYS621  CYS622 
 ASP623  PHE694  ASN695  SER759  ASP760  ASP761  ALA762  ILE779  LEU786  VAL792 
 PHE793  MET794  SER795  GLU796  ALA797  LYS798  CYS799  TRP800  GLU811  SER814 

> <Gold.Protein.RotatedAtoms>
  151.0127  133.5950  159.2680 H   0  0  0  0  0  0  0  0  0  0  0  0  # atno 6907 bound_to 6896
  151.3095  135.0789  159.9277 H   0  0  0  0  0  0  0  0  0  0  0  0  # atno 6908 bound_to 6896
  152.5303  133.9794  159.7854 H   0  0  0  0  0  0  0  0  0  0  0  0  # atno 6909 bound_to 6896
  145.9308  139.3806  143.0422 H   0  0  0  0  0  0  0  0  0  0  0  0  # atno 7974 bound_to 7965
  155.5915  140.3493  155.4568 H   0  0  0  0  0  0  0  0  0  0  0  0  # atno 8008 bound_to 7997
  156.0298  140.1272  157.0295 H   0  0  0  0  0  0  0  0  0  0  0  0  # atno 8009 bound_to 7997
  154.4347  140.1045  156.6069 H   0  0  0  0  0  0  0  0  0  0  0  0  # atno 8010 bound_to 7997
  140.5845  143.8916  150.6818 H   0  0  0  0  0  0  0  0  0  0  0  0  # atno 10167 bound_to 10162
  156.4056  130.7956  151.2170 H   0  0  0  0  0  0  0  0  0  0  0  0  # atno 10718 bound_to 10713
  152.9788  135.5924  154.4025 H   0  0  0  0  0  0  0  0  0  0  0  0  # atno 10763 bound_to 10752
  154.3669  135.2767  155.2290 H   0  0  0  0  0  0  0  0  0  0  0  0  # atno 10764 bound_to 10752
  154.4263  135.6047  153.6095 H   0  0  0  0  0  0  0  0  0  0  0  0  # atno 10765 bound_to 10752
  141.0143  133.6893  156.2262 H   0  0  0  0  0  0  0  0  0  0  0  0  # atno 11005 bound_to 11000
  145.8428  140.9571  143.0790 LP  0  0  0  0  0  0  0  0  0  0  0  0  # atno 17320 bound_to 7965
  144.6764  140.0307  143.7482 LP  0  0  0  0  0  0  0  0  0  0  0  0  # atno 17321 bound_to 7965
  140.2424  143.3654  152.1476 LP  0  0  0  0  0  0  0  0  0  0  0  0  # atno 17342 bound_to 10162
  139.5189  144.7013  151.5486 LP  0  0  0  0  0  0  0  0  0  0  0  0  # atno 17343 bound_to 10162
  157.7505  131.0273  150.4000 LP  0  0  0  0  0  0  0  0  0  0  0  0  # atno 17370 bound_to 10713
  156.4289  130.3968  149.6774 LP  0  0  0  0  0  0  0  0  0  0  0  0  # atno 17371 bound_to 10713
  140.6682  134.4896  157.5586 LP  0  0  0  0  0  0  0  0  0  0  0  0  # atno 17394 bound_to 11000
  139.9107  134.8350  156.1537 LP  0  0  0  0  0  0  0  0  0  0  0  0  # atno 17395 bound_to 11000

$$$$
