AV-unprocessed.smi:1285|AV-procd|sdf|5374|dock6
  -GOLD-   22720 4523D 1   1.00000     0.00000
 Structure written by MMmdl.
 47 48  0  0  0  0  0  0  0  0  2 V2000
  147.1540  140.8378  153.0488 C   0  0  0  0  0  0  0  0  0  0  0  0
  147.1352  139.4289  152.4301 C   0  0  0  0  0  0  0  0  0  0  0  0
  146.9109  138.2531  153.4313 C   0  0  2  0  0  0  0  0  0  0  0  0
  145.7550  138.6727  154.3784 C   0  0  0  0  0  0  0  0  0  0  0  0
  148.2003  138.0273  154.2824 C   0  0  0  0  0  0  0  0  0  0  0  0
  148.5322  139.1693  155.1321 N   0  0  0  0  0  0  0  0  0  0  0  0
  149.6131  139.9563  155.0053 C   0  0  0  0  0  0  0  0  0  0  0  0
  150.5106  139.7409  154.1900 O   0  0  0  0  0  0  0  0  0  0  0  0
  149.6578  141.1896  155.9219 C   0  0  1  0  0  0  0  0  0  0  0  0
  148.3075  141.4857  156.6055 C   0  0  0  0  0  0  0  0  0  0  0  0
  150.7390  141.0497  156.8906 N   0  0  0  0  0  0  0  0  0  0  0  0
  151.5944  140.0432  157.0829 C   0  0  0  0  0  0  0  0  0  0  0  0
  152.4214  140.2263  158.1024 N   0  0  0  0  0  0  0  0  0  0  0  0
  151.9907  141.4507  158.5285 C   0  0  0  0  0  0  0  0  0  0  0  0
  150.9781  141.9835  157.8454 N   0  0  0  0  0  0  0  0  0  0  0  0
  146.5434  136.9988  152.6775 N   0  3  0  0  0  0  0  0  0  0  0  0
  146.1894  135.8166  153.5141 C   0  0  0  0  0  0  0  0  0  0  0  0
  146.0510  134.5610  152.6389 C   0  0  0  0  0  0  0  0  0  0  0  0
  145.0538  134.7819  151.6517 O   0  0  0  0  0  0  0  0  0  0  0  0
  145.4001  135.8532  150.7852 C   0  0  0  0  0  0  0  0  0  0  0  0
  145.5355  137.1572  151.5909 C   0  0  0  0  0  0  0  0  0  0  0  0
  147.3173  141.5880  152.2750 H   0  0  0  0  0  0  0  0  0  0  0  0
  147.9552  140.9496  153.7786 H   0  0  0  0  0  0  0  0  0  0  0  0
  146.2127  141.0813  153.5410 H   0  0  0  0  0  0  0  0  0  0  0  0
  146.3901  139.4004  151.6354 H   0  0  0  0  0  0  0  0  0  0  0  0
  148.0855  139.2943  151.9133 H   0  0  0  0  0  0  0  0  0  0  0  0
  145.8942  139.6843  154.7624 H   0  0  0  0  0  0  0  0  0  0  0  0
  145.6837  138.0236  155.2513 H   0  0  0  0  0  0  0  0  0  0  0  0
  144.7890  138.6529  153.8736 H   0  0  0  0  0  0  0  0  0  0  0  0
  148.0730  137.1749  154.9490 H   0  0  0  0  0  0  0  0  0  0  0  0
  149.0532  137.7834  153.6488 H   0  0  0  0  0  0  0  0  0  0  0  0
  147.8524  139.4192  155.8357 H   0  0  0  0  0  0  0  0  0  0  0  0
  149.8982  142.0481  155.2926 H   0  0  0  0  0  0  0  0  0  0  0  0
  147.5205  141.6500  155.8688 H   0  0  0  0  0  0  0  0  0  0  0  0
  148.3728  142.3858  157.2176 H   0  0  0  0  0  0  0  0  0  0  0  0
  147.9888  140.6687  157.2541 H   0  0  0  0  0  0  0  0  0  0  0  0
  151.6052  139.1531  156.4711 H   0  0  0  0  0  0  0  0  0  0  0  0
  152.4309  141.9605  159.3728 H   0  0  0  0  0  0  0  0  0  0  0  0
  146.9452  135.6181  154.2711 H   0  0  0  0  0  0  0  0  0  0  0  0
  145.2485  135.9888  154.0367 H   0  0  0  0  0  0  0  0  0  0  0  0
  147.0016  134.3046  152.1683 H   0  0  0  0  0  0  0  0  0  0  0  0
  145.7579  133.7076  153.2506 H   0  0  0  0  0  0  0  0  0  0  0  0
  146.3266  135.6238  150.2564 H   0  0  0  0  0  0  0  0  0  0  0  0
  144.6214  135.9590  150.0296 H   0  0  0  0  0  0  0  0  0  0  0  0
  144.5665  137.4275  152.0113 H   0  0  0  0  0  0  0  0  0  0  0  0
  145.8153  137.9450  150.8940 H   0  0  0  0  0  0  0  0  0  0  0  0
  147.3959  136.7376  152.2025 H   0  0  0  0  0  0  0  0  0  0  0  0
  1  2  1  0  0  0  0
  1 22  1  0  0  0  0
  1 23  1  0  0  0  0
  1 24  1  0  0  0  0
  2  3  1  0  0  0  0
  2 25  1  0  0  0  0
  2 26  1  0  0  0  0
  3  4  1  0  0  0  0
  3  5  1  0  0  0  0
  3 16  1  0  0  0  0
  4 27  1  0  0  0  0
  4 28  1  0  0  0  0
  4 29  1  0  0  0  0
  5  6  1  0  0  0  0
  5 30  1  0  0  0  0
  5 31  1  0  0  0  0
  6  7  1  0  0  0  0
  6 32  1  0  0  0  0
  7  8  2  0  0  0  0
  7  9  1  0  0  0  0
  9 10  1  0  0  0  0
  9 11  1  0  0  0  0
  9 33  1  0  0  0  0
 10 34  1  0  0  0  0
 10 35  1  0  0  0  0
 10 36  1  0  0  0  0
 11 15  1  0  0  0  0
 11 12  1  0  0  0  0
 12 13  2  0  0  0  0
 12 37  1  0  0  0  0
 13 14  1  0  0  0  0
 14 15  2  0  0  0  0
 14 38  1  0  0  0  0
 16 21  1  0  0  0  0
 16 17  1  0  0  0  0
 16 47  1  0  0  0  0
 17 18  1  0  0  0  0
 17 39  1  0  0  0  0
 17 40  1  0  0  0  0
 18 19  1  0  0  0  0
 18 41  1  0  0  0  0
 18 42  1  0  0  0  0
 19 20  1  0  0  0  0
 20 21  1  0  0  0  0
 20 43  1  0  0  0  0
 20 44  1  0  0  0  0
 21 45  1  0  0  0  0
 21 46  1  0  0  0  0
M  CHG  1  16   1
M  END
> <s_m_source_file>
AV-unprocessed.smi

> <i_m_source_file_index>
1285

> <i_lp_mmshare_version>
43012

> <i_f3d_flags>
0

> <s_epik_input>
W0NIMl0xW0NIMl1PW0NIMl1bQ0gyXU4xW0NAQF0oW0NIM10pKFtDSDJdW0NIM10pW0NIMl1bTkhdQyg9TylbQ0BIXShbQ0gzXSluMltjSF1uW2NIXW4y

> <s_epik_cmdline>
J2VwaWtfcHl0aG9uJywgJy1waCcsICc3LjAnLCAnLXRuJywgJzgnLCAnLW1hJywgJzIwMCcsICctbWV0YWxfYmluZGluZycsICctaW1hZScsICc8aW5maWxlLm1hZT4nLCAnLW9tYWUnLCAnPG91dGZpbGUubWFlPic=

> <r_lp_tautomer_probability>
1

> <r_epik_Ionization_Penalty>
0.569304

> <r_epik_Ionization_Penalty_Charging>
0.569295

> <r_epik_Ionization_Penalty_Neutral>
8.22697e-06

> <r_epik_State_Penalty>
0.581114

> <r_epik_Charging_Adjusted_Penalty>
1.15041

> <i_epik_Tot_Q>
1

> <i_epik_Tot_abs_Q>
1

> <r_epik_Metal_State_Penalty>
0.581117

> <b_epik_Metal_Only>
0

> <s_lp_Force_Field>
OPLS_2005

> <r_lp_Energy>
34.4039

> <b_lp_Chiralities_Consistent>
1

> <s_lp_Variant>
AV-unprocessed.smi:1285-8

> <Gold.Version>
5.8.1

> <Gold.Id.Protein>
6NUR|6NUR_protein|mol2

> <Gold.PLP.Fitness>
37.3009

> <Gold.PLP.PLP>
-26.3886

> <Gold.PLP.part.hbond>
-3.0000

> <Gold.PLP.part.metal>
0.0000

> <Gold.PLP.part.buried>
-1.7104

> <Gold.PLP.part.nonpolar>
-22.0908

> <Gold.PLP.part.repulsive>
0.2913

> <Gold.PLP.ligand.clash>
0.0000

> <Gold.PLP.ligand.torsion>
0.6315

> <Gold.PLP.Chemscore.Hbond>
3.9600

> <Gold.PLP.Chemscore.CHOScore>
0.0000

> <Gold.PLP.Chemscore.Metal>
0.0000

> <Gold.Chemscore.Hbonds>
donor molecule, donor type, donor heavy atom, donor atom, acceptor molecule, acceptor atom, score
      L1  H    16    47       P1  7948  2.00
      P1  H  7989  7998       L1     8  1.00
      P1  H  7997  8008       L1    13  0.05

> <Gold.PLP.Chemscore.Internal.Correction>
0.2954

> <Gold.Rescore>
     Score         DG    S(hbond)    S(metal)    S(lipo)     H(rot)  DE(clash)    DE(int)     intcor
     11.74     -12.93       2.64        0.00      48.75       2.76       0.24       0.95       ----

> <Gold.Chemscore.Fitness>
11.7416

> <Gold.Chemscore.DG>
-12.9292

> <Gold.Chemscore.ZeroCoef>
-5.4800

> <Gold.Chemscore.Hbond>
2.6373

> <Gold.Chemscore.Metal>
0.0000

> <Gold.Chemscore.Lipo>
48.7463

> <Gold.Chemscore.Internal_Hbond>
0.0000

> <Gold.Chemscore.DEClash>
0.2378

> <Gold.Chemscore.DEInternal>
0.9498

> <Gold.Chemscore.Rot>
2.7589

> <Gold.Chemscore.Internal.Correction>
   9.000000E+99

> <Gold.Chemscore.Hbonds>
donor molecule, donor type, donor heavy atom, donor atom, acceptor molecule, acceptor atom, score
      L1  H    16    47       P1  7948  1.00
      P1  H  7989  7998       L1     8  1.00
      P1  H  7997  8008       L1    13  0.03

> <Gold.Chemscore.Hbond.Weighted>
-8.8086

> <Gold.Chemscore.Metal.Weighted>
-0.0000

> <Gold.Chemscore.Lipo.Weighted>
-5.7033

> <Gold.Chemscore.Internal_Hbond.Weighted>
0.0000

> <Gold.Chemscore.DEClash.Weighted>
0.2378

> <Gold.Chemscore.DEInternal.Weighted>
0.9498

> <Gold.Chemscore.Rot.Weighted>
7.0627

> <Gold.Chemscore.Internal.Correction.Weighted>
   9.000000E+99

> <Gold.Protein.RotatedTorsions>
[ 6907 6896 6895 6894 ] final  126.88 input  -60.11 | X-H torsion
[ 7974 7965 7964 7962 ] final -167.45 input  175.53 | X-H torsion
[ 8008 7997 7996 7995 ] final  -83.29 input   59.86 | X-H torsion
[ 10167 10162 10161 10158 ] final  -43.73 input  -65.29 | X-H torsion
[ 10718 10713 10712 10709 ] final   12.28 input   66.30 | X-H torsion
[ 10763 10752 10751 10750 ] final   76.26 input  -60.55 | X-H torsion
[ 11005 11000 10999 10996 ] final   80.58 input  -57.11 | X-H torsion

> <Gold.Protein.ActiveResidues>
 VAL166  LYS551  ARG553  GLY616  TRP617  ASP618  TYR619  PRO620  LYS621  CYS622 
 ASP623  PHE694  ASN695  SER759  ASP760  ASP761  ALA762  ILE779  LEU786  VAL792 
 PHE793  MET794  SER795  GLU796  ALA797  LYS798  CYS799  TRP800  GLU811  SER814 

> <Gold.Protein.RotatedAtoms>
  152.3863  133.6616  159.6201 H   0  0  0  0  0  0  0  0  0  0  0  0  # atno 6907 bound_to 6896
  150.7782  133.9029  159.3355 H   0  0  0  0  0  0  0  0  0  0  0  0  # atno 6908 bound_to 6896
  151.6824  135.0961  160.0270 H   0  0  0  0  0  0  0  0  0  0  0  0  # atno 6909 bound_to 6896
  144.7223  140.2516  143.6277 H   0  0  0  0  0  0  0  0  0  0  0  0  # atno 7974 bound_to 7965
  154.6175  140.0621  156.9573 H   0  0  0  0  0  0  0  0  0  0  0  0  # atno 8008 bound_to 7997
  155.1871  140.3304  155.4346 H   0  0  0  0  0  0  0  0  0  0  0  0  # atno 8009 bound_to 7997
  156.2413  140.1887  156.6964 H   0  0  0  0  0  0  0  0  0  0  0  0  # atno 8010 bound_to 7997
  140.6923  143.2967  151.3394 H   0  0  0  0  0  0  0  0  0  0  0  0  # atno 10167 bound_to 10162
  157.0079  130.6105  149.5704 H   0  0  0  0  0  0  0  0  0  0  0  0  # atno 10718 bound_to 10713
  153.0713  135.4958  154.8310 H   0  0  0  0  0  0  0  0  0  0  0  0  # atno 10763 bound_to 10752
  154.7026  135.3004  154.9321 H   0  0  0  0  0  0  0  0  0  0  0  0  # atno 10764 bound_to 10752
  154.0040  135.6763  153.4814 H   0  0  0  0  0  0  0  0  0  0  0  0  # atno 10765 bound_to 10752
  139.9129  134.7931  156.1928 H   0  0  0  0  0  0  0  0  0  0  0  0  # atno 11005 bound_to 11000
  145.8222  139.2049  143.1931 LP  0  0  0  0  0  0  0  0  0  0  0  0  # atno 17320 bound_to 7965
  146.0504  140.8075  142.9784 LP  0  0  0  0  0  0  0  0  0  0  0  0  # atno 17321 bound_to 7965
  139.6339  144.0668  152.2499 LP  0  0  0  0  0  0  0  0  0  0  0  0  # atno 17342 bound_to 10162
  140.0151  144.6195  150.7614 LP  0  0  0  0  0  0  0  0  0  0  0  0  # atno 17343 bound_to 10162
  156.0147  130.5240  150.8097 LP  0  0  0  0  0  0  0  0  0  0  0  0  # atno 17370 bound_to 10713
  157.5342  131.0938  150.9914 LP  0  0  0  0  0  0  0  0  0  0  0  0  # atno 17371 bound_to 10713
  141.0573  133.6859  156.1885 LP  0  0  0  0  0  0  0  0  0  0  0  0  # atno 17394 bound_to 11000
  140.6716  134.4861  157.5587 LP  0  0  0  0  0  0  0  0  0  0  0  0  # atno 17395 bound_to 11000

$$$$
