AV-unprocessed.smi:3053|AV-procd|sdf|11637|dock8
  -GOLD-   2272017 33D 1   1.00000     0.00000
 Structure written by MMmdl.
 31 32  0  0  0  0  0  0  0  0  1 V2000
  152.6783  143.1005  161.9186 C   0  0  0  0  0  0  0  0  0  0  0  0
  152.2607  143.7213  160.6302 C   0  0  0  0  0  0  0  0  0  0  0  0
  152.1295  143.0377  159.4907 N   0  0  0  0  0  0  0  0  0  0  0  0
  151.7527  143.8500  158.4168 C   0  0  0  0  0  0  0  0  0  0  0  0
  151.6124  143.2597  157.0434 C   0  0  0  0  0  0  0  0  0  0  0  0
  150.7288  141.9964  157.0021 C   0  0  0  0  0  0  0  0  0  0  0  0
  149.6686  142.0930  156.0004 N   0  0  0  0  0  0  0  0  0  0  0  0
  149.4867  141.2451  154.9750 C   0  0  0  0  0  0  0  0  0  0  0  0
  150.1781  140.2414  154.7957 O   0  0  0  0  0  0  0  0  0  0  0  0
  148.3488  141.5879  154.0041 C   0  0  2  0  0  0  0  0  0  0  0  0
  146.9839  141.7432  154.6941 C   0  0  0  0  0  0  0  0  0  0  0  0
  146.2134  140.6509  154.1314 N   0  0  0  0  0  0  0  0  0  0  0  0
  146.8805  139.9537  153.2095 C   0  0  0  0  0  0  0  0  0  0  0  0
  146.4467  138.9953  152.5758 O   0  0  0  0  0  0  0  0  0  0  0  0
  148.1023  140.4800  153.0962 N   0  0  0  0  0  0  0  0  0  0  0  0
  151.5745  145.1650  158.7691 C   0  0  0  0  0  0  0  0  0  0  0  0
  151.9058  145.4358  160.4571 S   0  0  0  0  0  0  0  0  0  0  0  0
  152.4511  142.0340  161.9204 H   0  0  0  0  0  0  0  0  0  0  0  0
  152.1528  143.5706  162.7500 H   0  0  0  0  0  0  0  0  0  0  0  0
  153.7509  143.2314  162.0623 H   0  0  0  0  0  0  0  0  0  0  0  0
  151.2015  144.0037  156.3602 H   0  0  0  0  0  0  0  0  0  0  0  0
  152.5986  143.0134  156.6483 H   0  0  0  0  0  0  0  0  0  0  0  0
  151.3476  141.1159  156.8210 H   0  0  0  0  0  0  0  0  0  0  0  0
  150.2656  141.8430  157.9768 H   0  0  0  0  0  0  0  0  0  0  0  0
  149.0462  142.8849  156.0733 H   0  0  0  0  0  0  0  0  0  0  0  0
  148.5939  142.4775  153.4215 H   0  0  0  0  0  0  0  0  0  0  0  0
  147.0322  141.6523  155.7805 H   0  0  0  0  0  0  0  0  0  0  0  0
  146.5158  142.6971  154.4484 H   0  0  0  0  0  0  0  0  0  0  0  0
  145.2631  140.4542  154.4105 H   0  0  0  0  0  0  0  0  0  0  0  0
  148.8129  140.1226  152.4743 H   0  0  0  0  0  0  0  0  0  0  0  0
  151.2891  145.9914  158.1354 H   0  0  0  0  0  0  0  0  0  0  0  0
  1  2  1  0  0  0  0
  1 18  1  0  0  0  0
  1 19  1  0  0  0  0
  1 20  1  0  0  0  0
  2 17  1  0  0  0  0
  2  3  2  0  0  0  0
  3  4  1  0  0  0  0
  4  5  1  0  0  0  0
  4 16  2  0  0  0  0
  5  6  1  0  0  0  0
  5 21  1  0  0  0  0
  5 22  1  0  0  0  0
  6  7  1  0  0  0  0
  6 23  1  0  0  0  0
  6 24  1  0  0  0  0
  7  8  1  0  0  0  0
  7 25  1  0  0  0  0
  8  9  2  0  0  0  0
  8 10  1  0  0  0  0
 10 15  1  0  0  0  0
 10 11  1  0  0  0  0
 10 26  1  0  0  0  0
 11 12  1  0  0  0  0
 11 27  1  0  0  0  0
 11 28  1  0  0  0  0
 12 13  1  0  0  0  0
 12 29  1  0  0  0  0
 13 14  2  0  0  0  0
 13 15  1  0  0  0  0
 15 30  1  0  0  0  0
 16 17  1  0  0  0  0
 16 31  1  0  0  0  0
M  END
> <s_m_source_file>
AV-unprocessed.smi

> <i_m_source_file_index>
3053

> <i_lp_mmshare_version>
43012

> <i_f3d_flags>
0

> <s_epik_input>
W0NIM11jMW5jKFtjSF1zMSlbQ0gyXVtDSDJdW05IXUMoPU8pW0NAQEhdMltDSDJdW05IXUMoPU8pW05IXTI=

> <s_epik_cmdline>
J2VwaWtfcHl0aG9uJywgJy1waCcsICc3LjAnLCAnLXRuJywgJzgnLCAnLW1hJywgJzIwMCcsICctbWV0YWxfYmluZGluZycsICctaW1hZScsICc8aW5maWxlLm1hZT4nLCAnLW9tYWUnLCAnPG91dGZpbGUubWFlPic=

> <r_epik_Ionization_Penalty>
0.00110852

> <r_epik_Ionization_Penalty_Charging>
0

> <r_epik_Ionization_Penalty_Neutral>
0.00110852

> <r_epik_State_Penalty>
0.000695988

> <r_epik_Charging_Adjusted_Penalty>
0.000695988

> <i_epik_Tot_Q>
0

> <i_epik_Tot_abs_Q>
0

> <r_epik_Metal_State_Penalty>
-0

> <b_epik_Metal_Only>
0

> <s_lp_Force_Field>
OPLS_2005

> <r_lp_Energy>
23.9072

> <b_lp_Chiralities_Consistent>
1

> <s_lp_Variant>
AV-unprocessed.smi:3053-1

> <Gold.Version>
5.8.1

> <Gold.Id.Protein>
6NUR|6NUR_protein|mol2

> <Gold.PLP.Fitness>
47.6420

> <Gold.PLP.PLP>
-40.3548

> <Gold.PLP.part.hbond>
-3.7044

> <Gold.PLP.part.metal>
0.0000

> <Gold.PLP.part.buried>
-7.2035

> <Gold.PLP.part.nonpolar>
-31.3365

> <Gold.PLP.part.repulsive>
0.6312

> <Gold.PLP.ligand.clash>
0.0000

> <Gold.PLP.ligand.torsion>
0.5709

> <Gold.PLP.Chemscore.Hbond>
2.7905

> <Gold.PLP.Chemscore.CHOScore>
0.0000

> <Gold.PLP.Chemscore.Metal>
0.0000

> <Gold.Chemscore.Hbonds>
donor molecule, donor type, donor heavy atom, donor atom, acceptor molecule, acceptor atom, score
      L1  H     7    25       P1  8028  0.86
      L1  H    15    30       P1  7957  1.00
      P1  H  7989  7998       L1     9  0.96

> <Gold.PLP.Chemscore.Internal.Correction>
0.0576

> <Gold.Rescore>
     Score         DG    S(hbond)    S(metal)    S(lipo)     H(rot)  DE(clash)    DE(int)     intcor
     18.15     -19.38       2.49        0.00      92.05       2.02       0.47       0.77       ----

> <Gold.Chemscore.Fitness>
18.1457

> <Gold.Chemscore.DG>
-19.3830

> <Gold.Chemscore.ZeroCoef>
-5.4800

> <Gold.Chemscore.Hbond>
2.4903

> <Gold.Chemscore.Metal>
0.0000

> <Gold.Chemscore.Lipo>
92.0451

> <Gold.Chemscore.Internal_Hbond>
0.0000

> <Gold.Chemscore.DEClash>
0.4682

> <Gold.Chemscore.DEInternal>
0.7691

> <Gold.Chemscore.Rot>
2.0250

> <Gold.Chemscore.Internal.Correction>
   9.000000E+99

> <Gold.Chemscore.Hbonds>
donor molecule, donor type, donor heavy atom, donor atom, acceptor molecule, acceptor atom, score
      L1  H     7    25       P1  8028  0.85
      L1  H    15    30       P1  7957  0.92
      P1  H  7989  7998       L1     9  0.35

> <Gold.Chemscore.Hbond.Weighted>
-8.3177

> <Gold.Chemscore.Metal.Weighted>
-0.0000

> <Gold.Chemscore.Lipo.Weighted>
-10.7693

> <Gold.Chemscore.Internal_Hbond.Weighted>
0.0000

> <Gold.Chemscore.DEClash.Weighted>
0.4682

> <Gold.Chemscore.DEInternal.Weighted>
0.7691

> <Gold.Chemscore.Rot.Weighted>
5.1840

> <Gold.Chemscore.Internal.Correction.Weighted>
   9.000000E+99

> <Gold.Protein.RotatedTorsions>
[ 6907 6896 6895 6894 ] final  125.55 input  -60.11 | X-H torsion
[ 7974 7965 7964 7962 ] final   66.69 input  175.53 | X-H torsion
[ 8008 7997 7996 7995 ] final  170.33 input   59.86 | X-H torsion
[ 10167 10162 10161 10158 ] final -160.93 input  -65.29 | X-H torsion
[ 10718 10713 10712 10709 ] final   22.66 input   66.30 | X-H torsion
[ 10763 10752 10751 10750 ] final  129.35 input  -60.55 | X-H torsion
[ 11005 11000 10999 10996 ] final  111.20 input  -57.11 | X-H torsion

> <Gold.Protein.ActiveResidues>
 VAL166  LYS551  ARG553  GLY616  TRP617  ASP618  TYR619  PRO620  LYS621  CYS622 
 ASP623  PHE694  ASN695  SER759  ASP760  ASP761  ALA762  ILE779  LEU786  VAL792 
 PHE793  MET794  SER795  GLU796  ALA797  LYS798  CYS799  TRP800  GLU811  SER814 

> <Gold.Protein.RotatedAtoms>
  152.3982  133.6778  159.6293 H   0  0  0  0  0  0  0  0  0  0  0  0  # atno 6907 bound_to 6896
  150.7877  133.8837  159.3302 H   0  0  0  0  0  0  0  0  0  0  0  0  # atno 6908 bound_to 6896
  151.6609  135.0991  160.0230 H   0  0  0  0  0  0  0  0  0  0  0  0  # atno 6909 bound_to 6896
  145.8236  139.3098  143.1029 H   0  0  0  0  0  0  0  0  0  0  0  0  # atno 7974 bound_to 7965
  156.1375  140.1541  156.8971 H   0  0  0  0  0  0  0  0  0  0  0  0  # atno 8008 bound_to 7997
  154.4960  140.0838  156.7735 H   0  0  0  0  0  0  0  0  0  0  0  0  # atno 8009 bound_to 7997
  155.4141  140.3420  155.4268 H   0  0  0  0  0  0  0  0  0  0  0  0  # atno 8010 bound_to 7997
  139.6502  144.0097  152.2156 H   0  0  0  0  0  0  0  0  0  0  0  0  # atno 10167 bound_to 10162
  157.1554  130.6693  149.6026 H   0  0  0  0  0  0  0  0  0  0  0  0  # atno 10718 bound_to 10713
  153.7404  135.3225  155.3303 H   0  0  0  0  0  0  0  0  0  0  0  0  # atno 10763 bound_to 10752
  154.8297  135.4543  154.1032 H   0  0  0  0  0  0  0  0  0  0  0  0  # atno 10764 bound_to 10752
  153.2205  135.6947  153.8087 H   0  0  0  0  0  0  0  0  0  0  0  0  # atno 10765 bound_to 10752
  139.8898  134.9502  156.6396 H   0  0  0  0  0  0  0  0  0  0  0  0  # atno 11005 bound_to 11000
  145.9648  140.8807  143.0192 LP  0  0  0  0  0  0  0  0  0  0  0  0  # atno 17320 bound_to 7965
  144.6745  140.1863  143.7401 LP  0  0  0  0  0  0  0  0  0  0  0  0  # atno 17321 bound_to 7965
  139.9809  144.6429  150.7901 LP  0  0  0  0  0  0  0  0  0  0  0  0  # atno 17342 bound_to 10162
  140.7534  143.3008  151.3086 LP  0  0  0  0  0  0  0  0  0  0  0  0  # atno 17343 bound_to 10162
  155.9763  130.4730  150.6519 LP  0  0  0  0  0  0  0  0  0  0  0  0  # atno 17370 bound_to 10713
  157.4182  131.0833  151.1156 LP  0  0  0  0  0  0  0  0  0  0  0  0  # atno 17371 bound_to 10713
  140.7603  133.8823  155.8413 LP  0  0  0  0  0  0  0  0  0  0  0  0  # atno 17394 bound_to 11000
  140.9927  134.1257  157.4393 LP  0  0  0  0  0  0  0  0  0  0  0  0  # atno 17395 bound_to 11000

$$$$
