AV-unprocessed.smi:1484|AV-procd|sdf|5996|dock8
  -GOLD-   22720 6 93D 1   1.00000     0.00000
 Structure written by MMmdl.
 37 38  0  0  0  0  0  0  0  0  2 V2000
  153.6901  141.9339  161.9221 C   0  0  0  0  0  0  0  0  0  0  0  0
  152.7330  142.5709  160.9049 C   0  0  1  0  0  0  0  0  0  0  0  0
  152.3069  143.9859  161.3417 C   0  0  0  0  0  0  0  0  0  0  0  0
  151.3569  144.6331  160.3213 C   0  0  0  0  0  0  0  0  0  0  0  0
  151.9802  144.6586  158.9140 C   0  0  0  0  0  0  0  0  0  0  0  0
  152.4168  143.2554  158.4515 C   0  0  2  0  0  0  0  0  0  0  0  0
  151.2386  142.4270  158.2208 N   0  0  0  0  0  0  0  0  0  0  0  0
  151.2193  141.1144  157.9388 C   0  0  0  0  0  0  0  0  0  0  0  0
  152.2417  140.4419  157.8072 O   0  0  0  0  0  0  0  0  0  0  0  0
  149.8431  140.4415  157.7853 C   0  0  0  0  0  0  0  0  0  0  0  0
  149.0126  140.9984  156.7036 N   0  0  0  0  0  0  0  0  0  0  0  0
  147.6913  141.4413  157.1422 N   0  5  0  0  0  0  0  0  0  0  0  0
  146.8828  142.0870  156.2607 C   0  0  0  0  0  0  0  0  0  0  0  0
  145.7801  142.5320  156.5701 O   0  0  0  0  0  0  0  0  0  0  0  0
  147.3515  142.2472  154.8943 C   0  0  0  0  0  0  0  0  0  0  0  0
  148.5603  141.7941  154.5072 C   0  0  0  0  0  0  0  0  0  0  0  0
  149.4774  141.1345  155.4289 C   0  0  0  0  0  0  0  0  0  0  0  0
  150.5964  140.7493  155.0899 O   0  0  0  0  0  0  0  0  0  0  0  0
  153.3539  142.6050  159.4918 C   0  0  0  0  0  0  0  0  0  0  0  0
  154.6118  142.5090  162.0142 H   0  0  0  0  0  0  0  0  0  0  0  0
  153.9578  140.9195  161.6256 H   0  0  0  0  0  0  0  0  0  0  0  0
  153.2317  141.8773  162.9099 H   0  0  0  0  0  0  0  0  0  0  0  0
  151.8382  141.9471  160.8696 H   0  0  0  0  0  0  0  0  0  0  0  0
  151.8200  143.9439  162.3165 H   0  0  0  0  0  0  0  0  0  0  0  0
  153.1894  144.6152  161.4640 H   0  0  0  0  0  0  0  0  0  0  0  0
  150.4142  144.0840  160.3001 H   0  0  0  0  0  0  0  0  0  0  0  0
  151.1116  145.6477  160.6359 H   0  0  0  0  0  0  0  0  0  0  0  0
  151.2747  145.0880  158.2013 H   0  0  0  0  0  0  0  0  0  0  0  0
  152.8470  145.3203  158.9193 H   0  0  0  0  0  0  0  0  0  0  0  0
  152.9539  143.3596  157.5071 H   0  0  0  0  0  0  0  0  0  0  0  0
  150.3424  142.8828  158.3221 H   0  0  0  0  0  0  0  0  0  0  0  0
  149.9908  139.3700  157.6407 H   0  0  0  0  0  0  0  0  0  0  0  0
  149.3163  140.5328  158.7367 H   0  0  0  0  0  0  0  0  0  0  0  0
  146.7142  142.7356  154.1719 H   0  0  0  0  0  0  0  0  0  0  0  0
  148.8659  141.9318  153.4808 H   0  0  0  0  0  0  0  0  0  0  0  0
  154.2893  143.1652  159.5237 H   0  0  0  0  0  0  0  0  0  0  0  0
  153.6198  141.5953  159.1758 H   0  0  0  0  0  0  0  0  0  0  0  0
  1  2  1  0  0  0  0
  1 20  1  0  0  0  0
  1 21  1  0  0  0  0
  1 22  1  0  0  0  0
  2 19  1  0  0  0  0
  2  3  1  0  0  0  0
  2 23  1  0  0  0  0
  3  4  1  0  0  0  0
  3 24  1  0  0  0  0
  3 25  1  0  0  0  0
  4  5  1  0  0  0  0
  4 26  1  0  0  0  0
  4 27  1  0  0  0  0
  5  6  1  0  0  0  0
  5 28  1  0  0  0  0
  5 29  1  0  0  0  0
  6  7  1  0  0  0  0
  6 19  1  0  0  0  0
  6 30  1  0  0  0  0
  7  8  1  0  0  0  0
  7 31  1  0  0  0  0
  8  9  2  0  0  0  0
  8 10  1  0  0  0  0
 10 32  1  0  0  0  0
 10 33  1  0  0  0  0
 10 11  1  0  0  0  0
 11 12  1  0  0  0  0
 11 17  1  0  0  0  0
 12 13  1  0  0  0  0
 13 14  2  0  0  0  0
 13 15  1  0  0  0  0
 15 34  1  0  0  0  0
 15 16  2  0  0  0  0
 16 35  1  0  0  0  0
 16 17  1  0  0  0  0
 17 18  2  0  0  0  0
 19 36  1  0  0  0  0
 19 37  1  0  0  0  0
M  CHG  1  12  -1
M  END
> <s_m_source_file>
AV-unprocessed.smi

> <i_m_source_file_index>
1484

> <i_lp_mmshare_version>
43012

> <i_f3d_flags>
0

> <s_epik_input>
W0NIM11bQ0BASF0xW0NIMl1bQ0gyXVtDSDJdW0NASF0oW0NIMl0xKVtOSF1DKD1PKVtDSDJdbjJbbkhdYyg9TylbY0hdW2NIXWMyPU8=

> <s_epik_cmdline>
J2VwaWtfcHl0aG9uJywgJy1waCcsICc3LjAnLCAnLXRuJywgJzgnLCAnLW1hJywgJzIwMCcsICctbWV0YWxfYmluZGluZycsICctaW1hZScsICc8aW5maWxlLm1hZT4nLCAnLW9tYWUnLCAnPG91dGZpbGUubWFlPic=

> <r_lp_tautomer_probability>
1

> <r_epik_Ionization_Penalty>
0.101352

> <r_epik_Ionization_Penalty_Charging>
0.101352

> <r_epik_Ionization_Penalty_Neutral>
1.90469e-08

> <r_epik_State_Penalty>
0.0358555

> <r_epik_Charging_Adjusted_Penalty>
0.137208

> <i_epik_Tot_Q>
-1

> <i_epik_Tot_abs_Q>
1

> <r_epik_Metal_State_Penalty>
0.0358555

> <b_epik_Metal_Only>
0

> <s_lp_Force_Field>
OPLS_2005

> <r_lp_Energy>
21.3013

> <b_lp_Chiralities_Consistent>
1

> <s_lp_Variant>
AV-unprocessed.smi:1484-4

> <Gold.Version>
5.8.1

> <Gold.Id.Protein>
6NUR|6NUR_protein|mol2

> <Gold.PLP.Fitness>
46.0881

> <Gold.PLP.PLP>
-43.3049

> <Gold.PLP.part.hbond>
-1.0000

> <Gold.PLP.part.metal>
0.0000

> <Gold.PLP.part.buried>
-4.6697

> <Gold.PLP.part.nonpolar>
-37.8015

> <Gold.PLP.part.repulsive>
0.3104

> <Gold.PLP.ligand.clash>
0.0000

> <Gold.PLP.ligand.torsion>
0.1130

> <Gold.PLP.Chemscore.Hbond>
1.0000

> <Gold.PLP.Chemscore.CHOScore>
0.0000

> <Gold.PLP.Chemscore.Metal>
0.0000

> <Gold.Chemscore.Hbonds>
donor molecule, donor type, donor heavy atom, donor atom, acceptor molecule, acceptor atom, score
      P1  H  7989  7998       L1    18  0.86

> <Gold.PLP.Chemscore.Internal.Correction>
0.0092

> <Gold.Rescore>
     Score         DG    S(hbond)    S(metal)    S(lipo)     H(rot)  DE(clash)    DE(int)     intcor
     15.19     -16.57       1.07        0.00     100.41       1.65       0.02       1.35       ----

> <Gold.Chemscore.Fitness>
15.1932

> <Gold.Chemscore.DG>
-16.5671

> <Gold.Chemscore.ZeroCoef>
-5.4800

> <Gold.Chemscore.Hbond>
1.0705

> <Gold.Chemscore.Metal>
0.0000

> <Gold.Chemscore.Lipo>
100.4100

> <Gold.Chemscore.Internal_Hbond>
0.0000

> <Gold.Chemscore.DEClash>
0.0207

> <Gold.Chemscore.DEInternal>
1.3532

> <Gold.Chemscore.Rot>
1.6549

> <Gold.Chemscore.Internal.Correction>
   9.000000E+99

> <Gold.Chemscore.Hbonds>
donor molecule, donor type, donor heavy atom, donor atom, acceptor molecule, acceptor atom, score
      P1  H  7989  7998       L1    18  0.85
      P1  H  7997  8010       L1     9  0.06

> <Gold.Chemscore.Hbond.Weighted>
-3.5756

> <Gold.Chemscore.Metal.Weighted>
-0.0000

> <Gold.Chemscore.Lipo.Weighted>
-11.7480

> <Gold.Chemscore.Internal_Hbond.Weighted>
0.0000

> <Gold.Chemscore.DEClash.Weighted>
0.0207

> <Gold.Chemscore.DEInternal.Weighted>
1.3532

> <Gold.Chemscore.Rot.Weighted>
4.2364

> <Gold.Chemscore.Internal.Correction.Weighted>
   9.000000E+99

> <Gold.Protein.RotatedTorsions>
[ 6907 6896 6895 6894 ] final -167.72 input  -60.11 | X-H torsion
[ 7974 7965 7964 7962 ] final   90.70 input  175.53 | X-H torsion
[ 8008 7997 7996 7995 ] final   52.57 input   59.86 | X-H torsion
[ 10167 10162 10161 10158 ] final   67.60 input  -65.29 | X-H torsion
[ 10718 10713 10712 10709 ] final  124.05 input   66.30 | X-H torsion
[ 10763 10752 10751 10750 ] final  -74.50 input  -60.55 | X-H torsion
[ 11005 11000 10999 10996 ] final  161.89 input  -57.11 | X-H torsion

> <Gold.Protein.ActiveResidues>
 VAL166  LYS551  ARG553  GLY616  TRP617  ASP618  TYR619  PRO620  LYS621  CYS622 
 ASP623  PHE694  ASN695  SER759  ASP760  ASP761  ALA762  ILE779  LEU786  VAL792 
 PHE793  MET794  SER795  GLU796  ALA797  LYS798  CYS799  TRP800  GLU811  SER814 

> <Gold.Protein.RotatedAtoms>
  151.4641  133.3585  159.2813 H   0  0  0  0  0  0  0  0  0  0  0  0  # atno 6907 bound_to 6896
  150.9005  134.8419  159.7368 H   0  0  0  0  0  0  0  0  0  0  0  0  # atno 6908 bound_to 6896
  152.4877  134.4561  159.9642 H   0  0  0  0  0  0  0  0  0  0  0  0  # atno 6909 bound_to 6896
  145.5156  139.2278  143.2700 H   0  0  0  0  0  0  0  0  0  0  0  0  # atno 7974 bound_to 7965
  155.4540  140.3459  155.4304 H   0  0  0  0  0  0  0  0  0  0  0  0  # atno 8008 bound_to 7997
  156.1203  140.1485  156.9244 H   0  0  0  0  0  0  0  0  0  0  0  0  # atno 8009 bound_to 7997
  154.4818  140.0867  156.7375 H   0  0  0  0  0  0  0  0  0  0  0  0  # atno 8010 bound_to 7997
  140.0878  144.5015  150.7119 H   0  0  0  0  0  0  0  0  0  0  0  0  # atno 10167 bound_to 10162
  157.5616  131.1089  150.8528 H   0  0  0  0  0  0  0  0  0  0  0  0  # atno 10718 bound_to 10713
  154.4740  135.5862  153.6341 H   0  0  0  0  0  0  0  0  0  0  0  0  # atno 10763 bound_to 10752
  152.9838  135.6073  154.3331 H   0  0  0  0  0  0  0  0  0  0  0  0  # atno 10764 bound_to 10752
  154.3216  135.2843  155.2496 H   0  0  0  0  0  0  0  0  0  0  0  0  # atno 10765 bound_to 10752
  140.2203  134.8201  157.3213 H   0  0  0  0  0  0  0  0  0  0  0  0  # atno 11005 bound_to 11000
  146.2139  140.5965  142.9047 LP  0  0  0  0  0  0  0  0  0  0  0  0  # atno 17320 bound_to 7965
  144.7704  140.5624  143.6674 LP  0  0  0  0  0  0  0  0  0  0  0  0  # atno 17321 bound_to 7965
  140.7044  143.2458  151.4768 LP  0  0  0  0  0  0  0  0  0  0  0  0  # atno 17342 bound_to 10162
  139.5742  144.1857  152.1880 LP  0  0  0  0  0  0  0  0  0  0  0  0  # atno 17343 bound_to 10162
  156.9025  130.5251  149.5282 LP  0  0  0  0  0  0  0  0  0  0  0  0  # atno 17370 bound_to 10713
  156.0668  130.5709  150.9304 LP  0  0  0  0  0  0  0  0  0  0  0  0  # atno 17371 bound_to 10713
  140.1857  134.4434  155.7745 LP  0  0  0  0  0  0  0  0  0  0  0  0  # atno 17394 bound_to 11000
  141.2223  133.7004  156.7943 LP  0  0  0  0  0  0  0  0  0  0  0  0  # atno 17395 bound_to 11000

$$$$
