AV-unprocessed.smi:1867|AV-procd|sdf|7571|dock1
  -GOLD-   22720 9283D 1   1.00000     0.00000
 Structure written by MMmdl.
 53 56  0  0  0  0  0  0  0  0  3 V2000
  146.4033  137.1240  155.6309 O   0  0  0  0  0  0  0  0  0  0  0  0
  147.0632  136.8283  154.6380 C   0  0  0  0  0  0  0  0  0  0  0  0
  148.2564  137.3681  154.3184 N   0  0  0  0  0  0  0  0  0  0  0  0
  149.0168  138.3342  155.0322 C   0  0  0  0  0  0  0  0  0  0  0  0
  150.1744  138.8477  154.4099 C   0  0  0  0  0  0  0  0  0  0  0  0
  150.9698  139.7984  155.0816 C   0  0  0  0  0  0  0  0  0  0  0  0
  150.6070  140.2223  156.3815 C   0  0  0  0  0  0  0  0  0  0  0  0
  151.3495  141.1702  157.1105 N   0  0  0  0  0  0  0  0  0  0  0  0
  151.0175  142.5856  157.0795 C   0  0  0  0  0  0  0  0  0  0  0  0
  151.9472  143.2210  158.1119 C   0  0  0  0  0  0  0  0  0  0  0  0
  152.1038  142.1198  159.1609 C   0  0  0  0  0  0  0  0  0  0  0  0
  152.0190  140.8181  158.3549 C   0  0  0  0  0  0  0  0  0  0  0  0
  149.4918  139.6980  156.9434 N   0  3  0  0  0  0  0  0  0  0  0  0
  148.7012  138.7873  156.3358 C   0  0  0  0  0  0  0  0  0  0  0  0
  146.6075  135.9289  153.7474 N   0  0  0  0  0  0  0  0  0  0  0  0
  145.3594  135.1631  153.7878 C   0  0  1  0  0  0  0  0  0  0  0  0
  144.1836  135.9120  153.1728 C   0  0  0  0  0  0  0  0  0  0  0  0
  143.1717  134.7981  152.8873 C   0  0  0  0  0  0  0  0  0  0  0  0
  143.9512  133.5517  152.6891 N   0  3  1  0  0  0  0  0  0  0  0  0
  143.6976  132.8818  151.3854 C   0  0  0  0  0  0  0  0  0  0  0  0
  144.7864  131.8420  151.0817 C   0  0  0  0  0  0  0  0  0  0  0  0
  146.1763  132.4962  150.9668 C   0  0  0  0  0  0  0  0  0  0  0  0
  146.2600  133.8396  151.7162 C   0  0  0  0  0  0  0  0  0  0  0  0
  145.3822  133.8423  152.9919 C   0  0  1  0  0  0  0  0  0  0  0  0
  148.6487  137.0773  153.4352 H   0  0  0  0  0  0  0  0  0  0  0  0
  150.4527  138.5220  153.4182 H   0  0  0  0  0  0  0  0  0  0  0  0
  151.8460  140.1944  154.5895 H   0  0  0  0  0  0  0  0  0  0  0  0
  151.1640  143.0137  156.0873 H   0  0  0  0  0  0  0  0  0  0  0  0
  149.9736  142.7216  157.3661 H   0  0  0  0  0  0  0  0  0  0  0  0
  152.9149  143.4351  157.6562 H   0  0  0  0  0  0  0  0  0  0  0  0
  151.5543  144.1517  158.5220 H   0  0  0  0  0  0  0  0  0  0  0  0
  153.0289  142.2042  159.7316 H   0  0  0  0  0  0  0  0  0  0  0  0
  151.2718  142.1680  159.8645 H   0  0  0  0  0  0  0  0  0  0  0  0
  151.4810  140.0502  158.9118 H   0  0  0  0  0  0  0  0  0  0  0  0
  153.0158  140.4408  158.1239 H   0  0  0  0  0  0  0  0  0  0  0  0
  147.8599  138.4577  156.9263 H   0  0  0  0  0  0  0  0  0  0  0  0
  147.1892  135.7730  152.9363 H   0  0  0  0  0  0  0  0  0  0  0  0
  145.1000  134.9482  154.8266 H   0  0  0  0  0  0  0  0  0  0  0  0
  143.7833  136.6874  153.8270 H   0  0  0  0  0  0  0  0  0  0  0  0
  144.4840  136.3852  152.2364 H   0  0  0  0  0  0  0  0  0  0  0  0
  142.5235  134.6526  153.7520 H   0  0  0  0  0  0  0  0  0  0  0  0
  142.5307  135.0451  152.0399 H   0  0  0  0  0  0  0  0  0  0  0  0
  142.7143  132.4112  151.4136 H   0  0  0  0  0  0  0  0  0  0  0  0
  143.6719  133.6191  150.5809 H   0  0  0  0  0  0  0  0  0  0  0  0
  144.7980  131.0985  151.8799 H   0  0  0  0  0  0  0  0  0  0  0  0
  144.5533  131.2997  150.1648 H   0  0  0  0  0  0  0  0  0  0  0  0
  146.9264  131.8050  151.3529 H   0  0  0  0  0  0  0  0  0  0  0  0
  146.4279  132.6603  149.9184 H   0  0  0  0  0  0  0  0  0  0  0  0
  147.3035  134.0470  151.9534 H   0  0  0  0  0  0  0  0  0  0  0  0
  145.9348  134.6433  151.0538 H   0  0  0  0  0  0  0  0  0  0  0  0
  145.7516  133.0478  153.6420 H   0  0  0  0  0  0  0  0  0  0  0  0
  143.6423  132.9100  153.4052 H   0  0  0  0  0  0  0  0  0  0  0  0
  149.2348  140.0051  157.8816 H   0  0  0  0  0  0  0  0  0  0  0  0
  1  2  2  0  0  0  0
  2  3  1  0  0  0  0
  2 15  1  0  0  0  0
  3  4  1  0  0  0  0
  3 25  1  0  0  0  0
  4 14  1  0  0  0  0
  4  5  2  0  0  0  0
  5  6  1  0  0  0  0
  5 26  1  0  0  0  0
  6  7  2  0  0  0  0
  6 27  1  0  0  0  0
  7  8  1  0  0  0  0
  7 13  1  0  0  0  0
  8 12  1  0  0  0  0
  8  9  1  0  0  0  0
  9 10  1  0  0  0  0
  9 28  1  0  0  0  0
  9 29  1  0  0  0  0
 10 11  1  0  0  0  0
 10 30  1  0  0  0  0
 10 31  1  0  0  0  0
 11 12  1  0  0  0  0
 11 32  1  0  0  0  0
 11 33  1  0  0  0  0
 12 34  1  0  0  0  0
 12 35  1  0  0  0  0
 13 14  2  0  0  0  0
 13 53  1  0  0  0  0
 14 36  1  0  0  0  0
 15 16  1  0  0  0  0
 15 37  1  0  0  0  0
 16 24  1  0  0  0  0
 16 17  1  0  0  0  0
 16 38  1  0  0  0  0
 17 18  1  0  0  0  0
 17 39  1  0  0  0  0
 17 40  1  0  0  0  0
 18 19  1  0  0  0  0
 18 41  1  0  0  0  0
 18 42  1  0  0  0  0
 19 24  1  0  0  0  0
 19 20  1  0  0  0  0
 19 52  1  0  0  0  0
 20 21  1  0  0  0  0
 20 43  1  0  0  0  0
 20 44  1  0  0  0  0
 21 22  1  0  0  0  0
 21 45  1  0  0  0  0
 21 46  1  0  0  0  0
 22 23  1  0  0  0  0
 22 47  1  0  0  0  0
 22 48  1  0  0  0  0
 23 24  1  0  0  0  0
 23 49  1  0  0  0  0
 23 50  1  0  0  0  0
 24 51  1  0  0  0  0
M  CHG  1  13   1
M  CHG  1  19   1
M  END
> <s_m_source_file>
AV-unprocessed.smi

> <i_m_source_file_index>
1867

> <i_lp_mmshare_version>
43012

> <i_f3d_flags>
0

> <s_epik_input>
W0NIMl0xW0NIMl1bQ0gyXVtDSDJdW0NASF0oTjEyKVtDQEBIXShbQ0gyXVtDSDJdMilbTkhdQyg9TylbTkhdYzNbY0hdW2NIXWMobltjSF0zKU40W0NIMl1bQ0gyXVtDSDJdW0NIMl00

> <s_epik_cmdline>
J2VwaWtfcHl0aG9uJywgJy1waCcsICc3LjAnLCAnLXRuJywgJzgnLCAnLW1hJywgJzIwMCcsICctbWV0YWxfYmluZGluZycsICctaW1hZScsICc8aW5maWxlLm1hZT4nLCAnLW9tYWUnLCAnPG91dGZpbGUubWFlPic=

> <r_lp_tautomer_probability>
0.999994

> <r_epik_Ionization_Penalty>
1.27347

> <r_epik_Ionization_Penalty_Charging>
1.27345

> <r_epik_Ionization_Penalty_Neutral>
1.96458e-05

> <r_epik_State_Penalty>
1.34393

> <r_epik_Charging_Adjusted_Penalty>
2.61738

> <i_epik_Tot_Q>
2

> <i_epik_Tot_abs_Q>
2

> <r_epik_Metal_State_Penalty>
1.41094

> <b_epik_Metal_Only>
0

> <s_lp_Force_Field>
OPLS_2005

> <r_lp_Energy>
85.1711

> <b_lp_Chiralities_Consistent>
1

> <s_lp_Variant>
AV-unprocessed.smi:1867-12

> <Gold.Version>
5.8.1

> <Gold.Id.Protein>
6NUR|6NUR_protein|mol2

> <Gold.PLP.Fitness>
45.3133

> <Gold.PLP.PLP>
-37.1939

> <Gold.PLP.part.hbond>
-2.9850

> <Gold.PLP.part.metal>
0.0000

> <Gold.PLP.part.buried>
-4.9476

> <Gold.PLP.part.nonpolar>
-30.0555

> <Gold.PLP.part.repulsive>
0.0392

> <Gold.PLP.ligand.clash>
0.0000

> <Gold.PLP.ligand.torsion>
1.7225

> <Gold.PLP.Chemscore.Hbond>
3.7885

> <Gold.PLP.Chemscore.CHOScore>
0.0000

> <Gold.PLP.Chemscore.Metal>
0.0000

> <Gold.Chemscore.Hbonds>
donor molecule, donor type, donor heavy atom, donor atom, acceptor molecule, acceptor atom, score
      L1  H     3    25       P1  7948  1.00
      L1  H    15    37       P1  7948  0.81
      L1  H    19    52       P1 10957  1.98

> <Gold.PLP.Chemscore.Internal.Correction>
0.1990

> <Gold.Rescore>
     Score         DG    S(hbond)    S(metal)    S(lipo)     H(rot)  DE(clash)    DE(int)     intcor
     20.12     -23.26       2.72        0.00      96.34       1.00       0.20       2.95       ----

> <Gold.Chemscore.Fitness>
20.1164

> <Gold.Chemscore.DG>
-23.2644

> <Gold.Chemscore.ZeroCoef>
-5.4800

> <Gold.Chemscore.Hbond>
2.7162

> <Gold.Chemscore.Metal>
0.0000

> <Gold.Chemscore.Lipo>
96.3430

> <Gold.Chemscore.Internal_Hbond>
0.0000

> <Gold.Chemscore.DEClash>
0.1951

> <Gold.Chemscore.DEInternal>
2.9529

> <Gold.Chemscore.Rot>
1.0000

> <Gold.Chemscore.Internal.Correction>
   9.000000E+99

> <Gold.Chemscore.Hbonds>
donor molecule, donor type, donor heavy atom, donor atom, acceptor molecule, acceptor atom, score
      L1  H     3    25       P1  7948  1.00
      L1  H    15    37       P1  7948  0.76
      L1  H    19    52       P1 10957  0.69

> <Gold.Chemscore.Hbond.Weighted>
-9.0722

> <Gold.Chemscore.Metal.Weighted>
-0.0000

> <Gold.Chemscore.Lipo.Weighted>
-11.2721

> <Gold.Chemscore.Internal_Hbond.Weighted>
0.0000

> <Gold.Chemscore.DEClash.Weighted>
0.1951

> <Gold.Chemscore.DEInternal.Weighted>
2.9529

> <Gold.Chemscore.Rot.Weighted>
2.5600

> <Gold.Chemscore.Internal.Correction.Weighted>
   9.000000E+99

> <Gold.Protein.RotatedTorsions>
[ 6907 6896 6895 6894 ] final -108.77 input  -60.11 | X-H torsion
[ 7974 7965 7964 7962 ] final  101.25 input  175.53 | X-H torsion
[ 8008 7997 7996 7995 ] final -140.74 input   59.86 | X-H torsion
[ 10167 10162 10161 10158 ] final  111.45 input  -65.29 | X-H torsion
[ 10718 10713 10712 10709 ] final  -18.98 input   66.30 | X-H torsion
[ 10763 10752 10751 10750 ] final  -88.66 input  -60.55 | X-H torsion
[ 11005 11000 10999 10996 ] final  139.34 input  -57.11 | X-H torsion

> <Gold.Protein.ActiveResidues>
 VAL166  LYS551  ARG553  GLY616  TRP617  ASP618  TYR619  PRO620  LYS621  CYS622 
 ASP623  PHE694  ASN695  SER759  ASP760  ASP761  ALA762  ILE779  LEU786  VAL792 
 PHE793  MET794  SER795  GLU796  ALA797  LYS798  CYS799  TRP800  GLU811  SER814 

> <Gold.Protein.RotatedAtoms>
  150.7521  133.9628  159.3520 H   0  0  0  0  0  0  0  0  0  0  0  0  # atno 6907 bound_to 6896
  151.7555  135.0820  160.0347 H   0  0  0  0  0  0  0  0  0  0  0  0  # atno 6908 bound_to 6896
  152.3438  133.6060  159.5931 H   0  0  0  0  0  0  0  0  0  0  0  0  # atno 6909 bound_to 6896
  145.3747  139.2391  143.3436 H   0  0  0  0  0  0  0  0  0  0  0  0  # atno 7974 bound_to 7965
  155.4664  140.0549  157.2985 H   0  0  0  0  0  0  0  0  0  0  0  0  # atno 8008 bound_to 7997
  154.4716  140.2043  155.9934 H   0  0  0  0  0  0  0  0  0  0  0  0  # atno 8009 bound_to 7997
  156.1065  140.3211  155.8018 H   0  0  0  0  0  0  0  0  0  0  0  0  # atno 8010 bound_to 7997
  139.6611  144.7128  151.1864 H   0  0  0  0  0  0  0  0  0  0  0  0  # atno 10167 bound_to 10162
  156.5520  130.4704  149.6447 H   0  0  0  0  0  0  0  0  0  0  0  0  # atno 10718 bound_to 10713
  154.6470  135.5369  153.7856 H   0  0  0  0  0  0  0  0  0  0  0  0  # atno 10763 bound_to 10752
  153.0365  135.6473  154.1074 H   0  0  0  0  0  0  0  0  0  0  0  0  # atno 10764 bound_to 10752
  154.0995  135.2934  155.3234 H   0  0  0  0  0  0  0  0  0  0  0  0  # atno 10765 bound_to 10752
  140.0248  134.9380  157.0546 H   0  0  0  0  0  0  0  0  0  0  0  0  # atno 11005 bound_to 11000
  146.2869  140.4405  142.8754 LP  0  0  0  0  0  0  0  0  0  0  0  0  # atno 17320 bound_to 7965
  144.8550  140.7058  143.6143 LP  0  0  0  0  0  0  0  0  0  0  0  0  # atno 17321 bound_to 7965
  140.7580  143.5994  150.8715 LP  0  0  0  0  0  0  0  0  0  0  0  0  # atno 17342 bound_to 10162
  139.9651  143.6120  152.2991 LP  0  0  0  0  0  0  0  0  0  0  0  0  # atno 17343 bound_to 10162
  156.2876  130.7106  151.1946 LP  0  0  0  0  0  0  0  0  0  0  0  0  # atno 17370 bound_to 10713
  157.7385  131.0539  150.5287 LP  0  0  0  0  0  0  0  0  0  0  0  0  # atno 17371 bound_to 10713
  140.4326  134.1765  155.7169 LP  0  0  0  0  0  0  0  0  0  0  0  0  # atno 17394 bound_to 11000
  141.1796  133.8442  157.1304 LP  0  0  0  0  0  0  0  0  0  0  0  0  # atno 17395 bound_to 11000

$$$$
