AV-unprocessed.smi:3243|AV-procd|sdf|12395|dock2
  -GOLD-   2272018263D 1   1.00000     0.00000
 Structure written by MMmdl.
 37 38  0  0  0  0  0  0  0  0  1 V2000
  153.6681  136.5884  164.4789 C   0  0  0  0  0  0  0  0  0  0  0  0
  154.9581  136.7302  163.6584 C   0  0  0  0  0  0  0  0  0  0  0  0
  156.0028  137.6130  164.3563 C   0  0  0  0  0  0  0  0  0  0  0  0
  154.6803  137.1908  162.2609 C   0  0  0  0  0  0  0  0  0  0  0  0
  154.1270  138.3727  161.9737 N   0  0  0  0  0  0  0  0  0  0  0  0
  153.9732  138.5796  160.5991 C   0  0  0  0  0  0  0  0  0  0  0  0
  153.3723  139.8573  160.0970 C   0  0  0  0  0  0  0  0  0  0  0  0
  154.1714  141.0916  160.5476 C   0  0  0  0  0  0  0  0  0  0  0  0
  153.9046  142.2452  159.6961 N   0  0  0  0  0  0  0  0  0  0  0  0
  152.8120  143.0205  159.7658 C   0  0  0  0  0  0  0  0  0  0  0  0
  151.9007  142.8186  160.5695 O   0  0  0  0  0  0  0  0  0  0  0  0
  152.8105  144.1469  158.7797 C   0  0  1  0  0  0  0  0  0  0  0  0
  151.7094  144.1850  157.7378 C   0  0  0  0  0  0  0  0  0  0  0  0
  151.7234  145.2114  158.8454 C   0  0  1  0  0  0  0  0  0  0  0  0
  150.6221  145.2426  159.8908 C   0  0  0  0  0  0  0  0  0  0  0  0
  154.4224  137.5283  159.8399 C   0  0  0  0  0  0  0  0  0  0  0  0
  155.0560  136.2396  160.8254 S   0  0  0  0  0  0  0  0  0  0  0  0
  152.9734  135.8981  163.9995 H   0  0  0  0  0  0  0  0  0  0  0  0
  153.1606  137.5468  164.5927 H   0  0  0  0  0  0  0  0  0  0  0  0
  153.8782  136.2041  165.4773 H   0  0  0  0  0  0  0  0  0  0  0  0
  155.3927  135.7321  163.5833 H   0  0  0  0  0  0  0  0  0  0  0  0
  156.9323  137.6444  163.7872 H   0  0  0  0  0  0  0  0  0  0  0  0
  156.2379  137.2311  165.3499 H   0  0  0  0  0  0  0  0  0  0  0  0
  155.6470  138.6373  164.4712 H   0  0  0  0  0  0  0  0  0  0  0  0
  153.3165  139.8332  159.0079 H   0  0  0  0  0  0  0  0  0  0  0  0
  152.3425  139.9436  160.4457 H   0  0  0  0  0  0  0  0  0  0  0  0
  153.8993  141.3583  161.5693 H   0  0  0  0  0  0  0  0  0  0  0  0
  155.2405  140.8724  160.5586 H   0  0  0  0  0  0  0  0  0  0  0  0
  154.6062  142.4755  159.0073 H   0  0  0  0  0  0  0  0  0  0  0  0
  153.7925  144.5019  158.4700 H   0  0  0  0  0  0  0  0  0  0  0  0
  151.9874  144.5122  156.7380 H   0  0  0  0  0  0  0  0  0  0  0  0
  150.9352  143.4202  157.7675 H   0  0  0  0  0  0  0  0  0  0  0  0
  152.0663  146.2091  158.5782 H   0  0  0  0  0  0  0  0  0  0  0  0
  150.1332  144.2741  159.9894 H   0  0  0  0  0  0  0  0  0  0  0  0
  149.8639  145.9724  159.6071 H   0  0  0  0  0  0  0  0  0  0  0  0
  151.0323  145.5297  160.8590 H   0  0  0  0  0  0  0  0  0  0  0  0
  154.4208  137.4354  158.7638 H   0  0  0  0  0  0  0  0  0  0  0  0
  1  2  1  0  0  0  0
  1 18  1  0  0  0  0
  1 19  1  0  0  0  0
  1 20  1  0  0  0  0
  2  3  1  0  0  0  0
  2  4  1  0  0  0  0
  2 21  1  0  0  0  0
  3 22  1  0  0  0  0
  3 23  1  0  0  0  0
  3 24  1  0  0  0  0
  4 17  1  0  0  0  0
  4  5  2  0  0  0  0
  5  6  1  0  0  0  0
  6  7  1  0  0  0  0
  6 16  2  0  0  0  0
  7  8  1  0  0  0  0
  7 25  1  0  0  0  0
  7 26  1  0  0  0  0
  8  9  1  0  0  0  0
  8 27  1  0  0  0  0
  8 28  1  0  0  0  0
  9 10  1  0  0  0  0
  9 29  1  0  0  0  0
 10 11  2  0  0  0  0
 10 12  1  0  0  0  0
 12 14  1  0  0  0  0
 12 13  1  0  0  0  0
 12 30  1  0  0  0  0
 13 14  1  0  0  0  0
 13 31  1  0  0  0  0
 13 32  1  0  0  0  0
 14 15  1  0  0  0  0
 14 33  1  0  0  0  0
 15 34  1  0  0  0  0
 15 35  1  0  0  0  0
 15 36  1  0  0  0  0
 16 17  1  0  0  0  0
 16 37  1  0  0  0  0
M  END
> <s_m_source_file>
AV-unprocessed.smi

> <i_m_source_file_index>
3243

> <i_lp_mmshare_version>
43012

> <i_f3d_flags>
0

> <s_epik_input>
W0NIM11bQ0hdKFtDSDNdKWMxbmMoW2NIXXMxKVtDSDJdW0NIMl1bTkhdQyg9TylbQ0BASF0yW0NIMl1bQ0BIXTJbQ0gzXQ==

> <s_epik_cmdline>
J2VwaWtfcHl0aG9uJywgJy1waCcsICc3LjAnLCAnLXRuJywgJzgnLCAnLW1hJywgJzIwMCcsICctbWV0YWxfYmluZGluZycsICctaW1hZScsICc8aW5maWxlLm1hZT4nLCAnLW9tYWUnLCAnPG91dGZpbGUubWFlPic=

> <r_epik_Ionization_Penalty>
0.00084212

> <r_epik_Ionization_Penalty_Charging>
0

> <r_epik_Ionization_Penalty_Neutral>
0.00084212

> <r_epik_State_Penalty>
0.000542609

> <r_epik_Charging_Adjusted_Penalty>
0.000542609

> <i_epik_Tot_Q>
0

> <i_epik_Tot_abs_Q>
0

> <r_epik_Metal_State_Penalty>
-0

> <b_epik_Metal_Only>
0

> <s_lp_Force_Field>
OPLS_2005

> <r_lp_Energy>
-2.57645

> <b_lp_Chiralities_Consistent>
1

> <s_lp_Variant>
AV-unprocessed.smi:3243-2

> <Gold.Version>
5.8.1

> <Gold.Id.Protein>
6NUR|6NUR_protein|mol2

> <Gold.PLP.Fitness>
40.4562

> <Gold.PLP.PLP>
-40.8968

> <Gold.PLP.part.hbond>
-0.2740

> <Gold.PLP.part.metal>
0.0000

> <Gold.PLP.part.buried>
-5.1170

> <Gold.PLP.part.nonpolar>
-36.0899

> <Gold.PLP.part.repulsive>
0.1101

> <Gold.PLP.ligand.clash>
0.0000

> <Gold.PLP.ligand.torsion>
0.3104

> <Gold.PLP.Chemscore.Hbond>
0.0000

> <Gold.PLP.Chemscore.CHOScore>
0.0000

> <Gold.PLP.Chemscore.Metal>
0.0000

> <Gold.PLP.Chemscore.Internal.Correction>
0.1802

> <Gold.Rescore>
     Score         DG    S(hbond)    S(metal)    S(lipo)     H(rot)  DE(clash)    DE(int)     intcor
     13.37     -15.09       0.00        0.00     114.71       1.49       0.04       1.69       ----

> <Gold.Chemscore.Fitness>
13.3658

> <Gold.Chemscore.DG>
-15.0946

> <Gold.Chemscore.ZeroCoef>
-5.4800

> <Gold.Chemscore.Hbond>
0.0000

> <Gold.Chemscore.Metal>
0.0000

> <Gold.Chemscore.Lipo>
114.7116

> <Gold.Chemscore.Internal_Hbond>
0.0000

> <Gold.Chemscore.DEClash>
0.0358

> <Gold.Chemscore.DEInternal>
1.6930

> <Gold.Chemscore.Rot>
1.4870

> <Gold.Chemscore.Internal.Correction>
   9.000000E+99

> <Gold.Chemscore.Hbond.Weighted>
-0.0000

> <Gold.Chemscore.Metal.Weighted>
-0.0000

> <Gold.Chemscore.Lipo.Weighted>
-13.4213

> <Gold.Chemscore.Internal_Hbond.Weighted>
0.0000

> <Gold.Chemscore.DEClash.Weighted>
0.0358

> <Gold.Chemscore.DEInternal.Weighted>
1.6930

> <Gold.Chemscore.Rot.Weighted>
3.8067

> <Gold.Chemscore.Internal.Correction.Weighted>
   9.000000E+99

> <Gold.Protein.RotatedTorsions>
[ 6907 6896 6895 6894 ] final  178.42 input  -60.11 | X-H torsion
[ 7974 7965 7964 7962 ] final -154.13 input  175.53 | X-H torsion
[ 8008 7997 7996 7995 ] final -152.26 input   59.86 | X-H torsion
[ 10167 10162 10161 10158 ] final -121.02 input  -65.29 | X-H torsion
[ 10718 10713 10712 10709 ] final  128.59 input   66.30 | X-H torsion
[ 10763 10752 10751 10750 ] final  159.31 input  -60.55 | X-H torsion
[ 11005 11000 10999 10996 ] final  125.67 input  -57.11 | X-H torsion

> <Gold.Protein.ActiveResidues>
 VAL166  LYS551  ARG553  GLY616  TRP617  ASP618  TYR619  PRO620  LYS621  CYS622 
 ASP623  PHE694  ASN695  SER759  ASP760  ASP761  ALA762  ILE779  LEU786  VAL792 
 PHE793  MET794  SER795  GLU796  ALA797  LYS798  CYS799  TRP800  GLU811  SER814 

> <Gold.Protein.RotatedAtoms>
  151.6882  133.3311  159.3235 H   0  0  0  0  0  0  0  0  0  0  0  0  # atno 6907 bound_to 6896
  150.7791  134.6722  159.6407 H   0  0  0  0  0  0  0  0  0  0  0  0  # atno 6908 bound_to 6896
  152.3843  134.6545  160.0183 H   0  0  0  0  0  0  0  0  0  0  0  0  # atno 6909 bound_to 6896
  144.7705  140.4430  143.5911 H   0  0  0  0  0  0  0  0  0  0  0  0  # atno 7974 bound_to 7965
  155.6523  140.0713  157.2582 H   0  0  0  0  0  0  0  0  0  0  0  0  # atno 8008 bound_to 7997
  154.4160  140.1731  156.1738 H   0  0  0  0  0  0  0  0  0  0  0  0  # atno 8009 bound_to 7997
  155.9766  140.3357  155.6628 H   0  0  0  0  0  0  0  0  0  0  0  0  # atno 8010 bound_to 7997
  140.0296  143.5262  152.2183 H   0  0  0  0  0  0  0  0  0  0  0  0  # atno 10167 bound_to 10162
  157.5230  131.1098  150.9124 H   0  0  0  0  0  0  0  0  0  0  0  0  # atno 10718 bound_to 10713
  154.2297  135.2779  155.2894 H   0  0  0  0  0  0  0  0  0  0  0  0  # atno 10763 bound_to 10752
  154.5634  135.5640  153.7031 H   0  0  0  0  0  0  0  0  0  0  0  0  # atno 10764 bound_to 10752
  153.0023  135.6303  154.2439 H   0  0  0  0  0  0  0  0  0  0  0  0  # atno 10765 bound_to 10752
  139.9418  134.9634  156.8593 H   0  0  0  0  0  0  0  0  0  0  0  0  # atno 11005 bound_to 11000
  145.6339  139.1540  143.2953 LP  0  0  0  0  0  0  0  0  0  0  0  0  # atno 17320 bound_to 7965
  146.1847  140.6441  142.9173 LP  0  0  0  0  0  0  0  0  0  0  0  0  # atno 17321 bound_to 7965
  139.6085  144.7602  151.3006 LP  0  0  0  0  0  0  0  0  0  0  0  0  # atno 17342 bound_to 10162
  140.7308  143.6870  150.7953 LP  0  0  0  0  0  0  0  0  0  0  0  0  # atno 17343 bound_to 10162
  156.9729  130.5498  149.5291 LP  0  0  0  0  0  0  0  0  0  0  0  0  # atno 17370 bound_to 10713
  156.0367  130.5454  150.8671 LP  0  0  0  0  0  0  0  0  0  0  0  0  # atno 17371 bound_to 10713
  140.5933  134.0241  155.7508 LP  0  0  0  0  0  0  0  0  0  0  0  0  # atno 17394 bound_to 11000
  141.1055  133.9701  157.3005 LP  0  0  0  0  0  0  0  0  0  0  0  0  # atno 17395 bound_to 11000

$$$$
