AV-unprocessed.smi:279|AV-procd|sdf|2095|dock3
  -GOLD-   2262021373D 1   1.00000     0.00000
 Structure written by MMmdl.
 50 54  0  0  0  0  0  0  0  0  1 V2000
  145.7257  136.6476  160.0339 O   0  0  0  0  0  0  0  0  0  0  0  0
  146.8253  136.2164  160.9108 S   0  0  0  0  0  0  0  0  0  0  0  0
  147.7098  137.2027  161.5498 O   0  0  0  0  0  0  0  0  0  0  0  0
  146.1653  135.0879  162.1915 C   0  0  0  0  0  0  0  0  0  0  0  0
  146.2989  133.6837  161.5959 C   0  0  0  0  0  0  0  0  0  0  0  0
  147.6189  133.6102  160.7996 C   0  0  1  0  0  0  0  0  0  0  0  0
  147.6223  132.5296  159.7050 C   0  0  0  0  0  0  0  0  0  0  0  0
  147.7011  133.2314  158.4303 N   0  0  0  0  0  0  0  0  0  0  0  0
  147.3477  132.6010  157.2781 C   0  0  0  0  0  0  0  0  0  0  0  0
  147.0227  131.2813  157.3302 N   0  0  0  0  0  0  0  0  0  0  0  0
  146.6732  130.6208  156.2233 C   0  0  0  0  0  0  0  0  0  0  0  0
  146.5742  131.0802  154.9758 N   0  0  0  0  0  0  0  0  0  0  0  0
  146.8814  132.4069  154.9123 C   0  0  0  0  0  0  0  0  0  0  0  0
  147.2785  133.2362  156.0017 C   0  0  0  0  0  0  0  0  0  0  0  0
  147.5138  134.5271  155.5393 N   0  0  0  0  0  0  0  0  0  0  0  0
  147.2844  134.4603  154.2568 C   0  0  0  0  0  0  0  0  0  0  0  0
  146.8719  133.2302  153.8000 N   0  0  0  0  0  0  0  0  0  0  0  0
  146.5915  132.8675  152.4418 C   0  0  0  0  0  0  0  0  0  0  0  0
  145.8758  133.8306  151.4916 C   0  0  0  0  0  0  0  0  0  0  0  0
  145.2244  132.6253  150.7756 C   0  0  0  0  0  0  0  0  0  0  0  0
  143.7452  132.8017  150.3940 C   0  0  0  0  0  0  0  0  0  0  0  0
  143.1266  131.5555  150.1451 O   0  0  0  0  0  0  0  0  0  0  0  0
  146.0006  132.0840  149.5578 C   0  0  0  0  0  0  0  0  0  0  0  0
  147.3387  132.5381  149.5552 O   0  0  0  0  0  0  0  0  0  0  0  0
  145.4779  131.8744  152.1013 C   0  0  0  0  0  0  0  0  0  0  0  0
  147.3823  134.6369  158.6302 C   0  0  0  0  0  0  0  0  0  0  0  0
  147.8372  134.9356  160.0591 C   0  0  1  0  0  0  0  0  0  0  0  0
  148.4403  133.4493  161.4992 H   0  0  0  0  0  0  0  0  0  0  0  0
  148.8889  135.2233  160.0789 H   0  0  0  0  0  0  0  0  0  0  0  0
  146.7832  135.1890  163.0841 H   0  0  0  0  0  0  0  0  0  0  0  0
  145.1387  135.3561  162.4406 H   0  0  0  0  0  0  0  0  0  0  0  0
  146.2459  132.9119  162.3642 H   0  0  0  0  0  0  0  0  0  0  0  0
  145.4587  133.5178  160.9199 H   0  0  0  0  0  0  0  0  0  0  0  0
  148.4948  131.8853  159.8171 H   0  0  0  0  0  0  0  0  0  0  0  0
  146.7312  131.9023  159.7547 H   0  0  0  0  0  0  0  0  0  0  0  0
  146.4384  129.5751  156.3571 H   0  0  0  0  0  0  0  0  0  0  0  0
  147.4049  135.3153  153.6074 H   0  0  0  0  0  0  0  0  0  0  0  0
  147.5425  132.5420  152.0166 H   0  0  0  0  0  0  0  0  0  0  0  0
  145.1493  134.4623  152.0065 H   0  0  0  0  0  0  0  0  0  0  0  0
  146.5435  134.4320  150.8739 H   0  0  0  0  0  0  0  0  0  0  0  0
  143.1938  133.2905  151.1977 H   0  0  0  0  0  0  0  0  0  0  0  0
  143.6298  133.4367  149.5154 H   0  0  0  0  0  0  0  0  0  0  0  0
  142.1894  131.6736  150.1799 H   0  0  0  0  0  0  0  0  0  0  0  0
  146.0207  130.9942  149.5552 H   0  0  0  0  0  0  0  0  0  0  0  0
  145.5283  132.3776  148.6202 H   0  0  0  0  0  0  0  0  0  0  0  0
  147.8560  131.9488  150.0827 H   0  0  0  0  0  0  0  0  0  0  0  0
  145.8118  130.8425  151.9877 H   0  0  0  0  0  0  0  0  0  0  0  0
  144.6373  131.9376  152.7954 H   0  0  0  0  0  0  0  0  0  0  0  0
  147.8884  135.2779  157.9075 H   0  0  0  0  0  0  0  0  0  0  0  0
  146.3059  134.7679  158.5164 H   0  0  0  0  0  0  0  0  0  0  0  0
  1  2  2  0  0  0  0
  2 27  1  0  0  0  0
  2  3  2  0  0  0  0
  2  4  1  0  0  0  0
  4  5  1  0  0  0  0
  4 30  1  0  0  0  0
  4 31  1  0  0  0  0
  5  6  1  0  0  0  0
  5 32  1  0  0  0  0
  5 33  1  0  0  0  0
  6 28  1  0  0  0  0
  6 27  1  0  0  0  0
  6  7  1  0  0  0  0
  7  8  1  0  0  0  0
  7 34  1  0  0  0  0
  7 35  1  0  0  0  0
  8  9  1  0  0  0  0
  8 26  1  0  0  0  0
  9 14  1  0  0  0  0
  9 10  2  0  0  0  0
 10 11  1  0  0  0  0
 11 12  2  0  0  0  0
 11 36  1  0  0  0  0
 12 13  1  0  0  0  0
 13 17  1  0  0  0  0
 13 14  2  0  0  0  0
 14 15  1  0  0  0  0
 15 16  2  0  0  0  0
 16 17  1  0  0  0  0
 16 37  1  0  0  0  0
 17 18  1  0  0  0  0
 18 25  1  0  0  0  0
 18 19  1  0  0  0  0
 18 38  1  0  0  0  0
 19 20  1  0  0  0  0
 19 39  1  0  0  0  0
 19 40  1  0  0  0  0
 20 21  1  0  0  0  0
 20 23  1  0  0  0  0
 20 25  1  0  0  0  0
 21 22  1  0  0  0  0
 21 41  1  0  0  0  0
 21 42  1  0  0  0  0
 22 43  1  0  0  0  0
 23 24  1  0  0  0  0
 23 44  1  0  0  0  0
 23 45  1  0  0  0  0
 24 46  1  0  0  0  0
 25 47  1  0  0  0  0
 25 48  1  0  0  0  0
 26 27  1  0  0  0  0
 26 49  1  0  0  0  0
 26 50  1  0  0  0  0
 27 29  1  0  0  0  0
M  END
> <s_m_source_file>
AV-unprocessed.smi

> <i_m_source_file_index>
279

> <i_lp_mmshare_version>
43012

> <i_f3d_flags>
0

> <s_epik_input>
W0NIMl0xW0NIMl1TKD1PKSg9TylbQ0BASF0oW0NAQEhdMTIpW0NIMl1OKFtDSDJdMiljKG5bY0hdbjMpYyhjMzQpbltjSF1uNFtDSF0oW0NIMl01KVtDSDJdQzUoW0NIMl1bT0hdKVtDSDJdW09IXQ==

> <s_epik_cmdline>
J2VwaWtfcHl0aG9uJywgJy1waCcsICc3LjAnLCAnLXRuJywgJzgnLCAnLW1hJywgJzIwMCcsICctbWV0YWxfYmluZGluZycsICctaW1hZScsICc8aW5maWxlLm1hZT4nLCAnLW9tYWUnLCAnPG91dGZpbGUubWFlPic=

> <r_lp_tautomer_probability>
1

> <r_epik_Ionization_Penalty>
0.000990948

> <r_epik_Ionization_Penalty_Charging>
0

> <r_epik_Ionization_Penalty_Neutral>
0.000990948

> <r_epik_State_Penalty>
0.000515994

> <r_epik_Charging_Adjusted_Penalty>
0.000515994

> <i_epik_Tot_Q>
0

> <i_epik_Tot_abs_Q>
0

> <r_epik_Metal_State_Penalty>
-0

> <b_epik_Metal_Only>
0

> <s_lp_Force_Field>
OPLS_2005

> <r_lp_Energy>
54.435

> <b_lp_Chiralities_Consistent>
1

> <s_lp_Variant>
AV-unprocessed.smi:279-1

> <Gold.Version>
5.8.1

> <Gold.Id.Protein>
6NUR|6NUR_protein|mol2

> <Gold.PLP.Fitness>
46.2068

> <Gold.PLP.PLP>
-32.7686

> <Gold.PLP.part.hbond>
-5.9677

> <Gold.PLP.part.metal>
0.0000

> <Gold.PLP.part.buried>
-2.4675

> <Gold.PLP.part.nonpolar>
-24.5161

> <Gold.PLP.part.repulsive>
0.1775

> <Gold.PLP.ligand.clash>
0.0202

> <Gold.PLP.ligand.torsion>
1.5550

> <Gold.PLP.Chemscore.Hbond>
4.2553

> <Gold.PLP.Chemscore.CHOScore>
1.0000

> <Gold.PLP.Chemscore.Metal>
0.0000

> <Gold.Chemscore.Hbonds>
donor molecule, donor type, donor heavy atom, donor atom, acceptor molecule, acceptor atom, score
      L1  H    22    43       P1 10952  0.53
      L1  H    24    46       P1 10747  1.00
      P1  H  6931  6943       L1     3  1.00
      P1  H  6934  6947       L1     3  0.75
      P1  H 10785 10796       L1    22  0.95
      L1  C    16    37       P1  7948  1.00

> <Gold.PLP.Chemscore.Internal.Correction>
0.8027

> <Gold.Rescore>
     Score         DG    S(hbond)    S(metal)    S(lipo)     H(rot)  DE(clash)    DE(int)     intcor
     16.29     -20.23       3.88        0.00      79.48       2.94       1.34       2.60       ----

> <Gold.Chemscore.Fitness>
16.2938

> <Gold.Chemscore.DG>
-20.2277

> <Gold.Chemscore.ZeroCoef>
-5.4800

> <Gold.Chemscore.Hbond>
3.8816

> <Gold.Chemscore.Metal>
0.0000

> <Gold.Chemscore.Lipo>
79.4813

> <Gold.Chemscore.Internal_Hbond>
0.0000

> <Gold.Chemscore.DEClash>
1.3379

> <Gold.Chemscore.DEInternal>
2.5961

> <Gold.Chemscore.Rot>
2.9360

> <Gold.Chemscore.Internal.Correction>
   9.000000E+99

> <Gold.Chemscore.Hbonds>
donor molecule, donor type, donor heavy atom, donor atom, acceptor molecule, acceptor atom, score
      L1  H    22    43       P1 10952  0.41
      L1  H    24    46       P1 10747  0.92
      P1  H  6931  6943       L1     3  0.95
      P1  H  6934  6947       L1     3  0.50
      P1  H 10785 10796       L1    22  0.21

> <Gold.Chemscore.Hbond.Weighted>
-12.9645

> <Gold.Chemscore.Metal.Weighted>
-0.0000

> <Gold.Chemscore.Lipo.Weighted>
-9.2993

> <Gold.Chemscore.Internal_Hbond.Weighted>
0.0000

> <Gold.Chemscore.DEClash.Weighted>
1.3379

> <Gold.Chemscore.DEInternal.Weighted>
2.5961

> <Gold.Chemscore.Rot.Weighted>
7.5161

> <Gold.Chemscore.Internal.Correction.Weighted>
   9.000000E+99

> <Gold.Protein.RotatedTorsions>
[ 6907 6896 6895 6894 ] final  -87.52 input  -60.11 | X-H torsion
[ 7974 7965 7964 7962 ] final -105.69 input  175.53 | X-H torsion
[ 8008 7997 7996 7995 ] final  -66.64 input   59.86 | X-H torsion
[ 10167 10162 10161 10158 ] final   83.86 input  -65.29 | X-H torsion
[ 10718 10713 10712 10709 ] final   43.92 input   66.30 | X-H torsion
[ 10763 10752 10751 10750 ] final -164.95 input  -60.55 | X-H torsion
[ 11005 11000 10999 10996 ] final  -16.48 input  -57.11 | X-H torsion

> <Gold.Protein.ActiveResidues>
 VAL166  LYS551  ARG553  GLY616  TRP617  ASP618  TYR619  PRO620  LYS621  CYS622 
 ASP623  PHE694  ASN695  SER759  ASP760  ASP761  ALA762  ILE779  LEU786  VAL792 
 PHE793  MET794  SER795  GLU796  ALA797  LYS798  CYS799  TRP800  GLU811  SER814 

> <Gold.Protein.RotatedAtoms>
  150.6866  134.2883  159.4655 H   0  0  0  0  0  0  0  0  0  0  0  0  # atno 6907 bound_to 6896
  152.0791  134.9481  160.0583 H   0  0  0  0  0  0  0  0  0  0  0  0  # atno 6908 bound_to 6896
  152.0841  133.4132  159.4551 H   0  0  0  0  0  0  0  0  0  0  0  0  # atno 6909 bound_to 6896
  145.2273  140.9157  143.3225 H   0  0  0  0  0  0  0  0  0  0  0  0  # atno 7974 bound_to 7965
  154.4748  140.0908  156.7234 H   0  0  0  0  0  0  0  0  0  0  0  0  # atno 8008 bound_to 7997
  155.4627  140.3461  155.4296 H   0  0  0  0  0  0  0  0  0  0  0  0  # atno 8009 bound_to 7997
  156.1098  140.1444  156.9343 H   0  0  0  0  0  0  0  0  0  0  0  0  # atno 8010 bound_to 7997
  139.9140  144.6254  150.8508 H   0  0  0  0  0  0  0  0  0  0  0  0  # atno 10167 bound_to 10162
  157.4212  130.7970  149.7517 H   0  0  0  0  0  0  0  0  0  0  0  0  # atno 10718 bound_to 10713
  154.6979  135.2982  154.9385 H   0  0  0  0  0  0  0  0  0  0  0  0  # atno 10763 bound_to 10752
  154.0327  135.6668  153.4786 H   0  0  0  0  0  0  0  0  0  0  0  0  # atno 10764 bound_to 10752
  153.0659  135.5088  154.8106 H   0  0  0  0  0  0  0  0  0  0  0  0  # atno 10765 bound_to 10752
  140.8071  133.8169  155.9527 H   0  0  0  0  0  0  0  0  0  0  0  0  # atno 11005 bound_to 11000
  144.9709  139.3881  143.6309 LP  0  0  0  0  0  0  0  0  0  0  0  0  # atno 17320 bound_to 7965
  146.3361  139.8807  142.8825 LP  0  0  0  0  0  0  0  0  0  0  0  0  # atno 17321 bound_to 7965
  140.7678  143.3345  151.2339 LP  0  0  0  0  0  0  0  0  0  0  0  0  # atno 17342 bound_to 10162
  139.6918  143.9679  152.2863 LP  0  0  0  0  0  0  0  0  0  0  0  0  # atno 17343 bound_to 10162
  155.9881  130.3961  150.3133 LP  0  0  0  0  0  0  0  0  0  0  0  0  # atno 17370 bound_to 10713
  157.1281  131.0264  151.2981 LP  0  0  0  0  0  0  0  0  0  0  0  0  # atno 17371 bound_to 10713
  140.9235  134.2111  157.4911 LP  0  0  0  0  0  0  0  0  0  0  0  0  # atno 17394 bound_to 11000
  139.8717  134.9802  156.5068 LP  0  0  0  0  0  0  0  0  0  0  0  0  # atno 17395 bound_to 11000

$$$$
