AV-unprocessed.smi:712|AV-procd|sdf|3473|dock5
  -GOLD-   22720 0463D 1   1.00000     0.00000
 Structure written by MMmdl.
 50 51  0  0  0  0  0  0  0  0  1 V2000
  150.7642  142.7475  157.4233 C   0  0  0  0  0  0  0  0  0  0  0  0
  150.8398  141.5100  156.5531 C   0  0  0  0  0  0  0  0  0  0  0  0
  149.8147  141.2329  155.5683 C   0  0  0  0  0  0  0  0  0  0  0  0
  149.9177  140.1303  154.8098 C   0  0  0  0  0  0  0  0  0  0  0  0
  150.9936  139.2338  154.9441 N   0  0  0  0  0  0  0  0  0  0  0  0
  151.0098  138.0597  154.0561 C   0  0  0  0  0  0  0  0  0  0  0  0
  150.9254  136.7293  154.8168 C   0  0  0  0  0  0  0  0  0  0  0  0
  151.7149  136.4767  155.7275 O   0  0  0  0  0  0  0  0  0  0  0  0
  149.9373  135.9011  154.4454 N   0  0  0  0  0  0  0  0  0  0  0  0
  149.6542  134.5928  155.0297 C   0  0  0  0  0  0  0  0  0  0  0  0
  148.1840  134.1756  154.8451 C   0  0  1  0  0  0  0  0  0  0  0  0
  147.9297  133.3058  153.5958 C   0  0  0  0  0  0  0  0  0  0  0  0
  146.5306  132.9082  153.4763 N   0  0  0  0  0  0  0  0  0  0  0  0
  146.3292  132.0986  152.2704 C   0  0  0  0  0  0  0  0  0  0  0  0
  146.3602  132.8242  150.9024 C   0  0  0  0  0  0  0  0  0  0  0  0
  145.8095  134.2596  150.9471 C   0  0  0  0  0  0  0  0  0  0  0  0
  145.7666  131.9962  149.7497 C   0  0  0  0  0  0  0  0  0  0  0  0
  146.1305  132.2256  154.7039 C   0  0  0  0  0  0  0  0  0  0  0  0
  146.3913  133.0838  155.9538 C   0  0  0  0  0  0  0  0  0  0  0  0
  147.7618  133.4635  156.0053 O   0  0  0  0  0  0  0  0  0  0  0  0
  151.9898  139.4335  155.8589 C   0  0  0  0  0  0  0  0  0  0  0  0
  152.9308  138.6494  155.9848 O   0  0  0  0  0  0  0  0  0  0  0  0
  151.8688  140.6437  156.6799 C   0  0  0  0  0  0  0  0  0  0  0  0
  149.8172  143.2699  157.2852 H   0  0  0  0  0  0  0  0  0  0  0  0
  151.5730  143.4347  157.1741 H   0  0  0  0  0  0  0  0  0  0  0  0
  150.8530  142.4782  158.4761 H   0  0  0  0  0  0  0  0  0  0  0  0
  148.9752  141.9013  155.4444 H   0  0  0  0  0  0  0  0  0  0  0  0
  149.1853  139.8631  154.0621 H   0  0  0  0  0  0  0  0  0  0  0  0
  150.1774  138.0981  153.3524 H   0  0  0  0  0  0  0  0  0  0  0  0
  151.9084  138.0752  153.4360 H   0  0  0  0  0  0  0  0  0  0  0  0
  149.3299  136.1996  153.6961 H   0  0  0  0  0  0  0  0  0  0  0  0
  150.3015  133.8635  154.5419 H   0  0  0  0  0  0  0  0  0  0  0  0
  149.9189  134.5688  156.0879 H   0  0  0  0  0  0  0  0  0  0  0  0
  147.5869  135.0859  154.7664 H   0  0  0  0  0  0  0  0  0  0  0  0
  148.2333  133.8605  152.7073 H   0  0  0  0  0  0  0  0  0  0  0  0
  148.5559  132.4134  153.6329 H   0  0  0  0  0  0  0  0  0  0  0  0
  147.1289  131.3572  152.2369 H   0  0  0  0  0  0  0  0  0  0  0  0
  145.4096  131.5183  152.3606 H   0  0  0  0  0  0  0  0  0  0  0  0
  147.4187  132.9191  150.6563 H   0  0  0  0  0  0  0  0  0  0  0  0
  144.7354  134.2756  151.1314 H   0  0  0  0  0  0  0  0  0  0  0  0
  145.9874  134.7746  150.0029 H   0  0  0  0  0  0  0  0  0  0  0  0
  146.2920  134.8400  151.7338 H   0  0  0  0  0  0  0  0  0  0  0  0
  144.6883  131.8760  149.8275 H   0  0  0  0  0  0  0  0  0  0  0  0
  146.2095  131.0005  149.7133 H   0  0  0  0  0  0  0  0  0  0  0  0
  145.9667  132.4742  148.7903 H   0  0  0  0  0  0  0  0  0  0  0  0
  145.0687  131.9926  154.6766 H   0  0  0  0  0  0  0  0  0  0  0  0
  146.6639  131.2780  154.7940 H   0  0  0  0  0  0  0  0  0  0  0  0
  145.7616  133.9747  155.9470 H   0  0  0  0  0  0  0  0  0  0  0  0
  146.1435  132.5245  156.8559 H   0  0  0  0  0  0  0  0  0  0  0  0
  152.6372  140.8451  157.4124 H   0  0  0  0  0  0  0  0  0  0  0  0
  1  2  1  0  0  0  0
  1 24  1  0  0  0  0
  1 25  1  0  0  0  0
  1 26  1  0  0  0  0
  2 23  2  0  0  0  0
  2  3  1  0  0  0  0
  3  4  2  0  0  0  0
  3 27  1  0  0  0  0
  4  5  1  0  0  0  0
  4 28  1  0  0  0  0
  5  6  1  0  0  0  0
  5 21  1  0  0  0  0
  6  7  1  0  0  0  0
  6 29  1  0  0  0  0
  6 30  1  0  0  0  0
  7  8  2  0  0  0  0
  7  9  1  0  0  0  0
  9 10  1  0  0  0  0
  9 31  1  0  0  0  0
 10 11  1  0  0  0  0
 10 32  1  0  0  0  0
 10 33  1  0  0  0  0
 11 20  1  0  0  0  0
 11 12  1  0  0  0  0
 11 34  1  0  0  0  0
 12 13  1  0  0  0  0
 12 35  1  0  0  0  0
 12 36  1  0  0  0  0
 13 14  1  0  0  0  0
 13 18  1  0  0  0  0
 14 15  1  0  0  0  0
 14 37  1  0  0  0  0
 14 38  1  0  0  0  0
 15 16  1  0  0  0  0
 15 17  1  0  0  0  0
 15 39  1  0  0  0  0
 16 40  1  0  0  0  0
 16 41  1  0  0  0  0
 16 42  1  0  0  0  0
 17 43  1  0  0  0  0
 17 44  1  0  0  0  0
 17 45  1  0  0  0  0
 18 19  1  0  0  0  0
 18 46  1  0  0  0  0
 18 47  1  0  0  0  0
 19 20  1  0  0  0  0
 19 48  1  0  0  0  0
 19 49  1  0  0  0  0
 21 22  2  0  0  0  0
 21 23  1  0  0  0  0
 23 50  1  0  0  0  0
M  END
> <s_m_source_file>
AV-unprocessed.smi

> <i_m_source_file_index>
712

> <i_lp_mmshare_version>
43012

> <i_f3d_flags>
0

> <s_epik_input>
W0NIM11jMVtjSF1bY0hdbihjKD1PKVtjSF0xKVtDSDJdQyg9TylbTkhdW0NIMl1bQ0BASF0yW0NIMl1OKFtDSDJdW0NIMl1PMilbQ0gyXVtDSF0oW0NIM10pW0NIM10=

> <s_epik_cmdline>
J2VwaWtfcHl0aG9uJywgJy1waCcsICc3LjAnLCAnLXRuJywgJzgnLCAnLW1hJywgJzIwMCcsICctbWV0YWxfYmluZGluZycsICctaW1hZScsICc8aW5maWxlLm1hZT4nLCAnLW9tYWUnLCAnPG91dGZpbGUubWFlPic=

> <r_lp_tautomer_probability>
1

> <r_epik_Ionization_Penalty>
1.11669

> <r_epik_Ionization_Penalty_Charging>
4.93496e-07

> <r_epik_Ionization_Penalty_Neutral>
1.11669

> <r_epik_State_Penalty>
1.17516

> <r_epik_Charging_Adjusted_Penalty>
1.17516

> <i_epik_Tot_Q>
0

> <i_epik_Tot_abs_Q>
0

> <r_epik_Metal_State_Penalty>
1.17513

> <b_epik_Metal_Only>
0

> <s_lp_Force_Field>
OPLS_2005

> <r_lp_Energy>
40.1187

> <b_lp_Chiralities_Consistent>
1

> <s_lp_Variant>
AV-unprocessed.smi:712-6

> <Gold.Version>
5.8.1

> <Gold.Id.Protein>
6NUR|6NUR_protein|mol2

> <Gold.PLP.Fitness>
48.8793

> <Gold.PLP.PLP>
-42.1096

> <Gold.PLP.part.hbond>
-3.7974

> <Gold.PLP.part.metal>
0.0000

> <Gold.PLP.part.buried>
-4.4473

> <Gold.PLP.part.nonpolar>
-34.9310

> <Gold.PLP.part.repulsive>
0.2075

> <Gold.PLP.ligand.clash>
0.0000

> <Gold.PLP.ligand.torsion>
1.0133

> <Gold.PLP.Chemscore.Hbond>
2.8960

> <Gold.PLP.Chemscore.CHOScore>
0.0000

> <Gold.PLP.Chemscore.Metal>
0.0000

> <Gold.Chemscore.Hbonds>
donor molecule, donor type, donor heavy atom, donor atom, acceptor molecule, acceptor atom, score
      L1  H     9    31       P1  7948  0.94
      P1  H  7997  8008       L1    22  0.62
      P1  H 10752 10763       L1     8  1.00

> <Gold.PLP.Chemscore.Internal.Correction>
0.1084

> <Gold.Rescore>
     Score         DG    S(hbond)    S(metal)    S(lipo)     H(rot)  DE(clash)    DE(int)     intcor
     15.98     -18.36       2.30        0.00      84.34       1.82       0.03       2.35       ----

> <Gold.Chemscore.Fitness>
15.9786

> <Gold.Chemscore.DG>
-18.3567

> <Gold.Chemscore.ZeroCoef>
-5.4800

> <Gold.Chemscore.Hbond>
2.2993

> <Gold.Chemscore.Metal>
0.0000

> <Gold.Chemscore.Lipo>
84.3375

> <Gold.Chemscore.Internal_Hbond>
0.0000

> <Gold.Chemscore.DEClash>
0.0262

> <Gold.Chemscore.DEInternal>
2.3519

> <Gold.Chemscore.Rot>
1.8243

> <Gold.Chemscore.Internal.Correction>
   9.000000E+99

> <Gold.Chemscore.Hbonds>
donor molecule, donor type, donor heavy atom, donor atom, acceptor molecule, acceptor atom, score
      L1  H     9    31       P1  7948  0.75
      P1  H  7997  8008       L1    22  0.07
      P1  H 10752 10763       L1     8  0.60

> <Gold.Chemscore.Hbond.Weighted>
-7.6795

> <Gold.Chemscore.Metal.Weighted>
-0.0000

> <Gold.Chemscore.Lipo.Weighted>
-9.8675

> <Gold.Chemscore.Internal_Hbond.Weighted>
0.0000

> <Gold.Chemscore.DEClash.Weighted>
0.0262

> <Gold.Chemscore.DEInternal.Weighted>
2.3519

> <Gold.Chemscore.Rot.Weighted>
4.6703

> <Gold.Chemscore.Internal.Correction.Weighted>
   9.000000E+99

> <Gold.Protein.RotatedTorsions>
[ 6907 6896 6895 6894 ] final   45.66 input  -60.11 | X-H torsion
[ 7974 7965 7964 7962 ] final -147.76 input  175.53 | X-H torsion
[ 8008 7997 7996 7995 ] final  -25.27 input   59.86 | X-H torsion
[ 10167 10162 10161 10158 ] final   18.15 input  -65.29 | X-H torsion
[ 10718 10713 10712 10709 ] final -117.89 input   66.30 | X-H torsion
[ 10763 10752 10751 10750 ] final   84.88 input  -60.55 | X-H torsion
[ 11005 11000 10999 10996 ] final  -67.76 input  -57.11 | X-H torsion

> <Gold.Protein.ActiveResidues>
 VAL166  LYS551  ARG553  GLY616  TRP617  ASP618  TYR619  PRO620  LYS621  CYS622 
 ASP623  PHE694  ASN695  SER759  ASP760  ASP761  ALA762  ILE779  LEU786  VAL792 
 PHE793  MET794  SER795  GLU796  ALA797  LYS798  CYS799  TRP800  GLU811  SER814 

> <Gold.Protein.RotatedAtoms>
  152.2472  134.8169  160.0451 H   0  0  0  0  0  0  0  0  0  0  0  0  # atno 6907 bound_to 6896
  151.8862  133.3501  159.3791 H   0  0  0  0  0  0  0  0  0  0  0  0  # atno 6908 bound_to 6896
  150.7072  134.4895  159.5553 H   0  0  0  0  0  0  0  0  0  0  0  0  # atno 6909 bound_to 6896
  144.8072  140.5285  143.5667 H   0  0  0  0  0  0  0  0  0  0  0  0  # atno 7974 bound_to 7965
  154.4485  140.1931  156.0593 H   0  0  0  0  0  0  0  0  0  0  0  0  # atno 8008 bound_to 7997
  156.0595  140.3298  155.7417 H   0  0  0  0  0  0  0  0  0  0  0  0  # atno 8009 bound_to 7997
  155.5434  140.0588  157.2856 H   0  0  0  0  0  0  0  0  0  0  0  0  # atno 8010 bound_to 7997
  140.5674  143.9225  150.6687 H   0  0  0  0  0  0  0  0  0  0  0  0  # atno 10167 bound_to 10162
  156.1066  130.6215  150.9221 H   0  0  0  0  0  0  0  0  0  0  0  0  # atno 10718 bound_to 10713
  153.1422  135.4638  154.9513 H   0  0  0  0  0  0  0  0  0  0  0  0  # atno 10763 bound_to 10752
  154.7757  135.3172  154.8100 H   0  0  0  0  0  0  0  0  0  0  0  0  # atno 10764 bound_to 10752
  153.8621  135.6911  153.4836 H   0  0  0  0  0  0  0  0  0  0  0  0  # atno 10765 bound_to 10752
  141.1516  133.6726  156.6343 H   0  0  0  0  0  0  0  0  0  0  0  0  # atno 11005 bound_to 11000
  145.5409  139.1475  143.3447 LP  0  0  0  0  0  0  0  0  0  0  0  0  # atno 17320 bound_to 7965
  146.2366  140.5548  142.8952 LP  0  0  0  0  0  0  0  0  0  0  0  0  # atno 17321 bound_to 7965
  140.2691  143.3468  152.1254 LP  0  0  0  0  0  0  0  0  0  0  0  0  # atno 17342 bound_to 10162
  139.5100  144.6876  151.5845 LP  0  0  0  0  0  0  0  0  0  0  0  0  # atno 17343 bound_to 10162
  157.6243  131.0927  150.8563 LP  0  0  0  0  0  0  0  0  0  0  0  0  # atno 17370 bound_to 10713
  156.8681  130.5136  149.5298 LP  0  0  0  0  0  0  0  0  0  0  0  0  # atno 17371 bound_to 10713
  140.3443  134.7823  157.4420 LP  0  0  0  0  0  0  0  0  0  0  0  0  # atno 17394 bound_to 11000
  140.0913  134.5598  155.8442 LP  0  0  0  0  0  0  0  0  0  0  0  0  # atno 17395 bound_to 11000

$$$$
