AV-unprocessed.smi:3199|AV-procd|sdf|12234|dock5
  -GOLD-   2272018 63D 1   1.00000     0.00000
 Structure written by MMmdl.
 36 37  0  0  0  0  0  0  0  0  2 V2000
  146.5681  138.6884  152.0089 C   0  0  0  0  0  0  0  0  0  0  0  0
  147.4902  139.4451  152.9417 C   0  0  0  0  0  0  0  0  0  0  0  0
  147.2100  140.7574  153.3793 C   0  0  0  0  0  0  0  0  0  0  0  0
  148.1179  141.4039  154.2434 C   0  0  0  0  0  0  0  0  0  0  0  0
  149.2882  140.7271  154.6511 C   0  0  0  0  0  0  0  0  0  0  0  0
  150.2876  141.3996  155.5720 C   0  0  0  0  0  0  0  0  0  0  0  0
  149.7045  141.6783  156.9636 C   0  0  0  0  0  0  0  0  0  0  0  0
  150.6355  142.4700  157.7546 N   0  0  0  0  0  0  0  0  0  0  0  0
  151.4686  141.9682  158.6771 C   0  0  0  0  0  0  0  0  0  0  0  0
  151.5270  140.7685  158.9482 O   0  0  0  0  0  0  0  0  0  0  0  0
  152.3797  142.9810  159.3818 C   0  0  1  0  0  0  0  0  0  0  0  0
  152.2083  144.4417  158.9198 C   0  0  0  0  0  0  0  0  0  0  0  0
  151.6151  145.1356  160.1310 C   0  0  0  0  0  0  0  0  0  0  0  0
  152.1614  144.2942  161.2757 C   0  0  0  0  0  0  0  0  0  0  0  0
  152.0598  142.9725  160.7714 O   0  0  0  0  0  0  0  0  0  0  0  0
  149.5142  139.4143  154.1847 C   0  0  0  0  0  0  0  0  0  0  0  0
  148.6195  138.8292  153.3581 N   0  3  0  0  0  0  0  0  0  0  0  0
  145.6580  139.2557  151.8109 H   0  0  0  0  0  0  0  0  0  0  0  0
  146.2834  137.7311  152.4464 H   0  0  0  0  0  0  0  0  0  0  0  0
  147.0646  138.4991  151.0568 H   0  0  0  0  0  0  0  0  0  0  0  0
  146.3123  141.2657  153.0576 H   0  0  0  0  0  0  0  0  0  0  0  0
  147.9172  142.4087  154.5865 H   0  0  0  0  0  0  0  0  0  0  0  0
  151.1711  140.7651  155.6574 H   0  0  0  0  0  0  0  0  0  0  0  0
  150.6220  142.3314  155.1132 H   0  0  0  0  0  0  0  0  0  0  0  0
  148.7592  142.2167  156.8768 H   0  0  0  0  0  0  0  0  0  0  0  0
  149.4963  140.7382  157.4777 H   0  0  0  0  0  0  0  0  0  0  0  0
  150.6564  143.4654  157.5862 H   0  0  0  0  0  0  0  0  0  0  0  0
  153.4231  142.6844  159.2595 H   0  0  0  0  0  0  0  0  0  0  0  0
  153.1852  144.8684  158.6895 H   0  0  0  0  0  0  0  0  0  0  0  0
  151.5856  144.5670  158.0332 H   0  0  0  0  0  0  0  0  0  0  0  0
  151.8934  146.1874  160.2018 H   0  0  0  0  0  0  0  0  0  0  0  0
  150.5267  145.0685  160.1061 H   0  0  0  0  0  0  0  0  0  0  0  0
  153.2079  144.5325  161.4729 H   0  0  0  0  0  0  0  0  0  0  0  0
  151.5964  144.4181  162.1998 H   0  0  0  0  0  0  0  0  0  0  0  0
  150.3779  138.8190  154.4434 H   0  0  0  0  0  0  0  0  0  0  0  0
  148.8057  137.8804  153.0322 H   0  0  0  0  0  0  0  0  0  0  0  0
  1  2  1  0  0  0  0
  1 18  1  0  0  0  0
  1 19  1  0  0  0  0
  1 20  1  0  0  0  0
  2 17  1  0  0  0  0
  2  3  2  0  0  0  0
  3  4  1  0  0  0  0
  3 21  1  0  0  0  0
  4  5  2  0  0  0  0
  4 22  1  0  0  0  0
  5  6  1  0  0  0  0
  5 16  1  0  0  0  0
  6  7  1  0  0  0  0
  6 23  1  0  0  0  0
  6 24  1  0  0  0  0
  7  8  1  0  0  0  0
  7 25  1  0  0  0  0
  7 26  1  0  0  0  0
  8  9  1  0  0  0  0
  8 27  1  0  0  0  0
  9 10  2  0  0  0  0
  9 11  1  0  0  0  0
 11 15  1  0  0  0  0
 11 12  1  0  0  0  0
 11 28  1  0  0  0  0
 12 13  1  0  0  0  0
 12 29  1  0  0  0  0
 12 30  1  0  0  0  0
 13 14  1  0  0  0  0
 13 31  1  0  0  0  0
 13 32  1  0  0  0  0
 14 15  1  0  0  0  0
 14 33  1  0  0  0  0
 14 34  1  0  0  0  0
 16 17  2  0  0  0  0
 16 35  1  0  0  0  0
 17 36  1  0  0  0  0
M  CHG  1  17   1
M  END
> <s_m_source_file>
AV-unprocessed.smi

> <i_m_source_file_index>
3199

> <i_lp_mmshare_version>
43012

> <i_f3d_flags>
0

> <s_epik_input>
W0NIM11jMVtjSF1bY0hdYyhbY0hdbjEpW0NIMl1bQ0gyXVtOSF1DKD1PKVtDQEBIXTJbQ0gyXVtDSDJdW0NIMl1PMg==

> <s_epik_cmdline>
J2VwaWtfcHl0aG9uJywgJy1waCcsICc3LjAnLCAnLXRuJywgJzgnLCAnLW1hJywgJzIwMCcsICctbWV0YWxfYmluZGluZycsICctaW1hZScsICc8aW5maWxlLm1hZT4nLCAnLW9tYWUnLCAnPG91dGZpbGUubWFlPic=

> <r_epik_Ionization_Penalty>
1.4683

> <r_epik_Ionization_Penalty_Charging>
1.4683

> <r_epik_Ionization_Penalty_Neutral>
5.71603e-08

> <r_epik_State_Penalty>
1.5559

> <r_epik_Charging_Adjusted_Penalty>
3.0242

> <i_epik_Tot_Q>
1

> <i_epik_Tot_abs_Q>
1

> <r_epik_Metal_State_Penalty>
1.60421

> <b_epik_Metal_Only>
0

> <s_lp_Force_Field>
OPLS_2005

> <r_lp_Energy>
24.4706

> <b_lp_Chiralities_Consistent>
1

> <s_lp_Variant>
AV-unprocessed.smi:3199-4

> <Gold.Version>
5.8.1

> <Gold.Id.Protein>
6NUR|6NUR_protein|mol2

> <Gold.PLP.Fitness>
48.5687

> <Gold.PLP.PLP>
-42.9511

> <Gold.PLP.part.hbond>
-2.0561

> <Gold.PLP.part.metal>
0.0000

> <Gold.PLP.part.buried>
-2.7946

> <Gold.PLP.part.nonpolar>
-38.6385

> <Gold.PLP.part.repulsive>
0.1617

> <Gold.PLP.ligand.clash>
0.0000

> <Gold.PLP.ligand.torsion>
0.1957

> <Gold.PLP.Chemscore.Hbond>
2.0000

> <Gold.PLP.Chemscore.CHOScore>
0.0000

> <Gold.PLP.Chemscore.Metal>
0.0000

> <Gold.Chemscore.Hbonds>
donor molecule, donor type, donor heavy atom, donor atom, acceptor molecule, acceptor atom, score
      L1  H    17    36       P1  7948  2.00

> <Gold.PLP.Chemscore.Internal.Correction>
0.0089

> <Gold.Rescore>
     Score         DG    S(hbond)    S(metal)    S(lipo)     H(rot)  DE(clash)    DE(int)     intcor
     17.19     -17.55       0.99        0.00     109.11       1.56       0.18       0.17       ----

> <Gold.Chemscore.Fitness>
17.1917

> <Gold.Chemscore.DG>
-17.5494

> <Gold.Chemscore.ZeroCoef>
-5.4800

> <Gold.Chemscore.Hbond>
0.9880

> <Gold.Chemscore.Metal>
0.0000

> <Gold.Chemscore.Lipo>
109.1137

> <Gold.Chemscore.Internal_Hbond>
0.0000

> <Gold.Chemscore.DEClash>
0.1840

> <Gold.Chemscore.DEInternal>
0.1736

> <Gold.Chemscore.Rot>
1.5613

> <Gold.Chemscore.Internal.Correction>
   9.000000E+99

> <Gold.Chemscore.Hbonds>
donor molecule, donor type, donor heavy atom, donor atom, acceptor molecule, acceptor atom, score
      L1  H    17    36       P1  7948  0.96

> <Gold.Chemscore.Hbond.Weighted>
-3.3000

> <Gold.Chemscore.Metal.Weighted>
-0.0000

> <Gold.Chemscore.Lipo.Weighted>
-12.7663

> <Gold.Chemscore.Internal_Hbond.Weighted>
0.0000

> <Gold.Chemscore.DEClash.Weighted>
0.1840

> <Gold.Chemscore.DEInternal.Weighted>
0.1736

> <Gold.Chemscore.Rot.Weighted>
3.9969

> <Gold.Chemscore.Internal.Correction.Weighted>
   9.000000E+99

> <Gold.Protein.RotatedTorsions>
[ 6907 6896 6895 6894 ] final -129.47 input  -60.11 | X-H torsion
[ 7974 7965 7964 7962 ] final    4.35 input  175.53 | X-H torsion
[ 8008 7997 7996 7995 ] final    0.21 input   59.86 | X-H torsion
[ 10167 10162 10161 10158 ] final   75.29 input  -65.29 | X-H torsion
[ 10718 10713 10712 10709 ] final  -77.28 input   66.30 | X-H torsion
[ 10763 10752 10751 10750 ] final  162.94 input  -60.55 | X-H torsion
[ 11005 11000 10999 10996 ] final  106.29 input  -57.11 | X-H torsion

> <Gold.Protein.ActiveResidues>
 VAL166  LYS551  ARG553  GLY616  TRP617  ASP618  TYR619  PRO620  LYS621  CYS622 
 ASP623  PHE694  ASN695  SER759  ASP760  ASP761  ALA762  ILE779  LEU786  VAL792 
 PHE793  MET794  SER795  GLU796  ALA797  LYS798  CYS799  TRP800  GLU811  SER814 

> <Gold.Protein.RotatedAtoms>
  150.9290  133.6789  159.2814 H   0  0  0  0  0  0  0  0  0  0  0  0  # atno 6907 bound_to 6896
  151.4217  135.0997  159.9625 H   0  0  0  0  0  0  0  0  0  0  0  0  # atno 6908 bound_to 6896
  152.5017  133.8741  159.7368 H   0  0  0  0  0  0  0  0  0  0  0  0  # atno 6909 bound_to 6896
  146.2444  140.0548  142.8372 H   0  0  0  0  0  0  0  0  0  0  0  0  # atno 7974 bound_to 7965
  154.6655  140.2600  155.7063 H   0  0  0  0  0  0  0  0  0  0  0  0  # atno 8008 bound_to 7997
  156.2637  140.2840  156.1066 H   0  0  0  0  0  0  0  0  0  0  0  0  # atno 8009 bound_to 7997
  155.1245  140.0377  157.2749 H   0  0  0  0  0  0  0  0  0  0  0  0  # atno 8010 bound_to 7997
  140.0045  144.5661  150.7709 H   0  0  0  0  0  0  0  0  0  0  0  0  # atno 10167 bound_to 10162
  156.0149  130.4487  150.3321 H   0  0  0  0  0  0  0  0  0  0  0  0  # atno 10718 bound_to 10713
  154.2862  135.2762  155.2675 H   0  0  0  0  0  0  0  0  0  0  0  0  # atno 10763 bound_to 10752
  154.5175  135.5765  153.6657 H   0  0  0  0  0  0  0  0  0  0  0  0  # atno 10764 bound_to 10752
  152.9921  135.6196  154.3024 H   0  0  0  0  0  0  0  0  0  0  0  0  # atno 10765 bound_to 10752
  139.8812  134.9364  156.5644 H   0  0  0  0  0  0  0  0  0  0  0  0  # atno 11005 bound_to 11000
  145.0952  140.9310  143.4745 LP  0  0  0  0  0  0  0  0  0  0  0  0  # atno 17320 bound_to 7965
  145.0729  139.3018  143.5823 LP  0  0  0  0  0  0  0  0  0  0  0  0  # atno 17321 bound_to 7965
  140.7406  143.2806  151.3609 LP  0  0  0  0  0  0  0  0  0  0  0  0  # atno 17342 bound_to 10162
  139.6248  144.0835  152.2424 LP  0  0  0  0  0  0  0  0  0  0  0  0  # atno 17343 bound_to 10162
  157.1419  131.0298  151.2924 LP  0  0  0  0  0  0  0  0  0  0  0  0  # atno 17370 bound_to 10713
  157.4465  130.7573  149.7114 LP  0  0  0  0  0  0  0  0  0  0  0  0  # atno 17371 bound_to 10713
  140.8145  133.8403  155.8839 LP  0  0  0  0  0  0  0  0  0  0  0  0  # atno 17394 bound_to 11000
  140.9476  134.1821  157.4752 LP  0  0  0  0  0  0  0  0  0  0  0  0  # atno 17395 bound_to 11000

$$$$
