AV-unprocessed.smi:809|AV-procd|sdf|3807|dock4
  -GOLD-   22720 1243D 1   1.00000     0.00000
 Structure written by MMmdl.
 39 40  0  0  0  0  0  0  0  0  3 V2000
  152.0483  144.8276  158.0704 C   0  0  0  0  0  0  0  0  0  0  0  0
  152.2263  143.8434  159.1836 C   0  0  0  0  0  0  0  0  0  0  0  0
  152.0366  144.0744  160.5210 C   0  0  0  0  0  0  0  0  0  0  0  0
  152.3526  142.6506  161.4706 S   0  0  0  0  0  0  0  0  0  0  0  0
  152.7490  141.7677  159.9945 C   0  0  0  0  0  0  0  0  0  0  0  0
  153.1163  140.4771  159.9431 N   0  5  0  0  0  0  0  0  0  0  0  0
  153.2896  139.8710  158.7469 C   0  0  0  0  0  0  0  0  0  0  0  0
  154.2839  139.2393  158.3834 O   0  0  0  0  0  0  0  0  0  0  0  0
  152.2462  140.0150  157.9186 N   0  0  0  0  0  0  0  0  0  0  0  0
  152.1611  139.5224  156.5461 C   0  0  0  0  0  0  0  0  0  0  0  0
  150.7158  139.4986  155.9778 C   0  0  1  0  0  0  0  0  0  0  0  0
  149.8488  139.1894  157.0548 O   0  0  0  0  0  0  0  0  0  0  0  0
  150.3258  140.9079  155.4773 C   0  0  0  0  0  0  0  0  0  0  0  0
  148.9399  140.9437  154.8080 C   0  0  0  0  0  0  0  0  0  0  0  0
  148.8551  139.9553  153.7062 N   0  3  2  0  0  0  0  0  0  0  0  0
  147.5843  140.0553  152.9567 C   0  0  0  0  0  0  0  0  0  0  0  0
  149.1232  138.5770  154.1815 C   0  0  0  0  0  0  0  0  0  0  0  0
  150.5131  138.4744  154.8342 C   0  0  0  0  0  0  0  0  0  0  0  0
  152.6235  142.5332  158.9045 N   0  0  0  0  0  0  0  0  0  0  0  0
  151.0169  145.1758  158.0172 H   0  0  0  0  0  0  0  0  0  0  0  0
  152.2990  144.3924  157.1023 H   0  0  0  0  0  0  0  0  0  0  0  0
  152.6856  145.7003  158.2136 H   0  0  0  0  0  0  0  0  0  0  0  0
  151.7306  144.9901  161.0038 H   0  0  0  0  0  0  0  0  0  0  0  0
  151.4528  140.5325  158.2670 H   0  0  0  0  0  0  0  0  0  0  0  0
  152.8413  140.0680  155.8893 H   0  0  0  0  0  0  0  0  0  0  0  0
  152.5484  138.5041  156.5853 H   0  0  0  0  0  0  0  0  0  0  0  0
  149.0488  138.8234  156.7120 H   0  0  0  0  0  0  0  0  0  0  0  0
  150.3579  141.6246  156.2994 H   0  0  0  0  0  0  0  0  0  0  0  0
  151.0651  141.2507  154.7519 H   0  0  0  0  0  0  0  0  0  0  0  0
  148.1563  140.7457  155.5410 H   0  0  0  0  0  0  0  0  0  0  0  0
  148.7556  141.9441  154.4141 H   0  0  0  0  0  0  0  0  0  0  0  0
  146.7324  139.8274  153.5986 H   0  0  0  0  0  0  0  0  0  0  0  0
  147.5763  139.3598  152.1170 H   0  0  0  0  0  0  0  0  0  0  0  0
  147.4518  141.0608  152.5558 H   0  0  0  0  0  0  0  0  0  0  0  0
  148.3486  138.2752  154.8881 H   0  0  0  0  0  0  0  0  0  0  0  0
  149.0685  137.8844  153.3406 H   0  0  0  0  0  0  0  0  0  0  0  0
  151.2749  138.6339  154.0699 H   0  0  0  0  0  0  0  0  0  0  0  0
  150.6557  137.4560  155.1981 H   0  0  0  0  0  0  0  0  0  0  0  0
  149.5919  140.1832  153.0539 H   0  0  0  0  0  0  0  0  0  0  0  0
  1  2  1  0  0  0  0
  1 20  1  0  0  0  0
  1 21  1  0  0  0  0
  1 22  1  0  0  0  0
  2 19  1  0  0  0  0
  2  3  2  0  0  0  0
  3  4  1  0  0  0  0
  3 23  1  0  0  0  0
  4  5  1  0  0  0  0
  5  6  1  0  0  0  0
  5 19  2  0  0  0  0
  6  7  1  0  0  0  0
  7  8  2  0  0  0  0
  7  9  1  0  0  0  0
  9 10  1  0  0  0  0
  9 24  1  0  0  0  0
 10 11  1  0  0  0  0
 10 25  1  0  0  0  0
 10 26  1  0  0  0  0
 11 18  1  0  0  0  0
 11 12  1  0  0  0  0
 11 13  1  0  0  0  0
 12 27  1  0  0  0  0
 13 14  1  0  0  0  0
 13 28  1  0  0  0  0
 13 29  1  0  0  0  0
 14 15  1  0  0  0  0
 14 30  1  0  0  0  0
 14 31  1  0  0  0  0
 15 16  1  0  0  0  0
 15 17  1  0  0  0  0
 15 39  1  0  0  0  0
 16 32  1  0  0  0  0
 16 33  1  0  0  0  0
 16 34  1  0  0  0  0
 17 18  1  0  0  0  0
 17 35  1  0  0  0  0
 17 36  1  0  0  0  0
 18 37  1  0  0  0  0
 18 38  1  0  0  0  0
M  CHG  1   6  -1
M  CHG  1  15   1
M  END
> <s_m_source_file>
AV-unprocessed.smi

> <i_m_source_file_index>
809

> <i_lp_mmshare_version>
43012

> <i_f3d_flags>
0

> <s_epik_input>
W0NIM11jMVtjSF1zYyhuMSlbTkhdQyg9TylbTkhdW0NIMl1DMihbT0hdKVtDSDJdW0NIMl1OKFtDSDNdKVtDSDJdW0NIMl0y

> <s_epik_cmdline>
J2VwaWtfcHl0aG9uJywgJy1waCcsICc3LjAnLCAnLXRuJywgJzgnLCAnLW1hJywgJzIwMCcsICctbWV0YWxfYmluZGluZycsICctaW1hZScsICc8aW5maWxlLm1hZT4nLCAnLW9tYWUnLCAnPG91dGZpbGUubWFlPic=

> <r_lp_tautomer_probability>
0.999

> <r_epik_Ionization_Penalty>
8.50704

> <r_epik_Ionization_Penalty_Charging>
6.65046

> <r_epik_Ionization_Penalty_Neutral>
1.85657

> <r_epik_State_Penalty>
6.64992

> <r_epik_Charging_Adjusted_Penalty>
13.3004

> <i_epik_Tot_Q>
0

> <i_epik_Tot_abs_Q>
2

> <r_epik_Metal_State_Penalty>
2.57297

> <b_epik_Metal_Only>
1

> <s_lp_Force_Field>
OPLS_2005

> <r_lp_Energy>
10.5193

> <b_lp_Chiralities_Consistent>
1

> <s_lp_Variant>
AV-unprocessed.smi:809-3

> <Gold.Version>
5.8.1

> <Gold.Id.Protein>
6NUR|6NUR_protein|mol2

> <Gold.PLP.Fitness>
42.3321

> <Gold.PLP.PLP>
-39.2238

> <Gold.PLP.part.hbond>
-2.0000

> <Gold.PLP.part.metal>
0.0000

> <Gold.PLP.part.buried>
-3.9238

> <Gold.PLP.part.nonpolar>
-33.2874

> <Gold.PLP.part.repulsive>
0.2194

> <Gold.PLP.ligand.clash>
0.0000

> <Gold.PLP.ligand.torsion>
0.9606

> <Gold.PLP.Chemscore.Hbond>
1.6720

> <Gold.PLP.Chemscore.CHOScore>
0.0000

> <Gold.PLP.Chemscore.Metal>
0.0000

> <Gold.Chemscore.Hbonds>
donor molecule, donor type, donor heavy atom, donor atom, acceptor molecule, acceptor atom, score
      L1  H    15    39       P1  7957  0.59
      P1  H  7997  8010       L1     8  0.91

> <Gold.PLP.Chemscore.Internal.Correction>
0.0134

> <Gold.Rescore>
     Score         DG    S(hbond)    S(metal)    S(lipo)     H(rot)  DE(clash)    DE(int)     intcor
     15.49     -17.91       1.83        0.00      93.76       1.82       0.07       2.34       ----

> <Gold.Chemscore.Fitness>
15.4943

> <Gold.Chemscore.DG>
-17.9097

> <Gold.Chemscore.ZeroCoef>
-5.4800

> <Gold.Chemscore.Hbond>
1.8309

> <Gold.Chemscore.Metal>
0.0000

> <Gold.Chemscore.Lipo>
93.7634

> <Gold.Chemscore.Internal_Hbond>
0.0000

> <Gold.Chemscore.DEClash>
0.0733

> <Gold.Chemscore.DEInternal>
2.3422

> <Gold.Chemscore.Rot>
1.8186

> <Gold.Chemscore.Internal.Correction>
   9.000000E+99

> <Gold.Chemscore.Hbonds>
donor molecule, donor type, donor heavy atom, donor atom, acceptor molecule, acceptor atom, score
      L1  H    15    39       P1  7957  0.60
      P1  H  7997  8010       L1     8  0.58

> <Gold.Chemscore.Hbond.Weighted>
-6.1152

> <Gold.Chemscore.Metal.Weighted>
-0.0000

> <Gold.Chemscore.Lipo.Weighted>
-10.9703

> <Gold.Chemscore.Internal_Hbond.Weighted>
0.0000

> <Gold.Chemscore.DEClash.Weighted>
0.0733

> <Gold.Chemscore.DEInternal.Weighted>
2.3422

> <Gold.Chemscore.Rot.Weighted>
4.6557

> <Gold.Chemscore.Internal.Correction.Weighted>
   9.000000E+99

> <Gold.Protein.RotatedTorsions>
[ 6907 6896 6895 6894 ] final  170.96 input  -60.11 | X-H torsion
[ 7974 7965 7964 7962 ] final   22.41 input  175.53 | X-H torsion
[ 8008 7997 7996 7995 ] final   11.35 input   59.86 | X-H torsion
[ 10167 10162 10161 10158 ] final    2.68 input  -65.29 | X-H torsion
[ 10718 10713 10712 10709 ] final  148.98 input   66.30 | X-H torsion
[ 10763 10752 10751 10750 ] final   33.31 input  -60.55 | X-H torsion
[ 11005 11000 10999 10996 ] final -150.76 input  -57.11 | X-H torsion

> <Gold.Protein.ActiveResidues>
 VAL166  LYS551  ARG553  GLY616  TRP617  ASP618  TYR619  PRO620  LYS621  CYS622 
 ASP623  PHE694  ASN695  SER759  ASP760  ASP761  ALA762  ILE779  LEU786  VAL792 
 PHE793  MET794  SER795  GLU796  ALA797  LYS798  CYS799  TRP800  GLU811  SER814 

> <Gold.Protein.RotatedAtoms>
  151.8077  133.3378  159.3545 H   0  0  0  0  0  0  0  0  0  0  0  0  # atno 6907 bound_to 6896
  150.7336  134.5693  159.5891 H   0  0  0  0  0  0  0  0  0  0  0  0  # atno 6908 bound_to 6896
  152.3097  134.7513  160.0390 H   0  0  0  0  0  0  0  0  0  0  0  0  # atno 6909 bound_to 6896
  146.2030  139.7889  142.8747 H   0  0  0  0  0  0  0  0  0  0  0  0  # atno 7974 bound_to 7965
  154.8058  140.2860  155.5888 H   0  0  0  0  0  0  0  0  0  0  0  0  # atno 8008 bound_to 7997
  156.2982  140.2578  156.2865 H   0  0  0  0  0  0  0  0  0  0  0  0  # atno 8009 bound_to 7997
  154.9505  140.0379  157.2131 H   0  0  0  0  0  0  0  0  0  0  0  0  # atno 8010 bound_to 7997
  140.6623  143.7271  150.7762 H   0  0  0  0  0  0  0  0  0  0  0  0  # atno 10167 bound_to 10162
  157.3018  131.0872  151.1384 H   0  0  0  0  0  0  0  0  0  0  0  0  # atno 10718 bound_to 10713
  153.0218  135.6390  154.1491 H   0  0  0  0  0  0  0  0  0  0  0  0  # atno 10763 bound_to 10752
  154.1225  135.2845  155.3206 H   0  0  0  0  0  0  0  0  0  0  0  0  # atno 10764 bound_to 10752
  154.6253  135.5511  153.7682 H   0  0  0  0  0  0  0  0  0  0  0  0  # atno 10765 bound_to 10752
  140.7368  134.3559  157.5156 H   0  0  0  0  0  0  0  0  0  0  0  0  # atno 11005 bound_to 11000
  145.3419  141.0289  143.3388 LP  0  0  0  0  0  0  0  0  0  0  0  0  # atno 17320 bound_to 7965
  144.8726  139.5016  143.6760 LP  0  0  0  0  0  0  0  0  0  0  0  0  # atno 17321 bound_to 7965
  140.0942  143.4849  152.2462 LP  0  0  0  0  0  0  0  0  0  0  0  0  # atno 17342 bound_to 10162
  139.5861  144.7531  151.3517 LP  0  0  0  0  0  0  0  0  0  0  0  0  # atno 17343 bound_to 10162
  157.2740  130.6718  149.6033 LP  0  0  0  0  0  0  0  0  0  0  0  0  # atno 17370 bound_to 10713
  155.9672  130.4470  150.5564 LP  0  0  0  0  0  0  0  0  0  0  0  0  # atno 17371 bound_to 10713
  139.8814  134.9054  156.2900 LP  0  0  0  0  0  0  0  0  0  0  0  0  # atno 17394 bound_to 11000
  140.9872  133.7231  156.0760 LP  0  0  0  0  0  0  0  0  0  0  0  0  # atno 17395 bound_to 11000

$$$$
