AV-unprocessed.smi:2880|AV-procd|sdf|11051|dock6
  -GOLD-   2272015523D 1   1.00000     0.00000
 Structure written by MMmdl.
 47 48  0  0  0  0  0  0  0  0  1 V2000
  144.0594  131.2277  150.7917 C   0  0  0  0  0  0  0  0  0  0  0  0
  144.5785  132.4102  149.9485 C   0  0  0  0  0  0  0  0  0  0  0  0
  145.9464  132.0059  149.3490 C   0  0  0  0  0  0  0  0  0  0  0  0
  143.5937  132.7002  148.8008 C   0  0  0  0  0  0  0  0  0  0  0  0
  144.6838  133.6085  150.7920 N   0  0  0  0  0  0  0  0  0  0  0  0
  143.6622  134.3202  151.4005 C   0  0  0  0  0  0  0  0  0  0  0  0
  144.2126  135.4002  152.0300 C   0  0  0  0  0  0  0  0  0  0  0  0
  145.5956  135.2793  151.7309 C   0  0  0  0  0  0  0  0  0  0  0  0
  146.5291  136.2338  152.2092 N   0  0  0  0  0  0  0  0  0  0  0  0
  146.2845  137.2950  152.9972 C   0  0  0  0  0  0  0  0  0  0  0  0
  145.1770  137.6177  153.4280 O   0  0  0  0  0  0  0  0  0  0  0  0
  147.4110  137.9749  153.2570 N   0  0  0  0  0  0  0  0  0  0  0  0
  147.5090  139.1935  154.0598 C   0  0  2  0  0  0  0  0  0  0  0  0
  146.4655  140.2073  153.5482 C   0  0  0  0  0  0  0  0  0  0  0  0
  146.5533  141.5451  154.2947 C   0  0  0  0  0  0  0  0  0  0  0  0
  147.9693  142.1267  154.2043 C   0  0  0  0  0  0  0  0  0  0  0  0
  149.0075  141.1295  154.7390 C   0  0  0  0  0  0  0  0  0  0  0  0
  148.9474  139.7717  154.0016 C   0  0  1  0  0  0  0  0  0  0  0  0
  149.9924  138.7847  154.5691 C   0  0  0  0  0  0  0  0  0  0  0  0
  151.2746  139.3754  154.6105 O   0  0  0  0  0  0  0  0  0  0  0  0
  145.8751  134.2266  150.9779 N   0  0  0  0  0  0  0  0  0  0  0  0
  144.0108  130.3126  150.2003 H   0  0  0  0  0  0  0  0  0  0  0  0
  143.0571  131.4095  151.1796 H   0  0  0  0  0  0  0  0  0  0  0  0
  144.7133  131.0331  151.6427 H   0  0  0  0  0  0  0  0  0  0  0  0
  146.6855  131.8224  150.1298 H   0  0  0  0  0  0  0  0  0  0  0  0
  146.3448  132.7759  148.6868 H   0  0  0  0  0  0  0  0  0  0  0  0
  145.8640  131.0925  148.7590 H   0  0  0  0  0  0  0  0  0  0  0  0
  143.4787  131.8344  148.1478 H   0  0  0  0  0  0  0  0  0  0  0  0
  143.9372  133.5330  148.1859 H   0  0  0  0  0  0  0  0  0  0  0  0
  142.6038  132.9583  149.1786 H   0  0  0  0  0  0  0  0  0  0  0  0
  142.6312  134.0059  151.3357 H   0  0  0  0  0  0  0  0  0  0  0  0
  143.7028  136.1582  152.6060 H   0  0  0  0  0  0  0  0  0  0  0  0
  147.4843  136.0994  151.9126 H   0  0  0  0  0  0  0  0  0  0  0  0
  148.2717  137.6310  152.8572 H   0  0  0  0  0  0  0  0  0  0  0  0
  147.2833  138.9716  155.1046 H   0  0  0  0  0  0  0  0  0  0  0  0
  146.6135  140.3822  152.4815 H   0  0  0  0  0  0  0  0  0  0  0  0
  145.4613  139.7953  153.6559 H   0  0  0  0  0  0  0  0  0  0  0  0
  145.8333  142.2508  153.8796 H   0  0  0  0  0  0  0  0  0  0  0  0
  146.2801  141.4013  155.3408 H   0  0  0  0  0  0  0  0  0  0  0  0
  148.1995  142.3764  153.1677 H   0  0  0  0  0  0  0  0  0  0  0  0
  148.0246  143.0591  154.7666 H   0  0  0  0  0  0  0  0  0  0  0  0
  150.0013  141.5678  154.6441 H   0  0  0  0  0  0  0  0  0  0  0  0
  148.8429  140.9749  155.8062 H   0  0  0  0  0  0  0  0  0  0  0  0
  149.1905  139.9502  152.9524 H   0  0  0  0  0  0  0  0  0  0  0  0
  149.7125  138.4583  155.5711 H   0  0  0  0  0  0  0  0  0  0  0  0
  150.0670  137.8891  153.9524 H   0  0  0  0  0  0  0  0  0  0  0  0
  151.9223  138.6903  154.5460 H   0  0  0  0  0  0  0  0  0  0  0  0
  1  2  1  0  0  0  0
  1 22  1  0  0  0  0
  1 23  1  0  0  0  0
  1 24  1  0  0  0  0
  2  3  1  0  0  0  0
  2  4  1  0  0  0  0
  2  5  1  0  0  0  0
  3 25  1  0  0  0  0
  3 26  1  0  0  0  0
  3 27  1  0  0  0  0
  4 28  1  0  0  0  0
  4 29  1  0  0  0  0
  4 30  1  0  0  0  0
  5 21  1  0  0  0  0
  5  6  1  0  0  0  0
  6  7  2  0  0  0  0
  6 31  1  0  0  0  0
  7  8  1  0  0  0  0
  7 32  1  0  0  0  0
  8  9  1  0  0  0  0
  8 21  2  0  0  0  0
  9 10  1  0  0  0  0
  9 33  1  0  0  0  0
 10 11  2  0  0  0  0
 10 12  1  0  0  0  0
 12 13  1  0  0  0  0
 12 34  1  0  0  0  0
 13 18  1  0  0  0  0
 13 14  1  0  0  0  0
 13 35  1  0  0  0  0
 14 15  1  0  0  0  0
 14 36  1  0  0  0  0
 14 37  1  0  0  0  0
 15 16  1  0  0  0  0
 15 38  1  0  0  0  0
 15 39  1  0  0  0  0
 16 17  1  0  0  0  0
 16 40  1  0  0  0  0
 16 41  1  0  0  0  0
 17 18  1  0  0  0  0
 17 42  1  0  0  0  0
 17 43  1  0  0  0  0
 18 19  1  0  0  0  0
 18 44  1  0  0  0  0
 19 20  1  0  0  0  0
 19 45  1  0  0  0  0
 19 46  1  0  0  0  0
 20 47  1  0  0  0  0
M  END
> <s_m_source_file>
AV-unprocessed.smi

> <i_m_source_file_index>
2880

> <i_lp_mmshare_version>
43012

> <i_f3d_flags>
0

> <s_epik_input>
W0NIM11DKFtDSDNdKShbQ0gzXSluMVtjSF1bY0hdYyhuMSlbTkhdQyg9TylbTkhdW0NAQEhdMltDSDJdW0NIMl1bQ0gyXVtDSDJdW0NASF0yW0NIMl1bT0hd

> <s_epik_cmdline>
J2VwaWtfcHl0aG9uJywgJy1waCcsICc3LjAnLCAnLXRuJywgJzgnLCAnLW1hJywgJzIwMCcsICctbWV0YWxfYmluZGluZycsICctaW1hZScsICc8aW5maWxlLm1hZT4nLCAnLW9tYWUnLCAnPG91dGZpbGUubWFlPic=

> <r_lp_tautomer_probability>
1

> <r_epik_Ionization_Penalty>
3.89283e-05

> <r_epik_Ionization_Penalty_Charging>
0

> <r_epik_Ionization_Penalty_Neutral>
3.89283e-05

> <r_epik_State_Penalty>
-0

> <r_epik_Charging_Adjusted_Penalty>
0

> <i_epik_Tot_Q>
0

> <i_epik_Tot_abs_Q>
0

> <r_epik_Metal_State_Penalty>
-0

> <b_epik_Metal_Only>
0

> <s_lp_Force_Field>
OPLS_2005

> <r_lp_Energy>
21.5121

> <b_lp_Chiralities_Consistent>
1

> <s_lp_Variant>
AV-unprocessed.smi:2880-1

> <Gold.Version>
5.8.1

> <Gold.Id.Protein>
6NUR|6NUR_protein|mol2

> <Gold.PLP.Fitness>
46.2713

> <Gold.PLP.PLP>
-35.4776

> <Gold.PLP.part.hbond>
-2.6699

> <Gold.PLP.part.metal>
0.0000

> <Gold.PLP.part.buried>
1.1309

> <Gold.PLP.part.nonpolar>
-35.9025

> <Gold.PLP.part.repulsive>
0.4178

> <Gold.PLP.ligand.clash>
0.0000

> <Gold.PLP.ligand.torsion>
0.1372

> <Gold.PLP.Chemscore.Hbond>
2.6765

> <Gold.PLP.Chemscore.CHOScore>
0.9927

> <Gold.PLP.Chemscore.Metal>
0.0000

> <Gold.Chemscore.Hbonds>
donor molecule, donor type, donor heavy atom, donor atom, acceptor molecule, acceptor atom, score
      L1  H     9    33       P1  7948  0.80
      L1  H    12    34       P1  7948  0.85
      P1  H  7989  7998       L1    20  1.00
      L1  C     6    31       P1 10186  0.99

> <Gold.PLP.Chemscore.Internal.Correction>
0.0605

> <Gold.Rescore>
     Score         DG    S(hbond)    S(metal)    S(lipo)     H(rot)  DE(clash)    DE(int)     intcor
     17.37     -21.37       2.68        0.00     102.38       1.97       1.21       2.78       ----

> <Gold.Chemscore.Fitness>
17.3720

> <Gold.Chemscore.DG>
-21.3651

> <Gold.Chemscore.ZeroCoef>
-5.4800

> <Gold.Chemscore.Hbond>
2.6773

> <Gold.Chemscore.Metal>
0.0000

> <Gold.Chemscore.Lipo>
102.3845

> <Gold.Chemscore.Internal_Hbond>
0.0000

> <Gold.Chemscore.DEClash>
1.2107

> <Gold.Chemscore.DEInternal>
2.7824

> <Gold.Chemscore.Rot>
1.9672

> <Gold.Chemscore.Internal.Correction>
   9.000000E+99

> <Gold.Chemscore.Hbonds>
donor molecule, donor type, donor heavy atom, donor atom, acceptor molecule, acceptor atom, score
      L1  H     9    33       P1  7948  0.78
      L1  H    12    34       P1  7948  0.85
      P1  H  7989  7998       L1    20  0.83

> <Gold.Chemscore.Hbond.Weighted>
-8.9421

> <Gold.Chemscore.Metal.Weighted>
-0.0000

> <Gold.Chemscore.Lipo.Weighted>
-11.9790

> <Gold.Chemscore.Internal_Hbond.Weighted>
0.0000

> <Gold.Chemscore.DEClash.Weighted>
1.2107

> <Gold.Chemscore.DEInternal.Weighted>
2.7824

> <Gold.Chemscore.Rot.Weighted>
5.0360

> <Gold.Chemscore.Internal.Correction.Weighted>
   9.000000E+99

> <Gold.Protein.RotatedTorsions>
[ 6907 6896 6895 6894 ] final  140.21 input  -60.11 | X-H torsion
[ 7974 7965 7964 7962 ] final -122.32 input  175.53 | X-H torsion
[ 8008 7997 7996 7995 ] final  -30.45 input   59.86 | X-H torsion
[ 10167 10162 10161 10158 ] final   63.94 input  -65.29 | X-H torsion
[ 10718 10713 10712 10709 ] final   35.78 input   66.30 | X-H torsion
[ 10763 10752 10751 10750 ] final   31.16 input  -60.55 | X-H torsion
[ 11005 11000 10999 10996 ] final -157.84 input  -57.11 | X-H torsion

> <Gold.Protein.ActiveResidues>
 VAL166  LYS551  ARG553  GLY616  TRP617  ASP618  TYR619  PRO620  LYS621  CYS622 
 ASP623  PHE694  ASN695  SER759  ASP760  ASP761  ALA762  ILE779  LEU786  VAL792 
 PHE793  MET794  SER795  GLU796  ALA797  LYS798  CYS799  TRP800  GLU811  SER814 

> <Gold.Protein.RotatedAtoms>
  152.2457  133.5172  159.5295 H   0  0  0  0  0  0  0  0  0  0  0  0  # atno 6907 bound_to 6896
  150.7078  134.1028  159.3981 H   0  0  0  0  0  0  0  0  0  0  0  0  # atno 6908 bound_to 6896
  151.8949  135.0402  160.0552 H   0  0  0  0  0  0  0  0  0  0  0  0  # atno 6909 bound_to 6896
  145.0307  140.8065  143.4325 H   0  0  0  0  0  0  0  0  0  0  0  0  # atno 7974 bound_to 7965
  154.4250  140.1791  156.1408 H   0  0  0  0  0  0  0  0  0  0  0  0  # atno 8008 bound_to 7997
  155.9993  140.3361  155.6805 H   0  0  0  0  0  0  0  0  0  0  0  0  # atno 8009 bound_to 7997
  155.6265  140.0665  157.2653 H   0  0  0  0  0  0  0  0  0  0  0  0  # atno 8010 bound_to 7997
  140.1275  144.4674  150.6884 H   0  0  0  0  0  0  0  0  0  0  0  0  # atno 10167 bound_to 10162
  157.3269  130.7477  149.6822 H   0  0  0  0  0  0  0  0  0  0  0  0  # atno 10718 bound_to 10713
  153.0331  135.6446  154.1156 H   0  0  0  0  0  0  0  0  0  0  0  0  # atno 10763 bound_to 10752
  154.0875  135.2869  155.3280 H   0  0  0  0  0  0  0  0  0  0  0  0  # atno 10764 bound_to 10752
  154.6487  135.5433  153.7940 H   0  0  0  0  0  0  0  0  0  0  0  0  # atno 10765 bound_to 10752
  140.6602  134.4357  157.5234 H   0  0  0  0  0  0  0  0  0  0  0  0  # atno 11005 bound_to 11000
  145.1775  139.2370  143.5310 LP  0  0  0  0  0  0  0  0  0  0  0  0  # atno 17320 bound_to 7965
  146.3498  140.1540  142.8592 LP  0  0  0  0  0  0  0  0  0  0  0  0  # atno 17321 bound_to 7965
  140.6836  143.2339  151.5319 LP  0  0  0  0  0  0  0  0  0  0  0  0  # atno 17342 bound_to 10162
  139.5536  144.2331  152.1574 LP  0  0  0  0  0  0  0  0  0  0  0  0  # atno 17343 bound_to 10162
  155.9691  130.4206  150.4433 LP  0  0  0  0  0  0  0  0  0  0  0  0  # atno 17370 bound_to 10713
  157.2458  131.0535  151.2409 LP  0  0  0  0  0  0  0  0  0  0  0  0  # atno 17371 bound_to 10713
  139.9015  134.8544  156.1875 LP  0  0  0  0  0  0  0  0  0  0  0  0  # atno 17394 bound_to 11000
  141.0471  133.6908  156.1703 LP  0  0  0  0  0  0  0  0  0  0  0  0  # atno 17395 bound_to 11000

$$$$
