AV-unprocessed.smi:1007|AV-procd|sdf|4402|dock10
  -GOLD-   22720 2343D 1   1.00000     0.00000
 Structure written by MMmdl.
 57 59  0  0  0  0  0  0  0  0  3 V2000
  148.6708  130.6675  153.6733 C   0  0  0  0  0  0  0  0  0  0  0  0
  148.7414  132.0736  153.4956 O   0  0  0  0  0  0  0  0  0  0  0  0
  148.9042  132.8048  154.7024 C   0  0  0  0  0  0  0  0  0  0  0  0
  148.4386  134.2648  154.5460 C   0  0  0  0  0  0  0  0  0  0  0  0
  148.5171  135.0705  155.7683 N   0  0  0  0  0  0  0  0  0  0  0  0
  149.7459  134.8290  156.5246 C   0  0  0  0  0  0  0  0  0  0  0  0
  151.0004  135.4275  155.8556 C   0  0  0  0  0  0  0  0  0  0  0  0
  150.8186  136.8863  155.6461 N   0  3  0  0  0  0  0  0  0  0  0  0
  152.0378  137.5524  155.1250 C   0  0  0  0  0  0  0  0  0  0  0  0
  152.0132  139.0921  155.2735 C   0  0  2  0  0  0  0  0  0  0  0  0
  153.2054  139.5912  154.7059 O   0  0  0  0  0  0  0  0  0  0  0  0
  151.9490  139.6132  156.7274 C   0  0  0  0  0  0  0  0  0  0  0  0
  151.4594  140.9965  156.8289 N   0  0  0  0  0  0  0  0  0  0  0  0
  150.7042  141.7092  155.9488 C   0  0  0  0  0  0  0  0  0  0  0  0
  150.4938  142.9404  156.4903 N   0  3  0  0  0  0  0  0  0  0  0  0
  151.1314  143.0202  157.7296 C   0  0  0  0  0  0  0  0  0  0  0  0
  151.1926  144.0552  158.6546 C   0  0  0  0  0  0  0  0  0  0  0  0
  151.9233  143.8182  159.8403 C   0  0  0  0  0  0  0  0  0  0  0  0
  151.9983  144.9242  160.8789 C   0  0  0  0  0  0  0  0  0  0  0  0
  152.5726  142.5762  160.0614 C   0  0  0  0  0  0  0  0  0  0  0  0
  153.3543  142.3310  161.3407 C   0  0  0  0  0  0  0  0  0  0  0  0
  152.5041  141.5380  159.1051 C   0  0  0  0  0  0  0  0  0  0  0  0
  151.7687  141.7826  157.9470 C   0  0  0  0  0  0  0  0  0  0  0  0
  149.5882  137.1536  154.8569 C   0  0  0  0  0  0  0  0  0  0  0  0
  148.3715  136.5129  155.5548 C   0  0  0  0  0  0  0  0  0  0  0  0
  148.6074  130.1824  152.6994 H   0  0  0  0  0  0  0  0  0  0  0  0
  147.7902  130.3749  154.2446 H   0  0  0  0  0  0  0  0  0  0  0  0
  149.5593  130.2863  154.1779 H   0  0  0  0  0  0  0  0  0  0  0  0
  148.3901  132.2983  155.5200 H   0  0  0  0  0  0  0  0  0  0  0  0
  149.9667  132.7930  154.9471 H   0  0  0  0  0  0  0  0  0  0  0  0
  149.0721  134.7272  153.7880 H   0  0  0  0  0  0  0  0  0  0  0  0
  147.4280  134.2876  154.1415 H   0  0  0  0  0  0  0  0  0  0  0  0
  149.6380  135.2597  157.5207 H   0  0  0  0  0  0  0  0  0  0  0  0
  149.8828  133.7582  156.6796 H   0  0  0  0  0  0  0  0  0  0  0  0
  151.8636  135.2541  156.4988 H   0  0  0  0  0  0  0  0  0  0  0  0
  151.2137  134.9364  154.9052 H   0  0  0  0  0  0  0  0  0  0  0  0
  152.9123  137.1707  155.6544 H   0  0  0  0  0  0  0  0  0  0  0  0
  152.1677  137.2696  154.0788 H   0  0  0  0  0  0  0  0  0  0  0  0
  151.1962  139.5229  154.6957 H   0  0  0  0  0  0  0  0  0  0  0  0
  153.0517  139.7892  153.7942 H   0  0  0  0  0  0  0  0  0  0  0  0
  151.3506  138.9575  157.3592 H   0  0  0  0  0  0  0  0  0  0  0  0
  152.9504  139.6126  157.1606 H   0  0  0  0  0  0  0  0  0  0  0  0
  150.3328  141.3594  154.9960 H   0  0  0  0  0  0  0  0  0  0  0  0
  150.6978  144.9995  158.4784 H   0  0  0  0  0  0  0  0  0  0  0  0
  153.0301  145.2460  161.0210 H   0  0  0  0  0  0  0  0  0  0  0  0
  151.6068  144.5793  161.8361 H   0  0  0  0  0  0  0  0  0  0  0  0
  151.4163  145.7956  160.5771 H   0  0  0  0  0  0  0  0  0  0  0  0
  153.8221  141.3462  161.3407 H   0  0  0  0  0  0  0  0  0  0  0  0
  152.6952  142.3871  162.2073 H   0  0  0  0  0  0  0  0  0  0  0  0
  154.1441  143.0738  161.4568 H   0  0  0  0  0  0  0  0  0  0  0  0
  152.9959  140.5932  159.2827 H   0  0  0  0  0  0  0  0  0  0  0  0
  149.4173  138.2260  154.7748 H   0  0  0  0  0  0  0  0  0  0  0  0
  149.7031  136.7758  153.8403 H   0  0  0  0  0  0  0  0  0  0  0  0
  147.4631  136.7270  154.9929 H   0  0  0  0  0  0  0  0  0  0  0  0
  148.2320  136.9978  156.5220 H   0  0  0  0  0  0  0  0  0  0  0  0
  150.6613  137.2767  156.5642 H   0  0  0  0  0  0  0  0  0  0  0  0
  149.9572  143.6728  156.0422 H   0  0  0  0  0  0  0  0  0  0  0  0
  1  2  1  0  0  0  0
  1 26  1  0  0  0  0
  1 27  1  0  0  0  0
  1 28  1  0  0  0  0
  2  3  1  0  0  0  0
  3  4  1  0  0  0  0
  3 29  1  0  0  0  0
  3 30  1  0  0  0  0
  4  5  1  0  0  0  0
  4 31  1  0  0  0  0
  4 32  1  0  0  0  0
  5 25  1  0  0  0  0
  5  6  1  0  0  0  0
  6  7  1  0  0  0  0
  6 33  1  0  0  0  0
  6 34  1  0  0  0  0
  7  8  1  0  0  0  0
  7 35  1  0  0  0  0
  7 36  1  0  0  0  0
  8  9  1  0  0  0  0
  8 24  1  0  0  0  0
  8 56  1  0  0  0  0
  9 10  1  0  0  0  0
  9 37  1  0  0  0  0
  9 38  1  0  0  0  0
 10 11  1  0  0  0  0
 10 12  1  0  0  0  0
 10 39  1  0  0  0  0
 11 40  1  0  0  0  0
 12 13  1  0  0  0  0
 12 41  1  0  0  0  0
 12 42  1  0  0  0  0
 13 23  1  0  0  0  0
 13 14  1  0  0  0  0
 14 15  2  0  0  0  0
 14 43  1  0  0  0  0
 15 16  1  0  0  0  0
 15 57  1  0  0  0  0
 16 23  2  0  0  0  0
 16 17  1  0  0  0  0
 17 18  2  0  0  0  0
 17 44  1  0  0  0  0
 18 19  1  0  0  0  0
 18 20  1  0  0  0  0
 19 45  1  0  0  0  0
 19 46  1  0  0  0  0
 19 47  1  0  0  0  0
 20 21  1  0  0  0  0
 20 22  2  0  0  0  0
 21 48  1  0  0  0  0
 21 49  1  0  0  0  0
 21 50  1  0  0  0  0
 22 23  1  0  0  0  0
 22 51  1  0  0  0  0
 24 25  1  0  0  0  0
 24 52  1  0  0  0  0
 24 53  1  0  0  0  0
 25 54  1  0  0  0  0
 25 55  1  0  0  0  0
M  CHG  1   8   1
M  CHG  1  15   1
M  END
> <s_m_source_file>
AV-unprocessed.smi

> <i_m_source_file_index>
1007

> <i_lp_mmshare_version>
43012

> <i_f3d_flags>
0

> <s_epik_input>
W0NIM11PW0NIMl1bQ0gyXU4xW0NIMl1bQ0gyXU4oW0NIMl1bQ0gyXTEpW0NIMl1bQ0BIXShbT0hdKVtDSDJdbihbY0hdbjIpYyhjMjMpW2NIXWMoW0NIM10pYyhbY0hdMylbQ0gzXQ==

> <s_epik_cmdline>
J2VwaWtfcHl0aG9uJywgJy1waCcsICc3LjAnLCAnLXRuJywgJzgnLCAnLW1hJywgJzIwMCcsICctbWV0YWxfYmluZGluZycsICctaW1hZScsICc8aW5maWxlLm1hZT4nLCAnLW9tYWUnLCAnPG91dGZpbGUubWFlPic=

> <r_epik_Ionization_Penalty>
1.19231

> <r_epik_Ionization_Penalty_Charging>
1.17974

> <r_epik_Ionization_Penalty_Neutral>
0.0125676

> <r_epik_State_Penalty>
1.24499

> <r_epik_Charging_Adjusted_Penalty>
2.42472

> <i_epik_Tot_Q>
2

> <i_epik_Tot_abs_Q>
2

> <r_epik_Metal_State_Penalty>
5.24866

> <b_epik_Metal_Only>
0

> <s_lp_Force_Field>
OPLS_2005

> <r_lp_Energy>
43.594

> <b_lp_Chiralities_Consistent>
1

> <s_lp_Variant>
AV-unprocessed.smi:1007-5

> <Gold.Version>
5.8.1

> <Gold.Id.Protein>
6NUR|6NUR_protein|mol2

> <Gold.PLP.Fitness>
54.6499

> <Gold.PLP.PLP>
-47.0852

> <Gold.PLP.part.hbond>
-2.9919

> <Gold.PLP.part.metal>
0.0000

> <Gold.PLP.part.buried>
-4.0122

> <Gold.PLP.part.nonpolar>
-40.5131

> <Gold.PLP.part.repulsive>
0.3016

> <Gold.PLP.ligand.clash>
0.0000

> <Gold.PLP.ligand.torsion>
0.8356

> <Gold.PLP.Chemscore.Hbond>
3.0000

> <Gold.PLP.Chemscore.CHOScore>
0.0000

> <Gold.PLP.Chemscore.Metal>
0.0000

> <Gold.Chemscore.Hbonds>
donor molecule, donor type, donor heavy atom, donor atom, acceptor molecule, acceptor atom, score
      L1  H    15    57       P1  8028  2.00
      P1  H  7997  8010       L1    11  1.00

> <Gold.PLP.Chemscore.Internal.Correction>
0.2359

> <Gold.Rescore>
     Score         DG    S(hbond)    S(metal)    S(lipo)     H(rot)  DE(clash)    DE(int)     intcor
     19.97     -20.81       1.98        0.00     132.21       2.64       0.13       0.70       ----

> <Gold.Chemscore.Fitness>
19.9738

> <Gold.Chemscore.DG>
-20.8054

> <Gold.Chemscore.ZeroCoef>
-5.4800

> <Gold.Chemscore.Hbond>
1.9830

> <Gold.Chemscore.Metal>
0.0000

> <Gold.Chemscore.Lipo>
132.2110

> <Gold.Chemscore.Internal_Hbond>
0.0000

> <Gold.Chemscore.DEClash>
0.1345

> <Gold.Chemscore.DEInternal>
0.6971

> <Gold.Chemscore.Rot>
2.6432

> <Gold.Chemscore.Internal.Correction>
   9.000000E+99

> <Gold.Chemscore.Hbonds>
donor molecule, donor type, donor heavy atom, donor atom, acceptor molecule, acceptor atom, score
      L1  H    15    57       P1  8028  0.94
      P1  H  7997  8010       L1    11  0.97

> <Gold.Chemscore.Hbond.Weighted>
-6.6233

> <Gold.Chemscore.Metal.Weighted>
-0.0000

> <Gold.Chemscore.Lipo.Weighted>
-15.4687

> <Gold.Chemscore.Internal_Hbond.Weighted>
0.0000

> <Gold.Chemscore.DEClash.Weighted>
0.1345

> <Gold.Chemscore.DEInternal.Weighted>
0.6971

> <Gold.Chemscore.Rot.Weighted>
6.7665

> <Gold.Chemscore.Internal.Correction.Weighted>
   9.000000E+99

> <Gold.Protein.RotatedTorsions>
[ 6907 6896 6895 6894 ] final  158.06 input  -60.11 | X-H torsion
[ 7974 7965 7964 7962 ] final -106.69 input  175.53 | X-H torsion
[ 8008 7997 7996 7995 ] final  110.51 input   59.86 | X-H torsion
[ 10167 10162 10161 10158 ] final  -14.37 input  -65.29 | X-H torsion
[ 10718 10713 10712 10709 ] final -143.88 input   66.30 | X-H torsion
[ 10763 10752 10751 10750 ] final   24.49 input  -60.55 | X-H torsion
[ 11005 11000 10999 10996 ] final   61.59 input  -57.11 | X-H torsion

> <Gold.Protein.ActiveResidues>
 VAL166  LYS551  ARG553  GLY616  TRP617  ASP618  TYR619  PRO620  LYS621  CYS622 
 ASP623  PHE694  ASN695  SER759  ASP760  ASP761  ALA762  ILE779  LEU786  VAL792 
 PHE793  MET794  SER795  GLU796  ALA797  LYS798  CYS799  TRP800  GLU811  SER814 

> <Gold.Protein.RotatedAtoms>
  152.0060  133.3843  159.4200 H   0  0  0  0  0  0  0  0  0  0  0  0  # atno 6907 bound_to 6896
  150.6904  134.3782  159.5031 H   0  0  0  0  0  0  0  0  0  0  0  0  # atno 6908 bound_to 6896
  152.1536  134.8968  160.0597 H   0  0  0  0  0  0  0  0  0  0  0  0  # atno 6909 bound_to 6896
  145.2147  140.9110  143.3294 H   0  0  0  0  0  0  0  0  0  0  0  0  # atno 7974 bound_to 7965
  156.2058  140.3037  155.9623 H   0  0  0  0  0  0  0  0  0  0  0  0  # atno 8008 bound_to 7997
  155.2846  140.0439  157.3035 H   0  0  0  0  0  0  0  0  0  0  0  0  # atno 8009 bound_to 7997
  154.5631  140.2326  155.8314 H   0  0  0  0  0  0  0  0  0  0  0  0  # atno 8010 bound_to 7997
  140.7200  143.5328  150.9499 H   0  0  0  0  0  0  0  0  0  0  0  0  # atno 10167 bound_to 10162
  156.3633  130.7750  151.1920 H   0  0  0  0  0  0  0  0  0  0  0  0  # atno 10718 bound_to 10713
  153.0760  135.6604  154.0145 H   0  0  0  0  0  0  0  0  0  0  0  0  # atno 10763 bound_to 10752
  153.9779  135.2958  155.3424 H   0  0  0  0  0  0  0  0  0  0  0  0  # atno 10764 bound_to 10752
  154.7148  135.5190  153.8791 H   0  0  0  0  0  0  0  0  0  0  0  0  # atno 10765 bound_to 10752
  140.0150  134.6238  155.9723 H   0  0  0  0  0  0  0  0  0  0  0  0  # atno 11005 bound_to 11000
  144.9822  139.3772  143.6256 LP  0  0  0  0  0  0  0  0  0  0  0  0  # atno 17320 bound_to 7965
  146.3389  139.8968  142.8800 LP  0  0  0  0  0  0  0  0  0  0  0  0  # atno 17321 bound_to 7965
  139.9049  143.6790  152.3125 LP  0  0  0  0  0  0  0  0  0  0  0  0  # atno 17342 bound_to 10162
  139.7153  144.7613  151.1044 LP  0  0  0  0  0  0  0  0  0  0  0  0  # atno 17343 bound_to 10162
  157.7476  131.0393  150.4546 LP  0  0  0  0  0  0  0  0  0  0  0  0  # atno 17370 bound_to 10713
  156.4761  130.4063  149.6489 LP  0  0  0  0  0  0  0  0  0  0  0  0  # atno 17371 bound_to 10713
  141.1737  133.6539  156.4747 LP  0  0  0  0  0  0  0  0  0  0  0  0  # atno 17394 bound_to 11000
  140.4486  134.6949  157.5028 LP  0  0  0  0  0  0  0  0  0  0  0  0  # atno 17395 bound_to 11000

$$$$
