AV-unprocessed.smi:1338|AV-procd|sdf|5500|dock7
  -GOLD-   22720 5 83D 1   1.00000     0.00000
 Structure written by MMmdl.
 40 41  0  0  0  0  0  0  0  0  1 V2000
  146.4251  138.3069  152.4551 C   0  0  0  0  0  0  0  0  0  0  0  0
  147.5158  139.0020  153.2407 C   0  0  0  0  0  0  0  0  0  0  0  0
  148.6275  138.2090  153.4716 N   0  0  0  0  0  0  0  0  0  0  0  0
  149.6826  138.7621  154.1757 C   0  0  0  0  0  0  0  0  0  0  0  0
  150.8636  137.8284  154.3778 C   0  0  0  0  0  0  0  0  0  0  0  0
  149.6294  140.0391  154.6330 C   0  0  0  0  0  0  0  0  0  0  0  0
  150.7719  140.6860  155.4136 C   0  0  0  0  0  0  0  0  0  0  0  0
  150.3531  141.4323  156.6816 C   0  0  0  0  0  0  0  0  0  0  0  0
  149.1821  141.3941  157.0583 O   0  0  0  0  0  0  0  0  0  0  0  0
  151.3185  142.0988  157.3335 N   0  0  0  0  0  0  0  0  0  0  0  0
  151.1362  142.8527  158.5700 C   0  0  0  0  0  0  0  0  0  0  0  0
  151.1290  144.3691  158.2862 C   0  0  0  0  0  0  0  0  0  0  0  0
  151.0140  145.1830  159.5854 C   0  0  0  0  0  0  0  0  0  0  0  0
  152.1283  144.8126  160.5769 C   0  0  0  0  0  0  0  0  0  0  0  0
  152.1348  143.3032  160.8655 C   0  0  0  0  0  0  0  0  0  0  0  0
  152.2521  142.4878  159.5673 C   0  0  0  0  0  0  0  0  0  0  0  0
  148.4072  140.8344  154.3657 C   0  0  0  0  0  0  0  0  0  0  0  0
  148.2900  141.9909  154.7680 O   0  0  0  0  0  0  0  0  0  0  0  0
  147.3699  140.2295  153.6377 N   0  0  0  0  0  0  0  0  0  0  0  0
  148.7080  137.2551  153.1500 H   0  0  0  0  0  0  0  0  0  0  0  0
  145.6178  138.9990  152.2127 H   0  0  0  0  0  0  0  0  0  0  0  0
  146.0064  137.4839  153.0348 H   0  0  0  0  0  0  0  0  0  0  0  0
  146.8220  137.9078  151.5210 H   0  0  0  0  0  0  0  0  0  0  0  0
  151.7629  138.2457  153.9246 H   0  0  0  0  0  0  0  0  0  0  0  0
  150.6855  136.8519  153.9256 H   0  0  0  0  0  0  0  0  0  0  0  0
  151.0506  137.6741  155.4407 H   0  0  0  0  0  0  0  0  0  0  0  0
  151.3286  141.3775  154.7804 H   0  0  0  0  0  0  0  0  0  0  0  0
  151.4950  139.9120  155.6734 H   0  0  0  0  0  0  0  0  0  0  0  0
  152.2517  142.0754  156.9488 H   0  0  0  0  0  0  0  0  0  0  0  0
  150.1808  142.5743  159.0192 H   0  0  0  0  0  0  0  0  0  0  0  0
  152.0438  144.6517  157.7629 H   0  0  0  0  0  0  0  0  0  0  0  0
  150.3025  144.6249  157.6222 H   0  0  0  0  0  0  0  0  0  0  0  0
  151.0553  146.2492  159.3609 H   0  0  0  0  0  0  0  0  0  0  0  0
  150.0415  145.0011  160.0444 H   0  0  0  0  0  0  0  0  0  0  0  0
  153.0947  145.1111  160.1687 H   0  0  0  0  0  0  0  0  0  0  0  0
  151.9994  145.3686  161.5059 H   0  0  0  0  0  0  0  0  0  0  0  0
  152.9591  143.0564  161.5352 H   0  0  0  0  0  0  0  0  0  0  0  0
  151.2182  143.0272  161.3884 H   0  0  0  0  0  0  0  0  0  0  0  0
  152.2134  141.4226  159.7990 H   0  0  0  0  0  0  0  0  0  0  0  0
  153.2278  142.6703  159.1146 H   0  0  0  0  0  0  0  0  0  0  0  0
  1 21  1  0  0  0  0
  1 22  1  0  0  0  0
  1 23  1  0  0  0  0
  1  2  1  0  0  0  0
  2  3  1  0  0  0  0
  2 19  2  0  0  0  0
  3  4  1  0  0  0  0
  3 20  1  0  0  0  0
  4  6  2  0  0  0  0
  4  5  1  0  0  0  0
  5 24  1  0  0  0  0
  5 25  1  0  0  0  0
  5 26  1  0  0  0  0
  6 17  1  0  0  0  0
  6  7  1  0  0  0  0
  7  8  1  0  0  0  0
  7 27  1  0  0  0  0
  7 28  1  0  0  0  0
  8  9  2  0  0  0  0
  8 10  1  0  0  0  0
 10 11  1  0  0  0  0
 10 29  1  0  0  0  0
 11 16  1  0  0  0  0
 11 12  1  0  0  0  0
 11 30  1  0  0  0  0
 12 13  1  0  0  0  0
 12 31  1  0  0  0  0
 12 32  1  0  0  0  0
 13 14  1  0  0  0  0
 13 33  1  0  0  0  0
 13 34  1  0  0  0  0
 14 15  1  0  0  0  0
 14 35  1  0  0  0  0
 14 36  1  0  0  0  0
 15 16  1  0  0  0  0
 15 37  1  0  0  0  0
 15 38  1  0  0  0  0
 16 39  1  0  0  0  0
 16 40  1  0  0  0  0
 17 18  2  0  0  0  0
 17 19  1  0  0  0  0
M  END
> <s_m_source_file>
AV-unprocessed.smi

> <i_m_source_file_index>
1338

> <i_lp_mmshare_version>
43012

> <i_f3d_flags>
0

> <s_epik_input>
W0NIM11jMW5jKFtDSDNdKWMoYyg9TylbbkhdMSlbQ0gyXUMoPU8pW05IXVtDSF0yW0NIMl1bQ0gyXVtDSDJdW0NIMl1bQ0gyXTI=

> <s_epik_cmdline>
J2VwaWtfcHl0aG9uJywgJy1waCcsICc3LjAnLCAnLXRuJywgJzgnLCAnLW1hJywgJzIwMCcsICctbWV0YWxfYmluZGluZycsICctaW1hZScsICc8aW5maWxlLm1hZT4nLCAnLW9tYWUnLCAnPG91dGZpbGUubWFlPic=

> <r_lp_tautomer_probability>
0.156392

> <r_epik_Ionization_Penalty>
0.0136832

> <r_epik_Ionization_Penalty_Charging>
0.0135532

> <r_epik_Ionization_Penalty_Neutral>
0.000130025

> <r_epik_State_Penalty>
1.15342

> <r_epik_Charging_Adjusted_Penalty>
1.16697

> <i_epik_Tot_Q>
0

> <i_epik_Tot_abs_Q>
0

> <r_epik_Metal_State_Penalty>
1.31441

> <b_epik_Metal_Only>
0

> <s_lp_Force_Field>
OPLS_2005

> <r_lp_Energy>
13.63

> <b_lp_Chiralities_Consistent>
1

> <s_lp_Variant>
AV-unprocessed.smi:1338-2

> <Gold.Version>
5.8.1

> <Gold.Id.Protein>
6NUR|6NUR_protein|mol2

> <Gold.PLP.Fitness>
42.3429

> <Gold.PLP.PLP>
-40.0341

> <Gold.PLP.part.hbond>
-2.0000

> <Gold.PLP.part.metal>
0.0000

> <Gold.PLP.part.buried>
-3.3695

> <Gold.PLP.part.nonpolar>
-37.3366

> <Gold.PLP.part.repulsive>
2.1301

> <Gold.PLP.ligand.clash>
0.0000

> <Gold.PLP.ligand.torsion>
0.3478

> <Gold.PLP.Chemscore.Hbond>
1.0000

> <Gold.PLP.Chemscore.CHOScore>
0.0000

> <Gold.PLP.Chemscore.Metal>
0.0000

> <Gold.Chemscore.Hbonds>
donor molecule, donor type, donor heavy atom, donor atom, acceptor molecule, acceptor atom, score
      L1  H     3    20       P1  7948  0.93

> <Gold.PLP.Chemscore.Internal.Correction>
0.0045

> <Gold.Rescore>
     Score         DG    S(hbond)    S(metal)    S(lipo)     H(rot)  DE(clash)    DE(int)     intcor
     11.20     -15.98       0.80        0.00      99.73       1.49       0.75       4.02       ----

> <Gold.Chemscore.Fitness>
11.2037

> <Gold.Chemscore.DG>
-15.9790

> <Gold.Chemscore.ZeroCoef>
-5.4800

> <Gold.Chemscore.Hbond>
0.7953

> <Gold.Chemscore.Metal>
0.0000

> <Gold.Chemscore.Lipo>
99.7274

> <Gold.Chemscore.Internal_Hbond>
0.0000

> <Gold.Chemscore.DEClash>
0.7533

> <Gold.Chemscore.DEInternal>
4.0220

> <Gold.Chemscore.Rot>
1.4942

> <Gold.Chemscore.Internal.Correction>
   9.000000E+99

> <Gold.Chemscore.Hbonds>
donor molecule, donor type, donor heavy atom, donor atom, acceptor molecule, acceptor atom, score
      L1  H     3    20       P1  7948  0.89

> <Gold.Chemscore.Hbond.Weighted>
-2.6562

> <Gold.Chemscore.Metal.Weighted>
-0.0000

> <Gold.Chemscore.Lipo.Weighted>
-11.6681

> <Gold.Chemscore.Internal_Hbond.Weighted>
0.0000

> <Gold.Chemscore.DEClash.Weighted>
0.7533

> <Gold.Chemscore.DEInternal.Weighted>
4.0220

> <Gold.Chemscore.Rot.Weighted>
3.8253

> <Gold.Chemscore.Internal.Correction.Weighted>
   9.000000E+99

> <Gold.Protein.RotatedTorsions>
[ 6907 6896 6895 6894 ] final  107.36 input  -60.11 | X-H torsion
[ 7974 7965 7964 7962 ] final   29.49 input  175.53 | X-H torsion
[ 8008 7997 7996 7995 ] final -147.97 input   59.86 | X-H torsion
[ 10167 10162 10161 10158 ] final   57.46 input  -65.29 | X-H torsion
[ 10718 10713 10712 10709 ] final -161.91 input   66.30 | X-H torsion
[ 10763 10752 10751 10750 ] final  -68.64 input  -60.55 | X-H torsion
[ 11005 11000 10999 10996 ] final   38.54 input  -57.11 | X-H torsion

> <Gold.Protein.ActiveResidues>
 VAL166  LYS551  ARG553  GLY616  TRP617  ASP618  TYR619  PRO620  LYS621  CYS622 
 ASP623  PHE694  ASN695  SER759  ASP760  ASP761  ALA762  ILE779  LEU786  VAL792 
 PHE793  MET794  SER795  GLU796  ALA797  LYS798  CYS799  TRP800  GLU811  SER814 

> <Gold.Protein.RotatedAtoms>
  152.5157  133.9246  159.7550 H   0  0  0  0  0  0  0  0  0  0  0  0  # atno 6907 bound_to 6896
  150.9610  133.6437  159.2761 H   0  0  0  0  0  0  0  0  0  0  0  0  # atno 6908 bound_to 6896
  151.3682  135.0923  159.9509 H   0  0  0  0  0  0  0  0  0  0  0  0  # atno 6909 bound_to 6896
  146.1668  139.6914  142.8995 H   0  0  0  0  0  0  0  0  0  0  0  0  # atno 7974 bound_to 7965
  155.5842  140.0646  157.2775 H   0  0  0  0  0  0  0  0  0  0  0  0  # atno 8008 bound_to 7997
  154.4324  140.1847  156.1054 H   0  0  0  0  0  0  0  0  0  0  0  0  # atno 8009 bound_to 7997
  156.0282  140.3309  155.7115 H   0  0  0  0  0  0  0  0  0  0  0  0  # atno 8010 bound_to 7997
  140.1978  144.4020  150.6542 H   0  0  0  0  0  0  0  0  0  0  0  0  # atno 10167 bound_to 10162
  156.6029  130.8818  151.2918 H   0  0  0  0  0  0  0  0  0  0  0  0  # atno 10718 bound_to 10713
  154.3920  135.6050  153.5848 H   0  0  0  0  0  0  0  0  0  0  0  0  # atno 10763 bound_to 10752
  152.9787  135.5886  154.4287 H   0  0  0  0  0  0  0  0  0  0  0  0  # atno 10764 bound_to 10752
  154.4072  135.2843  155.2037 H   0  0  0  0  0  0  0  0  0  0  0  0  # atno 10765 bound_to 10752
  140.2117  134.3748  155.8046 H   0  0  0  0  0  0  0  0  0  0  0  0  # atno 11005 bound_to 11000
  145.4446  141.0424  143.2838 LP  0  0  0  0  0  0  0  0  0  0  0  0  # atno 17320 bound_to 7965
  144.8104  139.5973  143.7032 LP  0  0  0  0  0  0  0  0  0  0  0  0  # atno 17321 bound_to 7965
  140.6412  143.2204  151.6287 LP  0  0  0  0  0  0  0  0  0  0  0  0  # atno 17342 bound_to 10162
  139.5229  144.3147  152.0962 LP  0  0  0  0  0  0  0  0  0  0  0  0  # atno 17343 bound_to 10162
  157.7275  130.9643  150.1700 LP  0  0  0  0  0  0  0  0  0  0  0  0  # atno 17370 bound_to 10713
  156.2454  130.3695  149.8291 LP  0  0  0  0  0  0  0  0  0  0  0  0  # atno 17371 bound_to 10713
  141.2226  133.7146  156.8428 LP  0  0  0  0  0  0  0  0  0  0  0  0  # atno 17394 bound_to 11000
  140.1944  134.8942  157.3098 LP  0  0  0  0  0  0  0  0  0  0  0  0  # atno 17395 bound_to 11000

$$$$
