AV-unprocessed.smi:2681|AV-procd|sdf|10373|dock6
  -GOLD-   2272014403D 1   1.00000     0.00000
 Structure written by MMmdl.
 42 43  0  0  0  0  0  0  0  0  1 V2000
  143.6328  144.8450  153.7274 N   0  0  0  0  0  0  0  0  0  0  0  0
  144.3452  144.0991  154.2514 C   0  0  0  0  0  0  0  0  0  0  0  0
  145.2422  143.1592  154.9110 C   0  0  0  0  0  0  0  0  0  0  0  0
  146.3983  142.7192  154.2328 C   0  0  0  0  0  0  0  0  0  0  0  0
  147.2771  141.8227  154.8737 C   0  0  0  0  0  0  0  0  0  0  0  0
  148.4836  141.3839  154.1879 C   0  0  0  0  0  0  0  0  0  0  0  0
  149.4426  141.0358  153.6420 N   0  0  0  0  0  0  0  0  0  0  0  0
  146.9464  141.3988  156.1828 C   0  0  0  0  0  0  0  0  0  0  0  0
  147.9744  140.2953  157.1132 S   0  0  0  0  0  0  0  0  0  0  0  0
  149.2052  141.3268  157.9666 C   0  0  0  0  0  0  0  0  0  0  0  0
  150.4789  141.5286  157.1338 C   0  0  0  0  0  0  0  0  0  0  0  0
  151.6179  141.2579  157.9382 O   0  0  0  0  0  0  0  0  0  0  0  0
  151.6853  141.9809  159.1606 C   0  0  0  0  0  0  0  0  0  0  0  0
  151.4118  143.4764  158.8820 C   0  0  0  0  0  0  0  0  0  0  0  0
  151.9519  144.4885  159.9084 C   0  0  0  0  0  0  0  0  0  0  0  0
  151.8399  144.0633  161.3810 C   0  0  0  0  0  0  0  0  0  0  0  0
  153.0455  143.2315  161.8501 C   0  0  0  0  0  0  0  0  0  0  0  0
  153.0871  141.7964  161.3058 C   0  0  0  0  0  0  0  0  0  0  0  0
  153.0671  141.6825  159.7717 C   0  0  0  0  0  0  0  0  0  0  0  0
  145.8361  141.8024  156.8371 N   0  0  0  0  0  0  0  0  0  0  0  0
  145.0042  142.6676  156.2202 C   0  0  0  0  0  0  0  0  0  0  0  0
  143.8862  143.0511  156.9634 N   0  0  0  0  0  0  0  0  0  0  0  0
  146.6145  143.0749  153.2350 H   0  0  0  0  0  0  0  0  0  0  0  0
  148.7626  142.2865  158.2340 H   0  0  0  0  0  0  0  0  0  0  0  0
  149.4607  140.8283  158.9017 H   0  0  0  0  0  0  0  0  0  0  0  0
  150.4616  140.8566  156.2757 H   0  0  0  0  0  0  0  0  0  0  0  0
  150.5107  142.5491  156.7492 H   0  0  0  0  0  0  0  0  0  0  0  0
  150.9258  141.5893  159.8394 H   0  0  0  0  0  0  0  0  0  0  0  0
  151.8256  143.7420  157.9083 H   0  0  0  0  0  0  0  0  0  0  0  0
  150.3344  143.6165  158.7898 H   0  0  0  0  0  0  0  0  0  0  0  0
  152.9915  144.7235  159.6772 H   0  0  0  0  0  0  0  0  0  0  0  0
  151.4112  145.4253  159.7691 H   0  0  0  0  0  0  0  0  0  0  0  0
  151.8060  144.9671  161.9903 H   0  0  0  0  0  0  0  0  0  0  0  0
  150.9009  143.5413  161.5695 H   0  0  0  0  0  0  0  0  0  0  0  0
  153.9713  143.7477  161.5935 H   0  0  0  0  0  0  0  0  0  0  0  0
  153.0305  143.1805  162.9393 H   0  0  0  0  0  0  0  0  0  0  0  0
  153.9955  141.3204  161.6762 H   0  0  0  0  0  0  0  0  0  0  0  0
  152.2629  141.2199  161.7277 H   0  0  0  0  0  0  0  0  0  0  0  0
  153.3284  140.6521  159.5314 H   0  0  0  0  0  0  0  0  0  0  0  0
  153.8433  142.2972  159.3145 H   0  0  0  0  0  0  0  0  0  0  0  0
  143.2010  143.6960  156.5962 H   0  0  0  0  0  0  0  0  0  0  0  0
  143.7270  142.6932  157.8943 H   0  0  0  0  0  0  0  0  0  0  0  0
  1  2  3  0  0  0  0
  2  3  1  0  0  0  0
  3 21  1  0  0  0  0
  3  4  2  0  0  0  0
  4  5  1  0  0  0  0
  4 23  1  0  0  0  0
  5  6  1  0  0  0  0
  5  8  2  0  0  0  0
  6  7  3  0  0  0  0
  8  9  1  0  0  0  0
  8 20  1  0  0  0  0
  9 10  1  0  0  0  0
 10 11  1  0  0  0  0
 10 24  1  0  0  0  0
 10 25  1  0  0  0  0
 11 12  1  0  0  0  0
 11 26  1  0  0  0  0
 11 27  1  0  0  0  0
 12 13  1  0  0  0  0
 13 19  1  0  0  0  0
 13 14  1  0  0  0  0
 13 28  1  0  0  0  0
 14 15  1  0  0  0  0
 14 29  1  0  0  0  0
 14 30  1  0  0  0  0
 15 16  1  0  0  0  0
 15 31  1  0  0  0  0
 15 32  1  0  0  0  0
 16 17  1  0  0  0  0
 16 33  1  0  0  0  0
 16 34  1  0  0  0  0
 17 18  1  0  0  0  0
 17 35  1  0  0  0  0
 17 36  1  0  0  0  0
 18 19  1  0  0  0  0
 18 37  1  0  0  0  0
 18 38  1  0  0  0  0
 19 39  1  0  0  0  0
 19 40  1  0  0  0  0
 20 21  2  0  0  0  0
 21 22  1  0  0  0  0
 22 41  1  0  0  0  0
 22 42  1  0  0  0  0
M  END
> <s_m_source_file>
AV-unprocessed.smi

> <i_m_source_file_index>
2681

> <i_lp_mmshare_version>
43012

> <i_f3d_flags>
0

> <s_epik_input>
TiNDYzFbY0hdYyhDI04pYyhuYzFbTkgyXSlTW0NIMl1bQ0gyXU9bQ0hdMltDSDJdW0NIMl1bQ0gyXVtDSDJdW0NIMl1bQ0gyXTI=

> <s_epik_cmdline>
J2VwaWtfcHl0aG9uJywgJy1waCcsICc3LjAnLCAnLXRuJywgJzgnLCAnLW1hJywgJzIwMCcsICctbWV0YWxfYmluZGluZycsICctaW1hZScsICc8aW5maWxlLm1hZT4nLCAnLW9tYWUnLCAnPG91dGZpbGUubWFlPic=

> <r_epik_Ionization_Penalty>
0.00177186

> <r_epik_Ionization_Penalty_Charging>
0

> <r_epik_Ionization_Penalty_Neutral>
0.00177186

> <r_epik_State_Penalty>
0.00120048

> <r_epik_Charging_Adjusted_Penalty>
0.00120048

> <i_epik_Tot_Q>
0

> <i_epik_Tot_abs_Q>
0

> <r_epik_Metal_State_Penalty>
-0

> <b_epik_Metal_Only>
0

> <s_lp_Force_Field>
OPLS_2005

> <r_lp_Energy>
17.568

> <b_lp_Chiralities_Consistent>
1

> <s_lp_Variant>
AV-unprocessed.smi:2681-1

> <Gold.Version>
5.8.1

> <Gold.Id.Protein>
6NUR|6NUR_protein|mol2

> <Gold.PLP.Fitness>
46.0756

> <Gold.PLP.PLP>
-44.2344

> <Gold.PLP.part.hbond>
-2.8317

> <Gold.PLP.part.metal>
0.0000

> <Gold.PLP.part.buried>
-6.5770

> <Gold.PLP.part.nonpolar>
-37.7154

> <Gold.PLP.part.repulsive>
3.3404

> <Gold.PLP.ligand.clash>
0.0000

> <Gold.PLP.ligand.torsion>
0.9575

> <Gold.PLP.Chemscore.Hbond>
1.2434

> <Gold.PLP.Chemscore.CHOScore>
0.0000

> <Gold.PLP.Chemscore.Metal>
0.0000

> <Gold.Chemscore.Hbonds>
donor molecule, donor type, donor heavy atom, donor atom, acceptor molecule, acceptor atom, score
      P1  H  7989  7998       L1     7  0.20
      P1  H  8011  8017       L1     7  1.00

> <Gold.PLP.Chemscore.Internal.Correction>
0.0262

> <Gold.Rescore>
     Score         DG    S(hbond)    S(metal)    S(lipo)     H(rot)  DE(clash)    DE(int)     intcor
     12.97     -14.76       0.85        0.00     101.32       2.12       0.78       1.00       ----

> <Gold.Chemscore.Fitness>
12.9724

> <Gold.Chemscore.DG>
-14.7585

> <Gold.Chemscore.ZeroCoef>
-5.4800

> <Gold.Chemscore.Hbond>
0.8500

> <Gold.Chemscore.Metal>
0.0000

> <Gold.Chemscore.Lipo>
101.3196

> <Gold.Chemscore.Internal_Hbond>
0.0000

> <Gold.Chemscore.DEClash>
0.7830

> <Gold.Chemscore.DEInternal>
1.0031

> <Gold.Chemscore.Rot>
2.1152

> <Gold.Chemscore.Internal.Correction>
   9.000000E+99

> <Gold.Chemscore.Hbonds>
donor molecule, donor type, donor heavy atom, donor atom, acceptor molecule, acceptor atom, score
      P1  H  7989  7998       L1     7  0.20
      P1  H  8011  8017       L1     7  0.47

> <Gold.Chemscore.Hbond.Weighted>
-2.8390

> <Gold.Chemscore.Metal.Weighted>
-0.0000

> <Gold.Chemscore.Lipo.Weighted>
-11.8544

> <Gold.Chemscore.Internal_Hbond.Weighted>
0.0000

> <Gold.Chemscore.DEClash.Weighted>
0.7830

> <Gold.Chemscore.DEInternal.Weighted>
1.0031

> <Gold.Chemscore.Rot.Weighted>
5.4149

> <Gold.Chemscore.Internal.Correction.Weighted>
   9.000000E+99

> <Gold.Protein.RotatedTorsions>
[ 6907 6896 6895 6894 ] final -128.44 input  -60.11 | X-H torsion
[ 7974 7965 7964 7962 ] final  -49.46 input  175.53 | X-H torsion
[ 8008 7997 7996 7995 ] final   31.57 input   59.86 | X-H torsion
[ 10167 10162 10161 10158 ] final   66.64 input  -65.29 | X-H torsion
[ 10718 10713 10712 10709 ] final  -76.10 input   66.30 | X-H torsion
[ 10763 10752 10751 10750 ] final   -8.24 input  -60.55 | X-H torsion
[ 11005 11000 10999 10996 ] final  -58.07 input  -57.11 | X-H torsion

> <Gold.Protein.ActiveResidues>
 VAL166  LYS551  ARG553  GLY616  TRP617  ASP618  TYR619  PRO620  LYS621  CYS622 
 ASP623  PHE694  ASN695  SER759  ASP760  ASP761  ALA762  ILE779  LEU786  VAL792 
 PHE793  MET794  SER795  GLU796  ALA797  LYS798  CYS799  TRP800  GLU811  SER814 

> <Gold.Protein.RotatedAtoms>
  150.9179  133.6916  159.2838 H   0  0  0  0  0  0  0  0  0  0  0  0  # atno 6907 bound_to 6896
  151.4380  135.1016  159.9671 H   0  0  0  0  0  0  0  0  0  0  0  0  # atno 6908 bound_to 6896
  152.4964  133.8594  159.7297 H   0  0  0  0  0  0  0  0  0  0  0  0  # atno 6909 bound_to 6896
  145.9403  140.7668  142.9555 H   0  0  0  0  0  0  0  0  0  0  0  0  # atno 7974 bound_to 7965
  155.1086  140.3236  155.4528 H   0  0  0  0  0  0  0  0  0  0  0  0  # atno 8008 bound_to 7997
  156.2697  140.2048  156.6158 H   0  0  0  0  0  0  0  0  0  0  0  0  # atno 8009 bound_to 7997
  154.6774  140.0530  157.0217 H   0  0  0  0  0  0  0  0  0  0  0  0  # atno 8010 bound_to 7997
  140.0982  144.4928  150.7055 H   0  0  0  0  0  0  0  0  0  0  0  0  # atno 10167 bound_to 10162
  156.0186  130.4457  150.3142 H   0  0  0  0  0  0  0  0  0  0  0  0  # atno 10718 bound_to 10713
  153.4376  135.7013  153.6190 H   0  0  0  0  0  0  0  0  0  0  0  0  # atno 10763 bound_to 10752
  153.4578  135.3743  155.2321 H   0  0  0  0  0  0  0  0  0  0  0  0  # atno 10764 bound_to 10752
  154.8727  135.4012  154.3770 H   0  0  0  0  0  0  0  0  0  0  0  0  # atno 10765 bound_to 10752
  141.1192  133.6611  156.4865 H   0  0  0  0  0  0  0  0  0  0  0  0  # atno 11005 bound_to 11000
  144.6778  140.2269  143.7360 LP  0  0  0  0  0  0  0  0  0  0  0  0  # atno 17320 bound_to 7965
  145.8309  139.2085  143.1883 LP  0  0  0  0  0  0  0  0  0  0  0  0  # atno 17321 bound_to 7965
  140.6992  143.2424  151.4913 LP  0  0  0  0  0  0  0  0  0  0  0  0  # atno 17342 bound_to 10162
  139.5686  144.1982  152.1803 LP  0  0  0  0  0  0  0  0  0  0  0  0  # atno 17343 bound_to 10162
  157.1244  131.0255  151.2996 LP  0  0  0  0  0  0  0  0  0  0  0  0  # atno 17370 bound_to 10713
  157.4602  130.7649  149.7229 LP  0  0  0  0  0  0  0  0  0  0  0  0  # atno 17371 bound_to 10713
  140.4558  134.6886  157.5062 LP  0  0  0  0  0  0  0  0  0  0  0  0  # atno 17394 bound_to 11000
  140.0136  134.6654  155.9344 LP  0  0  0  0  0  0  0  0  0  0  0  0  # atno 17395 bound_to 11000

$$$$
