AV-unprocessed.smi:2999|AV-procd|sdf|11419|dock5
  -GOLD-   2272016343D 1   1.00000     0.00000
 Structure written by MMmdl.
 38 40  0  0  0  0  0  0  0  0  2 V2000
  144.3830  136.3083  152.3189 O   0  0  0  0  0  0  0  0  0  0  0  0
  145.5930  136.1965  152.1206 C   0  0  0  0  0  0  0  0  0  0  0  0
  146.4876  137.1182  152.4993 N   0  0  0  0  0  0  0  0  0  0  0  0
  146.1463  138.3640  153.1734 C   0  0  0  0  0  0  0  0  0  0  0  0
  147.3438  139.3246  153.1823 C   0  0  2  0  0  0  0  0  0  0  0  0
  148.5476  138.7387  153.9463 C   0  0  0  0  0  0  0  0  0  0  0  0
  149.6570  139.7186  153.9898 N   0  3  2  0  0  0  0  0  0  0  0  0
  150.8553  139.1881  154.6747 C   0  0  0  0  0  0  0  0  0  0  0  0
  151.0875  137.7151  154.4334 C   0  0  0  0  0  0  0  0  0  0  0  0
  150.5415  138.1882  155.7626 C   0  0  0  0  0  0  0  0  0  0  0  0
  149.1968  141.0011  154.5683 C   0  0  0  0  0  0  0  0  0  0  0  0
  147.9716  141.5218  153.8003 C   0  0  0  0  0  0  0  0  0  0  0  0
  146.9460  140.5363  153.8186 O   0  0  0  0  0  0  0  0  0  0  0  0
  146.1909  135.1598  151.5080 N   0  0  0  0  0  0  0  0  0  0  0  0
  145.5886  133.9953  150.9637 C   0  0  0  0  0  0  0  0  0  0  0  0
  146.2499  133.0481  150.2884 N   0  0  0  0  0  0  0  0  0  0  0  0
  145.4054  132.0164  149.8703 C   0  0  0  0  0  0  0  0  0  0  0  0
  144.0953  132.1959  150.2381 C   0  0  0  0  0  0  0  0  0  0  0  0
  143.8679  133.6770  151.1290 S   0  0  0  0  0  0  0  0  0  0  0  0
  147.4630  136.9554  152.2968 H   0  0  0  0  0  0  0  0  0  0  0  0
  145.2920  138.8275  152.6770 H   0  0  0  0  0  0  0  0  0  0  0  0
  145.8414  138.1414  154.1972 H   0  0  0  0  0  0  0  0  0  0  0  0
  147.6360  139.5349  152.1515 H   0  0  0  0  0  0  0  0  0  0  0  0
  148.2572  138.4714  154.9640 H   0  0  0  0  0  0  0  0  0  0  0  0
  148.8884  137.8237  153.4602 H   0  0  0  0  0  0  0  0  0  0  0  0
  151.6973  139.8705  154.7779 H   0  0  0  0  0  0  0  0  0  0  0  0
  150.4050  137.1865  153.7701 H   0  0  0  0  0  0  0  0  0  0  0  0
  152.1182  137.3669  154.4131 H   0  0  0  0  0  0  0  0  0  0  0  0
  151.2124  138.1508  156.6185 H   0  0  0  0  0  0  0  0  0  0  0  0
  149.4968  137.9742  155.9812 H   0  0  0  0  0  0  0  0  0  0  0  0
  148.9454  140.8593  155.6207 H   0  0  0  0  0  0  0  0  0  0  0  0
  150.0016  141.7357  154.5271 H   0  0  0  0  0  0  0  0  0  0  0  0
  147.5952  142.4327  154.2660 H   0  0  0  0  0  0  0  0  0  0  0  0
  148.2328  141.7741  152.7712 H   0  0  0  0  0  0  0  0  0  0  0  0
  147.1948  135.2097  151.4164 H   0  0  0  0  0  0  0  0  0  0  0  0
  145.8217  131.1896  149.3139 H   0  0  0  0  0  0  0  0  0  0  0  0
  143.2536  131.5493  150.0391 H   0  0  0  0  0  0  0  0  0  0  0  0
  149.9234  139.9047  153.0333 H   0  0  0  0  0  0  0  0  0  0  0  0
  1  2  2  0  0  0  0
  2  3  1  0  0  0  0
  2 14  1  0  0  0  0
  3  4  1  0  0  0  0
  3 20  1  0  0  0  0
  4  5  1  0  0  0  0
  4 21  1  0  0  0  0
  4 22  1  0  0  0  0
  5 13  1  0  0  0  0
  5  6  1  0  0  0  0
  5 23  1  0  0  0  0
  6  7  1  0  0  0  0
  6 24  1  0  0  0  0
  6 25  1  0  0  0  0
  7  8  1  0  0  0  0
  7 11  1  0  0  0  0
  7 38  1  0  0  0  0
  8 10  1  0  0  0  0
  8  9  1  0  0  0  0
  8 26  1  0  0  0  0
  9 10  1  0  0  0  0
  9 27  1  0  0  0  0
  9 28  1  0  0  0  0
 10 29  1  0  0  0  0
 10 30  1  0  0  0  0
 11 12  1  0  0  0  0
 11 31  1  0  0  0  0
 11 32  1  0  0  0  0
 12 13  1  0  0  0  0
 12 33  1  0  0  0  0
 12 34  1  0  0  0  0
 14 15  1  0  0  0  0
 14 35  1  0  0  0  0
 15 19  1  0  0  0  0
 15 16  2  0  0  0  0
 16 17  1  0  0  0  0
 17 18  2  0  0  0  0
 17 36  1  0  0  0  0
 18 19  1  0  0  0  0
 18 37  1  0  0  0  0
M  CHG  1   7   1
M  END
> <s_m_source_file>
AV-unprocessed.smi

> <i_m_source_file_index>
2999

> <i_lp_mmshare_version>
43012

> <i_f3d_flags>
0

> <s_epik_input>
czFbY0hdW2NIXW5jMVtOSF1DKD1PKVtOSF1bQ0gyXVtDQEBIXTJbQ0gyXU4oW0NIMl1bQ0gyXU8yKVtDSF0zW0NIMl1bQ0gyXTM=

> <s_epik_cmdline>
J2VwaWtfcHl0aG9uJywgJy1waCcsICc3LjAnLCAnLXRuJywgJzgnLCAnLW1hJywgJzIwMCcsICctbWV0YWxfYmluZGluZycsICctaW1hZScsICc8aW5maWxlLm1hZT4nLCAnLW9tYWUnLCAnPG91dGZpbGUubWFlPic=

> <r_lp_tautomer_probability>
0.999

> <r_epik_Ionization_Penalty>
1.55235

> <r_epik_Ionization_Penalty_Charging>
1.55221

> <r_epik_Ionization_Penalty_Neutral>
0.000139685

> <r_epik_State_Penalty>
1.64652

> <r_epik_Charging_Adjusted_Penalty>
3.19873

> <i_epik_Tot_Q>
1

> <i_epik_Tot_abs_Q>
1

> <r_epik_Metal_State_Penalty>
1.68612

> <b_epik_Metal_Only>
0

> <s_lp_Force_Field>
OPLS_2005

> <r_lp_Energy>
22.0843

> <b_lp_Chiralities_Consistent>
1

> <s_lp_Variant>
AV-unprocessed.smi:2999-3

> <Gold.Version>
5.8.1

> <Gold.Id.Protein>
6NUR|6NUR_protein|mol2

> <Gold.PLP.Fitness>
45.4143

> <Gold.PLP.PLP>
-35.2615

> <Gold.PLP.part.hbond>
-3.0000

> <Gold.PLP.part.metal>
0.0000

> <Gold.PLP.part.buried>
-4.8456

> <Gold.PLP.part.nonpolar>
-28.9163

> <Gold.PLP.part.repulsive>
0.7529

> <Gold.PLP.ligand.clash>
0.0000

> <Gold.PLP.ligand.torsion>
0.7119

> <Gold.PLP.Chemscore.Hbond>
2.9833

> <Gold.PLP.Chemscore.CHOScore>
0.4551

> <Gold.PLP.Chemscore.Metal>
0.0000

> <Gold.Chemscore.Hbonds>
donor molecule, donor type, donor heavy atom, donor atom, acceptor molecule, acceptor atom, score
      L1  H     3    20       P1  7948  1.00
      L1  H     7    38       P1  7957  1.00
      L1  H    14    35       P1  7948  0.98
      L1  C    18    37       P1 10952  0.44

> <Gold.PLP.Chemscore.Internal.Correction>
1.2613

> <Gold.Rescore>
     Score         DG    S(hbond)    S(metal)    S(lipo)     H(rot)  DE(clash)    DE(int)     intcor
     18.21     -20.35       2.77        0.00      82.63       1.58       0.19       1.96       ----

> <Gold.Chemscore.Fitness>
18.2085

> <Gold.Chemscore.DG>
-20.3508

> <Gold.Chemscore.ZeroCoef>
-5.4800

> <Gold.Chemscore.Hbond>
2.7684

> <Gold.Chemscore.Metal>
0.0000

> <Gold.Chemscore.Lipo>
82.6301

> <Gold.Chemscore.Internal_Hbond>
0.0000

> <Gold.Chemscore.DEClash>
0.1859

> <Gold.Chemscore.DEInternal>
1.9563

> <Gold.Chemscore.Rot>
1.5795

> <Gold.Chemscore.Internal.Correction>
   9.000000E+99

> <Gold.Chemscore.Hbonds>
donor molecule, donor type, donor heavy atom, donor atom, acceptor molecule, acceptor atom, score
      L1  H     3    20       P1  7948  1.00
      L1  H     7    38       P1  7957  0.98
      L1  H    14    35       P1  7948  0.74

> <Gold.Chemscore.Hbond.Weighted>
-9.2465

> <Gold.Chemscore.Metal.Weighted>
-0.0000

> <Gold.Chemscore.Lipo.Weighted>
-9.6677

> <Gold.Chemscore.Internal_Hbond.Weighted>
0.0000

> <Gold.Chemscore.DEClash.Weighted>
0.1859

> <Gold.Chemscore.DEInternal.Weighted>
1.9563

> <Gold.Chemscore.Rot.Weighted>
4.0434

> <Gold.Chemscore.Internal.Correction.Weighted>
   9.000000E+99

> <Gold.Protein.RotatedTorsions>
[ 6907 6896 6895 6894 ] final -101.52 input  -60.11 | X-H torsion
[ 7974 7965 7964 7962 ] final   85.14 input  175.53 | X-H torsion
[ 8008 7997 7996 7995 ] final   22.61 input   59.86 | X-H torsion
[ 10167 10162 10161 10158 ] final  -50.47 input  -65.29 | X-H torsion
[ 10718 10713 10712 10709 ] final  128.21 input   66.30 | X-H torsion
[ 10763 10752 10751 10750 ] final   12.85 input  -60.55 | X-H torsion
[ 11005 11000 10999 10996 ] final  132.46 input  -57.11 | X-H torsion

> <Gold.Protein.ActiveResidues>
 VAL166  LYS551  ARG553  GLY616  TRP617  ASP618  TYR619  PRO620  LYS621  CYS622 
 ASP623  PHE694  ASN695  SER759  ASP760  ASP761  ALA762  ILE779  LEU786  VAL792 
 PHE793  MET794  SER795  GLU796  ALA797  LYS798  CYS799  TRP800  GLU811  SER814 

> <Gold.Protein.RotatedAtoms>
  150.7158  134.0721  159.3867 H   0  0  0  0  0  0  0  0  0  0  0  0  # atno 6907 bound_to 6896
  151.8704  135.0489  160.0488 H   0  0  0  0  0  0  0  0  0  0  0  0  # atno 6908 bound_to 6896
  152.2648  133.5293  159.5440 H   0  0  0  0  0  0  0  0  0  0  0  0  # atno 6909 bound_to 6896
  145.5895  139.2336  143.2307 H   0  0  0  0  0  0  0  0  0  0  0  0  # atno 7974 bound_to 7965
  154.9683  140.3087  155.4999 H   0  0  0  0  0  0  0  0  0  0  0  0  # atno 8008 bound_to 7997
  156.2969  140.2288  156.4713 H   0  0  0  0  0  0  0  0  0  0  0  0  # atno 8009 bound_to 7997
  154.7900  140.0440  157.1182 H   0  0  0  0  0  0  0  0  0  0  0  0  # atno 8010 bound_to 7997
  140.6636  143.2656  151.4364 H   0  0  0  0  0  0  0  0  0  0  0  0  # atno 10167 bound_to 10162
  157.5265  131.1098  150.9075 H   0  0  0  0  0  0  0  0  0  0  0  0  # atno 10718 bound_to 10713
  153.1780  135.6823  153.8516 H   0  0  0  0  0  0  0  0  0  0  0  0  # atno 10763 bound_to 10752
  153.7857  135.3176  155.3373 H   0  0  0  0  0  0  0  0  0  0  0  0  # atno 10764 bound_to 10752
  154.8042  135.4759  154.0444 H   0  0  0  0  0  0  0  0  0  0  0  0  # atno 10765 bound_to 10752
  139.9791  134.9554  156.9585 H   0  0  0  0  0  0  0  0  0  0  0  0  # atno 11005 bound_to 11000
  146.1657  140.6721  142.9256 LP  0  0  0  0  0  0  0  0  0  0  0  0  # atno 17320 bound_to 7965
  144.7358  140.4803  143.6905 LP  0  0  0  0  0  0  0  0  0  0  0  0  # atno 17321 bound_to 7965
  139.5877  144.1568  152.2050 LP  0  0  0  0  0  0  0  0  0  0  0  0  # atno 17342 bound_to 10162
  140.0912  144.5619  150.7053 LP  0  0  0  0  0  0  0  0  0  0  0  0  # atno 17343 bound_to 10162
  156.9670  130.5476  149.5288 LP  0  0  0  0  0  0  0  0  0  0  0  0  # atno 17370 bound_to 10713
  156.0390  130.5475  150.8725 LP  0  0  0  0  0  0  0  0  0  0  0  0  # atno 17371 bound_to 10713
  140.5132  134.0981  155.7275 LP  0  0  0  0  0  0  0  0  0  0  0  0  # atno 17394 bound_to 11000
  141.1465  133.9045  157.2201 LP  0  0  0  0  0  0  0  0  0  0  0  0  # atno 17395 bound_to 11000

$$$$
