AV-unprocessed.smi:623|AV-procd|sdf|3092|dock1
  -GOLD-   22720 0 13D 1   1.00000     0.00000
 Structure written by MMmdl.
 45 47  0  0  0  0  0  0  0  0  1 V2000
  147.6153  142.0548  155.7222 C   0  0  0  0  0  0  0  0  0  0  0  0
  147.9881  140.8375  154.8297 C   0  0  0  0  0  0  0  0  0  0  0  0
  147.2150  141.0584  153.4989 C   0  0  0  0  0  0  0  0  0  0  0  0
  149.5044  140.6213  154.6520 C   0  0  1  0  0  0  0  0  0  0  0  0
  149.9971  140.3229  156.0863 C   0  0  0  0  0  0  0  0  0  0  0  0
  148.8223  139.5211  156.6846 C   0  0  0  0  0  0  0  0  0  0  0  0
  147.8220  139.4453  155.5018 C   0  0  1  0  0  0  0  0  0  0  0  0
  146.3936  139.0819  155.9559 C   0  0  0  0  0  0  0  0  0  0  0  0
  148.4706  138.4462  154.4952 C   0  0  1  0  0  0  0  0  0  0  0  0
  147.5153  137.9283  153.5228 N   0  0  0  0  0  0  0  0  0  0  0  0
  146.5524  137.0221  153.7506 C   0  0  0  0  0  0  0  0  0  0  0  0
  146.3508  136.5247  154.8576 O   0  0  0  0  0  0  0  0  0  0  0  0
  145.6854  136.5909  152.5546 C   0  0  0  0  0  0  0  0  0  0  0  0
  144.3331  136.1368  152.9244 N   0  0  0  0  0  0  0  0  0  0  0  0
  143.2395  136.9647  152.7116 C   0  0  0  0  0  0  0  0  0  0  0  0
  141.9753  136.6376  153.0692 C   0  0  0  0  0  0  0  0  0  0  0  0
  141.6980  135.3591  153.7148 C   0  0  0  0  0  0  0  0  0  0  0  0
  140.5889  134.9733  154.0774 O   0  0  0  0  0  0  0  0  0  0  0  0
  142.8229  134.5537  153.9111 N   0  0  0  0  0  0  0  0  0  0  0  0
  144.1286  134.8852  153.5463 C   0  0  0  0  0  0  0  0  0  0  0  0
  145.0521  134.1070  153.7809 O   0  0  0  0  0  0  0  0  0  0  0  0
  149.5983  139.2951  153.8633 C   0  0  0  0  0  0  0  0  0  0  0  0
  142.6795  133.6590  154.3568 H   0  0  0  0  0  0  0  0  0  0  0  0
  147.9171  142.9874  155.2445 H   0  0  0  0  0  0  0  0  0  0  0  0
  148.0650  142.0590  156.7124 H   0  0  0  0  0  0  0  0  0  0  0  0
  146.5366  142.1072  155.8728 H   0  0  0  0  0  0  0  0  0  0  0  0
  147.4194  140.3341  152.7156 H   0  0  0  0  0  0  0  0  0  0  0  0
  147.4587  142.0321  153.0729 H   0  0  0  0  0  0  0  0  0  0  0  0
  146.1378  141.0441  153.6666 H   0  0  0  0  0  0  0  0  0  0  0  0
  150.0349  141.4459  154.1746 H   0  0  0  0  0  0  0  0  0  0  0  0
  150.9284  139.7553  156.0942 H   0  0  0  0  0  0  0  0  0  0  0  0
  150.1770  141.2403  156.6473 H   0  0  0  0  0  0  0  0  0  0  0  0
  149.1348  138.5372  157.0368 H   0  0  0  0  0  0  0  0  0  0  0  0
  148.3963  140.0347  157.5467 H   0  0  0  0  0  0  0  0  0  0  0  0
  146.3639  138.0787  156.3818 H   0  0  0  0  0  0  0  0  0  0  0  0
  145.6837  139.1108  155.1291 H   0  0  0  0  0  0  0  0  0  0  0  0
  146.0328  139.7729  156.7178 H   0  0  0  0  0  0  0  0  0  0  0  0
  148.8899  137.5886  155.0246 H   0  0  0  0  0  0  0  0  0  0  0  0
  147.6011  138.2847  152.5819 H   0  0  0  0  0  0  0  0  0  0  0  0
  145.6131  137.4356  151.8677 H   0  0  0  0  0  0  0  0  0  0  0  0
  146.2162  135.8168  151.9976 H   0  0  0  0  0  0  0  0  0  0  0  0
  143.4002  137.9258  152.2442 H   0  0  0  0  0  0  0  0  0  0  0  0
  141.1650  137.3268  152.8800 H   0  0  0  0  0  0  0  0  0  0  0  0
  149.4484  139.4569  152.7955 H   0  0  0  0  0  0  0  0  0  0  0  0
  150.5735  138.8191  153.9721 H   0  0  0  0  0  0  0  0  0  0  0  0
  1  2  1  0  0  0  0
  1 24  1  0  0  0  0
  1 25  1  0  0  0  0
  1 26  1  0  0  0  0
  2  7  1  0  0  0  0
  2  3  1  0  0  0  0
  2  4  1  0  0  0  0
  3 27  1  0  0  0  0
  3 28  1  0  0  0  0
  3 29  1  0  0  0  0
  4 22  1  0  0  0  0
  4  5  1  0  0  0  0
  4 30  1  0  0  0  0
  5  6  1  0  0  0  0
  5 31  1  0  0  0  0
  5 32  1  0  0  0  0
  6  7  1  0  0  0  0
  6 33  1  0  0  0  0
  6 34  1  0  0  0  0
  7  8  1  0  0  0  0
  7  9  1  0  0  0  0
  8 35  1  0  0  0  0
  8 36  1  0  0  0  0
  8 37  1  0  0  0  0
  9 10  1  0  0  0  0
  9 22  1  0  0  0  0
  9 38  1  0  0  0  0
 10 11  1  0  0  0  0
 10 39  1  0  0  0  0
 11 12  2  0  0  0  0
 11 13  1  0  0  0  0
 13 14  1  0  0  0  0
 13 40  1  0  0  0  0
 13 41  1  0  0  0  0
 14 20  1  0  0  0  0
 14 15  1  0  0  0  0
 15 16  2  0  0  0  0
 15 42  1  0  0  0  0
 16 17  1  0  0  0  0
 16 43  1  0  0  0  0
 17 18  2  0  0  0  0
 17 19  1  0  0  0  0
 19 23  1  0  0  0  0
 19 20  1  0  0  0  0
 20 21  2  0  0  0  0
 22 44  1  0  0  0  0
 22 45  1  0  0  0  0
M  END
> <s_m_source_file>
AV-unprocessed.smi

> <i_m_source_file_index>
623

> <i_lp_mmshare_version>
43012

> <i_f3d_flags>
0

> <s_epik_input>
W0NIM11bQ0BdMTJDKFtDSDNdKShbQ0gzXSlbQ0BIXShbQ0gyXVtDSDJdMSlbQ0gyXVtDQEBIXTJbTkhdQyg9TylbQ0gyXW4zW2NIXVtjSF1jKD1PKVtuSF1jMz1P

> <s_epik_cmdline>
J2VwaWtfcHl0aG9uJywgJy1waCcsICc3LjAnLCAnLXRuJywgJzgnLCAnLW1hJywgJzIwMCcsICctbWV0YWxfYmluZGluZycsICctaW1hZScsICc8aW5maWxlLm1hZT4nLCAnLW9tYWUnLCAnPG91dGZpbGUubWFlPic=

> <r_lp_tautomer_probability>
0.999537

> <r_epik_Ionization_Penalty>
0.00303563

> <r_epik_Ionization_Penalty_Charging>
0.00303561

> <r_epik_Ionization_Penalty_Neutral>
2.03238e-08

> <r_epik_State_Penalty>
0.00213308

> <r_epik_Charging_Adjusted_Penalty>
0.00516869

> <i_epik_Tot_Q>
0

> <i_epik_Tot_abs_Q>
0

> <r_epik_Metal_State_Penalty>
0.361714

> <b_epik_Metal_Only>
0

> <s_lp_Force_Field>
OPLS_2005

> <r_lp_Energy>
54.5125

> <b_lp_Chiralities_Consistent>
1

> <s_lp_Variant>
AV-unprocessed.smi:623-2

> <Gold.Version>
5.8.1

> <Gold.Id.Protein>
6NUR|6NUR_protein|mol2

> <Gold.PLP.Fitness>
36.0383

> <Gold.PLP.PLP>
-25.4101

> <Gold.PLP.part.hbond>
-4.0000

> <Gold.PLP.part.metal>
0.0000

> <Gold.PLP.part.buried>
-0.4962

> <Gold.PLP.part.nonpolar>
-21.3182

> <Gold.PLP.part.repulsive>
0.3514

> <Gold.PLP.ligand.clash>
0.0000

> <Gold.PLP.ligand.torsion>
0.6799

> <Gold.PLP.Chemscore.Hbond>
1.9913

> <Gold.PLP.Chemscore.CHOScore>
2.0000

> <Gold.PLP.Chemscore.Metal>
0.0000

> <Gold.Chemscore.Hbonds>
donor molecule, donor type, donor heavy atom, donor atom, acceptor molecule, acceptor atom, score
      L1  H    19    23       P1 10957  1.00
      P1  H 11000 11005       L1    18  1.00
      L1  C    15    42       P1 10171  0.96
      L1  C    15    42       P1 10175  1.00

> <Gold.PLP.Chemscore.Internal.Correction>
0.0142

> <Gold.Rescore>
     Score         DG    S(hbond)    S(metal)    S(lipo)     H(rot)  DE(clash)    DE(int)     intcor
      8.86     -14.02       2.01        0.00      51.95       1.66       0.17       4.99       ----

> <Gold.Chemscore.Fitness>
8.8597

> <Gold.Chemscore.DG>
-14.0234

> <Gold.Chemscore.ZeroCoef>
-5.4800

> <Gold.Chemscore.Hbond>
2.0139

> <Gold.Chemscore.Metal>
0.0000

> <Gold.Chemscore.Lipo>
51.9544

> <Gold.Chemscore.Internal_Hbond>
0.0000

> <Gold.Chemscore.DEClash>
0.1730

> <Gold.Chemscore.DEInternal>
4.9906

> <Gold.Chemscore.Rot>
1.6647

> <Gold.Chemscore.Internal.Correction>
   9.000000E+99

> <Gold.Chemscore.Hbonds>
donor molecule, donor type, donor heavy atom, donor atom, acceptor molecule, acceptor atom, score
      L1  H    19    23       P1 10957  0.99
      P1  H 11000 11005       L1    18  0.99

> <Gold.Chemscore.Hbond.Weighted>
-6.7264

> <Gold.Chemscore.Metal.Weighted>
-0.0000

> <Gold.Chemscore.Lipo.Weighted>
-6.0787

> <Gold.Chemscore.Internal_Hbond.Weighted>
0.0000

> <Gold.Chemscore.DEClash.Weighted>
0.1730

> <Gold.Chemscore.DEInternal.Weighted>
4.9906

> <Gold.Chemscore.Rot.Weighted>
4.2617

> <Gold.Chemscore.Internal.Correction.Weighted>
   9.000000E+99

> <Gold.Protein.RotatedTorsions>
[ 6907 6896 6895 6894 ] final    6.84 input  -60.11 | X-H torsion
[ 7974 7965 7964 7962 ] final   66.69 input  175.53 | X-H torsion
[ 8008 7997 7996 7995 ] final   98.31 input   59.86 | X-H torsion
[ 10167 10162 10161 10158 ] final  152.56 input  -65.29 | X-H torsion
[ 10718 10713 10712 10709 ] final -125.78 input   66.30 | X-H torsion
[ 10763 10752 10751 10750 ] final  -92.53 input  -60.55 | X-H torsion
[ 11005 11000 10999 10996 ] final   30.75 input  -57.11 | X-H torsion

> <Gold.Protein.ActiveResidues>
 VAL166  LYS551  ARG553  GLY616  TRP617  ASP618  TYR619  PRO620  LYS621  CYS622 
 ASP623  PHE694  ASN695  SER759  ASP760  ASP761  ALA762  ILE779  LEU786  VAL792 
 PHE793  MET794  SER795  GLU796  ALA797  LYS798  CYS799  TRP800  GLU811  SER814 

> <Gold.Protein.RotatedAtoms>
  151.6802  135.0963  160.0214 H   0  0  0  0  0  0  0  0  0  0  0  0  # atno 6907 bound_to 6896
  152.3840  133.6581  159.6192 H   0  0  0  0  0  0  0  0  0  0  0  0  # atno 6908 bound_to 6896
  150.7770  133.8983  159.3375 H   0  0  0  0  0  0  0  0  0  0  0  0  # atno 6909 bound_to 6896
  145.8236  139.3098  143.1029 H   0  0  0  0  0  0  0  0  0  0  0  0  # atno 7974 bound_to 7965
  156.0991  140.3245  155.7918 H   0  0  0  0  0  0  0  0  0  0  0  0  # atno 8008 bound_to 7997
  155.4867  140.0558  157.2977 H   0  0  0  0  0  0  0  0  0  0  0  0  # atno 8009 bound_to 7997
  154.4685  140.2000  156.0070 H   0  0  0  0  0  0  0  0  0  0  0  0  # atno 8010 bound_to 7997
  139.4832  144.5348  151.7664 H   0  0  0  0  0  0  0  0  0  0  0  0  # atno 10167 bound_to 10162
  156.1706  130.6665  151.0174 H   0  0  0  0  0  0  0  0  0  0  0  0  # atno 10718 bound_to 10713
  154.6870  135.5228  153.8340 H   0  0  0  0  0  0  0  0  0  0  0  0  # atno 10763 bound_to 10752
  153.0605  135.6566  154.0484 H   0  0  0  0  0  0  0  0  0  0  0  0  # atno 10764 bound_to 10752
  154.0364  135.2981  155.3341 H   0  0  0  0  0  0  0  0  0  0  0  0  # atno 10765 bound_to 10752
  140.2911  134.2863  155.7776 H   0  0  0  0  0  0  0  0  0  0  0  0  # atno 11005 bound_to 11000
  145.9648  140.8807  143.0192 LP  0  0  0  0  0  0  0  0  0  0  0  0  # atno 17320 bound_to 7965
  144.6745  140.1863  143.7401 LP  0  0  0  0  0  0  0  0  0  0  0  0  # atno 17321 bound_to 7965
  140.4879  144.1354  150.5944 LP  0  0  0  0  0  0  0  0  0  0  0  0  # atno 17342 bound_to 10162
  140.4205  143.2614  151.9722 LP  0  0  0  0  0  0  0  0  0  0  0  0  # atno 17343 bound_to 10162
  157.6800  131.0840  150.7395 LP  0  0  0  0  0  0  0  0  0  0  0  0  # atno 17370 bound_to 10713
  156.7455  130.4752  149.5468 LP  0  0  0  0  0  0  0  0  0  0  0  0  # atno 17371 bound_to 10713
  141.2146  133.7586  156.9626 LP  0  0  0  0  0  0  0  0  0  0  0  0  # atno 17394 bound_to 11000
  140.1194  134.9426  157.2182 LP  0  0  0  0  0  0  0  0  0  0  0  0  # atno 17395 bound_to 11000

$$$$
