AV-unprocessed.smi:1586|AV-procd|sdf|6385|dock1
  -GOLD-   22720 7 23D 1   1.00000     0.00000
 Structure written by MMmdl.
 45 46  0  0  0  0  0  0  0  0  2 V2000
  151.3823  145.0659  159.8791 C   0  0  0  0  0  0  0  0  0  0  0  0
  152.4427  144.6965  158.8319 C   0  0  0  0  0  0  0  0  0  0  0  0
  152.4631  143.2869  158.4452 N   0  0  0  0  0  0  0  0  0  0  0  0
  152.7415  142.4354  159.5995 C   0  0  0  0  0  0  0  0  0  0  0  0
  152.7819  140.9454  159.2147 C   0  0  0  0  0  0  0  0  0  0  0  0
  151.5159  140.4915  158.6228 N   0  0  0  0  0  0  0  0  0  0  0  0
  151.5399  139.0573  158.2620 C   0  0  2  0  0  0  0  0  0  0  0  0
  152.5926  138.7112  157.1846 C   0  0  0  0  0  0  0  0  0  0  0  0
  150.1713  138.5036  157.7917 C   0  0  0  0  0  0  0  0  0  0  0  0
  149.2524  138.3166  158.9098 N   0  0  0  0  0  0  0  0  0  0  0  0
  149.0154  137.1544  159.5314 C   0  0  0  0  0  0  0  0  0  0  0  0
  149.6005  136.1325  159.1643 O   0  0  0  0  0  0  0  0  0  0  0  0
  148.1148  137.2477  160.5369 N   0  5  0  0  0  0  0  0  0  0  0  0
  147.4495  136.1590  160.9521 C   0  0  0  0  0  0  0  0  0  0  0  0
  146.5178  136.1061  162.0249 C   0  0  0  0  0  0  0  0  0  0  0  0
  146.1429  134.7928  162.0484 C   0  0  0  0  0  0  0  0  0  0  0  0
  145.1944  134.0260  162.9056 C   0  0  0  0  0  0  0  0  0  0  0  0
  146.7982  134.0976  161.0801 O   0  0  0  0  0  0  0  0  0  0  0  0
  147.6367  134.9782  160.3864 N   0  0  0  0  0  0  0  0  0  0  0  0
  151.2309  141.3593  157.4723 C   0  0  0  0  0  0  0  0  0  0  0  0
  151.1953  142.8492  157.8605 C   0  0  0  0  0  0  0  0  0  0  0  0
  151.3598  146.1445  160.0355 H   0  0  0  0  0  0  0  0  0  0  0  0
  151.5848  144.6044  160.8453 H   0  0  0  0  0  0  0  0  0  0  0  0
  150.3873  144.7571  159.5573 H   0  0  0  0  0  0  0  0  0  0  0  0
  152.2489  145.3007  157.9445 H   0  0  0  0  0  0  0  0  0  0  0  0
  153.4282  144.9977  159.1899 H   0  0  0  0  0  0  0  0  0  0  0  0
  153.6993  142.7144  160.0400 H   0  0  0  0  0  0  0  0  0  0  0  0
  151.9867  142.5916  160.3721 H   0  0  0  0  0  0  0  0  0  0  0  0
  153.6060  140.7642  158.5229 H   0  0  0  0  0  0  0  0  0  0  0  0
  153.0023  140.3844  160.1212 H   0  0  0  0  0  0  0  0  0  0  0  0
  151.8108  138.4917  159.1547 H   0  0  0  0  0  0  0  0  0  0  0  0
  152.5061  137.6717  156.8673 H   0  0  0  0  0  0  0  0  0  0  0  0
  153.6113  138.8316  157.5517 H   0  0  0  0  0  0  0  0  0  0  0  0
  152.4769  139.3354  156.2980 H   0  0  0  0  0  0  0  0  0  0  0  0
  149.7170  139.1938  157.0793 H   0  0  0  0  0  0  0  0  0  0  0  0
  150.2889  137.5667  157.2470 H   0  0  0  0  0  0  0  0  0  0  0  0
  148.7627  139.1349  159.2410 H   0  0  0  0  0  0  0  0  0  0  0  0
  146.1773  136.9037  162.6678 H   0  0  0  0  0  0  0  0  0  0  0  0
  144.1992  134.4691  162.8708 H   0  0  0  0  0  0  0  0  0  0  0  0
  145.5286  134.0243  163.9431 H   0  0  0  0  0  0  0  0  0  0  0  0
  145.1139  132.9900  162.5752 H   0  0  0  0  0  0  0  0  0  0  0  0
  151.9733  141.1991  156.6890 H   0  0  0  0  0  0  0  0  0  0  0  0
  150.2610  141.1144  157.0424 H   0  0  0  0  0  0  0  0  0  0  0  0
  150.3780  143.0252  158.5619 H   0  0  0  0  0  0  0  0  0  0  0  0
  150.9721  143.4321  156.9673 H   0  0  0  0  0  0  0  0  0  0  0  0
  1  2  1  0  0  0  0
  1 22  1  0  0  0  0
  1 23  1  0  0  0  0
  1 24  1  0  0  0  0
  2  3  1  0  0  0  0
  2 25  1  0  0  0  0
  2 26  1  0  0  0  0
  3 21  1  0  0  0  0
  3  4  1  0  0  0  0
  4  5  1  0  0  0  0
  4 27  1  0  0  0  0
  4 28  1  0  0  0  0
  5  6  1  0  0  0  0
  5 29  1  0  0  0  0
  5 30  1  0  0  0  0
  6  7  1  0  0  0  0
  6 20  1  0  0  0  0
  7  8  1  0  0  0  0
  7  9  1  0  0  0  0
  7 31  1  0  0  0  0
  8 32  1  0  0  0  0
  8 33  1  0  0  0  0
  8 34  1  0  0  0  0
  9 10  1  0  0  0  0
  9 35  1  0  0  0  0
  9 36  1  0  0  0  0
 10 11  1  0  0  0  0
 10 37  1  0  0  0  0
 11 12  2  0  0  0  0
 11 13  1  0  0  0  0
 13 14  1  0  0  0  0
 14 19  2  0  0  0  0
 14 15  1  0  0  0  0
 15 16  2  0  0  0  0
 15 38  1  0  0  0  0
 16 17  1  0  0  0  0
 16 18  1  0  0  0  0
 17 39  1  0  0  0  0
 17 40  1  0  0  0  0
 17 41  1  0  0  0  0
 18 19  1  0  0  0  0
 20 21  1  0  0  0  0
 20 42  1  0  0  0  0
 20 43  1  0  0  0  0
 21 44  1  0  0  0  0
 21 45  1  0  0  0  0
M  CHG  1  13  -1
M  END
> <s_m_source_file>
AV-unprocessed.smi

> <i_m_source_file_index>
1586

> <i_lp_mmshare_version>
43012

> <i_f3d_flags>
0

> <s_epik_input>
W0NIM11bQ0gyXU4xW0NIMl1bQ0gyXU4oW0NIMl1bQ0gyXTEpW0NASF0oW0NIM10pW0NIMl1bTkhdQyg9TylbTkhdYzJbY0hdYyhbQ0gzXSlvbjI=

> <s_epik_cmdline>
J2VwaWtfcHl0aG9uJywgJy1waCcsICc3LjAnLCAnLXRuJywgJzgnLCAnLW1hJywgJzIwMCcsICctbWV0YWxfYmluZGluZycsICctaW1hZScsICc8aW5maWxlLm1hZT4nLCAnLW9tYWUnLCAnPG91dGZpbGUubWFlPic=

> <r_epik_Ionization_Penalty>
9.09031

> <r_epik_Ionization_Penalty_Charging>
6.65437

> <r_epik_Ionization_Penalty_Neutral>
2.43594

> <r_epik_State_Penalty>
8.41762

> <r_epik_Charging_Adjusted_Penalty>
15.072

> <i_epik_Tot_Q>
-1

> <i_epik_Tot_abs_Q>
1

> <r_epik_Metal_State_Penalty>
4.3436

> <b_epik_Metal_Only>
1

> <s_lp_Force_Field>
OPLS_2005

> <r_lp_Energy>
37.6489

> <b_lp_Chiralities_Consistent>
1

> <s_lp_Variant>
AV-unprocessed.smi:1586-13

> <Gold.Version>
5.8.1

> <Gold.Id.Protein>
6NUR|6NUR_protein|mol2

> <Gold.PLP.Fitness>
48.3644

> <Gold.PLP.PLP>
-37.7694

> <Gold.PLP.part.hbond>
-3.0000

> <Gold.PLP.part.metal>
0.0000

> <Gold.PLP.part.buried>
-4.4466

> <Gold.PLP.part.nonpolar>
-30.7325

> <Gold.PLP.part.repulsive>
0.2416

> <Gold.PLP.ligand.clash>
0.0000

> <Gold.PLP.ligand.torsion>
0.4430

> <Gold.PLP.Chemscore.Hbond>
3.7912

> <Gold.PLP.Chemscore.CHOScore>
0.0000

> <Gold.PLP.Chemscore.Metal>
0.0000

> <Gold.Chemscore.Hbonds>
donor molecule, donor type, donor heavy atom, donor atom, acceptor molecule, acceptor atom, score
      P1  H  6896  6907       L1    12  1.00
      P1  H  6931  6943       L1    13  1.50
      P1  H  6934  6947       L1    13  1.36

> <Gold.PLP.Chemscore.Internal.Correction>
0.1073

> <Gold.Rescore>
     Score         DG    S(hbond)    S(metal)    S(lipo)     H(rot)  DE(clash)    DE(int)     intcor
     16.71     -18.78       1.88        0.00      96.62       1.68       0.01       2.06       ----

> <Gold.Chemscore.Fitness>
16.7052

> <Gold.Chemscore.DG>
-18.7760

> <Gold.Chemscore.ZeroCoef>
-5.4800

> <Gold.Chemscore.Hbond>
1.8831

> <Gold.Chemscore.Metal>
0.0000

> <Gold.Chemscore.Lipo>
96.6179

> <Gold.Chemscore.Internal_Hbond>
0.0000

> <Gold.Chemscore.DEClash>
0.0091

> <Gold.Chemscore.DEInternal>
2.0618

> <Gold.Chemscore.Rot>
1.6788

> <Gold.Chemscore.Internal.Correction>
   9.000000E+99

> <Gold.Chemscore.Hbonds>
donor molecule, donor type, donor heavy atom, donor atom, acceptor molecule, acceptor atom, score
      P1  H  6896  6907       L1    12  1.00
      P1  H  6931  6943       L1    13  0.31
      P1  H  6934  6947       L1    13  0.59

> <Gold.Chemscore.Hbond.Weighted>
-6.2895

> <Gold.Chemscore.Metal.Weighted>
-0.0000

> <Gold.Chemscore.Lipo.Weighted>
-11.3043

> <Gold.Chemscore.Internal_Hbond.Weighted>
0.0000

> <Gold.Chemscore.DEClash.Weighted>
0.0091

> <Gold.Chemscore.DEInternal.Weighted>
2.0618

> <Gold.Chemscore.Rot.Weighted>
4.2978

> <Gold.Chemscore.Internal.Correction.Weighted>
   9.000000E+99

> <Gold.Protein.RotatedTorsions>
[ 6907 6896 6895 6894 ] final  -39.19 input  -60.11 | X-H torsion
[ 7974 7965 7964 7962 ] final  140.54 input  175.53 | X-H torsion
[ 8008 7997 7996 7995 ] final  -69.14 input   59.86 | X-H torsion
[ 10167 10162 10161 10158 ] final -152.06 input  -65.29 | X-H torsion
[ 10718 10713 10712 10709 ] final  173.38 input   66.30 | X-H torsion
[ 10763 10752 10751 10750 ] final  166.91 input  -60.55 | X-H torsion
[ 11005 11000 10999 10996 ] final -143.08 input  -57.11 | X-H torsion

> <Gold.Protein.ActiveResidues>
 VAL166  LYS551  ARG553  GLY616  TRP617  ASP618  TYR619  PRO620  LYS621  CYS622 
 ASP623  PHE694  ASN695  SER759  ASP760  ASP761  ALA762  ILE779  LEU786  VAL792 
 PHE793  MET794  SER795  GLU796  ALA797  LYS798  CYS799  TRP800  GLU811  SER814 

> <Gold.Protein.RotatedAtoms>
  150.9934  134.9263  159.7912 H   0  0  0  0  0  0  0  0  0  0  0  0  # atno 6907 bound_to 6896
  152.5257  134.3251  159.9172 H   0  0  0  0  0  0  0  0  0  0  0  0  # atno 6908 bound_to 6896
  151.3257  133.3980  159.2692 H   0  0  0  0  0  0  0  0  0  0  0  0  # atno 6909 bound_to 6896
  144.9177  139.5208  143.5678 H   0  0  0  0  0  0  0  0  0  0  0  0  # atno 7974 bound_to 7965
  154.4917  140.0859  156.7609 H   0  0  0  0  0  0  0  0  0  0  0  0  # atno 8008 bound_to 7997
  155.4214  140.3446  155.4253 H   0  0  0  0  0  0  0  0  0  0  0  0  # atno 8009 bound_to 7997
  156.1339  140.1509  156.9012 H   0  0  0  0  0  0  0  0  0  0  0  0  # atno 8010 bound_to 7997
  139.7213  143.8952  152.2504 H   0  0  0  0  0  0  0  0  0  0  0  0  # atno 10167 bound_to 10162
  156.9652  131.0073  151.2918 H   0  0  0  0  0  0  0  0  0  0  0  0  # atno 10718 bound_to 10713
  154.3461  135.2753  155.2397 H   0  0  0  0  0  0  0  0  0  0  0  0  # atno 10763 bound_to 10752
  154.4647  135.5898  153.6283 H   0  0  0  0  0  0  0  0  0  0  0  0  # atno 10764 bound_to 10752
  152.9853  135.6073  154.3667 H   0  0  0  0  0  0  0  0  0  0  0  0  # atno 10765 bound_to 10752
  140.8161  134.2686  157.4920 H   0  0  0  0  0  0  0  0  0  0  0  0  # atno 11005 bound_to 11000
  146.3190  139.8033  142.8961 LP  0  0  0  0  0  0  0  0  0  0  0  0  # atno 17320 bound_to 7965
  145.3347  141.0274  143.3426 LP  0  0  0  0  0  0  0  0  0  0  0  0  # atno 17321 bound_to 7965
  139.8849  144.6997  150.8836 LP  0  0  0  0  0  0  0  0  0  0  0  0  # atno 17342 bound_to 10162
  140.7754  143.3632  151.1789 LP  0  0  0  0  0  0  0  0  0  0  0  0  # atno 17343 bound_to 10162
  157.5631  130.8259  149.8291 LP  0  0  0  0  0  0  0  0  0  0  0  0  # atno 17370 bound_to 10713
  156.0306  130.3766  150.1700 LP  0  0  0  0  0  0  0  0  0  0  0  0  # atno 17371 bound_to 10713
  139.8711  134.9510  156.4071 LP  0  0  0  0  0  0  0  0  0  0  0  0  # atno 17394 bound_to 11000
  140.9147  133.7687  155.9834 LP  0  0  0  0  0  0  0  0  0  0  0  0  # atno 17395 bound_to 11000

$$$$
