AV-unprocessed.smi:1648|AV-procd|sdf|6630|dock10
  -GOLD-   22720 7333D 1   1.00000     0.00000
 Structure written by MMmdl.
 42 42  0  0  0  0  0  0  0  0  2 V2000
  153.2882  138.4595  160.2493 C   0  0  0  0  0  0  0  0  0  0  0  0
  153.0462  139.4397  159.0999 C   0  0  0  0  0  0  0  0  0  0  0  0
  153.5243  139.2005  157.9937 O   0  0  0  0  0  0  0  0  0  0  0  0
  152.3118  140.5442  159.3191 N   0  0  0  0  0  0  0  0  0  0  0  0
  151.9735  141.5916  158.3523 C   0  0  1  0  0  0  0  0  0  0  0  0
  150.5397  141.3152  157.8656 C   0  0  0  0  0  0  0  0  0  0  0  0
  149.5946  141.3567  158.6550 O   0  0  0  0  0  0  0  0  0  0  0  0
  150.3981  141.0192  156.5638 N   0  0  0  0  0  0  0  0  0  0  0  0
  149.1409  140.6797  155.8989 C   0  0  1  0  0  0  0  0  0  0  0  0
  148.1156  141.7838  156.1877 C   0  0  0  0  0  0  0  0  0  0  0  0
  149.3473  140.4929  154.3790 C   0  0  0  0  0  0  0  0  0  0  0  0
  148.1356  140.0455  153.6814 N   0  0  0  0  0  0  0  0  0  0  0  0
  147.8289  138.7693  153.2835 C   0  0  0  0  0  0  0  0  0  0  0  0
  146.6075  138.8355  152.6639 C   0  0  0  0  0  0  0  0  0  0  0  0
  146.2150  140.1459  152.7196 N   0  3  0  0  0  0  0  0  0  0  0  0
  147.1406  140.8778  153.3471 C   0  0  0  0  0  0  0  0  0  0  0  0
  152.0379  142.9763  159.0611 C   0  0  0  0  0  0  0  0  0  0  0  0
  151.8831  144.1581  158.0815 C   0  0  0  0  0  0  0  0  0  0  0  0
  153.3458  143.1506  159.8581 C   0  0  0  0  0  0  0  0  0  0  0  0
  153.7161  138.9625  161.1158 H   0  0  0  0  0  0  0  0  0  0  0  0
  153.9792  137.6729  159.9441 H   0  0  0  0  0  0  0  0  0  0  0  0
  152.3522  137.9871  160.5481 H   0  0  0  0  0  0  0  0  0  0  0  0
  151.9017  140.6447  160.2366 H   0  0  0  0  0  0  0  0  0  0  0  0
  152.6698  141.5894  157.5118 H   0  0  0  0  0  0  0  0  0  0  0  0
  151.2289  141.0188  155.9895 H   0  0  0  0  0  0  0  0  0  0  0  0
  148.7421  139.7542  156.3182 H   0  0  0  0  0  0  0  0  0  0  0  0
  147.1503  141.5496  155.7376 H   0  0  0  0  0  0  0  0  0  0  0  0
  148.4429  142.7455  155.7905 H   0  0  0  0  0  0  0  0  0  0  0  0
  147.9569  141.9027  157.2600 H   0  0  0  0  0  0  0  0  0  0  0  0
  149.6457  141.4369  153.9212 H   0  0  0  0  0  0  0  0  0  0  0  0
  150.1493  139.7796  154.1813 H   0  0  0  0  0  0  0  0  0  0  0  0
  148.4900  137.9325  153.4569 H   0  0  0  0  0  0  0  0  0  0  0  0
  146.0043  138.0683  152.2004 H   0  0  0  0  0  0  0  0  0  0  0  0
  147.0947  141.9350  153.5364 H   0  0  0  0  0  0  0  0  0  0  0  0
  151.2182  143.0414  159.7789 H   0  0  0  0  0  0  0  0  0  0  0  0
  152.6530  144.1336  157.3096 H   0  0  0  0  0  0  0  0  0  0  0  0
  151.9690  145.1119  158.6027 H   0  0  0  0  0  0  0  0  0  0  0  0
  150.9126  144.1585  157.5849 H   0  0  0  0  0  0  0  0  0  0  0  0
  154.2176  143.0678  159.2084 H   0  0  0  0  0  0  0  0  0  0  0  0
  153.4462  142.4048  160.6467 H   0  0  0  0  0  0  0  0  0  0  0  0
  153.3845  144.1280  160.3400 H   0  0  0  0  0  0  0  0  0  0  0  0
  145.3489  140.5103  152.3426 H   0  0  0  0  0  0  0  0  0  0  0  0
  1  2  1  0  0  0  0
  1 20  1  0  0  0  0
  1 21  1  0  0  0  0
  1 22  1  0  0  0  0
  2  3  2  0  0  0  0
  2  4  1  0  0  0  0
  4  5  1  0  0  0  0
  4 23  1  0  0  0  0
  5  6  1  0  0  0  0
  5 17  1  0  0  0  0
  5 24  1  0  0  0  0
  6  7  2  0  0  0  0
  6  8  1  0  0  0  0
  8  9  1  0  0  0  0
  8 25  1  0  0  0  0
  9 10  1  0  0  0  0
  9 11  1  0  0  0  0
  9 26  1  0  0  0  0
 10 27  1  0  0  0  0
 10 28  1  0  0  0  0
 10 29  1  0  0  0  0
 11 12  1  0  0  0  0
 11 30  1  0  0  0  0
 11 31  1  0  0  0  0
 12 16  1  0  0  0  0
 12 13  1  0  0  0  0
 13 14  2  0  0  0  0
 13 32  1  0  0  0  0
 14 15  1  0  0  0  0
 14 33  1  0  0  0  0
 15 16  2  0  0  0  0
 15 42  1  0  0  0  0
 16 34  1  0  0  0  0
 17 18  1  0  0  0  0
 17 19  1  0  0  0  0
 17 35  1  0  0  0  0
 18 36  1  0  0  0  0
 18 37  1  0  0  0  0
 18 38  1  0  0  0  0
 19 39  1  0  0  0  0
 19 40  1  0  0  0  0
 19 41  1  0  0  0  0
M  CHG  1  15   1
M  END
> <s_m_source_file>
AV-unprocessed.smi

> <i_m_source_file_index>
1648

> <i_lp_mmshare_version>
43012

> <i_f3d_flags>
0

> <s_epik_input>
W0NIM11DKD1PKVtOSF1bQ0BASF0oW0NIXShbQ0gzXSlbQ0gzXSlDKD1PKVtOSF1bQ0BIXShbQ0gzXSlbQ0gyXW4xW2NIXVtjSF1uW2NIXTE=

> <s_epik_cmdline>
J2VwaWtfcHl0aG9uJywgJy1waCcsICc3LjAnLCAnLXRuJywgJzgnLCAnLW1hJywgJzIwMCcsICctbWV0YWxfYmluZGluZycsICctaW1hZScsICc8aW5maWxlLm1hZT4nLCAnLW9tYWUnLCAnPG91dGZpbGUubWFlPic=

> <r_lp_tautomer_probability>
1

> <r_epik_Ionization_Penalty>
0.251562

> <r_epik_Ionization_Penalty_Charging>
0

> <r_epik_Ionization_Penalty_Neutral>
0.251562

> <r_epik_State_Penalty>
0.242926

> <r_epik_Charging_Adjusted_Penalty>
0.242926

> <i_epik_Tot_Q>
1

> <i_epik_Tot_abs_Q>
1

> <r_epik_Metal_State_Penalty>
0.53388

> <b_epik_Metal_Only>
0

> <s_lp_Force_Field>
OPLS_2005

> <r_lp_Energy>
9.97271

> <b_lp_Chiralities_Consistent>
1

> <s_lp_Variant>
AV-unprocessed.smi:1648-4

> <Gold.Version>
5.8.1

> <Gold.Id.Protein>
6NUR|6NUR_protein|mol2

> <Gold.PLP.Fitness>
41.0281

> <Gold.PLP.PLP>
-30.9047

> <Gold.PLP.part.hbond>
-2.7251

> <Gold.PLP.part.metal>
0.0000

> <Gold.PLP.part.buried>
1.7078

> <Gold.PLP.part.nonpolar>
-29.7962

> <Gold.PLP.part.repulsive>
0.2047

> <Gold.PLP.ligand.clash>
0.0000

> <Gold.PLP.ligand.torsion>
0.7632

> <Gold.PLP.Chemscore.Hbond>
3.0000

> <Gold.PLP.Chemscore.CHOScore>
0.8614

> <Gold.PLP.Chemscore.Metal>
0.0000

> <Gold.Chemscore.Hbonds>
donor molecule, donor type, donor heavy atom, donor atom, acceptor molecule, acceptor atom, score
      L1  H    15    42       P1 10175  1.86
      P1  H  7997  8008       L1     3  1.00
      L1  C    13    32       P1  7948  0.89

> <Gold.PLP.Chemscore.Internal.Correction>
0.0655

> <Gold.Rescore>
     Score         DG    S(hbond)    S(metal)    S(lipo)     H(rot)  DE(clash)    DE(int)     intcor
     12.68     -14.62       1.98        0.00      78.72       2.61       0.01       1.94       ----

> <Gold.Chemscore.Fitness>
12.6757

> <Gold.Chemscore.DG>
-14.6225

> <Gold.Chemscore.ZeroCoef>
-5.4800

> <Gold.Chemscore.Hbond>
1.9831

> <Gold.Chemscore.Metal>
0.0000

> <Gold.Chemscore.Lipo>
78.7151

> <Gold.Chemscore.Internal_Hbond>
0.0000

> <Gold.Chemscore.DEClash>
0.0057

> <Gold.Chemscore.DEInternal>
1.9411

> <Gold.Chemscore.Rot>
2.6135

> <Gold.Chemscore.Internal.Correction>
   9.000000E+99

> <Gold.Chemscore.Hbonds>
donor molecule, donor type, donor heavy atom, donor atom, acceptor molecule, acceptor atom, score
      L1  H    15    42       P1 10175  0.31
      P1  H  7997  8008       L1     3  0.96

> <Gold.Chemscore.Hbond.Weighted>
-6.6235

> <Gold.Chemscore.Metal.Weighted>
-0.0000

> <Gold.Chemscore.Lipo.Weighted>
-9.2097

> <Gold.Chemscore.Internal_Hbond.Weighted>
0.0000

> <Gold.Chemscore.DEClash.Weighted>
0.0057

> <Gold.Chemscore.DEInternal.Weighted>
1.9411

> <Gold.Chemscore.Rot.Weighted>
6.6906

> <Gold.Chemscore.Internal.Correction.Weighted>
   9.000000E+99

> <Gold.Protein.RotatedTorsions>
[ 6907 6896 6895 6894 ] final  -98.03 input  -60.11 | X-H torsion
[ 7974 7965 7964 7962 ] final  150.46 input  175.53 | X-H torsion
[ 8008 7997 7996 7995 ] final -106.08 input   59.86 | X-H torsion
[ 10167 10162 10161 10158 ] final   44.26 input  -65.29 | X-H torsion
[ 10718 10713 10712 10709 ] final  -80.37 input   66.30 | X-H torsion
[ 10763 10752 10751 10750 ] final  -62.03 input  -60.55 | X-H torsion
[ 11005 11000 10999 10996 ] final  164.85 input  -57.11 | X-H torsion

> <Gold.Protein.ActiveResidues>
 VAL166  LYS551  ARG553  GLY616  TRP617  ASP618  TYR619  PRO620  LYS621  CYS622 
 ASP623  PHE694  ASN695  SER759  ASP760  ASP761  ALA762  ILE779  LEU786  VAL792 
 PHE793  MET794  SER795  GLU796  ALA797  LYS798  CYS799  TRP800  GLU811  SER814 

> <Gold.Protein.RotatedAtoms>
  150.7034  134.1257  159.4050 H   0  0  0  0  0  0  0  0  0  0  0  0  # atno 6907 bound_to 6896
  151.9243  135.0282  160.0533 H   0  0  0  0  0  0  0  0  0  0  0  0  # atno 6908 bound_to 6896
  152.2230  133.4963  159.5210 H   0  0  0  0  0  0  0  0  0  0  0  0  # atno 6909 bound_to 6896
  144.8363  139.6411  143.6036 H   0  0  0  0  0  0  0  0  0  0  0  0  # atno 7974 bound_to 7965
  154.9092  140.0410  157.1937 H   0  0  0  0  0  0  0  0  0  0  0  0  # atno 8008 bound_to 7997
  154.8365  140.2907  155.5666 H   0  0  0  0  0  0  0  0  0  0  0  0  # atno 8009 bound_to 7997
  156.2990  140.2491  156.3300 H   0  0  0  0  0  0  0  0  0  0  0  0  # atno 8010 bound_to 7997
  140.3361  144.2528  150.6161 H   0  0  0  0  0  0  0  0  0  0  0  0  # atno 10167 bound_to 10162
  156.0071  130.4572  150.3790 H   0  0  0  0  0  0  0  0  0  0  0  0  # atno 10718 bound_to 10713
  154.2937  135.6248  153.5395 H   0  0  0  0  0  0  0  0  0  0  0  0  # atno 10763 bound_to 10752
  152.9849  135.5662  154.5362 H   0  0  0  0  0  0  0  0  0  0  0  0  # atno 10764 bound_to 10752
  154.4978  135.2870  155.1421 H   0  0  0  0  0  0  0  0  0  0  0  0  # atno 10765 bound_to 10752
  140.2501  134.7984  157.3493 H   0  0  0  0  0  0  0  0  0  0  0  0  # atno 11005 bound_to 11000
  146.2661  139.6523  142.9328 LP  0  0  0  0  0  0  0  0  0  0  0  0  # atno 17320 bound_to 7965
  145.4788  141.0437  143.2657 LP  0  0  0  0  0  0  0  0  0  0  0  0  # atno 17321 bound_to 7965
  140.5352  143.2235  151.8174 LP  0  0  0  0  0  0  0  0  0  0  0  0  # atno 17342 bound_to 10162
  139.4848  144.4670  151.9472 LP  0  0  0  0  0  0  0  0  0  0  0  0  # atno 17343 bound_to 10162
  157.1871  131.0406  151.2719 LP  0  0  0  0  0  0  0  0  0  0  0  0  # atno 17370 bound_to 10713
  157.4094  130.7377  149.6827 LP  0  0  0  0  0  0  0  0  0  0  0  0  # atno 17371 bound_to 10713
  140.1567  134.4781  155.7923 LP  0  0  0  0  0  0  0  0  0  0  0  0  # atno 17394 bound_to 11000
  141.2202  133.6884  156.7472 LP  0  0  0  0  0  0  0  0  0  0  0  0  # atno 17395 bound_to 11000

$$$$
