AV-unprocessed.smi:1709|AV-procd|sdf|6892|dock1
  -GOLD-   22720 8 93D 1   1.00000     0.00000
 Structure written by MMmdl.
 43 45  0  0  0  0  0  0  0  0  2 V2000
  150.7257  137.7698  154.4959 C   0  0  0  0  0  0  0  0  0  0  0  0
  149.9691  139.0822  154.6256 C   0  0  0  0  0  0  0  0  0  0  0  0
  150.6535  140.2289  155.0815 C   0  0  0  0  0  0  0  0  0  0  0  0
  149.9556  141.4425  155.2004 C   0  0  0  0  0  0  0  0  0  0  0  0
  148.5943  141.4586  154.8543 C   0  0  0  0  0  0  0  0  0  0  0  0
  147.9328  140.3675  154.4173 N   0  0  0  0  0  0  0  0  0  0  0  0
  148.5892  139.1839  154.3024 C   0  0  0  0  0  0  0  0  0  0  0  0
  147.9682  137.9886  153.8254 N   0  0  0  0  0  0  0  0  0  0  0  0
  146.7600  137.4502  154.0924 C   0  0  0  0  0  0  0  0  0  0  0  0
  145.9726  137.9963  154.8632 O   0  0  0  0  0  0  0  0  0  0  0  0
  146.4786  136.2959  153.4666 N   0  0  0  0  0  0  0  0  0  0  0  0
  145.2689  135.5052  153.6640 C   0  0  1  0  0  0  0  0  0  0  0  0
  144.0192  136.1632  153.0942 C   0  0  0  0  0  0  0  0  0  0  0  0
  143.0396  134.9918  152.9732 C   0  0  0  0  0  0  0  0  0  0  0  0
  143.8561  133.7643  152.8055 N   0  3  1  0  0  0  0  0  0  0  0  0
  143.5288  132.9838  151.5823 C   0  0  0  0  0  0  0  0  0  0  0  0
  144.6395  131.9728  151.2617 C   0  0  0  0  0  0  0  0  0  0  0  0
  145.9787  132.6774  150.9750 C   0  0  0  0  0  0  0  0  0  0  0  0
  146.0613  134.0734  151.6218 C   0  0  0  0  0  0  0  0  0  0  0  0
  145.2916  134.1326  152.9655 C   0  0  1  0  0  0  0  0  0  0  0  0
  151.7700  137.8827  154.7888 H   0  0  0  0  0  0  0  0  0  0  0  0
  150.7034  137.4153  153.4650 H   0  0  0  0  0  0  0  0  0  0  0  0
  150.2795  137.0074  155.1354 H   0  0  0  0  0  0  0  0  0  0  0  0
  151.7021  140.1827  155.3369 H   0  0  0  0  0  0  0  0  0  0  0  0
  150.4511  142.3378  155.5462 H   0  0  0  0  0  0  0  0  0  0  0  0
  148.0204  142.3704  154.9285 H   0  0  0  0  0  0  0  0  0  0  0  0
  148.4866  137.5154  153.0995 H   0  0  0  0  0  0  0  0  0  0  0  0
  147.1788  135.9172  152.8441 H   0  0  0  0  0  0  0  0  0  0  0  0
  145.1065  135.3549  154.7337 H   0  0  0  0  0  0  0  0  0  0  0  0
  143.6381  136.9686  153.7231 H   0  0  0  0  0  0  0  0  0  0  0  0
  144.2250  136.5766  152.1055 H   0  0  0  0  0  0  0  0  0  0  0  0
  142.4673  134.8874  153.8955 H   0  0  0  0  0  0  0  0  0  0  0  0
  142.3250  135.1480  152.1639 H   0  0  0  0  0  0  0  0  0  0  0  0
  142.5766  132.4741  151.7316 H   0  0  0  0  0  0  0  0  0  0  0  0
  143.3983  133.6541  150.7308 H   0  0  0  0  0  0  0  0  0  0  0  0
  144.7571  131.2966  152.1096 H   0  0  0  0  0  0  0  0  0  0  0  0
  144.3575  131.3495  150.4123 H   0  0  0  0  0  0  0  0  0  0  0  0
  146.7941  132.0493  151.3358 H   0  0  0  0  0  0  0  0  0  0  0  0
  146.1272  132.7769  149.8991 H   0  0  0  0  0  0  0  0  0  0  0  0
  147.1102  134.3398  151.7542 H   0  0  0  0  0  0  0  0  0  0  0  0
  145.6466  134.8141  150.9365 H   0  0  0  0  0  0  0  0  0  0  0  0
  145.7518  133.4064  153.6372 H   0  0  0  0  0  0  0  0  0  0  0  0
  143.6380  133.1708  153.5930 H   0  0  0  0  0  0  0  0  0  0  0  0
  1  2  1  0  0  0  0
  1 21  1  0  0  0  0
  1 22  1  0  0  0  0
  1 23  1  0  0  0  0
  2  7  1  0  0  0  0
  2  3  2  0  0  0  0
  3  4  1  0  0  0  0
  3 24  1  0  0  0  0
  4  5  2  0  0  0  0
  4 25  1  0  0  0  0
  5  6  1  0  0  0  0
  5 26  1  0  0  0  0
  6  7  2  0  0  0  0
  7  8  1  0  0  0  0
  8  9  1  0  0  0  0
  8 27  1  0  0  0  0
  9 10  2  0  0  0  0
  9 11  1  0  0  0  0
 11 12  1  0  0  0  0
 11 28  1  0  0  0  0
 12 20  1  0  0  0  0
 12 13  1  0  0  0  0
 12 29  1  0  0  0  0
 13 14  1  0  0  0  0
 13 30  1  0  0  0  0
 13 31  1  0  0  0  0
 14 15  1  0  0  0  0
 14 32  1  0  0  0  0
 14 33  1  0  0  0  0
 15 20  1  0  0  0  0
 15 16  1  0  0  0  0
 15 43  1  0  0  0  0
 16 17  1  0  0  0  0
 16 34  1  0  0  0  0
 16 35  1  0  0  0  0
 17 18  1  0  0  0  0
 17 36  1  0  0  0  0
 17 37  1  0  0  0  0
 18 19  1  0  0  0  0
 18 38  1  0  0  0  0
 18 39  1  0  0  0  0
 19 20  1  0  0  0  0
 19 40  1  0  0  0  0
 19 41  1  0  0  0  0
 20 42  1  0  0  0  0
M  CHG  1  15   1
M  END
> <s_m_source_file>
AV-unprocessed.smi

> <i_m_source_file_index>
1709

> <i_lp_mmshare_version>
43012

> <i_f3d_flags>
0

> <s_epik_input>
W0NIM11jMVtjSF1bY0hdW2NIXW5jMVtOSF1DKD1PKVtOSF1bQ0BIXShbQ0gyXVtDSDJdMilbQ0BASF0oTjIzKVtDSDJdW0NIMl1bQ0gyXVtDSDJdMw==

> <s_epik_cmdline>
J2VwaWtfcHl0aG9uJywgJy1waCcsICc3LjAnLCAnLXRuJywgJzgnLCAnLW1hJywgJzIwMCcsICctbWV0YWxfYmluZGluZycsICctaW1hZScsICc8aW5maWxlLm1hZT4nLCAnLW9tYWUnLCAnPG91dGZpbGUubWFlPic=

> <r_epik_Ionization_Penalty>
0.00101524

> <r_epik_Ionization_Penalty_Charging>
0.000974069

> <r_epik_Ionization_Penalty_Neutral>
4.11757e-05

> <r_epik_State_Penalty>
0.000633842

> <r_epik_Charging_Adjusted_Penalty>
0.00160791

> <i_epik_Tot_Q>
1

> <i_epik_Tot_abs_Q>
1

> <r_epik_Metal_State_Penalty>
-0

> <b_epik_Metal_Only>
0

> <s_lp_Force_Field>
OPLS_2005

> <r_lp_Energy>
45.0812

> <b_lp_Chiralities_Consistent>
1

> <s_lp_Variant>
AV-unprocessed.smi:1709-2

> <Gold.Version>
5.8.1

> <Gold.Id.Protein>
6NUR|6NUR_protein|mol2

> <Gold.PLP.Fitness>
44.5653

> <Gold.PLP.PLP>
-31.6987

> <Gold.PLP.part.hbond>
-2.9645

> <Gold.PLP.part.metal>
0.0000

> <Gold.PLP.part.buried>
-4.1652

> <Gold.PLP.part.nonpolar>
-25.5601

> <Gold.PLP.part.repulsive>
0.1598

> <Gold.PLP.ligand.clash>
0.0000

> <Gold.PLP.ligand.torsion>
0.4200

> <Gold.PLP.Chemscore.Hbond>
3.7251

> <Gold.PLP.Chemscore.CHOScore>
0.8421

> <Gold.PLP.Chemscore.Metal>
0.0000

> <Gold.Chemscore.Hbonds>
donor molecule, donor type, donor heavy atom, donor atom, acceptor molecule, acceptor atom, score
      L1  H     8    27       P1  7948  1.00
      L1  H    11    28       P1  7948  0.94
      L1  H    15    43       P1 10957  1.76
      L1  C     5    26       P1  8028  0.83

> <Gold.PLP.Chemscore.Internal.Correction>
0.0051

> <Gold.Rescore>
     Score         DG    S(hbond)    S(metal)    S(lipo)     H(rot)  DE(clash)    DE(int)     intcor
     20.10     -20.58       2.67        0.00      74.58       1.00       0.00       0.47       ----

> <Gold.Chemscore.Fitness>
20.1019

> <Gold.Chemscore.DG>
-20.5792

> <Gold.Chemscore.ZeroCoef>
-5.4800

> <Gold.Chemscore.Hbond>
2.6746

> <Gold.Chemscore.Metal>
0.0000

> <Gold.Chemscore.Lipo>
74.5819

> <Gold.Chemscore.Internal_Hbond>
0.0000

> <Gold.Chemscore.DEClash>
0.0029

> <Gold.Chemscore.DEInternal>
0.4744

> <Gold.Chemscore.Rot>
1.0000

> <Gold.Chemscore.Internal.Correction>
   9.000000E+99

> <Gold.Chemscore.Hbonds>
donor molecule, donor type, donor heavy atom, donor atom, acceptor molecule, acceptor atom, score
      L1  H     8    27       P1  7948  1.00
      L1  H    11    28       P1  7948  0.84
      L1  H    15    43       P1 10957  0.82

> <Gold.Chemscore.Hbond.Weighted>
-8.9331

> <Gold.Chemscore.Metal.Weighted>
-0.0000

> <Gold.Chemscore.Lipo.Weighted>
-8.7261

> <Gold.Chemscore.Internal_Hbond.Weighted>
0.0000

> <Gold.Chemscore.DEClash.Weighted>
0.0029

> <Gold.Chemscore.DEInternal.Weighted>
0.4744

> <Gold.Chemscore.Rot.Weighted>
2.5600

> <Gold.Chemscore.Internal.Correction.Weighted>
   9.000000E+99

> <Gold.Protein.RotatedTorsions>
[ 6907 6896 6895 6894 ] final  -15.94 input  -60.11 | X-H torsion
[ 7974 7965 7964 7962 ] final   14.61 input  175.53 | X-H torsion
[ 8008 7997 7996 7995 ] final   24.80 input   59.86 | X-H torsion
[ 10167 10162 10161 10158 ] final   71.75 input  -65.29 | X-H torsion
[ 10718 10713 10712 10709 ] final -109.09 input   66.30 | X-H torsion
[ 10763 10752 10751 10750 ] final -102.27 input  -60.55 | X-H torsion
[ 11005 11000 10999 10996 ] final -139.79 input  -57.11 | X-H torsion

> <Gold.Protein.ActiveResidues>
 VAL166  LYS551  ARG553  GLY616  TRP617  ASP618  TYR619  PRO620  LYS621  CYS622 
 ASP623  PHE694  ASN695  SER759  ASP760  ASP761  ALA762  ILE779  LEU786  VAL792 
 PHE793  MET794  SER795  GLU796  ALA797  LYS798  CYS799  TRP800  GLU811  SER814 

> <Gold.Protein.RotatedAtoms>
  151.3162  135.0807  159.9289 H   0  0  0  0  0  0  0  0  0  0  0  0  # atno 6907 bound_to 6896
  152.5267  133.9685  159.7761 H   0  0  0  0  0  0  0  0  0  0  0  0  # atno 6908 bound_to 6896
  150.9998  133.6015  159.2727 H   0  0  0  0  0  0  0  0  0  0  0  0  # atno 6909 bound_to 6896
  146.2300  139.9015  142.8538 H   0  0  0  0  0  0  0  0  0  0  0  0  # atno 7974 bound_to 7965
  155.0018  140.3126  155.4864 H   0  0  0  0  0  0  0  0  0  0  0  0  # atno 8008 bound_to 7997
  156.2924  140.2230  156.5069 H   0  0  0  0  0  0  0  0  0  0  0  0  # atno 8009 bound_to 7997
  154.7612  140.0459  157.0963 H   0  0  0  0  0  0  0  0  0  0  0  0  # atno 8010 bound_to 7997
  140.0427  144.5376  150.7422 H   0  0  0  0  0  0  0  0  0  0  0  0  # atno 10167 bound_to 10162
  156.0519  130.5746  150.8052 H   0  0  0  0  0  0  0  0  0  0  0  0  # atno 10718 bound_to 10713
  154.7721  135.4867  153.9670 H   0  0  0  0  0  0  0  0  0  0  0  0  # atno 10763 bound_to 10752
  153.1381  135.6767  153.9078 H   0  0  0  0  0  0  0  0  0  0  0  0  # atno 10764 bound_to 10752
  153.8761  135.3138  155.3422 H   0  0  0  0  0  0  0  0  0  0  0  0  # atno 10765 bound_to 10752
  140.8485  134.2314  157.4773 H   0  0  0  0  0  0  0  0  0  0  0  0  # atno 11005 bound_to 11000
  145.2318  140.9976  143.3986 LP  0  0  0  0  0  0  0  0  0  0  0  0  # atno 17320 bound_to 7965
  144.9524  139.4068  143.6396 LP  0  0  0  0  0  0  0  0  0  0  0  0  # atno 17321 bound_to 7965
  140.7253  143.2629  151.4142 LP  0  0  0  0  0  0  0  0  0  0  0  0  # atno 17342 bound_to 10162
  139.6003  144.1309  152.2191 LP  0  0  0  0  0  0  0  0  0  0  0  0  # atno 17343 bound_to 10162
  157.5453  131.0942  150.9771 LP  0  0  0  0  0  0  0  0  0  0  0  0  # atno 17370 bound_to 10713
  157.0044  130.5612  149.5314 LP  0  0  0  0  0  0  0  0  0  0  0  0  # atno 17371 bound_to 10713
  139.8704  134.9671  156.4587 LP  0  0  0  0  0  0  0  0  0  0  0  0  # atno 17394 bound_to 11000
  140.8816  133.7914  155.9473 LP  0  0  0  0  0  0  0  0  0  0  0  0  # atno 17395 bound_to 11000

$$$$
