AV-unprocessed.smi:910|AV-procd|sdf|4130|dock9
  -GOLD-   22720 2 33D 1   1.00000     0.00000
 Structure written by MMmdl.
 47 48  0  0  0  0  0  0  0  0  2 V2000
  149.2440  133.3297  153.4915 C   0  0  0  0  0  0  0  0  0  0  0  0
  149.8416  134.3307  154.4298 C   0  0  0  0  0  0  0  0  0  0  0  0
  149.9695  135.6902  154.2674 N   0  3  0  0  0  0  0  0  0  0  0  0
  150.5624  136.2120  155.3383 C   0  0  0  0  0  0  0  0  0  0  0  0
  150.8284  137.5898  155.5069 N   0  0  0  0  0  0  0  0  0  0  0  0
  150.6379  138.2811  156.6401 C   0  0  0  0  0  0  0  0  0  0  0  0
  150.3609  137.7734  157.7275 O   0  0  0  0  0  0  0  0  0  0  0  0
  150.7684  139.6020  156.4450 N   0  0  0  0  0  0  0  0  0  0  0  0
  150.4699  140.6238  157.4442 C   0  0  0  0  0  0  0  0  0  0  0  0
  151.5320  140.6382  158.5550 C   0  0  0  0  0  0  0  0  0  0  0  0
  151.5396  141.9194  159.1654 O   0  0  0  0  0  0  0  0  0  0  0  0
  152.8205  142.5224  159.2934 C   0  0  2  0  0  0  0  0  0  0  0  0
  153.4424  142.0014  160.6021 C   0  0  0  0  0  0  0  0  0  0  0  0
  152.6590  142.4761  161.8381 C   0  0  0  0  0  0  0  0  0  0  0  0
  152.5287  144.0062  161.8623 C   0  0  0  0  0  0  0  0  0  0  0  0
  151.8990  144.5338  160.5636 C   0  0  0  0  0  0  0  0  0  0  0  0
  152.6844  144.0650  159.3218 C   0  0  2  0  0  0  0  0  0  0  0  0
  152.0885  144.6390  158.0275 C   0  0  0  0  0  0  0  0  0  0  0  0
  150.8462  135.2419  156.2482 O   0  0  0  0  0  0  0  0  0  0  0  0
  150.3899  134.0761  155.6688 C   0  0  0  0  0  0  0  0  0  0  0  0
  150.5670  132.8198  156.4522 C   0  0  0  0  0  0  0  0  0  0  0  0
  149.9459  132.5239  153.2759 H   0  0  0  0  0  0  0  0  0  0  0  0
  148.9692  133.7895  152.5420 H   0  0  0  0  0  0  0  0  0  0  0  0
  148.3447  132.8818  153.9148 H   0  0  0  0  0  0  0  0  0  0  0  0
  149.6475  136.1805  153.4426 H   0  0  0  0  0  0  0  0  0  0  0  0
  151.0148  139.9303  155.5226 H   0  0  0  0  0  0  0  0  0  0  0  0
  150.3804  141.6088  156.9828 H   0  0  0  0  0  0  0  0  0  0  0  0
  149.4955  140.3947  157.8757 H   0  0  0  0  0  0  0  0  0  0  0  0
  151.3021  139.8835  159.3081 H   0  0  0  0  0  0  0  0  0  0  0  0
  152.5100  140.3942  158.1385 H   0  0  0  0  0  0  0  0  0  0  0  0
  153.4715  142.2270  158.4680 H   0  0  0  0  0  0  0  0  0  0  0  0
  153.4854  140.9121  160.5858 H   0  0  0  0  0  0  0  0  0  0  0  0
  154.4742  142.3476  160.6755 H   0  0  0  0  0  0  0  0  0  0  0  0
  151.6655  142.0256  161.8396 H   0  0  0  0  0  0  0  0  0  0  0  0
  153.1539  142.1309  162.7462 H   0  0  0  0  0  0  0  0  0  0  0  0
  151.9279  144.3143  162.7184 H   0  0  0  0  0  0  0  0  0  0  0  0
  153.5137  144.4541  161.9986 H   0  0  0  0  0  0  0  0  0  0  0  0
  150.8638  144.1982  160.4986 H   0  0  0  0  0  0  0  0  0  0  0  0
  151.8655  145.6231  160.5943 H   0  0  0  0  0  0  0  0  0  0  0  0
  153.6933  144.4718  159.4057 H   0  0  0  0  0  0  0  0  0  0  0  0
  151.0548  144.3235  157.8877 H   0  0  0  0  0  0  0  0  0  0  0  0
  152.6591  144.3181  157.1556 H   0  0  0  0  0  0  0  0  0  0  0  0
  152.0990  145.7293  158.0437 H   0  0  0  0  0  0  0  0  0  0  0  0
  150.0090  131.9962  156.0067 H   0  0  0  0  0  0  0  0  0  0  0  0
  150.2146  132.9495  157.4757 H   0  0  0  0  0  0  0  0  0  0  0  0
  151.6183  132.5344  156.4894 H   0  0  0  0  0  0  0  0  0  0  0  0
  151.1073  138.1017  154.6832 H   0  0  0  0  0  0  0  0  0  0  0  0
  1 22  1  0  0  0  0
  1 23  1  0  0  0  0
  1 24  1  0  0  0  0
  1  2  1  0  0  0  0
  2  3  1  0  0  0  0
  2 20  2  0  0  0  0
  3 25  1  0  0  0  0
  3  4  2  0  0  0  0
  4 19  1  0  0  0  0
  4  5  1  0  0  0  0
  5  6  1  0  0  0  0
  5 47  1  0  0  0  0
  6  8  1  0  0  0  0
  6  7  2  0  0  0  0
  8  9  1  0  0  0  0
  8 26  1  0  0  0  0
  9 10  1  0  0  0  0
  9 27  1  0  0  0  0
  9 28  1  0  0  0  0
 10 11  1  0  0  0  0
 10 29  1  0  0  0  0
 10 30  1  0  0  0  0
 11 12  1  0  0  0  0
 12 17  1  0  0  0  0
 12 13  1  0  0  0  0
 12 31  1  0  0  0  0
 13 14  1  0  0  0  0
 13 32  1  0  0  0  0
 13 33  1  0  0  0  0
 14 15  1  0  0  0  0
 14 34  1  0  0  0  0
 14 35  1  0  0  0  0
 15 16  1  0  0  0  0
 15 36  1  0  0  0  0
 15 37  1  0  0  0  0
 16 17  1  0  0  0  0
 16 38  1  0  0  0  0
 16 39  1  0  0  0  0
 17 18  1  0  0  0  0
 17 40  1  0  0  0  0
 18 41  1  0  0  0  0
 18 42  1  0  0  0  0
 18 43  1  0  0  0  0
 19 20  1  0  0  0  0
 20 21  1  0  0  0  0
 21 44  1  0  0  0  0
 21 45  1  0  0  0  0
 21 46  1  0  0  0  0
M  CHG  1   3   1
M  END
> <s_m_source_file>
AV-unprocessed.smi

> <i_m_source_file_index>
910

> <i_lp_mmshare_version>
43012

> <i_f3d_flags>
0

> <s_epik_input>
W0NIM11jMW5jKG9jMVtDSDNdKVtOSF1DKD1PKVtOSF1bQ0gyXVtDSDJdT1tDQEBIXTJbQ0gyXVtDSDJdW0NIMl1bQ0gyXVtDQEhdMltDSDNd

> <s_epik_cmdline>
J2VwaWtfcHl0aG9uJywgJy1waCcsICc3LjAnLCAnLXRuJywgJzgnLCAnLW1hJywgJzIwMCcsICctbWV0YWxfYmluZGluZycsICctaW1hZScsICc8aW5maWxlLm1hZT4nLCAnLW9tYWUnLCAnPG91dGZpbGUubWFlPic=

> <r_epik_Ionization_Penalty>
7.32931

> <r_epik_Ionization_Penalty_Charging>
7.12214

> <r_epik_Ionization_Penalty_Neutral>
0.207166

> <r_epik_State_Penalty>
2.61278

> <r_epik_Charging_Adjusted_Penalty>
9.73492

> <i_epik_Tot_Q>
1

> <i_epik_Tot_abs_Q>
1

> <r_epik_Metal_State_Penalty>
2.64585

> <b_epik_Metal_Only>
0

> <s_lp_Force_Field>
OPLS_2005

> <r_lp_Energy>
15.8254

> <b_lp_Chiralities_Consistent>
1

> <s_lp_Variant>
AV-unprocessed.smi:910-15

> <Gold.Version>
5.8.1

> <Gold.Id.Protein>
6NUR|6NUR_protein|mol2

> <Gold.PLP.Fitness>
49.0414

> <Gold.PLP.PLP>
-45.3850

> <Gold.PLP.part.hbond>
-1.5968

> <Gold.PLP.part.metal>
0.0000

> <Gold.PLP.part.buried>
-5.6354

> <Gold.PLP.part.nonpolar>
-37.6458

> <Gold.PLP.part.repulsive>
0.1547

> <Gold.PLP.ligand.clash>
0.0000

> <Gold.PLP.ligand.torsion>
1.1814

> <Gold.PLP.Chemscore.Hbond>
2.0000

> <Gold.PLP.Chemscore.CHOScore>
0.0000

> <Gold.PLP.Chemscore.Metal>
0.0000

> <Gold.Chemscore.Hbonds>
donor molecule, donor type, donor heavy atom, donor atom, acceptor molecule, acceptor atom, score
      L1  H     3    25       P1  7948  2.00

> <Gold.PLP.Chemscore.Internal.Correction>
0.0191

> <Gold.Rescore>
     Score         DG    S(hbond)    S(metal)    S(lipo)     H(rot)  DE(clash)    DE(int)     intcor
     16.12     -17.48       0.83        0.00     115.95       1.69       0.00       1.36       ----

> <Gold.Chemscore.Fitness>
16.1187

> <Gold.Chemscore.DG>
-17.4827

> <Gold.Chemscore.ZeroCoef>
-5.4800

> <Gold.Chemscore.Hbond>
0.8311

> <Gold.Chemscore.Metal>
0.0000

> <Gold.Chemscore.Lipo>
115.9468

> <Gold.Chemscore.Internal_Hbond>
0.0000

> <Gold.Chemscore.DEClash>
0.0000

> <Gold.Chemscore.DEInternal>
1.3640

> <Gold.Chemscore.Rot>
1.6949

> <Gold.Chemscore.Internal.Correction>
   9.000000E+99

> <Gold.Chemscore.Hbonds>
donor molecule, donor type, donor heavy atom, donor atom, acceptor molecule, acceptor atom, score
      L1  H     3    25       P1  7948  0.29

> <Gold.Chemscore.Hbond.Weighted>
-2.7760

> <Gold.Chemscore.Metal.Weighted>
-0.0000

> <Gold.Chemscore.Lipo.Weighted>
-13.5658

> <Gold.Chemscore.Internal_Hbond.Weighted>
0.0000

> <Gold.Chemscore.DEClash.Weighted>
0.0000

> <Gold.Chemscore.DEInternal.Weighted>
1.3640

> <Gold.Chemscore.Rot.Weighted>
4.3390

> <Gold.Chemscore.Internal.Correction.Weighted>
   9.000000E+99

> <Gold.Protein.RotatedTorsions>
[ 6907 6896 6895 6894 ] final  152.12 input  -60.11 | X-H torsion
[ 7974 7965 7964 7962 ] final    3.83 input  175.53 | X-H torsion
[ 8008 7997 7996 7995 ] final   93.17 input   59.86 | X-H torsion
[ 10167 10162 10161 10158 ] final   69.71 input  -65.29 | X-H torsion
[ 10718 10713 10712 10709 ] final  -32.33 input   66.30 | X-H torsion
[ 10763 10752 10751 10750 ] final -168.04 input  -60.55 | X-H torsion
[ 11005 11000 10999 10996 ] final   95.99 input  -57.11 | X-H torsion

> <Gold.Protein.ActiveResidues>
 VAL166  LYS551  ARG553  GLY616  TRP617  ASP618  TYR619  PRO620  LYS621  CYS622 
 ASP623  PHE694  ASN695  SER759  ASP760  ASP761  ALA762  ILE779  LEU786  VAL792 
 PHE793  MET794  SER795  GLU796  ALA797  LYS798  CYS799  TRP800  GLU811  SER814 

> <Gold.Protein.RotatedAtoms>
  152.0911  133.4201  159.4543 H   0  0  0  0  0  0  0  0  0  0  0  0  # atno 6907 bound_to 6896
  150.6862  134.2871  159.4660 H   0  0  0  0  0  0  0  0  0  0  0  0  # atno 6908 bound_to 6896
  152.0722  134.9525  160.0625 H   0  0  0  0  0  0  0  0  0  0  0  0  # atno 6909 bound_to 6896
  146.2445  140.0626  142.8367 H   0  0  0  0  0  0  0  0  0  0  0  0  # atno 7974 bound_to 7965
  156.0438  140.3316  155.7273 H   0  0  0  0  0  0  0  0  0  0  0  0  # atno 8008 bound_to 7997
  155.5705  140.0627  157.2825 H   0  0  0  0  0  0  0  0  0  0  0  0  # atno 8009 bound_to 7997
  154.4404  140.1861  156.0862 H   0  0  0  0  0  0  0  0  0  0  0  0  # atno 8010 bound_to 7997
  140.0648  144.5202  150.7268 H   0  0  0  0  0  0  0  0  0  0  0  0  # atno 10167 bound_to 10162
  156.3763  130.4348  149.7505 H   0  0  0  0  0  0  0  0  0  0  0  0  # atno 10718 bound_to 10713
  154.6670  135.2933  154.9793 H   0  0  0  0  0  0  0  0  0  0  0  0  # atno 10763 bound_to 10752
  154.0833  135.6601  153.4845 H   0  0  0  0  0  0  0  0  0  0  0  0  # atno 10764 bound_to 10752
  153.0463  135.5202  154.7647 H   0  0  0  0  0  0  0  0  0  0  0  0  # atno 10765 bound_to 10752
  139.8785  134.8927  156.4092 H   0  0  0  0  0  0  0  0  0  0  0  0  # atno 11005 bound_to 11000
  145.0886  140.9269  143.4782 LP  0  0  0  0  0  0  0  0  0  0  0  0  # atno 17320 bound_to 7965
  145.0794  139.2971  143.5791 LP  0  0  0  0  0  0  0  0  0  0  0  0  # atno 17321 bound_to 7965
  140.7154  143.2540  151.4450 LP  0  0  0  0  0  0  0  0  0  0  0  0  # atno 17342 bound_to 10162
  139.5871  144.1580  152.2043 LP  0  0  0  0  0  0  0  0  0  0  0  0  # atno 17343 bound_to 10162
  156.4613  130.7953  151.2973 LP  0  0  0  0  0  0  0  0  0  0  0  0  # atno 17370 bound_to 10713
  157.7488  131.0065  150.3154 LP  0  0  0  0  0  0  0  0  0  0  0  0  # atno 17371 bound_to 10713
  140.9212  133.7643  155.9909 LP  0  0  0  0  0  0  0  0  0  0  0  0  # atno 17394 bound_to 11000
  140.8437  134.3036  157.5303 LP  0  0  0  0  0  0  0  0  0  0  0  0  # atno 17395 bound_to 11000

$$$$
