AV-unprocessed.smi:3034|AV-procd|sdf|11577|dock2
  -GOLD-   2272016543D 1   1.00000     0.00000
 Structure written by MMmdl.
 32 32  0  0  0  0  0  0  0  0  1 V2000
  146.4539  142.5563  154.1246 C   0  0  0  0  0  0  0  0  0  0  0  0
  147.3006  141.5457  154.9051 C   0  0  0  0  0  0  0  0  0  0  0  0
  148.5887  141.1604  154.1664 C   0  0  0  0  0  0  0  0  0  0  0  0
  149.5767  139.9612  155.1537 S   0  0  0  0  0  0  0  0  0  0  0  0
  148.7352  138.7990  155.4765 O   0  0  0  0  0  0  0  0  0  0  0  0
  150.8745  139.7647  154.4900 O   0  0  0  0  0  0  0  0  0  0  0  0
  149.8598  140.8206  156.6188 N   0  0  0  0  0  0  0  0  0  0  0  0
  151.0148  141.7176  156.6665 C   0  0  0  0  0  0  0  0  0  0  0  0
  150.8944  142.7082  157.8379 C   0  0  2  0  0  0  0  0  0  0  0  0
  151.0643  144.0221  157.3394 O   0  0  0  0  0  0  0  0  0  0  0  0
  151.9060  142.3863  158.9297 C   0  0  0  0  0  0  0  0  0  0  0  0
  152.0247  143.2246  160.0596 C   0  0  0  0  0  0  0  0  0  0  0  0
  152.9584  142.8834  161.0569 C   0  0  0  0  0  0  0  0  0  0  0  0
  153.7355  141.7214  160.8899 C   0  0  0  0  0  0  0  0  0  0  0  0
  153.5431  140.9488  159.7277 C   0  0  0  0  0  0  0  0  0  0  0  0
  152.6501  141.2669  158.7662 N   0  0  0  0  0  0  0  0  0  0  0  0
  145.5384  142.7952  154.6664 H   0  0  0  0  0  0  0  0  0  0  0  0
  146.1696  142.1625  153.1483 H   0  0  0  0  0  0  0  0  0  0  0  0
  146.9991  143.4873  153.9662 H   0  0  0  0  0  0  0  0  0  0  0  0
  147.5507  141.9642  155.8805 H   0  0  0  0  0  0  0  0  0  0  0  0
  146.7090  140.6498  155.0960 H   0  0  0  0  0  0  0  0  0  0  0  0
  148.3590  140.7010  153.2047 H   0  0  0  0  0  0  0  0  0  0  0  0
  149.2083  142.0374  153.9779 H   0  0  0  0  0  0  0  0  0  0  0  0
  149.8608  140.1855  157.4164 H   0  0  0  0  0  0  0  0  0  0  0  0
  151.9066  141.1040  156.8022 H   0  0  0  0  0  0  0  0  0  0  0  0
  151.1264  142.2364  155.7134 H   0  0  0  0  0  0  0  0  0  0  0  0
  149.8939  142.6445  158.2686 H   0  0  0  0  0  0  0  0  0  0  0  0
  150.2262  144.3376  157.0383 H   0  0  0  0  0  0  0  0  0  0  0  0
  151.4118  144.1078  160.1647 H   0  0  0  0  0  0  0  0  0  0  0  0
  153.0748  143.5007  161.9353 H   0  0  0  0  0  0  0  0  0  0  0  0
  154.4603  141.4284  161.6350 H   0  0  0  0  0  0  0  0  0  0  0  0
  154.1209  140.0505  159.5670 H   0  0  0  0  0  0  0  0  0  0  0  0
  1  2  1  0  0  0  0
  1 17  1  0  0  0  0
  1 18  1  0  0  0  0
  1 19  1  0  0  0  0
  2  3  1  0  0  0  0
  2 20  1  0  0  0  0
  2 21  1  0  0  0  0
  3  4  1  0  0  0  0
  3 22  1  0  0  0  0
  3 23  1  0  0  0  0
  4  5  2  0  0  0  0
  4  6  2  0  0  0  0
  4  7  1  0  0  0  0
  7  8  1  0  0  0  0
  7 24  1  0  0  0  0
  8  9  1  0  0  0  0
  8 25  1  0  0  0  0
  8 26  1  0  0  0  0
  9 10  1  0  0  0  0
  9 11  1  0  0  0  0
  9 27  1  0  0  0  0
 10 28  1  0  0  0  0
 11 16  1  0  0  0  0
 11 12  2  0  0  0  0
 12 13  1  0  0  0  0
 12 29  1  0  0  0  0
 13 14  2  0  0  0  0
 13 30  1  0  0  0  0
 14 15  1  0  0  0  0
 14 31  1  0  0  0  0
 15 16  2  0  0  0  0
 15 32  1  0  0  0  0
M  END
> <s_m_source_file>
AV-unprocessed.smi

> <i_m_source_file_index>
3034

> <i_lp_mmshare_version>
43012

> <i_f3d_flags>
0

> <s_epik_input>
W0NIM11bQ0gyXVtDSDJdUyg9TykoPU8pW05IXVtDSDJdW0NASF0oW09IXSljMVtjSF1bY0hdW2NIXVtjSF1uMQ==

> <s_epik_cmdline>
J2VwaWtfcHl0aG9uJywgJy1waCcsICc3LjAnLCAnLXRuJywgJzgnLCAnLW1hJywgJzIwMCcsICctbWV0YWxfYmluZGluZycsICctaW1hZScsICc8aW5maWxlLm1hZT4nLCAnLW9tYWUnLCAnPG91dGZpbGUubWFlPic=

> <r_epik_Ionization_Penalty>
0.00187371

> <r_epik_Ionization_Penalty_Charging>
0

> <r_epik_Ionization_Penalty_Neutral>
0.00187371

> <r_epik_State_Penalty>
0.0012608

> <r_epik_Charging_Adjusted_Penalty>
0.0012608

> <i_epik_Tot_Q>
0

> <i_epik_Tot_abs_Q>
0

> <r_epik_Metal_State_Penalty>
0.0168387

> <b_epik_Metal_Only>
0

> <s_lp_Force_Field>
OPLS_2005

> <r_lp_Energy>
4.86563

> <b_lp_Chiralities_Consistent>
1

> <s_lp_Variant>
AV-unprocessed.smi:3034-1

> <Gold.Version>
5.8.1

> <Gold.Id.Protein>
6NUR|6NUR_protein|mol2

> <Gold.PLP.Fitness>
40.0651

> <Gold.PLP.PLP>
-36.6591

> <Gold.PLP.part.hbond>
-2.0000

> <Gold.PLP.part.metal>
0.0000

> <Gold.PLP.part.buried>
-5.4116

> <Gold.PLP.part.nonpolar>
-29.8433

> <Gold.PLP.part.repulsive>
0.1579

> <Gold.PLP.ligand.clash>
0.0000

> <Gold.PLP.ligand.torsion>
1.3887

> <Gold.PLP.Chemscore.Hbond>
2.0000

> <Gold.PLP.Chemscore.CHOScore>
0.0000

> <Gold.PLP.Chemscore.Metal>
0.0000

> <Gold.Chemscore.Hbonds>
donor molecule, donor type, donor heavy atom, donor atom, acceptor molecule, acceptor atom, score
      L1  H    10    28       P1  8028  1.00
      P1  H  7989  7998       L1     6  1.00

> <Gold.PLP.Chemscore.Internal.Correction>
0.1835

> <Gold.Rescore>
     Score         DG    S(hbond)    S(metal)    S(lipo)     H(rot)  DE(clash)    DE(int)     intcor
     14.52     -15.86       1.99        0.00      89.55       2.63       0.00       1.34       ----

> <Gold.Chemscore.Fitness>
14.5175

> <Gold.Chemscore.DG>
-15.8629

> <Gold.Chemscore.ZeroCoef>
-5.4800

> <Gold.Chemscore.Hbond>
1.9855

> <Gold.Chemscore.Metal>
0.0000

> <Gold.Chemscore.Lipo>
89.5536

> <Gold.Chemscore.Internal_Hbond>
0.0000

> <Gold.Chemscore.DEClash>
0.0021

> <Gold.Chemscore.DEInternal>
1.3432

> <Gold.Chemscore.Rot>
2.6275

> <Gold.Chemscore.Internal.Correction>
   9.000000E+99

> <Gold.Chemscore.Hbonds>
donor molecule, donor type, donor heavy atom, donor atom, acceptor molecule, acceptor atom, score
      L1  H    10    28       P1  8028  0.80
      P1  H  7989  7998       L1     6  1.00

> <Gold.Chemscore.Hbond.Weighted>
-6.6316

> <Gold.Chemscore.Metal.Weighted>
-0.0000

> <Gold.Chemscore.Lipo.Weighted>
-10.4778

> <Gold.Chemscore.Internal_Hbond.Weighted>
0.0000

> <Gold.Chemscore.DEClash.Weighted>
0.0021

> <Gold.Chemscore.DEInternal.Weighted>
1.3432

> <Gold.Chemscore.Rot.Weighted>
6.7265

> <Gold.Chemscore.Internal.Correction.Weighted>
   9.000000E+99

> <Gold.Protein.RotatedTorsions>
[ 6907 6896 6895 6894 ] final   45.21 input  -60.11 | X-H torsion
[ 7974 7965 7964 7962 ] final  116.89 input  175.53 | X-H torsion
[ 8008 7997 7996 7995 ] final  166.68 input   59.86 | X-H torsion
[ 10167 10162 10161 10158 ] final   64.33 input  -65.29 | X-H torsion
[ 10718 10713 10712 10709 ] final  124.81 input   66.30 | X-H torsion
[ 10763 10752 10751 10750 ] final   42.54 input  -60.55 | X-H torsion
[ 11005 11000 10999 10996 ] final   80.16 input  -57.11 | X-H torsion

> <Gold.Protein.ActiveResidues>
 VAL166  LYS551  ARG553  GLY616  TRP617  ASP618  TYR619  PRO620  LYS621  CYS622 
 ASP623  PHE694  ASN695  SER759  ASP760  ASP761  ALA762  ILE779  LEU786  VAL792 
 PHE793  MET794  SER795  GLU796  ALA797  LYS798  CYS799  TRP800  GLU811  SER814 

> <Gold.Protein.RotatedAtoms>
  152.2418  134.8221  160.0458 H   0  0  0  0  0  0  0  0  0  0  0  0  # atno 6907 bound_to 6896
  151.8933  133.3516  159.3814 H   0  0  0  0  0  0  0  0  0  0  0  0  # atno 6908 bound_to 6896
  150.7056  134.4828  159.5522 H   0  0  0  0  0  0  0  0  0  0  0  0  # atno 6909 bound_to 6896
  145.1741  139.3085  143.4452 H   0  0  0  0  0  0  0  0  0  0  0  0  # atno 7974 bound_to 7965
  156.1698  140.1637  156.8467 H   0  0  0  0  0  0  0  0  0  0  0  0  # atno 8008 bound_to 7997
  154.5245  140.0770  156.8268 H   0  0  0  0  0  0  0  0  0  0  0  0  # atno 8009 bound_to 7997
  155.3535  140.3391  155.4242 H   0  0  0  0  0  0  0  0  0  0  0  0  # atno 8010 bound_to 7997
  140.1234  144.4710  150.6907 H   0  0  0  0  0  0  0  0  0  0  0  0  # atno 10167 bound_to 10162
  157.5555  131.1092  150.8629 H   0  0  0  0  0  0  0  0  0  0  0  0  # atno 10718 bound_to 10713
  152.9880  135.6128  154.2966 H   0  0  0  0  0  0  0  0  0  0  0  0  # atno 10763 bound_to 10752
  154.2689  135.2780  155.2748 H   0  0  0  0  0  0  0  0  0  0  0  0  # atno 10764 bound_to 10752
  154.5140  135.5833  153.6684 H   0  0  0  0  0  0  0  0  0  0  0  0  # atno 10765 bound_to 10752
  139.9145  134.7899  156.1873 H   0  0  0  0  0  0  0  0  0  0  0  0  # atno 11005 bound_to 11000
  146.3464  140.1897  142.8589 LP  0  0  0  0  0  0  0  0  0  0  0  0  # atno 17320 bound_to 7965
  145.0203  140.8788  143.5171 LP  0  0  0  0  0  0  0  0  0  0  0  0  # atno 17321 bound_to 7965
  140.6859  143.2350  151.5262 LP  0  0  0  0  0  0  0  0  0  0  0  0  # atno 17342 bound_to 10162
  139.5557  144.2282  152.1608 LP  0  0  0  0  0  0  0  0  0  0  0  0  # atno 17343 bound_to 10162
  156.9142  130.5291  149.5280 LP  0  0  0  0  0  0  0  0  0  0  0  0  # atno 17370 bound_to 10713
  156.0614  130.5666  150.9201 LP  0  0  0  0  0  0  0  0  0  0  0  0  # atno 17371 bound_to 10713
  141.0605  133.6844  156.1944 LP  0  0  0  0  0  0  0  0  0  0  0  0  # atno 17394 bound_to 11000
  140.6668  134.4910  157.5586 LP  0  0  0  0  0  0  0  0  0  0  0  0  # atno 17395 bound_to 11000

$$$$
