AV-unprocessed.smi:757|AV-procd|sdf|3616|dock1
  -GOLD-   22720 1 13D 1   1.00000     0.00000
 Structure written by MMmdl.
 44 45  0  0  0  0  0  0  0  0  1 V2000
  152.2665  144.4931  158.3178 C   0  0  0  0  0  0  0  0  0  0  0  0
  151.6745  143.5819  157.7609 C   0  0  0  0  0  0  0  0  0  0  0  0
  150.9762  142.4776  157.0791 C   0  0  0  0  0  0  0  0  0  0  0  0
  151.3921  141.0703  157.5587 C   0  0  0  0  0  0  0  0  0  0  0  0
  150.8356  139.9864  156.7452 N   0  0  0  0  0  0  0  0  0  0  0  0
  150.9432  138.7311  157.4925 C   0  0  0  0  0  0  0  0  0  0  0  0
  150.2772  137.5814  156.7169 C   0  0  0  0  0  0  0  0  0  0  0  0
  150.9195  137.4079  155.3308 C   0  0  0  0  0  0  0  0  0  0  0  0
  150.1962  136.4176  154.5390 N   0  0  0  0  0  0  0  0  0  0  0  0
  150.0856  135.1165  154.8420 C   0  0  0  0  0  0  0  0  0  0  0  0
  150.5748  134.6109  155.8518 O   0  0  0  0  0  0  0  0  0  0  0  0
  149.3641  134.4637  153.9150 N   0  0  0  0  0  0  0  0  0  0  0  0
  149.0559  133.0781  153.8415 C   0  0  0  0  0  0  0  0  0  0  0  0
  149.8186  132.0551  154.4543 C   0  0  0  0  0  0  0  0  0  0  0  0
  149.4185  130.7155  154.2883 C   0  0  0  0  0  0  0  0  0  0  0  0
  148.2767  130.4358  153.5116 C   0  0  0  0  0  0  0  0  0  0  0  0
  147.8922  129.1201  153.3533 O   0  0  0  0  0  0  0  0  0  0  0  0
  146.7637  128.8399  152.5325 C   0  0  0  0  0  0  0  0  0  0  0  0
  147.5479  131.4094  152.9120 N   0  0  0  0  0  0  0  0  0  0  0  0
  147.9371  132.6913  153.0750 C   0  0  0  0  0  0  0  0  0  0  0  0
  150.9145  138.7606  154.6045 C   0  0  0  0  0  0  0  0  0  0  0  0
  151.5529  139.8592  155.4721 C   0  0  0  0  0  0  0  0  0  0  0  0
  152.7866  145.2891  158.8020 H   0  0  0  0  0  0  0  0  0  0  0  0
  149.9038  142.6420  157.1737 H   0  0  0  0  0  0  0  0  0  0  0  0
  151.2030  142.5734  156.0171 H   0  0  0  0  0  0  0  0  0  0  0  0
  152.4798  140.9886  157.5848 H   0  0  0  0  0  0  0  0  0  0  0  0
  151.0535  140.9541  158.5897 H   0  0  0  0  0  0  0  0  0  0  0  0
  151.9910  138.4988  157.6906 H   0  0  0  0  0  0  0  0  0  0  0  0
  150.4509  138.8366  158.4601 H   0  0  0  0  0  0  0  0  0  0  0  0
  150.3610  136.6569  157.2892 H   0  0  0  0  0  0  0  0  0  0  0  0
  149.2103  137.7853  156.6129 H   0  0  0  0  0  0  0  0  0  0  0  0
  151.9563  137.0884  155.4546 H   0  0  0  0  0  0  0  0  0  0  0  0
  149.7544  136.7486  153.6938 H   0  0  0  0  0  0  0  0  0  0  0  0
  148.9563  135.0346  153.1890 H   0  0  0  0  0  0  0  0  0  0  0  0
  150.7050  132.2648  155.0321 H   0  0  0  0  0  0  0  0  0  0  0  0
  149.9821  129.9155  154.7451 H   0  0  0  0  0  0  0  0  0  0  0  0
  146.5907  127.7641  152.5129 H   0  0  0  0  0  0  0  0  0  0  0  0
  146.9262  129.1673  151.5047 H   0  0  0  0  0  0  0  0  0  0  0  0
  145.8605  129.3128  152.9209 H   0  0  0  0  0  0  0  0  0  0  0  0
  147.3310  133.4339  152.5766 H   0  0  0  0  0  0  0  0  0  0  0  0
  151.4534  138.6786  153.6600 H   0  0  0  0  0  0  0  0  0  0  0  0
  149.8920  139.0481  154.3538 H   0  0  0  0  0  0  0  0  0  0  0  0
  151.5173  140.7969  154.9197 H   0  0  0  0  0  0  0  0  0  0  0  0
  152.6053  139.6353  155.6533 H   0  0  0  0  0  0  0  0  0  0  0  0
  1  2  3  0  0  0  0
  1 23  1  0  0  0  0
  2  3  1  0  0  0  0
  3  4  1  0  0  0  0
  3 24  1  0  0  0  0
  3 25  1  0  0  0  0
  4  5  1  0  0  0  0
  4 26  1  0  0  0  0
  4 27  1  0  0  0  0
  5 22  1  0  0  0  0
  5  6  1  0  0  0  0
  6  7  1  0  0  0  0
  6 28  1  0  0  0  0
  6 29  1  0  0  0  0
  7  8  1  0  0  0  0
  7 30  1  0  0  0  0
  7 31  1  0  0  0  0
  8  9  1  0  0  0  0
  8 21  1  0  0  0  0
  8 32  1  0  0  0  0
  9 10  1  0  0  0  0
  9 33  1  0  0  0  0
 10 11  2  0  0  0  0
 10 12  1  0  0  0  0
 12 13  1  0  0  0  0
 12 34  1  0  0  0  0
 13 20  1  0  0  0  0
 13 14  2  0  0  0  0
 14 15  1  0  0  0  0
 14 35  1  0  0  0  0
 15 16  2  0  0  0  0
 15 36  1  0  0  0  0
 16 17  1  0  0  0  0
 16 19  1  0  0  0  0
 17 18  1  0  0  0  0
 18 37  1  0  0  0  0
 18 38  1  0  0  0  0
 18 39  1  0  0  0  0
 19 20  2  0  0  0  0
 20 40  1  0  0  0  0
 21 22  1  0  0  0  0
 21 41  1  0  0  0  0
 21 42  1  0  0  0  0
 22 43  1  0  0  0  0
 22 44  1  0  0  0  0
M  END
> <s_m_source_file>
AV-unprocessed.smi

> <i_m_source_file_index>
757

> <i_lp_mmshare_version>
43012

> <i_f3d_flags>
0

> <s_epik_input>
W0NIXSNDW0NIMl1bQ0gyXU4xW0NIMl1bQ0gyXVtDSF0oW0NIMl1bQ0gyXTEpW05IXUMoPU8pW05IXWMyW2NIXVtjSF1jKE9bQ0gzXSluW2NIXTI=

> <s_epik_cmdline>
J2VwaWtfcHl0aG9uJywgJy1waCcsICc3LjAnLCAnLXRuJywgJzgnLCAnLW1hJywgJzIwMCcsICctbWV0YWxfYmluZGluZycsICctaW1hZScsICc8aW5maWxlLm1hZT4nLCAnLW9tYWUnLCAnPG91dGZpbGUubWFlPic=

> <r_lp_tautomer_probability>
1

> <r_epik_Ionization_Penalty>
1.61445

> <r_epik_Ionization_Penalty_Charging>
0

> <r_epik_Ionization_Penalty_Neutral>
1.61445

> <r_epik_State_Penalty>
1.71357

> <r_epik_Charging_Adjusted_Penalty>
1.71357

> <i_epik_Tot_Q>
0

> <i_epik_Tot_abs_Q>
0

> <r_epik_Metal_State_Penalty>
1.71356

> <b_epik_Metal_Only>
0

> <s_lp_Force_Field>
OPLS_2005

> <r_lp_Energy>
17.5598

> <b_lp_Chiralities_Consistent>
1

> <s_lp_Variant>
AV-unprocessed.smi:757-3

> <Gold.Version>
5.8.1

> <Gold.Id.Protein>
6NUR|6NUR_protein|mol2

> <Gold.PLP.Fitness>
46.1220

> <Gold.PLP.PLP>
-40.8394

> <Gold.PLP.part.hbond>
-2.3603

> <Gold.PLP.part.metal>
0.0000

> <Gold.PLP.part.buried>
-3.9511

> <Gold.PLP.part.nonpolar>
-35.7001

> <Gold.PLP.part.repulsive>
0.8268

> <Gold.PLP.ligand.clash>
0.0000

> <Gold.PLP.ligand.torsion>
0.2827

> <Gold.PLP.Chemscore.Hbond>
1.9280

> <Gold.PLP.Chemscore.CHOScore>
0.0000

> <Gold.PLP.Chemscore.Metal>
0.0000

> <Gold.Chemscore.Hbonds>
donor molecule, donor type, donor heavy atom, donor atom, acceptor molecule, acceptor atom, score
      L1  H     9    33       P1  7948  0.90
      L1  H    12    34       P1  7948  1.00

> <Gold.PLP.Chemscore.Internal.Correction>
0.0641

> <Gold.Rescore>
     Score         DG    S(hbond)    S(metal)    S(lipo)     H(rot)  DE(clash)    DE(int)     intcor
     16.04     -17.42       1.40        0.00      96.15       1.55       0.05       1.32       ----

> <Gold.Chemscore.Fitness>
16.0439

> <Gold.Chemscore.DG>
-17.4231

> <Gold.Chemscore.ZeroCoef>
-5.4800

> <Gold.Chemscore.Hbond>
1.3969

> <Gold.Chemscore.Metal>
0.0000

> <Gold.Chemscore.Lipo>
96.1516

> <Gold.Chemscore.Internal_Hbond>
0.0000

> <Gold.Chemscore.DEClash>
0.0549

> <Gold.Chemscore.DEInternal>
1.3243

> <Gold.Chemscore.Rot>
1.5517

> <Gold.Chemscore.Internal.Correction>
   9.000000E+99

> <Gold.Chemscore.Hbonds>
donor molecule, donor type, donor heavy atom, donor atom, acceptor molecule, acceptor atom, score
      L1  H     9    33       P1  7948  0.46
      L1  H    12    34       P1  7948  0.25

> <Gold.Chemscore.Hbond.Weighted>
-4.6658

> <Gold.Chemscore.Metal.Weighted>
-0.0000

> <Gold.Chemscore.Lipo.Weighted>
-11.2497

> <Gold.Chemscore.Internal_Hbond.Weighted>
0.0000

> <Gold.Chemscore.DEClash.Weighted>
0.0549

> <Gold.Chemscore.DEInternal.Weighted>
1.3243

> <Gold.Chemscore.Rot.Weighted>
3.9725

> <Gold.Chemscore.Internal.Correction.Weighted>
   9.000000E+99

> <Gold.Protein.RotatedTorsions>
[ 6907 6896 6895 6894 ] final -129.19 input  -60.11 | X-H torsion
[ 7974 7965 7964 7962 ] final  -64.40 input  175.53 | X-H torsion
[ 8008 7997 7996 7995 ] final  -49.80 input   59.86 | X-H torsion
[ 10167 10162 10161 10158 ] final -171.22 input  -65.29 | X-H torsion
[ 10718 10713 10712 10709 ] final  156.10 input   66.30 | X-H torsion
[ 10763 10752 10751 10750 ] final  -51.71 input  -60.55 | X-H torsion
[ 11005 11000 10999 10996 ] final  -26.59 input  -57.11 | X-H torsion

> <Gold.Protein.ActiveResidues>
 VAL166  LYS551  ARG553  GLY616  TRP617  ASP618  TYR619  PRO620  LYS621  CYS622 
 ASP623  PHE694  ASN695  SER759  ASP760  ASP761  ALA762  ILE779  LEU786  VAL792 
 PHE793  MET794  SER795  GLU796  ALA797  LYS798  CYS799  TRP800  GLU811  SER814 

> <Gold.Protein.RotatedAtoms>
  150.9260  133.6823  159.2821 H   0  0  0  0  0  0  0  0  0  0  0  0  # atno 6907 bound_to 6896
  151.4261  135.1002  159.9638 H   0  0  0  0  0  0  0  0  0  0  0  0  # atno 6908 bound_to 6896
  152.5003  133.8701  159.7349 H   0  0  0  0  0  0  0  0  0  0  0  0  # atno 6909 bound_to 6896
  145.7671  140.8832  143.0399 H   0  0  0  0  0  0  0  0  0  0  0  0  # atno 7974 bound_to 7965
  154.4050  140.1288  156.4561 H   0  0  0  0  0  0  0  0  0  0  0  0  # atno 8008 bound_to 7997
  155.7318  140.3491  155.5043 H   0  0  0  0  0  0  0  0  0  0  0  0  # atno 8009 bound_to 7997
  155.9120  140.1037  157.1262 H   0  0  0  0  0  0  0  0  0  0  0  0  # atno 8010 bound_to 7997
  139.5815  144.1412  152.1521 H   0  0  0  0  0  0  0  0  0  0  0  0  # atno 10167 bound_to 10162
  157.2095  131.0694  151.1978 H   0  0  0  0  0  0  0  0  0  0  0  0  # atno 10718 bound_to 10713
  154.1310  135.6520  153.4922 H   0  0  0  0  0  0  0  0  0  0  0  0  # atno 10763 bound_to 10752
  153.0195  135.5293  154.7001 H   0  0  0  0  0  0  0  0  0  0  0  0  # atno 10764 bound_to 10752
  154.6236  135.2967  155.0269 H   0  0  0  0  0  0  0  0  0  0  0  0  # atno 10765 bound_to 10752
  140.9043  133.7503  156.0585 H   0  0  0  0  0  0  0  0  0  0  0  0  # atno 11005 bound_to 11000
  144.6819  139.9804  143.7483 LP  0  0  0  0  0  0  0  0  0  0  0  0  # atno 17320 bound_to 7965
  146.0206  139.3248  143.0815 LP  0  0  0  0  0  0  0  0  0  0  0  0  # atno 17321 bound_to 7965
  140.0967  144.5575  150.7017 LP  0  0  0  0  0  0  0  0  0  0  0  0  # atno 17342 bound_to 10162
  140.7093  143.2492  151.4631 LP  0  0  0  0  0  0  0  0  0  0  0  0  # atno 17343 bound_to 10162
  157.3686  130.7169  149.6549 LP  0  0  0  0  0  0  0  0  0  0  0  0  # atno 17370 bound_to 10713
  155.9692  130.4205  150.4426 LP  0  0  0  0  0  0  0  0  0  0  0  0  # atno 17371 bound_to 10713
  140.8190  134.3311  157.5387 LP  0  0  0  0  0  0  0  0  0  0  0  0  # atno 17394 bound_to 11000
  139.8747  134.9298  156.3487 LP  0  0  0  0  0  0  0  0  0  0  0  0  # atno 17395 bound_to 11000

$$$$
