AV-unprocessed.smi:2432|AV-procd|sdf|9587|dock4
  -GOLD-   2272013223D 1   1.00000     0.00000
 Structure written by MMmdl.
 33 34  0  0  0  0  0  0  0  0  1 V2000
  146.9105  140.4464  152.6374 C   0  0  0  0  0  0  0  0  0  0  0  0
  147.9662  139.9762  153.5209 N   0  0  0  0  0  0  0  0  0  0  0  0
  148.8327  140.7767  154.1596 C   0  0  0  0  0  0  0  0  0  0  0  0
  148.8057  142.0039  154.0581 O   0  0  0  0  0  0  0  0  0  0  0  0
  149.8686  140.0876  155.0607 C   0  0  2  0  0  0  0  0  0  0  0  0
  150.7215  141.0970  155.8629 C   0  0  0  0  0  0  0  0  0  0  0  0
  151.7746  140.4159  156.6215 N   0  0  0  0  0  0  0  0  0  0  0  0
  152.2441  140.9079  157.8471 C   0  0  0  0  0  0  0  0  0  0  0  0
  153.1518  140.1732  158.5056 N   0  0  0  0  0  0  0  0  0  0  0  0
  153.6068  140.6415  159.6875 C   0  0  0  0  0  0  0  0  0  0  0  0
  153.1527  141.8605  160.2257 C   0  0  0  0  0  0  0  0  0  0  0  0
  152.1980  142.5564  159.4584 C   0  0  0  0  0  0  0  0  0  0  0  0
  151.6290  143.8818  159.9178 C   0  0  0  0  0  0  0  0  0  0  0  0
  151.7514  142.0782  158.2769 N   0  0  0  0  0  0  0  0  0  0  0  0
  152.5675  139.4995  155.7995 C   0  0  0  0  0  0  0  0  0  0  0  0
  151.6544  138.5423  155.0187 C   0  0  0  0  0  0  0  0  0  0  0  0
  150.7264  139.2914  154.2455 O   0  0  0  0  0  0  0  0  0  0  0  0
  146.3512  139.5985  152.2420 H   0  0  0  0  0  0  0  0  0  0  0  0
  147.3268  141.0027  151.7966 H   0  0  0  0  0  0  0  0  0  0  0  0
  146.2155  141.0938  153.1738 H   0  0  0  0  0  0  0  0  0  0  0  0
  148.0505  138.9785  153.6543 H   0  0  0  0  0  0  0  0  0  0  0  0
  149.3228  139.4385  155.7480 H   0  0  0  0  0  0  0  0  0  0  0  0
  151.1913  141.8171  155.1916 H   0  0  0  0  0  0  0  0  0  0  0  0
  150.0582  141.6622  156.5175 H   0  0  0  0  0  0  0  0  0  0  0  0
  154.3381  140.0396  160.2062 H   0  0  0  0  0  0  0  0  0  0  0  0
  153.5176  142.2365  161.1702 H   0  0  0  0  0  0  0  0  0  0  0  0
  151.6907  143.9760  161.0023 H   0  0  0  0  0  0  0  0  0  0  0  0
  150.5816  143.9760  159.6288 H   0  0  0  0  0  0  0  0  0  0  0  0
  152.1850  144.7048  159.4688 H   0  0  0  0  0  0  0  0  0  0  0  0
  153.1731  140.0870  155.1086 H   0  0  0  0  0  0  0  0  0  0  0  0
  153.2576  138.9020  156.3943 H   0  0  0  0  0  0  0  0  0  0  0  0
  152.2491  137.9195  154.3503 H   0  0  0  0  0  0  0  0  0  0  0  0
  151.1254  137.8684  155.6948 H   0  0  0  0  0  0  0  0  0  0  0  0
  1  2  1  0  0  0  0
  1 18  1  0  0  0  0
  1 19  1  0  0  0  0
  1 20  1  0  0  0  0
  2  3  1  0  0  0  0
  2 21  1  0  0  0  0
  3  4  2  0  0  0  0
  3  5  1  0  0  0  0
  5 17  1  0  0  0  0
  5  6  1  0  0  0  0
  5 22  1  0  0  0  0
  6  7  1  0  0  0  0
  6 23  1  0  0  0  0
  6 24  1  0  0  0  0
  7  8  1  0  0  0  0
  7 15  1  0  0  0  0
  8 14  1  0  0  0  0
  8  9  2  0  0  0  0
  9 10  1  0  0  0  0
 10 11  2  0  0  0  0
 10 25  1  0  0  0  0
 11 12  1  0  0  0  0
 11 26  1  0  0  0  0
 12 13  1  0  0  0  0
 12 14  2  0  0  0  0
 13 27  1  0  0  0  0
 13 28  1  0  0  0  0
 13 29  1  0  0  0  0
 15 16  1  0  0  0  0
 15 30  1  0  0  0  0
 15 31  1  0  0  0  0
 16 17  1  0  0  0  0
 16 32  1  0  0  0  0
 16 33  1  0  0  0  0
M  END
> <s_m_source_file>
AV-unprocessed.smi

> <i_m_source_file_index>
2432

> <i_lp_mmshare_version>
43012

> <i_f3d_flags>
0

> <s_epik_input>
W0NIM11bTkhdQyg9TylbQ0BASF0xW0NIMl1OKFtDSDJdW0NIMl1PMSljMm5bY0hdW2NIXWMobjIpW0NIM10=

> <s_epik_cmdline>
J2VwaWtfcHl0aG9uJywgJy1waCcsICc3LjAnLCAnLXRuJywgJzgnLCAnLW1hJywgJzIwMCcsICctbWV0YWxfYmluZGluZycsICctaW1hZScsICc8aW5maWxlLm1hZT4nLCAnLW9tYWUnLCAnPG91dGZpbGUubWFlPic=

> <r_lp_tautomer_probability>
1

> <r_epik_Ionization_Penalty>
3.16085e-05

> <r_epik_Ionization_Penalty_Charging>
0

> <r_epik_Ionization_Penalty_Neutral>
3.16085e-05

> <r_epik_State_Penalty>
-0

> <r_epik_Charging_Adjusted_Penalty>
0

> <i_epik_Tot_Q>
0

> <i_epik_Tot_abs_Q>
0

> <r_epik_Metal_State_Penalty>
-0

> <b_epik_Metal_Only>
0

> <s_lp_Force_Field>
OPLS_2005

> <r_lp_Energy>
9.35754

> <b_lp_Chiralities_Consistent>
1

> <s_lp_Variant>
AV-unprocessed.smi:2432-1

> <Gold.Version>
5.8.1

> <Gold.Id.Protein>
6NUR|6NUR_protein|mol2

> <Gold.PLP.Fitness>
40.4555

> <Gold.PLP.PLP>
-34.5768

> <Gold.PLP.part.hbond>
-4.0000

> <Gold.PLP.part.metal>
0.0000

> <Gold.PLP.part.buried>
0.1470

> <Gold.PLP.part.nonpolar>
-30.3096

> <Gold.PLP.part.repulsive>
0.4588

> <Gold.PLP.ligand.clash>
0.0000

> <Gold.PLP.ligand.torsion>
0.1912

> <Gold.PLP.Chemscore.Hbond>
2.0517

> <Gold.PLP.Chemscore.CHOScore>
0.0000

> <Gold.PLP.Chemscore.Metal>
0.0000

> <Gold.Chemscore.Hbonds>
donor molecule, donor type, donor heavy atom, donor atom, acceptor molecule, acceptor atom, score
      P1  H  7989  7998       L1    17  0.65
      P1  H  7997  8009       L1     9  0.90
      P1  H  8011  8017       L1     4  0.42

> <Gold.PLP.Chemscore.Internal.Correction>
0.1059

> <Gold.Rescore>
     Score         DG    S(hbond)    S(metal)    S(lipo)     H(rot)  DE(clash)    DE(int)     intcor
     14.45     -15.10       0.90        0.00      78.52       1.00       0.31       0.34       ----

> <Gold.Chemscore.Fitness>
14.4494

> <Gold.Chemscore.DG>
-15.0988

> <Gold.Chemscore.ZeroCoef>
-5.4800

> <Gold.Chemscore.Hbond>
0.8958

> <Gold.Chemscore.Metal>
0.0000

> <Gold.Chemscore.Lipo>
78.5193

> <Gold.Chemscore.Internal_Hbond>
0.0000

> <Gold.Chemscore.DEClash>
0.3138

> <Gold.Chemscore.DEInternal>
0.3356

> <Gold.Chemscore.Rot>
1.0000

> <Gold.Chemscore.Internal.Correction>
   9.000000E+99

> <Gold.Chemscore.Hbonds>
donor molecule, donor type, donor heavy atom, donor atom, acceptor molecule, acceptor atom, score
      P1  H  7989  7998       L1    17  0.04
      P1  H  7997  8009       L1     9  0.20
      P1  H  8011  8017       L1     4  0.21

> <Gold.Chemscore.Hbond.Weighted>
-2.9920

> <Gold.Chemscore.Metal.Weighted>
-0.0000

> <Gold.Chemscore.Lipo.Weighted>
-9.1868

> <Gold.Chemscore.Internal_Hbond.Weighted>
0.0000

> <Gold.Chemscore.DEClash.Weighted>
0.3138

> <Gold.Chemscore.DEInternal.Weighted>
0.3356

> <Gold.Chemscore.Rot.Weighted>
2.5600

> <Gold.Chemscore.Internal.Correction.Weighted>
   9.000000E+99

> <Gold.Protein.RotatedTorsions>
[ 6907 6896 6895 6894 ] final   62.73 input  -60.11 | X-H torsion
[ 7974 7965 7964 7962 ] final   80.86 input  175.53 | X-H torsion
[ 8008 7997 7996 7995 ] final  149.09 input   59.86 | X-H torsion
[ 10167 10162 10161 10158 ] final  161.17 input  -65.29 | X-H torsion
[ 10718 10713 10712 10709 ] final -109.37 input   66.30 | X-H torsion
[ 10763 10752 10751 10750 ] final -116.68 input  -60.55 | X-H torsion
[ 11005 11000 10999 10996 ] final  130.08 input  -57.11 | X-H torsion

> <Gold.Protein.ActiveResidues>
 VAL166  LYS551  ARG553  GLY616  TRP617  ASP618  TYR619  PRO620  LYS621  CYS622 
 ASP623  PHE694  ASN695  SER759  ASP760  ASP761  ALA762  ILE779  LEU786  VAL792 
 PHE793  MET794  SER795  GLU796  ALA797  LYS798  CYS799  TRP800  GLU811  SER814 

> <Gold.Protein.RotatedAtoms>
  152.4195  134.5980  159.9992 H   0  0  0  0  0  0  0  0  0  0  0  0  # atno 6907 bound_to 6896
  151.6134  133.3339  159.3080 H   0  0  0  0  0  0  0  0  0  0  0  0  # atno 6908 bound_to 6896
  150.8084  134.7261  159.6731 H   0  0  0  0  0  0  0  0  0  0  0  0  # atno 6909 bound_to 6896
  145.6458  139.2436  143.2005 H   0  0  0  0  0  0  0  0  0  0  0  0  # atno 7974 bound_to 7965
  156.2768  140.2111  156.5803 H   0  0  0  0  0  0  0  0  0  0  0  0  # atno 8008 bound_to 7997
  154.7064  140.0516  157.0531 H   0  0  0  0  0  0  0  0  0  0  0  0  # atno 8009 bound_to 7997
  155.0664  140.3172  155.4647 H   0  0  0  0  0  0  0  0  0  0  0  0  # atno 8010 bound_to 7997
  139.4847  144.4563  151.8764 H   0  0  0  0  0  0  0  0  0  0  0  0  # atno 10167 bound_to 10162
  156.0534  130.5760  150.8091 H   0  0  0  0  0  0  0  0  0  0  0  0  # atno 10718 bound_to 10713
  154.8528  135.4337  154.1859 H   0  0  0  0  0  0  0  0  0  0  0  0  # atno 10763 bound_to 10752
  153.2939  135.6963  153.7273 H   0  0  0  0  0  0  0  0  0  0  0  0  # atno 10764 bound_to 10752
  153.6429  135.3465  155.3051 H   0  0  0  0  0  0  0  0  0  0  0  0  # atno 10765 bound_to 10752
  139.9652  134.9592  156.9242 H   0  0  0  0  0  0  0  0  0  0  0  0  # atno 11005 bound_to 11000
  146.1244  140.7267  142.9442 LP  0  0  0  0  0  0  0  0  0  0  0  0  # atno 17320 bound_to 7965
  144.7141  140.4145  143.7058 LP  0  0  0  0  0  0  0  0  0  0  0  0  # atno 17321 bound_to 7965
  140.4022  144.2478  150.5892 LP  0  0  0  0  0  0  0  0  0  0  0  0  # atno 17342 bound_to 10162
  140.5046  143.2308  151.8627 LP  0  0  0  0  0  0  0  0  0  0  0  0  # atno 17343 bound_to 10162
  157.5481  131.0943  150.9734 LP  0  0  0  0  0  0  0  0  0  0  0  0  # atno 17370 bound_to 10713
  157.0001  130.5596  149.5310 LP  0  0  0  0  0  0  0  0  0  0  0  0  # atno 17371 bound_to 10713
  140.5413  134.0717  155.7342 LP  0  0  0  0  0  0  0  0  0  0  0  0  # atno 17394 bound_to 11000
  141.1331  133.9268  157.2493 LP  0  0  0  0  0  0  0  0  0  0  0  0  # atno 17395 bound_to 11000

$$$$
