AV-unprocessed.smi:2124|AV-procd|sdf|8671|dock4
  -GOLD-   2272011423D 1   1.00000     0.00000
 Structure written by MMmdl.
 46 48  0  0  0  0  0  0  0  0  2 V2000
  156.7408  137.0112  156.5804 C   0  0  0  0  0  0  0  0  0  0  0  0
  155.4131  137.2686  157.2602 C   0  0  0  0  0  0  0  0  0  0  0  0
  155.3269  138.2017  158.1304 N   0  0  0  0  0  0  0  0  0  0  0  0
  154.0946  138.4490  158.7591 C   0  0  0  0  0  0  0  0  0  0  0  0
  154.0817  139.5781  159.7751 C   0  0  0  0  0  0  0  0  0  0  0  0
  152.9882  137.7105  158.4577 C   0  0  0  0  0  0  0  0  0  0  0  0
  151.6232  137.9439  159.1053 C   0  0  0  0  0  0  0  0  0  0  0  0
  150.8434  139.1713  158.6276 C   0  0  0  0  0  0  0  0  0  0  0  0
  149.6125  139.1786  158.6422 O   0  0  0  0  0  0  0  0  0  0  0  0
  151.5905  140.2093  158.2147 N   0  0  0  0  0  0  0  0  0  0  0  0
  151.1215  141.5154  157.7435 C   0  0  1  0  0  0  0  0  0  0  0  0
  149.7808  141.3769  156.9954 C   0  0  0  0  0  0  0  0  0  0  0  0
  151.0758  142.5757  158.8774 C   0  0  2  0  0  0  0  0  0  0  0  0
  150.3113  143.8645  158.4882 C   0  0  0  0  0  0  0  0  0  0  0  0
  151.3201  144.9836  158.8017 C   0  0  1  0  0  0  0  0  0  0  0  0
  151.5056  145.0998  160.3257 C   0  0  0  0  0  0  0  0  0  0  0  0
  152.3203  143.8374  160.6639 C   0  0  0  0  0  0  0  0  0  0  0  0
  152.4572  143.1451  159.2946 C   0  0  2  0  0  0  0  0  0  0  0  0
  152.6310  144.3432  158.3669 C   0  0  0  0  0  0  0  0  0  0  0  0
  153.1325  136.6380  157.4576 C   0  0  0  0  0  0  0  0  0  0  0  0
  152.1702  135.9293  157.1641 O   0  0  0  0  0  0  0  0  0  0  0  0
  154.3585  136.4664  156.8862 N   0  5  0  0  0  0  0  0  0  0  0  0
  157.5556  137.5054  157.1111 H   0  0  0  0  0  0  0  0  0  0  0  0
  156.7177  137.3885  155.5578 H   0  0  0  0  0  0  0  0  0  0  0  0
  156.9547  135.9422  156.5497 H   0  0  0  0  0  0  0  0  0  0  0  0
  153.4488  140.3950  159.4287 H   0  0  0  0  0  0  0  0  0  0  0  0
  155.0845  139.9756  159.9356 H   0  0  0  0  0  0  0  0  0  0  0  0
  153.7042  139.2287  160.7362 H   0  0  0  0  0  0  0  0  0  0  0  0
  151.0030  137.0659  158.9239 H   0  0  0  0  0  0  0  0  0  0  0  0
  151.7195  137.9941  160.1905 H   0  0  0  0  0  0  0  0  0  0  0  0
  152.5922  140.0863  158.2423 H   0  0  0  0  0  0  0  0  0  0  0  0
  151.8658  141.8335  157.0132 H   0  0  0  0  0  0  0  0  0  0  0  0
  149.4982  142.3092  156.5071 H   0  0  0  0  0  0  0  0  0  0  0  0
  148.9675  141.1034  157.6677 H   0  0  0  0  0  0  0  0  0  0  0  0
  149.8420  140.6124  156.2202 H   0  0  0  0  0  0  0  0  0  0  0  0
  150.5947  142.1270  159.7474 H   0  0  0  0  0  0  0  0  0  0  0  0
  150.0645  143.8796  157.4260 H   0  0  0  0  0  0  0  0  0  0  0  0
  149.3796  143.9772  159.0437 H   0  0  0  0  0  0  0  0  0  0  0  0
  151.0863  145.9309  158.3152 H   0  0  0  0  0  0  0  0  0  0  0  0
  152.0664  145.9988  160.5837 H   0  0  0  0  0  0  0  0  0  0  0  0
  150.5527  145.1345  160.8551 H   0  0  0  0  0  0  0  0  0  0  0  0
  153.3006  144.1093  161.0575 H   0  0  0  0  0  0  0  0  0  0  0  0
  151.8285  143.2065  161.4051 H   0  0  0  0  0  0  0  0  0  0  0  0
  153.2755  142.4253  159.2691 H   0  0  0  0  0  0  0  0  0  0  0  0
  152.6547  144.0772  157.3091 H   0  0  0  0  0  0  0  0  0  0  0  0
  153.5076  144.9497  158.6022 H   0  0  0  0  0  0  0  0  0  0  0  0
  1  2  1  0  0  0  0
  1 23  1  0  0  0  0
  1 24  1  0  0  0  0
  1 25  1  0  0  0  0
  2 22  1  0  0  0  0
  2  3  2  0  0  0  0
  3  4  1  0  0  0  0
  4  5  1  0  0  0  0
  4  6  2  0  0  0  0
  5 26  1  0  0  0  0
  5 27  1  0  0  0  0
  5 28  1  0  0  0  0
  6  7  1  0  0  0  0
  6 20  1  0  0  0  0
  7  8  1  0  0  0  0
  7 29  1  0  0  0  0
  7 30  1  0  0  0  0
  8  9  2  0  0  0  0
  8 10  1  0  0  0  0
 10 11  1  0  0  0  0
 10 31  1  0  0  0  0
 11 12  1  0  0  0  0
 11 13  1  0  0  0  0
 11 32  1  0  0  0  0
 12 33  1  0  0  0  0
 12 34  1  0  0  0  0
 12 35  1  0  0  0  0
 13 18  1  0  0  0  0
 13 14  1  0  0  0  0
 13 36  1  0  0  0  0
 14 15  1  0  0  0  0
 14 37  1  0  0  0  0
 14 38  1  0  0  0  0
 15 19  1  0  0  0  0
 15 16  1  0  0  0  0
 15 39  1  0  0  0  0
 16 17  1  0  0  0  0
 16 40  1  0  0  0  0
 16 41  1  0  0  0  0
 17 18  1  0  0  0  0
 17 42  1  0  0  0  0
 17 43  1  0  0  0  0
 18 19  1  0  0  0  0
 18 44  1  0  0  0  0
 19 45  1  0  0  0  0
 19 46  1  0  0  0  0
 20 21  2  0  0  0  0
 20 22  1  0  0  0  0
M  CHG  1  22  -1
M  END
> <s_m_source_file>
AV-unprocessed.smi

> <i_m_source_file_index>
2124

> <i_lp_mmshare_version>
43012

> <i_f3d_flags>
0

> <s_epik_input>
W0NIM11jMW5jKFtDSDNdKWMoYyg9TylbbkhdMSlbQ0gyXUMoPU8pW05IXVtDQEhdKFtDSDNdKVtDQEhdKFtDSDJdW0NASF0yMylbQ0BIXShbQ0gyXTMpW0NIMl1bQ0gyXTI=

> <s_epik_cmdline>
J2VwaWtfcHl0aG9uJywgJy1waCcsICc3LjAnLCAnLXRuJywgJzgnLCAnLW1hJywgJzIwMCcsICctbWV0YWxfYmluZGluZycsICctaW1hZScsICc8aW5maWxlLm1hZT4nLCAnLW9tYWUnLCAnPG91dGZpbGUubWFlPic=

> <r_lp_tautomer_probability>
0.839158

> <r_epik_Ionization_Penalty>
6.63797

> <r_epik_Ionization_Penalty_Charging>
7.48558e-08

> <r_epik_Ionization_Penalty_Neutral>
6.63797

> <r_epik_State_Penalty>
4.49496

> <r_epik_Charging_Adjusted_Penalty>
4.49496

> <i_epik_Tot_Q>
-1

> <i_epik_Tot_abs_Q>
1

> <r_epik_Metal_State_Penalty>
0.841241

> <b_epik_Metal_Only>
1

> <s_lp_Force_Field>
OPLS_2005

> <r_lp_Energy>
55.5878

> <b_lp_Chiralities_Consistent>
1

> <s_lp_Variant>
AV-unprocessed.smi:2124-22

> <Gold.Version>
5.8.1

> <Gold.Id.Protein>
6NUR|6NUR_protein|mol2

> <Gold.PLP.Fitness>
44.9064

> <Gold.PLP.PLP>
-39.3532

> <Gold.PLP.part.hbond>
-2.6800

> <Gold.PLP.part.metal>
0.0000

> <Gold.PLP.part.buried>
-5.6267

> <Gold.PLP.part.nonpolar>
-31.5060

> <Gold.PLP.part.repulsive>
0.1130

> <Gold.PLP.ligand.clash>
0.0000

> <Gold.PLP.ligand.torsion>
1.2095

> <Gold.PLP.Chemscore.Hbond>
2.6344

> <Gold.PLP.Chemscore.CHOScore>
0.0000

> <Gold.PLP.Chemscore.Metal>
0.0000

> <Gold.Chemscore.Hbonds>
donor molecule, donor type, donor heavy atom, donor atom, acceptor molecule, acceptor atom, score
      P1  H  7997  8010       L1     3  0.68
      P1  H 10752 10764       L1    22  1.89

> <Gold.PLP.Chemscore.Internal.Correction>
0.0690

> <Gold.Rescore>
     Score         DG    S(hbond)    S(metal)    S(lipo)     H(rot)  DE(clash)    DE(int)     intcor
     15.05     -17.91       0.90        0.00     115.64       1.61       0.01       2.85       ----

> <Gold.Chemscore.Fitness>
15.0526

> <Gold.Chemscore.DG>
-17.9120

> <Gold.Chemscore.ZeroCoef>
-5.4800

> <Gold.Chemscore.Hbond>
0.9015

> <Gold.Chemscore.Metal>
0.0000

> <Gold.Chemscore.Lipo>
115.6419

> <Gold.Chemscore.Internal_Hbond>
0.0000

> <Gold.Chemscore.DEClash>
0.0108

> <Gold.Chemscore.DEInternal>
2.8486

> <Gold.Chemscore.Rot>
1.6051

> <Gold.Chemscore.Internal.Correction>
   9.000000E+99

> <Gold.Chemscore.Hbonds>
donor molecule, donor type, donor heavy atom, donor atom, acceptor molecule, acceptor atom, score
      P1  H  7997  8010       L1     3  0.12
      P1  H 10752 10764       L1    22  0.71

> <Gold.Chemscore.Hbond.Weighted>
-3.0109

> <Gold.Chemscore.Metal.Weighted>
-0.0000

> <Gold.Chemscore.Lipo.Weighted>
-13.5301

> <Gold.Chemscore.Internal_Hbond.Weighted>
0.0000

> <Gold.Chemscore.DEClash.Weighted>
0.0108

> <Gold.Chemscore.DEInternal.Weighted>
2.8486

> <Gold.Chemscore.Rot.Weighted>
4.1090

> <Gold.Chemscore.Internal.Correction.Weighted>
   9.000000E+99

> <Gold.Protein.RotatedTorsions>
[ 6907 6896 6895 6894 ] final  -24.35 input  -60.11 | X-H torsion
[ 7974 7965 7964 7962 ] final -100.31 input  175.53 | X-H torsion
[ 8008 7997 7996 7995 ] final  -30.13 input   59.86 | X-H torsion
[ 10167 10162 10161 10158 ] final -131.64 input  -65.29 | X-H torsion
[ 10718 10713 10712 10709 ] final  166.02 input   66.30 | X-H torsion
[ 10763 10752 10751 10750 ] final   39.83 input  -60.55 | X-H torsion
[ 11005 11000 10999 10996 ] final   27.68 input  -57.11 | X-H torsion

> <Gold.Protein.ActiveResidues>
 VAL166  LYS551  ARG553  GLY616  TRP617  ASP618  TYR619  PRO620  LYS621  CYS622 
 ASP623  PHE694  ASN695  SER759  ASP760  ASP761  ALA762  ILE779  LEU786  VAL792 
 PHE793  MET794  SER795  GLU796  ALA797  LYS798  CYS799  TRP800  GLU811  SER814 

> <Gold.Protein.RotatedAtoms>
  151.1908  135.0401  159.8831 H   0  0  0  0  0  0  0  0  0  0  0  0  # atno 6907 bound_to 6896
  152.5439  134.0959  159.8307 H   0  0  0  0  0  0  0  0  0  0  0  0  # atno 6908 bound_to 6896
  151.1087  133.5142  159.2639 H   0  0  0  0  0  0  0  0  0  0  0  0  # atno 6909 bound_to 6896
  145.2962  140.9365  143.2849 H   0  0  0  0  0  0  0  0  0  0  0  0  # atno 7974 bound_to 7965
  154.4262  140.1799  156.1357 H   0  0  0  0  0  0  0  0  0  0  0  0  # atno 8008 bound_to 7997
  156.0032  140.3358  155.6841 H   0  0  0  0  0  0  0  0  0  0  0  0  # atno 8009 bound_to 7997
  155.6214  140.0660  157.2667 H   0  0  0  0  0  0  0  0  0  0  0  0  # atno 8010 bound_to 7997
  139.9168  143.6429  152.2563 H   0  0  0  0  0  0  0  0  0  0  0  0  # atno 10167 bound_to 10162
  157.0718  131.0368  151.2609 H   0  0  0  0  0  0  0  0  0  0  0  0  # atno 10718 bound_to 10713
  152.9955  135.6209  154.2527 H   0  0  0  0  0  0  0  0  0  0  0  0  # atno 10763 bound_to 10752
  154.2266  135.2794  155.2907 H   0  0  0  0  0  0  0  0  0  0  0  0  # atno 10764 bound_to 10752
  154.5485  135.5740  153.6959 H   0  0  0  0  0  0  0  0  0  0  0  0  # atno 10765 bound_to 10752
  140.3237  134.2515  155.7713 H   0  0  0  0  0  0  0  0  0  0  0  0  # atno 11005 bound_to 11000
  144.9131  139.4503  143.6577 LP  0  0  0  0  0  0  0  0  0  0  0  0  # atno 17320 bound_to 7965
  146.3168  139.7950  142.8977 LP  0  0  0  0  0  0  0  0  0  0  0  0  # atno 17321 bound_to 7965
  139.6895  144.7648  151.1464 LP  0  0  0  0  0  0  0  0  0  0  0  0  # atno 17342 bound_to 10162
  140.7672  143.5609  150.9100 LP  0  0  0  0  0  0  0  0  0  0  0  0  # atno 17343 bound_to 10162
  157.4872  130.7800  149.7472 LP  0  0  0  0  0  0  0  0  0  0  0  0  # atno 17370 bound_to 10713
  155.9948  130.3915  150.2843 LP  0  0  0  0  0  0  0  0  0  0  0  0  # atno 17371 bound_to 10713
  141.2080  133.7789  157.0083 LP  0  0  0  0  0  0  0  0  0  0  0  0  # atno 17394 bound_to 11000
  140.0920  134.9587  157.1790 LP  0  0  0  0  0  0  0  0  0  0  0  0  # atno 17395 bound_to 11000

$$$$
