AV-unprocessed.smi:1565|AV-procd|sdf|6299|dock5
  -GOLD-   22720 6493D 1   1.00000     0.00000
 Structure written by MMmdl.
 40 41  0  0  0  0  0  0  0  0  1 V2000
  148.9197  141.0544  154.1380 C   0  0  0  0  0  0  0  0  0  0  0  0
  149.6931  140.0792  155.0317 C   0  0  1  0  0  0  0  0  0  0  0  0
  149.4492  138.6145  154.6264 C   0  0  0  0  0  0  0  0  0  0  0  0
  150.2980  137.7229  155.4098 N   0  0  0  0  0  0  0  0  0  0  0  0
  149.9441  136.3571  155.3771 C   0  0  0  0  0  0  0  0  0  0  0  0
  148.5817  135.9761  155.3922 C   0  0  0  0  0  0  0  0  0  0  0  0
  148.2499  134.6083  155.3537 C   0  0  0  0  0  0  0  0  0  0  0  0
  149.2837  133.6507  155.2946 C   0  0  0  0  0  0  0  0  0  0  0  0
  148.9670  132.1832  155.2740 C   0  0  0  0  0  0  0  0  0  0  0  0
  147.8248  131.7885  155.0393 O   0  0  0  0  0  0  0  0  0  0  0  0
  150.0109  131.3607  155.4652 N   0  0  0  0  0  0  0  0  0  0  0  0
  149.9488  129.9031  155.4320 C   0  0  0  0  0  0  0  0  0  0  0  0
  151.2215  129.2592  156.0077 C   0  0  0  0  0  0  0  0  0  0  0  0
  151.3684  129.6404  157.2758 F   0  0  0  0  0  0  0  0  0  0  0  0
  151.1419  127.9293  155.9705 F   0  0  0  0  0  0  0  0  0  0  0  0
  152.2909  129.6547  155.3167 F   0  0  0  0  0  0  0  0  0  0  0  0
  150.6143  134.1254  155.3026 C   0  0  0  0  0  0  0  0  0  0  0  0
  150.9374  135.4352  155.3398 N   0  0  0  0  0  0  0  0  0  0  0  0
  151.7160  138.0680  155.3367 C   0  0  0  0  0  0  0  0  0  0  0  0
  151.9441  139.5492  155.6958 C   0  0  2  0  0  0  0  0  0  0  0  0
  151.8291  139.8389  157.2032 C   0  0  0  0  0  0  0  0  0  0  0  0
  151.0827  140.3834  154.9179 O   0  0  0  0  0  0  0  0  0  0  0  0
  147.8463  140.8722  154.1953 H   0  0  0  0  0  0  0  0  0  0  0  0
  149.2212  140.9574  153.0946 H   0  0  0  0  0  0  0  0  0  0  0  0
  149.0983  142.0862  154.4421 H   0  0  0  0  0  0  0  0  0  0  0  0
  149.3653  140.2336  156.0599 H   0  0  0  0  0  0  0  0  0  0  0  0
  148.3928  138.3809  154.7517 H   0  0  0  0  0  0  0  0  0  0  0  0
  149.6799  138.4739  153.5695 H   0  0  0  0  0  0  0  0  0  0  0  0
  147.7930  136.7116  155.4475 H   0  0  0  0  0  0  0  0  0  0  0  0
  147.2124  134.3072  155.3681 H   0  0  0  0  0  0  0  0  0  0  0  0
  150.9182  131.7737  155.6253 H   0  0  0  0  0  0  0  0  0  0  0  0
  149.0839  129.5928  156.0192 H   0  0  0  0  0  0  0  0  0  0  0  0
  149.7703  129.5495  154.4151 H   0  0  0  0  0  0  0  0  0  0  0  0
  151.4513  133.4428  155.2820 H   0  0  0  0  0  0  0  0  0  0  0  0
  152.3009  137.4348  156.0053 H   0  0  0  0  0  0  0  0  0  0  0  0
  152.0703  137.8791  154.3222 H   0  0  0  0  0  0  0  0  0  0  0  0
  152.9622  139.8073  155.4033 H   0  0  0  0  0  0  0  0  0  0  0  0
  152.5896  139.2913  157.7599 H   0  0  0  0  0  0  0  0  0  0  0  0
  150.8607  139.5465  157.6084 H   0  0  0  0  0  0  0  0  0  0  0  0
  151.9719  140.9002  157.4072 H   0  0  0  0  0  0  0  0  0  0  0  0
  1  2  1  0  0  0  0
  1 23  1  0  0  0  0
  1 24  1  0  0  0  0
  1 25  1  0  0  0  0
  2 22  1  0  0  0  0
  2  3  1  0  0  0  0
  2 26  1  0  0  0  0
  3  4  1  0  0  0  0
  3 27  1  0  0  0  0
  3 28  1  0  0  0  0
  4  5  1  0  0  0  0
  4 19  1  0  0  0  0
  5 18  1  0  0  0  0
  5  6  2  0  0  0  0
  6  7  1  0  0  0  0
  6 29  1  0  0  0  0
  7  8  2  0  0  0  0
  7 30  1  0  0  0  0
  8  9  1  0  0  0  0
  8 17  1  0  0  0  0
  9 10  2  0  0  0  0
  9 11  1  0  0  0  0
 11 12  1  0  0  0  0
 11 31  1  0  0  0  0
 12 13  1  0  0  0  0
 12 32  1  0  0  0  0
 12 33  1  0  0  0  0
 13 14  1  0  0  0  0
 13 15  1  0  0  0  0
 13 16  1  0  0  0  0
 17 18  2  0  0  0  0
 17 34  1  0  0  0  0
 19 20  1  0  0  0  0
 19 35  1  0  0  0  0
 19 36  1  0  0  0  0
 20 21  1  0  0  0  0
 20 22  1  0  0  0  0
 20 37  1  0  0  0  0
 21 38  1  0  0  0  0
 21 39  1  0  0  0  0
 21 40  1  0  0  0  0
M  END
> <s_m_source_file>
AV-unprocessed.smi

> <i_m_source_file_index>
1565

> <i_lp_mmshare_version>
43012

> <i_f3d_flags>
0

> <s_epik_input>
W0NIM11bQ0BASF0xW0NIMl1OKFtDSDJdW0NASF0oTzEpW0NIM10pYzJbY0hdW2NIXWMoW2NIXW4yKUMoPU8pW05IXVtDSDJdQyhGKShGKUY=

> <s_epik_cmdline>
J2VwaWtfcHl0aG9uJywgJy1waCcsICc3LjAnLCAnLXRuJywgJzgnLCAnLW1hJywgJzIwMCcsICctbWV0YWxfYmluZGluZycsICctaW1hZScsICc8aW5maWxlLm1hZT4nLCAnLW9tYWUnLCAnPG91dGZpbGUubWFlPic=

> <r_lp_tautomer_probability>
1

> <r_epik_Ionization_Penalty>
1.48031e-05

> <r_epik_Ionization_Penalty_Charging>
0

> <r_epik_Ionization_Penalty_Neutral>
1.48031e-05

> <r_epik_State_Penalty>
-0

> <r_epik_Charging_Adjusted_Penalty>
0

> <i_epik_Tot_Q>
0

> <i_epik_Tot_abs_Q>
0

> <r_epik_Metal_State_Penalty>
0.00620302

> <b_epik_Metal_Only>
0

> <s_lp_Force_Field>
OPLS_2005

> <r_lp_Energy>
19.4369

> <b_lp_Chiralities_Consistent>
1

> <s_lp_Variant>
AV-unprocessed.smi:1565-3

> <Gold.Version>
5.8.1

> <Gold.Id.Protein>
6NUR|6NUR_protein|mol2

> <Gold.PLP.Fitness>
35.6040

> <Gold.PLP.PLP>
-30.1681

> <Gold.PLP.part.hbond>
-2.0000

> <Gold.PLP.part.metal>
0.0000

> <Gold.PLP.part.buried>
-3.0050

> <Gold.PLP.part.nonpolar>
-24.2689

> <Gold.PLP.part.repulsive>
0.3457

> <Gold.PLP.ligand.clash>
0.0000

> <Gold.PLP.ligand.torsion>
0.4529

> <Gold.PLP.Chemscore.Hbond>
2.0000

> <Gold.PLP.Chemscore.CHOScore>
0.0000

> <Gold.PLP.Chemscore.Metal>
0.0000

> <Gold.Chemscore.Hbonds>
donor molecule, donor type, donor heavy atom, donor atom, acceptor molecule, acceptor atom, score
      P1  H  7989  7998       L1    22  1.00
      P1  H 10752 10764       L1    18  0.78

> <Gold.PLP.Chemscore.Internal.Correction>
0.3416

> <Gold.Rescore>
     Score         DG    S(hbond)    S(metal)    S(lipo)     H(rot)  DE(clash)    DE(int)     intcor
     14.57     -15.27       1.66        0.00      64.85       1.31       0.08       0.62       ----

> <Gold.Chemscore.Fitness>
14.5701

> <Gold.Chemscore.DG>
-15.2673

> <Gold.Chemscore.ZeroCoef>
-5.4800

> <Gold.Chemscore.Hbond>
1.6589

> <Gold.Chemscore.Metal>
0.0000

> <Gold.Chemscore.Lipo>
64.8547

> <Gold.Chemscore.Internal_Hbond>
0.0000

> <Gold.Chemscore.DEClash>
0.0790

> <Gold.Chemscore.DEInternal>
0.6182

> <Gold.Chemscore.Rot>
1.3052

> <Gold.Chemscore.Internal.Correction>
   9.000000E+99

> <Gold.Chemscore.Hbonds>
donor molecule, donor type, donor heavy atom, donor atom, acceptor molecule, acceptor atom, score
      P1  H  7989  7998       L1    22  0.87
      P1  H 10752 10764       L1    18  0.38

> <Gold.Chemscore.Hbond.Weighted>
-5.5407

> <Gold.Chemscore.Metal.Weighted>
-0.0000

> <Gold.Chemscore.Lipo.Weighted>
-7.5880

> <Gold.Chemscore.Internal_Hbond.Weighted>
0.0000

> <Gold.Chemscore.DEClash.Weighted>
0.0790

> <Gold.Chemscore.DEInternal.Weighted>
0.6182

> <Gold.Chemscore.Rot.Weighted>
3.3414

> <Gold.Chemscore.Internal.Correction.Weighted>
   9.000000E+99

> <Gold.Protein.RotatedTorsions>
[ 6907 6896 6895 6894 ] final   31.89 input  -60.11 | X-H torsion
[ 7974 7965 7964 7962 ] final   40.34 input  175.53 | X-H torsion
[ 8008 7997 7996 7995 ] final   27.88 input   59.86 | X-H torsion
[ 10167 10162 10161 10158 ] final  -29.92 input  -65.29 | X-H torsion
[ 10718 10713 10712 10709 ] final -176.32 input   66.30 | X-H torsion
[ 10763 10752 10751 10750 ] final  -56.82 input  -60.55 | X-H torsion
[ 11005 11000 10999 10996 ] final  -34.56 input  -57.11 | X-H torsion

> <Gold.Protein.ActiveResidues>
 VAL166  LYS551  ARG553  GLY616  TRP617  ASP618  TYR619  PRO620  LYS621  CYS622 
 ASP623  PHE694  ASN695  SER759  ASP760  ASP761  ALA762  ILE779  LEU786  VAL792 
 PHE793  MET794  SER795  GLU796  ALA797  LYS798  CYS799  TRP800  GLU811  SER814 

> <Gold.Protein.RotatedAtoms>
  152.0667  134.9559  160.0574 H   0  0  0  0  0  0  0  0  0  0  0  0  # atno 6907 bound_to 6896
  152.0901  133.4191  159.4548 H   0  0  0  0  0  0  0  0  0  0  0  0  # atno 6908 bound_to 6896
  150.6837  134.2801  159.4667 H   0  0  0  0  0  0  0  0  0  0  0  0  # atno 6909 bound_to 6896
  146.0912  139.5544  142.9474 H   0  0  0  0  0  0  0  0  0  0  0  0  # atno 7974 bound_to 7965
  155.0499  140.3178  155.4696 H   0  0  0  0  0  0  0  0  0  0  0  0  # atno 8008 bound_to 7997
  156.2837  140.2148  156.5568 H   0  0  0  0  0  0  0  0  0  0  0  0  # atno 8009 bound_to 7997
  154.7219  140.0489  157.0635 H   0  0  0  0  0  0  0  0  0  0  0  0  # atno 8010 bound_to 7997
  140.7255  143.3890  151.1463 H   0  0  0  0  0  0  0  0  0  0  0  0  # atno 10167 bound_to 10162
  156.8130  130.9593  151.3115 H   0  0  0  0  0  0  0  0  0  0  0  0  # atno 10718 bound_to 10713
  154.2127  135.6391  153.5120 H   0  0  0  0  0  0  0  0  0  0  0  0  # atno 10763 bound_to 10752
  152.9986  135.5478  154.6198 H   0  0  0  0  0  0  0  0  0  0  0  0  # atno 10764 bound_to 10752
  154.5638  135.2911  155.0867 H   0  0  0  0  0  0  0  0  0  0  0  0  # atno 10765 bound_to 10752
  140.9726  133.7101  156.1549 H   0  0  0  0  0  0  0  0  0  0  0  0  # atno 11005 bound_to 11000
  145.6035  141.0351  143.2005 LP  0  0  0  0  0  0  0  0  0  0  0  0  # atno 17320 bound_to 7965
  144.7362  139.7580  143.7328 LP  0  0  0  0  0  0  0  0  0  0  0  0  # atno 17321 bound_to 7965
  139.7492  143.8805  152.3072 LP  0  0  0  0  0  0  0  0  0  0  0  0  # atno 17342 bound_to 10162
  139.8652  144.7096  150.9052 LP  0  0  0  0  0  0  0  0  0  0  0  0  # atno 17343 bound_to 10162
  157.6496  130.8873  149.9607 LP  0  0  0  0  0  0  0  0  0  0  0  0  # atno 17370 bound_to 10713
  156.1033  130.3654  150.0178 LP  0  0  0  0  0  0  0  0  0  0  0  0  # atno 17371 bound_to 10713
  140.7306  134.4259  157.5566 LP  0  0  0  0  0  0  0  0  0  0  0  0  # atno 17394 bound_to 11000
  139.8918  134.8770  156.2301 LP  0  0  0  0  0  0  0  0  0  0  0  0  # atno 17395 bound_to 11000

$$$$
