AV-unprocessed.smi:2226|AV-procd|sdf|9012|dock2
  -GOLD-   2272012213D 1   1.00000     0.00000
 Structure written by MMmdl.
 40 42  0  0  0  0  0  0  0  0  2 V2000
  148.9710  139.8463  156.8946 C   0  0  0  0  0  0  0  0  0  0  0  0
  148.2986  139.4566  155.6325 N   0  3  1  0  0  0  0  0  0  0  0  0
  146.8165  139.4857  155.6804 C   0  0  1  0  0  0  0  0  0  0  0  0
  146.2839  140.9395  155.7555 C   0  0  0  0  0  0  0  0  0  0  0  0
  146.8506  141.8722  154.6682 C   0  0  0  0  0  0  0  0  0  0  0  0
  148.3569  141.6533  154.4308 C   0  0  0  0  0  0  0  0  0  0  0  0
  148.7846  140.1633  154.4226 C   0  0  2  0  0  0  0  0  0  0  0  0
  148.3465  139.3680  153.1709 C   0  0  0  0  0  0  0  0  0  0  0  0
  146.8352  139.0363  153.1171 C   0  0  1  0  0  0  0  0  0  0  0  0
  146.6209  137.9294  152.1855 N   0  0  0  0  0  0  0  0  0  0  0  0
  145.4897  137.2246  152.0251 C   0  0  0  0  0  0  0  0  0  0  0  0
  144.4752  137.4631  152.6878 O   0  0  0  0  0  0  0  0  0  0  0  0
  145.6755  136.2571  151.0484 N   0  0  0  0  0  0  0  0  0  0  0  0
  145.0314  135.1333  151.1233 C   0  0  0  0  0  0  0  0  0  0  0  0
  145.0936  134.0635  150.2445 N   0  0  0  0  0  0  0  0  0  0  0  0
  144.2539  133.0863  150.7031 C   0  0  0  0  0  0  0  0  0  0  0  0
  143.6859  133.5213  151.8240 C   0  0  0  0  0  0  0  0  0  0  0  0
  144.1415  134.7730  152.1090 O   0  0  0  0  0  0  0  0  0  0  0  0
  146.2632  138.6503  154.5028 C   0  0  0  0  0  0  0  0  0  0  0  0
  148.7828  140.8860  157.1610 H   0  0  0  0  0  0  0  0  0  0  0  0
  150.0492  139.7103  156.8072 H   0  0  0  0  0  0  0  0  0  0  0  0
  148.6258  139.2195  157.7172 H   0  0  0  0  0  0  0  0  0  0  0  0
  146.5018  138.9777  156.5935 H   0  0  0  0  0  0  0  0  0  0  0  0
  145.1941  140.9435  155.7132 H   0  0  0  0  0  0  0  0  0  0  0  0
  146.5362  141.3560  156.7310 H   0  0  0  0  0  0  0  0  0  0  0  0
  146.2996  141.7501  153.7399 H   0  0  0  0  0  0  0  0  0  0  0  0
  146.6751  142.9101  154.9527 H   0  0  0  0  0  0  0  0  0  0  0  0
  148.6575  142.1360  153.5003 H   0  0  0  0  0  0  0  0  0  0  0  0
  148.9073  142.1721  155.2159 H   0  0  0  0  0  0  0  0  0  0  0  0
  149.8752  140.1390  154.4371 H   0  0  0  0  0  0  0  0  0  0  0  0
  148.6462  139.8933  152.2632 H   0  0  0  0  0  0  0  0  0  0  0  0
  148.9086  138.4324  153.1680 H   0  0  0  0  0  0  0  0  0  0  0  0
  146.3032  139.9124  152.7570 H   0  0  0  0  0  0  0  0  0  0  0  0
  147.4063  137.6721  151.6052 H   0  0  0  0  0  0  0  0  0  0  0  0
  145.6452  133.9756  149.4033 H   0  0  0  0  0  0  0  0  0  0  0  0
  144.1495  132.1569  150.1626 H   0  0  0  0  0  0  0  0  0  0  0  0
  142.9713  133.0809  152.5038 H   0  0  0  0  0  0  0  0  0  0  0  0
  146.5090  137.6058  154.7023 H   0  0  0  0  0  0  0  0  0  0  0  0
  145.1736  138.6969  154.4832 H   0  0  0  0  0  0  0  0  0  0  0  0
  148.5475  138.4868  155.4997 H   0  0  0  0  0  0  0  0  0  0  0  0
  1  2  1  0  0  0  0
  1 20  1  0  0  0  0
  1 21  1  0  0  0  0
  1 22  1  0  0  0  0
  2  7  1  0  0  0  0
  2  3  1  0  0  0  0
  2 40  1  0  0  0  0
  3 19  1  0  0  0  0
  3  4  1  0  0  0  0
  3 23  1  0  0  0  0
  4  5  1  0  0  0  0
  4 24  1  0  0  0  0
  4 25  1  0  0  0  0
  5  6  1  0  0  0  0
  5 26  1  0  0  0  0
  5 27  1  0  0  0  0
  6  7  1  0  0  0  0
  6 28  1  0  0  0  0
  6 29  1  0  0  0  0
  7  8  1  0  0  0  0
  7 30  1  0  0  0  0
  8  9  1  0  0  0  0
  8 31  1  0  0  0  0
  8 32  1  0  0  0  0
  9 10  1  0  0  0  0
  9 19  1  0  0  0  0
  9 33  1  0  0  0  0
 10 34  1  0  0  0  0
 10 11  1  0  0  0  0
 11 13  1  0  0  0  0
 11 12  2  0  0  0  0
 13 14  2  0  0  0  0
 14 18  1  0  0  0  0
 14 15  1  0  0  0  0
 15 35  1  0  0  0  0
 15 16  1  0  0  0  0
 16 36  1  0  0  0  0
 16 17  2  0  0  0  0
 17 37  1  0  0  0  0
 17 18  1  0  0  0  0
 19 38  1  0  0  0  0
 19 39  1  0  0  0  0
M  CHG  1   2   1
M  END
> <s_m_source_file>
AV-unprocessed.smi

> <i_m_source_file_index>
2226

> <i_lp_mmshare_version>
43012

> <i_f3d_flags>
0

> <s_epik_input>
W0NIMl0xW0NIMl1bQ0gyXVtDQEhdKE4oW0NIM10pW0NIXTEyKVtDSDJdW0NASF0oW0NIMl0yKVtOSF1DKD1PKVtOSF1jM25bY0hdW2NIXW8z

> <s_epik_cmdline>
J2VwaWtfcHl0aG9uJywgJy1waCcsICc3LjAnLCAnLXRuJywgJzgnLCAnLW1hJywgJzIwMCcsICctbWV0YWxfYmluZGluZycsICctaW1hZScsICc8aW5maWxlLm1hZT4nLCAnLW9tYWUnLCAnPG91dGZpbGUubWFlPic=

> <r_lp_tautomer_probability>
0.107061

> <r_epik_Ionization_Penalty>
1.08307

> <r_epik_Ionization_Penalty_Charging>
1.08272

> <r_epik_Ionization_Penalty_Neutral>
0.000345913

> <r_epik_State_Penalty>
2.5744

> <r_epik_Charging_Adjusted_Penalty>
3.65713

> <i_epik_Tot_Q>
1

> <i_epik_Tot_abs_Q>
1

> <r_epik_Metal_State_Penalty>
3.72133

> <b_epik_Metal_Only>
0

> <s_lp_Force_Field>
OPLS_2005

> <r_lp_Energy>
57.4325

> <b_lp_Chiralities_Consistent>
1

> <s_lp_Variant>
AV-unprocessed.smi:2226-12

> <Gold.Version>
5.8.1

> <Gold.Id.Protein>
6NUR|6NUR_protein|mol2

> <Gold.PLP.Fitness>
29.8618

> <Gold.PLP.PLP>
-23.2032

> <Gold.PLP.part.hbond>
-2.0000

> <Gold.PLP.part.metal>
0.0000

> <Gold.PLP.part.buried>
-1.3878

> <Gold.PLP.part.nonpolar>
-22.1172

> <Gold.PLP.part.repulsive>
0.6933

> <Gold.PLP.ligand.clash>
0.0000

> <Gold.PLP.ligand.torsion>
0.3473

> <Gold.PLP.Chemscore.Hbond>
1.4698

> <Gold.PLP.Chemscore.CHOScore>
0.9794

> <Gold.PLP.Chemscore.Metal>
0.0000

> <Gold.Chemscore.Hbonds>
donor molecule, donor type, donor heavy atom, donor atom, acceptor molecule, acceptor atom, score
      L1  H    10    34       P1  7948  0.56
      L1  H    15    35       P1  7921  0.93
      L1  C    17    37       P1 10957  0.75

> <Gold.PLP.Chemscore.Internal.Correction>
0.0056

> <Gold.Rescore>
     Score         DG    S(hbond)    S(metal)    S(lipo)     H(rot)  DE(clash)    DE(int)     intcor
      9.29     -14.23       1.40        0.00      56.86       1.00       1.83       3.11       ----

> <Gold.Chemscore.Fitness>
9.2898

> <Gold.Chemscore.DG>
-14.2347

> <Gold.Chemscore.ZeroCoef>
-5.4800

> <Gold.Chemscore.Hbond>
1.3959

> <Gold.Chemscore.Metal>
0.0000

> <Gold.Chemscore.Lipo>
56.8590

> <Gold.Chemscore.Internal_Hbond>
0.0000

> <Gold.Chemscore.DEClash>
1.8332

> <Gold.Chemscore.DEInternal>
3.1117

> <Gold.Chemscore.Rot>
1.0000

> <Gold.Chemscore.Internal.Correction>
   9.000000E+99

> <Gold.Chemscore.Hbonds>
donor molecule, donor type, donor heavy atom, donor atom, acceptor molecule, acceptor atom, score
      L1  H    10    34       P1  7948  0.54
      L1  H    15    35       P1  7921  0.47

> <Gold.Chemscore.Hbond.Weighted>
-4.6622

> <Gold.Chemscore.Metal.Weighted>
-0.0000

> <Gold.Chemscore.Lipo.Weighted>
-6.6525

> <Gold.Chemscore.Internal_Hbond.Weighted>
0.0000

> <Gold.Chemscore.DEClash.Weighted>
1.8332

> <Gold.Chemscore.DEInternal.Weighted>
3.1117

> <Gold.Chemscore.Rot.Weighted>
2.5600

> <Gold.Chemscore.Internal.Correction.Weighted>
   9.000000E+99

> <Gold.Protein.RotatedTorsions>
[ 6907 6896 6895 6894 ] final -115.55 input  -60.11 | X-H torsion
[ 7974 7965 7964 7962 ] final -121.45 input  175.53 | X-H torsion
[ 8008 7997 7996 7995 ] final  -85.31 input   59.86 | X-H torsion
[ 10167 10162 10161 10158 ] final   94.41 input  -65.29 | X-H torsion
[ 10718 10713 10712 10709 ] final -121.99 input   66.30 | X-H torsion
[ 10763 10752 10751 10750 ] final  -42.03 input  -60.55 | X-H torsion
[ 11005 11000 10999 10996 ] final -142.48 input  -57.11 | X-H torsion

> <Gold.Protein.ActiveResidues>
 VAL166  LYS551  ARG553  GLY616  TRP617  ASP618  TYR619  PRO620  LYS621  CYS622 
 ASP623  PHE694  ASN695  SER759  ASP760  ASP761  ALA762  ILE779  LEU786  VAL792 
 PHE793  MET794  SER795  GLU796  ALA797  LYS798  CYS799  TRP800  GLU811  SER814 

> <Gold.Protein.RotatedAtoms>
  150.7986  133.8643  159.3240 H   0  0  0  0  0  0  0  0  0  0  0  0  # atno 6907 bound_to 6896
  151.6461  135.1005  160.0161 H   0  0  0  0  0  0  0  0  0  0  0  0  # atno 6908 bound_to 6896
  152.4071  133.6866  159.6401 H   0  0  0  0  0  0  0  0  0  0  0  0  # atno 6909 bound_to 6896
  145.0402  140.8138  143.4271 H   0  0  0  0  0  0  0  0  0  0  0  0  # atno 7974 bound_to 7965
  154.6393  140.0593  156.9827 H   0  0  0  0  0  0  0  0  0  0  0  0  # atno 8008 bound_to 7997
  155.1541  140.3277  155.4406 H   0  0  0  0  0  0  0  0  0  0  0  0  # atno 8009 bound_to 7997
  156.2523  140.1942  156.6652 H   0  0  0  0  0  0  0  0  0  0  0  0  # atno 8010 bound_to 7997
  139.8086  144.6783  150.9669 H   0  0  0  0  0  0  0  0  0  0  0  0  # atno 10167 bound_to 10162
  156.1382  130.6446  150.9729 H   0  0  0  0  0  0  0  0  0  0  0  0  # atno 10718 bound_to 10713
  153.9722  135.6727  153.4747 H   0  0  0  0  0  0  0  0  0  0  0  0  # atno 10763 bound_to 10752
  153.0787  135.4935  154.8455 H   0  0  0  0  0  0  0  0  0  0  0  0  # atno 10764 bound_to 10752
  154.7212  135.3117  154.9005 H   0  0  0  0  0  0  0  0  0  0  0  0  # atno 10765 bound_to 10752
  140.8221  134.2619  157.4895 H   0  0  0  0  0  0  0  0  0  0  0  0  # atno 11005 bound_to 11000
  145.1657  139.2433  143.5368 LP  0  0  0  0  0  0  0  0  0  0  0  0  # atno 17320 bound_to 7965
  146.3508  140.1395  142.8595 LP  0  0  0  0  0  0  0  0  0  0  0  0  # atno 17321 bound_to 7965
  140.7818  143.4208  151.0845 LP  0  0  0  0  0  0  0  0  0  0  0  0  # atno 17342 bound_to 10162
  139.7875  143.8266  152.3147 LP  0  0  0  0  0  0  0  0  0  0  0  0  # atno 17343 bound_to 10162
  157.6551  131.0890  150.7964 LP  0  0  0  0  0  0  0  0  0  0  0  0  # atno 17370 bound_to 10713
  156.8042  130.4931  149.5365 LP  0  0  0  0  0  0  0  0  0  0  0  0  # atno 17371 bound_to 10713
  139.8708  134.9541  156.4165 LP  0  0  0  0  0  0  0  0  0  0  0  0  # atno 17394 bound_to 11000
  140.9088  133.7727  155.9767 LP  0  0  0  0  0  0  0  0  0  0  0  0  # atno 17395 bound_to 11000

$$$$
