AV-unprocessed.smi:1604|AV-procd|sdf|6449|dock2
  -GOLD-   22720 7103D 1   1.00000     0.00000
 Structure written by MMmdl.
 47 49  0  0  0  0  0  0  0  0  2 V2000
  145.0226  136.7717  153.7521 O   0  0  0  0  0  0  0  0  0  0  0  0
  146.1777  136.5901  153.3669 C   0  0  0  0  0  0  0  0  0  0  0  0
  147.1948  137.4457  153.5560 N   0  0  0  0  0  0  0  0  0  0  0  0
  147.1260  138.7464  154.1255 C   0  0  0  0  0  0  0  0  0  0  0  0
  145.8738  139.3707  154.3550 C   0  0  0  0  0  0  0  0  0  0  0  0
  145.8218  140.6269  154.9876 C   0  0  0  0  0  0  0  0  0  0  0  0
  147.0227  141.2328  155.3951 C   0  0  0  0  0  0  0  0  0  0  0  0
  148.1974  140.6081  155.1713 N   0  3  0  0  0  0  0  0  0  0  0  0
  148.3145  139.4057  154.5535 C   0  0  0  0  0  0  0  0  0  0  0  0
  149.6139  138.8790  154.3713 N   0  0  0  0  0  0  0  0  0  0  0  0
  149.9257  137.5197  154.7972 C   0  0  0  0  0  0  0  0  0  0  0  0
  151.4495  137.4369  154.7716 C   0  0  0  0  0  0  0  0  0  0  0  0
  151.8608  138.8408  155.2046 C   0  0  0  0  0  0  0  0  0  0  0  0
  150.7689  139.7391  154.6137 C   0  0  0  0  0  0  0  0  0  0  0  0
  146.5723  135.5125  152.6725 N   0  0  0  0  0  0  0  0  0  0  0  0
  145.6948  134.4369  152.2054 C   0  0  2  0  0  0  0  0  0  0  0  0
  146.5680  133.4265  151.4266 C   0  0  0  0  0  0  0  0  0  0  0  0
  145.9516  132.0202  151.3283 C   0  0  0  0  0  0  0  0  0  0  0  0
  144.6481  131.9375  150.5194 C   0  0  0  0  0  0  0  0  0  0  0  0
  143.4945  132.7599  151.1187 C   0  0  0  0  0  0  0  0  0  0  0  0
  143.6303  134.1827  150.8356 N   0  0  0  0  0  0  0  0  0  0  0  0
  144.6051  134.9996  151.2626 C   0  0  0  0  0  0  0  0  0  0  0  0
  144.6319  136.1775  150.9037 O   0  0  0  0  0  0  0  0  0  0  0  0
  148.0667  137.2087  153.1056 H   0  0  0  0  0  0  0  0  0  0  0  0
  144.9489  138.8905  154.0712 H   0  0  0  0  0  0  0  0  0  0  0  0
  144.8733  141.1115  155.1679 H   0  0  0  0  0  0  0  0  0  0  0  0
  147.0799  142.1902  155.8926 H   0  0  0  0  0  0  0  0  0  0  0  0
  149.5676  137.3483  155.8130 H   0  0  0  0  0  0  0  0  0  0  0  0
  149.4688  136.7793  154.1400 H   0  0  0  0  0  0  0  0  0  0  0  0
  151.8441  136.6556  155.4214 H   0  0  0  0  0  0  0  0  0  0  0  0
  151.7975  137.2434  153.7558 H   0  0  0  0  0  0  0  0  0  0  0  0
  151.8413  138.9070  156.2933 H   0  0  0  0  0  0  0  0  0  0  0  0
  152.8620  139.1146  154.8699 H   0  0  0  0  0  0  0  0  0  0  0  0
  151.1039  140.1538  153.6625 H   0  0  0  0  0  0  0  0  0  0  0  0
  150.5331  140.5679  155.2828 H   0  0  0  0  0  0  0  0  0  0  0  0
  147.5413  135.4527  152.3967 H   0  0  0  0  0  0  0  0  0  0  0  0
  145.2334  133.9511  153.0672 H   0  0  0  0  0  0  0  0  0  0  0  0
  146.8092  133.8029  150.4307 H   0  0  0  0  0  0  0  0  0  0  0  0
  147.5269  133.3183  151.9361 H   0  0  0  0  0  0  0  0  0  0  0  0
  146.6836  131.3528  150.8725 H   0  0  0  0  0  0  0  0  0  0  0  0
  145.7802  131.6295  152.3321 H   0  0  0  0  0  0  0  0  0  0  0  0
  144.8258  132.2354  149.4852 H   0  0  0  0  0  0  0  0  0  0  0  0
  144.3409  130.8917  150.4795 H   0  0  0  0  0  0  0  0  0  0  0  0
  142.5536  132.4334  150.6754 H   0  0  0  0  0  0  0  0  0  0  0  0
  143.4028  132.5897  152.1923 H   0  0  0  0  0  0  0  0  0  0  0  0
  142.9288  134.5840  150.2301 H   0  0  0  0  0  0  0  0  0  0  0  0
  149.0512  141.0744  155.4782 H   0  0  0  0  0  0  0  0  0  0  0  0
  1  2  2  0  0  0  0
  2  3  1  0  0  0  0
  2 15  1  0  0  0  0
  3  4  1  0  0  0  0
  3 24  1  0  0  0  0
  4  9  1  0  0  0  0
  4  5  2  0  0  0  0
  5  6  1  0  0  0  0
  5 25  1  0  0  0  0
  6  7  2  0  0  0  0
  6 26  1  0  0  0  0
  7  8  1  0  0  0  0
  7 27  1  0  0  0  0
  8  9  2  0  0  0  0
  8 47  1  0  0  0  0
  9 10  1  0  0  0  0
 10 14  1  0  0  0  0
 10 11  1  0  0  0  0
 11 12  1  0  0  0  0
 11 28  1  0  0  0  0
 11 29  1  0  0  0  0
 12 13  1  0  0  0  0
 12 30  1  0  0  0  0
 12 31  1  0  0  0  0
 13 14  1  0  0  0  0
 13 32  1  0  0  0  0
 13 33  1  0  0  0  0
 14 34  1  0  0  0  0
 14 35  1  0  0  0  0
 15 16  1  0  0  0  0
 15 36  1  0  0  0  0
 16 22  1  0  0  0  0
 16 17  1  0  0  0  0
 16 37  1  0  0  0  0
 17 18  1  0  0  0  0
 17 38  1  0  0  0  0
 17 39  1  0  0  0  0
 18 19  1  0  0  0  0
 18 40  1  0  0  0  0
 18 41  1  0  0  0  0
 19 20  1  0  0  0  0
 19 42  1  0  0  0  0
 19 43  1  0  0  0  0
 20 21  1  0  0  0  0
 20 44  1  0  0  0  0
 20 45  1  0  0  0  0
 21 22  1  0  0  0  0
 21 46  1  0  0  0  0
 22 23  2  0  0  0  0
M  CHG  1   8   1
M  END
> <s_m_source_file>
AV-unprocessed.smi

> <i_m_source_file_index>
1604

> <i_lp_mmshare_version>
43012

> <i_f3d_flags>
0

> <s_epik_input>
Tz1DMVtOSF1bQ0gyXVtDSDJdW0NIMl1bQ0gyXVtDQEhdMVtOSF1DKD1PKVtOSF1jMltjSF1bY0hdW2NIXW5jMk4zW0NIMl1bQ0gyXVtDSDJdW0NIMl0z

> <s_epik_cmdline>
J2VwaWtfcHl0aG9uJywgJy1waCcsICc3LjAnLCAnLXRuJywgJzgnLCAnLW1hJywgJzIwMCcsICctbWV0YWxfYmluZGluZycsICctaW1hZScsICc8aW5maWxlLm1hZT4nLCAnLW9tYWUnLCAnPG91dGZpbGUubWFlPic=

> <r_lp_tautomer_probability>
0.999994

> <r_epik_Ionization_Penalty>
1.20452

> <r_epik_Ionization_Penalty_Charging>
1.2045

> <r_epik_Ionization_Penalty_Neutral>
1.88134e-05

> <r_epik_State_Penalty>
1.2704

> <r_epik_Charging_Adjusted_Penalty>
2.4749

> <i_epik_Tot_Q>
1

> <i_epik_Tot_abs_Q>
1

> <r_epik_Metal_State_Penalty>
1.34433

> <b_epik_Metal_Only>
0

> <s_lp_Force_Field>
OPLS_2005

> <r_lp_Energy>
45.117

> <b_lp_Chiralities_Consistent>
1

> <s_lp_Variant>
AV-unprocessed.smi:1604-3

> <Gold.Version>
5.8.1

> <Gold.Id.Protein>
6NUR|6NUR_protein|mol2

> <Gold.PLP.Fitness>
38.2575

> <Gold.PLP.PLP>
-29.3656

> <Gold.PLP.part.hbond>
-3.0000

> <Gold.PLP.part.metal>
0.0000

> <Gold.PLP.part.buried>
-1.8960

> <Gold.PLP.part.nonpolar>
-27.4212

> <Gold.PLP.part.repulsive>
2.5385

> <Gold.PLP.ligand.clash>
0.0000

> <Gold.PLP.ligand.torsion>
0.2306

> <Gold.PLP.Chemscore.Hbond>
2.9913

> <Gold.PLP.Chemscore.CHOScore>
0.0000

> <Gold.PLP.Chemscore.Metal>
0.0000

> <Gold.Chemscore.Hbonds>
donor molecule, donor type, donor heavy atom, donor atom, acceptor molecule, acceptor atom, score
      L1  H     3    24       P1  7948  0.99
      L1  H    15    36       P1  7948  1.00
      L1  H    21    46       P1 10186  0.90

> <Gold.PLP.Chemscore.Internal.Correction>
0.3793

> <Gold.Rescore>
     Score         DG    S(hbond)    S(metal)    S(lipo)     H(rot)  DE(clash)    DE(int)     intcor
     14.44     -20.18       2.60        0.00      78.90       1.26       3.22       2.52       ----

> <Gold.Chemscore.Fitness>
14.4353

> <Gold.Chemscore.DG>
-20.1766

> <Gold.Chemscore.ZeroCoef>
-5.4800

> <Gold.Chemscore.Hbond>
2.5996

> <Gold.Chemscore.Metal>
0.0000

> <Gold.Chemscore.Lipo>
78.8956

> <Gold.Chemscore.Internal_Hbond>
0.0000

> <Gold.Chemscore.DEClash>
3.2213

> <Gold.Chemscore.DEInternal>
2.5200

> <Gold.Chemscore.Rot>
1.2566

> <Gold.Chemscore.Internal.Correction>
   9.000000E+99

> <Gold.Chemscore.Hbonds>
donor molecule, donor type, donor heavy atom, donor atom, acceptor molecule, acceptor atom, score
      L1  H     3    24       P1  7948  0.93
      L1  H    15    36       P1  7948  0.94
      L1  H    21    46       P1 10186  0.54

> <Gold.Chemscore.Hbond.Weighted>
-8.6827

> <Gold.Chemscore.Metal.Weighted>
-0.0000

> <Gold.Chemscore.Lipo.Weighted>
-9.2308

> <Gold.Chemscore.Internal_Hbond.Weighted>
0.0000

> <Gold.Chemscore.DEClash.Weighted>
3.2213

> <Gold.Chemscore.DEInternal.Weighted>
2.5200

> <Gold.Chemscore.Rot.Weighted>
3.2168

> <Gold.Chemscore.Internal.Correction.Weighted>
   9.000000E+99

> <Gold.Protein.RotatedTorsions>
[ 6907 6896 6895 6894 ] final  120.63 input  -60.11 | X-H torsion
[ 7974 7965 7964 7962 ] final   44.58 input  175.53 | X-H torsion
[ 8008 7997 7996 7995 ] final  152.92 input   59.86 | X-H torsion
[ 10167 10162 10161 10158 ] final   15.41 input  -65.29 | X-H torsion
[ 10718 10713 10712 10709 ] final  120.76 input   66.30 | X-H torsion
[ 10763 10752 10751 10750 ] final -141.58 input  -60.55 | X-H torsion
[ 11005 11000 10999 10996 ] final   52.23 input  -57.11 | X-H torsion

> <Gold.Protein.ActiveResidues>
 VAL166  LYS551  ARG553  GLY616  TRP617  ASP618  TYR619  PRO620  LYS621  CYS622 
 ASP623  PHE694  ASN695  SER759  ASP760  ASP761  ALA762  ILE779  LEU786  VAL792 
 PHE793  MET794  SER795  GLU796  ALA797  LYS798  CYS799  TRP800  GLU811  SER814 

> <Gold.Protein.RotatedAtoms>
  152.4383  133.7401  159.6636 H   0  0  0  0  0  0  0  0  0  0  0  0  # atno 6907 bound_to 6896
  150.8270  133.8144  159.3120 H   0  0  0  0  0  0  0  0  0  0  0  0  # atno 6908 bound_to 6896
  151.5810  135.1061  160.0069 H   0  0  0  0  0  0  0  0  0  0  0  0  # atno 6909 bound_to 6896
  146.0556  139.5058  142.9691 H   0  0  0  0  0  0  0  0  0  0  0  0  # atno 7974 bound_to 7965
  156.2606  140.2008  156.6408 H   0  0  0  0  0  0  0  0  0  0  0  0  # atno 8008 bound_to 7997
  154.6610  140.0561  157.0087 H   0  0  0  0  0  0  0  0  0  0  0  0  # atno 8009 bound_to 7997
  155.1275  140.3230  155.4485 H   0  0  0  0  0  0  0  0  0  0  0  0  # atno 8010 bound_to 7997
  140.5869  143.8872  150.6838 H   0  0  0  0  0  0  0  0  0  0  0  0  # atno 10167 bound_to 10162
  157.5867  131.1069  150.8080 H   0  0  0  0  0  0  0  0  0  0  0  0  # atno 10718 bound_to 10713
  154.8540  135.3520  154.5890 H   0  0  0  0  0  0  0  0  0  0  0  0  # atno 10763 bound_to 10752
  153.6500  135.6994  153.5217 H   0  0  0  0  0  0  0  0  0  0  0  0  # atno 10764 bound_to 10752
  153.2901  135.4237  155.1117 H   0  0  0  0  0  0  0  0  0  0  0  0  # atno 10765 bound_to 10752
  140.0866  134.5266  155.8893 H   0  0  0  0  0  0  0  0  0  0  0  0  # atno 11005 bound_to 11000
  145.6650  141.0231  143.1688 LP  0  0  0  0  0  0  0  0  0  0  0  0  # atno 17320 bound_to 7965
  144.7146  139.8244  143.7403 LP  0  0  0  0  0  0  0  0  0  0  0  0  # atno 17321 bound_to 7965
  140.2385  143.3681  152.1506 LP  0  0  0  0  0  0  0  0  0  0  0  0  # atno 17342 bound_to 10162
  139.5203  144.7031  151.5435 LP  0  0  0  0  0  0  0  0  0  0  0  0  # atno 17343 bound_to 10162
  156.8512  130.5081  149.5311 LP  0  0  0  0  0  0  0  0  0  0  0  0  # atno 17370 bound_to 10713
  156.0917  130.5901  150.9744 LP  0  0  0  0  0  0  0  0  0  0  0  0  # atno 17371 bound_to 10713
  141.2064  133.6655  156.6243 LP  0  0  0  0  0  0  0  0  0  0  0  0  # atno 17394 bound_to 11000
  140.3411  134.7848  157.4398 LP  0  0  0  0  0  0  0  0  0  0  0  0  # atno 17395 bound_to 11000

$$$$
