AV-unprocessed.smi:1823|AV-procd|sdf|7392|dock3
  -GOLD-   22720 9 63D 1   1.00000     0.00000
 Structure written by MMmdl.
 43 44  0  0  0  0  0  0  0  0  1 V2000
  146.5491  135.5506  162.4765 C   0  0  0  0  0  0  0  0  0  0  0  0
  147.5058  135.7248  161.3474 C   0  0  0  0  0  0  0  0  0  0  0  0
  147.7576  134.7307  160.5047 N   0  0  0  0  0  0  0  0  0  0  0  0
  148.6751  135.2937  159.6063 O   0  0  0  0  0  0  0  0  0  0  0  0
  148.8750  136.5655  160.0298 C   0  0  0  0  0  0  0  0  0  0  0  0
  149.7640  137.4624  159.2292 C   0  0  0  0  0  0  0  0  0  0  0  0
  150.1597  136.8930  157.8523 C   0  0  0  0  0  0  0  0  0  0  0  0
  150.4172  137.9380  156.8634 N   0  0  0  0  0  0  0  0  0  0  0  0
  151.3296  137.8689  155.8808 C   0  0  0  0  0  0  0  0  0  0  0  0
  152.0373  136.8802  155.6838 O   0  0  0  0  0  0  0  0  0  0  0  0
  151.4818  139.1152  154.9949 C   0  0  1  0  0  0  0  0  0  0  0  0
  150.1509  139.4663  154.3010 C   0  0  0  0  0  0  0  0  0  0  0  0
  149.6884  140.7242  155.0175 C   0  0  0  0  0  0  0  0  0  0  0  0
  148.5897  141.2395  154.8175 O   0  0  0  0  0  0  0  0  0  0  0  0
  150.6182  141.1522  155.8798 N   0  0  0  0  0  0  0  0  0  0  0  0
  150.5314  142.3207  156.7540 C   0  0  0  0  0  0  0  0  0  0  0  0
  151.7846  142.5013  157.6402 C   0  0  0  0  0  0  0  0  0  0  0  0
  151.7788  141.6111  158.8955 C   0  0  0  0  0  0  0  0  0  0  0  0
  151.9599  143.9772  158.0287 C   0  0  0  0  0  0  0  0  0  0  0  0
  151.8447  140.3755  155.8078 C   0  0  0  0  0  0  0  0  0  0  0  0
  148.1677  136.8906  161.1090 N   0  0  0  0  0  0  0  0  0  0  0  0
  146.8920  134.7590  163.1432 H   0  0  0  0  0  0  0  0  0  0  0  0
  145.5625  135.2834  162.0974 H   0  0  0  0  0  0  0  0  0  0  0  0
  146.4588  136.4719  163.0527 H   0  0  0  0  0  0  0  0  0  0  0  0
  149.2605  138.4206  159.0983 H   0  0  0  0  0  0  0  0  0  0  0  0
  150.6619  137.6663  159.8137 H   0  0  0  0  0  0  0  0  0  0  0  0
  151.0293  136.2420  157.9561 H   0  0  0  0  0  0  0  0  0  0  0  0
  149.3549  136.2616  157.4760 H   0  0  0  0  0  0  0  0  0  0  0  0
  149.8796  138.7885  156.9498 H   0  0  0  0  0  0  0  0  0  0  0  0
  152.2548  138.9278  154.2476 H   0  0  0  0  0  0  0  0  0  0  0  0
  150.3041  139.6857  153.2442 H   0  0  0  0  0  0  0  0  0  0  0  0
  149.3954  138.6824  154.3767 H   0  0  0  0  0  0  0  0  0  0  0  0
  150.3910  143.2050  156.1307 H   0  0  0  0  0  0  0  0  0  0  0  0
  149.6389  142.2520  157.3785 H   0  0  0  0  0  0  0  0  0  0  0  0
  152.6556  142.2201  157.0466 H   0  0  0  0  0  0  0  0  0  0  0  0
  150.8915  141.7895  159.5038 H   0  0  0  0  0  0  0  0  0  0  0  0
  152.6530  141.8052  159.5174 H   0  0  0  0  0  0  0  0  0  0  0  0
  151.8017  140.5524  158.6375 H   0  0  0  0  0  0  0  0  0  0  0  0
  151.1262  144.3281  158.6380 H   0  0  0  0  0  0  0  0  0  0  0  0
  152.0178  144.6130  157.1448 H   0  0  0  0  0  0  0  0  0  0  0  0
  152.8765  144.1277  158.6002 H   0  0  0  0  0  0  0  0  0  0  0  0
  152.2209  140.1475  156.8067 H   0  0  0  0  0  0  0  0  0  0  0  0
  152.6101  140.9589  155.2940 H   0  0  0  0  0  0  0  0  0  0  0  0
  1  2  1  0  0  0  0
  1 22  1  0  0  0  0
  1 23  1  0  0  0  0
  1 24  1  0  0  0  0
  2 21  1  0  0  0  0
  2  3  2  0  0  0  0
  3  4  1  0  0  0  0
  4  5  1  0  0  0  0
  5  6  1  0  0  0  0
  5 21  2  0  0  0  0
  6  7  1  0  0  0  0
  6 25  1  0  0  0  0
  6 26  1  0  0  0  0
  7  8  1  0  0  0  0
  7 27  1  0  0  0  0
  7 28  1  0  0  0  0
  8  9  1  0  0  0  0
  8 29  1  0  0  0  0
  9 10  2  0  0  0  0
  9 11  1  0  0  0  0
 11 20  1  0  0  0  0
 11 12  1  0  0  0  0
 11 30  1  0  0  0  0
 12 13  1  0  0  0  0
 12 31  1  0  0  0  0
 12 32  1  0  0  0  0
 13 14  2  0  0  0  0
 13 15  1  0  0  0  0
 15 16  1  0  0  0  0
 15 20  1  0  0  0  0
 16 17  1  0  0  0  0
 16 33  1  0  0  0  0
 16 34  1  0  0  0  0
 17 18  1  0  0  0  0
 17 19  1  0  0  0  0
 17 35  1  0  0  0  0
 18 36  1  0  0  0  0
 18 37  1  0  0  0  0
 18 38  1  0  0  0  0
 19 39  1  0  0  0  0
 19 40  1  0  0  0  0
 19 41  1  0  0  0  0
 20 42  1  0  0  0  0
 20 43  1  0  0  0  0
M  END
> <s_m_source_file>
AV-unprocessed.smi

> <i_m_source_file_index>
1823

> <i_lp_mmshare_version>
43012

> <i_f3d_flags>
0

> <s_epik_input>
W0NIM11jMW5vYyhuMSlbQ0gyXVtDSDJdW05IXUMoPU8pW0NAQEhdMltDSDJdQyg9TylOKFtDSDJdMilbQ0gyXVtDSF0oW0NIM10pW0NIM10=

> <s_epik_cmdline>
J2VwaWtfcHl0aG9uJywgJy1waCcsICc3LjAnLCAnLXRuJywgJzgnLCAnLW1hJywgJzIwMCcsICctbWV0YWxfYmluZGluZycsICctaW1hZScsICc8aW5maWxlLm1hZT4nLCAnLW9tYWUnLCAnPG91dGZpbGUubWFlPic=

> <r_lp_tautomer_probability>
1

> <r_epik_Ionization_Penalty>
3.64678e-08

> <r_epik_Ionization_Penalty_Charging>
0

> <r_epik_Ionization_Penalty_Neutral>
3.64678e-08

> <r_epik_State_Penalty>
-0

> <r_epik_Charging_Adjusted_Penalty>
0

> <i_epik_Tot_Q>
0

> <i_epik_Tot_abs_Q>
0

> <r_epik_Metal_State_Penalty>
-0

> <b_epik_Metal_Only>
0

> <s_lp_Force_Field>
OPLS_2005

> <r_lp_Energy>
11.154

> <b_lp_Chiralities_Consistent>
1

> <s_lp_Variant>
AV-unprocessed.smi:1823-2

> <Gold.Version>
5.8.1

> <Gold.Id.Protein>
6NUR|6NUR_protein|mol2

> <Gold.PLP.Fitness>
46.0051

> <Gold.PLP.PLP>
-38.1519

> <Gold.PLP.part.hbond>
-3.5606

> <Gold.PLP.part.metal>
0.0000

> <Gold.PLP.part.buried>
-2.4549

> <Gold.PLP.part.nonpolar>
-32.1395

> <Gold.PLP.part.repulsive>
0.1504

> <Gold.PLP.ligand.clash>
0.0000

> <Gold.PLP.ligand.torsion>
0.7718

> <Gold.PLP.Chemscore.Hbond>
3.0894

> <Gold.PLP.Chemscore.CHOScore>
0.0000

> <Gold.PLP.Chemscore.Metal>
0.0000

> <Gold.Chemscore.Hbonds>
donor molecule, donor type, donor heavy atom, donor atom, acceptor molecule, acceptor atom, score
      P1  H  6896  6907       L1     4  0.80
      P1  H  6931  6943       L1    21  1.00
      P1  H  6934  6947       L1    21  0.15
      P1  H 10752 10764       L1    10  1.00

> <Gold.PLP.Chemscore.Internal.Correction>
0.1286

> <Gold.Rescore>
     Score         DG    S(hbond)    S(metal)    S(lipo)     H(rot)  DE(clash)    DE(int)     intcor
     14.98     -16.02       2.19        0.00      79.94       2.40       0.32       0.71       ----

> <Gold.Chemscore.Fitness>
14.9808

> <Gold.Chemscore.DG>
-16.0184

> <Gold.Chemscore.ZeroCoef>
-5.4800

> <Gold.Chemscore.Hbond>
2.1911

> <Gold.Chemscore.Metal>
0.0000

> <Gold.Chemscore.Lipo>
79.9392

> <Gold.Chemscore.Internal_Hbond>
0.0000

> <Gold.Chemscore.DEClash>
0.3235

> <Gold.Chemscore.DEInternal>
0.7142

> <Gold.Chemscore.Rot>
2.3957

> <Gold.Chemscore.Internal.Correction>
   9.000000E+99

> <Gold.Chemscore.Hbonds>
donor molecule, donor type, donor heavy atom, donor atom, acceptor molecule, acceptor atom, score
      P1  H  6896  6907       L1     4  0.19
      P1  H  6931  6943       L1    21  0.55
      P1  H  6934  6947       L1    21  0.12
      P1  H 10752 10764       L1    10  0.96

> <Gold.Chemscore.Hbond.Weighted>
-7.3184

> <Gold.Chemscore.Metal.Weighted>
-0.0000

> <Gold.Chemscore.Lipo.Weighted>
-9.3529

> <Gold.Chemscore.Internal_Hbond.Weighted>
0.0000

> <Gold.Chemscore.DEClash.Weighted>
0.3235

> <Gold.Chemscore.DEInternal.Weighted>
0.7142

> <Gold.Chemscore.Rot.Weighted>
6.1329

> <Gold.Chemscore.Internal.Correction.Weighted>
   9.000000E+99

> <Gold.Protein.RotatedTorsions>
[ 6907 6896 6895 6894 ] final  -69.58 input  -60.11 | X-H torsion
[ 7974 7965 7964 7962 ] final -162.69 input  175.53 | X-H torsion
[ 8008 7997 7996 7995 ] final -106.38 input   59.86 | X-H torsion
[ 10167 10162 10161 10158 ] final  -50.58 input  -65.29 | X-H torsion
[ 10718 10713 10712 10709 ] final  136.35 input   66.30 | X-H torsion
[ 10763 10752 10751 10750 ] final  -43.07 input  -60.55 | X-H torsion
[ 11005 11000 10999 10996 ] final  -71.09 input  -57.11 | X-H torsion

> <Gold.Protein.ActiveResidues>
 VAL166  LYS551  ARG553  GLY616  TRP617  ASP618  TYR619  PRO620  LYS621  CYS622 
 ASP623  PHE694  ASN695  SER759  ASP760  ASP761  ALA762  ILE779  LEU786  VAL792 
 PHE793  MET794  SER795  GLU796  ALA797  LYS798  CYS799  TRP800  GLU811  SER814 

> <Gold.Protein.RotatedAtoms>
  150.7298  134.5576  159.5825 H   0  0  0  0  0  0  0  0  0  0  0  0  # atno 6907 bound_to 6896
  152.3047  134.7566  160.0359 H   0  0  0  0  0  0  0  0  0  0  0  0  # atno 6908 bound_to 6896
  151.8134  133.3349  159.3599 H   0  0  0  0  0  0  0  0  0  0  0  0  # atno 6909 bound_to 6896
  144.7349  140.3216  143.6169 H   0  0  0  0  0  0  0  0  0  0  0  0  # atno 7974 bound_to 7965
  154.9137  140.0409  157.1960 H   0  0  0  0  0  0  0  0  0  0  0  0  # atno 8008 bound_to 7997
  154.8322  140.2901  155.5693 H   0  0  0  0  0  0  0  0  0  0  0  0  # atno 8009 bound_to 7997
  156.2987  140.2498  156.3250 H   0  0  0  0  0  0  0  0  0  0  0  0  # atno 8010 bound_to 7997
  140.6630  143.2652  151.4380 H   0  0  0  0  0  0  0  0  0  0  0  0  # atno 10167 bound_to 10162
  157.4476  131.1063  151.0071 H   0  0  0  0  0  0  0  0  0  0  0  0  # atno 10718 bound_to 10713
  153.9894  135.6707  153.4753 H   0  0  0  0  0  0  0  0  0  0  0  0  # atno 10763 bound_to 10752
  153.0712  135.4973  154.8304 H   0  0  0  0  0  0  0  0  0  0  0  0  # atno 10764 bound_to 10752
  154.7118  135.3099  154.9148 H   0  0  0  0  0  0  0  0  0  0  0  0  # atno 10765 bound_to 10752
  141.1586  133.6808  156.6853 H   0  0  0  0  0  0  0  0  0  0  0  0  # atno 11005 bound_to 11000
  145.7562  139.1810  143.2293 LP  0  0  0  0  0  0  0  0  0  0  0  0  # atno 17320 bound_to 7965
  146.1022  140.7530  142.9544 LP  0  0  0  0  0  0  0  0  0  0  0  0  # atno 17321 bound_to 7965
  139.5870  144.1583  152.2041 LP  0  0  0  0  0  0  0  0  0  0  0  0  # atno 17342 bound_to 10162
  140.0925  144.5608  150.7044 LP  0  0  0  0  0  0  0  0  0  0  0  0  # atno 17343 bound_to 10162
  157.0912  130.5943  149.5440 LP  0  0  0  0  0  0  0  0  0  0  0  0  # atno 17370 bound_to 10713
  155.9974  130.5045  150.7531 LP  0  0  0  0  0  0  0  0  0  0  0  0  # atno 17371 bound_to 10713
  140.3071  134.8116  157.4146 LP  0  0  0  0  0  0  0  0  0  0  0  0  # atno 17394 bound_to 11000
  140.1211  134.5219  155.8183 LP  0  0  0  0  0  0  0  0  0  0  0  0  # atno 17395 bound_to 11000

$$$$
