AV-unprocessed.smi:1817|AV-procd|sdf|7374|dock7
  -GOLD-   22720 9 43D 1   1.00000     0.00000
 Structure written by MMmdl.
 42 43  0  0  0  0  0  0  0  0  3 V2000
  146.7885  138.9604  151.6694 C   0  0  0  0  0  0  0  0  0  0  0  0
  146.9225  140.0733  152.7187 C   0  0  0  0  0  0  0  0  0  0  0  0
  148.2433  140.0627  153.3946 N   0  3  0  0  0  0  0  0  0  0  0  0
  148.5319  138.7629  154.0480 C   0  0  0  0  0  0  0  0  0  0  0  0
  149.9328  138.7858  154.6927 C   0  0  0  0  0  0  0  0  0  0  0  0
  150.0409  139.8352  155.7159 N   0  0  0  0  0  0  0  0  0  0  0  0
  149.2120  139.6451  156.9281 C   0  0  2  0  0  0  0  0  0  0  0  0
  149.5785  140.7047  157.9950 C   0  0  0  0  0  0  0  0  0  0  0  0
  149.3641  138.2155  157.5084 C   0  0  0  0  0  0  0  0  0  0  0  0
  148.5852  138.0411  158.7289 N   0  0  0  0  0  0  0  0  0  0  0  0
  148.6033  136.9530  159.5094 C   0  0  0  0  0  0  0  0  0  0  0  0
  149.3300  136.0004  159.2177 O   0  0  0  0  0  0  0  0  0  0  0  0
  147.7775  137.0362  160.5766 N   0  5  0  0  0  0  0  0  0  0  0  0
  147.5320  135.9462  161.3222 C   0  0  0  0  0  0  0  0  0  0  0  0
  147.3823  136.0080  162.6551 N   0  0  0  0  0  0  0  0  0  0  0  0
  147.1403  134.7701  163.2355 N   0  0  0  0  0  0  0  0  0  0  0  0
  147.1213  133.8004  162.3215 C   0  0  0  0  0  0  0  0  0  0  0  0
  147.4014  134.3100  160.6699 S   0  0  0  0  0  0  0  0  0  0  0  0
  149.8259  141.1088  155.0131 C   0  0  0  0  0  0  0  0  0  0  0  0
  148.4302  141.1808  154.3547 C   0  0  0  0  0  0  0  0  0  0  0  0
  145.7784  138.9412  151.2592 H   0  0  0  0  0  0  0  0  0  0  0  0
  146.9847  137.9809  152.1068 H   0  0  0  0  0  0  0  0  0  0  0  0
  147.4732  139.1009  150.8334 H   0  0  0  0  0  0  0  0  0  0  0  0
  146.7390  141.0506  152.2698 H   0  0  0  0  0  0  0  0  0  0  0  0
  146.1408  139.9248  153.4649 H   0  0  0  0  0  0  0  0  0  0  0  0
  147.7610  138.5276  154.7831 H   0  0  0  0  0  0  0  0  0  0  0  0
  148.4985  137.9705  153.2995 H   0  0  0  0  0  0  0  0  0  0  0  0
  150.1942  137.8082  155.0931 H   0  0  0  0  0  0  0  0  0  0  0  0
  150.6799  138.9743  153.9202 H   0  0  0  0  0  0  0  0  0  0  0  0
  148.1609  139.7774  156.6755 H   0  0  0  0  0  0  0  0  0  0  0  0
  149.0512  140.5382  158.9338 H   0  0  0  0  0  0  0  0  0  0  0  0
  149.3072  141.7137  157.6884 H   0  0  0  0  0  0  0  0  0  0  0  0
  150.6464  140.6917  158.2157 H   0  0  0  0  0  0  0  0  0  0  0  0
  148.9995  137.4657  156.8071 H   0  0  0  0  0  0  0  0  0  0  0  0
  150.4129  137.9937  157.7118 H   0  0  0  0  0  0  0  0  0  0  0  0
  147.9811  138.8018  159.0032 H   0  0  0  0  0  0  0  0  0  0  0  0
  146.9455  132.7785  162.6220 H   0  0  0  0  0  0  0  0  0  0  0  0
  149.9812  141.9597  155.6736 H   0  0  0  0  0  0  0  0  0  0  0  0
  150.5905  141.2119  154.2417 H   0  0  0  0  0  0  0  0  0  0  0  0
  148.3455  142.1318  153.8299 H   0  0  0  0  0  0  0  0  0  0  0  0
  147.6389  141.1729  155.1050 H   0  0  0  0  0  0  0  0  0  0  0  0
  148.9426  140.1739  152.6746 H   0  0  0  0  0  0  0  0  0  0  0  0
  1  2  1  0  0  0  0
  1 21  1  0  0  0  0
  1 22  1  0  0  0  0
  1 23  1  0  0  0  0
  2  3  1  0  0  0  0
  2 24  1  0  0  0  0
  2 25  1  0  0  0  0
  3 20  1  0  0  0  0
  3  4  1  0  0  0  0
  3 42  1  0  0  0  0
  4  5  1  0  0  0  0
  4 26  1  0  0  0  0
  4 27  1  0  0  0  0
  5  6  1  0  0  0  0
  5 28  1  0  0  0  0
  5 29  1  0  0  0  0
  6  7  1  0  0  0  0
  6 19  1  0  0  0  0
  7  8  1  0  0  0  0
  7  9  1  0  0  0  0
  7 30  1  0  0  0  0
  8 31  1  0  0  0  0
  8 32  1  0  0  0  0
  8 33  1  0  0  0  0
  9 10  1  0  0  0  0
  9 34  1  0  0  0  0
  9 35  1  0  0  0  0
 10 11  1  0  0  0  0
 10 36  1  0  0  0  0
 11 12  2  0  0  0  0
 11 13  1  0  0  0  0
 13 14  1  0  0  0  0
 14 18  1  0  0  0  0
 14 15  2  0  0  0  0
 15 16  1  0  0  0  0
 16 17  2  0  0  0  0
 17 18  1  0  0  0  0
 17 37  1  0  0  0  0
 19 20  1  0  0  0  0
 19 38  1  0  0  0  0
 19 39  1  0  0  0  0
 20 40  1  0  0  0  0
 20 41  1  0  0  0  0
M  CHG  1   3   1
M  CHG  1  13  -1
M  END
> <s_m_source_file>
AV-unprocessed.smi

> <i_m_source_file_index>
1817

> <i_lp_mmshare_version>
43012

> <i_f3d_flags>
0

> <s_epik_input>
W0NIM11bQ0gyXU4xW0NIMl1bQ0gyXU4oW0NIMl1bQ0gyXTEpW0NASF0oW0NIM10pW0NIMl1bTkhdQyg9TylbTkhdYzJubltjSF1zMg==

> <s_epik_cmdline>
J2VwaWtfcHl0aG9uJywgJy1waCcsICc3LjAnLCAnLXRuJywgJzgnLCAnLW1hJywgJzIwMCcsICctbWV0YWxfYmluZGluZycsICctaW1hZScsICc8aW5maWxlLm1hZT4nLCAnLW9tYWUnLCAnPG91dGZpbGUubWFlPic=

> <r_lp_tautomer_probability>
1

> <r_epik_Ionization_Penalty>
3.58527

> <r_epik_Ionization_Penalty_Charging>
3.54445

> <r_epik_Ionization_Penalty_Neutral>
0.0408199

> <r_epik_State_Penalty>
3.6633

> <r_epik_Charging_Adjusted_Penalty>
7.20774

> <i_epik_Tot_Q>
0

> <i_epik_Tot_abs_Q>
2

> <r_epik_Metal_State_Penalty>
0.683711

> <b_epik_Metal_Only>
1

> <s_lp_Force_Field>
OPLS_2005

> <r_lp_Energy>
15.1911

> <b_lp_Chiralities_Consistent>
1

> <s_lp_Variant>
AV-unprocessed.smi:1817-7

> <Gold.Version>
5.8.1

> <Gold.Id.Protein>
6NUR|6NUR_protein|mol2

> <Gold.PLP.Fitness>
50.8649

> <Gold.PLP.PLP>
-35.7252

> <Gold.PLP.part.hbond>
-5.1405

> <Gold.PLP.part.metal>
0.0000

> <Gold.PLP.part.buried>
-3.1153

> <Gold.PLP.part.nonpolar>
-28.0174

> <Gold.PLP.part.repulsive>
0.3677

> <Gold.PLP.ligand.clash>
0.0000

> <Gold.PLP.ligand.torsion>
0.3810

> <Gold.PLP.Chemscore.Hbond>
5.2820

> <Gold.PLP.Chemscore.CHOScore>
0.0000

> <Gold.PLP.Chemscore.Metal>
0.0000

> <Gold.Chemscore.Hbonds>
donor molecule, donor type, donor heavy atom, donor atom, acceptor molecule, acceptor atom, score
      L1  H     3    42       P1  7957  1.00
      P1  H  6896  6907       L1    12  1.00
      P1  H  6931  6943       L1    13  0.97
      P1  H  6934  6947       L1    13  1.49

> <Gold.PLP.Chemscore.Internal.Correction>
0.0558

> <Gold.Rescore>
     Score         DG    S(hbond)    S(metal)    S(lipo)     H(rot)  DE(clash)    DE(int)     intcor
     17.90     -18.66       3.08        0.00      65.80       1.88       0.21       0.55       ----

> <Gold.Chemscore.Fitness>
17.8989

> <Gold.Chemscore.DG>
-18.6572

> <Gold.Chemscore.ZeroCoef>
-5.4800

> <Gold.Chemscore.Hbond>
3.0830

> <Gold.Chemscore.Metal>
0.0000

> <Gold.Chemscore.Lipo>
65.8045

> <Gold.Chemscore.Internal_Hbond>
0.0000

> <Gold.Chemscore.DEClash>
0.2129

> <Gold.Chemscore.DEInternal>
0.5454

> <Gold.Chemscore.Rot>
1.8825

> <Gold.Chemscore.Internal.Correction>
   9.000000E+99

> <Gold.Chemscore.Hbonds>
donor molecule, donor type, donor heavy atom, donor atom, acceptor molecule, acceptor atom, score
      L1  H     3    42       P1  7957  0.99
      P1  H  6896  6907       L1    12  0.99
      P1  H  6931  6943       L1    13  0.04
      P1  H  6934  6947       L1    13  0.56

> <Gold.Chemscore.Hbond.Weighted>
-10.2972

> <Gold.Chemscore.Metal.Weighted>
-0.0000

> <Gold.Chemscore.Lipo.Weighted>
-7.6991

> <Gold.Chemscore.Internal_Hbond.Weighted>
0.0000

> <Gold.Chemscore.DEClash.Weighted>
0.2129

> <Gold.Chemscore.DEInternal.Weighted>
0.5454

> <Gold.Chemscore.Rot.Weighted>
4.8191

> <Gold.Chemscore.Internal.Correction.Weighted>
   9.000000E+99

> <Gold.Protein.RotatedTorsions>
[ 6907 6896 6895 6894 ] final  -53.84 input  -60.11 | X-H torsion
[ 7974 7965 7964 7962 ] final  -74.64 input  175.53 | X-H torsion
[ 8008 7997 7996 7995 ] final  -38.36 input   59.86 | X-H torsion
[ 10167 10162 10161 10158 ] final   70.92 input  -65.29 | X-H torsion
[ 10718 10713 10712 10709 ] final   94.74 input   66.30 | X-H torsion
[ 10763 10752 10751 10750 ] final  177.69 input  -60.55 | X-H torsion
[ 11005 11000 10999 10996 ] final  102.76 input  -57.11 | X-H torsion

> <Gold.Protein.ActiveResidues>
 VAL166  LYS551  ARG553  GLY616  TRP617  ASP618  TYR619  PRO620  LYS621  CYS622 
 ASP623  PHE694  ASN695  SER759  ASP760  ASP761  ALA762  ILE779  LEU786  VAL792 
 PHE793  MET794  SER795  GLU796  ALA797  LYS798  CYS799  TRP800  GLU811  SER814 

> <Gold.Protein.RotatedAtoms>
  150.8391  134.7676  159.6917 H   0  0  0  0  0  0  0  0  0  0  0  0  # atno 6907 bound_to 6896
  152.4482  134.5447  159.9859 H   0  0  0  0  0  0  0  0  0  0  0  0  # atno 6908 bound_to 6896
  151.5590  133.3368  159.3003 H   0  0  0  0  0  0  0  0  0  0  0  0  # atno 6909 bound_to 6896
  145.6364  140.9323  143.1059 H   0  0  0  0  0  0  0  0  0  0  0  0  # atno 7974 bound_to 7965
  154.4038  140.1580  156.2687 H   0  0  0  0  0  0  0  0  0  0  0  0  # atno 8008 bound_to 7997
  155.8972  140.3435  155.5977 H   0  0  0  0  0  0  0  0  0  0  0  0  # atno 8009 bound_to 7997
  155.7490  140.0802  157.2201 H   0  0  0  0  0  0  0  0  0  0  0  0  # atno 8010 bound_to 7997
  140.0517  144.5306  150.7358 H   0  0  0  0  0  0  0  0  0  0  0  0  # atno 10167 bound_to 10162
  157.6945  131.0522  150.4233 H   0  0  0  0  0  0  0  0  0  0  0  0  # atno 10718 bound_to 10713
  154.4978  135.2782  155.1445 H   0  0  0  0  0  0  0  0  0  0  0  0  # atno 10763 bound_to 10752
  154.3091  135.6232  153.5461 H   0  0  0  0  0  0  0  0  0  0  0  0  # atno 10764 bound_to 10752
  152.9897  135.5715  154.5414 H   0  0  0  0  0  0  0  0  0  0  0  0  # atno 10765 bound_to 10752
  139.8779  134.9237  156.5106 H   0  0  0  0  0  0  0  0  0  0  0  0  # atno 11005 bound_to 11000
  144.7174  139.8149  143.7394 LP  0  0  0  0  0  0  0  0  0  0  0  0  # atno 17320 bound_to 7965
  146.1316  139.4352  143.0165 LP  0  0  0  0  0  0  0  0  0  0  0  0  # atno 17321 bound_to 7965
  140.7213  143.2592  151.4268 LP  0  0  0  0  0  0  0  0  0  0  0  0  # atno 17342 bound_to 10162
  139.5949  144.1420  152.2132 LP  0  0  0  0  0  0  0  0  0  0  0  0  # atno 17343 bound_to 10162
  156.4606  130.4031  149.6579 LP  0  0  0  0  0  0  0  0  0  0  0  0  # atno 17370 bound_to 10713
  156.3695  130.7523  151.2505 LP  0  0  0  0  0  0  0  0  0  0  0  0  # atno 17371 bound_to 10713
  140.8522  133.8123  155.9180 LP  0  0  0  0  0  0  0  0  0  0  0  0  # atno 17394 bound_to 11000
  140.9132  134.2234  157.4973 LP  0  0  0  0  0  0  0  0  0  0  0  0  # atno 17395 bound_to 11000

$$$$
