AV-unprocessed.smi:1654|AV-procd|sdf|6643|dock4
  -GOLD-   22720 7343D 1   1.00000     0.00000
 Structure written by MMmdl.
 39 40  0  0  0  0  0  0  0  0  2 V2000
  153.4309  139.1159  154.8073 O   0  0  0  0  0  0  0  0  0  0  0  0
  152.4811  138.9288  155.9163 S   0  0  0  0  0  0  0  0  0  0  0  0
  152.1575  137.5500  156.3196 O   0  0  0  0  0  0  0  0  0  0  0  0
  152.7611  139.8946  157.1888 N   0  5  0  0  0  0  0  0  0  0  0  0
  152.3479  139.4537  158.5089 C   0  0  0  0  0  0  0  0  0  0  0  0
  153.2936  140.0419  159.5757 C   0  0  0  0  0  0  0  0  0  0  0  0
  152.9240  141.4534  160.0141 C   0  0  0  0  0  0  0  0  0  0  0  0
  153.1266  141.8786  161.3454 C   0  0  0  0  0  0  0  0  0  0  0  0
  152.7560  143.1885  161.7060 C   0  0  0  0  0  0  0  0  0  0  0  0
  152.1922  144.0211  160.7193 C   0  0  0  0  0  0  0  0  0  0  0  0
  151.9863  143.6266  159.4444 N   0  0  0  0  0  0  0  0  0  0  0  0
  152.3456  142.3691  159.1065 C   0  0  0  0  0  0  0  0  0  0  0  0
  150.9915  139.6654  155.3921 N   0  0  0  0  0  0  0  0  0  0  0  0
  150.3536  139.1835  154.1520 C   0  0  0  0  0  0  0  0  0  0  0  0
  148.8775  138.8418  154.4058 C   0  0  0  0  0  0  0  0  0  0  0  0
  147.8979  140.0169  154.2333 C   0  0  0  0  0  0  0  0  0  0  0  0
  148.4059  141.3988  154.6836 C   0  0  0  0  0  0  0  0  0  0  0  0
  149.2599  141.3939  155.9615 C   0  0  0  0  0  0  0  0  0  0  0  0
  150.7482  141.0873  155.7063 C   0  0  0  0  0  0  0  0  0  0  0  0
  151.3262  139.7628  158.7322 H   0  0  0  0  0  0  0  0  0  0  0  0
  152.3569  138.3660  158.5874 H   0  0  0  0  0  0  0  0  0  0  0  0
  153.3037  139.3980  160.4566 H   0  0  0  0  0  0  0  0  0  0  0  0
  154.3169  140.0537  159.1975 H   0  0  0  0  0  0  0  0  0  0  0  0
  153.5603  141.2132  162.0774 H   0  0  0  0  0  0  0  0  0  0  0  0
  152.9004  143.5460  162.7147 H   0  0  0  0  0  0  0  0  0  0  0  0
  151.8963  145.0312  160.9612 H   0  0  0  0  0  0  0  0  0  0  0  0
  152.1658  142.0850  158.0799 H   0  0  0  0  0  0  0  0  0  0  0  0
  150.4726  139.9133  153.3504 H   0  0  0  0  0  0  0  0  0  0  0  0
  150.8592  138.2840  153.8052 H   0  0  0  0  0  0  0  0  0  0  0  0
  148.5733  138.0467  153.7245 H   0  0  0  0  0  0  0  0  0  0  0  0
  148.7728  138.4175  155.4057 H   0  0  0  0  0  0  0  0  0  0  0  0
  147.6080  140.0892  153.1844 H   0  0  0  0  0  0  0  0  0  0  0  0
  146.9816  139.7766  154.7736 H   0  0  0  0  0  0  0  0  0  0  0  0
  148.9707  141.8650  153.8754 H   0  0  0  0  0  0  0  0  0  0  0  0
  147.5389  142.0423  154.8369 H   0  0  0  0  0  0  0  0  0  0  0  0
  149.2044  142.3898  156.4018 H   0  0  0  0  0  0  0  0  0  0  0  0
  148.8436  140.7169  156.7088 H   0  0  0  0  0  0  0  0  0  0  0  0
  151.3111  141.3682  156.5956 H   0  0  0  0  0  0  0  0  0  0  0  0
  151.1441  141.7078  154.9016 H   0  0  0  0  0  0  0  0  0  0  0  0
  1  2  2  0  0  0  0
  2  3  2  0  0  0  0
  2  4  1  0  0  0  0
  2 13  1  0  0  0  0
  4  5  1  0  0  0  0
  5  6  1  0  0  0  0
  5 20  1  0  0  0  0
  5 21  1  0  0  0  0
  6  7  1  0  0  0  0
  6 22  1  0  0  0  0
  6 23  1  0  0  0  0
  7 12  1  0  0  0  0
  7  8  2  0  0  0  0
  8  9  1  0  0  0  0
  8 24  1  0  0  0  0
  9 10  2  0  0  0  0
  9 25  1  0  0  0  0
 10 11  1  0  0  0  0
 10 26  1  0  0  0  0
 11 12  2  0  0  0  0
 12 27  1  0  0  0  0
 13 19  1  0  0  0  0
 13 14  1  0  0  0  0
 14 15  1  0  0  0  0
 14 28  1  0  0  0  0
 14 29  1  0  0  0  0
 15 16  1  0  0  0  0
 15 30  1  0  0  0  0
 15 31  1  0  0  0  0
 16 17  1  0  0  0  0
 16 32  1  0  0  0  0
 16 33  1  0  0  0  0
 17 18  1  0  0  0  0
 17 34  1  0  0  0  0
 17 35  1  0  0  0  0
 18 19  1  0  0  0  0
 18 36  1  0  0  0  0
 18 37  1  0  0  0  0
 19 38  1  0  0  0  0
 19 39  1  0  0  0  0
M  CHG  1   4  -1
M  END
> <s_m_source_file>
AV-unprocessed.smi

> <i_m_source_file_index>
1654

> <i_lp_mmshare_version>
43012

> <i_f3d_flags>
0

> <s_epik_input>
W0NIMl0xW0NIMl1bQ0gyXVtDSDJdW0NIMl1bQ0gyXU4xUyg9TykoPU8pW05IXVtDSDJdW0NIMl1jMltjSF1bY0hdW2NIXW5bY0hdMg==

> <s_epik_cmdline>
J2VwaWtfcHl0aG9uJywgJy1waCcsICc3LjAnLCAnLXRuJywgJzgnLCAnLW1hJywgJzIwMCcsICctbWV0YWxfYmluZGluZycsICctaW1hZScsICc8aW5maWxlLm1hZT4nLCAnLW9tYWUnLCAnPG91dGZpbGUubWFlPic=

> <r_lp_tautomer_probability>
1

> <r_epik_Ionization_Penalty>
3.13138

> <r_epik_Ionization_Penalty_Charging>
3.10426

> <r_epik_Ionization_Penalty_Neutral>
0.027117

> <r_epik_State_Penalty>
3.10111

> <r_epik_Charging_Adjusted_Penalty>
6.20538

> <i_epik_Tot_Q>
-1

> <i_epik_Tot_abs_Q>
1

> <r_epik_Metal_State_Penalty>
0.464106

> <b_epik_Metal_Only>
1

> <s_lp_Force_Field>
OPLS_2005

> <r_lp_Energy>
12.7892

> <b_lp_Chiralities_Consistent>
1

> <s_lp_Variant>
AV-unprocessed.smi:1654-2

> <Gold.Version>
5.8.1

> <Gold.Id.Protein>
6NUR|6NUR_protein|mol2

> <Gold.PLP.Fitness>
46.0912

> <Gold.PLP.PLP>
-42.0152

> <Gold.PLP.part.hbond>
-2.0000

> <Gold.PLP.part.metal>
0.0000

> <Gold.PLP.part.buried>
-2.4413

> <Gold.PLP.part.nonpolar>
-35.5104

> <Gold.PLP.part.repulsive>
0.0088

> <Gold.PLP.ligand.clash>
0.0000

> <Gold.PLP.ligand.torsion>
2.3368

> <Gold.PLP.Chemscore.Hbond>
1.8864

> <Gold.PLP.Chemscore.CHOScore>
0.0000

> <Gold.PLP.Chemscore.Metal>
0.0000

> <Gold.Chemscore.Hbonds>
donor molecule, donor type, donor heavy atom, donor atom, acceptor molecule, acceptor atom, score
      P1  H  7997  8009       L1     4  1.38
      P1  H  7997  8010       L1     1  0.37

> <Gold.PLP.Chemscore.Internal.Correction>
3.0905

> <Gold.Rescore>
     Score         DG    S(hbond)    S(metal)    S(lipo)     H(rot)  DE(clash)    DE(int)     intcor
     14.34     -16.75       0.63        0.00     106.21       1.27       0.06       2.34       ----

> <Gold.Chemscore.Fitness>
14.3403

> <Gold.Chemscore.DG>
-16.7454

> <Gold.Chemscore.ZeroCoef>
-5.4800

> <Gold.Chemscore.Hbond>
0.6287

> <Gold.Chemscore.Metal>
0.0000

> <Gold.Chemscore.Lipo>
106.2094

> <Gold.Chemscore.Internal_Hbond>
0.0000

> <Gold.Chemscore.DEClash>
0.0627

> <Gold.Chemscore.DEInternal>
2.3424

> <Gold.Chemscore.Rot>
1.2738

> <Gold.Chemscore.Internal.Correction>
   9.000000E+99

> <Gold.Chemscore.Hbonds>
donor molecule, donor type, donor heavy atom, donor atom, acceptor molecule, acceptor atom, score
      P1  H  7997  8009       L1     4  0.12
      P1  H  7997  8010       L1     1  0.28

> <Gold.Chemscore.Hbond.Weighted>
-2.1000

> <Gold.Chemscore.Metal.Weighted>
-0.0000

> <Gold.Chemscore.Lipo.Weighted>
-12.4265

> <Gold.Chemscore.Internal_Hbond.Weighted>
0.0000

> <Gold.Chemscore.DEClash.Weighted>
0.0627

> <Gold.Chemscore.DEInternal.Weighted>
2.3424

> <Gold.Chemscore.Rot.Weighted>
3.2610

> <Gold.Chemscore.Internal.Correction.Weighted>
   9.000000E+99

> <Gold.Protein.RotatedTorsions>
[ 6907 6896 6895 6894 ] final  -56.76 input  -60.11 | X-H torsion
[ 7974 7965 7964 7962 ] final  -43.89 input  175.53 | X-H torsion
[ 8008 7997 7996 7995 ] final  152.89 input   59.86 | X-H torsion
[ 10167 10162 10161 10158 ] final    4.11 input  -65.29 | X-H torsion
[ 10718 10713 10712 10709 ] final  -66.09 input   66.30 | X-H torsion
[ 10763 10752 10751 10750 ] final  -55.37 input  -60.55 | X-H torsion
[ 11005 11000 10999 10996 ] final  -37.46 input  -57.11 | X-H torsion

> <Gold.Protein.ActiveResidues>
 VAL166  LYS551  ARG553  GLY616  TRP617  ASP618  TYR619  PRO620  LYS621  CYS622 
 ASP623  PHE694  ASN695  SER759  ASP760  ASP761  ALA762  ILE779  LEU786  VAL792 
 PHE793  MET794  SER795  GLU796  ALA797  LYS798  CYS799  TRP800  GLU811  SER814 

> <Gold.Protein.RotatedAtoms>
  150.8141  134.7312  159.6713 H   0  0  0  0  0  0  0  0  0  0  0  0  # atno 6907 bound_to 6896
  152.4260  134.5864  159.9972 H   0  0  0  0  0  0  0  0  0  0  0  0  # atno 6908 bound_to 6896
  151.6066  133.3314  159.3094 H   0  0  0  0  0  0  0  0  0  0  0  0  # atno 6909 bound_to 6896
  145.9974  140.7112  142.9287 H   0  0  0  0  0  0  0  0  0  0  0  0  # atno 7974 bound_to 7965
  156.2608  140.2008  156.6404 H   0  0  0  0  0  0  0  0  0  0  0  0  # atno 8008 bound_to 7997
  154.6614  140.0560  157.0090 H   0  0  0  0  0  0  0  0  0  0  0  0  # atno 8009 bound_to 7997
  155.1271  140.3230  155.4486 H   0  0  0  0  0  0  0  0  0  0  0  0  # atno 8010 bound_to 7997
  140.6552  143.7446  150.7641 H   0  0  0  0  0  0  0  0  0  0  0  0  # atno 10167 bound_to 10162
  156.0632  130.4257  150.1659 H   0  0  0  0  0  0  0  0  0  0  0  0  # atno 10718 bound_to 10713
  154.1896  135.6429  153.5056 H   0  0  0  0  0  0  0  0  0  0  0  0  # atno 10763 bound_to 10752
  153.0038  135.5425  154.6428 H   0  0  0  0  0  0  0  0  0  0  0  0  # atno 10764 bound_to 10752
  154.5814  135.2925  155.0702 H   0  0  0  0  0  0  0  0  0  0  0  0  # atno 10765 bound_to 10752
  140.9954  133.6983  156.1924 H   0  0  0  0  0  0  0  0  0  0  0  0  # atno 11005 bound_to 11000
  144.6908  140.3175  143.7238 LP  0  0  0  0  0  0  0  0  0  0  0  0  # atno 17320 bound_to 7965
  145.7538  139.1802  143.2306 LP  0  0  0  0  0  0  0  0  0  0  0  0  # atno 17321 bound_to 7965
  140.1104  143.4704  152.2373 LP  0  0  0  0  0  0  0  0  0  0  0  0  # atno 17342 bound_to 10162
  139.5773  144.7493  151.3731 LP  0  0  0  0  0  0  0  0  0  0  0  0  # atno 17343 bound_to 10162
  156.9724  130.9838  151.3456 LP  0  0  0  0  0  0  0  0  0  0  0  0  # atno 17370 bound_to 10713
  157.5655  130.8275  149.8322 LP  0  0  0  0  0  0  0  0  0  0  0  0  # atno 17371 bound_to 10713
  140.6975  134.4600  157.5587 LP  0  0  0  0  0  0  0  0  0  0  0  0  # atno 17394 bound_to 11000
  139.9012  134.8552  156.1889 LP  0  0  0  0  0  0  0  0  0  0  0  0  # atno 17395 bound_to 11000

$$$$
