AV-unprocessed.smi:83|AV-procd|sdf|801|dock9
  -GOLD-   2262017183D 1   1.00000     0.00000
 Structure written by MMmdl.
 56 59  0  0  0  0  0  0  0  0  1 V2000
  151.4359  144.7613  159.2374 C   0  0  0  0  0  0  0  0  0  0  0  0
  152.0998  143.4115  159.5154 C   0  0  0  0  0  0  0  0  0  0  0  0
  152.8642  143.3079  160.4747 O   0  0  0  0  0  0  0  0  0  0  0  0
  151.8230  142.3797  158.6929 N   0  0  0  0  0  0  0  0  0  0  0  0
  150.9230  142.4241  157.5417 C   0  0  0  0  0  0  0  0  0  0  0  0
  150.7977  140.9761  157.0640 C   0  0  0  0  0  0  0  0  0  0  0  0
  152.0930  140.3182  157.5271 C   0  0  2  0  0  0  0  0  0  0  0  0
  152.0087  138.7833  157.6395 C   0  0  0  0  0  0  0  0  0  0  0  0
  151.7645  138.1349  156.3495 N   0  0  0  0  0  0  0  0  0  0  0  0
  152.7188  138.3622  155.2718 C   0  0  0  0  0  0  0  0  0  0  0  0
  150.9369  137.0551  156.2987 C   0  0  0  0  0  0  0  0  0  0  0  0
  151.0426  136.2218  155.2298 N   0  0  0  0  0  0  0  0  0  0  0  0
  150.2560  135.1483  155.1193 C   0  0  0  0  0  0  0  0  0  0  0  0
  149.3043  134.7240  155.9503 N   0  0  0  0  0  0  0  0  0  0  0  0
  149.1836  135.5535  157.0249 C   0  0  0  0  0  0  0  0  0  0  0  0
  149.9521  136.7270  157.2806 C   0  0  0  0  0  0  0  0  0  0  0  0
  149.5252  137.3066  158.4720 N   0  0  0  0  0  0  0  0  0  0  0  0
  148.5728  136.5225  158.8952 C   0  0  0  0  0  0  0  0  0  0  0  0
  148.3035  135.4437  158.0868 N   0  0  0  0  0  0  0  0  0  0  0  0
  147.2987  134.4206  158.3171 C   0  0  0  0  0  0  0  0  0  0  0  0
  147.5651  133.6172  159.6043 C   0  0  2  0  0  0  0  0  0  0  0  0
  146.6404  132.5532  159.7289 O   0  0  0  0  0  0  0  0  0  0  0  0
  147.5607  134.4991  160.8698 C   0  0  2  0  0  0  0  0  0  0  0  0
  147.5526  133.7675  162.2143 C   0  0  0  0  0  0  0  0  0  0  0  0
  147.0026  134.8412  163.1264 C   0  0  0  0  0  0  0  0  0  0  0  0
  145.9587  135.5074  162.2326 C   0  0  0  0  0  0  0  0  0  0  0  0
  146.4516  135.3943  160.8997 O   0  0  0  0  0  0  0  0  0  0  0  0
  152.4010  141.0470  158.8403 C   0  0  0  0  0  0  0  0  0  0  0  0
  151.6668  145.1063  158.2294 H   0  0  0  0  0  0  0  0  0  0  0  0
  151.7904  145.5164  159.9397 H   0  0  0  0  0  0  0  0  0  0  0  0
  150.3535  144.6867  159.3431 H   0  0  0  0  0  0  0  0  0  0  0  0
  149.9467  142.8390  157.7958 H   0  0  0  0  0  0  0  0  0  0  0  0
  151.3682  143.0456  156.7633 H   0  0  0  0  0  0  0  0  0  0  0  0
  149.9445  140.5046  157.5538 H   0  0  0  0  0  0  0  0  0  0  0  0
  150.6475  140.9004  155.9867 H   0  0  0  0  0  0  0  0  0  0  0  0
  152.8670  140.5820  156.8043 H   0  0  0  0  0  0  0  0  0  0  0  0
  152.9021  138.3915  158.1256 H   0  0  0  0  0  0  0  0  0  0  0  0
  151.1840  138.5222  158.3033 H   0  0  0  0  0  0  0  0  0  0  0  0
  152.2502  138.2183  154.2977 H   0  0  0  0  0  0  0  0  0  0  0  0
  153.5686  137.6849  155.3586 H   0  0  0  0  0  0  0  0  0  0  0  0
  153.0984  139.3836  155.3069 H   0  0  0  0  0  0  0  0  0  0  0  0
  150.4111  134.5439  154.2377 H   0  0  0  0  0  0  0  0  0  0  0  0
  148.0362  136.7110  159.8139 H   0  0  0  0  0  0  0  0  0  0  0  0
  146.3253  134.9094  158.3744 H   0  0  0  0  0  0  0  0  0  0  0  0
  147.2637  133.7599  157.4498 H   0  0  0  0  0  0  0  0  0  0  0  0
  148.5518  133.1589  159.5256 H   0  0  0  0  0  0  0  0  0  0  0  0
  146.8354  132.0775  160.5216 H   0  0  0  0  0  0  0  0  0  0  0  0
  148.4495  135.1321  160.8445 H   0  0  0  0  0  0  0  0  0  0  0  0
  146.8734  132.9141  162.2055 H   0  0  0  0  0  0  0  0  0  0  0  0
  148.5403  133.4152  162.5127 H   0  0  0  0  0  0  0  0  0  0  0  0
  146.5825  134.4461  164.0517 H   0  0  0  0  0  0  0  0  0  0  0  0
  147.7880  135.5537  163.3831 H   0  0  0  0  0  0  0  0  0  0  0  0
  145.0095  134.9738  162.2956 H   0  0  0  0  0  0  0  0  0  0  0  0
  145.7802  136.5480  162.5049 H   0  0  0  0  0  0  0  0  0  0  0  0
  153.4752  141.0836  159.0298 H   0  0  0  0  0  0  0  0  0  0  0  0
  151.9240  140.5515  159.6871 H   0  0  0  0  0  0  0  0  0  0  0  0
  1  2  1  0  0  0  0
  1 29  1  0  0  0  0
  1 30  1  0  0  0  0
  1 31  1  0  0  0  0
  2  3  2  0  0  0  0
  2  4  1  0  0  0  0
  4 28  1  0  0  0  0
  4  5  1  0  0  0  0
  5  6  1  0  0  0  0
  5 32  1  0  0  0  0
  5 33  1  0  0  0  0
  6  7  1  0  0  0  0
  6 34  1  0  0  0  0
  6 35  1  0  0  0  0
  7  8  1  0  0  0  0
  7 28  1  0  0  0  0
  7 36  1  0  0  0  0
  8  9  1  0  0  0  0
  8 37  1  0  0  0  0
  8 38  1  0  0  0  0
  9 10  1  0  0  0  0
  9 11  1  0  0  0  0
 10 39  1  0  0  0  0
 10 40  1  0  0  0  0
 10 41  1  0  0  0  0
 11 16  1  0  0  0  0
 11 12  2  0  0  0  0
 12 13  1  0  0  0  0
 13 14  2  0  0  0  0
 13 42  1  0  0  0  0
 14 15  1  0  0  0  0
 15 19  1  0  0  0  0
 15 16  2  0  0  0  0
 16 17  1  0  0  0  0
 17 18  2  0  0  0  0
 18 19  1  0  0  0  0
 18 43  1  0  0  0  0
 19 20  1  0  0  0  0
 20 21  1  0  0  0  0
 20 44  1  0  0  0  0
 20 45  1  0  0  0  0
 21 22  1  0  0  0  0
 21 23  1  0  0  0  0
 21 46  1  0  0  0  0
 22 47  1  0  0  0  0
 23 27  1  0  0  0  0
 23 24  1  0  0  0  0
 23 48  1  0  0  0  0
 24 25  1  0  0  0  0
 24 49  1  0  0  0  0
 24 50  1  0  0  0  0
 25 26  1  0  0  0  0
 25 51  1  0  0  0  0
 25 52  1  0  0  0  0
 26 27  1  0  0  0  0
 26 53  1  0  0  0  0
 26 54  1  0  0  0  0
 28 55  1  0  0  0  0
 28 56  1  0  0  0  0
M  END
> <s_m_source_file>
AV-unprocessed.smi

> <i_m_source_file_index>
83

> <i_lp_mmshare_version>
43012

> <i_f3d_flags>
0

> <s_epik_input>
W0NIM11DKD1PKU4xW0NIMl1bQ0gyXVtDQEhdKFtDSDJdMSlbQ0gyXU4oW0NIM10pYyhuW2NIXW4yKWMoYzIzKW5bY0hdbjNbQ0gyXVtDQEhdKFtPSF0pW0NAQEhdNFtDSDJdW0NIMl1bQ0gyXU80

> <s_epik_cmdline>
J2VwaWtfcHl0aG9uJywgJy1waCcsICc3LjAnLCAnLXRuJywgJzgnLCAnLW1hJywgJzIwMCcsICctbWV0YWxfYmluZGluZycsICctaW1hZScsICc8aW5maWxlLm1hZT4nLCAnLW9tYWUnLCAnPG91dGZpbGUubWFlPic=

> <r_lp_tautomer_probability>
1

> <r_epik_Ionization_Penalty>
0.00109752

> <r_epik_Ionization_Penalty_Charging>
0

> <r_epik_Ionization_Penalty_Neutral>
0.00109752

> <r_epik_State_Penalty>
0.000634803

> <r_epik_Charging_Adjusted_Penalty>
0.000634803

> <i_epik_Tot_Q>
0

> <i_epik_Tot_abs_Q>
0

> <r_epik_Metal_State_Penalty>
-0

> <b_epik_Metal_Only>
0

> <s_lp_Force_Field>
OPLS_2005

> <r_lp_Energy>
56.4298

> <b_lp_Chiralities_Consistent>
1

> <s_lp_Variant>
AV-unprocessed.smi:83-2

> <Gold.Version>
5.8.1

> <Gold.Id.Protein>
6NUR|6NUR_protein|mol2

> <Gold.PLP.Fitness>
45.4165

> <Gold.PLP.PLP>
-42.9953

> <Gold.PLP.part.hbond>
-1.0000

> <Gold.PLP.part.metal>
0.0000

> <Gold.PLP.part.buried>
-6.6943

> <Gold.PLP.part.nonpolar>
-35.4803

> <Gold.PLP.part.repulsive>
0.1764

> <Gold.PLP.ligand.clash>
0.0000

> <Gold.PLP.ligand.torsion>
0.4895

> <Gold.PLP.Chemscore.Hbond>
1.0000

> <Gold.PLP.Chemscore.CHOScore>
0.0000

> <Gold.PLP.Chemscore.Metal>
0.0000

> <Gold.Chemscore.Hbonds>
donor molecule, donor type, donor heavy atom, donor atom, acceptor molecule, acceptor atom, score
      P1  H 10752 10765       L1    12  0.84

> <Gold.PLP.Chemscore.Internal.Correction>
0.4003

> <Gold.Rescore>
     Score         DG    S(hbond)    S(metal)    S(lipo)     H(rot)  DE(clash)    DE(int)     intcor
     11.45     -12.36       0.82        0.00      92.60       2.62       0.44       0.47       ----

> <Gold.Chemscore.Fitness>
11.4488

> <Gold.Chemscore.DG>
-12.3642

> <Gold.Chemscore.ZeroCoef>
-5.4800

> <Gold.Chemscore.Hbond>
0.8217

> <Gold.Chemscore.Metal>
0.0000

> <Gold.Chemscore.Lipo>
92.6044

> <Gold.Chemscore.Internal_Hbond>
0.0000

> <Gold.Chemscore.DEClash>
0.4435

> <Gold.Chemscore.DEInternal>
0.4718

> <Gold.Chemscore.Rot>
2.6152

> <Gold.Chemscore.Internal.Correction>
   9.000000E+99

> <Gold.Chemscore.Hbonds>
donor molecule, donor type, donor heavy atom, donor atom, acceptor molecule, acceptor atom, score
      P1  H 10752 10765       L1    12  0.41

> <Gold.Chemscore.Hbond.Weighted>
-2.7443

> <Gold.Chemscore.Metal.Weighted>
-0.0000

> <Gold.Chemscore.Lipo.Weighted>
-10.8347

> <Gold.Chemscore.Internal_Hbond.Weighted>
0.0000

> <Gold.Chemscore.DEClash.Weighted>
0.4435

> <Gold.Chemscore.DEInternal.Weighted>
0.4718

> <Gold.Chemscore.Rot.Weighted>
6.6949

> <Gold.Chemscore.Internal.Correction.Weighted>
   9.000000E+99

> <Gold.Protein.RotatedTorsions>
[ 6907 6896 6895 6894 ] final -162.28 input  -60.11 | X-H torsion
[ 7974 7965 7964 7962 ] final   77.85 input  175.53 | X-H torsion
[ 8008 7997 7996 7995 ] final -129.71 input   59.86 | X-H torsion
[ 10167 10162 10161 10158 ] final -110.94 input  -65.29 | X-H torsion
[ 10718 10713 10712 10709 ] final -148.55 input   66.30 | X-H torsion
[ 10763 10752 10751 10750 ] final -179.22 input  -60.55 | X-H torsion
[ 11005 11000 10999 10996 ] final  -26.88 input  -57.11 | X-H torsion

> <Gold.Protein.ActiveResidues>
 VAL166  LYS551  ARG553  GLY616  TRP617  ASP618  TYR619  PRO620  LYS621  CYS622 
 ASP623  PHE694  ASN695  SER759  ASP760  ASP761  ALA762  ILE779  LEU786  VAL792 
 PHE793  MET794  SER795  GLU796  ALA797  LYS798  CYS799  TRP800  GLU811  SER814 

> <Gold.Protein.RotatedAtoms>
  151.3778  133.3832  159.2706 H   0  0  0  0  0  0  0  0  0  0  0  0  # atno 6907 bound_to 6896
  150.9601  134.8991  159.7735 H   0  0  0  0  0  0  0  0  0  0  0  0  # atno 6908 bound_to 6896
  152.5146  134.3737  159.9379 H   0  0  0  0  0  0  0  0  0  0  0  0  # atno 6909 bound_to 6896
  145.6847  139.2534  143.1794 H   0  0  0  0  0  0  0  0  0  0  0  0  # atno 7974 bound_to 7965
  155.2838  140.0445  157.3017 H   0  0  0  0  0  0  0  0  0  0  0  0  # atno 8008 bound_to 7997
  154.5581  140.2338  155.8346 H   0  0  0  0  0  0  0  0  0  0  0  0  # atno 8009 bound_to 7997
  156.2024  140.3022  155.9563 H   0  0  0  0  0  0  0  0  0  0  0  0  # atno 8010 bound_to 7997
  140.1390  143.4295  152.1575 H   0  0  0  0  0  0  0  0  0  0  0  0  # atno 10167 bound_to 10162
  156.4217  130.8032  151.2255 H   0  0  0  0  0  0  0  0  0  0  0  0  # atno 10718 bound_to 10713
  154.5378  135.2804  155.1123 H   0  0  0  0  0  0  0  0  0  0  0  0  # atno 10763 bound_to 10752
  154.2617  135.6320  153.5281 H   0  0  0  0  0  0  0  0  0  0  0  0  # atno 10764 bound_to 10752
  152.9971  135.5607  154.5909 H   0  0  0  0  0  0  0  0  0  0  0  0  # atno 10765 bound_to 10752
  140.9069  133.7486  156.0618 H   0  0  0  0  0  0  0  0  0  0  0  0  # atno 11005 bound_to 11000
  146.0934  140.7629  142.9584 LP  0  0  0  0  0  0  0  0  0  0  0  0  # atno 17320 bound_to 7965
  144.7015  140.3672  143.7152 LP  0  0  0  0  0  0  0  0  0  0  0  0  # atno 17321 bound_to 7965
  139.5481  144.7315  151.4519 LP  0  0  0  0  0  0  0  0  0  0  0  0  # atno 17342 bound_to 10162
  140.6772  143.8164  150.7073 LP  0  0  0  0  0  0  0  0  0  0  0  0  # atno 17343 bound_to 10162
  157.7508  131.0226  150.3799 LP  0  0  0  0  0  0  0  0  0  0  0  0  # atno 17370 bound_to 10713
  156.4117  130.3935  149.6886 LP  0  0  0  0  0  0  0  0  0  0  0  0  # atno 17371 bound_to 10713
  140.8159  134.3345  157.5397 LP  0  0  0  0  0  0  0  0  0  0  0  0  # atno 17394 bound_to 11000
  139.8751  134.9281  156.3443 LP  0  0  0  0  0  0  0  0  0  0  0  0  # atno 17395 bound_to 11000

$$$$
