AV-unprocessed.smi:372|AV-procd|sdf|2446|dock4
  -GOLD-   2262022383D 1   1.00000     0.00000
 Structure written by MMmdl.
 22 23  0  0  0  0  0  0  0  0  2 V2000
  149.6946  139.9531  158.1225 C   0  0  0  0  0  0  0  0  0  0  0  0
  150.4100  140.9688  157.2087 C   0  0  2  0  0  0  0  0  0  0  0  0
  150.9698  142.1601  158.0096 C   0  0  0  0  0  0  0  0  0  0  0  0
  152.0372  142.0108  158.9308 C   0  0  0  0  0  0  0  0  0  0  0  0
  152.5008  143.1432  159.6273 C   0  0  0  0  0  0  0  0  0  0  0  0
  151.8923  144.3882  159.3848 C   0  0  0  0  0  0  0  0  0  0  0  0
  150.8422  144.4444  158.4495 C   0  0  0  0  0  0  0  0  0  0  0  0
  150.3928  143.3651  157.7760 N   0  0  0  0  0  0  0  0  0  0  0  0
  149.4989  141.3724  156.1542 N   0  0  0  0  0  0  0  0  0  0  0  0
  149.9713  141.0675  154.9478 C   0  0  0  0  0  0  0  0  0  0  0  0
  149.3579  141.3546  153.9225 O   0  0  0  0  0  0  0  0  0  0  0  0
  151.1526  140.4322  155.0598 N   0  5  0  0  0  0  0  0  0  0  0  0
  151.5026  140.2956  156.3577 C   0  0  0  0  0  0  0  0  0  0  0  0
  152.4790  139.7313  156.8513 O   0  0  0  0  0  0  0  0  0  0  0  0
  150.3651  139.5603  158.8877 H   0  0  0  0  0  0  0  0  0  0  0  0
  149.3135  139.1018  157.5565 H   0  0  0  0  0  0  0  0  0  0  0  0
  148.8485  140.4145  158.6324 H   0  0  0  0  0  0  0  0  0  0  0  0
  152.5017  141.0541  159.1155 H   0  0  0  0  0  0  0  0  0  0  0  0
  153.3109  143.0572  160.3364 H   0  0  0  0  0  0  0  0  0  0  0  0
  152.2215  145.2771  159.9019 H   0  0  0  0  0  0  0  0  0  0  0  0
  150.3508  145.3819  158.2348 H   0  0  0  0  0  0  0  0  0  0  0  0
  148.6304  141.8558  156.3275 H   0  0  0  0  0  0  0  0  0  0  0  0
  1  2  1  0  0  0  0
  1 15  1  0  0  0  0
  1 16  1  0  0  0  0
  1 17  1  0  0  0  0
  2 13  1  0  0  0  0
  2  3  1  0  0  0  0
  2  9  1  0  0  0  0
  3  8  1  0  0  0  0
  3  4  2  0  0  0  0
  4  5  1  0  0  0  0
  4 18  1  0  0  0  0
  5  6  2  0  0  0  0
  5 19  1  0  0  0  0
  6  7  1  0  0  0  0
  6 20  1  0  0  0  0
  7  8  2  0  0  0  0
  7 21  1  0  0  0  0
  9 10  1  0  0  0  0
  9 22  1  0  0  0  0
 10 11  2  0  0  0  0
 10 12  1  0  0  0  0
 12 13  1  0  0  0  0
 13 14  2  0  0  0  0
M  CHG  1  12  -1
M  END
> <s_m_source_file>
AV-unprocessed.smi

> <i_m_source_file_index>
372

> <i_lp_mmshare_version>
43012

> <i_f3d_flags>
0

> <s_epik_input>
Tz1DMVtOSF1DKD1PKVtOSF1bQ0BAXTEoW0NIM10pYzJbY0hdW2NIXVtjSF1bY0hdbjI=

> <s_epik_cmdline>
J2VwaWtfcHl0aG9uJywgJy1waCcsICc3LjAnLCAnLXRuJywgJzgnLCAnLW1hJywgJzIwMCcsICctbWV0YWxfYmluZGluZycsICctaW1hZScsICc8aW5maWxlLm1hZT4nLCAnLW9tYWUnLCAnPG91dGZpbGUubWFlPic=

> <r_epik_Ionization_Penalty>
1.82492

> <r_epik_Ionization_Penalty_Charging>
1.82122

> <r_epik_Ionization_Penalty_Neutral>
0.00370144

> <r_epik_State_Penalty>
1.71448

> <r_epik_Charging_Adjusted_Penalty>
3.5357

> <i_epik_Tot_Q>
-1

> <i_epik_Tot_abs_Q>
1

> <r_epik_Metal_State_Penalty>
0.405927

> <b_epik_Metal_Only>
0

> <s_lp_Force_Field>
OPLS_2005

> <r_lp_Energy>
9.53623

> <b_lp_Chiralities_Consistent>
1

> <s_lp_Variant>
AV-unprocessed.smi:372-4

> <Gold.Version>
5.8.1

> <Gold.Id.Protein>
6NUR|6NUR_protein|mol2

> <Gold.PLP.Fitness>
36.7654

> <Gold.PLP.PLP>
-26.7363

> <Gold.PLP.part.hbond>
-3.7074

> <Gold.PLP.part.metal>
0.0000

> <Gold.PLP.part.buried>
-3.3400

> <Gold.PLP.part.nonpolar>
-21.1557

> <Gold.PLP.part.repulsive>
1.6145

> <Gold.PLP.ligand.clash>
0.0000

> <Gold.PLP.ligand.torsion>
0.1533

> <Gold.PLP.Chemscore.Hbond>
2.6698

> <Gold.PLP.Chemscore.CHOScore>
0.7483

> <Gold.PLP.Chemscore.Metal>
0.0000

> <Gold.Chemscore.Hbonds>
donor molecule, donor type, donor heavy atom, donor atom, acceptor molecule, acceptor atom, score
      P1  H  7989  7998       L1    12  0.65
      P1  H  7997  8009       L1    14  1.00
      P1  H  8011  8017       L1    11  0.77
      L1  C     7    21       P1  8029  0.62

> <Gold.PLP.Chemscore.Internal.Correction>
0.0815

> <Gold.Rescore>
     Score         DG    S(hbond)    S(metal)    S(lipo)     H(rot)  DE(clash)    DE(int)     intcor
     16.76     -16.88       2.27        0.00      54.49       1.00       0.08       0.04       ----

> <Gold.Chemscore.Fitness>
16.7633

> <Gold.Chemscore.DG>
-16.8820

> <Gold.Chemscore.ZeroCoef>
-5.4800

> <Gold.Chemscore.Hbond>
2.2715

> <Gold.Chemscore.Metal>
0.0000

> <Gold.Chemscore.Lipo>
54.4877

> <Gold.Chemscore.Internal_Hbond>
0.0000

> <Gold.Chemscore.DEClash>
0.0766

> <Gold.Chemscore.DEInternal>
0.0421

> <Gold.Chemscore.Rot>
1.0000

> <Gold.Chemscore.Internal.Correction>
   9.000000E+99

> <Gold.Chemscore.Hbonds>
donor molecule, donor type, donor heavy atom, donor atom, acceptor molecule, acceptor atom, score
      P1  H  7989  7998       L1    12  0.05
      P1  H  7997  8009       L1    14  0.96
      P1  H  8011  8017       L1    11  0.77

> <Gold.Chemscore.Hbond.Weighted>
-7.5870

> <Gold.Chemscore.Metal.Weighted>
-0.0000

> <Gold.Chemscore.Lipo.Weighted>
-6.3751

> <Gold.Chemscore.Internal_Hbond.Weighted>
0.0000

> <Gold.Chemscore.DEClash.Weighted>
0.0766

> <Gold.Chemscore.DEInternal.Weighted>
0.0421

> <Gold.Chemscore.Rot.Weighted>
2.5600

> <Gold.Chemscore.Internal.Correction.Weighted>
   9.000000E+99

> <Gold.Protein.RotatedTorsions>
[ 6907 6896 6895 6894 ] final  122.96 input  -60.11 | X-H torsion
[ 7974 7965 7964 7962 ] final  -34.31 input  175.53 | X-H torsion
[ 8008 7997 7996 7995 ] final -160.46 input   59.86 | X-H torsion
[ 10167 10162 10161 10158 ] final -117.62 input  -65.29 | X-H torsion
[ 10718 10713 10712 10709 ] final    2.18 input   66.30 | X-H torsion
[ 10763 10752 10751 10750 ] final  155.16 input  -60.55 | X-H torsion
[ 11005 11000 10999 10996 ] final  166.24 input  -57.11 | X-H torsion

> <Gold.Protein.ActiveResidues>
 VAL166  LYS551  ARG553  GLY616  TRP617  ASP618  TYR619  PRO620  LYS621  CYS622 
 ASP623  PHE694  ASN695  SER759  ASP760  ASP761  ALA762  ILE779  LEU786  VAL792 
 PHE793  MET794  SER795  GLU796  ALA797  LYS798  CYS799  TRP800  GLU811  SER814 

> <Gold.Protein.RotatedAtoms>
  152.4201  133.7102  159.6473 H   0  0  0  0  0  0  0  0  0  0  0  0  # atno 6907 bound_to 6896
  150.8077  133.8469  159.3203 H   0  0  0  0  0  0  0  0  0  0  0  0  # atno 6908 bound_to 6896
  151.6188  135.1036  160.0148 H   0  0  0  0  0  0  0  0  0  0  0  0  # atno 6909 bound_to 6896
  146.0840  140.6022  142.8895 H   0  0  0  0  0  0  0  0  0  0  0  0  # atno 7974 bound_to 7965
  155.7777  140.0860  157.2075 H   0  0  0  0  0  0  0  0  0  0  0  0  # atno 8008 bound_to 7997
  154.3992  140.1513  156.3073 H   0  0  0  0  0  0  0  0  0  0  0  0  # atno 8009 bound_to 7997
  155.8685  140.3426  155.5807 H   0  0  0  0  0  0  0  0  0  0  0  0  # atno 8010 bound_to 7997
  140.0664  143.4919  152.2004 H   0  0  0  0  0  0  0  0  0  0  0  0  # atno 10167 bound_to 10162
  156.8592  130.5580  149.5664 H   0  0  0  0  0  0  0  0  0  0  0  0  # atno 10718 bound_to 10713
  154.1639  135.2808  155.3101 H   0  0  0  0  0  0  0  0  0  0  0  0  # atno 10763 bound_to 10752
  154.6126  135.5494  153.7493 H   0  0  0  0  0  0  0  0  0  0  0  0  # atno 10764 bound_to 10752
  153.0184  135.6419  154.1780 H   0  0  0  0  0  0  0  0  0  0  0  0  # atno 10765 bound_to 10752
  140.2644  134.7877  157.3619 H   0  0  0  0  0  0  0  0  0  0  0  0  # atno 11005 bound_to 11000
  144.7313  140.4679  143.6936 LP  0  0  0  0  0  0  0  0  0  0  0  0  # atno 17320 bound_to 7965
  145.6164  139.1519  143.3047 LP  0  0  0  0  0  0  0  0  0  0  0  0  # atno 17321 bound_to 7965
  139.5862  144.7532  151.3514 LP  0  0  0  0  0  0  0  0  0  0  0  0  # atno 17342 bound_to 10162
  140.7147  143.7298  150.7632 LP  0  0  0  0  0  0  0  0  0  0  0  0  # atno 17343 bound_to 10162
  156.0786  130.5802  150.9521 LP  0  0  0  0  0  0  0  0  0  0  0  0  # atno 17370 bound_to 10713
  157.6260  131.0925  150.8533 LP  0  0  0  0  0  0  0  0  0  0  0  0  # atno 17371 bound_to 10713
  140.1434  134.4943  155.8015 LP  0  0  0  0  0  0  0  0  0  0  0  0  # atno 17394 bound_to 11000
  141.2186  133.6834  156.7250 LP  0  0  0  0  0  0  0  0  0  0  0  0  # atno 17395 bound_to 11000

$$$$
