AV-unprocessed.smi:2198|AV-procd|sdf|8919|dock3
  -GOLD-   2272012133D 1   1.00000     0.00000
 Structure written by MMmdl.
 42 43  0  0  0  0  0  0  0  0  2 V2000
  150.4998  134.6895  155.1154 C   0  0  0  0  0  0  0  0  0  0  0  0
  150.5330  135.9483  155.9552 C   0  0  0  0  0  0  0  0  0  0  0  0
  150.7198  137.0755  155.3817 N   0  0  0  0  0  0  0  0  0  0  0  0
  150.7515  138.2479  156.1554 C   0  0  0  0  0  0  0  0  0  0  0  0
  150.9823  139.5404  155.3918 C   0  0  0  0  0  0  0  0  0  0  0  0
  150.5842  138.2057  157.5082 C   0  0  0  0  0  0  0  0  0  0  0  0
  150.6124  139.4526  158.3917 C   0  0  0  0  0  0  0  0  0  0  0  0
  151.9507  140.1913  158.4654 C   0  0  0  0  0  0  0  0  0  0  0  0
  152.8968  139.8465  157.7571 O   0  0  0  0  0  0  0  0  0  0  0  0
  152.0139  141.2119  159.3338 N   0  0  0  0  0  0  0  0  0  0  0  0
  153.1865  142.0505  159.5753 C   0  0  2  0  0  0  0  0  0  0  0  0
  153.6723  141.8817  161.0278 C   0  0  0  0  0  0  0  0  0  0  0  0
  152.7097  142.5249  162.0409 C   0  0  0  0  0  0  0  0  0  0  0  0
  152.4535  144.0032  161.7086 C   0  0  0  0  0  0  0  0  0  0  0  0
  151.9254  144.1768  160.2717 C   0  0  1  0  0  0  0  0  0  0  0  0
  151.6691  145.6542  159.9427 C   0  0  0  0  0  0  0  0  0  0  0  0
  152.8963  143.5344  159.2591 C   0  0  0  0  0  0  0  0  0  0  0  0
  150.3667  136.8872  158.1302 C   0  0  0  0  0  0  0  0  0  0  0  0
  150.1969  136.7939  159.3455 O   0  0  0  0  0  0  0  0  0  0  0  0
  150.3588  135.7958  157.3125 N   0  5  0  0  0  0  0  0  0  0  0  0
  150.4224  134.9284  154.0539 H   0  0  0  0  0  0  0  0  0  0  0  0
  149.6433  134.0716  155.3871 H   0  0  0  0  0  0  0  0  0  0  0  0
  151.4093  134.1094  155.2718 H   0  0  0  0  0  0  0  0  0  0  0  0
  151.9285  139.9939  155.6870 H   0  0  0  0  0  0  0  0  0  0  0  0
  150.1794  140.2516  155.5858 H   0  0  0  0  0  0  0  0  0  0  0  0
  151.0166  139.3623  154.3163 H   0  0  0  0  0  0  0  0  0  0  0  0
  149.8471  140.1653  158.0831 H   0  0  0  0  0  0  0  0  0  0  0  0
  150.3230  139.1581  159.4009 H   0  0  0  0  0  0  0  0  0  0  0  0
  151.1860  141.4232  159.8717 H   0  0  0  0  0  0  0  0  0  0  0  0
  153.9856  141.7055  158.9166 H   0  0  0  0  0  0  0  0  0  0  0  0
  153.8099  140.8250  161.2607 H   0  0  0  0  0  0  0  0  0  0  0  0
  154.6545  142.3447  161.1303 H   0  0  0  0  0  0  0  0  0  0  0  0
  151.7633  141.9825  162.0490 H   0  0  0  0  0  0  0  0  0  0  0  0
  153.1208  142.4381  163.0470 H   0  0  0  0  0  0  0  0  0  0  0  0
  151.7407  144.4182  162.4218 H   0  0  0  0  0  0  0  0  0  0  0  0
  153.3784  144.5682  161.8332 H   0  0  0  0  0  0  0  0  0  0  0  0
  150.9679  143.6589  160.1999 H   0  0  0  0  0  0  0  0  0  0  0  0
  152.5885  146.2383  159.9949 H   0  0  0  0  0  0  0  0  0  0  0  0
  150.9551  146.0936  160.6400 H   0  0  0  0  0  0  0  0  0  0  0  0
  151.2591  145.7666  158.9386 H   0  0  0  0  0  0  0  0  0  0  0  0
  153.8379  144.0851  159.2670 H   0  0  0  0  0  0  0  0  0  0  0  0
  152.5025  143.6335  158.2467 H   0  0  0  0  0  0  0  0  0  0  0  0
  1  2  1  0  0  0  0
  1 21  1  0  0  0  0
  1 22  1  0  0  0  0
  1 23  1  0  0  0  0
  2 20  1  0  0  0  0
  2  3  2  0  0  0  0
  3  4  1  0  0  0  0
  4  5  1  0  0  0  0
  4  6  2  0  0  0  0
  5 24  1  0  0  0  0
  5 25  1  0  0  0  0
  5 26  1  0  0  0  0
  6  7  1  0  0  0  0
  6 18  1  0  0  0  0
  7  8  1  0  0  0  0
  7 27  1  0  0  0  0
  7 28  1  0  0  0  0
  8  9  2  0  0  0  0
  8 10  1  0  0  0  0
 10 11  1  0  0  0  0
 10 29  1  0  0  0  0
 11 17  1  0  0  0  0
 11 12  1  0  0  0  0
 11 30  1  0  0  0  0
 12 13  1  0  0  0  0
 12 31  1  0  0  0  0
 12 32  1  0  0  0  0
 13 14  1  0  0  0  0
 13 33  1  0  0  0  0
 13 34  1  0  0  0  0
 14 15  1  0  0  0  0
 14 35  1  0  0  0  0
 14 36  1  0  0  0  0
 15 16  1  0  0  0  0
 15 17  1  0  0  0  0
 15 37  1  0  0  0  0
 16 38  1  0  0  0  0
 16 39  1  0  0  0  0
 16 40  1  0  0  0  0
 17 41  1  0  0  0  0
 17 42  1  0  0  0  0
 18 19  2  0  0  0  0
 18 20  1  0  0  0  0
M  CHG  1  20  -1
M  END
> <s_m_source_file>
AV-unprocessed.smi

> <i_m_source_file_index>
2198

> <i_lp_mmshare_version>
43012

> <i_f3d_flags>
0

> <s_epik_input>
W0NIM11jMW5jKFtDSDNdKWMoYyg9TylbbkhdMSlbQ0gyXUMoPU8pW05IXVtDQEBIXTJbQ0gyXVtDSDJdW0NIMl1bQ0BASF0oW0NIM10pW0NIMl0y

> <s_epik_cmdline>
J2VwaWtfcHl0aG9uJywgJy1waCcsICc3LjAnLCAnLXRuJywgJzgnLCAnLW1hJywgJzIwMCcsICctbWV0YWxfYmluZGluZycsICctaW1hZScsICc8aW5maWxlLm1hZT4nLCAnLW9tYWUnLCAnPG91dGZpbGUubWFlPic=

> <r_lp_tautomer_probability>
0.839158

> <r_epik_Ionization_Penalty>
6.67193

> <r_epik_Ionization_Penalty_Charging>
7.66837e-08

> <r_epik_Ionization_Penalty_Neutral>
6.67193

> <r_epik_State_Penalty>
4.51643

> <r_epik_Charging_Adjusted_Penalty>
4.51643

> <i_epik_Tot_Q>
-1

> <i_epik_Tot_abs_Q>
1

> <r_epik_Metal_State_Penalty>
0.851582

> <b_epik_Metal_Only>
1

> <s_lp_Force_Field>
OPLS_2005

> <r_lp_Energy>
13.1445

> <b_lp_Chiralities_Consistent>
1

> <s_lp_Variant>
AV-unprocessed.smi:2198-9

> <Gold.Version>
5.8.1

> <Gold.Id.Protein>
6NUR|6NUR_protein|mol2

> <Gold.PLP.Fitness>
48.3664

> <Gold.PLP.PLP>
-42.4981

> <Gold.PLP.part.hbond>
-2.0000

> <Gold.PLP.part.metal>
0.0000

> <Gold.PLP.part.buried>
-6.5805

> <Gold.PLP.part.nonpolar>
-34.1992

> <Gold.PLP.part.repulsive>
0.2486

> <Gold.PLP.ligand.clash>
0.0000

> <Gold.PLP.ligand.torsion>
0.0697

> <Gold.PLP.Chemscore.Hbond>
2.0000

> <Gold.PLP.Chemscore.CHOScore>
0.0000

> <Gold.PLP.Chemscore.Metal>
0.0000

> <Gold.Chemscore.Hbonds>
donor molecule, donor type, donor heavy atom, donor atom, acceptor molecule, acceptor atom, score
      P1  H  6896  6909       L1    19  1.00
      P1  H  7997  8008       L1     9  1.00

> <Gold.PLP.Chemscore.Internal.Correction>
0.0076

> <Gold.Rescore>
     Score         DG    S(hbond)    S(metal)    S(lipo)     H(rot)  DE(clash)    DE(int)     intcor
     20.78     -20.88       1.97        0.00     107.07       1.45       0.04       0.06       ----

> <Gold.Chemscore.Fitness>
20.7772

> <Gold.Chemscore.DG>
-20.8781

> <Gold.Chemscore.ZeroCoef>
-5.4800

> <Gold.Chemscore.Hbond>
1.9672

> <Gold.Chemscore.Metal>
0.0000

> <Gold.Chemscore.Lipo>
107.0682

> <Gold.Chemscore.Internal_Hbond>
0.0000

> <Gold.Chemscore.DEClash>
0.0423

> <Gold.Chemscore.DEInternal>
0.0586

> <Gold.Chemscore.Rot>
1.4450

> <Gold.Chemscore.Internal.Correction>
   9.000000E+99

> <Gold.Chemscore.Hbonds>
donor molecule, donor type, donor heavy atom, donor atom, acceptor molecule, acceptor atom, score
      P1  H  6896  6909       L1    19  0.37
      P1  H  7997  8008       L1     9  1.00

> <Gold.Chemscore.Hbond.Weighted>
-6.5703

> <Gold.Chemscore.Metal.Weighted>
-0.0000

> <Gold.Chemscore.Lipo.Weighted>
-12.5270

> <Gold.Chemscore.Internal_Hbond.Weighted>
0.0000

> <Gold.Chemscore.DEClash.Weighted>
0.0423

> <Gold.Chemscore.DEInternal.Weighted>
0.0586

> <Gold.Chemscore.Rot.Weighted>
3.6992

> <Gold.Chemscore.Internal.Correction.Weighted>
   9.000000E+99

> <Gold.Protein.RotatedTorsions>
[ 6907 6896 6895 6894 ] final   76.05 input  -60.11 | X-H torsion
[ 7974 7965 7964 7962 ] final  -49.80 input  175.53 | X-H torsion
[ 8008 7997 7996 7995 ] final  -71.48 input   59.86 | X-H torsion
[ 10167 10162 10161 10158 ] final -159.65 input  -65.29 | X-H torsion
[ 10718 10713 10712 10709 ] final  -96.70 input   66.30 | X-H torsion
[ 10763 10752 10751 10750 ] final  126.42 input  -60.55 | X-H torsion
[ 11005 11000 10999 10996 ] final  116.64 input  -57.11 | X-H torsion

> <Gold.Protein.ActiveResidues>
 VAL166  LYS551  ARG553  GLY616  TRP617  ASP618  TYR619  PRO620  LYS621  CYS622 
 ASP623  PHE694  ASN695  SER759  ASP760  ASP761  ALA762  ILE779  LEU786  VAL792 
 PHE793  MET794  SER795  GLU796  ALA797  LYS798  CYS799  TRP800  GLU811  SER814 

> <Gold.Protein.RotatedAtoms>
  152.5055  134.4027  159.9421 H   0  0  0  0  0  0  0  0  0  0  0  0  # atno 6907 bound_to 6896
  151.3992  133.3757  159.2738 H   0  0  0  0  0  0  0  0  0  0  0  0  # atno 6908 bound_to 6896
  150.9375  134.8807  159.7650 H   0  0  0  0  0  0  0  0  0  0  0  0  # atno 6909 bound_to 6896
  145.9367  140.7700  142.9572 H   0  0  0  0  0  0  0  0  0  0  0  0  # atno 7974 bound_to 7965
  154.5091  140.0815  156.7954 H   0  0  0  0  0  0  0  0  0  0  0  0  # atno 8008 bound_to 7997
  155.3825  140.3428  155.4229 H   0  0  0  0  0  0  0  0  0  0  0  0  # atno 8009 bound_to 7997
  156.1552  140.1571  156.8692 H   0  0  0  0  0  0  0  0  0  0  0  0  # atno 8010 bound_to 7997
  139.6599  143.9931  152.2218 H   0  0  0  0  0  0  0  0  0  0  0  0  # atno 10167 bound_to 10162
  156.0067  130.5162  150.6265 H   0  0  0  0  0  0  0  0  0  0  0  0  # atno 10718 bound_to 10713
  153.6930  135.3296  155.3206 H   0  0  0  0  0  0  0  0  0  0  0  0  # atno 10763 bound_to 10752
  154.8434  135.4436  154.1489 H   0  0  0  0  0  0  0  0  0  0  0  0  # atno 10764 bound_to 10752
  153.2536  135.6984  153.7731 H   0  0  0  0  0  0  0  0  0  0  0  0  # atno 10765 bound_to 10752
  139.9048  134.9600  156.7229 H   0  0  0  0  0  0  0  0  0  0  0  0  # atno 11005 bound_to 11000
  144.6773  140.2214  143.7366 LP  0  0  0  0  0  0  0  0  0  0  0  0  # atno 17320 bound_to 7965
  145.8354  139.2105  143.1858 LP  0  0  0  0  0  0  0  0  0  0  0  0  # atno 17321 bound_to 7965
  139.9668  144.6521  150.8027 LP  0  0  0  0  0  0  0  0  0  0  0  0  # atno 17342 bound_to 10162
  140.7575  143.3088  151.2895 LP  0  0  0  0  0  0  0  0  0  0  0  0  # atno 17343 bound_to 10162
  157.4071  131.0818  151.1256 LP  0  0  0  0  0  0  0  0  0  0  0  0  # atno 17370 bound_to 10713
  157.1899  130.6347  149.5701 LP  0  0  0  0  0  0  0  0  0  0  0  0  # atno 17371 bound_to 10713
  140.6986  133.9326  155.8010 LP  0  0  0  0  0  0  0  0  0  0  0  0  # atno 17394 bound_to 11000
  141.0388  134.0651  157.3926 LP  0  0  0  0  0  0  0  0  0  0  0  0  # atno 17395 bound_to 11000

$$$$
