AV-unprocessed.smi:1032|AV-procd|sdf|4488|dock6
  -GOLD-   22720 2473D 1   1.00000     0.00000
 Structure written by MMmdl.
 47 48  0  0  0  0  0  0  0  0  3 V2000
  143.9846  133.4891  151.0170 C   0  0  0  0  0  0  0  0  0  0  0  0
  145.1270  134.5104  150.8779 C   0  0  2  0  0  0  0  0  0  0  0  0
  146.5088  133.8444  150.7479 C   0  0  0  0  0  0  0  0  0  0  0  0
  147.0091  133.2700  152.0856 C   0  0  0  0  0  0  0  0  0  0  0  0
  147.0262  134.3089  153.1475 N   0  3  2  0  0  0  0  0  0  0  0  0
  147.6314  133.8130  154.4107 C   0  0  0  0  0  0  0  0  0  0  0  0
  149.1357  133.5046  154.2656 C   0  0  2  0  0  0  0  0  0  0  0  0
  149.3799  132.2534  154.8789 O   0  0  0  0  0  0  0  0  0  0  0  0
  150.0042  134.5653  154.9735 C   0  0  0  0  0  0  0  0  0  0  0  0
  149.7337  135.9130  154.4815 N   0  0  0  0  0  0  0  0  0  0  0  0
  149.7684  137.0249  155.2301 C   0  0  0  0  0  0  0  0  0  0  0  0
  150.0204  137.0204  156.4352 O   0  0  0  0  0  0  0  0  0  0  0  0
  149.4721  138.1157  154.5025 N   0  0  0  0  0  0  0  0  0  0  0  0
  149.4256  139.4726  154.9239 C   0  0  0  0  0  0  0  0  0  0  0  0
  148.4151  140.2944  154.3769 C   0  0  0  0  0  0  0  0  0  0  0  0
  148.3412  141.6509  154.7542 C   0  0  0  0  0  0  0  0  0  0  0  0
  149.2407  142.1568  155.6250 N   0  3  0  0  0  0  0  0  0  0  0  0
  150.2331  141.4151  156.1622 C   0  0  0  0  0  0  0  0  0  0  0  0
  150.3569  140.0523  155.8231 C   0  0  0  0  0  0  0  0  0  0  0  0
  145.6820  134.9161  153.3394 C   0  0  0  0  0  0  0  0  0  0  0  0
  145.1577  135.5313  152.0297 C   0  0  0  0  0  0  0  0  0  0  0  0
  144.0793  132.8835  151.9178 H   0  0  0  0  0  0  0  0  0  0  0  0
  143.9640  132.8092  150.1648 H   0  0  0  0  0  0  0  0  0  0  0  0
  143.0168  133.9900  151.0572 H   0  0  0  0  0  0  0  0  0  0  0  0
  144.9374  135.0602  149.9549 H   0  0  0  0  0  0  0  0  0  0  0  0
  146.4798  133.0595  149.9912 H   0  0  0  0  0  0  0  0  0  0  0  0
  147.2282  134.5820  150.3897 H   0  0  0  0  0  0  0  0  0  0  0  0
  146.3856  132.4328  152.4017 H   0  0  0  0  0  0  0  0  0  0  0  0
  148.0161  132.8754  151.9441 H   0  0  0  0  0  0  0  0  0  0  0  0
  147.4643  134.5525  155.1956 H   0  0  0  0  0  0  0  0  0  0  0  0
  147.1218  132.9059  154.7402 H   0  0  0  0  0  0  0  0  0  0  0  0
  149.4074  133.4437  153.2124 H   0  0  0  0  0  0  0  0  0  0  0  0
  149.2800  132.3487  155.8141 H   0  0  0  0  0  0  0  0  0  0  0  0
  149.8109  134.5505  156.0477 H   0  0  0  0  0  0  0  0  0  0  0  0
  151.0660  134.3431  154.8587 H   0  0  0  0  0  0  0  0  0  0  0  0
  149.5093  136.0019  153.5010 H   0  0  0  0  0  0  0  0  0  0  0  0
  149.1968  137.9489  153.5456 H   0  0  0  0  0  0  0  0  0  0  0  0
  147.6962  139.8915  153.6780 H   0  0  0  0  0  0  0  0  0  0  0  0
  147.5964  142.3416  154.3861 H   0  0  0  0  0  0  0  0  0  0  0  0
  150.8987  141.9317  156.8383 H   0  0  0  0  0  0  0  0  0  0  0  0
  151.1695  139.4839  156.2487 H   0  0  0  0  0  0  0  0  0  0  0  0
  144.9875  134.1612  153.7103 H   0  0  0  0  0  0  0  0  0  0  0  0
  145.7226  135.6960  154.0988 H   0  0  0  0  0  0  0  0  0  0  0  0
  145.8018  136.3661  151.7496 H   0  0  0  0  0  0  0  0  0  0  0  0
  144.1651  135.9556  152.1855 H   0  0  0  0  0  0  0  0  0  0  0  0
  147.6360  135.0417  152.8127 H   0  0  0  0  0  0  0  0  0  0  0  0
  149.1709  143.1414  155.8838 H   0  0  0  0  0  0  0  0  0  0  0  0
  1  2  1  0  0  0  0
  1 22  1  0  0  0  0
  1 23  1  0  0  0  0
  1 24  1  0  0  0  0
  2 21  1  0  0  0  0
  2  3  1  0  0  0  0
  2 25  1  0  0  0  0
  3  4  1  0  0  0  0
  3 26  1  0  0  0  0
  3 27  1  0  0  0  0
  4  5  1  0  0  0  0
  4 28  1  0  0  0  0
  4 29  1  0  0  0  0
  5  6  1  0  0  0  0
  5 20  1  0  0  0  0
  5 46  1  0  0  0  0
  6  7  1  0  0  0  0
  6 30  1  0  0  0  0
  6 31  1  0  0  0  0
  7  8  1  0  0  0  0
  7  9  1  0  0  0  0
  7 32  1  0  0  0  0
  8 33  1  0  0  0  0
  9 10  1  0  0  0  0
  9 34  1  0  0  0  0
  9 35  1  0  0  0  0
 10 11  1  0  0  0  0
 10 36  1  0  0  0  0
 11 12  2  0  0  0  0
 11 13  1  0  0  0  0
 13 14  1  0  0  0  0
 13 37  1  0  0  0  0
 14 19  1  0  0  0  0
 14 15  2  0  0  0  0
 15 16  1  0  0  0  0
 15 38  1  0  0  0  0
 16 17  2  0  0  0  0
 16 39  1  0  0  0  0
 17 18  1  0  0  0  0
 17 47  1  0  0  0  0
 18 19  2  0  0  0  0
 18 40  1  0  0  0  0
 19 41  1  0  0  0  0
 20 21  1  0  0  0  0
 20 42  1  0  0  0  0
 20 43  1  0  0  0  0
 21 44  1  0  0  0  0
 21 45  1  0  0  0  0
M  CHG  1   5   1
M  CHG  1  17   1
M  END
> <s_m_source_file>
AV-unprocessed.smi

> <i_m_source_file_index>
1032

> <i_lp_mmshare_version>
43012

> <i_f3d_flags>
0

> <s_epik_input>
W0NIM11bQ0hdMVtDSDJdW0NIMl1OKFtDSDJdW0NIMl0xKVtDSDJdW0NASF0oW09IXSlbQ0gyXVtOSF1DKD1PKVtOSF1jMltjSF1bY0hdbltjSF1bY0hdMg==

> <s_epik_cmdline>
J2VwaWtfcHl0aG9uJywgJy1waCcsICc3LjAnLCAnLXRuJywgJzgnLCAnLW1hJywgJzIwMCcsICctbWV0YWxfYmluZGluZycsICctaW1hZScsICc8aW5maWxlLm1hZT4nLCAnLW9tYWUnLCAnPG91dGZpbGUubWFlPic=

> <r_epik_Ionization_Penalty>
1.02509

> <r_epik_Ionization_Penalty_Charging>
1.02507

> <r_epik_Ionization_Penalty_Neutral>
1.85474e-05

> <r_epik_State_Penalty>
1.07411

> <r_epik_Charging_Adjusted_Penalty>
2.09917

> <i_epik_Tot_Q>
2

> <i_epik_Tot_abs_Q>
2

> <r_epik_Metal_State_Penalty>
1.1725

> <b_epik_Metal_Only>
0

> <s_lp_Force_Field>
OPLS_2005

> <r_lp_Energy>
33.8521

> <b_lp_Chiralities_Consistent>
1

> <s_lp_Variant>
AV-unprocessed.smi:1032-7

> <Gold.Version>
5.8.1

> <Gold.Id.Protein>
6NUR|6NUR_protein|mol2

> <Gold.PLP.Fitness>
50.4316

> <Gold.PLP.PLP>
-35.9288

> <Gold.PLP.part.hbond>
-4.6225

> <Gold.PLP.part.metal>
0.0000

> <Gold.PLP.part.buried>
-3.4367

> <Gold.PLP.part.nonpolar>
-29.0111

> <Gold.PLP.part.repulsive>
0.3099

> <Gold.PLP.ligand.clash>
0.0000

> <Gold.PLP.ligand.torsion>
1.1901

> <Gold.PLP.Chemscore.Hbond>
5.6149

> <Gold.PLP.Chemscore.CHOScore>
0.0000

> <Gold.PLP.Chemscore.Metal>
0.0000

> <Gold.Chemscore.Hbonds>
donor molecule, donor type, donor heavy atom, donor atom, acceptor molecule, acceptor atom, score
      L1  H     5    46       P1  7948  2.00
      L1  H    10    36       P1  7948  1.00
      L1  H    13    37       P1  7948  0.09
      L1  H    17    47       P1  8028  2.00

> <Gold.PLP.Chemscore.Internal.Correction>
0.0382

> <Gold.Rescore>
     Score         DG    S(hbond)    S(metal)    S(lipo)     H(rot)  DE(clash)    DE(int)     intcor
     18.11     -19.45       3.06        0.00      83.15       2.34       0.15       1.19       ----

> <Gold.Chemscore.Fitness>
18.1149

> <Gold.Chemscore.DG>
-19.4503

> <Gold.Chemscore.ZeroCoef>
-5.4800

> <Gold.Chemscore.Hbond>
3.0629

> <Gold.Chemscore.Metal>
0.0000

> <Gold.Chemscore.Lipo>
83.1533

> <Gold.Chemscore.Internal_Hbond>
0.0000

> <Gold.Chemscore.DEClash>
0.1450

> <Gold.Chemscore.DEInternal>
1.1904

> <Gold.Chemscore.Rot>
2.3393

> <Gold.Chemscore.Internal.Correction>
   9.000000E+99

> <Gold.Chemscore.Hbonds>
donor molecule, donor type, donor heavy atom, donor atom, acceptor molecule, acceptor atom, score
      L1  H     5    46       P1  7948  0.97
      L1  H    10    36       P1  7948  0.40
      L1  H    13    37       P1  7948  0.11
      L1  H    17    47       P1  8028  0.98

> <Gold.Chemscore.Hbond.Weighted>
-10.2300

> <Gold.Chemscore.Metal.Weighted>
-0.0000

> <Gold.Chemscore.Lipo.Weighted>
-9.7289

> <Gold.Chemscore.Internal_Hbond.Weighted>
0.0000

> <Gold.Chemscore.DEClash.Weighted>
0.1450

> <Gold.Chemscore.DEInternal.Weighted>
1.1904

> <Gold.Chemscore.Rot.Weighted>
5.9886

> <Gold.Chemscore.Internal.Correction.Weighted>
   9.000000E+99

> <Gold.Protein.RotatedTorsions>
[ 6907 6896 6895 6894 ] final  -74.28 input  -60.11 | X-H torsion
[ 7974 7965 7964 7962 ] final -166.37 input  175.53 | X-H torsion
[ 8008 7997 7996 7995 ] final -149.83 input   59.86 | X-H torsion
[ 10167 10162 10161 10158 ] final   27.51 input  -65.29 | X-H torsion
[ 10718 10713 10712 10709 ] final   67.51 input   66.30 | X-H torsion
[ 10763 10752 10751 10750 ] final  -80.76 input  -60.55 | X-H torsion
[ 11005 11000 10999 10996 ] final -172.69 input  -57.11 | X-H torsion

> <Gold.Protein.ActiveResidues>
 VAL166  LYS551  ARG553  GLY616  TRP617  ASP618  TYR619  PRO620  LYS621  CYS622 
 ASP623  PHE694  ASN695  SER759  ASP760  ASP761  ALA762  ILE779  LEU786  VAL792 
 PHE793  MET794  SER795  GLU796  ALA797  LYS798  CYS799  TRP800  GLU811  SER814 

> <Gold.Protein.RotatedAtoms>
  150.7099  134.4892  159.5507 H   0  0  0  0  0  0  0  0  0  0  0  0  # atno 6907 bound_to 6896
  152.2513  134.8127  160.0454 H   0  0  0  0  0  0  0  0  0  0  0  0  # atno 6908 bound_to 6896
  151.8873  133.3473  159.3823 H   0  0  0  0  0  0  0  0  0  0  0  0  # atno 6909 bound_to 6896
  144.7247  140.2676  143.6255 H   0  0  0  0  0  0  0  0  0  0  0  0  # atno 7974 bound_to 7965
  155.6139  140.0674  157.2698 H   0  0  0  0  0  0  0  0  0  0  0  0  # atno 8008 bound_to 7997
  154.4246  140.1796  156.1349 H   0  0  0  0  0  0  0  0  0  0  0  0  # atno 8009 bound_to 7997
  156.0063  140.3331  155.6899 H   0  0  0  0  0  0  0  0  0  0  0  0  # atno 8010 bound_to 7997
  140.4932  144.0433  150.6305 H   0  0  0  0  0  0  0  0  0  0  0  0  # atno 10167 bound_to 10162
  157.6234  130.9325  150.0252 H   0  0  0  0  0  0  0  0  0  0  0  0  # atno 10718 bound_to 10713
  154.5551  135.5650  153.6957 H   0  0  0  0  0  0  0  0  0  0  0  0  # atno 10763 bound_to 10752
  153.0001  135.6260  154.2320 H   0  0  0  0  0  0  0  0  0  0  0  0  # atno 10764 bound_to 10752
  154.2256  135.2868  155.2888 H   0  0  0  0  0  0  0  0  0  0  0  0  # atno 10765 bound_to 10752
  140.4942  134.5956  157.4965 H   0  0  0  0  0  0  0  0  0  0  0  0  # atno 11005 bound_to 11000
  145.8074  139.1989  143.2013 LP  0  0  0  0  0  0  0  0  0  0  0  0  # atno 17320 bound_to 7965
  146.0625  140.7955  142.9728 LP  0  0  0  0  0  0  0  0  0  0  0  0  # atno 17321 bound_to 7965
  140.3708  143.2855  152.0280 LP  0  0  0  0  0  0  0  0  0  0  0  0  # atno 17342 bound_to 10162
  139.4856  144.6231  151.7217 LP  0  0  0  0  0  0  0  0  0  0  0  0  # atno 17343 bound_to 10162
  156.1393  130.3642  149.9608 LP  0  0  0  0  0  0  0  0  0  0  0  0  # atno 17370 bound_to 10713
  156.7652  130.9166  151.3643 LP  0  0  0  0  0  0  0  0  0  0  0  0  # atno 17371 bound_to 10713
  139.9751  134.7228  155.9965 LP  0  0  0  0  0  0  0  0  0  0  0  0  # atno 17394 bound_to 11000
  141.1469  133.6554  156.3893 LP  0  0  0  0  0  0  0  0  0  0  0  0  # atno 17395 bound_to 11000

$$$$
