AV-unprocessed.smi:1641|AV-procd|sdf|6559|dock1
  -GOLD-   22720 7243D 1   1.00000     0.00000
 Structure written by MMmdl.
 42 43  0  0  0  0  0  0  0  0  2 V2000
  153.8830  137.8416  157.4224 C   0  0  0  0  0  0  0  0  0  0  0  0
  152.9363  138.2317  156.3395 C   0  0  0  0  0  0  0  0  0  0  0  0
  152.9507  139.4408  155.7652 N   0  0  0  0  0  0  0  0  0  0  0  0
  151.9759  139.5697  154.7855 N   0  0  0  0  0  0  0  0  0  0  0  0
  151.2516  138.4502  154.6513 C   0  0  0  0  0  0  0  0  0  0  0  0
  150.1860  138.3064  153.7237 N   0  0  0  0  0  0  0  0  0  0  0  0
  148.9884  138.9176  153.7310 C   0  0  0  0  0  0  0  0  0  0  0  0
  148.6120  139.7402  154.5662 O   0  0  0  0  0  0  0  0  0  0  0  0
  148.2301  138.5175  152.6999 N   0  0  0  0  0  0  0  0  0  0  0  0
  146.8800  138.9965  152.4261 C   0  0  0  0  0  0  0  0  0  0  0  0
  146.1708  138.1229  151.3729 C   0  0  0  0  0  0  0  0  0  0  0  0
  146.3143  136.6719  151.6492 N   0  3  1  0  0  0  0  0  0  0  0  0
  145.9960  136.3311  153.0562 C   0  0  0  0  0  0  0  0  0  0  0  0
  146.2161  134.8280  153.3127 C   0  0  1  0  0  0  0  0  0  0  0  0
  145.8226  134.4183  154.7360 C   0  0  0  0  0  0  0  0  0  0  0  0
  145.4187  134.0804  152.4017 O   0  0  0  0  0  0  0  0  0  0  0  0
  145.7658  134.3242  151.0433 C   0  0  1  0  0  0  0  0  0  0  0  0
  144.9149  133.4038  150.1618 C   0  0  0  0  0  0  0  0  0  0  0  0
  145.5344  135.8131  150.7238 C   0  0  0  0  0  0  0  0  0  0  0  0
  151.7062  137.1357  155.7222 S   0  0  0  0  0  0  0  0  0  0  0  0
  154.7832  138.4558  157.3832 H   0  0  0  0  0  0  0  0  0  0  0  0
  154.1706  136.7961  157.3107 H   0  0  0  0  0  0  0  0  0  0  0  0
  153.4096  137.9736  158.3955 H   0  0  0  0  0  0  0  0  0  0  0  0
  150.3558  137.6588  152.9684 H   0  0  0  0  0  0  0  0  0  0  0  0
  148.6159  137.8419  152.0562 H   0  0  0  0  0  0  0  0  0  0  0  0
  146.3206  139.0297  153.3613 H   0  0  0  0  0  0  0  0  0  0  0  0
  146.9504  140.0246  152.0697 H   0  0  0  0  0  0  0  0  0  0  0  0
  145.1114  138.3842  151.3758 H   0  0  0  0  0  0  0  0  0  0  0  0
  146.5378  138.3394  150.3683 H   0  0  0  0  0  0  0  0  0  0  0  0
  146.6277  136.9134  153.7283 H   0  0  0  0  0  0  0  0  0  0  0  0
  144.9615  136.6044  153.2705 H   0  0  0  0  0  0  0  0  0  0  0  0
  147.2673  134.5781  153.1585 H   0  0  0  0  0  0  0  0  0  0  0  0
  146.4153  134.9537  155.4780 H   0  0  0  0  0  0  0  0  0  0  0  0
  145.9834  133.3512  154.8913 H   0  0  0  0  0  0  0  0  0  0  0  0
  144.7707  134.6285  154.9319 H   0  0  0  0  0  0  0  0  0  0  0  0
  146.8175  134.0745  150.8907 H   0  0  0  0  0  0  0  0  0  0  0  0
  145.1470  133.5455  149.1061 H   0  0  0  0  0  0  0  0  0  0  0  0
  143.8508  133.5977  150.2999 H   0  0  0  0  0  0  0  0  0  0  0  0
  145.0962  132.3563  150.4039 H   0  0  0  0  0  0  0  0  0  0  0  0
  144.4737  136.0555  150.8095 H   0  0  0  0  0  0  0  0  0  0  0  0
  145.8228  136.0071  149.6912 H   0  0  0  0  0  0  0  0  0  0  0  0
  147.2896  136.4452  151.5162 H   0  0  0  0  0  0  0  0  0  0  0  0
  1  2  1  0  0  0  0
  1 21  1  0  0  0  0
  1 22  1  0  0  0  0
  1 23  1  0  0  0  0
  2 20  1  0  0  0  0
  2  3  2  0  0  0  0
  3  4  1  0  0  0  0
  4  5  2  0  0  0  0
  5  6  1  0  0  0  0
  5 20  1  0  0  0  0
  6  7  1  0  0  0  0
  6 24  1  0  0  0  0
  7  8  2  0  0  0  0
  7  9  1  0  0  0  0
  9 10  1  0  0  0  0
  9 25  1  0  0  0  0
 10 11  1  0  0  0  0
 10 26  1  0  0  0  0
 10 27  1  0  0  0  0
 11 12  1  0  0  0  0
 11 28  1  0  0  0  0
 11 29  1  0  0  0  0
 12 19  1  0  0  0  0
 12 13  1  0  0  0  0
 12 42  1  0  0  0  0
 13 14  1  0  0  0  0
 13 30  1  0  0  0  0
 13 31  1  0  0  0  0
 14 15  1  0  0  0  0
 14 16  1  0  0  0  0
 14 32  1  0  0  0  0
 15 33  1  0  0  0  0
 15 34  1  0  0  0  0
 15 35  1  0  0  0  0
 16 17  1  0  0  0  0
 17 18  1  0  0  0  0
 17 19  1  0  0  0  0
 17 36  1  0  0  0  0
 18 37  1  0  0  0  0
 18 38  1  0  0  0  0
 18 39  1  0  0  0  0
 19 40  1  0  0  0  0
 19 41  1  0  0  0  0
M  CHG  1  12   1
M  END
> <s_m_source_file>
AV-unprocessed.smi

> <i_m_source_file_index>
1641

> <i_lp_mmshare_version>
43012

> <i_f3d_flags>
0

> <s_epik_input>
W0NIM11jMW5uYyhzMSlbTkhdQyg9TylbTkhdW0NIMl1bQ0gyXU4yW0NIMl1bQ0BASF0oW0NIM10pT1tDQEBIXShbQ0gzXSlbQ0gyXTI=

> <s_epik_cmdline>
J2VwaWtfcHl0aG9uJywgJy1waCcsICc3LjAnLCAnLXRuJywgJzgnLCAnLW1hJywgJzIwMCcsICctbWV0YWxfYmluZGluZycsICctaW1hZScsICc8aW5maWxlLm1hZT4nLCAnLW9tYWUnLCAnPG91dGZpbGUubWFlPic=

> <r_lp_tautomer_probability>
1

> <r_epik_Ionization_Penalty>
0.700114

> <r_epik_Ionization_Penalty_Charging>
0.695697

> <r_epik_Ionization_Penalty_Neutral>
0.00441638

> <r_epik_State_Penalty>
0.717972

> <r_epik_Charging_Adjusted_Penalty>
1.41367

> <i_epik_Tot_Q>
1

> <i_epik_Tot_abs_Q>
1

> <r_epik_Metal_State_Penalty>
1.06958

> <b_epik_Metal_Only>
0

> <s_lp_Force_Field>
OPLS_2005

> <r_lp_Energy>
12.6792

> <b_lp_Chiralities_Consistent>
1

> <s_lp_Variant>
AV-unprocessed.smi:1641-4

> <Gold.Version>
5.8.1

> <Gold.Id.Protein>
6NUR|6NUR_protein|mol2

> <Gold.PLP.Fitness>
44.5162

> <Gold.PLP.PLP>
-30.3228

> <Gold.PLP.part.hbond>
-6.3505

> <Gold.PLP.part.metal>
0.0000

> <Gold.PLP.part.buried>
-0.6815

> <Gold.PLP.part.nonpolar>
-23.8673

> <Gold.PLP.part.repulsive>
0.4129

> <Gold.PLP.ligand.clash>
0.0000

> <Gold.PLP.ligand.torsion>
0.8021

> <Gold.PLP.Chemscore.Hbond>
5.2434

> <Gold.PLP.Chemscore.CHOScore>
0.0000

> <Gold.PLP.Chemscore.Metal>
0.0000

> <Gold.Chemscore.Hbonds>
donor molecule, donor type, donor heavy atom, donor atom, acceptor molecule, acceptor atom, score
      L1  H     6    24       P1  7948  0.20
      L1  H     9    25       P1  7948  0.91
      L1  H    12    42       P1  7948  2.00
      P1  H  7989  7998       L1     4  0.93
      P1  H  7997  8010       L1     3  1.00

> <Gold.PLP.Chemscore.Internal.Correction>
0.0675

> <Gold.Rescore>
     Score         DG    S(hbond)    S(metal)    S(lipo)     H(rot)  DE(clash)    DE(int)     intcor
     18.98     -20.72       3.80        0.00      57.59       1.64       0.88       0.86       ----

> <Gold.Chemscore.Fitness>
18.9766

> <Gold.Chemscore.DG>
-20.7212

> <Gold.Chemscore.ZeroCoef>
-5.4800

> <Gold.Chemscore.Hbond>
3.7997

> <Gold.Chemscore.Metal>
0.0000

> <Gold.Chemscore.Lipo>
57.5911

> <Gold.Chemscore.Internal_Hbond>
0.0000

> <Gold.Chemscore.DEClash>
0.8839

> <Gold.Chemscore.DEInternal>
0.8608

> <Gold.Chemscore.Rot>
1.6358

> <Gold.Chemscore.Internal.Correction>
   9.000000E+99

> <Gold.Chemscore.Hbonds>
donor molecule, donor type, donor heavy atom, donor atom, acceptor molecule, acceptor atom, score
      L1  H     6    24       P1  7948  0.01
      L1  H     9    25       P1  7948  0.87
      L1  H    12    42       P1  7948  1.00
      P1  H  7989  7998       L1     4  0.82
      P1  H  7997  8010       L1     3  0.39

> <Gold.Chemscore.Hbond.Weighted>
-12.6909

> <Gold.Chemscore.Metal.Weighted>
-0.0000

> <Gold.Chemscore.Lipo.Weighted>
-6.7382

> <Gold.Chemscore.Internal_Hbond.Weighted>
0.0000

> <Gold.Chemscore.DEClash.Weighted>
0.8839

> <Gold.Chemscore.DEInternal.Weighted>
0.8608

> <Gold.Chemscore.Rot.Weighted>
4.1878

> <Gold.Chemscore.Internal.Correction.Weighted>
   9.000000E+99

> <Gold.Protein.RotatedTorsions>
[ 6907 6896 6895 6894 ] final   12.42 input  -60.11 | X-H torsion
[ 7974 7965 7964 7962 ] final -145.09 input  175.53 | X-H torsion
[ 8008 7997 7996 7995 ] final   75.48 input   59.86 | X-H torsion
[ 10167 10162 10161 10158 ] final  -77.72 input  -65.29 | X-H torsion
[ 10718 10713 10712 10709 ] final   -8.42 input   66.30 | X-H torsion
[ 10763 10752 10751 10750 ] final   18.56 input  -60.55 | X-H torsion
[ 11005 11000 10999 10996 ] final   44.02 input  -57.11 | X-H torsion

> <Gold.Protein.ActiveResidues>
 VAL166  LYS551  ARG553  GLY616  TRP617  ASP618  TYR619  PRO620  LYS621  CYS622 
 ASP623  PHE694  ASN695  SER759  ASP760  ASP761  ALA762  ILE779  LEU786  VAL792 
 PHE793  MET794  SER795  GLU796  ALA797  LYS798  CYS799  TRP800  GLU811  SER814 

> <Gold.Protein.RotatedAtoms>
  151.7701  135.0788  160.0358 H   0  0  0  0  0  0  0  0  0  0  0  0  # atno 6907 bound_to 6896
  152.3294  133.5937  159.5807 H   0  0  0  0  0  0  0  0  0  0  0  0  # atno 6908 bound_to 6896
  150.7414  133.9807  159.3617 H   0  0  0  0  0  0  0  0  0  0  0  0  # atno 6909 bound_to 6896
  144.8252  140.5628  143.5552 H   0  0  0  0  0  0  0  0  0  0  0  0  # atno 7974 bound_to 7965
  155.8135  140.3472  155.5472 H   0  0  0  0  0  0  0  0  0  0  0  0  # atno 8008 bound_to 7997
  155.8416  140.0942  157.1751 H   0  0  0  0  0  0  0  0  0  0  0  0  # atno 8009 bound_to 7997
  154.4005  140.1393  156.3723 H   0  0  0  0  0  0  0  0  0  0  0  0  # atno 8010 bound_to 7997
  140.4745  143.2418  151.8153 H   0  0  0  0  0  0  0  0  0  0  0  0  # atno 10167 bound_to 10162
  156.7029  130.5098  149.5912 H   0  0  0  0  0  0  0  0  0  0  0  0  # atno 10718 bound_to 10713
  153.1238  135.6725  153.9290 H   0  0  0  0  0  0  0  0  0  0  0  0  # atno 10763 bound_to 10752
  153.8798  135.3059  155.3446 H   0  0  0  0  0  0  0  0  0  0  0  0  # atno 10764 bound_to 10752
  154.7646  135.4970  153.9610 H   0  0  0  0  0  0  0  0  0  0  0  0  # atno 10765 bound_to 10752
  140.1590  134.4365  155.8330 H   0  0  0  0  0  0  0  0  0  0  0  0  # atno 11005 bound_to 11000
  145.5017  139.1483  143.3654 LP  0  0  0  0  0  0  0  0  0  0  0  0  # atno 17320 bound_to 7965
  146.2557  140.5156  142.8874 LP  0  0  0  0  0  0  0  0  0  0  0  0  # atno 17321 bound_to 7965
  139.4823  144.4850  151.9258 LP  0  0  0  0  0  0  0  0  0  0  0  0  # atno 17342 bound_to 10162
  140.3935  144.2585  150.5898 LP  0  0  0  0  0  0  0  0  0  0  0  0  # atno 17343 bound_to 10162
  156.1716  130.6441  151.0844 LP  0  0  0  0  0  0  0  0  0  0  0  0  # atno 17370 bound_to 10713
  157.6966  131.0791  150.6949 LP  0  0  0  0  0  0  0  0  0  0  0  0  # atno 17371 bound_to 10713
  141.2207  133.6905  156.7560 LP  0  0  0  0  0  0  0  0  0  0  0  0  # atno 17394 bound_to 11000
  140.2512  134.8539  157.3669 LP  0  0  0  0  0  0  0  0  0  0  0  0  # atno 17395 bound_to 11000

$$$$
