AV-unprocessed.smi:2673|AV-procd|sdf|10357|dock3
  -GOLD-   2272014383D 1   1.00000     0.00000
 Structure written by MMmdl.
 32 33  0  0  0  0  0  0  0  0  1 V2000
  144.3577  135.9297  152.7057 O   0  0  0  0  0  0  0  0  0  0  0  0
  143.7959  134.9527  153.2055 C   0  0  0  0  0  0  0  0  0  0  0  0
  142.5894  134.9090  153.8865 N   0  0  0  0  0  0  0  0  0  0  0  0
  141.8167  135.9502  153.9289 C   0  0  0  0  0  0  0  0  0  0  0  0
  140.6105  135.9230  154.6139 N   0  0  0  0  0  0  0  0  0  0  0  0
  139.8403  137.0030  154.6345 N   0  0  0  0  0  0  0  0  0  0  0  0
  140.3730  137.9594  153.9714 C   0  0  0  0  0  0  0  0  0  0  0  0
  141.9382  137.6218  153.2218 S   0  0  0  0  0  0  0  0  0  0  0  0
  144.3171  133.7156  153.1435 N   0  0  0  0  0  0  0  0  0  0  0  0
  145.5647  133.2415  152.5183 C   0  0  0  0  0  0  0  0  0  0  0  0
  146.7693  133.5178  153.4641 C   0  0  0  0  0  0  0  0  0  0  0  0
  146.6827  132.7672  154.5631 F   0  0  0  0  0  0  0  0  0  0  0  0
  147.9172  133.2248  152.8504 F   0  0  0  0  0  0  0  0  0  0  0  0
  146.8153  134.7926  153.8502 F   0  0  0  0  0  0  0  0  0  0  0  0
  145.4957  131.7357  152.1300 C   0  0  0  0  0  0  0  0  0  0  0  0
  144.3888  131.4283  151.1048 C   0  0  0  0  0  0  0  0  0  0  0  0
  144.5686  132.2683  149.8325 C   0  0  0  0  0  0  0  0  0  0  0  0
  144.6434  133.7661  150.1627 C   0  0  0  0  0  0  0  0  0  0  0  0
  145.7381  134.0575  151.2086 C   0  0  0  0  0  0  0  0  0  0  0  0
  139.9514  138.9542  153.8286 H   0  0  0  0  0  0  0  0  0  0  0  0
  143.7687  132.9915  153.5842 H   0  0  0  0  0  0  0  0  0  0  0  0
  146.4519  131.4348  151.7004 H   0  0  0  0  0  0  0  0  0  0  0  0
  145.3694  131.1028  153.0071 H   0  0  0  0  0  0  0  0  0  0  0  0
  144.4041  130.3680  150.8514 H   0  0  0  0  0  0  0  0  0  0  0  0
  143.4088  131.6235  151.5414 H   0  0  0  0  0  0  0  0  0  0  0  0
  145.4819  131.9626  149.3204 H   0  0  0  0  0  0  0  0  0  0  0  0
  143.7479  132.0784  149.1401 H   0  0  0  0  0  0  0  0  0  0  0  0
  144.8426  134.3331  149.2529 H   0  0  0  0  0  0  0  0  0  0  0  0
  143.6748  134.1089  150.5284 H   0  0  0  0  0  0  0  0  0  0  0  0
  145.7518  135.1260  151.4279 H   0  0  0  0  0  0  0  0  0  0  0  0
  146.7065  133.8337  150.7599 H   0  0  0  0  0  0  0  0  0  0  0  0
  140.2970  135.0942  155.0985 H   0  0  0  0  0  0  0  0  0  0  0  0
  1  2  2  0  0  0  0
  2  3  1  0  0  0  0
  2  9  1  0  0  0  0
  3  4  2  0  0  0  0
  4  8  1  0  0  0  0
  4  5  1  0  0  0  0
  5  6  1  0  0  0  0
  5 32  1  0  0  0  0
  6  7  2  0  0  0  0
  7  8  1  0  0  0  0
  7 20  1  0  0  0  0
  9 10  1  0  0  0  0
  9 21  1  0  0  0  0
 10 19  1  0  0  0  0
 10 11  1  0  0  0  0
 10 15  1  0  0  0  0
 11 12  1  0  0  0  0
 11 13  1  0  0  0  0
 11 14  1  0  0  0  0
 15 16  1  0  0  0  0
 15 22  1  0  0  0  0
 15 23  1  0  0  0  0
 16 17  1  0  0  0  0
 16 24  1  0  0  0  0
 16 25  1  0  0  0  0
 17 18  1  0  0  0  0
 17 26  1  0  0  0  0
 17 27  1  0  0  0  0
 18 19  1  0  0  0  0
 18 28  1  0  0  0  0
 18 29  1  0  0  0  0
 19 30  1  0  0  0  0
 19 31  1  0  0  0  0
M  END
> <s_m_source_file>
AV-unprocessed.smi

> <i_m_source_file_index>
2673

> <i_lp_mmshare_version>
43012

> <i_f3d_flags>
0

> <s_epik_input>
czFbY0hdbm5jMVtOSF1DKD1PKVtOSF1DMihDKEYpKEYpRilbQ0gyXVtDSDJdW0NIMl1bQ0gyXVtDSDJdMg==

> <s_epik_cmdline>
J2VwaWtfcHl0aG9uJywgJy1waCcsICc3LjAnLCAnLXRuJywgJzgnLCAnLW1hJywgJzIwMCcsICctbWV0YWxfYmluZGluZycsICctaW1hZScsICc8aW5maWxlLm1hZT4nLCAnLW9tYWUnLCAnPG91dGZpbGUubWFlPic=

> <r_epik_Ionization_Penalty>
1.69703

> <r_epik_Ionization_Penalty_Charging>
1.69675

> <r_epik_Ionization_Penalty_Neutral>
0.00027895

> <r_epik_State_Penalty>
1.84993

> <r_epik_Charging_Adjusted_Penalty>
3.54668

> <i_epik_Tot_Q>
0

> <i_epik_Tot_abs_Q>
0

> <r_epik_Metal_State_Penalty>
1.90085

> <b_epik_Metal_Only>
0

> <s_lp_Force_Field>
OPLS_2005

> <r_lp_Energy>
22.7267

> <b_lp_Chiralities_Consistent>
1

> <s_lp_Variant>
AV-unprocessed.smi:2673-3

> <Gold.Version>
5.8.1

> <Gold.Id.Protein>
6NUR|6NUR_protein|mol2

> <Gold.PLP.Fitness>
34.4670

> <Gold.PLP.PLP>
-29.7894

> <Gold.PLP.part.hbond>
-1.9867

> <Gold.PLP.part.metal>
0.0000

> <Gold.PLP.part.buried>
-5.4337

> <Gold.PLP.part.nonpolar>
-22.6149

> <Gold.PLP.part.repulsive>
0.3600

> <Gold.PLP.ligand.clash>
0.0000

> <Gold.PLP.ligand.torsion>
0.5556

> <Gold.PLP.Chemscore.Hbond>
1.9193

> <Gold.PLP.Chemscore.CHOScore>
0.0000

> <Gold.PLP.Chemscore.Metal>
0.0000

> <Gold.Chemscore.Hbonds>
donor molecule, donor type, donor heavy atom, donor atom, acceptor molecule, acceptor atom, score
      L1  H     5    32       P1 11000  0.93
      L1  H     9    21       P1 10957  0.99

> <Gold.PLP.Chemscore.Internal.Correction>
0.0310

> <Gold.Rescore>
     Score         DG    S(hbond)    S(metal)    S(lipo)     H(rot)  DE(clash)    DE(int)     intcor
     13.03     -16.26       1.94        0.00      58.55       1.00       0.03       3.20       ----

> <Gold.Chemscore.Fitness>
13.0304

> <Gold.Chemscore.DG>
-16.2600

> <Gold.Chemscore.ZeroCoef>
-5.4800

> <Gold.Chemscore.Hbond>
1.9431

> <Gold.Chemscore.Metal>
0.0000

> <Gold.Chemscore.Lipo>
58.5463

> <Gold.Chemscore.Internal_Hbond>
0.0000

> <Gold.Chemscore.DEClash>
0.0320

> <Gold.Chemscore.DEInternal>
3.1976

> <Gold.Chemscore.Rot>
1.0000

> <Gold.Chemscore.Internal.Correction>
   9.000000E+99

> <Gold.Chemscore.Hbonds>
donor molecule, donor type, donor heavy atom, donor atom, acceptor molecule, acceptor atom, score
      L1  H     5    32       P1 11000  0.90
      L1  H     9    21       P1 10957  0.81

> <Gold.Chemscore.Hbond.Weighted>
-6.4901

> <Gold.Chemscore.Metal.Weighted>
-0.0000

> <Gold.Chemscore.Lipo.Weighted>
-6.8499

> <Gold.Chemscore.Internal_Hbond.Weighted>
0.0000

> <Gold.Chemscore.DEClash.Weighted>
0.0320

> <Gold.Chemscore.DEInternal.Weighted>
3.1976

> <Gold.Chemscore.Rot.Weighted>
2.5600

> <Gold.Chemscore.Internal.Correction.Weighted>
   9.000000E+99

> <Gold.Protein.RotatedTorsions>
[ 6907 6896 6895 6894 ] final  139.64 input  -60.11 | X-H torsion
[ 7974 7965 7964 7962 ] final   98.44 input  175.53 | X-H torsion
[ 8008 7997 7996 7995 ] final  130.37 input   59.86 | X-H torsion
[ 10167 10162 10161 10158 ] final -115.59 input  -65.29 | X-H torsion
[ 10718 10713 10712 10709 ] final  -11.22 input   66.30 | X-H torsion
[ 10763 10752 10751 10750 ] final  -71.09 input  -60.55 | X-H torsion
[ 11005 11000 10999 10996 ] final -141.02 input  -57.11 | X-H torsion

> <Gold.Protein.ActiveResidues>
 VAL166  LYS551  ARG553  GLY616  TRP617  ASP618  TYR619  PRO620  LYS621  CYS622 
 ASP623  PHE694  ASN695  SER759  ASP760  ASP761  ALA762  ILE779  LEU786  VAL792 
 PHE793  MET794  SER795  GLU796  ALA797  LYS798  CYS799  TRP800  GLU811  SER814 

> <Gold.Protein.RotatedAtoms>
  152.2526  133.5228  159.5333 H   0  0  0  0  0  0  0  0  0  0  0  0  # atno 6907 bound_to 6896
  150.7098  134.0940  159.3951 H   0  0  0  0  0  0  0  0  0  0  0  0  # atno 6908 bound_to 6896
  151.8859  135.0435  160.0544 H   0  0  0  0  0  0  0  0  0  0  0  0  # atno 6909 bound_to 6896
  145.4121  139.2332  143.3242 H   0  0  0  0  0  0  0  0  0  0  0  0  # atno 7974 bound_to 7965
  156.2953  140.2597  156.2751 H   0  0  0  0  0  0  0  0  0  0  0  0  # atno 8008 bound_to 7997
  154.9657  140.0392  157.2229 H   0  0  0  0  0  0  0  0  0  0  0  0  # atno 8009 bound_to 7997
  154.7905  140.2811  155.5999 H   0  0  0  0  0  0  0  0  0  0  0  0  # atno 8010 bound_to 7997
  140.0884  143.4722  152.1884 H   0  0  0  0  0  0  0  0  0  0  0  0  # atno 10167 bound_to 10162
  156.6622  130.4985  149.6027 H   0  0  0  0  0  0  0  0  0  0  0  0  # atno 10718 bound_to 10713
  154.4269  135.5973  153.6044 H   0  0  0  0  0  0  0  0  0  0  0  0  # atno 10763 bound_to 10752
  152.9796  135.5966  154.3886 H   0  0  0  0  0  0  0  0  0  0  0  0  # atno 10764 bound_to 10752
  154.3719  135.2841  155.2240 H   0  0  0  0  0  0  0  0  0  0  0  0  # atno 10765 bound_to 10752
  140.8365  134.2454  157.4831 H   0  0  0  0  0  0  0  0  0  0  0  0  # atno 11005 bound_to 11000
  146.2699  140.4834  142.8818 LP  0  0  0  0  0  0  0  0  0  0  0  0  # atno 17320 bound_to 7965
  144.8302  140.6694  143.6296 LP  0  0  0  0  0  0  0  0  0  0  0  0  # atno 17321 bound_to 7965
  139.5739  144.7477  151.3817 LP  0  0  0  0  0  0  0  0  0  0  0  0  # atno 17342 bound_to 10162
  140.7041  143.7557  150.7453 LP  0  0  0  0  0  0  0  0  0  0  0  0  # atno 17343 bound_to 10162
  156.2002  130.6615  151.1159 LP  0  0  0  0  0  0  0  0  0  0  0  0  # atno 17370 bound_to 10713
  157.7106  131.0736  150.6515 LP  0  0  0  0  0  0  0  0  0  0  0  0  # atno 17371 bound_to 10713
  139.8704  134.9613  156.4393 LP  0  0  0  0  0  0  0  0  0  0  0  0  # atno 17394 bound_to 11000
  140.8942  133.7826  155.9606 LP  0  0  0  0  0  0  0  0  0  0  0  0  # atno 17395 bound_to 11000

$$$$
