AV-unprocessed.smi:338|AV-procd|sdf|2376|dock10
  -GOLD-   2262022303D 1   1.00000     0.00000
 Structure written by MMmdl.
 42 44  0  0  0  0  0  0  0  0  2 V2000
  145.4965  142.7080  157.3389 C   0  0  0  0  0  0  0  0  0  0  0  0
  146.4909  141.5748  157.5879 C   0  0  0  0  0  0  0  0  0  0  0  0
  146.5234  141.0534  158.7022 O   0  0  0  0  0  0  0  0  0  0  0  0
  147.3723  141.1605  156.4583 C   0  0  0  0  0  0  0  0  0  0  0  0
  147.3341  141.8204  155.2078 C   0  0  0  0  0  0  0  0  0  0  0  0
  148.1768  141.4063  154.1604 C   0  0  0  0  0  0  0  0  0  0  0  0
  149.0637  140.3315  154.3501 C   0  0  0  0  0  0  0  0  0  0  0  0
  149.1226  139.6583  155.5858 C   0  0  0  0  0  0  0  0  0  0  0  0
  150.0190  138.6155  155.6846 O   0  0  0  0  0  0  0  0  0  0  0  0
  151.1716  138.6332  154.8525 C   0  0  0  0  0  0  0  0  0  0  0  0
  152.1832  139.6379  155.4238 C   0  0  2  0  0  0  0  0  0  0  0  0
  153.4875  139.1589  155.1610 O   0  0  0  0  0  0  0  0  0  0  0  0
  151.9978  139.8638  156.9376 C   0  0  0  0  0  0  0  0  0  0  0  0
  151.5197  141.2165  157.2580 N   0  0  0  0  0  0  0  0  0  0  0  0
  150.6992  142.0363  156.5466 C   0  0  0  0  0  0  0  0  0  0  0  0
  150.5451  143.1856  157.2605 N   0  3  0  0  0  0  0  0  0  0  0  0
  151.2795  143.1007  158.4451 C   0  0  0  0  0  0  0  0  0  0  0  0
  151.4357  144.0107  159.4863 C   0  0  0  0  0  0  0  0  0  0  0  0
  152.2641  143.6125  160.5560 C   0  0  0  0  0  0  0  0  0  0  0  0
  152.9001  142.3542  160.5631 C   0  0  0  0  0  0  0  0  0  0  0  0
  152.7335  141.4391  159.5028 C   0  0  0  0  0  0  0  0  0  0  0  0
  151.9109  141.8388  158.4496 C   0  0  0  0  0  0  0  0  0  0  0  0
  148.2709  140.0822  156.6374 C   0  0  0  0  0  0  0  0  0  0  0  0
  144.8152  142.4486  156.5284 H   0  0  0  0  0  0  0  0  0  0  0  0
  146.0221  143.6267  157.0775 H   0  0  0  0  0  0  0  0  0  0  0  0
  144.9038  142.8987  158.2338 H   0  0  0  0  0  0  0  0  0  0  0  0
  146.6654  142.6488  155.0280 H   0  0  0  0  0  0  0  0  0  0  0  0
  148.1430  141.9149  153.2082 H   0  0  0  0  0  0  0  0  0  0  0  0
  149.7058  140.0210  153.5387 H   0  0  0  0  0  0  0  0  0  0  0  0
  151.6213  137.6403  154.7941 H   0  0  0  0  0  0  0  0  0  0  0  0
  150.8855  138.9368  153.8439 H   0  0  0  0  0  0  0  0  0  0  0  0
  152.0727  140.5882  154.8998 H   0  0  0  0  0  0  0  0  0  0  0  0
  153.4289  138.2481  154.9155 H   0  0  0  0  0  0  0  0  0  0  0  0
  151.2569  139.1658  157.3293 H   0  0  0  0  0  0  0  0  0  0  0  0
  152.9195  139.6654  157.4848 H   0  0  0  0  0  0  0  0  0  0  0  0
  150.2504  141.8139  155.5893 H   0  0  0  0  0  0  0  0  0  0  0  0
  150.9510  144.9760  159.4823 H   0  0  0  0  0  0  0  0  0  0  0  0
  152.4163  144.2866  161.3866 H   0  0  0  0  0  0  0  0  0  0  0  0
  153.5305  142.0850  161.3982 H   0  0  0  0  0  0  0  0  0  0  0  0
  153.2310  140.4806  159.5167 H   0  0  0  0  0  0  0  0  0  0  0  0
  148.2958  139.5826  157.5941 H   0  0  0  0  0  0  0  0  0  0  0  0
  149.9801  143.9691  156.9586 H   0  0  0  0  0  0  0  0  0  0  0  0
  1  2  1  0  0  0  0
  1 24  1  0  0  0  0
  1 25  1  0  0  0  0
  1 26  1  0  0  0  0
  2  3  2  0  0  0  0
  2  4  1  0  0  0  0
  4 23  1  0  0  0  0
  4  5  2  0  0  0  0
  5  6  1  0  0  0  0
  5 27  1  0  0  0  0
  6  7  2  0  0  0  0
  6 28  1  0  0  0  0
  7  8  1  0  0  0  0
  7 29  1  0  0  0  0
  8  9  1  0  0  0  0
  8 23  2  0  0  0  0
  9 10  1  0  0  0  0
 10 11  1  0  0  0  0
 10 30  1  0  0  0  0
 10 31  1  0  0  0  0
 11 12  1  0  0  0  0
 11 13  1  0  0  0  0
 11 32  1  0  0  0  0
 12 33  1  0  0  0  0
 13 14  1  0  0  0  0
 13 34  1  0  0  0  0
 13 35  1  0  0  0  0
 14 22  1  0  0  0  0
 14 15  1  0  0  0  0
 15 16  2  0  0  0  0
 15 36  1  0  0  0  0
 16 17  1  0  0  0  0
 16 42  1  0  0  0  0
 17 22  2  0  0  0  0
 17 18  1  0  0  0  0
 18 19  2  0  0  0  0
 18 37  1  0  0  0  0
 19 20  1  0  0  0  0
 19 38  1  0  0  0  0
 20 21  2  0  0  0  0
 20 39  1  0  0  0  0
 21 22  1  0  0  0  0
 21 40  1  0  0  0  0
 23 41  1  0  0  0  0
M  CHG  1  16   1
M  END
> <s_m_source_file>
AV-unprocessed.smi

> <i_m_source_file_index>
338

> <i_lp_mmshare_version>
43012

> <i_f3d_flags>
0

> <s_epik_input>
W0NIM11DKD1PKWMxW2NIXVtjSF1bY0hdYyhbY0hdMSlPW0NIMl1bQ0BIXShbT0hdKVtDSDJdbihbY0hdbjIpYyhjMjMpW2NIXVtjSF1bY0hdW2NIXTM=

> <s_epik_cmdline>
J2VwaWtfcHl0aG9uJywgJy1waCcsICc3LjAnLCAnLXRuJywgJzgnLCAnLW1hJywgJzIwMCcsICctbWV0YWxfYmluZGluZycsICctaW1hZScsICc8aW5maWxlLm1hZT4nLCAnLW9tYWUnLCAnPG91dGZpbGUubWFlPic=

> <r_lp_tautomer_probability>
0.99995

> <r_epik_Ionization_Penalty>
1.35015

> <r_epik_Ionization_Penalty_Charging>
1.35015

> <r_epik_Ionization_Penalty_Neutral>
2.3993e-06

> <r_epik_State_Penalty>
1.42814

> <r_epik_Charging_Adjusted_Penalty>
2.77829

> <i_epik_Tot_Q>
1

> <i_epik_Tot_abs_Q>
1

> <r_epik_Metal_State_Penalty>
5.46522

> <b_epik_Metal_Only>
0

> <s_lp_Force_Field>
OPLS_2005

> <r_lp_Energy>
26.3487

> <b_lp_Chiralities_Consistent>
1

> <s_lp_Variant>
AV-unprocessed.smi:338-3

> <Gold.Version>
5.8.1

> <Gold.Id.Protein>
6NUR|6NUR_protein|mol2

> <Gold.PLP.Fitness>
52.7975

> <Gold.PLP.PLP>
-45.9148

> <Gold.PLP.part.hbond>
-3.0000

> <Gold.PLP.part.metal>
0.0000

> <Gold.PLP.part.buried>
-5.9298

> <Gold.PLP.part.nonpolar>
-37.9278

> <Gold.PLP.part.repulsive>
0.0295

> <Gold.PLP.ligand.clash>
0.0000

> <Gold.PLP.ligand.torsion>
1.9839

> <Gold.PLP.Chemscore.Hbond>
3.5868

> <Gold.PLP.Chemscore.CHOScore>
0.0000

> <Gold.PLP.Chemscore.Metal>
0.0000

> <Gold.Chemscore.Hbonds>
donor molecule, donor type, donor heavy atom, donor atom, acceptor molecule, acceptor atom, score
      L1  H    16    42       P1  8028  1.98
      P1  H  6934  6946       L1     3  0.42
      P1  H  7997  8009       L1    12  1.00

> <Gold.PLP.Chemscore.Internal.Correction>
0.0901

> <Gold.Rescore>
     Score         DG    S(hbond)    S(metal)    S(lipo)     H(rot)  DE(clash)    DE(int)     intcor
     18.10     -20.11       2.54        0.00     106.76       2.48       0.02       1.99       ----

> <Gold.Chemscore.Fitness>
18.0985

> <Gold.Chemscore.DG>
-20.1109

> <Gold.Chemscore.ZeroCoef>
-5.4800

> <Gold.Chemscore.Hbond>
2.5447

> <Gold.Chemscore.Metal>
0.0000

> <Gold.Chemscore.Lipo>
106.7613

> <Gold.Chemscore.Internal_Hbond>
0.0000

> <Gold.Chemscore.DEClash>
0.0234

> <Gold.Chemscore.DEInternal>
1.9889

> <Gold.Chemscore.Rot>
2.4842

> <Gold.Chemscore.Internal.Correction>
   9.000000E+99

> <Gold.Chemscore.Hbonds>
donor molecule, donor type, donor heavy atom, donor atom, acceptor molecule, acceptor atom, score
      L1  H    16    42       P1  8028  0.89
      P1  H  6934  6946       L1     3  0.39
      P1  H  7997  8009       L1    12  0.67

> <Gold.Chemscore.Hbond.Weighted>
-8.4992

> <Gold.Chemscore.Metal.Weighted>
-0.0000

> <Gold.Chemscore.Lipo.Weighted>
-12.4911

> <Gold.Chemscore.Internal_Hbond.Weighted>
0.0000

> <Gold.Chemscore.DEClash.Weighted>
0.0234

> <Gold.Chemscore.DEInternal.Weighted>
1.9889

> <Gold.Chemscore.Rot.Weighted>
6.3594

> <Gold.Chemscore.Internal.Correction.Weighted>
   9.000000E+99

> <Gold.Protein.RotatedTorsions>
[ 6907 6896 6895 6894 ] final -137.01 input  -60.11 | X-H torsion
[ 7974 7965 7964 7962 ] final  159.54 input  175.53 | X-H torsion
[ 8008 7997 7996 7995 ] final -126.63 input   59.86 | X-H torsion
[ 10167 10162 10161 10158 ] final   75.49 input  -65.29 | X-H torsion
[ 10718 10713 10712 10709 ] final  138.33 input   66.30 | X-H torsion
[ 10763 10752 10751 10750 ] final  127.75 input  -60.55 | X-H torsion
[ 11005 11000 10999 10996 ] final -123.14 input  -57.11 | X-H torsion

> <Gold.Protein.ActiveResidues>
 VAL166  LYS551  ARG553  GLY616  TRP617  ASP618  TYR619  PRO620  LYS621  CYS622 
 ASP623  PHE694  ASN695  SER759  ASP760  ASP761  ALA762  ILE779  LEU786  VAL792 
 PHE793  MET794  SER795  GLU796  ALA797  LYS798  CYS799  TRP800  GLU811  SER814 

> <Gold.Protein.RotatedAtoms>
  151.0171  133.5911  159.2675 H   0  0  0  0  0  0  0  0  0  0  0  0  # atno 6907 bound_to 6896
  151.3041  135.0776  159.9259 H   0  0  0  0  0  0  0  0  0  0  0  0  # atno 6908 bound_to 6896
  152.5314  133.9848  159.7877 H   0  0  0  0  0  0  0  0  0  0  0  0  # atno 6909 bound_to 6896
  144.7785  139.7632  143.6269 H   0  0  0  0  0  0  0  0  0  0  0  0  # atno 7974 bound_to 7965
  155.2328  140.0426  157.2964 H   0  0  0  0  0  0  0  0  0  0  0  0  # atno 8008 bound_to 7997
  154.5877  140.2418  155.7934 H   0  0  0  0  0  0  0  0  0  0  0  0  # atno 8009 bound_to 7997
  156.2238  140.2961  156.0025 H   0  0  0  0  0  0  0  0  0  0  0  0  # atno 8010 bound_to 7997
  140.0024  144.5676  150.7726 H   0  0  0  0  0  0  0  0  0  0  0  0  # atno 10167 bound_to 10162
  157.4265  131.1044  151.0297 H   0  0  0  0  0  0  0  0  0  0  0  0  # atno 10718 bound_to 10713
  153.7145  135.3263  155.3253 H   0  0  0  0  0  0  0  0  0  0  0  0  # atno 10763 bound_to 10752
  154.8375  135.4484  154.1280 H   0  0  0  0  0  0  0  0  0  0  0  0  # atno 10764 bound_to 10752
  153.2383  135.6968  153.7891 H   0  0  0  0  0  0  0  0  0  0  0  0  # atno 10765 bound_to 10752
  140.9942  134.0496  157.3618 H   0  0  0  0  0  0  0  0  0  0  0  0  # atno 11005 bound_to 11000
  146.1979  139.5256  142.9763 LP  0  0  0  0  0  0  0  0  0  0  0  0  # atno 17320 bound_to 7965
  145.6118  141.0338  143.1962 LP  0  0  0  0  0  0  0  0  0  0  0  0  # atno 17321 bound_to 7965
  140.7413  143.2817  151.3580 LP  0  0  0  0  0  0  0  0  0  0  0  0  # atno 17342 bound_to 10162
  139.6262  144.0809  152.2436 LP  0  0  0  0  0  0  0  0  0  0  0  0  # atno 17343 bound_to 10162
  157.1209  130.6061  149.5505 LP  0  0  0  0  0  0  0  0  0  0  0  0  # atno 17370 bound_to 10713
  155.9898  130.4947  150.7230 LP  0  0  0  0  0  0  0  0  0  0  0  0  # atno 17371 bound_to 10713
  139.9006  135.0163  156.7251 LP  0  0  0  0  0  0  0  0  0  0  0  0  # atno 17394 bound_to 11000
  140.6993  133.9321  155.8014 LP  0  0  0  0  0  0  0  0  0  0  0  0  # atno 17395 bound_to 11000

$$$$
