AV-unprocessed.smi:574|AV-procd|sdf|2975|dock2
  -GOLD-   2262023483D 1   1.00000     0.00000
 Structure written by MMmdl.
 40 41  0  0  0  0  0  0  0  0  1 V2000
  150.6359  141.5155  156.4199 C   0  0  0  0  0  0  0  0  0  0  0  0
  150.6430  140.3119  155.4838 C   0  0  0  0  0  0  0  0  0  0  0  0
  151.6797  139.9821  154.9088 O   0  0  0  0  0  0  0  0  0  0  0  0
  149.4765  139.6661  155.3390 N   0  0  0  0  0  0  0  0  0  0  0  0
  149.2667  138.4957  154.4958 C   0  0  0  0  0  0  0  0  0  0  0  0
  150.1242  137.3047  154.9595 C   0  0  0  0  0  0  0  0  0  0  0  0
  149.6688  136.0556  154.3630 N   0  0  0  0  0  0  0  0  0  0  0  0
  149.3735  134.9369  155.0437 C   0  0  0  0  0  0  0  0  0  0  0  0
  149.4134  134.8570  156.2720 O   0  0  0  0  0  0  0  0  0  0  0  0
  148.9046  133.7755  154.2149 C   0  0  0  0  0  0  0  0  0  0  0  0
  147.9732  134.0495  153.2728 N   0  0  0  0  0  0  0  0  0  0  0  0
  147.5137  133.0472  152.5138 C   0  0  0  0  0  0  0  0  0  0  0  0
  146.5492  133.3577  151.5462 N   0  0  0  0  0  0  0  0  0  0  0  0
  145.6997  134.5433  151.6558 C   0  0  0  0  0  0  0  0  0  0  0  0
  144.3659  134.1585  152.3213 C   0  0  0  0  0  0  0  0  0  0  0  0
  143.7332  133.1320  151.5593 O   0  0  0  0  0  0  0  0  0  0  0  0
  144.5378  131.9602  151.4421 C   0  0  0  0  0  0  0  0  0  0  0  0
  145.8740  132.3203  150.7673 C   0  0  0  0  0  0  0  0  0  0  0  0
  147.9076  131.7719  152.6123 N   0  0  0  0  0  0  0  0  0  0  0  0
  148.8257  131.4696  153.5533 C   0  0  0  0  0  0  0  0  0  0  0  0
  149.3691  132.4482  154.4080 C   0  0  0  0  0  0  0  0  0  0  0  0
  150.5063  131.9866  155.6287 Cl  0  0  0  0  0  0  0  0  0  0  0  0
  150.2407  141.2388  157.3975 H   0  0  0  0  0  0  0  0  0  0  0  0
  150.0155  142.3119  156.0083 H   0  0  0  0  0  0  0  0  0  0  0  0
  151.6446  141.9056  156.5583 H   0  0  0  0  0  0  0  0  0  0  0  0
  148.6770  140.0095  155.8516 H   0  0  0  0  0  0  0  0  0  0  0  0
  148.2092  138.2256  154.4842 H   0  0  0  0  0  0  0  0  0  0  0  0
  149.5264  138.7717  153.4735 H   0  0  0  0  0  0  0  0  0  0  0  0
  151.1761  137.4717  154.7212 H   0  0  0  0  0  0  0  0  0  0  0  0
  150.0643  137.1972  156.0428 H   0  0  0  0  0  0  0  0  0  0  0  0
  149.5857  136.0325  153.3568 H   0  0  0  0  0  0  0  0  0  0  0  0
  146.1789  135.3555  152.2017 H   0  0  0  0  0  0  0  0  0  0  0  0
  145.5115  134.9303  150.6537 H   0  0  0  0  0  0  0  0  0  0  0  0
  144.5255  133.8201  153.3464 H   0  0  0  0  0  0  0  0  0  0  0  0
  143.7040  135.0233  152.3683 H   0  0  0  0  0  0  0  0  0  0  0  0
  144.7042  131.5194  152.4264 H   0  0  0  0  0  0  0  0  0  0  0  0
  144.0020  131.2210  150.8466 H   0  0  0  0  0  0  0  0  0  0  0  0
  145.6860  132.7057  149.7646 H   0  0  0  0  0  0  0  0  0  0  0  0
  146.4874  131.4301  150.6324 H   0  0  0  0  0  0  0  0  0  0  0  0
  149.1208  130.4337  153.6314 H   0  0  0  0  0  0  0  0  0  0  0  0
  1  2  1  0  0  0  0
  1 23  1  0  0  0  0
  1 24  1  0  0  0  0
  1 25  1  0  0  0  0
  2  3  2  0  0  0  0
  2  4  1  0  0  0  0
  4  5  1  0  0  0  0
  4 26  1  0  0  0  0
  5  6  1  0  0  0  0
  5 27  1  0  0  0  0
  5 28  1  0  0  0  0
  6  7  1  0  0  0  0
  6 29  1  0  0  0  0
  6 30  1  0  0  0  0
  7  8  1  0  0  0  0
  7 31  1  0  0  0  0
  8  9  2  0  0  0  0
  8 10  1  0  0  0  0
 10 21  1  0  0  0  0
 10 11  2  0  0  0  0
 11 12  1  0  0  0  0
 12 13  1  0  0  0  0
 12 19  2  0  0  0  0
 13 18  1  0  0  0  0
 13 14  1  0  0  0  0
 14 15  1  0  0  0  0
 14 32  1  0  0  0  0
 14 33  1  0  0  0  0
 15 16  1  0  0  0  0
 15 34  1  0  0  0  0
 15 35  1  0  0  0  0
 16 17  1  0  0  0  0
 17 18  1  0  0  0  0
 17 36  1  0  0  0  0
 17 37  1  0  0  0  0
 18 38  1  0  0  0  0
 18 39  1  0  0  0  0
 19 20  1  0  0  0  0
 20 21  2  0  0  0  0
 20 40  1  0  0  0  0
 21 22  1  0  0  0  0
M  END
> <s_m_source_file>
AV-unprocessed.smi

> <i_m_source_file_index>
574

> <i_lp_mmshare_version>
43012

> <i_f3d_flags>
0

> <s_epik_input>
W0NIM11DKD1PKVtOSF1bQ0gyXVtDSDJdW05IXUMoPU8pYzFuYyhuW2NIXWMxQ2wpTjJbQ0gyXVtDSDJdT1tDSDJdW0NIMl0y

> <s_epik_cmdline>
J2VwaWtfcHl0aG9uJywgJy1waCcsICc3LjAnLCAnLXRuJywgJzgnLCAnLW1hJywgJzIwMCcsICctbWV0YWxfYmluZGluZycsICctaW1hZScsICc8aW5maWxlLm1hZT4nLCAnLW9tYWUnLCAnPG91dGZpbGUubWFlPic=

> <r_lp_tautomer_probability>
1

> <r_epik_Ionization_Penalty>
4.61473e-05

> <r_epik_Ionization_Penalty_Charging>
0

> <r_epik_Ionization_Penalty_Neutral>
4.61473e-05

> <r_epik_State_Penalty>
-0

> <r_epik_Charging_Adjusted_Penalty>
0

> <i_epik_Tot_Q>
0

> <i_epik_Tot_abs_Q>
0

> <r_epik_Metal_State_Penalty>
0.0410325

> <b_epik_Metal_Only>
0

> <s_lp_Force_Field>
OPLS_2005

> <r_lp_Energy>
11.2452

> <b_lp_Chiralities_Consistent>
1

> <s_lp_Variant>
AV-unprocessed.smi:574-1

> <Gold.Version>
5.8.1

> <Gold.Id.Protein>
6NUR|6NUR_protein|mol2

> <Gold.PLP.Fitness>
37.8814

> <Gold.PLP.PLP>
-33.6891

> <Gold.PLP.part.hbond>
-2.2187

> <Gold.PLP.part.metal>
0.0000

> <Gold.PLP.part.buried>
-6.6230

> <Gold.PLP.part.nonpolar>
-29.9968

> <Gold.PLP.part.repulsive>
4.7998

> <Gold.PLP.ligand.clash>
0.0000

> <Gold.PLP.ligand.torsion>
1.0053

> <Gold.PLP.Chemscore.Hbond>
2.0000

> <Gold.PLP.Chemscore.CHOScore>
0.0000

> <Gold.PLP.Chemscore.Metal>
0.0000

> <Gold.Chemscore.Hbonds>
donor molecule, donor type, donor heavy atom, donor atom, acceptor molecule, acceptor atom, score
      L1  H     7    31       P1  7948  1.00
      P1  H  7989  7998       L1     3  1.00

> <Gold.PLP.Chemscore.Internal.Correction>
0.2029

> <Gold.Rescore>
     Score         DG    S(hbond)    S(metal)    S(lipo)     H(rot)  DE(clash)    DE(int)     intcor
     12.00     -14.53       1.91        0.00      59.79       1.70       1.47       1.06       ----

> <Gold.Chemscore.Fitness>
12.0011

> <Gold.Chemscore.DG>
-14.5303

> <Gold.Chemscore.ZeroCoef>
-5.4800

> <Gold.Chemscore.Hbond>
1.9149

> <Gold.Chemscore.Metal>
0.0000

> <Gold.Chemscore.Lipo>
59.7916

> <Gold.Chemscore.Internal_Hbond>
0.0000

> <Gold.Chemscore.DEClash>
1.4685

> <Gold.Chemscore.DEInternal>
1.0608

> <Gold.Chemscore.Rot>
1.6957

> <Gold.Chemscore.Internal.Correction>
   9.000000E+99

> <Gold.Chemscore.Hbonds>
donor molecule, donor type, donor heavy atom, donor atom, acceptor molecule, acceptor atom, score
      L1  H     7    31       P1  7948  0.25
      P1  H  7989  7998       L1     3  0.43

> <Gold.Chemscore.Hbond.Weighted>
-6.3957

> <Gold.Chemscore.Metal.Weighted>
-0.0000

> <Gold.Chemscore.Lipo.Weighted>
-6.9956

> <Gold.Chemscore.Internal_Hbond.Weighted>
0.0000

> <Gold.Chemscore.DEClash.Weighted>
1.4685

> <Gold.Chemscore.DEInternal.Weighted>
1.0608

> <Gold.Chemscore.Rot.Weighted>
4.3410

> <Gold.Chemscore.Internal.Correction.Weighted>
   9.000000E+99

> <Gold.Protein.RotatedTorsions>
[ 6907 6896 6895 6894 ] final  -66.96 input  -60.11 | X-H torsion
[ 7974 7965 7964 7962 ] final   27.83 input  175.53 | X-H torsion
[ 8008 7997 7996 7995 ] final   -6.03 input   59.86 | X-H torsion
[ 10167 10162 10161 10158 ] final -120.01 input  -65.29 | X-H torsion
[ 10718 10713 10712 10709 ] final  115.00 input   66.30 | X-H torsion
[ 10763 10752 10751 10750 ] final    1.88 input  -60.55 | X-H torsion
[ 11005 11000 10999 10996 ] final   63.77 input  -57.11 | X-H torsion

> <Gold.Protein.ActiveResidues>
 VAL166  LYS551  ARG553  GLY616  TRP617  ASP618  TYR619  PRO620  LYS621  CYS622 
 ASP623  PHE694  ASN695  SER759  ASP760  ASP761  ALA762  ILE779  LEU786  VAL792 
 PHE793  MET794  SER795  GLU796  ALA797  LYS798  CYS799  TRP800  GLU811  SER814 

> <Gold.Protein.RotatedAtoms>
  150.7436  134.5948  159.6005 H   0  0  0  0  0  0  0  0  0  0  0  0  # atno 6907 bound_to 6896
  152.3326  134.7237  160.0294 H   0  0  0  0  0  0  0  0  0  0  0  0  # atno 6908 bound_to 6896
  151.7716  133.3306  159.3482 H   0  0  0  0  0  0  0  0  0  0  0  0  # atno 6909 bound_to 6896
  146.1762  139.7138  142.8932 H   0  0  0  0  0  0  0  0  0  0  0  0  # atno 7974 bound_to 7965
  154.5978  140.2443  155.7833 H   0  0  0  0  0  0  0  0  0  0  0  0  # atno 8008 bound_to 7997
  156.2291  140.2972  156.0095 H   0  0  0  0  0  0  0  0  0  0  0  0  # atno 8009 bound_to 7997
  155.2262  140.0402  157.2946 H   0  0  0  0  0  0  0  0  0  0  0  0  # atno 8010 bound_to 7997
  140.0405  143.5158  152.2132 H   0  0  0  0  0  0  0  0  0  0  0  0  # atno 10167 bound_to 10162
  157.6248  131.1006  150.7266 H   0  0  0  0  0  0  0  0  0  0  0  0  # atno 10718 bound_to 10713
  153.3025  135.6957  153.7190 H   0  0  0  0  0  0  0  0  0  0  0  0  # atno 10763 bound_to 10752
  153.6098  135.3446  155.2975 H   0  0  0  0  0  0  0  0  0  0  0  0  # atno 10764 bound_to 10752
  154.8554  135.4360  154.2140 H   0  0  0  0  0  0  0  0  0  0  0  0  # atno 10765 bound_to 10752
  140.0003  134.6453  155.9942 H   0  0  0  0  0  0  0  0  0  0  0  0  # atno 11005 bound_to 11000
  145.4203  141.0406  143.2967 LP  0  0  0  0  0  0  0  0  0  0  0  0  # atno 17320 bound_to 7965
  144.8241  139.5741  143.6973 LP  0  0  0  0  0  0  0  0  0  0  0  0  # atno 17321 bound_to 7965
  139.6017  144.7584  151.3156 LP  0  0  0  0  0  0  0  0  0  0  0  0  # atno 17342 bound_to 10162
  140.7262  143.6996  150.7856 LP  0  0  0  0  0  0  0  0  0  0  0  0  # atno 17343 bound_to 10162
  156.7616  130.4800  149.5436 LP  0  0  0  0  0  0  0  0  0  0  0  0  # atno 17370 bound_to 10713
  156.1414  130.6247  151.0472 LP  0  0  0  0  0  0  0  0  0  0  0  0  # atno 17371 bound_to 10713
  141.1636  133.6537  156.4403 LP  0  0  0  0  0  0  0  0  0  0  0  0  # atno 17394 bound_to 11000
  140.4741  134.6725  157.5142 LP  0  0  0  0  0  0  0  0  0  0  0  0  # atno 17395 bound_to 11000

$$$$
