AV-unprocessed.smi:3345|AV-procd|sdf|12905|dock6
  -GOLD-   2272019313D 1   1.00000     0.00000
 Structure written by MMmdl.
 41 42  0  0  0  0  0  0  0  0  2 V2000
  147.6147  135.9091  156.6400 C   0  0  0  0  0  0  0  0  0  0  0  0
  147.3497  135.8778  155.1287 C   0  0  2  0  0  0  0  0  0  0  0  0
  147.6657  134.4870  154.5309 C   0  0  0  0  0  0  0  0  0  0  0  0
  147.3398  134.3887  153.0857 N   0  3  0  0  0  0  0  0  0  0  0  0
  147.2830  132.9934  152.5917 C   0  0  0  0  0  0  0  0  0  0  0  0
  147.0314  132.9796  151.0739 C   0  0  0  0  0  0  0  0  0  0  0  0
  145.8304  133.6834  150.7810 O   0  0  0  0  0  0  0  0  0  0  0  0
  145.8972  135.0462  151.1839 C   0  0  0  0  0  0  0  0  0  0  0  0
  146.1085  135.1221  152.7050 C   0  0  0  0  0  0  0  0  0  0  0  0
  148.1414  136.9274  154.4854 N   0  0  0  0  0  0  0  0  0  0  0  0
  148.0382  138.2476  154.7116 C   0  0  0  0  0  0  0  0  0  0  0  0
  147.2194  138.7343  155.4920 O   0  0  0  0  0  0  0  0  0  0  0  0
  149.0011  139.1513  153.9278 C   0  0  1  0  0  0  0  0  0  0  0  0
  148.6223  140.6420  154.0390 C   0  0  0  0  0  0  0  0  0  0  0  0
  150.3757  138.8943  154.3383 N   0  0  0  0  0  0  0  0  0  0  0  0
  151.0472  137.7426  154.4093 C   0  0  0  0  0  0  0  0  0  0  0  0
  152.2816  137.8661  154.8757 N   0  0  0  0  0  0  0  0  0  0  0  0
  152.3072  139.2134  155.0998 C   0  0  0  0  0  0  0  0  0  0  0  0
  151.1876  139.8748  154.8071 N   0  0  0  0  0  0  0  0  0  0  0  0
  147.0229  135.1534  157.1575 H   0  0  0  0  0  0  0  0  0  0  0  0
  147.3518  136.8785  157.0650 H   0  0  0  0  0  0  0  0  0  0  0  0
  148.6650  135.7202  156.8652 H   0  0  0  0  0  0  0  0  0  0  0  0
  146.2894  136.0946  154.9914 H   0  0  0  0  0  0  0  0  0  0  0  0
  148.7303  134.2929  154.6712 H   0  0  0  0  0  0  0  0  0  0  0  0
  147.1410  133.7021  155.0780 H   0  0  0  0  0  0  0  0  0  0  0  0
  148.2215  132.4822  152.8099 H   0  0  0  0  0  0  0  0  0  0  0  0
  146.4910  132.4514  153.1111 H   0  0  0  0  0  0  0  0  0  0  0  0
  147.8693  133.4275  150.5365 H   0  0  0  0  0  0  0  0  0  0  0  0
  146.9363  131.9537  150.7178 H   0  0  0  0  0  0  0  0  0  0  0  0
  146.7018  135.5578  150.6528 H   0  0  0  0  0  0  0  0  0  0  0  0
  144.9665  135.5425  150.9086 H   0  0  0  0  0  0  0  0  0  0  0  0
  145.2492  134.6927  153.2225 H   0  0  0  0  0  0  0  0  0  0  0  0
  146.1761  136.1657  153.0107 H   0  0  0  0  0  0  0  0  0  0  0  0
  148.8425  136.6206  153.8262 H   0  0  0  0  0  0  0  0  0  0  0  0
  148.9284  138.8801  152.8730 H   0  0  0  0  0  0  0  0  0  0  0  0
  147.6088  140.8166  153.6764 H   0  0  0  0  0  0  0  0  0  0  0  0
  149.2930  141.2585  153.4400 H   0  0  0  0  0  0  0  0  0  0  0  0
  148.6711  141.0049  155.0666 H   0  0  0  0  0  0  0  0  0  0  0  0
  150.6229  136.7931  154.1172 H   0  0  0  0  0  0  0  0  0  0  0  0
  153.1741  139.7206  155.4968 H   0  0  0  0  0  0  0  0  0  0  0  0
  148.1053  134.8288  152.5943 H   0  0  0  0  0  0  0  0  0  0  0  0
  1  2  1  0  0  0  0
  1 20  1  0  0  0  0
  1 21  1  0  0  0  0
  1 22  1  0  0  0  0
  2  3  1  0  0  0  0
  2 10  1  0  0  0  0
  2 23  1  0  0  0  0
  3  4  1  0  0  0  0
  3 24  1  0  0  0  0
  3 25  1  0  0  0  0
  4  9  1  0  0  0  0
  4  5  1  0  0  0  0
  4 41  1  0  0  0  0
  5  6  1  0  0  0  0
  5 26  1  0  0  0  0
  5 27  1  0  0  0  0
  6  7  1  0  0  0  0
  6 28  1  0  0  0  0
  6 29  1  0  0  0  0
  7  8  1  0  0  0  0
  8  9  1  0  0  0  0
  8 30  1  0  0  0  0
  8 31  1  0  0  0  0
  9 32  1  0  0  0  0
  9 33  1  0  0  0  0
 10 11  1  0  0  0  0
 10 34  1  0  0  0  0
 11 12  2  0  0  0  0
 11 13  1  0  0  0  0
 13 14  1  0  0  0  0
 13 15  1  0  0  0  0
 13 35  1  0  0  0  0
 14 36  1  0  0  0  0
 14 37  1  0  0  0  0
 14 38  1  0  0  0  0
 15 19  1  0  0  0  0
 15 16  1  0  0  0  0
 16 17  2  0  0  0  0
 16 39  1  0  0  0  0
 17 18  1  0  0  0  0
 18 19  2  0  0  0  0
 18 40  1  0  0  0  0
M  CHG  1   4   1
M  END
> <s_m_source_file>
AV-unprocessed.smi

> <i_m_source_file_index>
3345

> <i_lp_mmshare_version>
43012

> <i_f3d_flags>
0

> <s_epik_input>
W0NIMl0xW0NIMl1PW0NIMl1bQ0gyXU4xW0NIMl1bQ0BASF0oW0NIM10pW05IXUMoPU8pW0NASF0oW0NIM10pbjJbY0hdbltjSF1uMg==

> <s_epik_cmdline>
J2VwaWtfcHl0aG9uJywgJy1waCcsICc3LjAnLCAnLXRuJywgJzgnLCAnLW1hJywgJzIwMCcsICctbWV0YWxfYmluZGluZycsICctaW1hZScsICc8aW5maWxlLm1hZT4nLCAnLW9tYWUnLCAnPG91dGZpbGUubWFlPic=

> <r_lp_tautomer_probability>
1

> <r_epik_Ionization_Penalty>
0.71326

> <r_epik_Ionization_Penalty_Charging>
0.713252

> <r_epik_Ionization_Penalty_Neutral>
8.27671e-06

> <r_epik_State_Penalty>
0.737017

> <r_epik_Charging_Adjusted_Penalty>
1.45027

> <i_epik_Tot_Q>
1

> <i_epik_Tot_abs_Q>
1

> <r_epik_Metal_State_Penalty>
0.73702

> <b_epik_Metal_Only>
0

> <s_lp_Force_Field>
OPLS_2005

> <r_lp_Energy>
28.0971

> <b_lp_Chiralities_Consistent>
1

> <s_lp_Variant>
AV-unprocessed.smi:3345-7

> <Gold.Version>
5.8.1

> <Gold.Id.Protein>
6NUR|6NUR_protein|mol2

> <Gold.PLP.Fitness>
45.8063

> <Gold.PLP.PLP>
-29.6644

> <Gold.PLP.part.hbond>
-4.0000

> <Gold.PLP.part.metal>
0.0000

> <Gold.PLP.part.buried>
-3.4513

> <Gold.PLP.part.nonpolar>
-23.0744

> <Gold.PLP.part.repulsive>
0.6332

> <Gold.PLP.ligand.clash>
0.0000

> <Gold.PLP.ligand.torsion>
0.3756

> <Gold.PLP.Chemscore.Hbond>
4.6640

> <Gold.PLP.Chemscore.CHOScore>
0.9051

> <Gold.PLP.Chemscore.Metal>
0.0000

> <Gold.Chemscore.Hbonds>
donor molecule, donor type, donor heavy atom, donor atom, acceptor molecule, acceptor atom, score
      L1  H     4    41       P1  7948  2.00
      L1  H    10    34       P1  7948  0.77
      P1  H  7989  7998       L1    19  1.00
      P1  H 10752 10763       L1    17  0.08
      L1  C    16    39       P1  7948  0.18
      L1  C    16    39       P1  7949  0.16

> <Gold.PLP.Chemscore.Internal.Correction>
0.1859

> <Gold.Rescore>
     Score         DG    S(hbond)    S(metal)    S(lipo)     H(rot)  DE(clash)    DE(int)     intcor
     11.47     -13.72       3.05        0.00      40.43       2.61       0.73       1.51       ----

> <Gold.Chemscore.Fitness>
11.4735

> <Gold.Chemscore.DG>
-13.7221

> <Gold.Chemscore.ZeroCoef>
-5.4800

> <Gold.Chemscore.Hbond>
3.0548

> <Gold.Chemscore.Metal>
0.0000

> <Gold.Chemscore.Lipo>
40.4307

> <Gold.Chemscore.Internal_Hbond>
0.0000

> <Gold.Chemscore.DEClash>
0.7340

> <Gold.Chemscore.DEInternal>
1.5145

> <Gold.Chemscore.Rot>
2.6138

> <Gold.Chemscore.Internal.Correction>
   9.000000E+99

> <Gold.Chemscore.Hbonds>
donor molecule, donor type, donor heavy atom, donor atom, acceptor molecule, acceptor atom, score
      L1  H     4    41       P1  7948  0.69
      L1  H    10    34       P1  7948  0.75
      P1  H  7989  7998       L1    19  0.26
      P1  H 10752 10763       L1    17  0.01

> <Gold.Chemscore.Hbond.Weighted>
-10.2029

> <Gold.Chemscore.Metal.Weighted>
-0.0000

> <Gold.Chemscore.Lipo.Weighted>
-4.7304

> <Gold.Chemscore.Internal_Hbond.Weighted>
0.0000

> <Gold.Chemscore.DEClash.Weighted>
0.7340

> <Gold.Chemscore.DEInternal.Weighted>
1.5145

> <Gold.Chemscore.Rot.Weighted>
6.6912

> <Gold.Chemscore.Internal.Correction.Weighted>
   9.000000E+99

> <Gold.Protein.RotatedTorsions>
[ 6907 6896 6895 6894 ] final -131.08 input  -60.11 | X-H torsion
[ 7974 7965 7964 7962 ] final -123.86 input  175.53 | X-H torsion
[ 8008 7997 7996 7995 ] final -143.31 input   59.86 | X-H torsion
[ 10167 10162 10161 10158 ] final   66.14 input  -65.29 | X-H torsion
[ 10718 10713 10712 10709 ] final   53.92 input   66.30 | X-H torsion
[ 10763 10752 10751 10750 ] final   42.32 input  -60.55 | X-H torsion
[ 11005 11000 10999 10996 ] final -155.84 input  -57.11 | X-H torsion

> <Gold.Protein.ActiveResidues>
 VAL166  LYS551  ARG553  GLY616  TRP617  ASP618  TYR619  PRO620  LYS621  CYS622 
 ASP623  PHE694  ASN695  SER759  ASP760  ASP761  ALA762  ILE779  LEU786  VAL792 
 PHE793  MET794  SER795  GLU796  ALA797  LYS798  CYS799  TRP800  GLU811  SER814 

> <Gold.Protein.RotatedAtoms>
  150.9469  133.6593  159.2779 H   0  0  0  0  0  0  0  0  0  0  0  0  # atno 6907 bound_to 6896
  151.3962  135.0963  159.9551 H   0  0  0  0  0  0  0  0  0  0  0  0  # atno 6908 bound_to 6896
  152.5093  133.8973  159.7478 H   0  0  0  0  0  0  0  0  0  0  0  0  # atno 6909 bound_to 6896
  145.0142  140.7932  143.4420 H   0  0  0  0  0  0  0  0  0  0  0  0  # atno 7974 bound_to 7965
  155.5085  140.0581  157.2927 H   0  0  0  0  0  0  0  0  0  0  0  0  # atno 8008 bound_to 7997
  154.4560  140.1973  156.0326 H   0  0  0  0  0  0  0  0  0  0  0  0  # atno 8009 bound_to 7997
  156.0800  140.3248  155.7686 H   0  0  0  0  0  0  0  0  0  0  0  0  # atno 8010 bound_to 7997
  140.1036  144.4881  150.7022 H   0  0  0  0  0  0  0  0  0  0  0  0  # atno 10167 bound_to 10162
  157.5210  130.8565  149.8559 H   0  0  0  0  0  0  0  0  0  0  0  0  # atno 10718 bound_to 10713
  152.9886  135.6135  154.2930 H   0  0  0  0  0  0  0  0  0  0  0  0  # atno 10763 bound_to 10752
  154.2654  135.2781  155.2762 H   0  0  0  0  0  0  0  0  0  0  0  0  # atno 10764 bound_to 10752
  154.5169  135.5825  153.6706 H   0  0  0  0  0  0  0  0  0  0  0  0  # atno 10765 bound_to 10752
  140.6821  134.4133  157.5226 H   0  0  0  0  0  0  0  0  0  0  0  0  # atno 11005 bound_to 11000
  145.1982  139.2265  143.5206 LP  0  0  0  0  0  0  0  0  0  0  0  0  # atno 17320 bound_to 7965
  146.3475  140.1794  142.8589 LP  0  0  0  0  0  0  0  0  0  0  0  0  # atno 17321 bound_to 7965
  140.6964  143.2406  151.4988 LP  0  0  0  0  0  0  0  0  0  0  0  0  # atno 17342 bound_to 10162
  139.5657  144.2047  152.1761 LP  0  0  0  0  0  0  0  0  0  0  0  0  # atno 17343 bound_to 10162
  156.0353  130.3753  150.1576 LP  0  0  0  0  0  0  0  0  0  0  0  0  # atno 17370 bound_to 10713
  156.9764  130.9850  151.3447 LP  0  0  0  0  0  0  0  0  0  0  0  0  # atno 17371 bound_to 10713
  139.8948  134.8697  156.2158 LP  0  0  0  0  0  0  0  0  0  0  0  0  # atno 17394 bound_to 11000
  141.0309  133.6989  156.1428 LP  0  0  0  0  0  0  0  0  0  0  0  0  # atno 17395 bound_to 11000

$$$$
