AV-unprocessed.smi:3045|AV-procd|sdf|11609|dock4
  -GOLD-   2272016593D 1   1.00000     0.00000
 Structure written by MMmdl.
 35 36  0  0  0  0  0  0  0  0  1 V2000
  145.1992  143.1323  155.4605 C   0  0  0  0  0  0  0  0  0  0  0  0
  146.0846  142.1093  154.9210 N   0  0  0  0  0  0  0  0  0  0  0  0
  147.2472  142.4666  154.1269 C   0  0  0  0  0  0  0  0  0  0  0  0
  148.0041  141.1428  153.8806 C   0  0  1  0  0  0  0  0  0  0  0  0
  149.3414  141.0868  154.6356 C   0  0  0  0  0  0  0  0  0  0  0  0
  150.1536  140.1928  154.3945 O   0  0  0  0  0  0  0  0  0  0  0  0
  149.5535  142.0449  155.5507 N   0  0  0  0  0  0  0  0  0  0  0  0
  150.7480  142.1601  156.3782 C   0  0  0  0  0  0  0  0  0  0  0  0
  150.4301  141.9281  157.8642 C   0  0  0  0  0  0  0  0  0  0  0  0
  151.0758  142.9706  158.7548 C   0  0  0  0  0  0  0  0  0  0  0  0
  152.0084  142.5978  159.7446 C   0  0  0  0  0  0  0  0  0  0  0  0
  152.5842  143.6021  160.5461 C   0  0  0  0  0  0  0  0  0  0  0  0
  152.2020  144.9400  160.3224 C   0  0  0  0  0  0  0  0  0  0  0  0
  151.3112  145.3086  159.3766 N   0  0  0  0  0  0  0  0  0  0  0  0
  150.7633  144.3392  158.6127 C   0  0  0  0  0  0  0  0  0  0  0  0
  147.0405  140.0339  154.3510 C   0  0  0  0  0  0  0  0  0  0  0  0
  145.9175  140.7897  155.0413 C   0  0  0  0  0  0  0  0  0  0  0  0
  144.9959  140.2264  155.6298 O   0  0  0  0  0  0  0  0  0  0  0  0
  144.2215  143.0813  154.9805 H   0  0  0  0  0  0  0  0  0  0  0  0
  145.6058  144.1306  155.2968 H   0  0  0  0  0  0  0  0  0  0  0  0
  145.0635  142.9957  156.5338 H   0  0  0  0  0  0  0  0  0  0  0  0
  146.9188  142.9062  153.1843 H   0  0  0  0  0  0  0  0  0  0  0  0
  147.8497  143.2140  154.6467 H   0  0  0  0  0  0  0  0  0  0  0  0
  148.1951  141.0301  152.8119 H   0  0  0  0  0  0  0  0  0  0  0  0
  148.8353  142.7418  155.6858 H   0  0  0  0  0  0  0  0  0  0  0  0
  151.5098  141.4581  156.0343 H   0  0  0  0  0  0  0  0  0  0  0  0
  151.1608  143.1596  156.2380 H   0  0  0  0  0  0  0  0  0  0  0  0
  149.3510  141.9424  158.0230 H   0  0  0  0  0  0  0  0  0  0  0  0
  150.7732  140.9409  158.1769 H   0  0  0  0  0  0  0  0  0  0  0  0
  152.2795  141.5618  159.8866 H   0  0  0  0  0  0  0  0  0  0  0  0
  153.3016  143.3533  161.3141 H   0  0  0  0  0  0  0  0  0  0  0  0
  152.6240  145.7355  160.9185 H   0  0  0  0  0  0  0  0  0  0  0  0
  150.0559  144.6670  157.8648 H   0  0  0  0  0  0  0  0  0  0  0  0
  146.6373  139.4780  153.5042 H   0  0  0  0  0  0  0  0  0  0  0  0
  147.4953  139.3176  155.0374 H   0  0  0  0  0  0  0  0  0  0  0  0
  1  2  1  0  0  0  0
  1 19  1  0  0  0  0
  1 20  1  0  0  0  0
  1 21  1  0  0  0  0
  2 17  1  0  0  0  0
  2  3  1  0  0  0  0
  3  4  1  0  0  0  0
  3 22  1  0  0  0  0
  3 23  1  0  0  0  0
  4  5  1  0  0  0  0
  4 16  1  0  0  0  0
  4 24  1  0  0  0  0
  5  6  2  0  0  0  0
  5  7  1  0  0  0  0
  7  8  1  0  0  0  0
  7 25  1  0  0  0  0
  8  9  1  0  0  0  0
  8 26  1  0  0  0  0
  8 27  1  0  0  0  0
  9 10  1  0  0  0  0
  9 28  1  0  0  0  0
  9 29  1  0  0  0  0
 10 15  1  0  0  0  0
 10 11  2  0  0  0  0
 11 12  1  0  0  0  0
 11 30  1  0  0  0  0
 12 13  2  0  0  0  0
 12 31  1  0  0  0  0
 13 14  1  0  0  0  0
 13 32  1  0  0  0  0
 14 15  2  0  0  0  0
 15 33  1  0  0  0  0
 16 17  1  0  0  0  0
 16 34  1  0  0  0  0
 16 35  1  0  0  0  0
 17 18  2  0  0  0  0
M  END
> <s_m_source_file>
AV-unprocessed.smi

> <i_m_source_file_index>
3045

> <i_lp_mmshare_version>
43012

> <i_f3d_flags>
0

> <s_epik_input>
W0NIM11OMVtDSDJdW0NASF0oW0NIMl1DMT1PKUMoPU8pW05IXVtDSDJdW0NIMl1jMltjSF1bY0hdW2NIXW5bY0hdMg==

> <s_epik_cmdline>
J2VwaWtfcHl0aG9uJywgJy1waCcsICc3LjAnLCAnLXRuJywgJzgnLCAnLW1hJywgJzIwMCcsICctbWV0YWxfYmluZGluZycsICctaW1hZScsICc8aW5maWxlLm1hZT4nLCAnLW9tYWUnLCAnPG91dGZpbGUubWFlPic=

> <r_epik_Ionization_Penalty>
0.0130932

> <r_epik_Ionization_Penalty_Charging>
0

> <r_epik_Ionization_Penalty_Neutral>
0.0130932

> <r_epik_State_Penalty>
0.0101714

> <r_epik_Charging_Adjusted_Penalty>
0.0101714

> <i_epik_Tot_Q>
0

> <i_epik_Tot_abs_Q>
0

> <r_epik_Metal_State_Penalty>
0.00995082

> <b_epik_Metal_Only>
0

> <s_lp_Force_Field>
OPLS_2005

> <r_lp_Energy>
9.14953

> <b_lp_Chiralities_Consistent>
1

> <s_lp_Variant>
AV-unprocessed.smi:3045-1

> <Gold.Version>
5.8.1

> <Gold.Id.Protein>
6NUR|6NUR_protein|mol2

> <Gold.PLP.Fitness>
44.3796

> <Gold.PLP.PLP>
-37.6382

> <Gold.PLP.part.hbond>
-2.0000

> <Gold.PLP.part.metal>
0.0000

> <Gold.PLP.part.buried>
-6.2745

> <Gold.PLP.part.nonpolar>
-30.8825

> <Gold.PLP.part.repulsive>
0.5148

> <Gold.PLP.ligand.clash>
0.2564

> <Gold.PLP.ligand.torsion>
0.6042

> <Gold.PLP.Chemscore.Hbond>
1.6400

> <Gold.PLP.Chemscore.CHOScore>
1.0913

> <Gold.PLP.Chemscore.Metal>
0.0000

> <Gold.Chemscore.Hbonds>
donor molecule, donor type, donor heavy atom, donor atom, acceptor molecule, acceptor atom, score
      L1  H     7    25       P1  8028  0.66
      P1  H  7989  7998       L1     6  1.00
      L1  C    15    33       P1  8028  0.68
      L1  C    15    33       P1  8029  0.41

> <Gold.PLP.Chemscore.Internal.Correction>
0.0124

> <Gold.Rescore>
     Score         DG    S(hbond)    S(metal)    S(lipo)     H(rot)  DE(clash)    DE(int)     intcor
     15.79     -16.36       1.41        0.00      88.24       1.62       0.11       0.46       ----

> <Gold.Chemscore.Fitness>
15.7882

> <Gold.Chemscore.DG>
-16.3555

> <Gold.Chemscore.ZeroCoef>
-5.4800

> <Gold.Chemscore.Hbond>
1.4076

> <Gold.Chemscore.Metal>
0.0000

> <Gold.Chemscore.Lipo>
88.2373

> <Gold.Chemscore.Internal_Hbond>
0.0000

> <Gold.Chemscore.DEClash>
0.1056

> <Gold.Chemscore.DEInternal>
0.4618

> <Gold.Chemscore.Rot>
1.6210

> <Gold.Chemscore.Internal.Correction>
   9.000000E+99

> <Gold.Chemscore.Hbonds>
donor molecule, donor type, donor heavy atom, donor atom, acceptor molecule, acceptor atom, score
      L1  H     7    25       P1  8028  0.65
      P1  H  7989  7998       L1     6  0.71

> <Gold.Chemscore.Hbond.Weighted>
-4.7015

> <Gold.Chemscore.Metal.Weighted>
-0.0000

> <Gold.Chemscore.Lipo.Weighted>
-10.3238

> <Gold.Chemscore.Internal_Hbond.Weighted>
0.0000

> <Gold.Chemscore.DEClash.Weighted>
0.1056

> <Gold.Chemscore.DEInternal.Weighted>
0.4618

> <Gold.Chemscore.Rot.Weighted>
4.1498

> <Gold.Chemscore.Internal.Correction.Weighted>
   9.000000E+99

> <Gold.Protein.RotatedTorsions>
[ 6907 6896 6895 6894 ] final  -66.51 input  -60.11 | X-H torsion
[ 7974 7965 7964 7962 ] final  -26.34 input  175.53 | X-H torsion
[ 8008 7997 7996 7995 ] final   25.60 input   59.86 | X-H torsion
[ 10167 10162 10161 10158 ] final   18.79 input  -65.29 | X-H torsion
[ 10718 10713 10712 10709 ] final  -79.36 input   66.30 | X-H torsion
[ 10763 10752 10751 10750 ] final -151.34 input  -60.55 | X-H torsion
[ 11005 11000 10999 10996 ] final  124.16 input  -57.11 | X-H torsion

> <Gold.Protein.ActiveResidues>
 VAL166  LYS551  ARG553  GLY616  TRP617  ASP618  TYR619  PRO620  LYS621  CYS622 
 ASP623  PHE694  ASN695  SER759  ASP760  ASP761  ALA762  ILE779  LEU786  VAL792 
 PHE793  MET794  SER795  GLU796  ALA797  LYS798  CYS799  TRP800  GLU811  SER814 

> <Gold.Protein.RotatedAtoms>
  150.7461  134.6011  159.6036 H   0  0  0  0  0  0  0  0  0  0  0  0  # atno 6907 bound_to 6896
  152.3372  134.7179  160.0283 H   0  0  0  0  0  0  0  0  0  0  0  0  # atno 6908 bound_to 6896
  151.7644  133.3300  159.3463 H   0  0  0  0  0  0  0  0  0  0  0  0  # atno 6909 bound_to 6896
  146.1432  140.5007  142.8643 H   0  0  0  0  0  0  0  0  0  0  0  0  # atno 7974 bound_to 7965
  155.0142  140.3140  155.4818 H   0  0  0  0  0  0  0  0  0  0  0  0  # atno 8008 bound_to 7997
  156.2904  140.2209  156.5199 H   0  0  0  0  0  0  0  0  0  0  0  0  # atno 8009 bound_to 7997
  154.7508  140.0466  157.0879 H   0  0  0  0  0  0  0  0  0  0  0  0  # atno 8010 bound_to 7997
  140.5627  143.9307  150.6654 H   0  0  0  0  0  0  0  0  0  0  0  0  # atno 10167 bound_to 10162
  156.0094  130.4543  150.3637 H   0  0  0  0  0  0  0  0  0  0  0  0  # atno 10718 bound_to 10713
  154.8064  135.3262  154.7420 H   0  0  0  0  0  0  0  0  0  0  0  0  # atno 10763 bound_to 10752
  153.8078  135.6898  153.4850 H   0  0  0  0  0  0  0  0  0  0  0  0  # atno 10764 bound_to 10752
  153.1812  135.4586  154.9975 H   0  0  0  0  0  0  0  0  0  0  0  0  # atno 10765 bound_to 10752
  139.9346  134.9640  156.8368 H   0  0  0  0  0  0  0  0  0  0  0  0  # atno 11005 bound_to 11000
  144.7816  140.5851  143.6602 LP  0  0  0  0  0  0  0  0  0  0  0  0  # atno 17320 bound_to 7965
  145.4999  139.1484  143.3663 LP  0  0  0  0  0  0  0  0  0  0  0  0  # atno 17321 bound_to 7965
  140.2762  143.3421  152.1193 LP  0  0  0  0  0  0  0  0  0  0  0  0  # atno 17342 bound_to 10162
  139.5078  144.6838  151.5939 LP  0  0  0  0  0  0  0  0  0  0  0  0  # atno 17343 bound_to 10162
  157.1724  131.0372  151.2789 LP  0  0  0  0  0  0  0  0  0  0  0  0  # atno 17370 bound_to 10713
  157.4217  130.7441  149.6919 LP  0  0  0  0  0  0  0  0  0  0  0  0  # atno 17371 bound_to 10713
  140.6110  134.0082  155.7577 LP  0  0  0  0  0  0  0  0  0  0  0  0  # atno 17394 bound_to 11000
  141.0953  133.9853  157.3171 LP  0  0  0  0  0  0  0  0  0  0  0  0  # atno 17395 bound_to 11000

$$$$
