AV-unprocessed.smi:1163|AV-procd|sdf|4920|dock4
  -GOLD-   22720 3503D 1   1.00000     0.00000
 Structure written by MMmdl.
 39 40  0  0  0  0  0  0  0  0  1 V2000
  152.1169  139.1568  155.0286 C   0  0  0  0  0  0  0  0  0  0  0  0
  151.1627  140.2017  154.8739 O   0  0  0  0  0  0  0  0  0  0  0  0
  149.8913  139.8699  154.4522 C   0  0  0  0  0  0  0  0  0  0  0  0
  148.9556  140.9044  154.2526 C   0  0  0  0  0  0  0  0  0  0  0  0
  147.6566  140.5707  153.8248 C   0  0  0  0  0  0  0  0  0  0  0  0
  147.3268  139.2158  153.6197 C   0  0  0  0  0  0  0  0  0  0  0  0
  146.0153  138.9047  153.1698 N   0  0  0  0  0  0  0  0  0  0  0  0
  145.4914  137.6941  152.9118 C   0  0  0  0  0  0  0  0  0  0  0  0
  146.0704  136.6201  153.0740 O   0  0  0  0  0  0  0  0  0  0  0  0
  144.2292  137.7938  152.4717 N   0  0  0  0  0  0  0  0  0  0  0  0
  143.3744  136.6623  152.1259 C   0  0  2  0  0  0  0  0  0  0  0  0
  142.9294  135.8706  153.3508 C   0  0  0  0  0  0  0  0  0  0  0  0
  142.9253  134.4338  152.8432 C   0  0  0  0  0  0  0  0  0  0  0  0
  144.1149  134.3912  152.0074 N   0  0  0  0  0  0  0  0  0  0  0  0
  144.1534  133.1882  151.1788 C   0  0  0  0  0  0  0  0  0  0  0  0
  145.5869  132.6985  150.8949 C   0  0  0  0  0  0  0  0  0  0  0  0
  145.6116  132.1281  149.6912 F   0  0  0  0  0  0  0  0  0  0  0  0
  146.4591  133.7065  150.8959 F   0  0  0  0  0  0  0  0  0  0  0  0
  145.9578  131.7930  151.8004 F   0  0  0  0  0  0  0  0  0  0  0  0
  144.1034  135.6359  151.2408 C   0  0  0  0  0  0  0  0  0  0  0  0
  148.3409  138.2509  153.8348 C   0  0  0  0  0  0  0  0  0  0  0  0
  149.5896  138.5648  154.2417 N   0  0  0  0  0  0  0  0  0  0  0  0
  153.0628  139.5792  155.3672 H   0  0  0  0  0  0  0  0  0  0  0  0
  152.3036  138.6438  154.0841 H   0  0  0  0  0  0  0  0  0  0  0  0
  151.7946  138.4285  155.7743 H   0  0  0  0  0  0  0  0  0  0  0  0
  149.2297  141.9348  154.4239 H   0  0  0  0  0  0  0  0  0  0  0  0
  146.9233  141.3472  153.6622 H   0  0  0  0  0  0  0  0  0  0  0  0
  145.3872  139.6902  153.0840 H   0  0  0  0  0  0  0  0  0  0  0  0
  143.8271  138.7148  152.3752 H   0  0  0  0  0  0  0  0  0  0  0  0
  142.4876  137.0187  151.5978 H   0  0  0  0  0  0  0  0  0  0  0  0
  143.6497  135.9689  154.1651 H   0  0  0  0  0  0  0  0  0  0  0  0
  141.9547  136.1860  153.7248 H   0  0  0  0  0  0  0  0  0  0  0  0
  142.9647  133.7011  153.6496 H   0  0  0  0  0  0  0  0  0  0  0  0
  142.0329  134.2458  152.2435 H   0  0  0  0  0  0  0  0  0  0  0  0
  143.6232  132.3975  151.7117 H   0  0  0  0  0  0  0  0  0  0  0  0
  143.6117  133.3520  150.2462 H   0  0  0  0  0  0  0  0  0  0  0  0
  143.5489  135.5060  150.3102 H   0  0  0  0  0  0  0  0  0  0  0  0
  145.1195  135.9385  150.9856 H   0  0  0  0  0  0  0  0  0  0  0  0
  148.1739  137.1994  153.6604 H   0  0  0  0  0  0  0  0  0  0  0  0
  1  2  1  0  0  0  0
  1 23  1  0  0  0  0
  1 24  1  0  0  0  0
  1 25  1  0  0  0  0
  2  3  1  0  0  0  0
  3 22  1  0  0  0  0
  3  4  2  0  0  0  0
  4  5  1  0  0  0  0
  4 26  1  0  0  0  0
  5  6  2  0  0  0  0
  5 27  1  0  0  0  0
  6  7  1  0  0  0  0
  6 21  1  0  0  0  0
  7  8  1  0  0  0  0
  7 28  1  0  0  0  0
  8  9  2  0  0  0  0
  8 10  1  0  0  0  0
 10 11  1  0  0  0  0
 10 29  1  0  0  0  0
 11 20  1  0  0  0  0
 11 12  1  0  0  0  0
 11 30  1  0  0  0  0
 12 13  1  0  0  0  0
 12 31  1  0  0  0  0
 12 32  1  0  0  0  0
 13 14  1  0  0  0  0
 13 33  1  0  0  0  0
 13 34  1  0  0  0  0
 14 15  1  0  0  0  0
 14 20  1  0  0  0  0
 15 16  1  0  0  0  0
 15 35  1  0  0  0  0
 15 36  1  0  0  0  0
 16 17  1  0  0  0  0
 16 18  1  0  0  0  0
 16 19  1  0  0  0  0
 20 37  1  0  0  0  0
 20 38  1  0  0  0  0
 21 22  2  0  0  0  0
 21 39  1  0  0  0  0
M  END
> <s_m_source_file>
AV-unprocessed.smi

> <i_m_source_file_index>
1163

> <i_lp_mmshare_version>
43012

> <i_f3d_flags>
0

> <s_epik_input>
W0NIM11PYzFbY0hdW2NIXWMoW2NIXW4xKVtOSF1DKD1PKVtOSF1bQ0BASF0yW0NIMl1bQ0gyXU4oW0NIMl0yKVtDSDJdQyhGKShGKUY=

> <s_epik_cmdline>
J2VwaWtfcHl0aG9uJywgJy1waCcsICc3LjAnLCAnLXRuJywgJzgnLCAnLW1hJywgJzIwMCcsICctbWV0YWxfYmluZGluZycsICctaW1hZScsICc8aW5maWxlLm1hZT4nLCAnLW9tYWUnLCAnPG91dGZpbGUubWFlPic=

> <r_lp_tautomer_probability>
1

> <r_epik_Ionization_Penalty>
0.0970123

> <r_epik_Ionization_Penalty_Charging>
0

> <r_epik_Ionization_Penalty_Neutral>
0.0970123

> <r_epik_State_Penalty>
0.0870533

> <r_epik_Charging_Adjusted_Penalty>
0.0870533

> <i_epik_Tot_Q>
0

> <i_epik_Tot_abs_Q>
0

> <r_epik_Metal_State_Penalty>
0.0870519

> <b_epik_Metal_Only>
0

> <s_lp_Force_Field>
OPLS_2005

> <r_lp_Energy>
33.5904

> <b_lp_Chiralities_Consistent>
1

> <s_lp_Variant>
AV-unprocessed.smi:1163-1

> <Gold.Version>
5.8.1

> <Gold.Id.Protein>
6NUR|6NUR_protein|mol2

> <Gold.PLP.Fitness>
46.7002

> <Gold.PLP.PLP>
-37.5712

> <Gold.PLP.part.hbond>
-4.0000

> <Gold.PLP.part.metal>
0.0000

> <Gold.PLP.part.buried>
-2.1070

> <Gold.PLP.part.nonpolar>
-32.0614

> <Gold.PLP.part.repulsive>
0.5806

> <Gold.PLP.ligand.clash>
0.0000

> <Gold.PLP.ligand.torsion>
1.1603

> <Gold.PLP.Chemscore.Hbond>
2.8500

> <Gold.PLP.Chemscore.CHOScore>
0.8162

> <Gold.PLP.Chemscore.Metal>
0.0000

> <Gold.Chemscore.Hbonds>
donor molecule, donor type, donor heavy atom, donor atom, acceptor molecule, acceptor atom, score
      L1  H     7    28       P1 10175  1.00
      L1  H    10    29       P1 10175  1.00
      P1  H  7989  7998       L1     2  0.85
      L1  C    21    39       P1  7948  0.80

> <Gold.PLP.Chemscore.Internal.Correction>
0.4511

> <Gold.Rescore>
     Score         DG    S(hbond)    S(metal)    S(lipo)     H(rot)  DE(clash)    DE(int)     intcor
     11.22     -15.48       1.97        0.00      65.50       1.65       0.15       4.11       ----

> <Gold.Chemscore.Fitness>
11.2176

> <Gold.Chemscore.DG>
-15.4844

> <Gold.Chemscore.ZeroCoef>
-5.4800

> <Gold.Chemscore.Hbond>
1.9666

> <Gold.Chemscore.Metal>
0.0000

> <Gold.Chemscore.Lipo>
65.5029

> <Gold.Chemscore.Internal_Hbond>
0.0000

> <Gold.Chemscore.DEClash>
0.1538

> <Gold.Chemscore.DEInternal>
4.1131

> <Gold.Chemscore.Rot>
1.6515

> <Gold.Chemscore.Internal.Correction>
   9.000000E+99

> <Gold.Chemscore.Hbonds>
donor molecule, donor type, donor heavy atom, donor atom, acceptor molecule, acceptor atom, score
      L1  H     7    28       P1 10175  0.93
      L1  H    10    29       P1 10175  1.00
      P1  H  7989  7998       L1     2  0.05

> <Gold.Chemscore.Hbond.Weighted>
-6.5684

> <Gold.Chemscore.Metal.Weighted>
-0.0000

> <Gold.Chemscore.Lipo.Weighted>
-7.6638

> <Gold.Chemscore.Internal_Hbond.Weighted>
0.0000

> <Gold.Chemscore.DEClash.Weighted>
0.1538

> <Gold.Chemscore.DEInternal.Weighted>
4.1131

> <Gold.Chemscore.Rot.Weighted>
4.2279

> <Gold.Chemscore.Internal.Correction.Weighted>
   9.000000E+99

> <Gold.Protein.RotatedTorsions>
[ 6907 6896 6895 6894 ] final   89.55 input  -60.11 | X-H torsion
[ 7974 7965 7964 7962 ] final -177.92 input  175.53 | X-H torsion
[ 8008 7997 7996 7995 ] final  113.67 input   59.86 | X-H torsion
[ 10167 10162 10161 10158 ] final -176.85 input  -65.29 | X-H torsion
[ 10718 10713 10712 10709 ] final -115.33 input   66.30 | X-H torsion
[ 10763 10752 10751 10750 ] final   96.13 input  -60.55 | X-H torsion
[ 11005 11000 10999 10996 ] final  152.81 input  -57.11 | X-H torsion

> <Gold.Protein.ActiveResidues>
 VAL166  LYS551  ARG553  GLY616  TRP617  ASP618  TYR619  PRO620  LYS621  CYS622 
 ASP623  PHE694  ASN695  SER759  ASP760  ASP761  ALA762  ILE779  LEU786  VAL792 
 PHE793  MET794  SER795  GLU796  ALA797  LYS798  CYS799  TRP800  GLU811  SER814 

> <Gold.Protein.RotatedAtoms>
  152.5437  134.1948  159.8688 H   0  0  0  0  0  0  0  0  0  0  0  0  # atno 6907 bound_to 6896
  151.1941  133.4642  159.2603 H   0  0  0  0  0  0  0  0  0  0  0  0  # atno 6908 bound_to 6896
  151.1054  135.0008  159.8524 H   0  0  0  0  0  0  0  0  0  0  0  0  # atno 6909 bound_to 6896
  144.7129  140.0946  143.6419 H   0  0  0  0  0  0  0  0  0  0  0  0  # atno 7974 bound_to 7965
  156.2273  140.2975  156.0099 H   0  0  0  0  0  0  0  0  0  0  0  0  # atno 8008 bound_to 7997
  155.2322  140.0419  157.2981 H   0  0  0  0  0  0  0  0  0  0  0  0  # atno 8009 bound_to 7997
  154.5936  140.2408  155.7894 H   0  0  0  0  0  0  0  0  0  0  0  0  # atno 8010 bound_to 7997
  139.5509  144.2112  152.1075 H   0  0  0  0  0  0  0  0  0  0  0  0  # atno 10167 bound_to 10162
  156.0888  130.6075  150.8892 H   0  0  0  0  0  0  0  0  0  0  0  0  # atno 10718 bound_to 10713
  153.2613  135.4229  155.0897 H   0  0  0  0  0  0  0  0  0  0  0  0  # atno 10763 bound_to 10752
  154.8421  135.3449  154.6374 H   0  0  0  0  0  0  0  0  0  0  0  0  # atno 10764 bound_to 10752
  153.6794  135.7039  153.5180 H   0  0  0  0  0  0  0  0  0  0  0  0  # atno 10765 bound_to 10752
  140.1341  134.8782  157.2244 H   0  0  0  0  0  0  0  0  0  0  0  0  # atno 11005 bound_to 11000
  145.9591  139.2787  143.1166 LP  0  0  0  0  0  0  0  0  0  0  0  0  # atno 17320 bound_to 7965
  145.9240  140.9095  143.0390 LP  0  0  0  0  0  0  0  0  0  0  0  0  # atno 17321 bound_to 7965
  140.1607  144.5028  150.6634 LP  0  0  0  0  0  0  0  0  0  0  0  0  # atno 17342 bound_to 10162
  140.6771  143.2310  151.5480 LP  0  0  0  0  0  0  0  0  0  0  0  0  # atno 17343 bound_to 10162
  157.6031  131.0940  150.8925 LP  0  0  0  0  0  0  0  0  0  0  0  0  # atno 17370 bound_to 10713
  156.9079  130.5270  149.5281 LP  0  0  0  0  0  0  0  0  0  0  0  0  # atno 17371 bound_to 10713
  140.2804  134.3356  155.7345 LP  0  0  0  0  0  0  0  0  0  0  0  0  # atno 17394 bound_to 11000
  141.2175  133.7475  156.9355 LP  0  0  0  0  0  0  0  0  0  0  0  0  # atno 17395 bound_to 11000

$$$$
