AV-unprocessed.smi:399|AV-procd|sdf|2491|dock10
  -GOLD-   2262022433D 1   1.00000     0.00000
 Structure written by MMmdl.
 47 48  0  0  0  0  0  0  0  0  4 V2000
  143.7948  134.9803  152.5839 C   0  0  0  0  0  0  0  0  0  0  0  0
  145.0852  135.7966  152.3195 C   0  0  0  0  0  0  0  0  0  0  0  0
  145.3530  135.7002  150.7967 C   0  0  0  0  0  0  0  0  0  0  0  0
  144.8622  137.2832  152.7199 C   0  0  0  0  0  0  0  0  0  0  0  0
  145.9630  138.1492  152.3084 N   0  0  0  0  0  0  0  0  0  0  0  0
  146.8371  138.7163  153.1515 C   0  0  0  0  0  0  0  0  0  0  0  0
  146.8032  138.5416  154.3704 O   0  0  0  0  0  0  0  0  0  0  0  0
  147.9147  139.6013  152.5079 C   0  0  0  0  0  0  0  0  0  0  0  0
  148.8837  140.1433  153.4760 N   0  0  0  0  0  0  0  0  0  0  0  0
  149.9455  139.3002  153.8597 C   0  0  0  0  0  0  0  0  0  0  0  0
  150.8850  139.6894  154.7437 C   0  0  0  0  0  0  0  0  0  0  0  0
  151.9679  138.8105  155.1273 N   0  3  0  0  0  0  0  0  0  0  0  0
  152.7939  139.2145  155.9392 O   0  0  0  0  0  0  0  0  0  0  0  0
  152.0303  137.6901  154.6300 O   0  5  0  0  0  0  0  0  0  0  0  0
  150.7745  141.0232  155.3016 C   0  0  0  0  0  0  0  0  0  0  0  0
  149.7608  141.8340  154.9397 C   0  0  0  0  0  0  0  0  0  0  0  0
  148.7389  141.4080  153.9781 C   0  0  0  0  0  0  0  0  0  0  0  0
  147.8086  142.1424  153.6450 O   0  0  0  0  0  0  0  0  0  0  0  0
  146.2402  135.1901  153.0761 N   0  3  0  0  0  0  0  0  0  0  0  0
  146.2576  135.4434  154.5452 C   0  0  0  0  0  0  0  0  0  0  0  0
  147.5682  134.9351  155.1685 C   0  0  0  0  0  0  0  0  0  0  0  0
  147.7194  133.5492  154.8975 O   0  0  0  0  0  0  0  0  0  0  0  0
  147.7994  133.2945  153.5026 C   0  0  0  0  0  0  0  0  0  0  0  0
  146.4984  133.7447  152.8168 C   0  0  0  0  0  0  0  0  0  0  0  0
  142.9916  135.2592  151.9008 H   0  0  0  0  0  0  0  0  0  0  0  0
  143.4034  135.1387  153.5887 H   0  0  0  0  0  0  0  0  0  0  0  0
  143.9666  133.9112  152.4530 H   0  0  0  0  0  0  0  0  0  0  0  0
  144.4655  135.9473  150.2131 H   0  0  0  0  0  0  0  0  0  0  0  0
  145.6534  134.6918  150.5093 H   0  0  0  0  0  0  0  0  0  0  0  0
  146.1301  136.3895  150.4675 H   0  0  0  0  0  0  0  0  0  0  0  0
  143.9499  137.6747  152.2697 H   0  0  0  0  0  0  0  0  0  0  0  0
  144.7442  137.3727  153.8002 H   0  0  0  0  0  0  0  0  0  0  0  0
  146.0587  138.3377  151.3208 H   0  0  0  0  0  0  0  0  0  0  0  0
  148.4252  139.0137  151.7436 H   0  0  0  0  0  0  0  0  0  0  0  0
  147.4317  140.4161  151.9650 H   0  0  0  0  0  0  0  0  0  0  0  0
  149.9360  138.3255  153.3931 H   0  0  0  0  0  0  0  0  0  0  0  0
  151.5034  141.3820  156.0132 H   0  0  0  0  0  0  0  0  0  0  0  0
  149.6975  142.8233  155.3685 H   0  0  0  0  0  0  0  0  0  0  0  0
  146.1724  136.5045  154.7702 H   0  0  0  0  0  0  0  0  0  0  0  0
  145.4173  134.9428  155.0262 H   0  0  0  0  0  0  0  0  0  0  0  0
  148.4254  135.4916  154.7860 H   0  0  0  0  0  0  0  0  0  0  0  0
  147.5506  135.0817  156.2486 H   0  0  0  0  0  0  0  0  0  0  0  0
  148.6634  133.8054  153.0744 H   0  0  0  0  0  0  0  0  0  0  0  0
  147.9537  132.2265  153.3483 H   0  0  0  0  0  0  0  0  0  0  0  0
  145.6695  133.1401  153.1851 H   0  0  0  0  0  0  0  0  0  0  0  0
  146.5995  133.5398  151.7529 H   0  0  0  0  0  0  0  0  0  0  0  0
  147.0550  135.6680  152.7185 H   0  0  0  0  0  0  0  0  0  0  0  0
  1  2  1  0  0  0  0
  1 25  1  0  0  0  0
  1 26  1  0  0  0  0
  1 27  1  0  0  0  0
  2  3  1  0  0  0  0
  2  4  1  0  0  0  0
  2 19  1  0  0  0  0
  3 28  1  0  0  0  0
  3 29  1  0  0  0  0
  3 30  1  0  0  0  0
  4  5  1  0  0  0  0
  4 31  1  0  0  0  0
  4 32  1  0  0  0  0
  5  6  1  0  0  0  0
  5 33  1  0  0  0  0
  6  7  2  0  0  0  0
  6  8  1  0  0  0  0
  8  9  1  0  0  0  0
  8 34  1  0  0  0  0
  8 35  1  0  0  0  0
  9 17  1  0  0  0  0
  9 10  1  0  0  0  0
 10 11  2  0  0  0  0
 10 36  1  0  0  0  0
 11 12  1  0  0  0  0
 11 15  1  0  0  0  0
 12 13  2  0  0  0  0
 12 14  1  0  0  0  0
 15 16  2  0  0  0  0
 15 37  1  0  0  0  0
 16 17  1  0  0  0  0
 16 38  1  0  0  0  0
 17 18  2  0  0  0  0
 19 24  1  0  0  0  0
 19 20  1  0  0  0  0
 19 47  1  0  0  0  0
 20 21  1  0  0  0  0
 20 39  1  0  0  0  0
 20 40  1  0  0  0  0
 21 22  1  0  0  0  0
 21 41  1  0  0  0  0
 21 42  1  0  0  0  0
 22 23  1  0  0  0  0
 23 24  1  0  0  0  0
 23 43  1  0  0  0  0
 23 44  1  0  0  0  0
 24 45  1  0  0  0  0
 24 46  1  0  0  0  0
M  CHG  1  12   1
M  CHG  1  14  -1
M  CHG  1  19   1
M  END
> <s_m_source_file>
AV-unprocessed.smi

> <i_m_source_file_index>
399

> <i_lp_mmshare_version>
43012

> <i_f3d_flags>
0

> <s_epik_input>
W0NIMl0xW0NIMl1PW0NIMl1bQ0gyXU4xQyhbQ0gzXSkoW0NIM10pW0NIMl1bTkhdQyg9TylbQ0gyXW4yW2NIXWMoW04rXSg9TylbTy1dKVtjSF1bY0hdYzI9Tw==

> <s_epik_cmdline>
J2VwaWtfcHl0aG9uJywgJy1waCcsICc3LjAnLCAnLXRuJywgJzgnLCAnLW1hJywgJzIwMCcsICctbWV0YWxfYmluZGluZycsICctaW1hZScsICc8aW5maWxlLm1hZT4nLCAnLW9tYWUnLCAnPG91dGZpbGUubWFlPic=

> <r_lp_tautomer_probability>
1

> <r_epik_Ionization_Penalty>
0.656654

> <r_epik_Ionization_Penalty_Charging>
0.656653

> <r_epik_Ionization_Penalty_Neutral>
9.12373e-08

> <r_epik_State_Penalty>
0.675641

> <r_epik_Charging_Adjusted_Penalty>
1.33229

> <i_epik_Tot_Q>
1

> <i_epik_Tot_abs_Q>
3

> <r_epik_Metal_State_Penalty>
0.675694

> <b_epik_Metal_Only>
0

> <s_lp_Force_Field>
OPLS_2005

> <r_lp_Energy>
37.786

> <b_lp_Chiralities_Consistent>
1

> <s_lp_Variant>
AV-unprocessed.smi:399-2

> <Gold.Version>
5.8.1

> <Gold.Id.Protein>
6NUR|6NUR_protein|mol2

> <Gold.PLP.Fitness>
49.7299

> <Gold.PLP.PLP>
-36.3500

> <Gold.PLP.part.hbond>
-3.0000

> <Gold.PLP.part.metal>
0.0000

> <Gold.PLP.part.buried>
1.0686

> <Gold.PLP.part.nonpolar>
-35.2975

> <Gold.PLP.part.repulsive>
0.4749

> <Gold.PLP.ligand.clash>
0.0000

> <Gold.PLP.ligand.torsion>
0.5534

> <Gold.PLP.Chemscore.Hbond>
3.8160

> <Gold.PLP.Chemscore.CHOScore>
0.9621

> <Gold.PLP.Chemscore.Metal>
0.0000

> <Gold.Chemscore.Hbonds>
donor molecule, donor type, donor heavy atom, donor atom, acceptor molecule, acceptor atom, score
      L1  H    19    47       P1  7948  1.43
      P1  H  7997  8010       L1    13  1.00
      P1  H 10752 10763       L1    14  0.30
      L1  C    10    36       P1  7948  0.50

> <Gold.PLP.Chemscore.Internal.Correction>
0.1525

> <Gold.Rescore>
     Score         DG    S(hbond)    S(metal)    S(lipo)     H(rot)  DE(clash)    DE(int)     intcor
     16.48     -17.14       2.71        0.00      70.01       2.18       0.15       0.51       ----

> <Gold.Chemscore.Fitness>
16.4812

> <Gold.Chemscore.DG>
-17.1398

> <Gold.Chemscore.ZeroCoef>
-5.4800

> <Gold.Chemscore.Hbond>
2.7099

> <Gold.Chemscore.Metal>
0.0000

> <Gold.Chemscore.Lipo>
70.0088

> <Gold.Chemscore.Internal_Hbond>
0.0000

> <Gold.Chemscore.DEClash>
0.1511

> <Gold.Chemscore.DEInternal>
0.5075

> <Gold.Chemscore.Rot>
2.1806

> <Gold.Chemscore.Internal.Correction>
   9.000000E+99

> <Gold.Chemscore.Hbonds>
donor molecule, donor type, donor heavy atom, donor atom, acceptor molecule, acceptor atom, score
      L1  H    19    47       P1  7948  0.71
      P1  H  7997  8010       L1    13  1.00
      P1  H 10752 10763       L1    14  0.31

> <Gold.Chemscore.Hbond.Weighted>
-9.0512

> <Gold.Chemscore.Metal.Weighted>
-0.0000

> <Gold.Chemscore.Lipo.Weighted>
-8.1910

> <Gold.Chemscore.Internal_Hbond.Weighted>
0.0000

> <Gold.Chemscore.DEClash.Weighted>
0.1511

> <Gold.Chemscore.DEInternal.Weighted>
0.5075

> <Gold.Chemscore.Rot.Weighted>
5.5825

> <Gold.Chemscore.Internal.Correction.Weighted>
   9.000000E+99

> <Gold.Protein.RotatedTorsions>
[ 6907 6896 6895 6894 ] final  -84.75 input  -60.11 | X-H torsion
[ 7974 7965 7964 7962 ] final -165.40 input  175.53 | X-H torsion
[ 8008 7997 7996 7995 ] final   78.78 input   59.86 | X-H torsion
[ 10167 10162 10161 10158 ] final   76.51 input  -65.29 | X-H torsion
[ 10718 10713 10712 10709 ] final  175.73 input   66.30 | X-H torsion
[ 10763 10752 10751 10750 ] final   30.56 input  -60.55 | X-H torsion
[ 11005 11000 10999 10996 ] final  -51.32 input  -57.11 | X-H torsion

> <Gold.Protein.ActiveResidues>
 VAL166  LYS551  ARG553  GLY616  TRP617  ASP618  TYR619  PRO620  LYS621  CYS622 
 ASP623  PHE694  ASN695  SER759  ASP760  ASP761  ALA762  ILE779  LEU786  VAL792 
 PHE793  MET794  SER795  GLU796  ALA797  LYS798  CYS799  TRP800  GLU811  SER814 

> <Gold.Protein.RotatedAtoms>
  150.6874  134.3310  159.4826 H   0  0  0  0  0  0  0  0  0  0  0  0  # atno 6907 bound_to 6896
  152.1175  134.9227  160.0573 H   0  0  0  0  0  0  0  0  0  0  0  0  # atno 6908 bound_to 6896
  152.0446  133.3957  159.4388 H   0  0  0  0  0  0  0  0  0  0  0  0  # atno 6909 bound_to 6896
  144.7271  140.2819  143.6234 H   0  0  0  0  0  0  0  0  0  0  0  0  # atno 7974 bound_to 7965
  155.8605  140.3454  155.5753 H   0  0  0  0  0  0  0  0  0  0  0  0  # atno 8008 bound_to 7997
  155.7939  140.0875  157.2013 H   0  0  0  0  0  0  0  0  0  0  0  0  # atno 8009 bound_to 7997
  154.4011  140.1478  156.3182 H   0  0  0  0  0  0  0  0  0  0  0  0  # atno 8010 bound_to 7997
  139.9915  144.5754  150.7814 H   0  0  0  0  0  0  0  0  0  0  0  0  # atno 10167 bound_to 10162
  156.9305  130.9969  151.2988 H   0  0  0  0  0  0  0  0  0  0  0  0  # atno 10718 bound_to 10713
  153.0365  135.6461  154.1063 H   0  0  0  0  0  0  0  0  0  0  0  0  # atno 10763 bound_to 10752
  154.0777  135.2875  155.3298 H   0  0  0  0  0  0  0  0  0  0  0  0  # atno 10764 bound_to 10752
  154.6551  135.5412  153.8013 H   0  0  0  0  0  0  0  0  0  0  0  0  # atno 10765 bound_to 10752
  141.0864  133.6641  156.3860 H   0  0  0  0  0  0  0  0  0  0  0  0  # atno 11005 bound_to 11000
  145.7941  139.1938  143.2086 LP  0  0  0  0  0  0  0  0  0  0  0  0  # atno 17320 bound_to 7965
  146.0731  140.7847  142.9678 LP  0  0  0  0  0  0  0  0  0  0  0  0  # atno 17321 bound_to 7965
  140.7453  143.2873  151.3427 LP  0  0  0  0  0  0  0  0  0  0  0  0  # atno 17342 bound_to 10162
  139.6337  144.0672  152.2497 LP  0  0  0  0  0  0  0  0  0  0  0  0  # atno 17343 bound_to 10162
  157.5850  130.8403  149.8576 LP  0  0  0  0  0  0  0  0  0  0  0  0  # atno 17370 bound_to 10713
  156.0449  130.3730  150.1342 LP  0  0  0  0  0  0  0  0  0  0  0  0  # atno 17371 bound_to 10713
  140.5352  134.6174  157.5363 LP  0  0  0  0  0  0  0  0  0  0  0  0  # atno 17394 bound_to 11000
  139.9683  134.7335  156.0092 LP  0  0  0  0  0  0  0  0  0  0  0  0  # atno 17395 bound_to 11000

$$$$
