AV-unprocessed.smi:83|AV-procd|sdf|806|dock10
  -GOLD-   2262017203D 1   1.00000     0.00000
 Structure written by MMmdl.
 56 59  0  0  0  0  0  0  0  0  1 V2000
  148.6950  132.8950  153.3948 C   0  0  0  0  0  0  0  0  0  0  0  0
  147.4404  132.0197  153.4109 C   0  0  0  0  0  0  0  0  0  0  0  0
  147.2663  131.2452  154.3512 O   0  0  0  0  0  0  0  0  0  0  0  0
  146.5664  132.1270  152.3898 N   0  0  0  0  0  0  0  0  0  0  0  0
  145.3354  131.3478  152.2873 C   0  0  0  0  0  0  0  0  0  0  0  0
  144.7066  131.7511  150.9500 C   0  0  0  0  0  0  0  0  0  0  0  0
  145.2501  133.1542  150.6811 C   0  0  1  0  0  0  0  0  0  0  0  0
  144.3473  134.2140  151.3591 C   0  0  0  0  0  0  0  0  0  0  0  0
  144.8365  135.5883  151.2359 N   0  0  0  0  0  0  0  0  0  0  0  0
  145.4221  135.9722  149.9528 C   0  0  0  0  0  0  0  0  0  0  0  0
  145.1211  136.3417  152.3403 C   0  0  0  0  0  0  0  0  0  0  0  0
  144.6039  135.9460  153.5361 N   0  0  0  0  0  0  0  0  0  0  0  0
  144.8071  136.6586  154.6465 C   0  0  0  0  0  0  0  0  0  0  0  0
  145.4899  137.7926  154.7937 N   0  0  0  0  0  0  0  0  0  0  0  0
  146.0284  138.1974  153.6097 C   0  0  0  0  0  0  0  0  0  0  0  0
  145.9055  137.5394  152.3496 C   0  0  0  0  0  0  0  0  0  0  0  0
  146.6123  138.2619  151.3921 N   0  0  0  0  0  0  0  0  0  0  0  0
  147.1002  139.2848  152.0363 C   0  0  0  0  0  0  0  0  0  0  0  0
  146.7949  139.3242  153.3750 N   0  0  0  0  0  0  0  0  0  0  0  0
  147.2005  140.3388  154.3304 C   0  0  0  0  0  0  0  0  0  0  0  0
  148.7256  140.3613  154.5475 C   0  0  1  0  0  0  0  0  0  0  0  0
  149.3868  140.8649  153.4009 O   0  0  0  0  0  0  0  0  0  0  0  0
  149.1429  141.1542  155.8028 C   0  0  1  0  0  0  0  0  0  0  0  0
  148.5132  140.6863  157.1263 C   0  0  0  0  0  0  0  0  0  0  0  0
  149.7084  140.2624  157.9594 C   0  0  0  0  0  0  0  0  0  0  0  0
  150.8290  141.1142  157.3785 C   0  0  0  0  0  0  0  0  0  0  0  0
  150.5557  141.0997  155.9870 O   0  0  0  0  0  0  0  0  0  0  0  0
  146.6682  133.0540  151.2655 C   0  0  0  0  0  0  0  0  0  0  0  0
  149.2310  132.7883  152.4514 H   0  0  0  0  0  0  0  0  0  0  0  0
  149.3730  132.6105  154.2001 H   0  0  0  0  0  0  0  0  0  0  0  0
  148.4333  133.9439  153.5317 H   0  0  0  0  0  0  0  0  0  0  0  0
  145.5286  130.2749  152.3316 H   0  0  0  0  0  0  0  0  0  0  0  0
  144.6758  131.6093  153.1163 H   0  0  0  0  0  0  0  0  0  0  0  0
  145.0534  131.0733  150.1690 H   0  0  0  0  0  0  0  0  0  0  0  0
  143.6172  131.7021  150.9638 H   0  0  0  0  0  0  0  0  0  0  0  0
  145.2884  133.3510  149.6091 H   0  0  0  0  0  0  0  0  0  0  0  0
  143.3704  134.1843  150.8754 H   0  0  0  0  0  0  0  0  0  0  0  0
  144.1341  133.9393  152.3865 H   0  0  0  0  0  0  0  0  0  0  0  0
  145.1997  137.0143  149.7203 H   0  0  0  0  0  0  0  0  0  0  0  0
  145.0227  135.3621  149.1423 H   0  0  0  0  0  0  0  0  0  0  0  0
  146.5047  135.8411  149.9684 H   0  0  0  0  0  0  0  0  0  0  0  0
  144.3524  136.2659  155.5440 H   0  0  0  0  0  0  0  0  0  0  0  0
  147.7007  140.0404  151.5511 H   0  0  0  0  0  0  0  0  0  0  0  0
  146.8474  141.3083  153.9767 H   0  0  0  0  0  0  0  0  0  0  0  0
  146.6868  140.1449  155.2727 H   0  0  0  0  0  0  0  0  0  0  0  0
  149.0700  139.3342  154.6753 H   0  0  0  0  0  0  0  0  0  0  0  0
  149.2415  140.2662  152.6843 H   0  0  0  0  0  0  0  0  0  0  0  0
  148.8823  142.2034  155.6528 H   0  0  0  0  0  0  0  0  0  0  0  0
  148.0021  141.5218  157.6063 H   0  0  0  0  0  0  0  0  0  0  0  0
  147.7858  139.8826  157.0089 H   0  0  0  0  0  0  0  0  0  0  0  0
  149.5629  140.4175  159.0286 H   0  0  0  0  0  0  0  0  0  0  0  0
  149.9230  139.2060  157.7924 H   0  0  0  0  0  0  0  0  0  0  0  0
  150.7740  142.1382  157.7515 H   0  0  0  0  0  0  0  0  0  0  0  0
  151.8204  140.7177  157.5982 H   0  0  0  0  0  0  0  0  0  0  0  0
  147.0877  134.0193  151.5377 H   0  0  0  0  0  0  0  0  0  0  0  0
  147.3416  132.6150  150.5282 H   0  0  0  0  0  0  0  0  0  0  0  0
  1  2  1  0  0  0  0
  1 29  1  0  0  0  0
  1 30  1  0  0  0  0
  1 31  1  0  0  0  0
  2  3  2  0  0  0  0
  2  4  1  0  0  0  0
  4 28  1  0  0  0  0
  4  5  1  0  0  0  0
  5  6  1  0  0  0  0
  5 32  1  0  0  0  0
  5 33  1  0  0  0  0
  6  7  1  0  0  0  0
  6 34  1  0  0  0  0
  6 35  1  0  0  0  0
  7  8  1  0  0  0  0
  7 28  1  0  0  0  0
  7 36  1  0  0  0  0
  8  9  1  0  0  0  0
  8 37  1  0  0  0  0
  8 38  1  0  0  0  0
  9 10  1  0  0  0  0
  9 11  1  0  0  0  0
 10 39  1  0  0  0  0
 10 40  1  0  0  0  0
 10 41  1  0  0  0  0
 11 16  1  0  0  0  0
 11 12  2  0  0  0  0
 12 13  1  0  0  0  0
 13 14  2  0  0  0  0
 13 42  1  0  0  0  0
 14 15  1  0  0  0  0
 15 19  1  0  0  0  0
 15 16  2  0  0  0  0
 16 17  1  0  0  0  0
 17 18  2  0  0  0  0
 18 19  1  0  0  0  0
 18 43  1  0  0  0  0
 19 20  1  0  0  0  0
 20 21  1  0  0  0  0
 20 44  1  0  0  0  0
 20 45  1  0  0  0  0
 21 22  1  0  0  0  0
 21 23  1  0  0  0  0
 21 46  1  0  0  0  0
 22 47  1  0  0  0  0
 23 27  1  0  0  0  0
 23 24  1  0  0  0  0
 23 48  1  0  0  0  0
 24 25  1  0  0  0  0
 24 49  1  0  0  0  0
 24 50  1  0  0  0  0
 25 26  1  0  0  0  0
 25 51  1  0  0  0  0
 25 52  1  0  0  0  0
 26 27  1  0  0  0  0
 26 53  1  0  0  0  0
 26 54  1  0  0  0  0
 28 55  1  0  0  0  0
 28 56  1  0  0  0  0
M  END
> <s_m_source_file>
AV-unprocessed.smi

> <i_m_source_file_index>
83

> <i_lp_mmshare_version>
43012

> <i_f3d_flags>
0

> <s_epik_input>
W0NIM11DKD1PKU4xW0NIMl1bQ0gyXVtDQEhdKFtDSDJdMSlbQ0gyXU4oW0NIM10pYyhuW2NIXW4yKWMoYzIzKW5bY0hdbjNbQ0gyXVtDQEhdKFtPSF0pW0NAQEhdNFtDSDJdW0NIMl1bQ0gyXU80

> <s_epik_cmdline>
J2VwaWtfcHl0aG9uJywgJy1waCcsICc3LjAnLCAnLXRuJywgJzgnLCAnLW1hJywgJzIwMCcsICctbWV0YWxfYmluZGluZycsICctaW1hZScsICc8aW5maWxlLm1hZT4nLCAnLW9tYWUnLCAnPG91dGZpbGUubWFlPic=

> <r_lp_tautomer_probability>
1

> <r_epik_Ionization_Penalty>
0.00109752

> <r_epik_Ionization_Penalty_Charging>
0

> <r_epik_Ionization_Penalty_Neutral>
0.00109752

> <r_epik_State_Penalty>
0.000634803

> <r_epik_Charging_Adjusted_Penalty>
0.000634803

> <i_epik_Tot_Q>
0

> <i_epik_Tot_abs_Q>
0

> <r_epik_Metal_State_Penalty>
-0

> <b_epik_Metal_Only>
0

> <s_lp_Force_Field>
OPLS_2005

> <r_lp_Energy>
56.5247

> <b_lp_Chiralities_Consistent>
1

> <s_lp_Variant>
AV-unprocessed.smi:83-7

> <Gold.Version>
5.8.1

> <Gold.Id.Protein>
6NUR|6NUR_protein|mol2

> <Gold.PLP.Fitness>
51.6256

> <Gold.PLP.PLP>
-42.4983

> <Gold.PLP.part.hbond>
-3.1085

> <Gold.PLP.part.metal>
0.0000

> <Gold.PLP.part.buried>
-1.0517

> <Gold.PLP.part.nonpolar>
-41.1418

> <Gold.PLP.part.repulsive>
0.8764

> <Gold.PLP.ligand.clash>
0.0000

> <Gold.PLP.ligand.torsion>
0.3355

> <Gold.PLP.Chemscore.Hbond>
2.2818

> <Gold.PLP.Chemscore.CHOScore>
0.8341

> <Gold.PLP.Chemscore.Metal>
0.0000

> <Gold.Chemscore.Hbonds>
donor molecule, donor type, donor heavy atom, donor atom, acceptor molecule, acceptor atom, score
      L1  H    22    47       P1  7957  0.83
      P1  H  7954  7966       L1    17  0.60
      P1  H  7989  7998       L1    22  0.15
      P1  H  8011  8017       L1    22  0.85
      L1  C    18    43       P1  7957  0.69

> <Gold.PLP.Chemscore.Internal.Correction>
0.4506

> <Gold.Rescore>
     Score         DG    S(hbond)    S(metal)    S(lipo)     H(rot)  DE(clash)    DE(int)     intcor
      9.27     -14.38       1.57        0.00      88.58       2.62       3.60       1.52       ----

> <Gold.Chemscore.Fitness>
9.2673

> <Gold.Chemscore.DG>
-14.3792

> <Gold.Chemscore.ZeroCoef>
-5.4800

> <Gold.Chemscore.Hbond>
1.5659

> <Gold.Chemscore.Metal>
0.0000

> <Gold.Chemscore.Lipo>
88.5805

> <Gold.Chemscore.Internal_Hbond>
0.0000

> <Gold.Chemscore.DEClash>
3.5967

> <Gold.Chemscore.DEInternal>
1.5152

> <Gold.Chemscore.Rot>
2.6152

> <Gold.Chemscore.Internal.Correction>
   9.000000E+99

> <Gold.Chemscore.Hbonds>
donor molecule, donor type, donor heavy atom, donor atom, acceptor molecule, acceptor atom, score
      L1  H    22    47       P1  7957  0.80
      P1  H  7954  7966       L1    17  0.21
      P1  H  7989  7998       L1    22  0.04
      P1  H  8011  8017       L1    22  0.14

> <Gold.Chemscore.Hbond.Weighted>
-5.2302

> <Gold.Chemscore.Metal.Weighted>
-0.0000

> <Gold.Chemscore.Lipo.Weighted>
-10.3639

> <Gold.Chemscore.Internal_Hbond.Weighted>
0.0000

> <Gold.Chemscore.DEClash.Weighted>
3.5967

> <Gold.Chemscore.DEInternal.Weighted>
1.5152

> <Gold.Chemscore.Rot.Weighted>
6.6949

> <Gold.Chemscore.Internal.Correction.Weighted>
   9.000000E+99

> <Gold.Protein.RotatedTorsions>
[ 6907 6896 6895 6894 ] final -134.08 input  -60.11 | X-H torsion
[ 7974 7965 7964 7962 ] final   26.85 input  175.53 | X-H torsion
[ 8008 7997 7996 7995 ] final   -8.05 input   59.86 | X-H torsion
[ 10167 10162 10161 10158 ] final -107.94 input  -65.29 | X-H torsion
[ 10718 10713 10712 10709 ] final   13.62 input   66.30 | X-H torsion
[ 10763 10752 10751 10750 ] final  -15.18 input  -60.55 | X-H torsion
[ 11005 11000 10999 10996 ] final  126.09 input  -57.11 | X-H torsion

> <Gold.Protein.ActiveResidues>
 VAL166  LYS551  ARG553  GLY616  TRP617  ASP618  TYR619  PRO620  LYS621  CYS622 
 ASP623  PHE694  ASN695  SER759  ASP760  ASP761  ALA762  ILE779  LEU786  VAL792 
 PHE793  MET794  SER795  GLU796  ALA797  LYS798  CYS799  TRP800  GLU811  SER814 

> <Gold.Protein.RotatedAtoms>
  150.9816  133.6240  159.2721 H   0  0  0  0  0  0  0  0  0  0  0  0  # atno 6907 bound_to 6896
  151.3493  135.0880  159.9407 H   0  0  0  0  0  0  0  0  0  0  0  0  # atno 6908 bound_to 6896
  152.5217  133.9411  159.7681 H   0  0  0  0  0  0  0  0  0  0  0  0  # atno 6909 bound_to 6896
  146.1815  139.7271  142.8897 H   0  0  0  0  0  0  0  0  0  0  0  0  # atno 7974 bound_to 7965
  154.5778  140.2391  155.8097 H   0  0  0  0  0  0  0  0  0  0  0  0  # atno 8008 bound_to 7997
  156.2156  140.3013  155.9789 H   0  0  0  0  0  0  0  0  0  0  0  0  # atno 8009 bound_to 7997
  155.2595  140.0414  157.2986 H   0  0  0  0  0  0  0  0  0  0  0  0  # atno 8010 bound_to 7997
  140.1715  143.4039  152.1351 H   0  0  0  0  0  0  0  0  0  0  0  0  # atno 10167 bound_to 10162
  157.0274  130.6179  149.5730 H   0  0  0  0  0  0  0  0  0  0  0  0  # atno 10718 bound_to 10713
  153.5395  135.7013  153.5643 H   0  0  0  0  0  0  0  0  0  0  0  0  # atno 10763 bound_to 10752
  153.3615  135.3968  155.1722 H   0  0  0  0  0  0  0  0  0  0  0  0  # atno 10764 bound_to 10752
  154.8675  135.3790  154.4898 H   0  0  0  0  0  0  0  0  0  0  0  0  # atno 10765 bound_to 10752
  139.9439  134.9632  156.8655 H   0  0  0  0  0  0  0  0  0  0  0  0  # atno 11005 bound_to 11000
  145.4061  141.0391  143.3043 LP  0  0  0  0  0  0  0  0  0  0  0  0  # atno 17320 bound_to 7965
  144.8324  139.5606  143.6938 LP  0  0  0  0  0  0  0  0  0  0  0  0  # atno 17321 bound_to 7965
  139.5336  144.7185  151.4971 LP  0  0  0  0  0  0  0  0  0  0  0  0  # atno 17342 bound_to 10162
  140.6579  143.8561  150.6855 LP  0  0  0  0  0  0  0  0  0  0  0  0  # atno 17343 bound_to 10162
  156.0081  130.5170  150.7899 LP  0  0  0  0  0  0  0  0  0  0  0  0  # atno 17370 bound_to 10713
  157.5204  131.0931  151.0086 LP  0  0  0  0  0  0  0  0  0  0  0  0  # atno 17371 bound_to 10713
  140.5884  134.0285  155.7490 LP  0  0  0  0  0  0  0  0  0  0  0  0  # atno 17394 bound_to 11000
  141.1082  133.9659  157.2958 LP  0  0  0  0  0  0  0  0  0  0  0  0  # atno 17395 bound_to 11000

$$$$
