AV-unprocessed.smi:1837|AV-procd|sdf|7481|dock7
  -GOLD-   22720 9183D 1   1.00000     0.00000
 Structure written by MMmdl.
 45 48  0  0  0  0  0  0  0  0  3 V2000
  149.6449  135.7146  158.4918 O   0  0  0  0  0  0  0  0  0  0  0  0
  148.6210  135.6112  157.8154 C   0  0  0  0  0  0  0  0  0  0  0  0
  148.6949  135.6179  156.2819 C   0  0  0  0  0  0  0  0  0  0  0  0
  149.5392  136.6988  155.7456 N   0  0  0  0  0  0  0  0  0  0  0  0
  148.8824  137.8588  155.2891 C   0  0  0  0  0  0  0  0  0  0  0  0
  149.5552  138.9066  154.7741 C   0  0  0  0  0  0  0  0  0  0  0  0
  148.8645  140.0874  154.3041 N   0  3  0  0  0  0  0  0  0  0  0  0
  147.6405  140.1230  154.3812 O   0  0  0  0  0  0  0  0  0  0  0  0
  149.5198  141.0166  153.8419 O   0  5  0  0  0  0  0  0  0  0  0  0
  151.0003  138.8101  154.7018 C   0  0  0  0  0  0  0  0  0  0  0  0
  151.6340  137.7014  155.1323 C   0  0  0  0  0  0  0  0  0  0  0  0
  150.8993  136.5604  155.6879 C   0  0  0  0  0  0  0  0  0  0  0  0
  151.4720  135.5426  156.0776 O   0  0  0  0  0  0  0  0  0  0  0  0
  147.3902  135.4691  158.3369 N   0  0  0  0  0  0  0  0  0  0  0  0
  146.9998  135.4265  159.7501 C   0  0  0  0  0  0  0  0  0  0  0  0
  145.4677  135.2286  159.9130 C   0  0  0  0  0  0  0  0  0  0  0  0
  145.0920  135.2551  161.4107 C   0  0  1  0  0  0  0  0  0  0  0  0
  145.8384  134.1247  162.1523 C   0  0  0  0  0  0  0  0  0  0  0  0
  147.3617  134.3354  162.0104 C   0  0  2  0  0  0  0  0  0  0  0  0
  147.7537  135.6977  162.6194 C   0  0  0  0  0  0  0  0  0  0  0  0
  147.0051  136.8213  161.8730 C   0  0  2  0  0  0  0  0  0  0  0  0
  145.4828  136.6178  162.0195 C   0  0  0  0  0  0  0  0  0  0  0  0
  147.3878  136.7894  160.3782 C   0  0  0  0  0  0  0  0  0  0  0  0
  147.7506  134.3026  160.5163 C   0  0  0  0  0  0  0  0  0  0  0  0
  149.0645  134.6447  155.9560 H   0  0  0  0  0  0  0  0  0  0  0  0
  147.6864  135.6911  155.8697 H   0  0  0  0  0  0  0  0  0  0  0  0
  147.8061  137.8291  155.3786 H   0  0  0  0  0  0  0  0  0  0  0  0
  151.5845  139.6250  154.3001 H   0  0  0  0  0  0  0  0  0  0  0  0
  152.7112  137.6506  155.0676 H   0  0  0  0  0  0  0  0  0  0  0  0
  146.6302  135.3868  157.6772 H   0  0  0  0  0  0  0  0  0  0  0  0
  144.9251  136.0094  159.3783 H   0  0  0  0  0  0  0  0  0  0  0  0
  145.1450  134.2815  159.4804 H   0  0  0  0  0  0  0  0  0  0  0  0
  144.0167  135.1075  161.5156 H   0  0  0  0  0  0  0  0  0  0  0  0
  145.5554  134.1140  163.2057 H   0  0  0  0  0  0  0  0  0  0  0  0
  145.5518  133.1536  161.7469 H   0  0  0  0  0  0  0  0  0  0  0  0
  147.8878  133.5393  162.5380 H   0  0  0  0  0  0  0  0  0  0  0  0
  147.5100  135.7217  163.6824 H   0  0  0  0  0  0  0  0  0  0  0  0
  148.8316  135.8484  162.5469 H   0  0  0  0  0  0  0  0  0  0  0  0
  147.2836  137.7860  162.2981 H   0  0  0  0  0  0  0  0  0  0  0  0
  144.9431  137.4235  161.5204 H   0  0  0  0  0  0  0  0  0  0  0  0
  145.1956  136.6585  163.0709 H   0  0  0  0  0  0  0  0  0  0  0  0
  148.4591  136.9662  160.2690 H   0  0  0  0  0  0  0  0  0  0  0  0
  146.8892  137.6053  159.8527 H   0  0  0  0  0  0  0  0  0  0  0  0
  147.5123  133.3208  160.1073 H   0  0  0  0  0  0  0  0  0  0  0  0
  148.8293  134.4250  160.4089 H   0  0  0  0  0  0  0  0  0  0  0  0
  1  2  2  0  0  0  0
  2  3  1  0  0  0  0
  2 14  1  0  0  0  0
  3  4  1  0  0  0  0
  3 25  1  0  0  0  0
  3 26  1  0  0  0  0
  4 12  1  0  0  0  0
  4  5  1  0  0  0  0
  5  6  2  0  0  0  0
  5 27  1  0  0  0  0
  6  7  1  0  0  0  0
  6 10  1  0  0  0  0
  7  8  2  0  0  0  0
  7  9  1  0  0  0  0
 10 11  2  0  0  0  0
 10 28  1  0  0  0  0
 11 12  1  0  0  0  0
 11 29  1  0  0  0  0
 12 13  2  0  0  0  0
 14 15  1  0  0  0  0
 14 30  1  0  0  0  0
 15 23  1  0  0  0  0
 15 24  1  0  0  0  0
 15 16  1  0  0  0  0
 16 17  1  0  0  0  0
 16 31  1  0  0  0  0
 16 32  1  0  0  0  0
 17 22  1  0  0  0  0
 17 18  1  0  0  0  0
 17 33  1  0  0  0  0
 18 19  1  0  0  0  0
 18 34  1  0  0  0  0
 18 35  1  0  0  0  0
 19 20  1  0  0  0  0
 19 24  1  0  0  0  0
 19 36  1  0  0  0  0
 20 21  1  0  0  0  0
 20 37  1  0  0  0  0
 20 38  1  0  0  0  0
 21 22  1  0  0  0  0
 21 23  1  0  0  0  0
 21 39  1  0  0  0  0
 22 40  1  0  0  0  0
 22 41  1  0  0  0  0
 23 42  1  0  0  0  0
 23 43  1  0  0  0  0
 24 44  1  0  0  0  0
 24 45  1  0  0  0  0
M  CHG  1   7   1
M  CHG  1   9  -1
M  END
> <s_m_source_file>
AV-unprocessed.smi

> <i_m_source_file_index>
1837

> <i_lp_mmshare_version>
43012

> <i_f3d_flags>
0

> <s_epik_input>
Tz1jMVtjSF1bY0hdYyhbTitdKD1PKVtPLV0pW2NIXW4xW0NIMl1DKD1PKVtOSF1DMjNbQ0gyXVtDQEhdNFtDSDJdW0NAQEhdKFtDSDJdMylbQ0gyXVtDQEhdKFtDSDJdNClbQ0gyXTI=

> <s_epik_cmdline>
J2VwaWtfcHl0aG9uJywgJy1waCcsICc3LjAnLCAnLXRuJywgJzgnLCAnLW1hJywgJzIwMCcsICctbWV0YWxfYmluZGluZycsICctaW1hZScsICc8aW5maWxlLm1hZT4nLCAnLW9tYWUnLCAnPG91dGZpbGUubWFlPic=

> <r_lp_tautomer_probability>
1

> <r_epik_Ionization_Penalty>
2.34466e-08

> <r_epik_Ionization_Penalty_Charging>
8.88262e-11

> <r_epik_Ionization_Penalty_Neutral>
2.33578e-08

> <r_epik_State_Penalty>
-0

> <r_epik_Charging_Adjusted_Penalty>
8.88262e-11

> <i_epik_Tot_Q>
0

> <i_epik_Tot_abs_Q>
2

> <r_epik_Metal_State_Penalty>
-0

> <b_epik_Metal_Only>
0

> <s_lp_Force_Field>
OPLS_2005

> <r_lp_Energy>
41.9783

> <b_lp_Chiralities_Consistent>
1

> <s_lp_Variant>
AV-unprocessed.smi:1837-1

> <Gold.Version>
5.8.1

> <Gold.Id.Protein>
6NUR|6NUR_protein|mol2

> <Gold.PLP.Fitness>
44.1237

> <Gold.PLP.PLP>
-35.5512

> <Gold.PLP.part.hbond>
-4.0000

> <Gold.PLP.part.metal>
0.0000

> <Gold.PLP.part.buried>
-3.9021

> <Gold.PLP.part.nonpolar>
-28.4369

> <Gold.PLP.part.repulsive>
1.5660

> <Gold.PLP.ligand.clash>
0.0000

> <Gold.PLP.ligand.torsion>
0.4689

> <Gold.PLP.Chemscore.Hbond>
3.1643

> <Gold.PLP.Chemscore.CHOScore>
0.0000

> <Gold.PLP.Chemscore.Metal>
0.0000

> <Gold.Chemscore.Hbonds>
donor molecule, donor type, donor heavy atom, donor atom, acceptor molecule, acceptor atom, score
      P1  H  6896  6907       L1     1  1.00
      P1  H  7989  7998       L1     9  0.29
      P1  H  8011  8017       L1     9  0.83
      P1  H 10752 10764       L1    13  1.00

> <Gold.PLP.Chemscore.Internal.Correction>
0.0174

> <Gold.Rescore>
     Score         DG    S(hbond)    S(metal)    S(lipo)     H(rot)  DE(clash)    DE(int)     intcor
     20.76     -21.58       2.94        0.00      87.41       1.53       0.30       0.52       ----

> <Gold.Chemscore.Fitness>
20.7646

> <Gold.Chemscore.DG>
-21.5848

> <Gold.Chemscore.ZeroCoef>
-5.4800

> <Gold.Chemscore.Hbond>
2.9350

> <Gold.Chemscore.Metal>
0.0000

> <Gold.Chemscore.Lipo>
87.4073

> <Gold.Chemscore.Internal_Hbond>
0.0000

> <Gold.Chemscore.DEClash>
0.2955

> <Gold.Chemscore.DEInternal>
0.5246

> <Gold.Chemscore.Rot>
1.5332

> <Gold.Chemscore.Internal.Correction>
   9.000000E+99

> <Gold.Chemscore.Hbonds>
donor molecule, donor type, donor heavy atom, donor atom, acceptor molecule, acceptor atom, score
      P1  H  6896  6907       L1     1  0.99
      P1  H  7989  7998       L1     9  0.30
      P1  H  8011  8017       L1     9  0.78
      P1  H 10752 10764       L1    13  0.65

> <Gold.Chemscore.Hbond.Weighted>
-9.8030

> <Gold.Chemscore.Metal.Weighted>
-0.0000

> <Gold.Chemscore.Lipo.Weighted>
-10.2267

> <Gold.Chemscore.Internal_Hbond.Weighted>
0.0000

> <Gold.Chemscore.DEClash.Weighted>
0.2955

> <Gold.Chemscore.DEInternal.Weighted>
0.5246

> <Gold.Chemscore.Rot.Weighted>
3.9249

> <Gold.Chemscore.Internal.Correction.Weighted>
   9.000000E+99

> <Gold.Protein.RotatedTorsions>
[ 6907 6896 6895 6894 ] final  -72.39 input  -60.11 | X-H torsion
[ 7974 7965 7964 7962 ] final   70.18 input  175.53 | X-H torsion
[ 8008 7997 7996 7995 ] final   15.09 input   59.86 | X-H torsion
[ 10167 10162 10161 10158 ] final  -15.62 input  -65.29 | X-H torsion
[ 10718 10713 10712 10709 ] final   85.95 input   66.30 | X-H torsion
[ 10763 10752 10751 10750 ] final  -19.12 input  -60.55 | X-H torsion
[ 11005 11000 10999 10996 ] final  -83.21 input  -57.11 | X-H torsion

> <Gold.Protein.ActiveResidues>
 VAL166  LYS551  ARG553  GLY616  TRP617  ASP618  TYR619  PRO620  LYS621  CYS622 
 ASP623  PHE694  ASN695  SER759  ASP760  ASP761  ALA762  ILE779  LEU786  VAL792 
 PHE793  MET794  SER795  GLU796  ALA797  LYS798  CYS799  TRP800  GLU811  SER814 

> <Gold.Protein.RotatedAtoms>
  150.7172  134.5170  159.5634 H   0  0  0  0  0  0  0  0  0  0  0  0  # atno 6907 bound_to 6896
  152.2734  134.7905  160.0419 H   0  0  0  0  0  0  0  0  0  0  0  0  # atno 6908 bound_to 6896
  151.8577  133.3416  159.3730 H   0  0  0  0  0  0  0  0  0  0  0  0  # atno 6909 bound_to 6896
  145.7813  139.2889  143.1264 H   0  0  0  0  0  0  0  0  0  0  0  0  # atno 7974 bound_to 7965
  154.8578  140.2939  155.5558 H   0  0  0  0  0  0  0  0  0  0  0  0  # atno 8008 bound_to 7997
  156.3019  140.2484  156.3479 H   0  0  0  0  0  0  0  0  0  0  0  0  # atno 8009 bound_to 7997
  154.8951  140.0393  157.1850 H   0  0  0  0  0  0  0  0  0  0  0  0  # atno 8010 bound_to 7997
  140.7221  143.5200  150.9645 H   0  0  0  0  0  0  0  0  0  0  0  0  # atno 10167 bound_to 10162
  157.6922  131.0195  150.2899 H   0  0  0  0  0  0  0  0  0  0  0  0  # atno 10718 bound_to 10713
  153.5998  135.7000  153.5389 H   0  0  0  0  0  0  0  0  0  0  0  0  # atno 10763 bound_to 10752
  153.3106  135.4102  155.1332 H   0  0  0  0  0  0  0  0  0  0  0  0  # atno 10764 bound_to 10752
  154.8584  135.3671  154.5533 H   0  0  0  0  0  0  0  0  0  0  0  0  # atno 10765 bound_to 10752
  141.1659  133.7283  156.8686 H   0  0  0  0  0  0  0  0  0  0  0  0  # atno 11005 bound_to 11000
  146.0071  140.8469  142.9989 LP  0  0  0  0  0  0  0  0  0  0  0  0  # atno 17320 bound_to 7965
  144.6796  140.2435  143.7340 LP  0  0  0  0  0  0  0  0  0  0  0  0  # atno 17321 bound_to 7965
  139.8917  143.6945  152.3144 LP  0  0  0  0  0  0  0  0  0  0  0  0  # atno 17342 bound_to 10162
  139.7263  144.7592  151.0873 LP  0  0  0  0  0  0  0  0  0  0  0  0  # atno 17343 bound_to 10162
  156.3431  130.3818  149.7392 LP  0  0  0  0  0  0  0  0  0  0  0  0  # atno 17370 bound_to 10713
  156.4894  130.8078  151.3088 LP  0  0  0  0  0  0  0  0  0  0  0  0  # atno 17371 bound_to 10713
  140.1798  134.9041  157.2934 LP  0  0  0  0  0  0  0  0  0  0  0  0  # atno 17394 bound_to 11000
  140.2408  134.3798  155.7481 LP  0  0  0  0  0  0  0  0  0  0  0  0  # atno 17395 bound_to 11000

$$$$
