AV-unprocessed.smi:2278|AV-procd|sdf|9181|dock4
  -GOLD-   2272012393D 1   1.00000     0.00000
 Structure written by MMmdl.
 46 47  0  0  0  0  0  0  0  0  2 V2000
  150.9609  141.2682  156.2971 C   0  0  0  0  0  0  0  0  0  0  0  0
  149.7758  141.0326  155.3777 C   0  0  0  0  0  0  0  0  0  0  0  0
  150.0857  140.5406  154.1067 N   0  0  0  0  0  0  0  0  0  0  0  0
  149.1394  140.3055  153.2581 C   0  0  0  0  0  0  0  0  0  0  0  0
  147.7889  140.5281  153.5759 N   0  0  0  0  0  0  0  0  0  0  0  0
  146.8131  140.2081  152.5185 C   0  0  0  0  0  0  0  0  0  0  0  0
  146.9025  138.7389  152.0462 C   0  0  2  0  0  0  0  0  0  0  0  0
  146.6963  138.7256  150.6479 O   0  0  0  0  0  0  0  0  0  0  0  0
  145.8554  137.8120  152.7028 C   0  0  0  0  0  0  0  0  0  0  0  0
  146.0491  136.3837  152.3445 N   0  3  2  0  0  0  0  0  0  0  0  0
  145.4179  136.0403  151.0445 C   0  0  0  0  0  0  0  0  0  0  0  0
  145.7502  134.5962  150.6269 C   0  0  0  0  0  0  0  0  0  0  0  0
  145.3582  133.5709  151.7066 C   0  0  2  0  0  0  0  0  0  0  0  0
  143.8388  133.3403  151.7875 C   0  0  0  0  0  0  0  0  0  0  0  0
  145.9690  133.9915  153.0557 C   0  0  0  0  0  0  0  0  0  0  0  0
  145.6285  135.4472  153.4205 C   0  0  0  0  0  0  0  0  0  0  0  0
  147.4010  141.0156  154.7903 C   0  0  0  0  0  0  0  0  0  0  0  0
  146.2143  141.2085  155.0611 O   0  0  0  0  0  0  0  0  0  0  0  0
  148.4887  141.2757  155.7469 C   0  0  0  0  0  0  0  0  0  0  0  0
  148.0902  141.8055  157.1187 C   0  0  0  0  0  0  0  0  0  0  0  0
  151.0043  142.3135  156.6041 H   0  0  0  0  0  0  0  0  0  0  0  0
  151.9028  141.0272  155.8021 H   0  0  0  0  0  0  0  0  0  0  0  0
  150.8827  140.6454  157.1886 H   0  0  0  0  0  0  0  0  0  0  0  0
  149.3271  139.9197  152.2544 H   0  0  0  0  0  0  0  0  0  0  0  0
  145.7936  140.4336  152.8371 H   0  0  0  0  0  0  0  0  0  0  0  0
  146.9808  140.8737  151.6689 H   0  0  0  0  0  0  0  0  0  0  0  0
  147.9116  138.3720  152.2298 H   0  0  0  0  0  0  0  0  0  0  0  0
  145.8052  138.9876  150.4705 H   0  0  0  0  0  0  0  0  0  0  0  0
  145.8779  137.8986  153.7891 H   0  0  0  0  0  0  0  0  0  0  0  0
  144.8627  138.1424  152.3929 H   0  0  0  0  0  0  0  0  0  0  0  0
  144.3383  136.1830  151.1107 H   0  0  0  0  0  0  0  0  0  0  0  0
  145.7768  136.7216  150.2721 H   0  0  0  0  0  0  0  0  0  0  0  0
  145.2608  134.3569  149.6822 H   0  0  0  0  0  0  0  0  0  0  0  0
  146.8222  134.5226  150.4381 H   0  0  0  0  0  0  0  0  0  0  0  0
  145.8008  132.6136  151.4282 H   0  0  0  0  0  0  0  0  0  0  0  0
  143.2975  134.2472  152.0558 H   0  0  0  0  0  0  0  0  0  0  0  0
  143.5989  132.5819  152.5332 H   0  0  0  0  0  0  0  0  0  0  0  0
  143.4456  132.9929  150.8320 H   0  0  0  0  0  0  0  0  0  0  0  0
  145.6361  133.3194  153.8476 H   0  0  0  0  0  0  0  0  0  0  0  0
  147.0535  133.8844  153.0058 H   0  0  0  0  0  0  0  0  0  0  0  0
  146.1257  135.6968  154.3568 H   0  0  0  0  0  0  0  0  0  0  0  0
  144.5581  135.5534  153.6018 H   0  0  0  0  0  0  0  0  0  0  0  0
  147.4247  141.0988  157.6151 H   0  0  0  0  0  0  0  0  0  0  0  0
  147.5611  142.7536  157.0164 H   0  0  0  0  0  0  0  0  0  0  0  0
  148.9398  141.9735  157.7786 H   0  0  0  0  0  0  0  0  0  0  0  0
  147.0433  136.2607  152.2136 H   0  0  0  0  0  0  0  0  0  0  0  0
  1  2  1  0  0  0  0
  1 21  1  0  0  0  0
  1 22  1  0  0  0  0
  1 23  1  0  0  0  0
  2 19  2  0  0  0  0
  2  3  1  0  0  0  0
  3  4  2  0  0  0  0
  4  5  1  0  0  0  0
  4 24  1  0  0  0  0
  5  6  1  0  0  0  0
  5 17  1  0  0  0  0
  6  7  1  0  0  0  0
  6 25  1  0  0  0  0
  6 26  1  0  0  0  0
  7  8  1  0  0  0  0
  7  9  1  0  0  0  0
  7 27  1  0  0  0  0
  8 28  1  0  0  0  0
  9 10  1  0  0  0  0
  9 29  1  0  0  0  0
  9 30  1  0  0  0  0
 10 16  1  0  0  0  0
 10 11  1  0  0  0  0
 10 46  1  0  0  0  0
 11 12  1  0  0  0  0
 11 31  1  0  0  0  0
 11 32  1  0  0  0  0
 12 13  1  0  0  0  0
 12 33  1  0  0  0  0
 12 34  1  0  0  0  0
 13 14  1  0  0  0  0
 13 15  1  0  0  0  0
 13 35  1  0  0  0  0
 14 36  1  0  0  0  0
 14 37  1  0  0  0  0
 14 38  1  0  0  0  0
 15 16  1  0  0  0  0
 15 39  1  0  0  0  0
 15 40  1  0  0  0  0
 16 41  1  0  0  0  0
 16 42  1  0  0  0  0
 17 18  2  0  0  0  0
 17 19  1  0  0  0  0
 19 20  1  0  0  0  0
 20 43  1  0  0  0  0
 20 44  1  0  0  0  0
 20 45  1  0  0  0  0
M  CHG  1  10   1
M  END
> <s_m_source_file>
AV-unprocessed.smi

> <i_m_source_file_index>
2278

> <i_lp_mmshare_version>
43012

> <i_f3d_flags>
0

> <s_epik_input>
W0NIM11jMW5bY0hdbihjKD1PKWMxW0NIM10pW0NIMl1bQ0BIXShbT0hdKVtDSDJdTjJbQ0gyXVtDSDJdW0NIXShbQ0gzXSlbQ0gyXVtDSDJdMg==

> <s_epik_cmdline>
J2VwaWtfcHl0aG9uJywgJy1waCcsICc3LjAnLCAnLXRuJywgJzgnLCAnLW1hJywgJzIwMCcsICctbWV0YWxfYmluZGluZycsICctaW1hZScsICc8aW5maWxlLm1hZT4nLCAnLW9tYWUnLCAnPG91dGZpbGUubWFlPic=

> <r_lp_tautomer_probability>
1

> <r_epik_Ionization_Penalty>
0.00139489

> <r_epik_Ionization_Penalty_Charging>
0.00136819

> <r_epik_Ionization_Penalty_Neutral>
2.66975e-05

> <r_epik_State_Penalty>
0.000910892

> <r_epik_Charging_Adjusted_Penalty>
0.00227908

> <i_epik_Tot_Q>
1

> <i_epik_Tot_abs_Q>
1

> <r_epik_Metal_State_Penalty>
-0

> <b_epik_Metal_Only>
0

> <s_lp_Force_Field>
OPLS_2005

> <r_lp_Energy>
30.3115

> <b_lp_Chiralities_Consistent>
1

> <s_lp_Variant>
AV-unprocessed.smi:2278-3

> <Gold.Version>
5.8.1

> <Gold.Id.Protein>
6NUR|6NUR_protein|mol2

> <Gold.PLP.Fitness>
42.8163

> <Gold.PLP.PLP>
-31.1075

> <Gold.PLP.part.hbond>
-4.3099

> <Gold.PLP.part.metal>
0.0000

> <Gold.PLP.part.buried>
3.8456

> <Gold.PLP.part.nonpolar>
-31.6290

> <Gold.PLP.part.repulsive>
0.2901

> <Gold.PLP.ligand.clash>
0.0000

> <Gold.PLP.ligand.torsion>
0.8854

> <Gold.PLP.Chemscore.Hbond>
4.4720

> <Gold.PLP.Chemscore.CHOScore>
0.0000

> <Gold.PLP.Chemscore.Metal>
0.0000

> <Gold.Chemscore.Hbonds>
donor molecule, donor type, donor heavy atom, donor atom, acceptor molecule, acceptor atom, score
      L1  H     8    28       P1 10171  0.94
      L1  H    10    46       P1  7948  2.00
      P1  H  7954  7966       L1     8  0.80
      P1  H  7989  7998       L1     3  0.77

> <Gold.PLP.Chemscore.Internal.Correction>
0.0636

> <Gold.Rescore>
     Score         DG    S(hbond)    S(metal)    S(lipo)     H(rot)  DE(clash)    DE(int)     intcor
     14.78     -18.90       3.26        0.00      69.69       2.20       2.17       1.95       ----

> <Gold.Chemscore.Fitness>
14.7833

> <Gold.Chemscore.DG>
-18.9025

> <Gold.Chemscore.ZeroCoef>
-5.4800

> <Gold.Chemscore.Hbond>
3.2628

> <Gold.Chemscore.Metal>
0.0000

> <Gold.Chemscore.Lipo>
69.6860

> <Gold.Chemscore.Internal_Hbond>
0.0000

> <Gold.Chemscore.DEClash>
2.1715

> <Gold.Chemscore.DEInternal>
1.9478

> <Gold.Chemscore.Rot>
2.1986

> <Gold.Chemscore.Internal.Correction>
   9.000000E+99

> <Gold.Chemscore.Hbonds>
donor molecule, donor type, donor heavy atom, donor atom, acceptor molecule, acceptor atom, score
      L1  H     8    28       P1 10171  0.87
      L1  H    10    46       P1  7948  1.00
      P1  H  7954  7966       L1     8  0.52
      P1  H  7989  7998       L1     3  0.68

> <Gold.Chemscore.Hbond.Weighted>
-10.8977

> <Gold.Chemscore.Metal.Weighted>
-0.0000

> <Gold.Chemscore.Lipo.Weighted>
-8.1533

> <Gold.Chemscore.Internal_Hbond.Weighted>
0.0000

> <Gold.Chemscore.DEClash.Weighted>
2.1715

> <Gold.Chemscore.DEInternal.Weighted>
1.9478

> <Gold.Chemscore.Rot.Weighted>
5.6285

> <Gold.Chemscore.Internal.Correction.Weighted>
   9.000000E+99

> <Gold.Protein.RotatedTorsions>
[ 6907 6896 6895 6894 ] final  145.86 input  -60.11 | X-H torsion
[ 7974 7965 7964 7962 ] final  -47.24 input  175.53 | X-H torsion
[ 8008 7997 7996 7995 ] final  115.36 input   59.86 | X-H torsion
[ 10167 10162 10161 10158 ] final  110.13 input  -65.29 | X-H torsion
[ 10718 10713 10712 10709 ] final   23.39 input   66.30 | X-H torsion
[ 10763 10752 10751 10750 ] final -116.70 input  -60.55 | X-H torsion
[ 11005 11000 10999 10996 ] final  -85.61 input  -57.11 | X-H torsion

> <Gold.Protein.ActiveResidues>
 VAL166  LYS551  ARG553  GLY616  TRP617  ASP618  TYR619  PRO620  LYS621  CYS622 
 ASP623  PHE694  ASN695  SER759  ASP760  ASP761  ALA762  ILE779  LEU786  VAL792 
 PHE793  MET794  SER795  GLU796  ALA797  LYS798  CYS799  TRP800  GLU811  SER814 

> <Gold.Protein.RotatedAtoms>
  152.1753  133.4671  159.4930 H   0  0  0  0  0  0  0  0  0  0  0  0  # atno 6907 bound_to 6896
  150.6926  134.1901  159.4291 H   0  0  0  0  0  0  0  0  0  0  0  0  # atno 6908 bound_to 6896
  151.9810  135.0028  160.0608 H   0  0  0  0  0  0  0  0  0  0  0  0  # atno 6909 bound_to 6896
  145.9637  140.7454  142.9445 H   0  0  0  0  0  0  0  0  0  0  0  0  # atno 7974 bound_to 7965
  156.2377  140.2940  156.0357 H   0  0  0  0  0  0  0  0  0  0  0  0  # atno 8008 bound_to 7997
  155.2043  140.0410  157.2940 H   0  0  0  0  0  0  0  0  0  0  0  0  # atno 8009 bound_to 7997
  154.6109  140.2451  155.7677 H   0  0  0  0  0  0  0  0  0  0  0  0  # atno 8010 bound_to 7997
  139.6712  144.7125  151.1684 H   0  0  0  0  0  0  0  0  0  0  0  0  # atno 10167 bound_to 10162
  157.1654  130.6735  149.6059 H   0  0  0  0  0  0  0  0  0  0  0  0  # atno 10718 bound_to 10713
  154.8529  135.4336  154.1862 H   0  0  0  0  0  0  0  0  0  0  0  0  # atno 10763 bound_to 10752
  153.2941  135.6964  153.7271 H   0  0  0  0  0  0  0  0  0  0  0  0  # atno 10764 bound_to 10752
  153.6427  135.3465  155.3050 H   0  0  0  0  0  0  0  0  0  0  0  0  # atno 10765 bound_to 10752
  141.1639  133.7408  156.9040 H   0  0  0  0  0  0  0  0  0  0  0  0  # atno 11005 bound_to 11000
  144.6820  140.2633  143.7316 LP  0  0  0  0  0  0  0  0  0  0  0  0  # atno 17320 bound_to 7965
  145.8004  139.1962  143.2051 LP  0  0  0  0  0  0  0  0  0  0  0  0  # atno 17321 bound_to 7965
  140.7619  143.5841  150.8864 LP  0  0  0  0  0  0  0  0  0  0  0  0  # atno 17342 bound_to 10162
  139.9507  143.6276  152.3030 LP  0  0  0  0  0  0  0  0  0  0  0  0  # atno 17343 bound_to 10162
  155.9747  130.4697  150.6405 LP  0  0  0  0  0  0  0  0  0  0  0  0  # atno 17370 bound_to 10713
  157.4093  131.0821  151.1236 LP  0  0  0  0  0  0  0  0  0  0  0  0  # atno 17371 bound_to 10713
  140.1563  134.9196  157.2658 LP  0  0  0  0  0  0  0  0  0  0  0  0  # atno 17394 bound_to 11000
  140.2663  134.3512  155.7389 LP  0  0  0  0  0  0  0  0  0  0  0  0  # atno 17395 bound_to 11000

$$$$
