AV-unprocessed.smi:820|AV-procd|sdf|3837|dock9
  -GOLD-   22720 1283D 1   1.00000     0.00000
 Structure written by MMmdl.
 31 32  0  0  0  0  0  0  0  0  2 V2000
  153.4397  142.1007  161.9036 C   0  0  0  0  0  0  0  0  0  0  0  0
  152.4681  143.2838  161.9181 C   0  0  0  0  0  0  0  0  0  0  0  0
  152.3741  144.0874  160.2925 S   0  0  0  0  0  0  0  0  0  0  0  0
  151.7486  142.8933  159.1481 C   0  0  0  0  0  0  0  0  0  0  0  0
  151.4436  143.2675  157.8269 C   0  0  0  0  0  0  0  0  0  0  0  0
  150.9482  142.2782  156.9569 C   0  0  0  0  0  0  0  0  0  0  0  0
  150.7756  140.9555  157.4236 C   0  0  0  0  0  0  0  0  0  0  0  0
  150.2984  139.9875  156.6253 N   0  5  0  0  0  0  0  0  0  0  0  0
  150.0062  140.2449  155.3242 C   0  0  0  0  0  0  0  0  0  0  0  0
  150.7435  139.9482  154.3795 O   0  0  0  0  0  0  0  0  0  0  0  0
  148.7320  140.9182  155.0860 C   0  0  0  0  0  0  0  0  0  0  0  0
  148.1238  140.8158  153.8799 C   0  0  0  0  0  0  0  0  0  0  0  0
  146.9484  141.4494  153.5611 O   0  0  0  0  0  0  0  0  0  0  0  0
  146.5327  142.4338  154.4998 C   0  0  0  0  0  0  0  0  0  0  0  0
  146.7708  141.9378  155.9329 C   0  0  0  0  0  0  0  0  0  0  0  0
  148.1446  141.6176  156.1180 O   0  0  0  0  0  0  0  0  0  0  0  0
  151.1142  140.7053  158.7744 C   0  0  0  0  0  0  0  0  0  0  0  0
  151.5905  141.6410  159.6238 N   0  0  0  0  0  0  0  0  0  0  0  0
  153.4892  141.6274  162.8843 H   0  0  0  0  0  0  0  0  0  0  0  0
  154.4468  142.4223  161.6370 H   0  0  0  0  0  0  0  0  0  0  0  0
  153.1265  141.3442  161.1837 H   0  0  0  0  0  0  0  0  0  0  0  0
  151.4725  142.9441  162.2044 H   0  0  0  0  0  0  0  0  0  0  0  0
  152.7861  144.0171  162.6595 H   0  0  0  0  0  0  0  0  0  0  0  0
  151.5841  144.2826  157.4869 H   0  0  0  0  0  0  0  0  0  0  0  0
  150.7040  142.5342  155.9361 H   0  0  0  0  0  0  0  0  0  0  0  0
  148.5148  140.2650  153.0366 H   0  0  0  0  0  0  0  0  0  0  0  0
  147.0853  143.3571  154.3202 H   0  0  0  0  0  0  0  0  0  0  0  0
  145.4771  142.6552  154.3421 H   0  0  0  0  0  0  0  0  0  0  0  0
  146.4825  142.7020  156.6545 H   0  0  0  0  0  0  0  0  0  0  0  0
  146.1641  141.0549  156.1384 H   0  0  0  0  0  0  0  0  0  0  0  0
  151.0001  139.7146  159.1903 H   0  0  0  0  0  0  0  0  0  0  0  0
  1  2  1  0  0  0  0
  1 19  1  0  0  0  0
  1 20  1  0  0  0  0
  1 21  1  0  0  0  0
  2  3  1  0  0  0  0
  2 22  1  0  0  0  0
  2 23  1  0  0  0  0
  3  4  1  0  0  0  0
  4 18  1  0  0  0  0
  4  5  2  0  0  0  0
  5  6  1  0  0  0  0
  5 24  1  0  0  0  0
  6  7  2  0  0  0  0
  6 25  1  0  0  0  0
  7  8  1  0  0  0  0
  7 17  1  0  0  0  0
  8  9  1  0  0  0  0
  9 10  2  0  0  0  0
  9 11  1  0  0  0  0
 11 16  1  0  0  0  0
 11 12  2  0  0  0  0
 12 13  1  0  0  0  0
 12 26  1  0  0  0  0
 13 14  1  0  0  0  0
 14 15  1  0  0  0  0
 14 27  1  0  0  0  0
 14 28  1  0  0  0  0
 15 16  1  0  0  0  0
 15 29  1  0  0  0  0
 15 30  1  0  0  0  0
 17 18  2  0  0  0  0
 17 31  1  0  0  0  0
M  CHG  1   8  -1
M  END
> <s_m_source_file>
AV-unprocessed.smi

> <i_m_source_file_index>
820

> <i_lp_mmshare_version>
43012

> <i_f3d_flags>
0

> <s_epik_input>
W0NIM11bQ0gyXVNjMVtjSF1bY0hdYyhbY0hdbjEpW05IXUMoPU8pQzI9W0NIXU9bQ0gyXVtDSDJdTzI=

> <s_epik_cmdline>
J2VwaWtfcHl0aG9uJywgJy1waCcsICc3LjAnLCAnLXRuJywgJzgnLCAnLW1hJywgJzIwMCcsICctbWV0YWxfYmluZGluZycsICctaW1hZScsICc8aW5maWxlLm1hZT4nLCAnLW9tYWUnLCAnPG91dGZpbGUubWFlPic=

> <r_lp_tautomer_probability>
1

> <r_epik_Ionization_Penalty>
5.63505

> <r_epik_Ionization_Penalty_Charging>
5.63079

> <r_epik_Ionization_Penalty_Neutral>
0.00426194

> <r_epik_State_Penalty>
5.63074

> <r_epik_Charging_Adjusted_Penalty>
11.2615

> <i_epik_Tot_Q>
-1

> <i_epik_Tot_abs_Q>
1

> <r_epik_Metal_State_Penalty>
1.62037

> <b_epik_Metal_Only>
1

> <s_lp_Force_Field>
OPLS_2005

> <r_lp_Energy>
4.11082

> <b_lp_Chiralities_Consistent>
1

> <s_lp_Variant>
AV-unprocessed.smi:820-2

> <Gold.Version>
5.8.1

> <Gold.Id.Protein>
6NUR|6NUR_protein|mol2

> <Gold.PLP.Fitness>
41.9334

> <Gold.PLP.PLP>
-37.3055

> <Gold.PLP.part.hbond>
-1.2751

> <Gold.PLP.part.metal>
0.0000

> <Gold.PLP.part.buried>
-4.9660

> <Gold.PLP.part.nonpolar>
-31.7536

> <Gold.PLP.part.repulsive>
0.4933

> <Gold.PLP.ligand.clash>
0.0000

> <Gold.PLP.ligand.torsion>
0.9732

> <Gold.PLP.Chemscore.Hbond>
1.0000

> <Gold.PLP.Chemscore.CHOScore>
1.0000

> <Gold.PLP.Chemscore.Metal>
0.0000

> <Gold.Chemscore.Hbonds>
donor molecule, donor type, donor heavy atom, donor atom, acceptor molecule, acceptor atom, score
      P1  H  7989  7998       L1    10  1.00
      L1  C    12    26       P1  7957  1.00

> <Gold.PLP.Chemscore.Internal.Correction>
0.5742

> <Gold.Rescore>
     Score         DG    S(hbond)    S(metal)    S(lipo)     H(rot)  DE(clash)    DE(int)     intcor
     16.17     -17.38       0.99        0.00      97.99       1.13       0.11       1.10       ----

> <Gold.Chemscore.Fitness>
16.1702

> <Gold.Chemscore.DG>
-17.3757

> <Gold.Chemscore.ZeroCoef>
-5.4800

> <Gold.Chemscore.Hbond>
0.9932

> <Gold.Chemscore.Metal>
0.0000

> <Gold.Chemscore.Lipo>
97.9950

> <Gold.Chemscore.Internal_Hbond>
0.0000

> <Gold.Chemscore.DEClash>
0.1061

> <Gold.Chemscore.DEInternal>
1.0995

> <Gold.Chemscore.Rot>
1.1277

> <Gold.Chemscore.Internal.Correction>
   9.000000E+99

> <Gold.Chemscore.Hbonds>
donor molecule, donor type, donor heavy atom, donor atom, acceptor molecule, acceptor atom, score
      P1  H  7989  7998       L1    10  0.95

> <Gold.Chemscore.Hbond.Weighted>
-3.3173

> <Gold.Chemscore.Metal.Weighted>
-0.0000

> <Gold.Chemscore.Lipo.Weighted>
-11.4654

> <Gold.Chemscore.Internal_Hbond.Weighted>
0.0000

> <Gold.Chemscore.DEClash.Weighted>
0.1061

> <Gold.Chemscore.DEInternal.Weighted>
1.0995

> <Gold.Chemscore.Rot.Weighted>
2.8870

> <Gold.Chemscore.Internal.Correction.Weighted>
   9.000000E+99

> <Gold.Protein.RotatedTorsions>
[ 6907 6896 6895 6894 ] final   97.93 input  -60.11 | X-H torsion
[ 7974 7965 7964 7962 ] final  -75.22 input  175.53 | X-H torsion
[ 8008 7997 7996 7995 ] final -144.43 input   59.86 | X-H torsion
[ 10167 10162 10161 10158 ] final   -2.79 input  -65.29 | X-H torsion
[ 10718 10713 10712 10709 ] final   55.88 input   66.30 | X-H torsion
[ 10763 10752 10751 10750 ] final  167.37 input  -60.55 | X-H torsion
[ 11005 11000 10999 10996 ] final   24.71 input  -57.11 | X-H torsion

> <Gold.Protein.ActiveResidues>
 VAL166  LYS551  ARG553  GLY616  TRP617  ASP618  TYR619  PRO620  LYS621  CYS622 
 ASP623  PHE694  ASN695  SER759  ASP760  ASP761  ALA762  ILE779  LEU786  VAL792 
 PHE793  MET794  SER795  GLU796  ALA797  LYS798  CYS799  TRP800  GLU811  SER814 

> <Gold.Protein.RotatedAtoms>
  152.5417  134.0658  159.8172 H   0  0  0  0  0  0  0  0  0  0  0  0  # atno 6907 bound_to 6896
  151.0780  133.5405  159.2630 H   0  0  0  0  0  0  0  0  0  0  0  0  # atno 6908 bound_to 6896
  151.2243  135.0539  159.9016 H   0  0  0  0  0  0  0  0  0  0  0  0  # atno 6909 bound_to 6896
  145.6288  140.9343  143.1098 H   0  0  0  0  0  0  0  0  0  0  0  0  # atno 7974 bound_to 7965
  155.5268  140.0596  157.2896 H   0  0  0  0  0  0  0  0  0  0  0  0  # atno 8008 bound_to 7997
  154.4498  140.1943  156.0499 H   0  0  0  0  0  0  0  0  0  0  0  0  # atno 8009 bound_to 7997
  156.0680  140.3264  155.7545 H   0  0  0  0  0  0  0  0  0  0  0  0  # atno 8010 bound_to 7997
  140.6865  143.6616  150.8262 H   0  0  0  0  0  0  0  0  0  0  0  0  # atno 10167 bound_to 10162
  157.5383  130.8679  149.8785 H   0  0  0  0  0  0  0  0  0  0  0  0  # atno 10718 bound_to 10713
  154.3528  135.2753  155.2362 H   0  0  0  0  0  0  0  0  0  0  0  0  # atno 10763 bound_to 10752
  154.4584  135.5913  153.6242 H   0  0  0  0  0  0  0  0  0  0  0  0  # atno 10764 bound_to 10752
  152.9848  135.6059  154.3741 H   0  0  0  0  0  0  0  0  0  0  0  0  # atno 10765 bound_to 10752
  140.3557  134.2180  155.7676 H   0  0  0  0  0  0  0  0  0  0  0  0  # atno 11005 bound_to 11000
  144.7202  139.8057  143.7385 LP  0  0  0  0  0  0  0  0  0  0  0  0  # atno 17320 bound_to 7965
  146.1373  139.4421  143.0131 LP  0  0  0  0  0  0  0  0  0  0  0  0  # atno 17321 bound_to 7965
  140.0324  143.5430  152.2754 LP  0  0  0  0  0  0  0  0  0  0  0  0  # atno 17342 bound_to 10162
  139.6228  144.7632  151.2704 LP  0  0  0  0  0  0  0  0  0  0  0  0  # atno 17343 bound_to 10162
  156.0476  130.3724  150.1279 LP  0  0  0  0  0  0  0  0  0  0  0  0  # atno 17370 bound_to 10713
  156.9460  130.9759  151.3507 LP  0  0  0  0  0  0  0  0  0  0  0  0  # atno 17371 bound_to 10713
  141.1999  133.8000  157.0515 LP  0  0  0  0  0  0  0  0  0  0  0  0  # atno 17394 bound_to 11000
  140.0667  134.9725  157.1397 LP  0  0  0  0  0  0  0  0  0  0  0  0  # atno 17395 bound_to 11000

$$$$
