AV-unprocessed.smi:623|AV-procd|sdf|3091|dock2
  -GOLD-   22720 0 13D 1   1.00000     0.00000
 Structure written by MMmdl.
 45 47  0  0  0  0  0  0  0  0  1 V2000
  146.7132  138.6117  155.3180 C   0  0  0  0  0  0  0  0  0  0  0  0
  147.5559  139.5844  154.4462 C   0  0  0  0  0  0  0  0  0  0  0  0
  147.6522  138.9086  153.0493 C   0  0  0  0  0  0  0  0  0  0  0  0
  147.0205  141.0299  154.4106 C   0  0  2  0  0  0  0  0  0  0  0  0
  148.0925  141.7969  153.6048 C   0  0  0  0  0  0  0  0  0  0  0  0
  149.3974  141.0953  154.0310 C   0  0  0  0  0  0  0  0  0  0  0  0
  148.9012  140.0496  155.0681 C   0  0  2  0  0  0  0  0  0  0  0  0
  149.9295  138.9381  155.3414 C   0  0  0  0  0  0  0  0  0  0  0  0
  148.4415  140.8115  156.3523 C   0  0  1  0  0  0  0  0  0  0  0  0
  149.4037  141.7940  156.8520 N   0  0  0  0  0  0  0  0  0  0  0  0
  150.4605  141.5206  157.6315 C   0  0  0  0  0  0  0  0  0  0  0  0
  150.7411  140.3837  158.0142 O   0  0  0  0  0  0  0  0  0  0  0  0
  151.3454  142.7161  158.0105 C   0  0  0  0  0  0  0  0  0  0  0  0
  152.0148  142.5419  159.3075 N   0  0  0  0  0  0  0  0  0  0  0  0
  151.7454  143.4103  160.3559 C   0  0  0  0  0  0  0  0  0  0  0  0
  152.3406  143.3216  161.5690 C   0  0  0  0  0  0  0  0  0  0  0  0
  153.3224  142.2755  161.8353 C   0  0  0  0  0  0  0  0  0  0  0  0
  153.9140  142.1124  162.9001 O   0  0  0  0  0  0  0  0  0  0  0  0
  153.5672  141.4230  160.7553 N   0  0  0  0  0  0  0  0  0  0  0  0
  152.9593  141.5104  159.5021 C   0  0  0  0  0  0  0  0  0  0  0  0
  153.2528  140.7092  158.6153 O   0  0  0  0  0  0  0  0  0  0  0  0
  147.1412  141.4991  155.8773 C   0  0  0  0  0  0  0  0  0  0  0  0
  154.2420  140.6846  160.8923 H   0  0  0  0  0  0  0  0  0  0  0  0
  145.7295  138.4555  154.8743 H   0  0  0  0  0  0  0  0  0  0  0  0
  146.5382  138.9375  156.3405 H   0  0  0  0  0  0  0  0  0  0  0  0
  147.1934  137.6349  155.3818 H   0  0  0  0  0  0  0  0  0  0  0  0
  148.2019  139.4720  152.2986 H   0  0  0  0  0  0  0  0  0  0  0  0
  146.6570  138.7410  152.6365 H   0  0  0  0  0  0  0  0  0  0  0  0
  148.1352  137.9339  153.1224 H   0  0  0  0  0  0  0  0  0  0  0  0
  146.0144  141.1388  154.0047 H   0  0  0  0  0  0  0  0  0  0  0  0
  147.9282  141.7093  152.5307 H   0  0  0  0  0  0  0  0  0  0  0  0
  148.1035  142.8615  153.8407 H   0  0  0  0  0  0  0  0  0  0  0  0
  149.8753  140.6141  153.1775 H   0  0  0  0  0  0  0  0  0  0  0  0
  150.1335  141.7951  154.4254 H   0  0  0  0  0  0  0  0  0  0  0  0
  150.8567  139.3505  155.7393 H   0  0  0  0  0  0  0  0  0  0  0  0
  150.1807  138.3946  154.4308 H   0  0  0  0  0  0  0  0  0  0  0  0
  149.5519  138.2171  156.0663 H   0  0  0  0  0  0  0  0  0  0  0  0
  148.2048  140.1097  157.1534 H   0  0  0  0  0  0  0  0  0  0  0  0
  149.2539  142.7545  156.5794 H   0  0  0  0  0  0  0  0  0  0  0  0
  152.0856  142.8529  157.2208 H   0  0  0  0  0  0  0  0  0  0  0  0
  150.7513  143.6323  158.0099 H   0  0  0  0  0  0  0  0  0  0  0  0
  151.0287  144.2044  160.2009 H   0  0  0  0  0  0  0  0  0  0  0  0
  152.0905  144.0295  162.3459 H   0  0  0  0  0  0  0  0  0  0  0  0
  147.1788  142.5870  155.9545 H   0  0  0  0  0  0  0  0  0  0  0  0
  146.2865  141.1751  156.4713 H   0  0  0  0  0  0  0  0  0  0  0  0
  1  2  1  0  0  0  0
  1 24  1  0  0  0  0
  1 25  1  0  0  0  0
  1 26  1  0  0  0  0
  2  7  1  0  0  0  0
  2  3  1  0  0  0  0
  2  4  1  0  0  0  0
  3 27  1  0  0  0  0
  3 28  1  0  0  0  0
  3 29  1  0  0  0  0
  4 22  1  0  0  0  0
  4  5  1  0  0  0  0
  4 30  1  0  0  0  0
  5  6  1  0  0  0  0
  5 31  1  0  0  0  0
  5 32  1  0  0  0  0
  6  7  1  0  0  0  0
  6 33  1  0  0  0  0
  6 34  1  0  0  0  0
  7  8  1  0  0  0  0
  7  9  1  0  0  0  0
  8 35  1  0  0  0  0
  8 36  1  0  0  0  0
  8 37  1  0  0  0  0
  9 10  1  0  0  0  0
  9 22  1  0  0  0  0
  9 38  1  0  0  0  0
 10 11  1  0  0  0  0
 10 39  1  0  0  0  0
 11 12  2  0  0  0  0
 11 13  1  0  0  0  0
 13 14  1  0  0  0  0
 13 40  1  0  0  0  0
 13 41  1  0  0  0  0
 14 20  1  0  0  0  0
 14 15  1  0  0  0  0
 15 16  2  0  0  0  0
 15 42  1  0  0  0  0
 16 17  1  0  0  0  0
 16 43  1  0  0  0  0
 17 18  2  0  0  0  0
 17 19  1  0  0  0  0
 19 23  1  0  0  0  0
 19 20  1  0  0  0  0
 20 21  2  0  0  0  0
 22 44  1  0  0  0  0
 22 45  1  0  0  0  0
M  END
> <s_m_source_file>
AV-unprocessed.smi

> <i_m_source_file_index>
623

> <i_lp_mmshare_version>
43012

> <i_f3d_flags>
0

> <s_epik_input>
W0NIM11bQ0BdMTJDKFtDSDNdKShbQ0gzXSlbQ0BIXShbQ0gyXVtDSDJdMSlbQ0gyXVtDQEBIXTJbTkhdQyg9TylbQ0gyXW4zW2NIXVtjSF1jKD1PKVtuSF1jMz1P

> <s_epik_cmdline>
J2VwaWtfcHl0aG9uJywgJy1waCcsICc3LjAnLCAnLXRuJywgJzgnLCAnLW1hJywgJzIwMCcsICctbWV0YWxfYmluZGluZycsICctaW1hZScsICc8aW5maWxlLm1hZT4nLCAnLW9tYWUnLCAnPG91dGZpbGUubWFlPic=

> <r_lp_tautomer_probability>
0.999537

> <r_epik_Ionization_Penalty>
0.00303563

> <r_epik_Ionization_Penalty_Charging>
0.00303561

> <r_epik_Ionization_Penalty_Neutral>
2.03238e-08

> <r_epik_State_Penalty>
0.00213308

> <r_epik_Charging_Adjusted_Penalty>
0.00516869

> <i_epik_Tot_Q>
0

> <i_epik_Tot_abs_Q>
0

> <r_epik_Metal_State_Penalty>
0.361714

> <b_epik_Metal_Only>
0

> <s_lp_Force_Field>
OPLS_2005

> <r_lp_Energy>
55.109

> <b_lp_Chiralities_Consistent>
1

> <s_lp_Variant>
AV-unprocessed.smi:623-1

> <Gold.Version>
5.8.1

> <Gold.Id.Protein>
6NUR|6NUR_protein|mol2

> <Gold.PLP.Fitness>
40.7650

> <Gold.PLP.PLP>
-36.5900

> <Gold.PLP.part.hbond>
-3.0000

> <Gold.PLP.part.metal>
0.0000

> <Gold.PLP.part.buried>
-3.4834

> <Gold.PLP.part.nonpolar>
-28.8974

> <Gold.PLP.part.repulsive>
0.0659

> <Gold.PLP.ligand.clash>
0.0000

> <Gold.PLP.ligand.torsion>
0.6688

> <Gold.PLP.Chemscore.Hbond>
1.8320

> <Gold.PLP.Chemscore.CHOScore>
0.0000

> <Gold.PLP.Chemscore.Metal>
0.0000

> <Gold.Chemscore.Hbonds>
donor molecule, donor type, donor heavy atom, donor atom, acceptor molecule, acceptor atom, score
      L1  H    10    39       P1  8028  0.59
      P1  H  7997  8008       L1    21  0.47

> <Gold.PLP.Chemscore.Internal.Correction>
0.0167

> <Gold.Rescore>
     Score         DG    S(hbond)    S(metal)    S(lipo)     H(rot)  DE(clash)    DE(int)     intcor
     11.67     -13.35       1.00        0.00      75.10       1.66       0.64       1.04       ----

> <Gold.Chemscore.Fitness>
11.6745

> <Gold.Chemscore.DG>
-13.3485

> <Gold.Chemscore.ZeroCoef>
-5.4800

> <Gold.Chemscore.Hbond>
1.0012

> <Gold.Chemscore.Metal>
0.0000

> <Gold.Chemscore.Lipo>
75.0950

> <Gold.Chemscore.Internal_Hbond>
0.0000

> <Gold.Chemscore.DEClash>
0.6364

> <Gold.Chemscore.DEInternal>
1.0376

> <Gold.Chemscore.Rot>
1.6647

> <Gold.Chemscore.Internal.Correction>
   9.000000E+99

> <Gold.Chemscore.Hbonds>
donor molecule, donor type, donor heavy atom, donor atom, acceptor molecule, acceptor atom, score
      L1  H    10    39       P1  8028  0.58
      P1  H  7997  8008       L1    21  0.47

> <Gold.Chemscore.Hbond.Weighted>
-3.3441

> <Gold.Chemscore.Metal.Weighted>
-0.0000

> <Gold.Chemscore.Lipo.Weighted>
-8.7861

> <Gold.Chemscore.Internal_Hbond.Weighted>
0.0000

> <Gold.Chemscore.DEClash.Weighted>
0.6364

> <Gold.Chemscore.DEInternal.Weighted>
1.0376

> <Gold.Chemscore.Rot.Weighted>
4.2617

> <Gold.Chemscore.Internal.Correction.Weighted>
   9.000000E+99

> <Gold.Protein.RotatedTorsions>
[ 6907 6896 6895 6894 ] final  165.50 input  -60.11 | X-H torsion
[ 7974 7965 7964 7962 ] final  143.59 input  175.53 | X-H torsion
[ 8008 7997 7996 7995 ] final  -88.70 input   59.86 | X-H torsion
[ 10167 10162 10161 10158 ] final   85.80 input  -65.29 | X-H torsion
[ 10718 10713 10712 10709 ] final  -72.39 input   66.30 | X-H torsion
[ 10763 10752 10751 10750 ] final -137.66 input  -60.55 | X-H torsion
[ 11005 11000 10999 10996 ] final -126.36 input  -57.11 | X-H torsion

> <Gold.Protein.ActiveResidues>
 VAL166  LYS551  ARG553  GLY616  TRP617  ASP618  TYR619  PRO620  LYS621  CYS622 
 ASP623  PHE694  ASN695  SER759  ASP760  ASP761  ALA762  ILE779  LEU786  VAL792 
 PHE793  MET794  SER795  GLU796  ALA797  LYS798  CYS799  TRP800  GLU811  SER814 

> <Gold.Protein.RotatedAtoms>
  151.8934  133.3521  159.3805 H   0  0  0  0  0  0  0  0  0  0  0  0  # atno 6907 bound_to 6896
  150.7097  134.4900  159.5520 H   0  0  0  0  0  0  0  0  0  0  0  0  # atno 6908 bound_to 6896
  152.2475  134.8167  160.0502 H   0  0  0  0  0  0  0  0  0  0  0  0  # atno 6909 bound_to 6896
  144.8908  139.5561  143.5799 H   0  0  0  0  0  0  0  0  0  0  0  0  # atno 7974 bound_to 7965
  154.6779  140.0550  157.0235 H   0  0  0  0  0  0  0  0  0  0  0  0  # atno 8008 bound_to 7997
  155.0993  140.3227  155.4533 H   0  0  0  0  0  0  0  0  0  0  0  0  # atno 8009 bound_to 7997
  156.2683  140.2034  156.6119 H   0  0  0  0  0  0  0  0  0  0  0  0  # atno 8010 bound_to 7997
  139.8940  144.6368  150.8708 H   0  0  0  0  0  0  0  0  0  0  0  0  # atno 10167 bound_to 10162
  156.0322  130.4371  150.2585 H   0  0  0  0  0  0  0  0  0  0  0  0  # atno 10718 bound_to 10713
  154.8656  135.3635  154.5258 H   0  0  0  0  0  0  0  0  0  0  0  0  # atno 10763 bound_to 10752
  153.5886  135.7016  153.5437 H   0  0  0  0  0  0  0  0  0  0  0  0  # atno 10764 bound_to 10752
  153.3393  135.4102  155.1521 H   0  0  0  0  0  0  0  0  0  0  0  0  # atno 10765 bound_to 10752
  140.9688  134.0835  157.3892 H   0  0  0  0  0  0  0  0  0  0  0  0  # atno 11005 bound_to 11000
  146.3052  139.7557  142.9061 LP  0  0  0  0  0  0  0  0  0  0  0  0  # atno 17320 bound_to 7965
  145.3787  141.0355  143.3190 LP  0  0  0  0  0  0  0  0  0  0  0  0  # atno 17321 bound_to 7965
  140.7720  143.3487  151.2057 LP  0  0  0  0  0  0  0  0  0  0  0  0  # atno 17342 bound_to 10162
  139.7084  143.9417  152.2937 LP  0  0  0  0  0  0  0  0  0  0  0  0  # atno 17343 bound_to 10162
  157.0686  131.0110  151.3198 LP  0  0  0  0  0  0  0  0  0  0  0  0  # atno 17370 bound_to 10713
  157.5016  130.7883  149.7611 LP  0  0  0  0  0  0  0  0  0  0  0  0  # atno 17371 bound_to 10713
  139.8904  135.0112  156.6735 LP  0  0  0  0  0  0  0  0  0  0  0  0  # atno 17394 bound_to 11000
  140.7360  133.9018  155.8244 LP  0  0  0  0  0  0  0  0  0  0  0  0  # atno 17395 bound_to 11000

$$$$
