AV-unprocessed.smi:81|AV-procd|sdf|793|dock1
  -GOLD-   2262017173D 1   1.00000     0.00000
 Structure written by MMmdl.
 64 67  0  0  0  0  0  0  0  0  2 V2000
  154.4993  141.2280  160.2823 C   0  0  0  0  0  0  0  0  0  0  0  0
  153.2505  141.5279  159.4370 C   0  0  0  0  0  0  0  0  0  0  0  0
  152.4975  142.7406  160.0011 C   0  0  0  0  0  0  0  0  0  0  0  0
  152.3097  140.3038  159.3472 C   0  0  0  0  0  0  0  0  0  0  0  0
  151.4228  140.3029  158.1782 N   0  0  0  0  0  0  0  0  0  0  0  0
  151.5322  139.2296  157.3574 C   0  0  0  0  0  0  0  0  0  0  0  0
  152.4097  139.3224  156.3271 N   0  0  0  0  0  0  0  0  0  0  0  0
  152.5447  138.3095  155.4670 C   0  0  0  0  0  0  0  0  0  0  0  0
  151.9038  137.1398  155.4496 N   0  0  0  0  0  0  0  0  0  0  0  0
  151.0020  137.0496  156.4696 C   0  0  0  0  0  0  0  0  0  0  0  0
  150.7554  138.0398  157.4614 C   0  0  0  0  0  0  0  0  0  0  0  0
  149.7814  137.5891  158.3426 N   0  0  0  0  0  0  0  0  0  0  0  0
  149.4707  136.4028  157.8977 C   0  0  0  0  0  0  0  0  0  0  0  0
  150.1359  136.0066  156.7568 N   0  0  0  0  0  0  0  0  0  0  0  0
  150.0127  134.7392  156.0424 C   0  0  0  0  0  0  0  0  0  0  0  0
  148.6418  134.4812  155.3579 C   0  0  2  0  0  0  0  0  0  0  0  0
  148.2972  135.6440  154.6238 O   0  0  0  0  0  0  0  0  0  0  0  0
  147.5282  134.2244  156.3607 C   0  0  0  0  0  0  0  0  0  0  0  0
  146.4583  133.5613  155.5046 C   0  0  0  0  0  0  0  0  0  0  0  0
  147.1860  132.7669  154.5784 O   0  0  0  0  0  0  0  0  0  0  0  0
  148.5150  133.2645  154.4036 C   0  0  2  0  0  0  0  0  0  0  0  0
  149.4270  132.0650  154.7087 C   0  0  0  0  0  0  0  0  0  0  0  0
  151.1061  141.6130  157.5835 C   0  0  2  0  0  0  0  0  0  0  0  0
  150.0014  142.4265  158.2993 C   0  0  0  0  0  0  0  0  0  0  0  0
  148.5746  142.1375  157.7928 C   0  0  0  0  0  0  0  0  0  0  0  0
  148.4928  142.2641  156.3192 N   0  3  2  0  0  0  0  0  0  0  0  0
  147.1060  142.1366  155.8224 C   0  0  0  0  0  0  0  0  0  0  0  0
  149.4216  141.3329  155.6379 C   0  0  0  0  0  0  0  0  0  0  0  0
  150.8808  141.5966  156.0527 C   0  0  0  0  0  0  0  0  0  0  0  0
  154.2302  140.9486  161.3013 H   0  0  0  0  0  0  0  0  0  0  0  0
  155.1533  142.0985  160.3378 H   0  0  0  0  0  0  0  0  0  0  0  0
  155.0823  140.4108  159.8571 H   0  0  0  0  0  0  0  0  0  0  0  0
  153.5806  141.8059  158.4358 H   0  0  0  0  0  0  0  0  0  0  0  0
  152.1435  142.5522  161.0152 H   0  0  0  0  0  0  0  0  0  0  0  0
  151.6314  142.9858  159.3857 H   0  0  0  0  0  0  0  0  0  0  0  0
  153.1382  143.6225  160.0302 H   0  0  0  0  0  0  0  0  0  0  0  0
  152.9170  139.3982  159.3272 H   0  0  0  0  0  0  0  0  0  0  0  0
  151.7115  140.2338  160.2548 H   0  0  0  0  0  0  0  0  0  0  0  0
  153.2666  138.4590  154.6774 H   0  0  0  0  0  0  0  0  0  0  0  0
  148.7420  135.7874  158.4032 H   0  0  0  0  0  0  0  0  0  0  0  0
  150.8041  134.6929  155.2940 H   0  0  0  0  0  0  0  0  0  0  0  0
  150.2313  133.9375  156.7490 H   0  0  0  0  0  0  0  0  0  0  0  0
  148.5894  135.5307  153.7320 H   0  0  0  0  0  0  0  0  0  0  0  0
  147.8633  133.5224  157.1257 H   0  0  0  0  0  0  0  0  0  0  0  0
  147.1752  135.1244  156.8658 H   0  0  0  0  0  0  0  0  0  0  0  0
  145.7645  132.9580  156.0903 H   0  0  0  0  0  0  0  0  0  0  0  0
  145.8815  134.3085  154.9578 H   0  0  0  0  0  0  0  0  0  0  0  0
  148.6599  133.5597  153.3630 H   0  0  0  0  0  0  0  0  0  0  0  0
  150.4648  132.2713  154.4583 H   0  0  0  0  0  0  0  0  0  0  0  0
  149.1310  131.1987  154.1168 H   0  0  0  0  0  0  0  0  0  0  0  0
  149.3764  131.7784  155.7594 H   0  0  0  0  0  0  0  0  0  0  0  0
  152.0220  142.1834  157.7427 H   0  0  0  0  0  0  0  0  0  0  0  0
  150.0623  142.2942  159.3798 H   0  0  0  0  0  0  0  0  0  0  0  0
  150.2015  143.4846  158.1258 H   0  0  0  0  0  0  0  0  0  0  0  0
  148.2394  141.1437  158.0858 H   0  0  0  0  0  0  0  0  0  0  0  0
  147.8837  142.8431  158.2555 H   0  0  0  0  0  0  0  0  0  0  0  0
  146.7037  141.1454  156.0365 H   0  0  0  0  0  0  0  0  0  0  0  0
  147.0656  142.2974  154.7446 H   0  0  0  0  0  0  0  0  0  0  0  0
  146.4589  142.8774  156.2927 H   0  0  0  0  0  0  0  0  0  0  0  0
  149.1267  140.3085  155.8552 H   0  0  0  0  0  0  0  0  0  0  0  0
  149.3312  141.4568  154.5582 H   0  0  0  0  0  0  0  0  0  0  0  0
  151.1618  142.5756  155.6627 H   0  0  0  0  0  0  0  0  0  0  0  0
  151.5472  140.8869  155.5625 H   0  0  0  0  0  0  0  0  0  0  0  0
  148.7967  143.1995  156.0890 H   0  0  0  0  0  0  0  0  0  0  0  0
  1  2  1  0  0  0  0
  1 30  1  0  0  0  0
  1 31  1  0  0  0  0
  1 32  1  0  0  0  0
  2  3  1  0  0  0  0
  2  4  1  0  0  0  0
  2 33  1  0  0  0  0
  3 34  1  0  0  0  0
  3 35  1  0  0  0  0
  3 36  1  0  0  0  0
  4  5  1  0  0  0  0
  4 37  1  0  0  0  0
  4 38  1  0  0  0  0
  5  6  1  0  0  0  0
  5 23  1  0  0  0  0
  6 11  1  0  0  0  0
  6  7  2  0  0  0  0
  7  8  1  0  0  0  0
  8  9  2  0  0  0  0
  8 39  1  0  0  0  0
  9 10  1  0  0  0  0
 10 14  1  0  0  0  0
 10 11  2  0  0  0  0
 11 12  1  0  0  0  0
 12 13  2  0  0  0  0
 13 14  1  0  0  0  0
 13 40  1  0  0  0  0
 14 15  1  0  0  0  0
 15 16  1  0  0  0  0
 15 41  1  0  0  0  0
 15 42  1  0  0  0  0
 16 21  1  0  0  0  0
 16 17  1  0  0  0  0
 16 18  1  0  0  0  0
 17 43  1  0  0  0  0
 18 19  1  0  0  0  0
 18 44  1  0  0  0  0
 18 45  1  0  0  0  0
 19 20  1  0  0  0  0
 19 46  1  0  0  0  0
 19 47  1  0  0  0  0
 20 21  1  0  0  0  0
 21 22  1  0  0  0  0
 21 48  1  0  0  0  0
 22 49  1  0  0  0  0
 22 50  1  0  0  0  0
 22 51  1  0  0  0  0
 23 29  1  0  0  0  0
 23 24  1  0  0  0  0
 23 52  1  0  0  0  0
 24 25  1  0  0  0  0
 24 53  1  0  0  0  0
 24 54  1  0  0  0  0
 25 26  1  0  0  0  0
 25 55  1  0  0  0  0
 25 56  1  0  0  0  0
 26 27  1  0  0  0  0
 26 28  1  0  0  0  0
 26 64  1  0  0  0  0
 27 57  1  0  0  0  0
 27 58  1  0  0  0  0
 27 59  1  0  0  0  0
 28 29  1  0  0  0  0
 28 60  1  0  0  0  0
 28 61  1  0  0  0  0
 29 62  1  0  0  0  0
 29 63  1  0  0  0  0
M  CHG  1  26   1
M  END
> <s_m_source_file>
AV-unprocessed.smi

> <i_m_source_file_index>
81

> <i_lp_mmshare_version>
43012

> <i_f3d_flags>
0

> <s_epik_input>
W0NIMl0xW0NIMl1OKFtDSDNdKVtDSDJdW0NIMl1bQ0hdMU4oW0NIMl1bQ0hdKFtDSDNdKVtDSDNdKWMobltjSF1uMiljKGMyMyluW2NIXW4zW0NIMl1bQ0BAXTQoW09IXSlbQ0gyXVtDSDJdT1tDQEhdNFtDSDNd

> <s_epik_cmdline>
J2VwaWtfcHl0aG9uJywgJy1waCcsICc3LjAnLCAnLXRuJywgJzgnLCAnLW1hJywgJzIwMCcsICctbWV0YWxfYmluZGluZycsICctaW1hZScsICc8aW5maWxlLm1hZT4nLCAnLW9tYWUnLCAnPG91dGZpbGUubWFlPic=

> <r_lp_tautomer_probability>
1

> <r_epik_Ionization_Penalty>
0.00272708

> <r_epik_Ionization_Penalty_Charging>
0.00158983

> <r_epik_Ionization_Penalty_Neutral>
0.00113725

> <r_epik_State_Penalty>
-0

> <r_epik_Charging_Adjusted_Penalty>
0.00158983

> <i_epik_Tot_Q>
1

> <i_epik_Tot_abs_Q>
1

> <r_epik_Metal_State_Penalty>
-0

> <b_epik_Metal_Only>
0

> <s_lp_Force_Field>
OPLS_2005

> <r_lp_Energy>
52.2974

> <b_lp_Chiralities_Consistent>
1

> <s_lp_Variant>
AV-unprocessed.smi:81-8

> <Gold.Version>
5.8.1

> <Gold.Id.Protein>
6NUR|6NUR_protein|mol2

> <Gold.PLP.Fitness>
56.9566

> <Gold.PLP.PLP>
-44.8495

> <Gold.PLP.part.hbond>
-4.0000

> <Gold.PLP.part.metal>
0.0000

> <Gold.PLP.part.buried>
-7.8282

> <Gold.PLP.part.nonpolar>
-33.3423

> <Gold.PLP.part.repulsive>
0.1548

> <Gold.PLP.ligand.clash>
0.0000

> <Gold.PLP.ligand.torsion>
2.1922

> <Gold.PLP.Chemscore.Hbond>
4.8960

> <Gold.PLP.Chemscore.CHOScore>
0.0000

> <Gold.PLP.Chemscore.Metal>
0.0000

> <Gold.Chemscore.Hbonds>
donor molecule, donor type, donor heavy atom, donor atom, acceptor molecule, acceptor atom, score
      L1  H    17    43       P1  7948  1.00
      L1  H    26    64       P1  8028  2.00
      P1  H  7997  8008       L1     7  0.76
      P1  H 10752 10765       L1     9  0.99

> <Gold.PLP.Chemscore.Internal.Correction>
1.8036

> <Gold.Rescore>
     Score         DG    S(hbond)    S(metal)    S(lipo)     H(rot)  DE(clash)    DE(int)     intcor
     17.96     -21.89       3.37        0.00      94.79       2.32       0.07       3.85       ----

> <Gold.Chemscore.Fitness>
17.9647

> <Gold.Chemscore.DG>
-21.8851

> <Gold.Chemscore.ZeroCoef>
-5.4800

> <Gold.Chemscore.Hbond>
3.3665

> <Gold.Chemscore.Metal>
0.0000

> <Gold.Chemscore.Lipo>
94.7918

> <Gold.Chemscore.Internal_Hbond>
0.0000

> <Gold.Chemscore.DEClash>
0.0749

> <Gold.Chemscore.DEInternal>
3.8454

> <Gold.Chemscore.Rot>
2.3163

> <Gold.Chemscore.Internal.Correction>
   9.000000E+99

> <Gold.Chemscore.Hbonds>
donor molecule, donor type, donor heavy atom, donor atom, acceptor molecule, acceptor atom, score
      L1  H    17    43       P1  7948  0.91
      L1  H    26    64       P1  8028  0.97
      P1  H  7997  8008       L1     7  0.17
      P1  H 10752 10765       L1     9  0.80

> <Gold.Chemscore.Hbond.Weighted>
-11.2442

> <Gold.Chemscore.Metal.Weighted>
-0.0000

> <Gold.Chemscore.Lipo.Weighted>
-11.0906

> <Gold.Chemscore.Internal_Hbond.Weighted>
0.0000

> <Gold.Chemscore.DEClash.Weighted>
0.0749

> <Gold.Chemscore.DEInternal.Weighted>
3.8454

> <Gold.Chemscore.Rot.Weighted>
5.9297

> <Gold.Chemscore.Internal.Correction.Weighted>
   9.000000E+99

> <Gold.Protein.RotatedTorsions>
[ 6907 6896 6895 6894 ] final -155.21 input  -60.11 | X-H torsion
[ 7974 7965 7964 7962 ] final  121.28 input  175.53 | X-H torsion
[ 8008 7997 7996 7995 ] final  -33.44 input   59.86 | X-H torsion
[ 10167 10162 10161 10158 ] final  -17.99 input  -65.29 | X-H torsion
[ 10718 10713 10712 10709 ] final  -68.06 input   66.30 | X-H torsion
[ 10763 10752 10751 10750 ] final -174.81 input  -60.55 | X-H torsion
[ 11005 11000 10999 10996 ] final  131.04 input  -57.11 | X-H torsion

> <Gold.Protein.ActiveResidues>
 VAL166  LYS551  ARG553  GLY616  TRP617  ASP618  TYR619  PRO620  LYS621  CYS622 
 ASP623  PHE694  ASN695  SER759  ASP760  ASP761  ALA762  ILE779  LEU786  VAL792 
 PHE793  MET794  SER795  GLU796  ALA797  LYS798  CYS799  TRP800  GLU811  SER814 

> <Gold.Protein.RotatedAtoms>
  151.2691  133.4264  159.2620 H   0  0  0  0  0  0  0  0  0  0  0  0  # atno 6907 bound_to 6896
  151.0461  134.9641  159.8197 H   0  0  0  0  0  0  0  0  0  0  0  0  # atno 6908 bound_to 6896
  152.5374  134.2648  159.9001 H   0  0  0  0  0  0  0  0  0  0  0  0  # atno 6909 bound_to 6896
  145.1212  139.3388  143.4713 H   0  0  0  0  0  0  0  0  0  0  0  0  # atno 7974 bound_to 7965
  154.4149  140.1710  156.1889 H   0  0  0  0  0  0  0  0  0  0  0  0  # atno 8008 bound_to 7997
  155.9620  140.3392  155.6475 H   0  0  0  0  0  0  0  0  0  0  0  0  # atno 8009 bound_to 7997
  155.6736  140.0714  157.2501 H   0  0  0  0  0  0  0  0  0  0  0  0  # atno 8010 bound_to 7997
  140.7254  143.4960  150.9930 H   0  0  0  0  0  0  0  0  0  0  0  0  # atno 10167 bound_to 10162
  156.0525  130.4288  150.1945 H   0  0  0  0  0  0  0  0  0  0  0  0  # atno 10718 bound_to 10713
  154.5919  135.2846  155.0627 H   0  0  0  0  0  0  0  0  0  0  0  0  # atno 10763 bound_to 10752
  154.1924  135.6438  153.5067 H   0  0  0  0  0  0  0  0  0  0  0  0  # atno 10764 bound_to 10752
  153.0124  135.5449  154.6607 H   0  0  0  0  0  0  0  0  0  0  0  0  # atno 10765 bound_to 10752
  139.9707  134.9578  156.9380 H   0  0  0  0  0  0  0  0  0  0  0  0  # atno 11005 bound_to 11000
  146.3521  140.1172  142.8601 LP  0  0  0  0  0  0  0  0  0  0  0  0  # atno 17320 bound_to 7965
  145.0738  140.9174  143.4866 LP  0  0  0  0  0  0  0  0  0  0  0  0  # atno 17321 bound_to 7965
  139.8667  143.7244  152.3169 LP  0  0  0  0  0  0  0  0  0  0  0  0  # atno 17342 bound_to 10162
  139.7479  144.7542  151.0552 LP  0  0  0  0  0  0  0  0  0  0  0  0  # atno 17343 bound_to 10162
  157.0026  130.9927  151.3387 LP  0  0  0  0  0  0  0  0  0  0  0  0  # atno 17370 bound_to 10713
  157.5464  130.8154  149.8091 LP  0  0  0  0  0  0  0  0  0  0  0  0  # atno 17371 bound_to 10713
  140.5300  134.0822  155.7313 LP  0  0  0  0  0  0  0  0  0  0  0  0  # atno 17394 bound_to 11000
  141.1386  133.9178  157.2377 LP  0  0  0  0  0  0  0  0  0  0  0  0  # atno 17395 bound_to 11000

$$$$
