AV-unprocessed.smi:1036|AV-procd|sdf|4516|dock5
  -GOLD-   22720 2523D 1   1.00000     0.00000
 Structure written by MMmdl.
 42 44  0  0  0  0  0  0  0  0  2 V2000
  149.6568  140.7878  153.4078 O   0  0  0  0  0  0  0  0  0  0  0  0
  148.4542  141.0106  154.1096 C   0  0  0  0  0  0  0  0  0  0  0  0
  148.7465  141.8214  155.3767 C   0  0  0  0  0  0  0  0  0  0  0  0
  149.8358  141.2366  156.1402 N   0  0  0  0  0  0  0  0  0  0  0  0
  150.4056  142.0001  157.1646 C   0  0  0  0  0  0  0  0  0  0  0  0
  150.3323  143.3522  157.2902 N   0  3  0  0  0  0  0  0  0  0  0  0
  151.0094  143.7220  158.4562 C   0  0  0  0  0  0  0  0  0  0  0  0
  151.2168  144.9737  159.0276 C   0  0  0  0  0  0  0  0  0  0  0  0
  151.9479  145.0065  160.2331 C   0  0  0  0  0  0  0  0  0  0  0  0
  152.4421  143.8266  160.8266 C   0  0  0  0  0  0  0  0  0  0  0  0
  152.2279  142.5618  160.2407 C   0  0  0  0  0  0  0  0  0  0  0  0
  151.5062  142.5356  159.0481 C   0  0  0  0  0  0  0  0  0  0  0  0
  151.1082  141.4882  158.2083 N   0  0  0  0  0  0  0  0  0  0  0  0
  151.4428  140.0999  158.5592 C   0  0  0  0  0  0  0  0  0  0  0  0
  152.9646  139.8510  158.5753 C   0  0  2  0  0  0  0  0  0  0  0  0
  153.2925  139.0700  157.4448 O   0  0  0  0  0  0  0  0  0  0  0  0
  153.4262  139.2100  159.8799 C   0  0  0  0  0  0  0  0  0  0  0  0
  154.2303  139.9367  160.7866 C   0  0  0  0  0  0  0  0  0  0  0  0
  154.6889  139.3339  161.9735 C   0  0  0  0  0  0  0  0  0  0  0  0
  155.4636  140.0365  162.8332 F   0  0  0  0  0  0  0  0  0  0  0  0
  154.3496  137.9989  162.2621 C   0  0  0  0  0  0  0  0  0  0  0  0
  153.5508  137.2674  161.3630 C   0  0  0  0  0  0  0  0  0  0  0  0
  153.0900  137.8686  160.1756 C   0  0  0  0  0  0  0  0  0  0  0  0
  152.3396  137.1425  159.3123 F   0  0  0  0  0  0  0  0  0  0  0  0
  149.4860  140.1811  152.7032 H   0  0  0  0  0  0  0  0  0  0  0  0
  147.7575  141.5410  153.4599 H   0  0  0  0  0  0  0  0  0  0  0  0
  148.0039  140.0493  154.3595 H   0  0  0  0  0  0  0  0  0  0  0  0
  149.0059  142.8467  155.1100 H   0  0  0  0  0  0  0  0  0  0  0  0
  147.8542  141.8636  156.0035 H   0  0  0  0  0  0  0  0  0  0  0  0
  149.8939  140.2297  156.1964 H   0  0  0  0  0  0  0  0  0  0  0  0
  150.8381  145.8798  158.5778 H   0  0  0  0  0  0  0  0  0  0  0  0
  152.1323  145.9564  160.7138 H   0  0  0  0  0  0  0  0  0  0  0  0
  152.9967  143.8925  161.7514 H   0  0  0  0  0  0  0  0  0  0  0  0
  152.6085  141.6639  160.7049 H   0  0  0  0  0  0  0  0  0  0  0  0
  151.0069  139.8854  159.5358 H   0  0  0  0  0  0  0  0  0  0  0  0
  150.9441  139.4381  157.8498 H   0  0  0  0  0  0  0  0  0  0  0  0
  153.4829  140.8013  158.4442 H   0  0  0  0  0  0  0  0  0  0  0  0
  152.5374  139.0306  156.8774 H   0  0  0  0  0  0  0  0  0  0  0  0
  154.5081  140.9578  160.5698 H   0  0  0  0  0  0  0  0  0  0  0  0
  154.7048  137.5345  163.1703 H   0  0  0  0  0  0  0  0  0  0  0  0
  153.2956  136.2412  161.5822 H   0  0  0  0  0  0  0  0  0  0  0  0
  149.8585  143.9650  156.6392 H   0  0  0  0  0  0  0  0  0  0  0  0
  1  2  1  0  0  0  0
  1 25  1  0  0  0  0
  2  3  1  0  0  0  0
  2 26  1  0  0  0  0
  2 27  1  0  0  0  0
  3  4  1  0  0  0  0
  3 28  1  0  0  0  0
  3 29  1  0  0  0  0
  4  5  1  0  0  0  0
  4 30  1  0  0  0  0
  5 13  1  0  0  0  0
  5  6  2  0  0  0  0
  6  7  1  0  0  0  0
  6 42  1  0  0  0  0
  7 12  2  0  0  0  0
  7  8  1  0  0  0  0
  8  9  2  0  0  0  0
  8 31  1  0  0  0  0
  9 10  1  0  0  0  0
  9 32  1  0  0  0  0
 10 11  2  0  0  0  0
 10 33  1  0  0  0  0
 11 12  1  0  0  0  0
 11 34  1  0  0  0  0
 12 13  1  0  0  0  0
 13 14  1  0  0  0  0
 14 15  1  0  0  0  0
 14 35  1  0  0  0  0
 14 36  1  0  0  0  0
 15 16  1  0  0  0  0
 15 17  1  0  0  0  0
 15 37  1  0  0  0  0
 16 38  1  0  0  0  0
 17 23  1  0  0  0  0
 17 18  2  0  0  0  0
 18 19  1  0  0  0  0
 18 39  1  0  0  0  0
 19 20  1  0  0  0  0
 19 21  2  0  0  0  0
 21 22  1  0  0  0  0
 21 40  1  0  0  0  0
 22 23  2  0  0  0  0
 22 41  1  0  0  0  0
 23 24  1  0  0  0  0
M  CHG  1   6   1
M  END
> <s_m_source_file>
AV-unprocessed.smi

> <i_m_source_file_index>
1036

> <i_lp_mmshare_version>
43012

> <i_f3d_flags>
0

> <s_epik_input>
W09IXVtDSDJdW0NIMl1bTkhdYyhuMSluKGMoYzEyKVtjSF1bY0hdW2NIXVtjSF0yKVtDSDJdW0NASF0oW09IXSljM1tjSF1jKEYpW2NIXVtjSF1jM0Y=

> <s_epik_cmdline>
J2VwaWtfcHl0aG9uJywgJy1waCcsICc3LjAnLCAnLXRuJywgJzgnLCAnLW1hJywgJzIwMCcsICctbWV0YWxfYmluZGluZycsICctaW1hZScsICc8aW5maWxlLm1hZT4nLCAnLW9tYWUnLCAnPG91dGZpbGUubWFlPic=

> <r_epik_Ionization_Penalty>
0.0688114

> <r_epik_Ionization_Penalty_Charging>
0.0688055

> <r_epik_Ionization_Penalty_Neutral>
5.85933e-06

> <r_epik_State_Penalty>
0.0602293

> <r_epik_Charging_Adjusted_Penalty>
0.129035

> <i_epik_Tot_Q>
1

> <i_epik_Tot_abs_Q>
1

> <r_epik_Metal_State_Penalty>
2.77411

> <b_epik_Metal_Only>
0

> <s_lp_Force_Field>
OPLS_2005

> <r_lp_Energy>
18.4992

> <b_lp_Chiralities_Consistent>
1

> <s_lp_Variant>
AV-unprocessed.smi:1036-1

> <Gold.Version>
5.8.1

> <Gold.Id.Protein>
6NUR|6NUR_protein|mol2

> <Gold.PLP.Fitness>
62.5780

> <Gold.PLP.PLP>
-49.2449

> <Gold.PLP.part.hbond>
-4.4450

> <Gold.PLP.part.metal>
0.0000

> <Gold.PLP.part.buried>
-3.1513

> <Gold.PLP.part.nonpolar>
-42.6099

> <Gold.PLP.part.repulsive>
0.0740

> <Gold.PLP.ligand.clash>
0.0000

> <Gold.PLP.ligand.torsion>
0.9385

> <Gold.PLP.Chemscore.Hbond>
5.0520

> <Gold.PLP.Chemscore.CHOScore>
0.0000

> <Gold.PLP.Chemscore.Metal>
0.0000

> <Gold.Chemscore.Hbonds>
donor molecule, donor type, donor heavy atom, donor atom, acceptor molecule, acceptor atom, score
      L1  H     1    25       P1  7957  0.83
      L1  H     6    42       P1  8028  2.00
      P1  H  7989  7998       L1     1  0.32
      P1  H  7997  8010       L1    16  1.00
      P1  H  8011  8017       L1     1  0.90

> <Gold.PLP.Chemscore.Internal.Correction>
0.0540

> <Gold.Rescore>
     Score         DG    S(hbond)    S(metal)    S(lipo)     H(rot)  DE(clash)    DE(int)     intcor
     17.57     -19.85       2.44        0.00     124.93       3.29       0.09       2.19       ----

> <Gold.Chemscore.Fitness>
17.5729

> <Gold.Chemscore.DG>
-19.8463

> <Gold.Chemscore.ZeroCoef>
-5.4800

> <Gold.Chemscore.Hbond>
2.4446

> <Gold.Chemscore.Metal>
0.0000

> <Gold.Chemscore.Lipo>
124.9339

> <Gold.Chemscore.Internal_Hbond>
0.0000

> <Gold.Chemscore.DEClash>
0.0853

> <Gold.Chemscore.DEInternal>
2.1882

> <Gold.Chemscore.Rot>
3.2874

> <Gold.Chemscore.Internal.Correction>
   9.000000E+99

> <Gold.Chemscore.Hbonds>
donor molecule, donor type, donor heavy atom, donor atom, acceptor molecule, acceptor atom, score
      L1  H     1    25       P1  7957  0.78
      L1  H     6    42       P1  8028  0.96
      P1  H  7989  7998       L1     1  0.13
      P1  H  7997  8010       L1    16  0.15
      P1  H  8011  8017       L1     1  0.06

> <Gold.Chemscore.Hbond.Weighted>
-8.1648

> <Gold.Chemscore.Metal.Weighted>
-0.0000

> <Gold.Chemscore.Lipo.Weighted>
-14.6173

> <Gold.Chemscore.Internal_Hbond.Weighted>
0.0000

> <Gold.Chemscore.DEClash.Weighted>
0.0853

> <Gold.Chemscore.DEInternal.Weighted>
2.1882

> <Gold.Chemscore.Rot.Weighted>
8.4158

> <Gold.Chemscore.Internal.Correction.Weighted>
   9.000000E+99

> <Gold.Protein.RotatedTorsions>
[ 6907 6896 6895 6894 ] final -142.49 input  -60.11 | X-H torsion
[ 7974 7965 7964 7962 ] final  125.56 input  175.53 | X-H torsion
[ 8008 7997 7996 7995 ] final   65.78 input   59.86 | X-H torsion
[ 10167 10162 10161 10158 ] final -102.44 input  -65.29 | X-H torsion
[ 10718 10713 10712 10709 ] final  169.63 input   66.30 | X-H torsion
[ 10763 10752 10751 10750 ] final  -30.92 input  -60.55 | X-H torsion
[ 11005 11000 10999 10996 ] final  163.27 input  -57.11 | X-H torsion

> <Gold.Protein.ActiveResidues>
 VAL166  LYS551  ARG553  GLY616  TRP617  ASP618  TYR619  PRO620  LYS621  CYS622 
 ASP623  PHE694  ASN695  SER759  ASP760  ASP761  ALA762  ILE779  LEU786  VAL792 
 PHE793  MET794  SER795  GLU796  ALA797  LYS798  CYS799  TRP800  GLU811  SER814 

> <Gold.Protein.RotatedAtoms>
  151.0877  133.5340  159.2616 H   0  0  0  0  0  0  0  0  0  0  0  0  # atno 6907 bound_to 6896
  151.2219  135.0521  159.8963 H   0  0  0  0  0  0  0  0  0  0  0  0  # atno 6908 bound_to 6896
  152.5431  134.0678  159.8234 H   0  0  0  0  0  0  0  0  0  0  0  0  # atno 6909 bound_to 6896
  145.0717  139.3725  143.4954 H   0  0  0  0  0  0  0  0  0  0  0  0  # atno 7974 bound_to 7965
  155.6671  140.3497  155.4804 H   0  0  0  0  0  0  0  0  0  0  0  0  # atno 8008 bound_to 7997
  155.9720  140.1157  157.0827 H   0  0  0  0  0  0  0  0  0  0  0  0  # atno 8009 bound_to 7997
  154.4168  140.1155  156.5305 H   0  0  0  0  0  0  0  0  0  0  0  0  # atno 8010 bound_to 7997
  140.2307  143.3609  152.0889 H   0  0  0  0  0  0  0  0  0  0  0  0  # atno 10167 bound_to 10162
  157.0199  131.0229  151.2778 H   0  0  0  0  0  0  0  0  0  0  0  0  # atno 10718 bound_to 10713
  153.7889  135.6899  153.4875 H   0  0  0  0  0  0  0  0  0  0  0  0  # atno 10763 bound_to 10752
  153.1763  135.4523  154.9967 H   0  0  0  0  0  0  0  0  0  0  0  0  # atno 10764 bound_to 10752
  154.8052  135.3354  154.7386 H   0  0  0  0  0  0  0  0  0  0  0  0  # atno 10765 bound_to 10752
  140.2341  134.8101  157.3346 H   0  0  0  0  0  0  0  0  0  0  0  0  # atno 11005 bound_to 11000
  146.3529  140.0464  142.8639 LP  0  0  0  0  0  0  0  0  0  0  0  0  # atno 17320 bound_to 7965
  145.1285  140.9504  143.4558 LP  0  0  0  0  0  0  0  0  0  0  0  0  # atno 17321 bound_to 7965
  139.5111  144.6895  151.5797 LP  0  0  0  0  0  0  0  0  0  0  0  0  # atno 17342 bound_to 10162
  140.6187  143.9299  150.6509 LP  0  0  0  0  0  0  0  0  0  0  0  0  # atno 17343 bound_to 10162
  157.5257  130.8026  149.7860 LP  0  0  0  0  0  0  0  0  0  0  0  0  # atno 17370 bound_to 10713
  156.0106  130.3835  150.2278 LP  0  0  0  0  0  0  0  0  0  0  0  0  # atno 17371 bound_to 10713
  140.1720  134.4596  155.7825 LP  0  0  0  0  0  0  0  0  0  0  0  0  # atno 17394 bound_to 11000
  141.2215  133.6946  156.7724 LP  0  0  0  0  0  0  0  0  0  0  0  0  # atno 17395 bound_to 11000

$$$$
