AV-unprocessed.smi:281|AV-procd|sdf|2104|dock10
  -GOLD-   2262021393D 1   1.00000     0.00000
 Structure written by MMmdl.
 55 59  0  0  0  0  0  0  0  0  1 V2000
  141.6816  134.9033  153.4497 C   0  0  0  0  0  0  0  0  0  0  0  0
  142.9856  134.9924  152.6510 C   0  0  1  0  0  0  0  0  0  0  0  0
  143.9312  136.0704  153.2023 C   0  0  0  0  0  0  0  0  0  0  0  0
  145.1748  136.0482  152.4494 N   0  0  0  0  0  0  0  0  0  0  0  0
  146.0033  137.0771  152.7212 C   0  0  0  0  0  0  0  0  0  0  0  0
  146.1820  137.9980  151.7435 N   0  0  0  0  0  0  0  0  0  0  0  0
  146.9991  139.0360  151.9465 C   0  0  0  0  0  0  0  0  0  0  0  0
  147.7210  139.3316  153.0301 N   0  0  0  0  0  0  0  0  0  0  0  0
  147.5426  138.4040  154.0145 C   0  0  0  0  0  0  0  0  0  0  0  0
  146.7033  137.2567  153.9476 C   0  0  0  0  0  0  0  0  0  0  0  0
  146.7693  136.5502  155.1423 N   0  0  0  0  0  0  0  0  0  0  0  0
  147.6036  137.2385  155.8725 C   0  0  0  0  0  0  0  0  0  0  0  0
  148.1259  138.3605  155.2688 N   0  0  0  0  0  0  0  0  0  0  0  0
  149.0823  139.2954  155.8410 C   0  0  0  0  0  0  0  0  0  0  0  0
  150.3260  139.5226  154.9497 C   0  0  2  0  0  0  0  0  0  0  0  0
  149.9534  140.2898  153.8182 O   0  0  0  0  0  0  0  0  0  0  0  0
  150.9876  138.2342  154.4647 C   0  0  0  0  0  0  0  0  0  0  0  0
  152.4640  138.6013  154.4207 C   0  0  0  0  0  0  0  0  0  0  0  0
  152.6119  139.4084  155.5759 O   0  0  0  0  0  0  0  0  0  0  0  0
  151.4714  140.2541  155.6779 C   0  0  0  0  0  0  0  0  0  0  0  0
  145.8241  134.7458  152.4861 C   0  0  0  0  0  0  0  0  0  0  0  0
  144.8656  133.6331  151.9931 C   0  0  2  0  0  0  0  0  0  0  0  0
  145.4721  132.2623  152.2442 C   0  0  0  0  0  0  0  0  0  0  0  0
  146.3974  132.0786  151.0470 C   0  0  0  0  0  0  0  0  0  0  0  0
  145.7896  132.7970  149.9784 O   0  0  0  0  0  0  0  0  0  0  0  0
  144.7116  133.6029  150.4546 C   0  0  1  0  0  0  0  0  0  0  0  0
  143.4248  132.9283  149.9418 C   0  0  0  0  0  0  0  0  0  0  0  0
  143.6280  133.7167  152.7087 O   0  0  0  0  0  0  0  0  0  0  0  0
  141.1422  135.8504  153.4284 H   0  0  0  0  0  0  0  0  0  0  0  0
  141.8744  134.6494  154.4927 H   0  0  0  0  0  0  0  0  0  0  0  0
  141.0250  134.1373  153.0362 H   0  0  0  0  0  0  0  0  0  0  0  0
  142.7399  135.2365  151.6176 H   0  0  0  0  0  0  0  0  0  0  0  0
  143.4671  137.0546  153.1229 H   0  0  0  0  0  0  0  0  0  0  0  0
  144.1314  135.8891  154.2590 H   0  0  0  0  0  0  0  0  0  0  0  0
  147.0900  139.7273  151.1219 H   0  0  0  0  0  0  0  0  0  0  0  0
  147.8676  136.9396  156.8765 H   0  0  0  0  0  0  0  0  0  0  0  0
  148.5722  140.2415  156.0274 H   0  0  0  0  0  0  0  0  0  0  0  0
  149.3852  138.9146  156.8174 H   0  0  0  0  0  0  0  0  0  0  0  0
  149.7256  139.6993  153.1165 H   0  0  0  0  0  0  0  0  0  0  0  0
  150.8506  137.4396  155.1992 H   0  0  0  0  0  0  0  0  0  0  0  0
  150.6048  137.8724  153.5092 H   0  0  0  0  0  0  0  0  0  0  0  0
  153.1179  137.7295  154.4511 H   0  0  0  0  0  0  0  0  0  0  0  0
  152.6994  139.1831  153.5283 H   0  0  0  0  0  0  0  0  0  0  0  0
  151.6973  141.2190  155.2205 H   0  0  0  0  0  0  0  0  0  0  0  0
  151.2495  140.4372  156.7298 H   0  0  0  0  0  0  0  0  0  0  0  0
  146.7313  134.7701  151.8807 H   0  0  0  0  0  0  0  0  0  0  0  0
  146.1318  134.5329  153.5105 H   0  0  0  0  0  0  0  0  0  0  0  0
  145.9905  132.1804  153.2001 H   0  0  0  0  0  0  0  0  0  0  0  0
  144.6953  131.4969  152.2265 H   0  0  0  0  0  0  0  0  0  0  0  0
  147.3776  132.5125  151.2481 H   0  0  0  0  0  0  0  0  0  0  0  0
  146.5398  131.0287  150.7903 H   0  0  0  0  0  0  0  0  0  0  0  0
  144.7816  134.6043  150.0285 H   0  0  0  0  0  0  0  0  0  0  0  0
  142.5302  133.4771  150.2314 H   0  0  0  0  0  0  0  0  0  0  0  0
  143.3228  131.9109  150.3190 H   0  0  0  0  0  0  0  0  0  0  0  0
  143.4292  132.8744  148.8529 H   0  0  0  0  0  0  0  0  0  0  0  0
  1  2  1  0  0  0  0
  1 29  1  0  0  0  0
  1 30  1  0  0  0  0
  1 31  1  0  0  0  0
  2 28  1  0  0  0  0
  2  3  1  0  0  0  0
  2 32  1  0  0  0  0
  3  4  1  0  0  0  0
  3 33  1  0  0  0  0
  3 34  1  0  0  0  0
  4  5  1  0  0  0  0
  4 21  1  0  0  0  0
  5 10  1  0  0  0  0
  5  6  2  0  0  0  0
  6  7  1  0  0  0  0
  7  8  2  0  0  0  0
  7 35  1  0  0  0  0
  8  9  1  0  0  0  0
  9 13  1  0  0  0  0
  9 10  2  0  0  0  0
 10 11  1  0  0  0  0
 11 12  2  0  0  0  0
 12 13  1  0  0  0  0
 12 36  1  0  0  0  0
 13 14  1  0  0  0  0
 14 15  1  0  0  0  0
 14 37  1  0  0  0  0
 14 38  1  0  0  0  0
 15 20  1  0  0  0  0
 15 16  1  0  0  0  0
 15 17  1  0  0  0  0
 16 39  1  0  0  0  0
 17 18  1  0  0  0  0
 17 40  1  0  0  0  0
 17 41  1  0  0  0  0
 18 19  1  0  0  0  0
 18 42  1  0  0  0  0
 18 43  1  0  0  0  0
 19 20  1  0  0  0  0
 20 44  1  0  0  0  0
 20 45  1  0  0  0  0
 21 22  1  0  0  0  0
 21 46  1  0  0  0  0
 21 47  1  0  0  0  0
 22 26  1  0  0  0  0
 22 23  1  0  0  0  0
 22 28  1  0  0  0  0
 23 24  1  0  0  0  0
 23 48  1  0  0  0  0
 23 49  1  0  0  0  0
 24 25  1  0  0  0  0
 24 50  1  0  0  0  0
 24 51  1  0  0  0  0
 25 26  1  0  0  0  0
 26 27  1  0  0  0  0
 26 52  1  0  0  0  0
 27 53  1  0  0  0  0
 27 54  1  0  0  0  0
 27 55  1  0  0  0  0
M  END
> <s_m_source_file>
AV-unprocessed.smi

> <i_m_source_file_index>
281

> <i_lp_mmshare_version>
43012

> <i_f3d_flags>
0

> <s_epik_input>
W0NIM11bQ0BASF0xT1tDSDJdW0NIMl1bQ0BAXTEyW0NIMl1OKFtDSDJdW0NASF0oTzIpW0NIM10pYyhuW2NIXW4zKWMoYzM0KW5bY0hdbjRbQ0gyXVtDQEBdNShbT0hdKVtDSDJdW0NIMl1PW0NIMl01

> <s_epik_cmdline>
J2VwaWtfcHl0aG9uJywgJy1waCcsICc3LjAnLCAnLXRuJywgJzgnLCAnLW1hJywgJzIwMCcsICctbWV0YWxfYmluZGluZycsICctaW1hZScsICc8aW5maWxlLm1hZT4nLCAnLW9tYWUnLCAnPG91dGZpbGUubWFlPic=

> <r_lp_tautomer_probability>
1

> <r_epik_Ionization_Penalty>
0.00571331

> <r_epik_Ionization_Penalty_Charging>
0

> <r_epik_Ionization_Penalty_Neutral>
0.00571331

> <r_epik_State_Penalty>
0.00399586

> <r_epik_Charging_Adjusted_Penalty>
0.00399586

> <i_epik_Tot_Q>
0

> <i_epik_Tot_abs_Q>
0

> <r_epik_Metal_State_Penalty>
-0

> <b_epik_Metal_Only>
0

> <s_lp_Force_Field>
OPLS_2005

> <r_lp_Energy>
57.1517

> <b_lp_Chiralities_Consistent>
1

> <s_lp_Variant>
AV-unprocessed.smi:281-4

> <Gold.Version>
5.8.1

> <Gold.Id.Protein>
6NUR|6NUR_protein|mol2

> <Gold.PLP.Fitness>
42.5967

> <Gold.PLP.PLP>
-35.1668

> <Gold.PLP.part.hbond>
-2.9330

> <Gold.PLP.part.metal>
0.0000

> <Gold.PLP.part.buried>
-3.9556

> <Gold.PLP.part.nonpolar>
-33.7570

> <Gold.PLP.part.repulsive>
4.5045

> <Gold.PLP.ligand.clash>
0.0000

> <Gold.PLP.ligand.torsion>
0.2312

> <Gold.PLP.Chemscore.Hbond>
2.1521

> <Gold.PLP.Chemscore.CHOScore>
0.4374

> <Gold.PLP.Chemscore.Metal>
0.0000

> <Gold.Chemscore.Hbonds>
donor molecule, donor type, donor heavy atom, donor atom, acceptor molecule, acceptor atom, score
      L1  H    16    39       P1  7957  0.59
      P1  H  7989  7998       L1    16  0.58
      P1  H  7997  8010       L1    19  1.00
      L1  C     7    35       P1  7957  0.40

> <Gold.PLP.Chemscore.Internal.Correction>
0.1238

> <Gold.Rescore>
     Score         DG    S(hbond)    S(metal)    S(lipo)     H(rot)  DE(clash)    DE(int)     intcor
     11.39     -15.30       1.58        0.00      84.69       2.09       3.57       0.34       ----

> <Gold.Chemscore.Fitness>
11.3883

> <Gold.Chemscore.DG>
-15.2950

> <Gold.Chemscore.ZeroCoef>
-5.4800

> <Gold.Chemscore.Hbond>
1.5759

> <Gold.Chemscore.Metal>
0.0000

> <Gold.Chemscore.Lipo>
84.6899

> <Gold.Chemscore.Internal_Hbond>
0.0000

> <Gold.Chemscore.DEClash>
3.5663

> <Gold.Chemscore.DEInternal>
0.3404

> <Gold.Chemscore.Rot>
2.0927

> <Gold.Chemscore.Internal.Correction>
   9.000000E+99

> <Gold.Chemscore.Hbonds>
donor molecule, donor type, donor heavy atom, donor atom, acceptor molecule, acceptor atom, score
      L1  H    16    39       P1  7957  0.58
      P1  H  7989  7998       L1    16  0.05
      P1  H  7997  8010       L1    19  0.91

> <Gold.Chemscore.Hbond.Weighted>
-5.2636

> <Gold.Chemscore.Metal.Weighted>
-0.0000

> <Gold.Chemscore.Lipo.Weighted>
-9.9087

> <Gold.Chemscore.Internal_Hbond.Weighted>
0.0000

> <Gold.Chemscore.DEClash.Weighted>
3.5663

> <Gold.Chemscore.DEInternal.Weighted>
0.3404

> <Gold.Chemscore.Rot.Weighted>
5.3573

> <Gold.Chemscore.Internal.Correction.Weighted>
   9.000000E+99

> <Gold.Protein.RotatedTorsions>
[ 6907 6896 6895 6894 ] final -156.60 input  -60.11 | X-H torsion
[ 7974 7965 7964 7962 ] final   52.59 input  175.53 | X-H torsion
[ 8008 7997 7996 7995 ] final   82.55 input   59.86 | X-H torsion
[ 10167 10162 10161 10158 ] final  103.90 input  -65.29 | X-H torsion
[ 10718 10713 10712 10709 ] final -117.37 input   66.30 | X-H torsion
[ 10763 10752 10751 10750 ] final   82.03 input  -60.55 | X-H torsion
[ 11005 11000 10999 10996 ] final  -19.69 input  -57.11 | X-H torsion

> <Gold.Protein.ActiveResidues>
 VAL166  LYS551  ARG553  GLY616  TRP617  ASP618  TYR619  PRO620  LYS621  CYS622 
 ASP623  PHE694  ASN695  SER759  ASP760  ASP761  ALA762  ILE779  LEU786  VAL792 
 PHE793  MET794  SER795  GLU796  ALA797  LYS798  CYS799  TRP800  GLU811  SER814 

> <Gold.Protein.RotatedAtoms>
  151.2901  133.4169  159.2632 H   0  0  0  0  0  0  0  0  0  0  0  0  # atno 6907 bound_to 6896
  151.0285  134.9522  159.8108 H   0  0  0  0  0  0  0  0  0  0  0  0  # atno 6908 bound_to 6896
  152.5340  134.2863  159.9079 H   0  0  0  0  0  0  0  0  0  0  0  0  # atno 6909 bound_to 6896
  145.9798  139.4231  143.0139 H   0  0  0  0  0  0  0  0  0  0  0  0  # atno 7974 bound_to 7965
  155.9121  140.3427  155.6106 H   0  0  0  0  0  0  0  0  0  0  0  0  # atno 8008 bound_to 7997
  155.7375  140.0803  157.2279 H   0  0  0  0  0  0  0  0  0  0  0  0  # atno 8009 bound_to 7997
  154.4057  140.1577  156.2566 H   0  0  0  0  0  0  0  0  0  0  0  0  # atno 8010 bound_to 7997
  139.7223  144.7055  151.0852 H   0  0  0  0  0  0  0  0  0  0  0  0  # atno 10167 bound_to 10162
  156.1029  130.6186  150.9155 H   0  0  0  0  0  0  0  0  0  0  0  0  # atno 10718 bound_to 10713
  153.1167  135.4743  154.9128 H   0  0  0  0  0  0  0  0  0  0  0  0  # atno 10763 bound_to 10752
  154.7535  135.3112  154.8515 H   0  0  0  0  0  0  0  0  0  0  0  0  # atno 10764 bound_to 10752
  153.9090  135.6867  153.4805 H   0  0  0  0  0  0  0  0  0  0  0  0  # atno 10765 bound_to 10752
  140.8391  133.7940  155.9841 H   0  0  0  0  0  0  0  0  0  0  0  0  # atno 11005 bound_to 11000
  145.7786  140.9866  143.1111 LP  0  0  0  0  0  0  0  0  0  0  0  0  # atno 17320 bound_to 7965
  144.6858  139.9536  143.7478 LP  0  0  0  0  0  0  0  0  0  0  0  0  # atno 17321 bound_to 7965
  140.7756  143.5149  150.9606 LP  0  0  0  0  0  0  0  0  0  0  0  0  # atno 17342 bound_to 10162
  139.8837  143.7040  152.3154 LP  0  0  0  0  0  0  0  0  0  0  0  0  # atno 17343 bound_to 10162
  157.6201  131.0930  150.8637 LP  0  0  0  0  0  0  0  0  0  0  0  0  # atno 17370 bound_to 10713
  156.8762  130.5163  149.5293 LP  0  0  0  0  0  0  0  0  0  0  0  0  # atno 17371 bound_to 10713
  140.8915  134.2489  157.5092 LP  0  0  0  0  0  0  0  0  0  0  0  0  # atno 17394 bound_to 11000
  139.8703  134.9663  156.4560 LP  0  0  0  0  0  0  0  0  0  0  0  0  # atno 17395 bound_to 11000

$$$$
