AV-unprocessed.smi:21|AV-procd|sdf|126|dock10
  -GOLD-   2262015303D 1   1.00000     0.00000
 Structure written by MMmdl.
 62 65  0  0  0  0  0  0  0  0  2 V2000
  145.9669  129.6331  151.3978 C   0  0  0  0  0  0  0  0  0  0  0  0
  145.5407  130.7708  152.1298 O   0  0  0  0  0  0  0  0  0  0  0  0
  145.5532  131.9705  151.3704 C   0  0  2  0  0  0  0  0  0  0  0  0
  144.6033  132.9971  151.9780 C   0  0  0  0  0  0  0  0  0  0  0  0
  144.2007  133.9094  150.8044 C   0  0  1  0  0  0  0  0  0  0  0  0
  144.9334  135.2718  150.7979 C   0  0  0  0  0  0  0  0  0  0  0  0
  144.5009  136.1830  151.8598 N   0  0  0  0  0  0  0  0  0  0  0  0
  143.0735  136.2973  152.1500 C   0  0  0  0  0  0  0  0  0  0  0  0
  145.3312  137.1912  152.2501 C   0  0  0  0  0  0  0  0  0  0  0  0
  145.9733  137.9162  151.2948 N   0  0  0  0  0  0  0  0  0  0  0  0
  146.8479  138.8677  151.6316 C   0  0  0  0  0  0  0  0  0  0  0  0
  147.2360  139.2484  152.8486 N   0  0  0  0  0  0  0  0  0  0  0  0
  146.5844  138.5440  153.8159 C   0  0  0  0  0  0  0  0  0  0  0  0
  145.6125  137.5227  153.6103 C   0  0  0  0  0  0  0  0  0  0  0  0
  145.1568  137.0631  154.8420 N   0  0  0  0  0  0  0  0  0  0  0  0
  145.8366  137.7482  155.7191 C   0  0  0  0  0  0  0  0  0  0  0  0
  146.7483  138.6295  155.1872 N   0  0  0  0  0  0  0  0  0  0  0  0
  147.6655  139.4784  155.9242 C   0  0  0  0  0  0  0  0  0  0  0  0
  148.9710  139.8365  155.1578 C   0  0  1  0  0  0  0  0  0  0  0  0
  149.1552  141.3735  155.1654 C   0  0  0  0  0  0  0  0  0  0  0  0
  148.1084  142.0211  154.4719 O   0  0  0  0  0  0  0  0  0  0  0  0
  150.2356  139.1049  155.7068 C   0  0  2  0  0  0  0  0  0  0  0  0
  150.6888  139.5502  157.0900 C   0  0  0  0  0  0  0  0  0  0  0  0
  152.1230  139.0451  157.1449 C   0  0  0  0  0  0  0  0  0  0  0  0
  152.6229  139.2553  155.8342 O   0  0  0  0  0  0  0  0  0  0  0  0
  151.5382  139.3239  154.9145 C   0  0  0  0  0  0  0  0  0  0  0  0
  144.5323  133.1541  149.5706 N   0  3  2  0  0  0  0  0  0  0  0  0
  143.4675  133.1552  148.5442 C   0  0  0  0  0  0  0  0  0  0  0  0
  144.9849  131.8042  149.9625 C   0  0  0  0  0  0  0  0  0  0  0  0
  146.5576  132.3964  151.3270 H   0  0  0  0  0  0  0  0  0  0  0  0
  143.1216  134.0640  150.8455 H   0  0  0  0  0  0  0  0  0  0  0  0
  145.9571  128.7578  152.0472 H   0  0  0  0  0  0  0  0  0  0  0  0
  146.9839  129.7620  151.0253 H   0  0  0  0  0  0  0  0  0  0  0  0
  145.3078  129.4288  150.5537 H   0  0  0  0  0  0  0  0  0  0  0  0
  143.7135  132.4902  152.3543 H   0  0  0  0  0  0  0  0  0  0  0  0
  145.0508  133.5256  152.8184 H   0  0  0  0  0  0  0  0  0  0  0  0
  146.0062  135.0992  150.8905 H   0  0  0  0  0  0  0  0  0  0  0  0
  144.8167  135.7654  149.8346 H   0  0  0  0  0  0  0  0  0  0  0  0
  142.9123  136.4738  153.2141 H   0  0  0  0  0  0  0  0  0  0  0  0
  142.5437  135.3824  151.8846 H   0  0  0  0  0  0  0  0  0  0  0  0
  142.6245  137.1206  151.5937 H   0  0  0  0  0  0  0  0  0  0  0  0
  147.3133  139.3888  150.8077 H   0  0  0  0  0  0  0  0  0  0  0  0
  145.7137  137.6047  156.7828 H   0  0  0  0  0  0  0  0  0  0  0  0
  147.1163  140.3817  156.1906 H   0  0  0  0  0  0  0  0  0  0  0  0
  147.9128  138.9841  156.8644 H   0  0  0  0  0  0  0  0  0  0  0  0
  148.8498  139.5385  154.1155 H   0  0  0  0  0  0  0  0  0  0  0  0
  149.2025  141.7540  156.1861 H   0  0  0  0  0  0  0  0  0  0  0  0
  150.0790  141.6687  154.6698 H   0  0  0  0  0  0  0  0  0  0  0  0
  148.2032  142.9545  154.5863 H   0  0  0  0  0  0  0  0  0  0  0  0
  150.0336  138.0334  155.7541 H   0  0  0  0  0  0  0  0  0  0  0  0
  150.6737  140.6386  157.1671 H   0  0  0  0  0  0  0  0  0  0  0  0
  150.0813  139.1388  157.8966 H   0  0  0  0  0  0  0  0  0  0  0  0
  152.7254  139.5619  157.8924 H   0  0  0  0  0  0  0  0  0  0  0  0
  152.1446  137.9770  157.3657 H   0  0  0  0  0  0  0  0  0  0  0  0
  151.6788  138.5764  154.1358 H   0  0  0  0  0  0  0  0  0  0  0  0
  151.5584  140.3090  154.4473 H   0  0  0  0  0  0  0  0  0  0  0  0
  142.5606  132.6751  148.9153 H   0  0  0  0  0  0  0  0  0  0  0  0
  143.7981  132.6220  147.6527 H   0  0  0  0  0  0  0  0  0  0  0  0
  143.2191  134.1757  148.2521 H   0  0  0  0  0  0  0  0  0  0  0  0
  145.7122  131.4049  149.2552 H   0  0  0  0  0  0  0  0  0  0  0  0
  144.1309  131.1248  149.9905 H   0  0  0  0  0  0  0  0  0  0  0  0
  145.3368  133.6156  149.1704 H   0  0  0  0  0  0  0  0  0  0  0  0
  1  2  1  0  0  0  0
  1 32  1  0  0  0  0
  1 33  1  0  0  0  0
  1 34  1  0  0  0  0
  2  3  1  0  0  0  0
  3 30  1  0  0  0  0
  3 29  1  0  0  0  0
  3  4  1  0  0  0  0
  4  5  1  0  0  0  0
  4 35  1  0  0  0  0
  4 36  1  0  0  0  0
  5 31  1  0  0  0  0
  5  6  1  0  0  0  0
  5 27  1  0  0  0  0
  6  7  1  0  0  0  0
  6 37  1  0  0  0  0
  6 38  1  0  0  0  0
  7  8  1  0  0  0  0
  7  9  1  0  0  0  0
  8 39  1  0  0  0  0
  8 40  1  0  0  0  0
  8 41  1  0  0  0  0
  9 14  1  0  0  0  0
  9 10  2  0  0  0  0
 10 11  1  0  0  0  0
 11 12  2  0  0  0  0
 11 42  1  0  0  0  0
 12 13  1  0  0  0  0
 13 17  1  0  0  0  0
 13 14  2  0  0  0  0
 14 15  1  0  0  0  0
 15 16  2  0  0  0  0
 16 17  1  0  0  0  0
 16 43  1  0  0  0  0
 17 18  1  0  0  0  0
 18 19  1  0  0  0  0
 18 44  1  0  0  0  0
 18 45  1  0  0  0  0
 19 20  1  0  0  0  0
 19 22  1  0  0  0  0
 19 46  1  0  0  0  0
 20 21  1  0  0  0  0
 20 47  1  0  0  0  0
 20 48  1  0  0  0  0
 21 49  1  0  0  0  0
 22 26  1  0  0  0  0
 22 23  1  0  0  0  0
 22 50  1  0  0  0  0
 23 24  1  0  0  0  0
 23 51  1  0  0  0  0
 23 52  1  0  0  0  0
 24 25  1  0  0  0  0
 24 53  1  0  0  0  0
 24 54  1  0  0  0  0
 25 26  1  0  0  0  0
 26 55  1  0  0  0  0
 26 56  1  0  0  0  0
 27 28  1  0  0  0  0
 27 29  1  0  0  0  0
 27 62  1  0  0  0  0
 28 57  1  0  0  0  0
 28 58  1  0  0  0  0
 28 59  1  0  0  0  0
 29 60  1  0  0  0  0
 29 61  1  0  0  0  0
M  CHG  1  27   1
M  END
> <s_m_source_file>
AV-unprocessed.smi

> <i_m_source_file_index>
21

> <i_lp_mmshare_version>
43012

> <i_f3d_flags>
0

> <s_epik_input>
W0NIM11PW0NASF0xW0NIMl1bQ0BIXShOKFtDSDNdKVtDSDJdMSlbQ0gyXU4oW0NIM10pYyhuW2NIXW4yKWMoYzIzKW5bY0hdbjNbQ0gyXVtDQEhdKFtDSDJdW09IXSlbQ0BASF00W0NIMl1bQ0gyXU9bQ0gyXTQ=

> <s_epik_cmdline>
J2VwaWtfcHl0aG9uJywgJy1waCcsICc3LjAnLCAnLXRuJywgJzgnLCAnLW1hJywgJzIwMCcsICctbWV0YWxfYmluZGluZycsICctaW1hZScsICc8aW5maWxlLm1hZT4nLCAnLW9tYWUnLCAnPG91dGZpbGUubWFlPic=

> <r_lp_tautomer_probability>
1

> <r_epik_Ionization_Penalty>
0.0157465

> <r_epik_Ionization_Penalty_Charging>
0.015354

> <r_epik_Ionization_Penalty_Neutral>
0.000392529

> <r_epik_State_Penalty>
0.0120612

> <r_epik_Charging_Adjusted_Penalty>
0.0274152

> <i_epik_Tot_Q>
1

> <i_epik_Tot_abs_Q>
1

> <r_epik_Metal_State_Penalty>
0.0121253

> <b_epik_Metal_Only>
0

> <s_lp_Force_Field>
OPLS_2005

> <r_lp_Energy>
57.6991

> <b_lp_Chiralities_Consistent>
1

> <s_lp_Variant>
AV-unprocessed.smi:21-6

> <Gold.Version>
5.8.1

> <Gold.Id.Protein>
6NUR|6NUR_protein|mol2

> <Gold.PLP.Fitness>
45.4412

> <Gold.PLP.PLP>
-39.1756

> <Gold.PLP.part.hbond>
-3.0000

> <Gold.PLP.part.metal>
0.0000

> <Gold.PLP.part.buried>
-3.0517

> <Gold.PLP.part.nonpolar>
-36.7909

> <Gold.PLP.part.repulsive>
3.6852

> <Gold.PLP.ligand.clash>
0.0000

> <Gold.PLP.ligand.torsion>
2.6337

> <Gold.PLP.Chemscore.Hbond>
2.8089

> <Gold.PLP.Chemscore.CHOScore>
0.7986

> <Gold.PLP.Chemscore.Metal>
0.0000

> <Gold.Chemscore.Hbonds>
donor molecule, donor type, donor heavy atom, donor atom, acceptor molecule, acceptor atom, score
      L1  H    21    49       P1  8028  0.71
      L1  H    27    62       P1  7921  0.81
      P1  H  7997  8009       L1    25  0.80
      L1  C    11    42       P1  7957  0.74

> <Gold.PLP.Chemscore.Internal.Correction>
0.7104

> <Gold.Rescore>
     Score         DG    S(hbond)    S(metal)    S(lipo)     H(rot)  DE(clash)    DE(int)     intcor
     11.06     -18.09       2.87        0.00      93.08       3.08       3.21       3.82       ----

> <Gold.Chemscore.Fitness>
11.0647

> <Gold.Chemscore.DG>
-18.0923

> <Gold.Chemscore.ZeroCoef>
-5.4800

> <Gold.Chemscore.Hbond>
2.8732

> <Gold.Chemscore.Metal>
0.0000

> <Gold.Chemscore.Lipo>
93.0757

> <Gold.Chemscore.Internal_Hbond>
0.0000

> <Gold.Chemscore.DEClash>
3.2070

> <Gold.Chemscore.DEInternal>
3.8206

> <Gold.Chemscore.Rot>
3.0758

> <Gold.Chemscore.Internal.Correction>
   9.000000E+99

> <Gold.Chemscore.Hbonds>
donor molecule, donor type, donor heavy atom, donor atom, acceptor molecule, acceptor atom, score
      L1  H    21    49       P1  8028  0.69
      L1  H    27    62       P1  7921  0.46
      P1  H  7997  8009       L1    25  0.11

> <Gold.Chemscore.Hbond.Weighted>
-9.5966

> <Gold.Chemscore.Metal.Weighted>
-0.0000

> <Gold.Chemscore.Lipo.Weighted>
-10.8899

> <Gold.Chemscore.Internal_Hbond.Weighted>
0.0000

> <Gold.Chemscore.DEClash.Weighted>
3.2070

> <Gold.Chemscore.DEInternal.Weighted>
3.8206

> <Gold.Chemscore.Rot.Weighted>
7.8741

> <Gold.Chemscore.Internal.Correction.Weighted>
   9.000000E+99

> <Gold.Protein.RotatedTorsions>
[ 6907 6896 6895 6894 ] final  168.06 input  -60.11 | X-H torsion
[ 7974 7965 7964 7962 ] final   35.68 input  175.53 | X-H torsion
[ 8008 7997 7996 7995 ] final -167.91 input   59.86 | X-H torsion
[ 10167 10162 10161 10158 ] final  163.77 input  -65.29 | X-H torsion
[ 10718 10713 10712 10709 ] final -154.07 input   66.30 | X-H torsion
[ 10763 10752 10751 10750 ] final   71.43 input  -60.55 | X-H torsion
[ 11005 11000 10999 10996 ] final  168.15 input  -57.11 | X-H torsion

> <Gold.Protein.ActiveResidues>
 VAL166  LYS551  ARG553  GLY616  TRP617  ASP618  TYR619  PRO620  LYS621  CYS622 
 ASP623  PHE694  ASN695  SER759  ASP760  ASP761  ALA762  ILE779  LEU786  VAL792 
 PHE793  MET794  SER795  GLU796  ALA797  LYS798  CYS799  TRP800  GLU811  SER814 

> <Gold.Protein.RotatedAtoms>
  151.8535  133.3444  159.3680 H   0  0  0  0  0  0  0  0  0  0  0  0  # atno 6907 bound_to 6896
  150.7199  134.5276  159.5693 H   0  0  0  0  0  0  0  0  0  0  0  0  # atno 6908 bound_to 6896
  152.2774  134.7867  160.0454 H   0  0  0  0  0  0  0  0  0  0  0  0  # atno 6909 bound_to 6896
  146.1266  139.6113  142.9254 H   0  0  0  0  0  0  0  0  0  0  0  0  # atno 7974 bound_to 7965
  155.8841  140.1014  157.1464 H   0  0  0  0  0  0  0  0  0  0  0  0  # atno 8008 bound_to 7997
  154.4008  140.1323  156.4297 H   0  0  0  0  0  0  0  0  0  0  0  0  # atno 8009 bound_to 7997
  155.7609  140.3463  155.5200 H   0  0  0  0  0  0  0  0  0  0  0  0  # atno 8010 bound_to 7997
  139.4879  144.4303  151.9079 H   0  0  0  0  0  0  0  0  0  0  0  0  # atno 10167 bound_to 10162
  156.4943  130.8362  151.2583 H   0  0  0  0  0  0  0  0  0  0  0  0  # atno 10718 bound_to 10713
  153.0398  135.5137  154.7591 H   0  0  0  0  0  0  0  0  0  0  0  0  # atno 10763 bound_to 10752
  154.6538  135.2929  154.9956 H   0  0  0  0  0  0  0  0  0  0  0  0  # atno 10764 bound_to 10752
  154.0831  135.6661  153.4893 H   0  0  0  0  0  0  0  0  0  0  0  0  # atno 10765 bound_to 10752
  140.2843  134.7725  157.3784 H   0  0  0  0  0  0  0  0  0  0  0  0  # atno 11005 bound_to 11000
  145.5352  141.0424  143.2361 LP  0  0  0  0  0  0  0  0  0  0  0  0  # atno 17320 bound_to 7965
  144.7648  139.6870  143.7219 LP  0  0  0  0  0  0  0  0  0  0  0  0  # atno 17321 bound_to 7965
  140.3750  144.2808  150.5915 LP  0  0  0  0  0  0  0  0  0  0  0  0  # atno 17342 bound_to 10162
  140.5285  143.2249  151.8277 LP  0  0  0  0  0  0  0  0  0  0  0  0  # atno 17343 bound_to 10162
  157.7470  131.0003  150.2921 LP  0  0  0  0  0  0  0  0  0  0  0  0  # atno 17370 bound_to 10713
  156.3395  130.3813  149.7421 LP  0  0  0  0  0  0  0  0  0  0  0  0  # atno 17371 bound_to 10713
  140.1254  134.5164  155.8149 LP  0  0  0  0  0  0  0  0  0  0  0  0  # atno 17394 bound_to 11000
  141.2157  133.6771  156.6943 LP  0  0  0  0  0  0  0  0  0  0  0  0  # atno 17395 bound_to 11000

$$$$
