AV-unprocessed.smi:1042|AV-procd|sdf|4539|dock1
  -GOLD-   22720 2563D 1   1.00000     0.00000
 Structure written by MMmdl.
 40 42  0  0  0  0  0  0  0  0  2 V2000
  144.5760  136.8205  152.2893 O   0  0  0  0  0  0  0  0  0  0  0  0
  145.7787  136.5688  152.2064 C   0  0  0  0  0  0  0  0  0  0  0  0
  146.7378  137.4358  152.5620 N   0  0  0  0  0  0  0  0  0  0  0  0
  146.4995  138.7761  153.0878 C   0  0  0  0  0  0  0  0  0  0  0  0
  147.8009  139.5919  153.2137 C   0  0  1  0  0  0  0  0  0  0  0  0
  147.6332  140.9831  153.8251 C   0  0  0  0  0  0  0  0  0  0  0  0
  149.0262  141.3291  154.3665 C   0  0  0  0  0  0  0  0  0  0  0  0
  149.7782  140.0557  154.4597 N   0  3  1  0  0  0  0  0  0  0  0  0
  150.5044  139.8700  155.7339 C   0  0  0  0  0  0  0  0  0  0  0  0
  151.2845  141.0886  156.1656 C   0  0  0  0  0  0  0  0  0  0  0  0
  152.0065  139.8933  155.5823 C   0  0  0  0  0  0  0  0  0  0  0  0
  148.8426  138.9604  154.1350 C   0  0  0  0  0  0  0  0  0  0  0  0
  146.3047  135.4138  151.7618 N   0  0  0  0  0  0  0  0  0  0  0  0
  145.6197  134.2496  151.3227 C   0  0  0  0  0  0  0  0  0  0  0  0
  146.4521  133.1847  150.9101 C   0  0  0  0  0  0  0  0  0  0  0  0
  145.8696  131.9845  150.4590 C   0  0  0  0  0  0  0  0  0  0  0  0
  144.4674  131.8798  150.4324 C   0  0  0  0  0  0  0  0  0  0  0  0
  143.7117  132.9867  150.8607 C   0  0  0  0  0  0  0  0  0  0  0  0
  144.2682  134.1377  151.2940 N   0  0  0  0  0  0  0  0  0  0  0  0
  147.7009  137.1509  152.4575 H   0  0  0  0  0  0  0  0  0  0  0  0
  145.8021  139.2815  152.4192 H   0  0  0  0  0  0  0  0  0  0  0  0
  146.0017  138.7071  154.0566 H   0  0  0  0  0  0  0  0  0  0  0  0
  148.2538  139.7048  152.2270 H   0  0  0  0  0  0  0  0  0  0  0  0
  147.2686  141.7175  153.1060 H   0  0  0  0  0  0  0  0  0  0  0  0
  146.9208  140.9445  154.6506 H   0  0  0  0  0  0  0  0  0  0  0  0
  149.5558  141.9936  153.6834 H   0  0  0  0  0  0  0  0  0  0  0  0
  148.9525  141.8363  155.3298 H   0  0  0  0  0  0  0  0  0  0  0  0
  150.0334  139.2236  156.4724 H   0  0  0  0  0  0  0  0  0  0  0  0
  151.2198  141.9857  155.5524 H   0  0  0  0  0  0  0  0  0  0  0  0
  151.3931  141.2631  157.2343 H   0  0  0  0  0  0  0  0  0  0  0  0
  152.5897  139.2810  156.2671 H   0  0  0  0  0  0  0  0  0  0  0  0
  152.4221  139.9961  154.5816 H   0  0  0  0  0  0  0  0  0  0  0  0
  148.3656  138.6016  155.0491 H   0  0  0  0  0  0  0  0  0  0  0  0
  149.3580  138.1192  153.6706 H   0  0  0  0  0  0  0  0  0  0  0  0
  147.3120  135.3566  151.7415 H   0  0  0  0  0  0  0  0  0  0  0  0
  147.5279  133.2818  150.9367 H   0  0  0  0  0  0  0  0  0  0  0  0
  146.4885  131.1591  150.1393 H   0  0  0  0  0  0  0  0  0  0  0  0
  143.9838  130.9756  150.0934 H   0  0  0  0  0  0  0  0  0  0  0  0
  142.6326  132.9475  150.8567 H   0  0  0  0  0  0  0  0  0  0  0  0
  150.4629  140.0772  153.7175 H   0  0  0  0  0  0  0  0  0  0  0  0
  1  2  2  0  0  0  0
  2  3  1  0  0  0  0
  2 13  1  0  0  0  0
  3  4  1  0  0  0  0
  3 20  1  0  0  0  0
  4  5  1  0  0  0  0
  4 21  1  0  0  0  0
  4 22  1  0  0  0  0
  5 12  1  0  0  0  0
  5  6  1  0  0  0  0
  5 23  1  0  0  0  0
  6  7  1  0  0  0  0
  6 24  1  0  0  0  0
  6 25  1  0  0  0  0
  7  8  1  0  0  0  0
  7 26  1  0  0  0  0
  7 27  1  0  0  0  0
  8  9  1  0  0  0  0
  8 12  1  0  0  0  0
  8 40  1  0  0  0  0
  9 11  1  0  0  0  0
  9 10  1  0  0  0  0
  9 28  1  0  0  0  0
 10 11  1  0  0  0  0
 10 29  1  0  0  0  0
 10 30  1  0  0  0  0
 11 31  1  0  0  0  0
 11 32  1  0  0  0  0
 12 33  1  0  0  0  0
 12 34  1  0  0  0  0
 13 14  1  0  0  0  0
 13 35  1  0  0  0  0
 14 19  1  0  0  0  0
 14 15  2  0  0  0  0
 15 16  1  0  0  0  0
 15 36  1  0  0  0  0
 16 17  2  0  0  0  0
 16 37  1  0  0  0  0
 17 18  1  0  0  0  0
 17 38  1  0  0  0  0
 18 19  2  0  0  0  0
 18 39  1  0  0  0  0
M  CHG  1   8   1
M  END
> <s_m_source_file>
AV-unprocessed.smi

> <i_m_source_file_index>
1042

> <i_lp_mmshare_version>
43012

> <i_f3d_flags>
0

> <s_epik_input>
bjFbY0hdW2NIXVtjSF1bY0hdYzFbTkhdQyg9TylbTkhdW0NIMl1bQ0BASF0yW0NIMl1bQ0gyXU4oW0NIMl0yKVtDSF0zW0NIMl1bQ0gyXTM=

> <s_epik_cmdline>
J2VwaWtfcHl0aG9uJywgJy1waCcsICc3LjAnLCAnLXRuJywgJzgnLCAnLW1hJywgJzIwMCcsICctbWV0YWxfYmluZGluZycsICctaW1hZScsICc8aW5maWxlLm1hZT4nLCAnLW9tYWUnLCAnPG91dGZpbGUubWFlPic=

> <r_lp_tautomer_probability>
1

> <r_epik_Ionization_Penalty>
0.000244736

> <r_epik_Ionization_Penalty_Charging>
0.000203384

> <r_epik_Ionization_Penalty_Neutral>
4.13519e-05

> <r_epik_State_Penalty>
-0

> <r_epik_Charging_Adjusted_Penalty>
0.000203384

> <i_epik_Tot_Q>
1

> <i_epik_Tot_abs_Q>
1

> <r_epik_Metal_State_Penalty>
-0

> <b_epik_Metal_Only>
0

> <s_lp_Force_Field>
OPLS_2005

> <r_lp_Energy>
38.0464

> <b_lp_Chiralities_Consistent>
1

> <s_lp_Variant>
AV-unprocessed.smi:1042-4

> <Gold.Version>
5.8.1

> <Gold.Id.Protein>
6NUR|6NUR_protein|mol2

> <Gold.PLP.Fitness>
44.7611

> <Gold.PLP.PLP>
-36.2553

> <Gold.PLP.part.hbond>
-2.0783

> <Gold.PLP.part.metal>
0.0000

> <Gold.PLP.part.buried>
-1.9467

> <Gold.PLP.part.nonpolar>
-32.8439

> <Gold.PLP.part.repulsive>
0.7518

> <Gold.PLP.ligand.clash>
0.0000

> <Gold.PLP.ligand.torsion>
0.8352

> <Gold.PLP.Chemscore.Hbond>
1.9920

> <Gold.PLP.Chemscore.CHOScore>
0.9769

> <Gold.PLP.Chemscore.Metal>
0.0000

> <Gold.Chemscore.Hbonds>
donor molecule, donor type, donor heavy atom, donor atom, acceptor molecule, acceptor atom, score
      L1  H     3    20       P1  7948  1.00
      L1  H    13    35       P1  7948  0.99
      L1  C    18    39       P1 10186  0.93

> <Gold.PLP.Chemscore.Internal.Correction>
1.2694

> <Gold.Rescore>
     Score         DG    S(hbond)    S(metal)    S(lipo)     H(rot)  DE(clash)    DE(int)     intcor
     16.30     -18.39       1.96        0.00      86.62       1.47       0.02       2.08       ----

> <Gold.Chemscore.Fitness>
16.2959

> <Gold.Chemscore.DG>
-18.3915

> <Gold.Chemscore.ZeroCoef>
-5.4800

> <Gold.Chemscore.Hbond>
1.9586

> <Gold.Chemscore.Metal>
0.0000

> <Gold.Chemscore.Lipo>
86.6212

> <Gold.Chemscore.Internal_Hbond>
0.0000

> <Gold.Chemscore.DEClash>
0.0159

> <Gold.Chemscore.DEInternal>
2.0797

> <Gold.Chemscore.Rot>
1.4707

> <Gold.Chemscore.Internal.Correction>
   9.000000E+99

> <Gold.Chemscore.Hbonds>
donor molecule, donor type, donor heavy atom, donor atom, acceptor molecule, acceptor atom, score
      L1  H     3    20       P1  7948  0.98
      L1  H    13    35       P1  7948  0.92

> <Gold.Chemscore.Hbond.Weighted>
-6.5418

> <Gold.Chemscore.Metal.Weighted>
-0.0000

> <Gold.Chemscore.Lipo.Weighted>
-10.1347

> <Gold.Chemscore.Internal_Hbond.Weighted>
0.0000

> <Gold.Chemscore.DEClash.Weighted>
0.0159

> <Gold.Chemscore.DEInternal.Weighted>
2.0797

> <Gold.Chemscore.Rot.Weighted>
3.7650

> <Gold.Chemscore.Internal.Correction.Weighted>
   9.000000E+99

> <Gold.Protein.RotatedTorsions>
[ 6907 6896 6895 6894 ] final  178.38 input  -60.11 | X-H torsion
[ 7974 7965 7964 7962 ] final    6.62 input  175.53 | X-H torsion
[ 8008 7997 7996 7995 ] final  -38.15 input   59.86 | X-H torsion
[ 10167 10162 10161 10158 ] final  -68.18 input  -65.29 | X-H torsion
[ 10718 10713 10712 10709 ] final -141.89 input   66.30 | X-H torsion
[ 10763 10752 10751 10750 ] final   26.53 input  -60.55 | X-H torsion
[ 11005 11000 10999 10996 ] final  -45.55 input  -57.11 | X-H torsion

> <Gold.Protein.ActiveResidues>
 VAL166  LYS551  ARG553  GLY616  TRP617  ASP618  TYR619  PRO620  LYS621  CYS622 
 ASP623  PHE694  ASN695  SER759  ASP760  ASP761  ALA762  ILE779  LEU786  VAL792 
 PHE793  MET794  SER795  GLU796  ALA797  LYS798  CYS799  TRP800  GLU811  SER814 

> <Gold.Protein.RotatedAtoms>
  151.6888  133.3311  159.3237 H   0  0  0  0  0  0  0  0  0  0  0  0  # atno 6907 bound_to 6896
  150.7788  134.6716  159.6404 H   0  0  0  0  0  0  0  0  0  0  0  0  # atno 6908 bound_to 6896
  152.3839  134.6550  160.0185 H   0  0  0  0  0  0  0  0  0  0  0  0  # atno 6909 bound_to 6896
  146.2433  140.0206  142.8398 H   0  0  0  0  0  0  0  0  0  0  0  0  # atno 7974 bound_to 7965
  154.4041  140.1585  156.2653 H   0  0  0  0  0  0  0  0  0  0  0  0  # atno 8008 bound_to 7997
  155.9001  140.3433  155.5998 H   0  0  0  0  0  0  0  0  0  0  0  0  # atno 8009 bound_to 7997
  155.7458  140.0798  157.2215 H   0  0  0  0  0  0  0  0  0  0  0  0  # atno 8010 bound_to 7997
  140.5527  143.2312  151.6881 H   0  0  0  0  0  0  0  0  0  0  0  0  # atno 10167 bound_to 10162
  156.3394  130.7629  151.1762 H   0  0  0  0  0  0  0  0  0  0  0  0  # atno 10718 bound_to 10713
  153.0617  135.6558  154.0448 H   0  0  0  0  0  0  0  0  0  0  0  0  # atno 10763 bound_to 10752
  154.0115  135.2928  155.3393 H   0  0  0  0  0  0  0  0  0  0  0  0  # atno 10764 bound_to 10752
  154.6957  135.5265  153.8523 H   0  0  0  0  0  0  0  0  0  0  0  0  # atno 10765 bound_to 10752
  141.0523  133.6738  156.3029 H   0  0  0  0  0  0  0  0  0  0  0  0  # atno 11005 bound_to 11000
  145.1244  140.9481  143.4581 LP  0  0  0  0  0  0  0  0  0  0  0  0  # atno 17320 bound_to 7965
  145.0449  139.3229  143.5958 LP  0  0  0  0  0  0  0  0  0  0  0  0  # atno 17321 bound_to 7965
  139.5034  144.3792  152.0393 LP  0  0  0  0  0  0  0  0  0  0  0  0  # atno 17342 bound_to 10162
  140.2911  144.3753  150.6088 LP  0  0  0  0  0  0  0  0  0  0  0  0  # atno 17343 bound_to 10162
  157.7444  131.0459  150.4865 LP  0  0  0  0  0  0  0  0  0  0  0  0  # atno 17370 bound_to 10713
  156.5043  130.4124  149.6336 LP  0  0  0  0  0  0  0  0  0  0  0  0  # atno 17371 bound_to 10713
  140.6032  134.5534  157.5521 LP  0  0  0  0  0  0  0  0  0  0  0  0  # atno 17394 bound_to 11000
  139.9360  134.7874  156.0801 LP  0  0  0  0  0  0  0  0  0  0  0  0  # atno 17395 bound_to 11000

$$$$
