AV-unprocessed.smi:1406|AV-procd|sdf|5709|dock4
  -GOLD-   22720 5343D 1   1.00000     0.00000
 Structure written by MMmdl.
 41 43  0  0  0  0  0  0  0  0  2 V2000
  149.5299  137.4455  154.9733 C   0  0  0  0  0  0  0  0  0  0  0  0
  150.4472  136.2509  155.3051 C   0  0  2  0  0  0  0  0  0  0  0  0
  149.6901  134.9144  155.3430 C   0  0  0  0  0  0  0  0  0  0  0  0
  149.6485  134.2435  156.3747 O   0  0  0  0  0  0  0  0  0  0  0  0
  149.0951  134.5376  154.2000 N   0  0  0  0  0  0  0  0  0  0  0  0
  148.3481  133.2988  154.0049 C   0  0  2  0  0  0  0  0  0  0  0  0
  149.2347  132.0592  154.0234 C   0  0  0  0  0  0  0  0  0  0  0  0
  148.3540  131.0227  153.3244 C   0  0  0  0  0  0  0  0  0  0  0  0
  147.5818  131.7692  152.3055 N   0  3  1  0  0  0  0  0  0  0  0  0
  146.2145  131.2486  152.0604 C   0  0  0  0  0  0  0  0  0  0  0  0
  145.5023  132.0869  150.9836 C   0  0  0  0  0  0  0  0  0  0  0  0
  145.5393  133.6015  151.2755 C   0  0  0  0  0  0  0  0  0  0  0  0
  146.2995  133.9346  152.5688 C   0  0  0  0  0  0  0  0  0  0  0  0
  147.6707  133.2228  152.6251 C   0  0  1  0  0  0  0  0  0  0  0  0
  151.1805  136.4473  156.5495 N   0  0  0  0  0  0  0  0  0  0  0  0
  150.7293  136.5831  157.7985 C   0  0  0  0  0  0  0  0  0  0  0  0
  151.6814  136.7987  158.6951 N   0  0  0  0  0  0  0  0  0  0  0  0
  152.7733  136.7934  157.8741 C   0  0  0  0  0  0  0  0  0  0  0  0
  152.5282  136.5991  156.5785 N   0  0  0  0  0  0  0  0  0  0  0  0
  149.0301  137.3025  154.0147 H   0  0  0  0  0  0  0  0  0  0  0  0
  150.1060  138.3689  154.9053 H   0  0  0  0  0  0  0  0  0  0  0  0
  148.7578  137.5945  155.7291 H   0  0  0  0  0  0  0  0  0  0  0  0
  151.1874  136.1840  154.5056 H   0  0  0  0  0  0  0  0  0  0  0  0
  149.1794  135.1497  153.4012 H   0  0  0  0  0  0  0  0  0  0  0  0
  147.5992  133.1817  154.7915 H   0  0  0  0  0  0  0  0  0  0  0  0
  150.1431  132.2291  153.4432 H   0  0  0  0  0  0  0  0  0  0  0  0
  149.5255  131.7578  155.0303 H   0  0  0  0  0  0  0  0  0  0  0  0
  148.9339  130.2168  152.8741 H   0  0  0  0  0  0  0  0  0  0  0  0
  147.6749  130.5777  154.0537 H   0  0  0  0  0  0  0  0  0  0  0  0
  146.2750  130.2070  151.7430 H   0  0  0  0  0  0  0  0  0  0  0  0
  145.6403  131.2613  152.9883 H   0  0  0  0  0  0  0  0  0  0  0  0
  145.9718  131.8999  150.0168 H   0  0  0  0  0  0  0  0  0  0  0  0
  144.4692  131.7524  150.8838 H   0  0  0  0  0  0  0  0  0  0  0  0
  146.0136  134.1150  150.4384 H   0  0  0  0  0  0  0  0  0  0  0  0
  144.5248  133.9970  151.3351 H   0  0  0  0  0  0  0  0  0  0  0  0
  146.4316  135.0136  152.6497 H   0  0  0  0  0  0  0  0  0  0  0  0
  145.6919  133.6419  153.4264 H   0  0  0  0  0  0  0  0  0  0  0  0
  148.3295  133.6570  151.8711 H   0  0  0  0  0  0  0  0  0  0  0  0
  149.6821  136.5281  158.0570 H   0  0  0  0  0  0  0  0  0  0  0  0
  153.7777  136.9451  158.2411 H   0  0  0  0  0  0  0  0  0  0  0  0
  148.0819  131.6596  151.4348 H   0  0  0  0  0  0  0  0  0  0  0  0
  1  2  1  0  0  0  0
  1 20  1  0  0  0  0
  1 21  1  0  0  0  0
  1 22  1  0  0  0  0
  2  3  1  0  0  0  0
  2 15  1  0  0  0  0
  2 23  1  0  0  0  0
  3  4  2  0  0  0  0
  3  5  1  0  0  0  0
  5  6  1  0  0  0  0
  5 24  1  0  0  0  0
  6 14  1  0  0  0  0
  6  7  1  0  0  0  0
  6 25  1  0  0  0  0
  7  8  1  0  0  0  0
  7 26  1  0  0  0  0
  7 27  1  0  0  0  0
  8  9  1  0  0  0  0
  8 28  1  0  0  0  0
  8 29  1  0  0  0  0
  9 14  1  0  0  0  0
  9 10  1  0  0  0  0
  9 41  1  0  0  0  0
 10 11  1  0  0  0  0
 10 30  1  0  0  0  0
 10 31  1  0  0  0  0
 11 12  1  0  0  0  0
 11 32  1  0  0  0  0
 11 33  1  0  0  0  0
 12 13  1  0  0  0  0
 12 34  1  0  0  0  0
 12 35  1  0  0  0  0
 13 14  1  0  0  0  0
 13 36  1  0  0  0  0
 13 37  1  0  0  0  0
 14 38  1  0  0  0  0
 15 19  1  0  0  0  0
 15 16  1  0  0  0  0
 16 17  2  0  0  0  0
 16 39  1  0  0  0  0
 17 18  1  0  0  0  0
 18 19  2  0  0  0  0
 18 40  1  0  0  0  0
M  CHG  1   9   1
M  END
> <s_m_source_file>
AV-unprocessed.smi

> <i_m_source_file_index>
1406

> <i_lp_mmshare_version>
43012

> <i_f3d_flags>
0

> <s_epik_input>
bjFbY0hdbltjSF1uMVtDQEhdKFtDSDNdKUMoPU8pW05IXVtDQEhdKFtDSDJdW0NIMl0yKVtDQEBIXShOMjMpW0NIMl1bQ0gyXVtDSDJdW0NIMl0z

> <s_epik_cmdline>
J2VwaWtfcHl0aG9uJywgJy1waCcsICc3LjAnLCAnLXRuJywgJzgnLCAnLW1hJywgJzIwMCcsICctbWV0YWxfYmluZGluZycsICctaW1hZScsICc8aW5maWxlLm1hZT4nLCAnLW9tYWUnLCAnPG91dGZpbGUubWFlPic=

> <r_lp_tautomer_probability>
1

> <r_epik_Ionization_Penalty>
0.00197066

> <r_epik_Ionization_Penalty_Charging>
0.00196223

> <r_epik_Ionization_Penalty_Neutral>
8.43107e-06

> <r_epik_State_Penalty>
0.00133866

> <r_epik_Charging_Adjusted_Penalty>
0.00330089

> <i_epik_Tot_Q>
1

> <i_epik_Tot_abs_Q>
1

> <r_epik_Metal_State_Penalty>
-0

> <b_epik_Metal_Only>
0

> <s_lp_Force_Field>
OPLS_2005

> <r_lp_Energy>
45.3265

> <b_lp_Chiralities_Consistent>
1

> <s_lp_Variant>
AV-unprocessed.smi:1406-1

> <Gold.Version>
5.8.1

> <Gold.Id.Protein>
6NUR|6NUR_protein|mol2

> <Gold.PLP.Fitness>
38.7028

> <Gold.PLP.PLP>
-27.5690

> <Gold.PLP.part.hbond>
-4.0000

> <Gold.PLP.part.metal>
0.0000

> <Gold.PLP.part.buried>
-4.0925

> <Gold.PLP.part.nonpolar>
-21.0404

> <Gold.PLP.part.repulsive>
0.0114

> <Gold.PLP.ligand.clash>
0.0000

> <Gold.PLP.ligand.torsion>
0.1420

> <Gold.PLP.Chemscore.Hbond>
3.7717

> <Gold.PLP.Chemscore.CHOScore>
0.0000

> <Gold.PLP.Chemscore.Metal>
0.0000

> <Gold.Chemscore.Hbonds>
donor molecule, donor type, donor heavy atom, donor atom, acceptor molecule, acceptor atom, score
      L1  H     5    24       P1  7948  0.95
      L1  H     9    41       P1 10747  1.00
      P1  H  6896  6907       L1    17  0.76
      P1  H 10752 10765       L1    19  1.00

> <Gold.PLP.Chemscore.Internal.Correction>
0.1028

> <Gold.Rescore>
     Score         DG    S(hbond)    S(metal)    S(lipo)     H(rot)  DE(clash)    DE(int)     intcor
     15.53     -17.18       3.03        0.00      54.75       1.89       0.29       1.36       ----

> <Gold.Chemscore.Fitness>
15.5333

> <Gold.Chemscore.DG>
-17.1847

> <Gold.Chemscore.ZeroCoef>
-5.4800

> <Gold.Chemscore.Hbond>
3.0324

> <Gold.Chemscore.Metal>
0.0000

> <Gold.Chemscore.Lipo>
54.7537

> <Gold.Chemscore.Internal_Hbond>
0.0000

> <Gold.Chemscore.DEClash>
0.2946

> <Gold.Chemscore.DEInternal>
1.3568

> <Gold.Chemscore.Rot>
1.8865

> <Gold.Chemscore.Internal.Correction>
   9.000000E+99

> <Gold.Chemscore.Hbonds>
donor molecule, donor type, donor heavy atom, donor atom, acceptor molecule, acceptor atom, score
      L1  H     5    24       P1  7948  0.22
      L1  H     9    41       P1 10747  0.98
      P1  H  6896  6907       L1    17  0.23
      P1  H 10752 10765       L1    19  0.76

> <Gold.Chemscore.Hbond.Weighted>
-10.1281

> <Gold.Chemscore.Metal.Weighted>
-0.0000

> <Gold.Chemscore.Lipo.Weighted>
-6.4062

> <Gold.Chemscore.Internal_Hbond.Weighted>
0.0000

> <Gold.Chemscore.DEClash.Weighted>
0.2946

> <Gold.Chemscore.DEInternal.Weighted>
1.3568

> <Gold.Chemscore.Rot.Weighted>
4.8295

> <Gold.Chemscore.Internal.Correction.Weighted>
   9.000000E+99

> <Gold.Protein.RotatedTorsions>
[ 6907 6896 6895 6894 ] final   -6.82 input  -60.11 | X-H torsion
[ 7974 7965 7964 7962 ] final -147.57 input  175.53 | X-H torsion
[ 8008 7997 7996 7995 ] final   14.09 input   59.86 | X-H torsion
[ 10167 10162 10161 10158 ] final  125.35 input  -65.29 | X-H torsion
[ 10718 10713 10712 10709 ] final  132.05 input   66.30 | X-H torsion
[ 10763 10752 10751 10750 ] final -131.54 input  -60.55 | X-H torsion
[ 11005 11000 10999 10996 ] final  -14.66 input  -57.11 | X-H torsion

> <Gold.Protein.ActiveResidues>
 VAL166  LYS551  ARG553  GLY616  TRP617  ASP618  TYR619  PRO620  LYS621  CYS622 
 ASP623  PHE694  ASN695  SER759  ASP760  ASP761  ALA762  ILE779  LEU786  VAL792 
 PHE793  MET794  SER795  GLU796  ALA797  LYS798  CYS799  TRP800  GLU811  SER814 

> <Gold.Protein.RotatedAtoms>
  151.4594  135.1037  159.9720 H   0  0  0  0  0  0  0  0  0  0  0  0  # atno 6907 bound_to 6896
  152.4858  133.8367  159.7142 H   0  0  0  0  0  0  0  0  0  0  0  0  # atno 6908 bound_to 6896
  150.8967  133.7111  159.2917 H   0  0  0  0  0  0  0  0  0  0  0  0  # atno 6909 bound_to 6896
  144.8085  140.5310  143.5659 H   0  0  0  0  0  0  0  0  0  0  0  0  # atno 7974 bound_to 7965
  154.8436  140.2918  155.5643 H   0  0  0  0  0  0  0  0  0  0  0  0  # atno 8008 bound_to 7997
  156.3013  140.2509  156.3315 H   0  0  0  0  0  0  0  0  0  0  0  0  # atno 8009 bound_to 7997
  154.9098  140.0389  157.1929 H   0  0  0  0  0  0  0  0  0  0  0  0  # atno 8010 bound_to 7997
  139.5690  144.6928  151.3830 H   0  0  0  0  0  0  0  0  0  0  0  0  # atno 10167 bound_to 10162
  157.4908  131.1090  150.9558 H   0  0  0  0  0  0  0  0  0  0  0  0  # atno 10718 bound_to 10713
  154.8750  135.3827  154.4263 H   0  0  0  0  0  0  0  0  0  0  0  0  # atno 10763 bound_to 10752
  153.4961  135.7030  153.5862 H   0  0  0  0  0  0  0  0  0  0  0  0  # atno 10764 bound_to 10752
  153.4215  135.3900  155.2081 H   0  0  0  0  0  0  0  0  0  0  0  0  # atno 10765 bound_to 10752
  140.7886  133.8305  155.9359 H   0  0  0  0  0  0  0  0  0  0  0  0  # atno 11005 bound_to 11000
  145.5381  139.1475  143.3462 LP  0  0  0  0  0  0  0  0  0  0  0  0  # atno 17320 bound_to 7965
  146.2380  140.5521  142.8946 LP  0  0  0  0  0  0  0  0  0  0  0  0  # atno 17321 bound_to 7965
  140.6974  143.7715  150.7349 LP  0  0  0  0  0  0  0  0  0  0  0  0  # atno 17342 bound_to 10162
  140.1215  143.4607  152.2310 LP  0  0  0  0  0  0  0  0  0  0  0  0  # atno 17343 bound_to 10162
  157.0261  130.5693  149.5337 LP  0  0  0  0  0  0  0  0  0  0  0  0  # atno 17370 bound_to 10713
  156.0172  130.5267  150.8171 LP  0  0  0  0  0  0  0  0  0  0  0  0  # atno 17371 bound_to 10713
  140.9411  134.1899  157.4796 LP  0  0  0  0  0  0  0  0  0  0  0  0  # atno 17394 bound_to 11000
  139.8734  134.9872  156.5358 LP  0  0  0  0  0  0  0  0  0  0  0  0  # atno 17395 bound_to 11000

$$$$
