AV-unprocessed.smi:2976|AV-procd|sdf|11364|dock2
  -GOLD-   2272016283D 1   1.00000     0.00000
 Structure written by MMmdl.
 40 41  0  0  0  0  0  0  0  0  1 V2000
  151.3026  145.3000  159.9435 C   0  0  0  0  0  0  0  0  0  0  0  0
  152.1377  144.0223  159.7374 C   0  0  1  0  0  0  0  0  0  0  0  0
  152.1808  143.2193  161.0530 C   0  0  0  0  0  0  0  0  0  0  0  0
  153.0231  141.9459  160.9198 C   0  0  0  0  0  0  0  0  0  0  0  0
  152.4916  141.0645  159.7857 C   0  0  0  0  0  0  0  0  0  0  0  0
  152.4541  141.8299  158.4511 C   0  0  1  0  0  0  0  0  0  0  0  0
  151.8963  140.9464  157.4268 N   0  0  0  0  0  0  0  0  0  0  0  0
  152.3003  139.6950  157.1575 C   0  0  0  0  0  0  0  0  0  0  0  0
  153.2171  139.1343  157.7599 O   0  0  0  0  0  0  0  0  0  0  0  0
  151.5484  138.9868  156.0201 C   0  0  0  0  0  0  0  0  0  0  0  0
  150.3320  139.6899  155.5851 N   0  0  0  0  0  0  0  0  0  0  0  0
  150.5494  141.0001  155.1958 N   0  0  0  0  0  0  0  0  0  0  0  0
  149.5593  141.7101  154.7766 C   0  0  0  0  0  0  0  0  0  0  0  0
  148.2136  141.1861  154.6994 C   0  0  0  0  0  0  0  0  0  0  0  0
  146.9254  142.1865  154.1274 Cl  0  0  0  0  0  0  0  0  0  0  0  0
  148.0099  139.9026  155.0898 C   0  0  0  0  0  0  0  0  0  0  0  0
  146.4269  139.2063  155.0286 Cl  0  0  0  0  0  0  0  0  0  0  0  0
  149.1149  139.0633  155.5735 C   0  0  0  0  0  0  0  0  0  0  0  0
  148.9711  137.8953  155.9369 O   0  0  0  0  0  0  0  0  0  0  0  0
  151.6311  143.1434  158.5579 C   0  0  2  0  0  0  0  0  0  0  0  0
  151.6391  143.9143  157.2193 C   0  0  0  0  0  0  0  0  0  0  0  0
  150.2467  145.0654  160.0812 H   0  0  0  0  0  0  0  0  0  0  0  0
  151.3891  145.9847  159.1006 H   0  0  0  0  0  0  0  0  0  0  0  0
  151.6369  145.8472  160.8255 H   0  0  0  0  0  0  0  0  0  0  0  0
  153.1587  144.3336  159.5105 H   0  0  0  0  0  0  0  0  0  0  0  0
  152.5909  143.8371  161.8531 H   0  0  0  0  0  0  0  0  0  0  0  0
  151.1672  142.9549  161.3577 H   0  0  0  0  0  0  0  0  0  0  0  0
  154.0639  142.2090  160.7270 H   0  0  0  0  0  0  0  0  0  0  0  0
  153.0108  141.3917  161.8587 H   0  0  0  0  0  0  0  0  0  0  0  0
  153.1174  140.1761  159.6902 H   0  0  0  0  0  0  0  0  0  0  0  0
  151.4909  140.7117  160.0400 H   0  0  0  0  0  0  0  0  0  0  0  0
  153.4808  142.0993  158.1959 H   0  0  0  0  0  0  0  0  0  0  0  0
  151.1389  141.3221  156.8748 H   0  0  0  0  0  0  0  0  0  0  0  0
  152.2284  138.8497  155.1773 H   0  0  0  0  0  0  0  0  0  0  0  0
  151.2953  137.9791  156.3554 H   0  0  0  0  0  0  0  0  0  0  0  0
  149.6836  142.7451  154.4577 H   0  0  0  0  0  0  0  0  0  0  0  0
  150.5962  142.8693  158.7705 H   0  0  0  0  0  0  0  0  0  0  0  0
  152.6434  144.2559  156.9670 H   0  0  0  0  0  0  0  0  0  0  0  0
  150.9860  144.7853  157.2478 H   0  0  0  0  0  0  0  0  0  0  0  0
  151.2843  143.2986  156.3931 H   0  0  0  0  0  0  0  0  0  0  0  0
  1  2  1  0  0  0  0
  1 22  1  0  0  0  0
  1 23  1  0  0  0  0
  1 24  1  0  0  0  0
  2 20  1  0  0  0  0
  2  3  1  0  0  0  0
  2 25  1  0  0  0  0
  3  4  1  0  0  0  0
  3 26  1  0  0  0  0
  3 27  1  0  0  0  0
  4  5  1  0  0  0  0
  4 28  1  0  0  0  0
  4 29  1  0  0  0  0
  5  6  1  0  0  0  0
  5 30  1  0  0  0  0
  5 31  1  0  0  0  0
  6  7  1  0  0  0  0
  6 20  1  0  0  0  0
  6 32  1  0  0  0  0
  7  8  1  0  0  0  0
  7 33  1  0  0  0  0
  8  9  2  0  0  0  0
  8 10  1  0  0  0  0
 10 11  1  0  0  0  0
 10 34  1  0  0  0  0
 10 35  1  0  0  0  0
 11 18  1  0  0  0  0
 11 12  1  0  0  0  0
 12 13  2  0  0  0  0
 13 14  1  0  0  0  0
 13 36  1  0  0  0  0
 14 15  1  0  0  0  0
 14 16  2  0  0  0  0
 16 17  1  0  0  0  0
 16 18  1  0  0  0  0
 18 19  2  0  0  0  0
 20 21  1  0  0  0  0
 20 37  1  0  0  0  0
 21 38  1  0  0  0  0
 21 39  1  0  0  0  0
 21 40  1  0  0  0  0
M  END
> <s_m_source_file>
AV-unprocessed.smi

> <i_m_source_file_index>
2976

> <i_lp_mmshare_version>
43012

> <i_f3d_flags>
0

> <s_epik_input>
W0NIM11bQ0BASF0xW0NIMl1bQ0gyXVtDSDJdW0NASF0oW0NASF0xW0NIM10pW05IXUMoPU8pW0NIMl1uMm5bY0hdYyhDbCljKENsKWMyPU8=

> <s_epik_cmdline>
J2VwaWtfcHl0aG9uJywgJy1waCcsICc3LjAnLCAnLXRuJywgJzgnLCAnLW1hJywgJzIwMCcsICctbWV0YWxfYmluZGluZycsICctaW1hZScsICc8aW5maWxlLm1hZT4nLCAnLW9tYWUnLCAnPG91dGZpbGUubWFlPic=

> <r_lp_tautomer_probability>
1

> <r_epik_Ionization_Penalty>
1.90777e-08

> <r_epik_Ionization_Penalty_Charging>
3.07942e-11

> <r_epik_Ionization_Penalty_Neutral>
1.90469e-08

> <r_epik_State_Penalty>
-0

> <r_epik_Charging_Adjusted_Penalty>
3.07942e-11

> <i_epik_Tot_Q>
0

> <i_epik_Tot_abs_Q>
0

> <r_epik_Metal_State_Penalty>
-0

> <b_epik_Metal_Only>
0

> <s_lp_Force_Field>
OPLS_2005

> <r_lp_Energy>
26.9637

> <b_lp_Chiralities_Consistent>
1

> <s_lp_Variant>
AV-unprocessed.smi:2976-6

> <Gold.Version>
5.8.1

> <Gold.Id.Protein>
6NUR|6NUR_protein|mol2

> <Gold.PLP.Fitness>
47.4237

> <Gold.PLP.PLP>
-39.7604

> <Gold.PLP.part.hbond>
-2.0000

> <Gold.PLP.part.metal>
0.0000

> <Gold.PLP.part.buried>
-1.3772

> <Gold.PLP.part.nonpolar>
-34.9873

> <Gold.PLP.part.repulsive>
0.2127

> <Gold.PLP.ligand.clash>
0.0000

> <Gold.PLP.ligand.torsion>
0.1913

> <Gold.PLP.Chemscore.Hbond>
1.7137

> <Gold.PLP.Chemscore.CHOScore>
0.9655

> <Gold.PLP.Chemscore.Metal>
0.0000

> <Gold.Chemscore.Hbonds>
donor molecule, donor type, donor heavy atom, donor atom, acceptor molecule, acceptor atom, score
      P1  H  7989  7998       L1    12  0.68
      P1  H  7997  8008       L1     9  1.00
      L1  C    13    36       P1  8028  0.94

> <Gold.PLP.Chemscore.Internal.Correction>
0.0083

> <Gold.Rescore>
     Score         DG    S(hbond)    S(metal)    S(lipo)     H(rot)  DE(clash)    DE(int)     intcor
     16.97     -20.05       1.48        0.00     114.92       1.49       0.34       2.74       ----

> <Gold.Chemscore.Fitness>
16.9672

> <Gold.Chemscore.DG>
-20.0515

> <Gold.Chemscore.ZeroCoef>
-5.4800

> <Gold.Chemscore.Hbond>
1.4765

> <Gold.Chemscore.Metal>
0.0000

> <Gold.Chemscore.Lipo>
114.9197

> <Gold.Chemscore.Internal_Hbond>
0.0000

> <Gold.Chemscore.DEClash>
0.3405

> <Gold.Chemscore.DEInternal>
2.7438

> <Gold.Chemscore.Rot>
1.4866

> <Gold.Chemscore.Internal.Correction>
   9.000000E+99

> <Gold.Chemscore.Hbonds>
donor molecule, donor type, donor heavy atom, donor atom, acceptor molecule, acceptor atom, score
      P1  H  7989  7998       L1    12  0.08
      P1  H  7997  8008       L1     9  0.34

> <Gold.Chemscore.Hbond.Weighted>
-4.9315

> <Gold.Chemscore.Metal.Weighted>
-0.0000

> <Gold.Chemscore.Lipo.Weighted>
-13.4456

> <Gold.Chemscore.Internal_Hbond.Weighted>
0.0000

> <Gold.Chemscore.DEClash.Weighted>
0.3405

> <Gold.Chemscore.DEInternal.Weighted>
2.7438

> <Gold.Chemscore.Rot.Weighted>
3.8057

> <Gold.Chemscore.Internal.Correction.Weighted>
   9.000000E+99

> <Gold.Protein.RotatedTorsions>
[ 6907 6896 6895 6894 ] final  126.95 input  -60.11 | X-H torsion
[ 7974 7965 7964 7962 ] final  154.56 input  175.53 | X-H torsion
[ 8008 7997 7996 7995 ] final  -93.61 input   59.86 | X-H torsion
[ 10167 10162 10161 10158 ] final  113.59 input  -65.29 | X-H torsion
[ 10718 10713 10712 10709 ] final  117.75 input   66.30 | X-H torsion
[ 10763 10752 10751 10750 ] final   88.35 input  -60.55 | X-H torsion
[ 11005 11000 10999 10996 ] final  123.89 input  -57.11 | X-H torsion

> <Gold.Protein.ActiveResidues>
 VAL166  LYS551  ARG553  GLY616  TRP617  ASP618  TYR619  PRO620  LYS621  CYS622 
 ASP623  PHE694  ASN695  SER759  ASP760  ASP761  ALA762  ILE779  LEU786  VAL792 
 PHE793  MET794  SER795  GLU796  ALA797  LYS798  CYS799  TRP800  GLU811  SER814 

> <Gold.Protein.RotatedAtoms>
  152.3857  133.6608  159.6196 H   0  0  0  0  0  0  0  0  0  0  0  0  # atno 6907 bound_to 6896
  150.7777  133.9039  159.3358 H   0  0  0  0  0  0  0  0  0  0  0  0  # atno 6908 bound_to 6896
  151.6836  135.0959  160.0272 H   0  0  0  0  0  0  0  0  0  0  0  0  # atno 6909 bound_to 6896
  144.8081  139.6950  143.6153 H   0  0  0  0  0  0  0  0  0  0  0  0  # atno 7974 bound_to 7965
  154.7379  140.0497  157.0785 H   0  0  0  0  0  0  0  0  0  0  0  0  # atno 8008 bound_to 7997
  155.0216  140.3147  155.4772 H   0  0  0  0  0  0  0  0  0  0  0  0  # atno 8009 bound_to 7997
  156.2857  140.2166  156.5335 H   0  0  0  0  0  0  0  0  0  0  0  0  # atno 8010 bound_to 7997
  139.6450  144.7126  151.2160 H   0  0  0  0  0  0  0  0  0  0  0  0  # atno 10167 bound_to 10162
  157.6076  131.1040  150.7659 H   0  0  0  0  0  0  0  0  0  0  0  0  # atno 10718 bound_to 10713
  153.1760  135.4510  154.9966 H   0  0  0  0  0  0  0  0  0  0  0  0  # atno 10763 bound_to 10752
  154.7998  135.3251  154.7580 H   0  0  0  0  0  0  0  0  0  0  0  0  # atno 10764 bound_to 10752
  153.8050  135.6959  153.4904 H   0  0  0  0  0  0  0  0  0  0  0  0  # atno 10765 bound_to 10752
  139.9333  134.9640  156.8328 H   0  0  0  0  0  0  0  0  0  0  0  0  # atno 11005 bound_to 11000
  146.2375  139.5935  142.9514 LP  0  0  0  0  0  0  0  0  0  0  0  0  # atno 17320 bound_to 7965
  145.5390  141.0422  143.2341 LP  0  0  0  0  0  0  0  0  0  0  0  0  # atno 17321 bound_to 7965
  140.7510  143.6246  150.8481 LP  0  0  0  0  0  0  0  0  0  0  0  0  # atno 17342 bound_to 10162
  139.9888  143.5870  152.2917 LP  0  0  0  0  0  0  0  0  0  0  0  0  # atno 17343 bound_to 10162
  156.8043  130.4931  149.5365 LP  0  0  0  0  0  0  0  0  0  0  0  0  # atno 17370 bound_to 10713
  156.1168  130.6080  151.0132 LP  0  0  0  0  0  0  0  0  0  0  0  0  # atno 17371 bound_to 10713
  140.6142  134.0054  155.7590 LP  0  0  0  0  0  0  0  0  0  0  0  0  # atno 17394 bound_to 11000
  141.0934  133.9881  157.3200 LP  0  0  0  0  0  0  0  0  0  0  0  0  # atno 17395 bound_to 11000

$$$$
