AV-unprocessed.smi:35|AV-procd|sdf|248|dock7
  -GOLD-   2262016 13D 1   1.00000     0.00000
 Structure written by MMmdl.
 29 30  0  0  0  0  0  0  0  0  1 V2000
  151.5825  135.6182  155.7250 O   0  0  0  0  0  0  0  0  0  0  0  0
  150.6087  136.3167  155.4524 C   0  0  0  0  0  0  0  0  0  0  0  0
  149.3148  135.7987  155.5630 N   0  0  0  0  0  0  0  0  0  0  0  0
  148.1360  136.4929  155.2818 C   0  0  0  0  0  0  0  0  0  0  0  0
  147.0490  135.9279  155.3943 O   0  0  0  0  0  0  0  0  0  0  0  0
  148.2634  137.8360  154.8608 N   0  0  0  0  0  0  0  0  0  0  0  0
  147.0230  138.6419  154.5392 C   0  0  1  0  0  0  0  0  0  0  0  0
  147.0096  139.7754  155.3535 O   0  0  0  0  0  0  0  0  0  0  0  0
  146.5645  140.8924  154.5947 C   0  0  1  0  0  0  0  0  0  0  0  0
  146.9610  142.2169  155.2709 C   0  0  0  0  0  0  0  0  0  0  0  0
  148.3564  142.2606  155.4802 O   0  0  0  0  0  0  0  0  0  0  0  0
  147.1215  140.6282  153.1883 C   0  0  1  0  0  0  0  0  0  0  0  0
  148.4698  141.0542  153.0819 O   0  0  0  0  0  0  0  0  0  0  0  0
  146.9730  139.1130  153.0680 C   0  0  1  0  0  0  0  0  0  0  0  0
  147.9227  138.5201  152.1971 O   0  0  0  0  0  0  0  0  0  0  0  0
  149.5293  138.3902  154.7273 C   0  0  0  0  0  0  0  0  0  0  0  0
  150.6627  137.7020  154.9984 C   0  0  0  0  0  0  0  0  0  0  0  0
  152.3701  138.6722  154.7396 Br  0  0  0  0  0  0  0  0  0  0  0  0
  149.2262  134.8399  155.8673 H   0  0  0  0  0  0  0  0  0  0  0  0
  146.1624  138.0290  154.8123 H   0  0  0  0  0  0  0  0  0  0  0  0
  145.4751  140.8275  154.5553 H   0  0  0  0  0  0  0  0  0  0  0  0
  146.6875  143.0553  154.6299 H   0  0  0  0  0  0  0  0  0  0  0  0
  146.4393  142.3612  156.2170 H   0  0  0  0  0  0  0  0  0  0  0  0
  148.6621  143.1333  155.2848 H   0  0  0  0  0  0  0  0  0  0  0  0
  146.5440  141.1505  152.4248 H   0  0  0  0  0  0  0  0  0  0  0  0
  148.8886  140.5524  152.3999 H   0  0  0  0  0  0  0  0  0  0  0  0
  145.9747  138.8834  152.6932 H   0  0  0  0  0  0  0  0  0  0  0  0
  148.4360  139.2078  151.8014 H   0  0  0  0  0  0  0  0  0  0  0  0
  149.6263  139.4117  154.3911 H   0  0  0  0  0  0  0  0  0  0  0  0
  1  2  2  0  0  0  0
  2 17  1  0  0  0  0
  2  3  1  0  0  0  0
  3 19  1  0  0  0  0
  3  4  1  0  0  0  0
  4  5  2  0  0  0  0
  4  6  1  0  0  0  0
  6  7  1  0  0  0  0
  6 16  1  0  0  0  0
  7 14  1  0  0  0  0
  7  8  1  0  0  0  0
  7 20  1  0  0  0  0
  8  9  1  0  0  0  0
  9 10  1  0  0  0  0
  9 12  1  0  0  0  0
  9 21  1  0  0  0  0
 10 11  1  0  0  0  0
 10 22  1  0  0  0  0
 10 23  1  0  0  0  0
 11 24  1  0  0  0  0
 12 13  1  0  0  0  0
 12 14  1  0  0  0  0
 12 25  1  0  0  0  0
 13 26  1  0  0  0  0
 14 15  1  0  0  0  0
 14 27  1  0  0  0  0
 15 28  1  0  0  0  0
 16 17  2  0  0  0  0
 16 29  1  0  0  0  0
 17 18  1  0  0  0  0
M  END
> <s_m_source_file>
AV-unprocessed.smi

> <i_m_source_file_index>
35

> <i_lp_mmshare_version>
43012

> <i_f3d_flags>
0

> <s_epik_input>
Tz1jMVtuSF1jKD1PKW4oW2NIXWMxQnIpW0NAQEhdMk9bQ0BASF0oW0NIMl1bT0hdKVtDQEBIXShbT0hdKVtDQEhdMltPSF0=

> <s_epik_cmdline>
J2VwaWtfcHl0aG9uJywgJy1waCcsICc3LjAnLCAnLXRuJywgJzgnLCAnLW1hJywgJzIwMCcsICctbWV0YWxfYmluZGluZycsICctaW1hZScsICc8aW5maWxlLm1hZT4nLCAnLW9tYWUnLCAnPG91dGZpbGUubWFlPic=

> <r_lp_tautomer_probability>
0.999537

> <r_epik_Ionization_Penalty>
0.10812

> <r_epik_Ionization_Penalty_Charging>
0.108119

> <r_epik_Ionization_Penalty_Neutral>
4.93006e-07

> <r_epik_State_Penalty>
0.0979238

> <r_epik_Charging_Adjusted_Penalty>
0.206043

> <i_epik_Tot_Q>
0

> <i_epik_Tot_abs_Q>
0

> <r_epik_Metal_State_Penalty>
3.07911

> <b_epik_Metal_Only>
0

> <s_epik_Chemistry_Notes>
This compound contains an acetal/aminal-like group ( X-CH(R)-Y where X, Y are N, S, or O) that may be acid/base labile, releasing an aldehyde.

> <s_lp_Force_Field>
OPLS_2005

> <r_lp_Energy>
38.9756

> <b_lp_Chiralities_Consistent>
1

> <s_lp_Variant>
AV-unprocessed.smi:35-2

> <Gold.Version>
5.8.1

> <Gold.Id.Protein>
6NUR|6NUR_protein|mol2

> <Gold.PLP.Fitness>
36.2737

> <Gold.PLP.PLP>
-24.2863

> <Gold.PLP.part.hbond>
-5.6825

> <Gold.PLP.part.metal>
0.0000

> <Gold.PLP.part.buried>
-2.9864

> <Gold.PLP.part.nonpolar>
-16.2413

> <Gold.PLP.part.repulsive>
0.1396

> <Gold.PLP.ligand.clash>
0.0000

> <Gold.PLP.ligand.torsion>
0.0133

> <Gold.PLP.Chemscore.Hbond>
4.0000

> <Gold.PLP.Chemscore.CHOScore>
0.0000

> <Gold.PLP.Chemscore.Metal>
0.0000

> <Gold.Chemscore.Hbonds>
donor molecule, donor type, donor heavy atom, donor atom, acceptor molecule, acceptor atom, score
      L1  H    11    24       P1  8028  1.00
      L1  H    13    26       P1  7957  0.96
      L1  H    15    28       P1  7957  1.00
      P1  H 10752 10763       L1     1  1.00

> <Gold.PLP.Chemscore.Internal.Correction>
0.0139

> <Gold.Rescore>
     Score         DG    S(hbond)    S(metal)    S(lipo)     H(rot)  DE(clash)    DE(int)     intcor
     13.89     -14.05       3.97        0.00      40.16       3.67       0.00       0.15       ----

> <Gold.Chemscore.Fitness>
13.8935

> <Gold.Chemscore.DG>
-14.0478

> <Gold.Chemscore.ZeroCoef>
-5.4800

> <Gold.Chemscore.Hbond>
3.9714

> <Gold.Chemscore.Metal>
0.0000

> <Gold.Chemscore.Lipo>
40.1619

> <Gold.Chemscore.Internal_Hbond>
0.0000

> <Gold.Chemscore.DEClash>
0.0000

> <Gold.Chemscore.DEInternal>
0.1543

> <Gold.Chemscore.Rot>
3.6701

> <Gold.Chemscore.Internal.Correction>
   9.000000E+99

> <Gold.Chemscore.Hbonds>
donor molecule, donor type, donor heavy atom, donor atom, acceptor molecule, acceptor atom, score
      L1  H    11    24       P1  8028  0.96
      L1  H    13    26       P1  7957  0.91
      L1  H    15    28       P1  7957  0.92
      P1  H 10752 10763       L1     1  1.00

> <Gold.Chemscore.Hbond.Weighted>
-13.2643

> <Gold.Chemscore.Metal.Weighted>
-0.0000

> <Gold.Chemscore.Lipo.Weighted>
-4.6989

> <Gold.Chemscore.Internal_Hbond.Weighted>
0.0000

> <Gold.Chemscore.DEClash.Weighted>
0.0000

> <Gold.Chemscore.DEInternal.Weighted>
0.1543

> <Gold.Chemscore.Rot.Weighted>
9.3955

> <Gold.Chemscore.Internal.Correction.Weighted>
   9.000000E+99

> <Gold.Protein.RotatedTorsions>
[ 6907 6896 6895 6894 ] final   52.63 input  -60.11 | X-H torsion
[ 7974 7965 7964 7962 ] final  120.98 input  175.53 | X-H torsion
[ 8008 7997 7996 7995 ] final  125.36 input   59.86 | X-H torsion
[ 10167 10162 10161 10158 ] final -170.60 input  -65.29 | X-H torsion
[ 10718 10713 10712 10709 ] final   35.88 input   66.30 | X-H torsion
[ 10763 10752 10751 10750 ] final   81.31 input  -60.55 | X-H torsion
[ 11005 11000 10999 10996 ] final   -0.18 input  -57.11 | X-H torsion

> <Gold.Protein.ActiveResidues>
 VAL166  LYS551  ARG553  GLY616  TRP617  ASP618  TYR619  PRO620  LYS621  CYS622 
 ASP623  PHE694  ASN695  SER759  ASP760  ASP761  ALA762  ILE779  LEU786  VAL792 
 PHE793  MET794  SER795  GLU796  ALA797  LYS798  CYS799  TRP800  GLU811  SER814 

> <Gold.Protein.RotatedAtoms>
  152.3253  134.7328  160.0303 H   0  0  0  0  0  0  0  0  0  0  0  0  # atno 6907 bound_to 6896
  151.7763  133.3340  159.3467 H   0  0  0  0  0  0  0  0  0  0  0  0  # atno 6908 bound_to 6896
  150.7392  134.5903  159.6028 H   0  0  0  0  0  0  0  0  0  0  0  0  # atno 6909 bound_to 6896
  145.1247  139.3366  143.4696 H   0  0  0  0  0  0  0  0  0  0  0  0  # atno 7974 bound_to 7965
  156.2831  140.2718  156.1936 H   0  0  0  0  0  0  0  0  0  0  0  0  # atno 8008 bound_to 7997
  155.0433  140.0386  157.2535 H   0  0  0  0  0  0  0  0  0  0  0  0  # atno 8009 bound_to 7997
  154.7256  140.2696  155.6507 H   0  0  0  0  0  0  0  0  0  0  0  0  # atno 8010 bound_to 7997
  139.5852  144.1335  152.1566 H   0  0  0  0  0  0  0  0  0  0  0  0  # atno 10167 bound_to 10162
  157.3280  130.7483  149.6829 H   0  0  0  0  0  0  0  0  0  0  0  0  # atno 10718 bound_to 10713
  153.1106  135.4770  154.9029 H   0  0  0  0  0  0  0  0  0  0  0  0  # atno 10763 bound_to 10752
  154.7477  135.3098  154.8617 H   0  0  0  0  0  0  0  0  0  0  0  0  # atno 10764 bound_to 10752
  153.9207  135.6855  153.4801 H   0  0  0  0  0  0  0  0  0  0  0  0  # atno 10765 bound_to 10752
  140.6334  133.9554  155.8287 H   0  0  0  0  0  0  0  0  0  0  0  0  # atno 11005 bound_to 11000
  146.3518  140.1222  142.8600 LP  0  0  0  0  0  0  0  0  0  0  0  0  # atno 17320 bound_to 7965
  145.0701  140.9149  143.4887 LP  0  0  0  0  0  0  0  0  0  0  0  0  # atno 17321 bound_to 7965
  140.0897  144.5631  150.7063 LP  0  0  0  0  0  0  0  0  0  0  0  0  # atno 17342 bound_to 10162
  140.7124  143.2516  151.4539 LP  0  0  0  0  0  0  0  0  0  0  0  0  # atno 17343 bound_to 10162
  155.9692  130.4203  150.4418 LP  0  0  0  0  0  0  0  0  0  0  0  0  # atno 17370 bound_to 10713
  157.2445  131.0533  151.2417 LP  0  0  0  0  0  0  0  0  0  0  0  0  # atno 17371 bound_to 10713
  141.0659  134.0278  157.3595 LP  0  0  0  0  0  0  0  0  0  0  0  0  # atno 17394 bound_to 11000
  139.9107  135.0189  156.7680 LP  0  0  0  0  0  0  0  0  0  0  0  0  # atno 17395 bound_to 11000

$$$$
