AV-unprocessed.smi:37|AV-procd|sdf|332|dock4
  -GOLD-   2262016163D 1   1.00000     0.00000
 Structure written by MMmdl.
 43 44  0  0  0  0  0  0  0  0  2 V2000
  144.5802  137.0648  161.4914 C   0  0  0  0  0  0  0  0  0  0  0  0
  144.0278  136.1652  160.3759 C   0  0  0  0  0  0  0  0  0  0  0  0
  144.7324  136.3533  159.0307 C   0  0  0  0  0  0  0  0  0  0  0  0
  144.4172  135.7172  158.0234 O   0  0  0  0  0  0  0  0  0  0  0  0
  145.7037  137.2742  159.1013 O   0  0  0  0  0  0  0  0  0  0  0  0
  146.4857  137.5677  157.9548 C   0  0  0  0  0  0  0  0  0  0  0  0
  147.2451  136.3048  157.5305 C   0  0  1  0  0  0  0  0  0  0  0  0
  147.7055  136.4093  156.1829 O   0  0  0  0  0  0  0  0  0  0  0  0
  148.9905  135.8649  156.0571 C   0  0  1  0  0  0  0  0  0  0  0  0
  149.9847  136.9688  155.7532 N   0  0  0  0  0  0  0  0  0  0  0  0
  149.5741  138.2712  155.5185 C   0  0  0  0  0  0  0  0  0  0  0  0
  150.4640  139.2485  155.2499 C   0  0  0  0  0  0  0  0  0  0  0  0
  150.0338  140.5024  155.0272 F   0  0  0  0  0  0  0  0  0  0  0  0
  151.8908  138.9354  155.2022 C   0  0  0  0  0  0  0  0  0  0  0  0
  152.6975  139.8300  154.9531 O   0  0  0  0  0  0  0  0  0  0  0  0
  152.2681  137.6461  155.4403 N   0  5  0  0  0  0  0  0  0  0  0  0
  151.3715  136.6542  155.7159 C   0  0  0  0  0  0  0  0  0  0  0  0
  151.7047  135.4908  155.9420 O   0  0  0  0  0  0  0  0  0  0  0  0
  149.3320  135.2008  157.3949 C   0  0  2  0  0  0  0  0  0  0  0  0
  148.7198  133.3011  157.3534 Br  0  0  0  0  0  0  0  0  0  0  0  0
  148.4954  136.0214  158.3621 C   0  0  2  0  0  0  0  0  0  0  0  0
  148.1855  135.3164  159.5565 O   0  0  0  0  0  0  0  0  0  0  0  0
  147.7790  135.9826  160.6505 C   0  0  0  0  0  0  0  0  0  0  0  0
  147.6007  137.1978  160.7329 O   0  0  0  0  0  0  0  0  0  0  0  0
  147.5391  135.0602  161.8430 C   0  0  0  0  0  0  0  0  0  0  0  0
  147.1433  135.8379  163.1053 C   0  0  0  0  0  0  0  0  0  0  0  0
  144.0482  136.8860  162.4259 H   0  0  0  0  0  0  0  0  0  0  0  0
  144.4664  138.1209  161.2442 H   0  0  0  0  0  0  0  0  0  0  0  0
  145.6380  136.8708  161.6726 H   0  0  0  0  0  0  0  0  0  0  0  0
  144.1192  135.1193  160.6703 H   0  0  0  0  0  0  0  0  0  0  0  0
  142.9641  136.3616  160.2393 H   0  0  0  0  0  0  0  0  0  0  0  0
  145.8266  137.8955  157.1499 H   0  0  0  0  0  0  0  0  0  0  0  0
  147.1817  138.3812  158.1629 H   0  0  0  0  0  0  0  0  0  0  0  0
  146.5754  135.4436  157.5629 H   0  0  0  0  0  0  0  0  0  0  0  0
  149.0327  135.1934  155.1981 H   0  0  0  0  0  0  0  0  0  0  0  0
  148.5273  138.5279  155.5479 H   0  0  0  0  0  0  0  0  0  0  0  0
  150.4004  135.2116  157.6134 H   0  0  0  0  0  0  0  0  0  0  0  0
  148.9984  136.9665  158.5743 H   0  0  0  0  0  0  0  0  0  0  0  0
  146.7554  134.3474  161.5854 H   0  0  0  0  0  0  0  0  0  0  0  0
  148.4445  134.4819  162.0282 H   0  0  0  0  0  0  0  0  0  0  0  0
  146.9395  135.1538  163.9291 H   0  0  0  0  0  0  0  0  0  0  0  0
  146.2448  136.4331  162.9398 H   0  0  0  0  0  0  0  0  0  0  0  0
  147.9388  136.5115  163.4261 H   0  0  0  0  0  0  0  0  0  0  0  0
  1  2  1  0  0  0  0
  1 27  1  0  0  0  0
  1 28  1  0  0  0  0
  1 29  1  0  0  0  0
  2  3  1  0  0  0  0
  2 30  1  0  0  0  0
  2 31  1  0  0  0  0
  3  4  2  0  0  0  0
  3  5  1  0  0  0  0
  5  6  1  0  0  0  0
  6  7  1  0  0  0  0
  6 32  1  0  0  0  0
  6 33  1  0  0  0  0
  7 21  1  0  0  0  0
  7  8  1  0  0  0  0
  7 34  1  0  0  0  0
  8  9  1  0  0  0  0
  9 10  1  0  0  0  0
  9 19  1  0  0  0  0
  9 35  1  0  0  0  0
 10 17  1  0  0  0  0
 10 11  1  0  0  0  0
 11 12  2  0  0  0  0
 11 36  1  0  0  0  0
 12 13  1  0  0  0  0
 12 14  1  0  0  0  0
 14 15  2  0  0  0  0
 14 16  1  0  0  0  0
 16 17  1  0  0  0  0
 17 18  2  0  0  0  0
 19 20  1  0  0  0  0
 19 21  1  0  0  0  0
 19 37  1  0  0  0  0
 21 22  1  0  0  0  0
 21 38  1  0  0  0  0
 22 23  1  0  0  0  0
 23 24  2  0  0  0  0
 23 25  1  0  0  0  0
 25 26  1  0  0  0  0
 25 39  1  0  0  0  0
 25 40  1  0  0  0  0
 26 41  1  0  0  0  0
 26 42  1  0  0  0  0
 26 43  1  0  0  0  0
M  CHG  1  16  -1
M  END
> <s_m_source_file>
AV-unprocessed.smi

> <i_m_source_file_index>
37

> <i_lp_mmshare_version>
43012

> <i_f3d_flags>
0

> <s_epik_input>
W0NIM11bQ0gyXUMoPU8pT1tDSDJdW0NAQEhdMU9bQ0BASF0objJbY0hdYyhGKWMoPU8pW25IXWMyPU8pW0NAQEhdKEJyKVtDQEhdMU9DKD1PKVtDSDJdW0NIM10=

> <s_epik_cmdline>
J2VwaWtfcHl0aG9uJywgJy1waCcsICc3LjAnLCAnLXRuJywgJzgnLCAnLW1hJywgJzIwMCcsICctbWV0YWxfYmluZGluZycsICctaW1hZScsICc8aW5maWxlLm1hZT4nLCAnLW9tYWUnLCAnPG91dGZpbGUubWFlPic=

> <r_epik_Ionization_Penalty>
1.08158

> <r_epik_Ionization_Penalty_Charging>
9.05154e-09

> <r_epik_Ionization_Penalty_Neutral>
1.08158

> <r_epik_State_Penalty>
1.13706

> <r_epik_Charging_Adjusted_Penalty>
1.13706

> <i_epik_Tot_Q>
-1

> <i_epik_Tot_abs_Q>
1

> <r_epik_Metal_State_Penalty>
0.00343535

> <b_epik_Metal_Only>
0

> <s_epik_Chemistry_Notes>
This compound has an ester and may undergo hydrolysis at high or low pH. This compound contains an acetal/aminal-like group ( X-CH(R)-Y where X, Y are N, S, or O) that may be acid/base labile, releasing an aldehyde.

> <s_lp_Force_Field>
OPLS_2005

> <r_lp_Energy>
34.595

> <b_lp_Chiralities_Consistent>
1

> <s_lp_Variant>
AV-unprocessed.smi:37-30

> <Gold.Version>
5.8.1

> <Gold.Id.Protein>
6NUR|6NUR_protein|mol2

> <Gold.PLP.Fitness>
41.9511

> <Gold.PLP.PLP>
-30.1385

> <Gold.PLP.part.hbond>
-5.8302

> <Gold.PLP.part.metal>
0.0000

> <Gold.PLP.part.buried>
-2.7427

> <Gold.PLP.part.nonpolar>
-21.5016

> <Gold.PLP.part.repulsive>
0.1302

> <Gold.PLP.ligand.clash>
0.0000

> <Gold.PLP.ligand.torsion>
0.4374

> <Gold.PLP.Chemscore.Hbond>
4.1714

> <Gold.PLP.Chemscore.CHOScore>
0.0000

> <Gold.PLP.Chemscore.Metal>
0.0000

> <Gold.Chemscore.Hbonds>
donor molecule, donor type, donor heavy atom, donor atom, acceptor molecule, acceptor atom, score
      P1  H  6931  6943       L1    24  0.61
      P1  H  6934  6947       L1    24  0.98
      P1  H  7989  7998       L1    15  0.49
      P1  H  7997  8008       L1    15  0.94
      P1  H 10752 10763       L1    18  0.95

> <Gold.PLP.Chemscore.Internal.Correction>
0.1733

> <Gold.Rescore>
     Score         DG    S(hbond)    S(metal)    S(lipo)     H(rot)  DE(clash)    DE(int)     intcor
      8.74     -13.24       3.47        0.00      38.83       3.27       0.19       4.31       ----

> <Gold.Chemscore.Fitness>
8.7404

> <Gold.Chemscore.DG>
-13.2426

> <Gold.Chemscore.ZeroCoef>
-5.4800

> <Gold.Chemscore.Hbond>
3.4677

> <Gold.Chemscore.Metal>
0.0000

> <Gold.Chemscore.Lipo>
38.8350

> <Gold.Chemscore.Internal_Hbond>
0.0000

> <Gold.Chemscore.DEClash>
0.1931

> <Gold.Chemscore.DEInternal>
4.3090

> <Gold.Chemscore.Rot>
3.2669

> <Gold.Chemscore.Internal.Correction>
   9.000000E+99

> <Gold.Chemscore.Hbonds>
donor molecule, donor type, donor heavy atom, donor atom, acceptor molecule, acceptor atom, score
      P1  H  6931  6943       L1    24  0.55
      P1  H  6934  6947       L1    24  0.93
      P1  H  7989  7998       L1    15  0.14
      P1  H  7997  8008       L1    15  0.90
      P1  H 10752 10763       L1    18  0.21

> <Gold.Chemscore.Hbond.Weighted>
-11.5823

> <Gold.Chemscore.Metal.Weighted>
-0.0000

> <Gold.Chemscore.Lipo.Weighted>
-4.5437

> <Gold.Chemscore.Internal_Hbond.Weighted>
0.0000

> <Gold.Chemscore.DEClash.Weighted>
0.1931

> <Gold.Chemscore.DEInternal.Weighted>
4.3090

> <Gold.Chemscore.Rot.Weighted>
8.3634

> <Gold.Chemscore.Internal.Correction.Weighted>
   9.000000E+99

> <Gold.Protein.RotatedTorsions>
[ 6907 6896 6895 6894 ] final -108.44 input  -60.11 | X-H torsion
[ 7974 7965 7964 7962 ] final  -43.38 input  175.53 | X-H torsion
[ 8008 7997 7996 7995 ] final   -4.96 input   59.86 | X-H torsion
[ 10167 10162 10161 10158 ] final  166.94 input  -65.29 | X-H torsion
[ 10718 10713 10712 10709 ] final   89.52 input   66.30 | X-H torsion
[ 10763 10752 10751 10750 ] final   90.51 input  -60.55 | X-H torsion
[ 11005 11000 10999 10996 ] final  -21.27 input  -57.11 | X-H torsion

> <Gold.Protein.ActiveResidues>
 VAL166  LYS551  ARG553  GLY616  TRP617  ASP618  TYR619  PRO620  LYS621  CYS622 
 ASP623  PHE694  ASN695  SER759  ASP760  ASP761  ALA762  ILE779  LEU786  VAL792 
 PHE793  MET794  SER795  GLU796  ALA797  LYS798  CYS799  TRP800  GLU811  SER814 

> <Gold.Protein.RotatedAtoms>
  150.7502  133.9677  159.3535 H   0  0  0  0  0  0  0  0  0  0  0  0  # atno 6907 bound_to 6896
  151.7608  135.0808  160.0354 H   0  0  0  0  0  0  0  0  0  0  0  0  # atno 6908 bound_to 6896
  152.3404  133.6024  159.5909 H   0  0  0  0  0  0  0  0  0  0  0  0  # atno 6909 bound_to 6896
  146.0024  140.7059  142.9264 H   0  0  0  0  0  0  0  0  0  0  0  0  # atno 7974 bound_to 7965
  154.6088  140.2470  155.7695 H   0  0  0  0  0  0  0  0  0  0  0  0  # atno 8008 bound_to 7997
  156.2358  140.2951  156.0259 H   0  0  0  0  0  0  0  0  0  0  0  0  # atno 8009 bound_to 7997
  155.2086  140.0396  157.2920 H   0  0  0  0  0  0  0  0  0  0  0  0  # atno 8010 bound_to 7997
  139.4935  144.3974  151.9448 H   0  0  0  0  0  0  0  0  0  0  0  0  # atno 10167 bound_to 10162
  157.6955  131.0336  150.3438 H   0  0  0  0  0  0  0  0  0  0  0  0  # atno 10718 bound_to 10713
  153.1983  135.4431  155.0235 H   0  0  0  0  0  0  0  0  0  0  0  0  # atno 10763 bound_to 10752
  154.8132  135.3303  154.7251 H   0  0  0  0  0  0  0  0  0  0  0  0  # atno 10764 bound_to 10752
  153.7698  135.6985  153.4964 H   0  0  0  0  0  0  0  0  0  0  0  0  # atno 10765 bound_to 10752
  140.8545  133.7833  156.0003 H   0  0  0  0  0  0  0  0  0  0  0  0  # atno 11005 bound_to 11000
  144.6924  140.3256  143.7225 LP  0  0  0  0  0  0  0  0  0  0  0  0  # atno 17320 bound_to 7965
  145.7467  139.1781  143.2345 LP  0  0  0  0  0  0  0  0  0  0  0  0  # atno 17321 bound_to 7965
  140.3413  144.3200  150.5967 LP  0  0  0  0  0  0  0  0  0  0  0  0  # atno 17342 bound_to 10162
  140.5564  143.2198  151.7841 LP  0  0  0  0  0  0  0  0  0  0  0  0  # atno 17343 bound_to 10162
  156.3895  130.3895  149.7040 LP  0  0  0  0  0  0  0  0  0  0  0  0  # atno 17370 bound_to 10713
  156.4395  130.7854  151.2875 LP  0  0  0  0  0  0  0  0  0  0  0  0  # atno 17371 bound_to 10713
  140.8753  134.2677  157.5171 LP  0  0  0  0  0  0  0  0  0  0  0  0  # atno 17394 bound_to 11000
  139.8705  134.9588  156.4311 LP  0  0  0  0  0  0  0  0  0  0  0  0  # atno 17395 bound_to 11000

$$$$
