AV-unprocessed.smi:792|AV-procd|sdf|3750|dock7
  -GOLD-   22720 1183D 1   1.00000     0.00000
 Structure written by MMmdl.
 46 47  0  0  0  0  0  0  0  0  1 V2000
  151.6951  145.4869  159.5884 C   0  0  0  0  0  0  0  0  0  0  0  0
  152.0361  144.0136  159.6701 C   0  0  0  0  0  0  0  0  0  0  0  0
  153.2794  143.5852  160.1813 C   0  0  0  0  0  0  0  0  0  0  0  0
  153.5425  142.2029  160.2336 C   0  0  0  0  0  0  0  0  0  0  0  0
  152.5564  141.3052  159.7757 C   0  0  0  0  0  0  0  0  0  0  0  0
  152.7900  139.8080  159.8088 C   0  0  0  0  0  0  0  0  0  0  0  0
  152.2218  139.1062  158.5687 C   0  0  0  0  0  0  0  0  0  0  0  0
  150.8361  138.7194  158.7914 N   0  0  0  0  0  0  0  0  0  0  0  0
  150.4462  137.4943  159.1654 C   0  0  0  0  0  0  0  0  0  0  0  0
  151.2197  136.5612  159.3816 O   0  0  0  0  0  0  0  0  0  0  0  0
  149.1125  137.4070  159.2730 N   0  0  0  0  0  0  0  0  0  0  0  0
  148.3790  136.2088  159.6781 C   0  0  0  0  0  0  0  0  0  0  0  0
  147.1727  136.5062  160.5895 C   0  0  0  0  0  0  0  0  0  0  0  0
  146.4554  137.4760  160.3344 O   0  0  0  0  0  0  0  0  0  0  0  0
  146.9307  135.6884  161.6434 N   0  0  0  0  0  0  0  0  0  0  0  0
  147.7316  134.4871  161.9163 C   0  0  0  0  0  0  0  0  0  0  0  0
  146.8631  133.2408  161.6642 C   0  0  0  0  0  0  0  0  0  0  0  0
  145.5746  133.2858  162.5069 C   0  0  0  0  0  0  0  0  0  0  0  0
  144.8398  134.6303  162.3496 C   0  0  0  0  0  0  0  0  0  0  0  0
  145.8026  135.8097  162.5780 C   0  0  0  0  0  0  0  0  0  0  0  0
  151.3469  141.8371  159.2811 C   0  0  0  0  0  0  0  0  0  0  0  0
  151.0858  143.1610  159.2273 N   0  0  0  0  0  0  0  0  0  0  0  0
  152.5119  146.1034  159.9647 H   0  0  0  0  0  0  0  0  0  0  0  0
  150.8052  145.7040  160.1798 H   0  0  0  0  0  0  0  0  0  0  0  0
  151.5007  145.7744  158.5548 H   0  0  0  0  0  0  0  0  0  0  0  0
  154.0158  144.2964  160.5254 H   0  0  0  0  0  0  0  0  0  0  0  0
  154.4848  141.8405  160.6172 H   0  0  0  0  0  0  0  0  0  0  0  0
  153.8610  139.6171  159.8904 H   0  0  0  0  0  0  0  0  0  0  0  0
  152.3343  139.3994  160.7121 H   0  0  0  0  0  0  0  0  0  0  0  0
  152.2765  139.7702  157.7043 H   0  0  0  0  0  0  0  0  0  0  0  0
  152.8124  138.2195  158.3334 H   0  0  0  0  0  0  0  0  0  0  0  0
  150.1306  139.4265  158.6445 H   0  0  0  0  0  0  0  0  0  0  0  0
  148.5635  138.2316  159.0782 H   0  0  0  0  0  0  0  0  0  0  0  0
  148.0240  135.7157  158.7730 H   0  0  0  0  0  0  0  0  0  0  0  0
  149.0604  135.5168  160.1761 H   0  0  0  0  0  0  0  0  0  0  0  0
  148.6373  134.4326  161.3112 H   0  0  0  0  0  0  0  0  0  0  0  0
  148.0694  134.5055  162.9535 H   0  0  0  0  0  0  0  0  0  0  0  0
  146.6060  133.1858  160.6054 H   0  0  0  0  0  0  0  0  0  0  0  0
  147.4277  132.3367  161.8941 H   0  0  0  0  0  0  0  0  0  0  0  0
  144.9160  132.4604  162.2353 H   0  0  0  0  0  0  0  0  0  0  0  0
  145.8319  133.1424  163.5571 H   0  0  0  0  0  0  0  0  0  0  0  0
  144.4088  134.6994  161.3498 H   0  0  0  0  0  0  0  0  0  0  0  0
  144.0066  134.6833  163.0507 H   0  0  0  0  0  0  0  0  0  0  0  0
  146.1825  135.7846  163.6003 H   0  0  0  0  0  0  0  0  0  0  0  0
  145.2621  136.7512  162.4978 H   0  0  0  0  0  0  0  0  0  0  0  0
  150.5675  141.1839  158.9175 H   0  0  0  0  0  0  0  0  0  0  0  0
  1  2  1  0  0  0  0
  1 23  1  0  0  0  0
  1 24  1  0  0  0  0
  1 25  1  0  0  0  0
  2 22  1  0  0  0  0
  2  3  2  0  0  0  0
  3  4  1  0  0  0  0
  3 26  1  0  0  0  0
  4  5  2  0  0  0  0
  4 27  1  0  0  0  0
  5  6  1  0  0  0  0
  5 21  1  0  0  0  0
  6  7  1  0  0  0  0
  6 28  1  0  0  0  0
  6 29  1  0  0  0  0
  7  8  1  0  0  0  0
  7 30  1  0  0  0  0
  7 31  1  0  0  0  0
  8  9  1  0  0  0  0
  8 32  1  0  0  0  0
  9 10  2  0  0  0  0
  9 11  1  0  0  0  0
 11 12  1  0  0  0  0
 11 33  1  0  0  0  0
 12 13  1  0  0  0  0
 12 34  1  0  0  0  0
 12 35  1  0  0  0  0
 13 14  2  0  0  0  0
 13 15  1  0  0  0  0
 15 20  1  0  0  0  0
 15 16  1  0  0  0  0
 16 17  1  0  0  0  0
 16 36  1  0  0  0  0
 16 37  1  0  0  0  0
 17 18  1  0  0  0  0
 17 38  1  0  0  0  0
 17 39  1  0  0  0  0
 18 19  1  0  0  0  0
 18 40  1  0  0  0  0
 18 41  1  0  0  0  0
 19 20  1  0  0  0  0
 19 42  1  0  0  0  0
 19 43  1  0  0  0  0
 20 44  1  0  0  0  0
 20 45  1  0  0  0  0
 21 22  2  0  0  0  0
 21 46  1  0  0  0  0
M  END
> <s_m_source_file>
AV-unprocessed.smi

> <i_m_source_file_index>
792

> <i_lp_mmshare_version>
43012

> <i_f3d_flags>
0

> <s_epik_input>
W0NIM11jMVtjSF1bY0hdYyhbY0hdbjEpW0NIMl1bQ0gyXVtOSF1DKD1PKVtOSF1bQ0gyXUMoPU8pTjJbQ0gyXVtDSDJdW0NIMl1bQ0gyXVtDSDJdMg==

> <s_epik_cmdline>
J2VwaWtfcHl0aG9uJywgJy1waCcsICc3LjAnLCAnLXRuJywgJzgnLCAnLW1hJywgJzIwMCcsICctbWV0YWxfYmluZGluZycsICctaW1hZScsICc8aW5maWxlLm1hZT4nLCAnLW9tYWUnLCAnPG91dGZpbGUubWFlPic=

> <r_epik_Ionization_Penalty>
0.0629971

> <r_epik_Ionization_Penalty_Charging>
0

> <r_epik_Ionization_Penalty_Neutral>
0.0629971

> <r_epik_State_Penalty>
0.0547377

> <r_epik_Charging_Adjusted_Penalty>
0.0547377

> <i_epik_Tot_Q>
0

> <i_epik_Tot_abs_Q>
0

> <r_epik_Metal_State_Penalty>
0.0494478

> <b_epik_Metal_Only>
0

> <s_lp_Force_Field>
OPLS_2005

> <r_lp_Energy>
16.0081

> <b_lp_Chiralities_Consistent>
1

> <s_lp_Variant>
AV-unprocessed.smi:792-1

> <Gold.Version>
5.8.1

> <Gold.Id.Protein>
6NUR|6NUR_protein|mol2

> <Gold.PLP.Fitness>
47.9162

> <Gold.PLP.PLP>
-44.0065

> <Gold.PLP.part.hbond>
-1.8791

> <Gold.PLP.part.metal>
0.0000

> <Gold.PLP.part.buried>
-6.1292

> <Gold.PLP.part.nonpolar>
-35.9503

> <Gold.PLP.part.repulsive>
0.3871

> <Gold.PLP.ligand.clash>
0.0000

> <Gold.PLP.ligand.torsion>
1.0557

> <Gold.PLP.Chemscore.Hbond>
2.0000

> <Gold.PLP.Chemscore.CHOScore>
0.0000

> <Gold.PLP.Chemscore.Metal>
0.0000

> <Gold.Chemscore.Hbonds>
donor molecule, donor type, donor heavy atom, donor atom, acceptor molecule, acceptor atom, score
      P1  H  6896  6907       L1    10  1.00
      P1  H  6934  6947       L1    14  1.00

> <Gold.PLP.Chemscore.Internal.Correction>
0.0210

> <Gold.Rescore>
     Score         DG    S(hbond)    S(metal)    S(lipo)     H(rot)  DE(clash)    DE(int)     intcor
     20.64     -21.37       1.91        0.00     120.18       1.78       0.06       0.68       ----

> <Gold.Chemscore.Fitness>
20.6356

> <Gold.Chemscore.DG>
-21.3730

> <Gold.Chemscore.ZeroCoef>
-5.4800

> <Gold.Chemscore.Hbond>
1.9090

> <Gold.Chemscore.Metal>
0.0000

> <Gold.Chemscore.Lipo>
120.1808

> <Gold.Chemscore.Internal_Hbond>
0.0000

> <Gold.Chemscore.DEClash>
0.0574

> <Gold.Chemscore.DEInternal>
0.6800

> <Gold.Chemscore.Rot>
1.7751

> <Gold.Chemscore.Internal.Correction>
   9.000000E+99

> <Gold.Chemscore.Hbonds>
donor molecule, donor type, donor heavy atom, donor atom, acceptor molecule, acceptor atom, score
      P1  H  6896  6907       L1    10  0.91
      P1  H  6934  6947       L1    14  0.85

> <Gold.Chemscore.Hbond.Weighted>
-6.3760

> <Gold.Chemscore.Metal.Weighted>
-0.0000

> <Gold.Chemscore.Lipo.Weighted>
-14.0612

> <Gold.Chemscore.Internal_Hbond.Weighted>
0.0000

> <Gold.Chemscore.DEClash.Weighted>
0.0574

> <Gold.Chemscore.DEInternal.Weighted>
0.6800

> <Gold.Chemscore.Rot.Weighted>
4.5441

> <Gold.Chemscore.Internal.Correction.Weighted>
   9.000000E+99

> <Gold.Protein.RotatedTorsions>
[ 6907 6896 6895 6894 ] final  -25.18 input  -60.11 | X-H torsion
[ 7974 7965 7964 7962 ] final  -16.76 input  175.53 | X-H torsion
[ 8008 7997 7996 7995 ] final  165.37 input   59.86 | X-H torsion
[ 10167 10162 10161 10158 ] final    4.51 input  -65.29 | X-H torsion
[ 10718 10713 10712 10709 ] final -150.02 input   66.30 | X-H torsion
[ 10763 10752 10751 10750 ] final  137.75 input  -60.55 | X-H torsion
[ 11005 11000 10999 10996 ] final   49.88 input  -57.11 | X-H torsion

> <Gold.Protein.ActiveResidues>
 VAL166  LYS551  ARG553  GLY616  TRP617  ASP618  TYR619  PRO620  LYS621  CYS622 
 ASP623  PHE694  ASN695  SER759  ASP760  ASP761  ALA762  ILE779  LEU786  VAL792 
 PHE793  MET794  SER795  GLU796  ALA797  LYS798  CYS799  TRP800  GLU811  SER814 

> <Gold.Protein.RotatedAtoms>
  151.1789  135.0352  159.8783 H   0  0  0  0  0  0  0  0  0  0  0  0  # atno 6907 bound_to 6896
  152.5445  134.1086  159.8359 H   0  0  0  0  0  0  0  0  0  0  0  0  # atno 6908 bound_to 6896
  151.1200  133.5064  159.2634 H   0  0  0  0  0  0  0  0  0  0  0  0  # atno 6909 bound_to 6896
  146.1973  140.3682  142.8436 H   0  0  0  0  0  0  0  0  0  0  0  0  # atno 7974 bound_to 7965
  156.1806  140.1672  156.8282 H   0  0  0  0  0  0  0  0  0  0  0  0  # atno 8008 bound_to 7997
  154.5355  140.0747  156.8453 H   0  0  0  0  0  0  0  0  0  0  0  0  # atno 8009 bound_to 7997
  155.3319  140.3379  155.4242 H   0  0  0  0  0  0  0  0  0  0  0  0  # atno 8010 bound_to 7997
  140.6531  143.7496  150.7608 H   0  0  0  0  0  0  0  0  0  0  0  0  # atno 10167 bound_to 10162
  156.4406  130.8120  151.2349 H   0  0  0  0  0  0  0  0  0  0  0  0  # atno 10718 bound_to 10713
  153.8782  135.3047  155.3444 H   0  0  0  0  0  0  0  0  0  0  0  0  # atno 10763 bound_to 10752
  154.7774  135.4854  153.9775 H   0  0  0  0  0  0  0  0  0  0  0  0  # atno 10764 bound_to 10752
  153.1367  135.6815  153.9189 H   0  0  0  0  0  0  0  0  0  0  0  0  # atno 10765 bound_to 10752
  140.1065  134.5011  155.8715 H   0  0  0  0  0  0  0  0  0  0  0  0  # atno 11005 bound_to 11000
  144.8607  140.7135  143.6109 LP  0  0  0  0  0  0  0  0  0  0  0  0  # atno 17320 bound_to 7965
  145.3602  139.1683  143.4387 LP  0  0  0  0  0  0  0  0  0  0  0  0  # atno 17321 bound_to 7965
  140.1150  143.4664  152.2347 LP  0  0  0  0  0  0  0  0  0  0  0  0  # atno 17342 bound_to 10162
  139.5749  144.7482  151.3792 LP  0  0  0  0  0  0  0  0  0  0  0  0  # atno 17343 bound_to 10162
  157.7506  131.0169  150.3564 LP  0  0  0  0  0  0  0  0  0  0  0  0  # atno 17370 bound_to 10713
  156.3921  130.3900  149.7022 LP  0  0  0  0  0  0  0  0  0  0  0  0  # atno 17371 bound_to 10713
  141.2119  133.6713  156.6622 LP  0  0  0  0  0  0  0  0  0  0  0  0  # atno 17394 bound_to 11000
  140.3148  134.8056  157.4205 LP  0  0  0  0  0  0  0  0  0  0  0  0  # atno 17395 bound_to 11000

$$$$
