AV-unprocessed.smi:2482|AV-procd|sdf|9778|dock5
  -GOLD-   2272013423D 1   1.00000     0.00000
 Structure written by MMmdl.
 35 36  0  0  0  0  0  0  0  0  2 V2000
  152.5345  143.5049  160.7593 C   0  0  0  0  0  0  0  0  0  0  0  0
  152.3377  142.2975  159.8615 C   0  0  0  0  0  0  0  0  0  0  0  0
  153.0496  141.1988  160.1943 N   0  0  0  0  0  0  0  0  0  0  0  0
  152.9158  140.0987  159.4258 C   0  0  0  0  0  0  0  0  0  0  0  0
  152.0701  140.0368  158.3018 C   0  0  0  0  0  0  0  0  0  0  0  0
  151.3105  141.1812  157.9595 C   0  0  0  0  0  0  0  0  0  0  0  0
  150.4418  141.2388  156.8348 N   0  0  0  0  0  0  0  0  0  0  0  0
  150.6067  140.7121  155.6067 C   0  0  0  0  0  0  0  0  0  0  0  0
  151.5992  140.0772  155.2505 O   0  0  0  0  0  0  0  0  0  0  0  0
  149.4533  140.9483  154.6189 C   0  0  1  0  0  0  0  0  0  0  0  0
  148.8345  139.6310  154.0950 C   0  0  0  0  0  0  0  0  0  0  0  0
  147.6824  139.9117  153.2076 N   0  3  1  0  0  0  0  0  0  0  0  0
  147.0796  138.6822  152.6501 C   0  0  0  0  0  0  0  0  0  0  0  0
  146.6910  140.7772  153.8845 C   0  0  0  0  0  0  0  0  0  0  0  0
  147.3683  142.0556  154.4024 C   0  0  0  0  0  0  0  0  0  0  0  0
  148.4372  141.7075  155.2733 O   0  0  0  0  0  0  0  0  0  0  0  0
  151.4600  142.3428  158.7529 C   0  0  0  0  0  0  0  0  0  0  0  0
  150.5813  143.7884  158.3795 Cl  0  0  0  0  0  0  0  0  0  0  0  0
  151.5867  143.7994  161.2105 H   0  0  0  0  0  0  0  0  0  0  0  0
  152.9206  144.3471  160.1845 H   0  0  0  0  0  0  0  0  0  0  0  0
  153.2396  143.2953  161.5649 H   0  0  0  0  0  0  0  0  0  0  0  0
  153.5073  139.2415  159.7113 H   0  0  0  0  0  0  0  0  0  0  0  0
  152.0337  139.1259  157.7250 H   0  0  0  0  0  0  0  0  0  0  0  0
  149.5431  141.6647  157.0108 H   0  0  0  0  0  0  0  0  0  0  0  0
  149.8523  141.5271  153.7841 H   0  0  0  0  0  0  0  0  0  0  0  0
  149.5787  139.0586  153.5390 H   0  0  0  0  0  0  0  0  0  0  0  0
  148.5058  139.0073  154.9287 H   0  0  0  0  0  0  0  0  0  0  0  0
  146.6701  138.0525  153.4411 H   0  0  0  0  0  0  0  0  0  0  0  0
  147.8246  138.1033  152.1034 H   0  0  0  0  0  0  0  0  0  0  0  0
  146.2747  138.9284  151.9568 H   0  0  0  0  0  0  0  0  0  0  0  0
  145.8917  141.0361  153.1892 H   0  0  0  0  0  0  0  0  0  0  0  0
  146.2334  140.2344  154.7133 H   0  0  0  0  0  0  0  0  0  0  0  0
  147.7389  142.6641  153.5761 H   0  0  0  0  0  0  0  0  0  0  0  0
  146.6504  142.6658  154.9505 H   0  0  0  0  0  0  0  0  0  0  0  0
  148.0406  140.4392  152.4240 H   0  0  0  0  0  0  0  0  0  0  0  0
  1  2  1  0  0  0  0
  1 19  1  0  0  0  0
  1 20  1  0  0  0  0
  1 21  1  0  0  0  0
  2 17  1  0  0  0  0
  2  3  2  0  0  0  0
  3  4  1  0  0  0  0
  4  5  2  0  0  0  0
  4 22  1  0  0  0  0
  5  6  1  0  0  0  0
  5 23  1  0  0  0  0
  6  7  1  0  0  0  0
  6 17  2  0  0  0  0
  7  8  1  0  0  0  0
  7 24  1  0  0  0  0
  8  9  2  0  0  0  0
  8 10  1  0  0  0  0
 10 16  1  0  0  0  0
 10 11  1  0  0  0  0
 10 25  1  0  0  0  0
 11 12  1  0  0  0  0
 11 26  1  0  0  0  0
 11 27  1  0  0  0  0
 12 13  1  0  0  0  0
 12 14  1  0  0  0  0
 12 35  1  0  0  0  0
 13 28  1  0  0  0  0
 13 29  1  0  0  0  0
 13 30  1  0  0  0  0
 14 15  1  0  0  0  0
 14 31  1  0  0  0  0
 14 32  1  0  0  0  0
 15 16  1  0  0  0  0
 15 33  1  0  0  0  0
 15 34  1  0  0  0  0
 17 18  1  0  0  0  0
M  CHG  1  12   1
M  END
> <s_m_source_file>
AV-unprocessed.smi

> <i_m_source_file_index>
2482

> <i_lp_mmshare_version>
43012

> <i_f3d_flags>
0

> <s_epik_input>
W0NIM11jMW5bY0hdW2NIXWMoYzFDbClbTkhdQyg9TylbQ0BASF0yW0NIMl1OKFtDSDNdKVtDSDJdW0NIMl1PMg==

> <s_epik_cmdline>
J2VwaWtfcHl0aG9uJywgJy1waCcsICc3LjAnLCAnLXRuJywgJzgnLCAnLW1hJywgJzIwMCcsICctbWV0YWxfYmluZGluZycsICctaW1hZScsICc8aW5maWxlLm1hZT4nLCAnLW9tYWUnLCAnPG91dGZpbGUubWFlPic=

> <r_epik_Ionization_Penalty>
0.314226

> <r_epik_Ionization_Penalty_Charging>
0.314023

> <r_epik_Ionization_Penalty_Neutral>
0.00020299

> <r_epik_State_Penalty>
0.308208

> <r_epik_Charging_Adjusted_Penalty>
0.62223

> <i_epik_Tot_Q>
1

> <i_epik_Tot_abs_Q>
1

> <r_epik_Metal_State_Penalty>
0.314444

> <b_epik_Metal_Only>
0

> <s_lp_Force_Field>
OPLS_2005

> <r_lp_Energy>
22.3096

> <b_lp_Chiralities_Consistent>
1

> <s_lp_Variant>
AV-unprocessed.smi:2482-4

> <Gold.Version>
5.8.1

> <Gold.Id.Protein>
6NUR|6NUR_protein|mol2

> <Gold.PLP.Fitness>
38.5747

> <Gold.PLP.PLP>
-35.1163

> <Gold.PLP.part.hbond>
-2.0000

> <Gold.PLP.part.metal>
0.0000

> <Gold.PLP.part.buried>
-2.4597

> <Gold.PLP.part.nonpolar>
-30.8139

> <Gold.PLP.part.repulsive>
0.8248

> <Gold.PLP.ligand.clash>
0.0000

> <Gold.PLP.ligand.torsion>
0.2995

> <Gold.PLP.Chemscore.Hbond>
1.3520

> <Gold.PLP.Chemscore.CHOScore>
0.0000

> <Gold.PLP.Chemscore.Metal>
0.0000

> <Gold.Chemscore.Hbonds>
donor molecule, donor type, donor heavy atom, donor atom, acceptor molecule, acceptor atom, score
      L1  H    12    35       P1  7957  0.62
      P1  H  7989  7998       L1     9  0.69

> <Gold.PLP.Chemscore.Internal.Correction>
0.0014

> <Gold.Rescore>
     Score         DG    S(hbond)    S(metal)    S(lipo)     H(rot)  DE(clash)    DE(int)     intcor
     15.26     -16.61       0.86        0.00      92.36       1.00       1.01       0.34       ----

> <Gold.Chemscore.Fitness>
15.2634

> <Gold.Chemscore.DG>
-16.6142

> <Gold.Chemscore.ZeroCoef>
-5.4800

> <Gold.Chemscore.Hbond>
0.8648

> <Gold.Chemscore.Metal>
0.0000

> <Gold.Chemscore.Lipo>
92.3572

> <Gold.Chemscore.Internal_Hbond>
0.0000

> <Gold.Chemscore.DEClash>
1.0136

> <Gold.Chemscore.DEInternal>
0.3373

> <Gold.Chemscore.Rot>
1.0000

> <Gold.Chemscore.Internal.Correction>
   9.000000E+99

> <Gold.Chemscore.Hbonds>
donor molecule, donor type, donor heavy atom, donor atom, acceptor molecule, acceptor atom, score
      L1  H    12    35       P1  7957  0.57
      P1  H  7989  7998       L1     9  0.07

> <Gold.Chemscore.Hbond.Weighted>
-2.8884

> <Gold.Chemscore.Metal.Weighted>
-0.0000

> <Gold.Chemscore.Lipo.Weighted>
-10.8058

> <Gold.Chemscore.Internal_Hbond.Weighted>
0.0000

> <Gold.Chemscore.DEClash.Weighted>
1.0136

> <Gold.Chemscore.DEInternal.Weighted>
0.3373

> <Gold.Chemscore.Rot.Weighted>
2.5600

> <Gold.Chemscore.Internal.Correction.Weighted>
   9.000000E+99

> <Gold.Protein.RotatedTorsions>
[ 6907 6896 6895 6894 ] final  -30.24 input  -60.11 | X-H torsion
[ 7974 7965 7964 7962 ] final  170.79 input  175.53 | X-H torsion
[ 8008 7997 7996 7995 ] final  152.52 input   59.86 | X-H torsion
[ 10167 10162 10161 10158 ] final  -19.68 input  -65.29 | X-H torsion
[ 10718 10713 10712 10709 ] final    0.84 input   66.30 | X-H torsion
[ 10763 10752 10751 10750 ] final -162.28 input  -60.55 | X-H torsion
[ 11005 11000 10999 10996 ] final   58.01 input  -57.11 | X-H torsion

> <Gold.Protein.ActiveResidues>
 VAL166  LYS551  ARG553  GLY616  TRP617  ASP618  TYR619  PRO620  LYS621  CYS622 
 ASP623  PHE694  ASN695  SER759  ASP760  ASP761  ALA762  ILE779  LEU786  VAL792 
 PHE793  MET794  SER795  GLU796  ALA797  LYS798  CYS799  TRP800  GLU811  SER814 

> <Gold.Protein.RotatedAtoms>
  151.1082  135.0011  159.8480 H   0  0  0  0  0  0  0  0  0  0  0  0  # atno 6907 bound_to 6896
  152.5441  134.1868  159.8668 H   0  0  0  0  0  0  0  0  0  0  0  0  # atno 6908 bound_to 6896
  151.1916  133.4619  159.2628 H   0  0  0  0  0  0  0  0  0  0  0  0  # atno 6909 bound_to 6896
  144.7313  139.9255  143.6422 H   0  0  0  0  0  0  0  0  0  0  0  0  # atno 7974 bound_to 7965
  156.2625  140.2018  156.6346 H   0  0  0  0  0  0  0  0  0  0  0  0  # atno 8008 bound_to 7997
  154.6656  140.0556  157.0135 H   0  0  0  0  0  0  0  0  0  0  0  0  # atno 8009 bound_to 7997
  155.1212  140.3225  155.4500 H   0  0  0  0  0  0  0  0  0  0  0  0  # atno 8010 bound_to 7997
  140.7270  143.4795  151.0137 H   0  0  0  0  0  0  0  0  0  0  0  0  # atno 10167 bound_to 10162
  156.8393  130.5515  149.5679 H   0  0  0  0  0  0  0  0  0  0  0  0  # atno 10718 bound_to 10713
  154.7228  135.3029  154.9019 H   0  0  0  0  0  0  0  0  0  0  0  0  # atno 10763 bound_to 10752
  153.9885  135.6721  153.4757 H   0  0  0  0  0  0  0  0  0  0  0  0  # atno 10764 bound_to 10752
  153.0849  135.4989  154.8495 H   0  0  0  0  0  0  0  0  0  0  0  0  # atno 10765 bound_to 10752
  140.0409  134.5874  155.9383 H   0  0  0  0  0  0  0  0  0  0  0  0  # atno 11005 bound_to 11000
  146.0897  139.3887  143.0413 LP  0  0  0  0  0  0  0  0  0  0  0  0  # atno 17320 bound_to 7965
  145.7727  140.9889  143.1141 LP  0  0  0  0  0  0  0  0  0  0  0  0  # atno 17321 bound_to 7965
  139.8493  143.7460  152.3178 LP  0  0  0  0  0  0  0  0  0  0  0  0  # atno 17342 bound_to 10162
  139.7636  144.7499  151.0327 LP  0  0  0  0  0  0  0  0  0  0  0  0  # atno 17343 bound_to 10162
  156.0889  130.5880  150.9698 LP  0  0  0  0  0  0  0  0  0  0  0  0  # atno 17370 bound_to 10713
  157.6364  131.0915  150.8339 LP  0  0  0  0  0  0  0  0  0  0  0  0  # atno 17371 bound_to 10713
  141.1882  133.6562  156.5316 LP  0  0  0  0  0  0  0  0  0  0  0  0  # atno 17394 bound_to 11000
  140.4070  134.7306  157.4814 LP  0  0  0  0  0  0  0  0  0  0  0  0  # atno 17395 bound_to 11000

$$$$
