AV-unprocessed.smi:203|AV-procd|sdf|1584|dock9
  -GOLD-   2262019473D 1   1.00000     0.00000
 Structure written by MMmdl.
 57 61  0  0  0  0  0  0  0  0  1 V2000
  149.2365  141.5240  153.7592 O   0  0  0  0  0  0  0  0  0  0  0  0
  149.5187  141.1516  154.8955 C   0  0  0  0  0  0  0  0  0  0  0  0
  150.8969  140.6551  155.2958 C   0  0  0  0  0  0  0  0  0  0  0  0
  150.8070  140.5258  156.8289 C   0  0  1  0  0  0  0  0  0  0  0  0
  151.7072  141.5390  157.6053 C   0  0  1  0  0  0  0  0  0  0  0  0
  151.2960  143.0158  157.3671 C   0  0  0  0  0  0  0  0  0  0  0  0
  152.2052  143.9871  158.1320 C   0  0  0  0  0  0  0  0  0  0  0  0
  152.2073  143.6368  159.6239 C   0  0  0  0  0  0  0  0  0  0  0  0
  152.6187  142.1729  159.8292 C   0  0  0  0  0  0  0  0  0  0  0  0
  151.7708  141.2688  159.0534 N   0  0  0  0  0  0  0  0  0  0  0  0
  151.9918  139.9862  159.4176 C   0  0  0  0  0  0  0  0  0  0  0  0
  151.0022  139.0937  159.1703 N   0  0  0  0  0  0  0  0  0  0  0  0
  151.1774  137.8040  159.4734 C   0  0  0  0  0  0  0  0  0  0  0  0
  152.2451  137.2099  160.0114 N   0  0  0  0  0  0  0  0  0  0  0  0
  153.2375  138.1098  160.2682 C   0  0  0  0  0  0  0  0  0  0  0  0
  153.1900  139.5093  160.0189 C   0  0  0  0  0  0  0  0  0  0  0  0
  154.3781  140.1055  160.4233 N   0  0  0  0  0  0  0  0  0  0  0  0
  155.0967  139.1107  160.8661 C   0  0  0  0  0  0  0  0  0  0  0  0
  154.5002  137.8729  160.7819 N   0  0  0  0  0  0  0  0  0  0  0  0
  155.0834  136.5998  161.1650 C   0  0  0  0  0  0  0  0  0  0  0  0
  154.4036  135.9576  162.3976 C   0  0  2  0  0  0  0  0  0  0  0  0
  154.6071  136.8009  163.5124 O   0  0  0  0  0  0  0  0  0  0  0  0
  154.8351  134.5195  162.7758 C   0  0  2  0  0  0  0  0  0  0  0  0
  154.6560  133.4414  161.7046 C   0  0  0  0  0  0  0  0  0  0  0  0
  154.6527  132.1857  162.5474 C   0  0  0  0  0  0  0  0  0  0  0  0
  153.8904  132.6373  163.7905 C   0  0  0  0  0  0  0  0  0  0  0  0
  154.1453  134.0334  163.9250 O   0  0  0  0  0  0  0  0  0  0  0  0
  149.3011  140.6413  157.1553 C   0  0  0  0  0  0  0  0  0  0  0  0
  148.6849  141.1173  155.9326 N   0  0  0  0  0  0  0  0  0  0  0  0
  151.0727  139.6852  154.8298 H   0  0  0  0  0  0  0  0  0  0  0  0
  151.6822  141.3332  154.9624 H   0  0  0  0  0  0  0  0  0  0  0  0
  151.1264  139.5114  157.0669 H   0  0  0  0  0  0  0  0  0  0  0  0
  152.7210  141.4303  157.2187 H   0  0  0  0  0  0  0  0  0  0  0  0
  151.3318  143.2637  156.3069 H   0  0  0  0  0  0  0  0  0  0  0  0
  150.2654  143.1787  157.6825 H   0  0  0  0  0  0  0  0  0  0  0  0
  153.2204  143.9322  157.7370 H   0  0  0  0  0  0  0  0  0  0  0  0
  151.8664  145.0132  157.9868 H   0  0  0  0  0  0  0  0  0  0  0  0
  152.8873  144.2956  160.1644 H   0  0  0  0  0  0  0  0  0  0  0  0
  151.2137  143.8013  160.0427 H   0  0  0  0  0  0  0  0  0  0  0  0
  153.6593  142.0374  159.5301 H   0  0  0  0  0  0  0  0  0  0  0  0
  152.5581  141.9241  160.8900 H   0  0  0  0  0  0  0  0  0  0  0  0
  150.3464  137.1535  159.2442 H   0  0  0  0  0  0  0  0  0  0  0  0
  156.0970  139.2527  161.2484 H   0  0  0  0  0  0  0  0  0  0  0  0
  155.0295  135.9265  160.3083 H   0  0  0  0  0  0  0  0  0  0  0  0
  156.1440  136.7587  161.3624 H   0  0  0  0  0  0  0  0  0  0  0  0
  153.3274  135.9411  162.2247 H   0  0  0  0  0  0  0  0  0  0  0  0
  155.2501  136.4009  164.0776 H   0  0  0  0  0  0  0  0  0  0  0  0
  155.8885  134.5386  163.0615 H   0  0  0  0  0  0  0  0  0  0  0  0
  153.7007  133.5377  161.1908 H   0  0  0  0  0  0  0  0  0  0  0  0
  155.4483  133.4511  160.9558 H   0  0  0  0  0  0  0  0  0  0  0  0
  154.1889  131.3339  162.0500 H   0  0  0  0  0  0  0  0  0  0  0  0
  155.6747  131.9119  162.8132 H   0  0  0  0  0  0  0  0  0  0  0  0
  152.8187  132.4919  163.6529 H   0  0  0  0  0  0  0  0  0  0  0  0
  154.1910  132.0904  164.6842 H   0  0  0  0  0  0  0  0  0  0  0  0
  148.8837  139.6658  157.4080 H   0  0  0  0  0  0  0  0  0  0  0  0
  149.0893  141.3139  157.9864 H   0  0  0  0  0  0  0  0  0  0  0  0
  147.7170  141.4014  155.8879 H   0  0  0  0  0  0  0  0  0  0  0  0
  1  2  2  0  0  0  0
  2 29  1  0  0  0  0
  2  3  1  0  0  0  0
  3  4  1  0  0  0  0
  3 30  1  0  0  0  0
  3 31  1  0  0  0  0
  4  5  1  0  0  0  0
  4 28  1  0  0  0  0
  4 32  1  0  0  0  0
  5 10  1  0  0  0  0
  5  6  1  0  0  0  0
  5 33  1  0  0  0  0
  6  7  1  0  0  0  0
  6 34  1  0  0  0  0
  6 35  1  0  0  0  0
  7  8  1  0  0  0  0
  7 36  1  0  0  0  0
  7 37  1  0  0  0  0
  8  9  1  0  0  0  0
  8 38  1  0  0  0  0
  8 39  1  0  0  0  0
  9 10  1  0  0  0  0
  9 40  1  0  0  0  0
  9 41  1  0  0  0  0
 10 11  1  0  0  0  0
 11 16  1  0  0  0  0
 11 12  2  0  0  0  0
 12 13  1  0  0  0  0
 13 14  2  0  0  0  0
 13 42  1  0  0  0  0
 14 15  1  0  0  0  0
 15 19  1  0  0  0  0
 15 16  2  0  0  0  0
 16 17  1  0  0  0  0
 17 18  2  0  0  0  0
 18 19  1  0  0  0  0
 18 43  1  0  0  0  0
 19 20  1  0  0  0  0
 20 21  1  0  0  0  0
 20 44  1  0  0  0  0
 20 45  1  0  0  0  0
 21 22  1  0  0  0  0
 21 23  1  0  0  0  0
 21 46  1  0  0  0  0
 22 47  1  0  0  0  0
 23 27  1  0  0  0  0
 23 24  1  0  0  0  0
 23 48  1  0  0  0  0
 24 25  1  0  0  0  0
 24 49  1  0  0  0  0
 24 50  1  0  0  0  0
 25 26  1  0  0  0  0
 25 51  1  0  0  0  0
 25 52  1  0  0  0  0
 26 27  1  0  0  0  0
 26 53  1  0  0  0  0
 26 54  1  0  0  0  0
 28 29  1  0  0  0  0
 28 55  1  0  0  0  0
 28 56  1  0  0  0  0
 29 57  1  0  0  0  0
M  END
> <s_m_source_file>
AV-unprocessed.smi

> <i_m_source_file_index>
203

> <i_lp_mmshare_version>
43012

> <i_f3d_flags>
0

> <s_epik_input>
Tz1DMVtDSDJdW0NASF0oW0NIMl1bTkhdMSlbQ0BASF0yW0NIMl1bQ0gyXVtDSDJdW0NIMl1OMmMobltjSF1uMyljKGMzNCluW2NIXW40W0NIMl1bQ0BIXShbT0hdKVtDQEBIXTVbQ0gyXVtDSDJdW0NIMl1PNQ==

> <s_epik_cmdline>
J2VwaWtfcHl0aG9uJywgJy1waCcsICc3LjAnLCAnLXRuJywgJzgnLCAnLW1hJywgJzIwMCcsICctbWV0YWxfYmluZGluZycsICctaW1hZScsICc8aW5maWxlLm1hZT4nLCAnLW9tYWUnLCAnPG91dGZpbGUubWFlPic=

> <r_lp_tautomer_probability>
1

> <r_epik_Ionization_Penalty>
0.00175146

> <r_epik_Ionization_Penalty_Charging>
0

> <r_epik_Ionization_Penalty_Neutral>
0.00175146

> <r_epik_State_Penalty>
0.00109045

> <r_epik_Charging_Adjusted_Penalty>
0.00109045

> <i_epik_Tot_Q>
0

> <i_epik_Tot_abs_Q>
0

> <r_epik_Metal_State_Penalty>
-0

> <b_epik_Metal_Only>
0

> <s_lp_Force_Field>
OPLS_2005

> <r_lp_Energy>
54.964

> <b_lp_Chiralities_Consistent>
1

> <s_lp_Variant>
AV-unprocessed.smi:203-3

> <Gold.Version>
5.8.1

> <Gold.Id.Protein>
6NUR|6NUR_protein|mol2

> <Gold.PLP.Fitness>
48.5856

> <Gold.PLP.PLP>
-45.5333

> <Gold.PLP.part.hbond>
-3.0245

> <Gold.PLP.part.metal>
0.0000

> <Gold.PLP.part.buried>
-5.3397

> <Gold.PLP.part.nonpolar>
-37.5899

> <Gold.PLP.part.repulsive>
1.0397

> <Gold.PLP.ligand.clash>
0.6989

> <Gold.PLP.ligand.torsion>
0.5278

> <Gold.PLP.Chemscore.Hbond>
1.5153

> <Gold.PLP.Chemscore.CHOScore>
0.0000

> <Gold.PLP.Chemscore.Metal>
0.0000

> <Gold.Chemscore.Hbonds>
donor molecule, donor type, donor heavy atom, donor atom, acceptor molecule, acceptor atom, score
      P1  H  6896  6907       L1    14  0.78
      P1  H  8011  8017       L1     1  0.75

> <Gold.PLP.Chemscore.Internal.Correction>
0.2611

> <Gold.Rescore>
     Score         DG    S(hbond)    S(metal)    S(lipo)     H(rot)  DE(clash)    DE(int)     intcor
     10.68     -14.28       1.16        0.00     101.41       2.72       0.13       3.47       ----

> <Gold.Chemscore.Fitness>
10.6751

> <Gold.Chemscore.DG>
-14.2781

> <Gold.Chemscore.ZeroCoef>
-5.4800

> <Gold.Chemscore.Hbond>
1.1644

> <Gold.Chemscore.Metal>
0.0000

> <Gold.Chemscore.Lipo>
101.4083

> <Gold.Chemscore.Internal_Hbond>
0.0000

> <Gold.Chemscore.DEClash>
0.1287

> <Gold.Chemscore.DEInternal>
3.4742

> <Gold.Chemscore.Rot>
2.7171

> <Gold.Chemscore.Internal.Correction>
   9.000000E+99

> <Gold.Chemscore.Hbonds>
donor molecule, donor type, donor heavy atom, donor atom, acceptor molecule, acceptor atom, score
      P1  H  6896  6907       L1    14  0.42
      P1  H  8011  8017       L1     1  0.74

> <Gold.Chemscore.Hbond.Weighted>
-3.8890

> <Gold.Chemscore.Metal.Weighted>
-0.0000

> <Gold.Chemscore.Lipo.Weighted>
-11.8648

> <Gold.Chemscore.Internal_Hbond.Weighted>
0.0000

> <Gold.Chemscore.DEClash.Weighted>
0.1287

> <Gold.Chemscore.DEInternal.Weighted>
3.4742

> <Gold.Chemscore.Rot.Weighted>
6.9557

> <Gold.Chemscore.Internal.Correction.Weighted>
   9.000000E+99

> <Gold.Protein.RotatedTorsions>
[ 6907 6896 6895 6894 ] final   15.15 input  -60.11 | X-H torsion
[ 7974 7965 7964 7962 ] final  111.85 input  175.53 | X-H torsion
[ 8008 7997 7996 7995 ] final  141.75 input   59.86 | X-H torsion
[ 10167 10162 10161 10158 ] final -125.29 input  -65.29 | X-H torsion
[ 10718 10713 10712 10709 ] final  129.39 input   66.30 | X-H torsion
[ 10763 10752 10751 10750 ] final  118.34 input  -60.55 | X-H torsion
[ 11005 11000 10999 10996 ] final  -21.40 input  -57.11 | X-H torsion

> <Gold.Protein.ActiveResidues>
 VAL166  LYS551  ARG553  GLY616  TRP617  ASP618  TYR619  PRO620  LYS621  CYS622 
 ASP623  PHE694  ASN695  SER759  ASP760  ASP761  ALA762  ILE779  LEU786  VAL792 
 PHE793  MET794  SER795  GLU796  ALA797  LYS798  CYS799  TRP800  GLU811  SER814 

> <Gold.Protein.RotatedAtoms>
  151.8135  135.0673  160.0415 H   0  0  0  0  0  0  0  0  0  0  0  0  # atno 6907 bound_to 6896
  152.3003  133.5644  159.5622 H   0  0  0  0  0  0  0  0  0  0  0  0  # atno 6908 bound_to 6896
  150.7270  134.0217  159.3745 H   0  0  0  0  0  0  0  0  0  0  0  0  # atno 6909 bound_to 6896
  145.2369  139.2795  143.4138 H   0  0  0  0  0  0  0  0  0  0  0  0  # atno 7974 bound_to 7965
  156.2961  140.2307  156.4616 H   0  0  0  0  0  0  0  0  0  0  0  0  # atno 8008 bound_to 7997
  154.8013  140.0448  157.1295 H   0  0  0  0  0  0  0  0  0  0  0  0  # atno 8009 bound_to 7997
  154.9530  140.3044  155.5069 H   0  0  0  0  0  0  0  0  0  0  0  0  # atno 8010 bound_to 7997
  139.9837  143.5715  152.2369 H   0  0  0  0  0  0  0  0  0  0  0  0  # atno 10167 bound_to 10162
  157.5159  131.1097  150.9226 H   0  0  0  0  0  0  0  0  0  0  0  0  # atno 10718 bound_to 10713
  153.5662  135.3511  155.2819 H   0  0  0  0  0  0  0  0  0  0  0  0  # atno 10763 bound_to 10752
  154.8688  135.4148  154.2776 H   0  0  0  0  0  0  0  0  0  0  0  0  # atno 10764 bound_to 10752
  153.3532  135.7056  153.6841 H   0  0  0  0  0  0  0  0  0  0  0  0  # atno 10765 bound_to 10752
  140.8558  133.7824  156.0017 H   0  0  0  0  0  0  0  0  0  0  0  0  # atno 11005 bound_to 11000
  146.3338  140.2721  142.8606 LP  0  0  0  0  0  0  0  0  0  0  0  0  # atno 17320 bound_to 7965
  144.9624  140.8289  143.5505 LP  0  0  0  0  0  0  0  0  0  0  0  0  # atno 17321 bound_to 7965
  139.6391  144.7653  151.2376 LP  0  0  0  0  0  0  0  0  0  0  0  0  # atno 17342 bound_to 10162
  140.7480  143.6348  150.8389 LP  0  0  0  0  0  0  0  0  0  0  0  0  # atno 17343 bound_to 10162
  156.9851  130.5542  149.5299 LP  0  0  0  0  0  0  0  0  0  0  0  0  # atno 17370 bound_to 10713
  156.0320  130.5410  150.8558 LP  0  0  0  0  0  0  0  0  0  0  0  0  # atno 17371 bound_to 10713
  140.8739  134.2693  157.5177 LP  0  0  0  0  0  0  0  0  0  0  0  0  # atno 17394 bound_to 11000
  139.8705  134.9581  156.4290 LP  0  0  0  0  0  0  0  0  0  0  0  0  # atno 17395 bound_to 11000

$$$$
