AV-unprocessed.smi:2623|AV-procd|sdf|10229|dock8
  -GOLD-   2272014233D 1   1.00000     0.00000
 Structure written by MMmdl.
 40 42  0  0  0  0  0  0  0  0  1 V2000
  150.0278  140.4346  153.8887 O   0  0  0  0  0  0  0  0  0  0  0  0
  150.2206  139.6563  155.0494 C   0  0  0  0  0  0  0  0  0  0  0  0
  150.7637  140.4486  156.2000 C   0  0  0  0  0  0  0  0  0  0  0  0
  150.7746  141.7821  156.1850 N   0  0  0  0  0  0  0  0  0  0  0  0
  151.3228  142.0970  157.4123 C   0  0  0  0  0  0  0  0  0  0  0  0
  151.5947  143.3524  158.0015 C   0  0  0  0  0  0  0  0  0  0  0  0
  152.1607  143.4283  159.2910 C   0  0  0  0  0  0  0  0  0  0  0  0
  152.4606  142.2526  160.0090 C   0  0  0  0  0  0  0  0  0  0  0  0
  152.1980  140.9916  159.4399 C   0  0  0  0  0  0  0  0  0  0  0  0
  151.6367  140.9211  158.1505 C   0  0  0  0  0  0  0  0  0  0  0  0
  151.2689  139.8671  157.3191 N   0  0  0  0  0  0  0  0  0  0  0  0
  151.3983  138.4495  157.6351 C   0  0  0  0  0  0  0  0  0  0  0  0
  150.8027  138.0881  159.0115 C   0  0  2  0  0  0  0  0  0  0  0  0
  151.7444  137.3553  159.7683 O   0  0  0  0  0  0  0  0  0  0  0  0
  149.5199  137.2530  158.8924 C   0  0  0  0  0  0  0  0  0  0  0  0
  148.8303  137.2917  160.1350 O   0  0  0  0  0  0  0  0  0  0  0  0
  148.2646  136.1261  160.6053 C   0  0  0  0  0  0  0  0  0  0  0  0
  147.7061  136.1637  161.8998 C   0  0  0  0  0  0  0  0  0  0  0  0
  147.1087  135.0186  162.4609 C   0  0  0  0  0  0  0  0  0  0  0  0
  147.0624  133.8187  161.7277 C   0  0  0  0  0  0  0  0  0  0  0  0
  147.6151  133.7669  160.4346 C   0  0  0  0  0  0  0  0  0  0  0  0
  148.2141  134.9120  159.8740 C   0  0  0  0  0  0  0  0  0  0  0  0
  149.7594  139.8634  153.1853 H   0  0  0  0  0  0  0  0  0  0  0  0
  149.2620  139.2206  155.3337 H   0  0  0  0  0  0  0  0  0  0  0  0
  150.8843  138.8206  154.8281 H   0  0  0  0  0  0  0  0  0  0  0  0
  151.3656  144.2588  157.4608 H   0  0  0  0  0  0  0  0  0  0  0  0
  152.3641  144.3932  159.7318 H   0  0  0  0  0  0  0  0  0  0  0  0
  152.8921  142.3192  160.9970 H   0  0  0  0  0  0  0  0  0  0  0  0
  152.4256  140.0898  159.9886 H   0  0  0  0  0  0  0  0  0  0  0  0
  150.8884  137.8888  156.8508 H   0  0  0  0  0  0  0  0  0  0  0  0
  152.4440  138.1484  157.5879 H   0  0  0  0  0  0  0  0  0  0  0  0
  150.5779  138.9981  159.5683 H   0  0  0  0  0  0  0  0  0  0  0  0
  151.2769  136.7567  160.3311 H   0  0  0  0  0  0  0  0  0  0  0  0
  148.8935  137.6418  158.0876 H   0  0  0  0  0  0  0  0  0  0  0  0
  149.7757  136.2191  158.6537 H   0  0  0  0  0  0  0  0  0  0  0  0
  147.7369  137.0809  162.4694 H   0  0  0  0  0  0  0  0  0  0  0  0
  146.6860  135.0614  163.4539 H   0  0  0  0  0  0  0  0  0  0  0  0
  146.6046  132.9396  162.1569 H   0  0  0  0  0  0  0  0  0  0  0  0
  147.5807  132.8465  159.8705 H   0  0  0  0  0  0  0  0  0  0  0  0
  148.6287  134.8323  158.8808 H   0  0  0  0  0  0  0  0  0  0  0  0
  1  2  1  0  0  0  0
  1 23  1  0  0  0  0
  2  3  1  0  0  0  0
  2 24  1  0  0  0  0
  2 25  1  0  0  0  0
  3 11  1  0  0  0  0
  3  4  2  0  0  0  0
  4  5  1  0  0  0  0
  5 10  2  0  0  0  0
  5  6  1  0  0  0  0
  6  7  2  0  0  0  0
  6 26  1  0  0  0  0
  7  8  1  0  0  0  0
  7 27  1  0  0  0  0
  8  9  2  0  0  0  0
  8 28  1  0  0  0  0
  9 10  1  0  0  0  0
  9 29  1  0  0  0  0
 10 11  1  0  0  0  0
 11 12  1  0  0  0  0
 12 13  1  0  0  0  0
 12 30  1  0  0  0  0
 12 31  1  0  0  0  0
 13 14  1  0  0  0  0
 13 15  1  0  0  0  0
 13 32  1  0  0  0  0
 14 33  1  0  0  0  0
 15 16  1  0  0  0  0
 15 34  1  0  0  0  0
 15 35  1  0  0  0  0
 16 17  1  0  0  0  0
 17 22  1  0  0  0  0
 17 18  2  0  0  0  0
 18 19  1  0  0  0  0
 18 36  1  0  0  0  0
 19 20  2  0  0  0  0
 19 37  1  0  0  0  0
 20 21  1  0  0  0  0
 20 38  1  0  0  0  0
 21 22  2  0  0  0  0
 21 39  1  0  0  0  0
 22 40  1  0  0  0  0
M  END
> <s_m_source_file>
AV-unprocessed.smi

> <i_m_source_file_index>
2623

> <i_lp_mmshare_version>
43012

> <i_f3d_flags>
0

> <s_epik_input>
W2NIXTFbY0hdW2NIXVtjSF1jKGMxMiluKGMobjIpW0NIMl1bT0hdKVtDSDJdW0NASF0oW09IXSlbQ0gyXU9jM1tjSF1bY0hdW2NIXVtjSF1bY0hdMw==

> <s_epik_cmdline>
J2VwaWtfcHl0aG9uJywgJy1waCcsICc3LjAnLCAnLXRuJywgJzgnLCAnLW1hJywgJzIwMCcsICctbWV0YWxfYmluZGluZycsICctaW1hZScsICc8aW5maWxlLm1hZT4nLCAnLW9tYWUnLCAnPG91dGZpbGUubWFlPic=

> <r_lp_tautomer_probability>
1

> <r_epik_Ionization_Penalty>
0.0583159

> <r_epik_Ionization_Penalty_Charging>
0

> <r_epik_Ionization_Penalty_Neutral>
0.0583159

> <r_epik_State_Penalty>
0.0503525

> <r_epik_Charging_Adjusted_Penalty>
0.0503525

> <i_epik_Tot_Q>
0

> <i_epik_Tot_abs_Q>
0

> <r_epik_Metal_State_Penalty>
5.25517e-05

> <b_epik_Metal_Only>
0

> <s_lp_Force_Field>
OPLS_2005

> <r_lp_Energy>
14.6276

> <b_lp_Chiralities_Consistent>
1

> <s_lp_Variant>
AV-unprocessed.smi:2623-1

> <Gold.Version>
5.8.1

> <Gold.Id.Protein>
6NUR|6NUR_protein|mol2

> <Gold.PLP.Fitness>
51.2034

> <Gold.PLP.PLP>
-48.3449

> <Gold.PLP.part.hbond>
-4.0920

> <Gold.PLP.part.metal>
0.0000

> <Gold.PLP.part.buried>
-6.5377

> <Gold.PLP.part.nonpolar>
-38.3164

> <Gold.PLP.part.repulsive>
0.0783

> <Gold.PLP.ligand.clash>
0.0000

> <Gold.PLP.ligand.torsion>
1.3946

> <Gold.PLP.Chemscore.Hbond>
1.8502

> <Gold.PLP.Chemscore.CHOScore>
0.0000

> <Gold.PLP.Chemscore.Metal>
0.0000

> <Gold.Chemscore.Hbonds>
donor molecule, donor type, donor heavy atom, donor atom, acceptor molecule, acceptor atom, score
      L1  H     1    23       P1  7957  0.70
      P1  H  6931  6943       L1    16  0.47
      P1  H  7989  7998       L1     1  0.70

> <Gold.PLP.Chemscore.Internal.Correction>
0.0972

> <Gold.Rescore>
     Score         DG    S(hbond)    S(metal)    S(lipo)     H(rot)  DE(clash)    DE(int)     intcor
     14.20     -15.74       1.13        0.00     121.76       3.04       0.08       1.46       ----

> <Gold.Chemscore.Fitness>
14.2024

> <Gold.Chemscore.DG>
-15.7415

> <Gold.Chemscore.ZeroCoef>
-5.4800

> <Gold.Chemscore.Hbond>
1.1338

> <Gold.Chemscore.Metal>
0.0000

> <Gold.Chemscore.Lipo>
121.7634

> <Gold.Chemscore.Internal_Hbond>
0.0000

> <Gold.Chemscore.DEClash>
0.0781

> <Gold.Chemscore.DEInternal>
1.4610

> <Gold.Chemscore.Rot>
3.0358

> <Gold.Chemscore.Internal.Correction>
   9.000000E+99

> <Gold.Chemscore.Hbonds>
donor molecule, donor type, donor heavy atom, donor atom, acceptor molecule, acceptor atom, score
      L1  H     1    23       P1  7957  0.65
      P1  H  6931  6943       L1    16  0.10
      P1  H  7989  7998       L1     1  0.13

> <Gold.Chemscore.Hbond.Weighted>
-3.7867

> <Gold.Chemscore.Metal.Weighted>
-0.0000

> <Gold.Chemscore.Lipo.Weighted>
-14.2463

> <Gold.Chemscore.Internal_Hbond.Weighted>
0.0000

> <Gold.Chemscore.DEClash.Weighted>
0.0781

> <Gold.Chemscore.DEInternal.Weighted>
1.4610

> <Gold.Chemscore.Rot.Weighted>
7.7716

> <Gold.Chemscore.Internal.Correction.Weighted>
   9.000000E+99

> <Gold.Protein.RotatedTorsions>
[ 6907 6896 6895 6894 ] final  -43.05 input  -60.11 | X-H torsion
[ 7974 7965 7964 7962 ] final  -84.94 input  175.53 | X-H torsion
[ 8008 7997 7996 7995 ] final   89.16 input   59.86 | X-H torsion
[ 10167 10162 10161 10158 ] final  176.18 input  -65.29 | X-H torsion
[ 10718 10713 10712 10709 ] final  134.09 input   66.30 | X-H torsion
[ 10763 10752 10751 10750 ] final  -21.75 input  -60.55 | X-H torsion
[ 11005 11000 10999 10996 ] final  158.90 input  -57.11 | X-H torsion

> <Gold.Protein.ActiveResidues>
 VAL166  LYS551  ARG553  GLY616  TRP617  ASP618  TYR619  PRO620  LYS621  CYS622 
 ASP623  PHE694  ASN695  SER759  ASP760  ASP761  ALA762  ILE779  LEU786  VAL792 
 PHE793  MET794  SER795  GLU796  ALA797  LYS798  CYS799  TRP800  GLU811  SER814 

> <Gold.Protein.RotatedAtoms>
  150.9483  134.8886  159.7655 H   0  0  0  0  0  0  0  0  0  0  0  0  # atno 6907 bound_to 6896
  152.5109  134.3843  159.9372 H   0  0  0  0  0  0  0  0  0  0  0  0  # atno 6908 bound_to 6896
  151.3860  133.3764  159.2750 H   0  0  0  0  0  0  0  0  0  0  0  0  # atno 6909 bound_to 6896
  145.5000  140.9547  143.1765 H   0  0  0  0  0  0  0  0  0  0  0  0  # atno 7974 bound_to 7965
  155.9966  140.3364  155.6804 H   0  0  0  0  0  0  0  0  0  0  0  0  # atno 8008 bound_to 7997
  155.6348  140.0689  157.2655 H   0  0  0  0  0  0  0  0  0  0  0  0  # atno 8009 bound_to 7997
  154.4236  140.1753  156.1498 H   0  0  0  0  0  0  0  0  0  0  0  0  # atno 8010 bound_to 7997
  139.5204  144.2946  152.0433 H   0  0  0  0  0  0  0  0  0  0  0  0  # atno 10167 bound_to 10162
  157.4708  131.1080  150.9805 H   0  0  0  0  0  0  0  0  0  0  0  0  # atno 10718 bound_to 10713
  153.6410  135.6985  153.5241 H   0  0  0  0  0  0  0  0  0  0  0  0  # atno 10763 bound_to 10752
  153.2782  135.4194  155.1053 H   0  0  0  0  0  0  0  0  0  0  0  0  # atno 10764 bound_to 10752
  154.8499  135.3595  154.5954 H   0  0  0  0  0  0  0  0  0  0  0  0  # atno 10765 bound_to 10752
  140.1910  134.8407  157.2911 H   0  0  0  0  0  0  0  0  0  0  0  0  # atno 11005 bound_to 11000
  144.7785  139.6576  143.7164 LP  0  0  0  0  0  0  0  0  0  0  0  0  # atno 17320 bound_to 7965
  146.2232  139.5674  142.9604 LP  0  0  0  0  0  0  0  0  0  0  0  0  # atno 17321 bound_to 7965
  140.2395  144.4284  150.6266 LP  0  0  0  0  0  0  0  0  0  0  0  0  # atno 17342 bound_to 10162
  140.6300  143.2186  151.6516 LP  0  0  0  0  0  0  0  0  0  0  0  0  # atno 17343 bound_to 10162
  157.0571  130.5810  149.5379 LP  0  0  0  0  0  0  0  0  0  0  0  0  # atno 17370 bound_to 10713
  156.0072  130.5160  150.7870 LP  0  0  0  0  0  0  0  0  0  0  0  0  # atno 17371 bound_to 10713
  140.2160  134.4081  155.7589 LP  0  0  0  0  0  0  0  0  0  0  0  0  # atno 17394 bound_to 11000
  141.2226  133.7142  156.8414 LP  0  0  0  0  0  0  0  0  0  0  0  0  # atno 17395 bound_to 11000

$$$$
