AV-unprocessed.smi:2150|AV-procd|sdf|8757|dock1
  -GOLD-   2272011533D 1   1.00000     0.00000
 Structure written by MMmdl.
 35 36  0  0  0  0  0  0  0  0  1 V2000
  152.5305  139.8401  155.1882 O   0  0  0  0  0  0  0  0  0  0  0  0
  151.3870  139.7117  155.6279 C   0  0  0  0  0  0  0  0  0  0  0  0
  150.4017  138.7243  154.9867 C   0  0  0  0  0  0  0  0  0  0  0  0
  149.1217  139.3430  154.6053 N   0  0  0  0  0  0  0  0  0  0  0  0
  149.1336  140.7084  154.2751 C   0  0  0  0  0  0  0  0  0  0  0  0
  148.0055  141.3409  153.9214 C   0  0  0  0  0  0  0  0  0  0  0  0
  146.7812  140.5298  153.9015 C   0  0  0  0  0  0  0  0  0  0  0  0
  146.7662  139.2857  154.2059 N   0  0  0  0  0  0  0  0  0  0  0  0
  147.9515  138.6253  154.5818 C   0  0  0  0  0  0  0  0  0  0  0  0
  147.9434  137.4314  154.8826 O   0  0  0  0  0  0  0  0  0  0  0  0
  150.9272  140.3922  156.6900 N   0  0  0  0  0  0  0  0  0  0  0  0
  151.6916  141.3659  157.4729 C   0  0  1  0  0  0  0  0  0  0  0  0
  150.9188  142.7043  157.4344 C   0  0  0  0  0  0  0  0  0  0  0  0
  151.7943  143.9357  157.7249 C   0  0  0  0  0  0  0  0  0  0  0  0
  152.3792  143.9972  159.1440 C   0  0  0  0  0  0  0  0  0  0  0  0
  153.3304  142.8338  159.4722 C   0  0  0  0  0  0  0  0  0  0  0  0
  152.6091  141.6049  159.7762 N   0  0  0  0  0  0  0  0  0  0  0  0
  151.8284  140.9010  158.9421 C   0  0  0  0  0  0  0  0  0  0  0  0
  151.2285  139.9045  159.3452 O   0  0  0  0  0  0  0  0  0  0  0  0
  150.8857  138.2820  154.1149 H   0  0  0  0  0  0  0  0  0  0  0  0
  150.2245  137.8912  155.6694 H   0  0  0  0  0  0  0  0  0  0  0  0
  150.0965  141.1948  154.3348 H   0  0  0  0  0  0  0  0  0  0  0  0
  147.9441  142.3866  153.6597 H   0  0  0  0  0  0  0  0  0  0  0  0
  145.8729  141.0618  153.6075 H   0  0  0  0  0  0  0  0  0  0  0  0
  149.9802  140.2130  156.9905 H   0  0  0  0  0  0  0  0  0  0  0  0
  152.6791  141.4885  157.0243 H   0  0  0  0  0  0  0  0  0  0  0  0
  150.4981  142.8425  156.4369 H   0  0  0  0  0  0  0  0  0  0  0  0
  150.0620  142.6818  158.1102 H   0  0  0  0  0  0  0  0  0  0  0  0
  152.6050  143.9827  156.9968 H   0  0  0  0  0  0  0  0  0  0  0  0
  151.1964  144.8324  157.5591 H   0  0  0  0  0  0  0  0  0  0  0  0
  152.9316  144.9324  159.2410 H   0  0  0  0  0  0  0  0  0  0  0  0
  151.5764  144.0473  159.8811 H   0  0  0  0  0  0  0  0  0  0  0  0
  154.0470  142.6685  158.6664 H   0  0  0  0  0  0  0  0  0  0  0  0
  153.9159  143.0879  160.3559 H   0  0  0  0  0  0  0  0  0  0  0  0
  152.6846  141.2679  160.7252 H   0  0  0  0  0  0  0  0  0  0  0  0
  1  2  2  0  0  0  0
  2  3  1  0  0  0  0
  2 11  1  0  0  0  0
  3  4  1  0  0  0  0
  3 20  1  0  0  0  0
  3 21  1  0  0  0  0
  4  9  1  0  0  0  0
  4  5  1  0  0  0  0
  5  6  2  0  0  0  0
  5 22  1  0  0  0  0
  6  7  1  0  0  0  0
  6 23  1  0  0  0  0
  7  8  2  0  0  0  0
  7 24  1  0  0  0  0
  8  9  1  0  0  0  0
  9 10  2  0  0  0  0
 11 12  1  0  0  0  0
 11 25  1  0  0  0  0
 12 18  1  0  0  0  0
 12 13  1  0  0  0  0
 12 26  1  0  0  0  0
 13 14  1  0  0  0  0
 13 27  1  0  0  0  0
 13 28  1  0  0  0  0
 14 15  1  0  0  0  0
 14 29  1  0  0  0  0
 14 30  1  0  0  0  0
 15 16  1  0  0  0  0
 15 31  1  0  0  0  0
 15 32  1  0  0  0  0
 16 17  1  0  0  0  0
 16 33  1  0  0  0  0
 16 34  1  0  0  0  0
 17 18  1  0  0  0  0
 17 35  1  0  0  0  0
 18 19  2  0  0  0  0
M  END
> <s_m_source_file>
AV-unprocessed.smi

> <i_m_source_file_index>
2150

> <i_lp_mmshare_version>
43012

> <i_f3d_flags>
0

> <s_epik_input>
Tz1jMW5bY0hdW2NIXVtjSF1uMVtDSDJdQyg9TylbTkhdW0NAQEhdMltDSDJdW0NIMl1bQ0gyXVtDSDJdW05IXUMyPU8=

> <s_epik_cmdline>
J2VwaWtfcHl0aG9uJywgJy1waCcsICc3LjAnLCAnLXRuJywgJzgnLCAnLW1hJywgJzIwMCcsICctbWV0YWxfYmluZGluZycsICctaW1hZScsICc8aW5maWxlLm1hZT4nLCAnLW9tYWUnLCAnPG91dGZpbGUubWFlPic=

> <r_lp_tautomer_probability>
1

> <r_epik_Ionization_Penalty>
6.25431e-06

> <r_epik_Ionization_Penalty_Charging>
1.47848e-08

> <r_epik_Ionization_Penalty_Neutral>
6.23953e-06

> <r_epik_State_Penalty>
-0

> <r_epik_Charging_Adjusted_Penalty>
1.47848e-08

> <i_epik_Tot_Q>
0

> <i_epik_Tot_abs_Q>
0

> <r_epik_Metal_State_Penalty>
-0

> <b_epik_Metal_Only>
0

> <s_lp_Force_Field>
OPLS_2005

> <r_lp_Energy>
14.2725

> <b_lp_Chiralities_Consistent>
1

> <s_lp_Variant>
AV-unprocessed.smi:2150-2

> <Gold.Version>
5.8.1

> <Gold.Id.Protein>
6NUR|6NUR_protein|mol2

> <Gold.PLP.Fitness>
41.8762

> <Gold.PLP.PLP>
-36.3152

> <Gold.PLP.part.hbond>
-2.0000

> <Gold.PLP.part.metal>
0.0000

> <Gold.PLP.part.buried>
-2.5094

> <Gold.PLP.part.nonpolar>
-31.9243

> <Gold.PLP.part.repulsive>
0.4952

> <Gold.PLP.ligand.clash>
0.0000

> <Gold.PLP.ligand.torsion>
0.4127

> <Gold.PLP.Chemscore.Hbond>
1.1348

> <Gold.PLP.Chemscore.CHOScore>
0.9934

> <Gold.PLP.Chemscore.Metal>
0.0000

> <Gold.Chemscore.Hbonds>
donor molecule, donor type, donor heavy atom, donor atom, acceptor molecule, acceptor atom, score
      P1  H  7989  7998       L1     1  0.17
      P1  H  7997  8009       L1     1  0.89
      L1  C     7    24       P1 10175  1.00

> <Gold.PLP.Chemscore.Internal.Correction>
0.0018

> <Gold.Rescore>
     Score         DG    S(hbond)    S(metal)    S(lipo)     H(rot)  DE(clash)    DE(int)     intcor
     13.76     -14.52       0.99        0.00      85.97       1.69       0.38       0.38       ----

> <Gold.Chemscore.Fitness>
13.7641

> <Gold.Chemscore.DG>
-14.5232

> <Gold.Chemscore.ZeroCoef>
-5.4800

> <Gold.Chemscore.Hbond>
0.9949

> <Gold.Chemscore.Metal>
0.0000

> <Gold.Chemscore.Lipo>
85.9723

> <Gold.Chemscore.Internal_Hbond>
0.0000

> <Gold.Chemscore.DEClash>
0.3754

> <Gold.Chemscore.DEInternal>
0.3837

> <Gold.Chemscore.Rot>
1.6947

> <Gold.Chemscore.Internal.Correction>
   9.000000E+99

> <Gold.Chemscore.Hbonds>
donor molecule, donor type, donor heavy atom, donor atom, acceptor molecule, acceptor atom, score
      P1  H  7997  8009       L1     1  0.87

> <Gold.Chemscore.Hbond.Weighted>
-3.3229

> <Gold.Chemscore.Metal.Weighted>
-0.0000

> <Gold.Chemscore.Lipo.Weighted>
-10.0588

> <Gold.Chemscore.Internal_Hbond.Weighted>
0.0000

> <Gold.Chemscore.DEClash.Weighted>
0.3754

> <Gold.Chemscore.DEInternal.Weighted>
0.3837

> <Gold.Chemscore.Rot.Weighted>
4.3385

> <Gold.Chemscore.Internal.Correction.Weighted>
   9.000000E+99

> <Gold.Protein.RotatedTorsions>
[ 6907 6896 6895 6894 ] final   10.17 input  -60.11 | X-H torsion
[ 7974 7965 7964 7962 ] final   62.99 input  175.53 | X-H torsion
[ 8008 7997 7996 7995 ] final -135.26 input   59.86 | X-H torsion
[ 10167 10162 10161 10158 ] final  117.37 input  -65.29 | X-H torsion
[ 10718 10713 10712 10709 ] final   97.30 input   66.30 | X-H torsion
[ 10763 10752 10751 10750 ] final -129.31 input  -60.55 | X-H torsion
[ 11005 11000 10999 10996 ] final  -75.28 input  -57.11 | X-H torsion

> <Gold.Protein.ActiveResidues>
 VAL166  LYS551  ARG553  GLY616  TRP617  ASP618  TYR619  PRO620  LYS621  CYS622 
 ASP623  PHE694  ASN695  SER759  ASP760  ASP761  ALA762  ILE779  LEU786  VAL792 
 PHE793  MET794  SER795  GLU796  ALA797  LYS798  CYS799  TRP800  GLU811  SER814 

> <Gold.Protein.RotatedAtoms>
  151.7340  135.0869  160.0304 H   0  0  0  0  0  0  0  0  0  0  0  0  # atno 6907 bound_to 6896
  152.3523  133.6190  159.5962 H   0  0  0  0  0  0  0  0  0  0  0  0  # atno 6908 bound_to 6896
  150.7548  133.9471  159.3516 H   0  0  0  0  0  0  0  0  0  0  0  0  # atno 6909 bound_to 6896
  145.8669  139.3352  143.0785 H   0  0  0  0  0  0  0  0  0  0  0  0  # atno 7974 bound_to 7965
  155.3758  140.0491  157.3044 H   0  0  0  0  0  0  0  0  0  0  0  0  # atno 8008 bound_to 7997
  154.5107  140.2190  155.9124 H   0  0  0  0  0  0  0  0  0  0  0  0  # atno 8009 bound_to 7997
  156.1579  140.3122  155.8763 H   0  0  0  0  0  0  0  0  0  0  0  0  # atno 8010 bound_to 7997
  139.6183  144.7096  151.2690 H   0  0  0  0  0  0  0  0  0  0  0  0  # atno 10167 bound_to 10162
  157.6914  131.0605  150.4622 H   0  0  0  0  0  0  0  0  0  0  0  0  # atno 10718 bound_to 10713
  154.8757  135.3899  154.3900 H   0  0  0  0  0  0  0  0  0  0  0  0  # atno 10763 bound_to 10752
  153.4637  135.7029  153.6040 H   0  0  0  0  0  0  0  0  0  0  0  0  # atno 10764 bound_to 10752
  153.4528  135.3830  155.2262 H   0  0  0  0  0  0  0  0  0  0  0  0  # atno 10765 bound_to 10752
  141.1644  133.6941  156.7493 H   0  0  0  0  0  0  0  0  0  0  0  0  # atno 11005 bound_to 11000
  145.9182  140.9133  143.0419 LP  0  0  0  0  0  0  0  0  0  0  0  0  # atno 17320 bound_to 7965
  144.6726  140.1253  143.7447 LP  0  0  0  0  0  0  0  0  0  0  0  0  # atno 17321 bound_to 7965
  140.7365  143.6704  150.8086 LP  0  0  0  0  0  0  0  0  0  0  0  0  # atno 17342 bound_to 10162
  140.0311  143.5443  152.2759 LP  0  0  0  0  0  0  0  0  0  0  0  0  # atno 17343 bound_to 10162
  156.4966  130.4107  149.6377 LP  0  0  0  0  0  0  0  0  0  0  0  0  # atno 17370 bound_to 10713
  156.3367  130.7360  151.2299 LP  0  0  0  0  0  0  0  0  0  0  0  0  # atno 17371 bound_to 10713
  140.2616  134.8462  157.3763 LP  0  0  0  0  0  0  0  0  0  0  0  0  # atno 17394 bound_to 11000
  140.1606  134.4733  155.7897 LP  0  0  0  0  0  0  0  0  0  0  0  0  # atno 17395 bound_to 11000

$$$$
