AV-unprocessed.smi:1199|AV-procd|sdf|5015|dock2
  -GOLD-   22720 4 33D 1   1.00000     0.00000
 Structure written by MMmdl.
 40 41  0  0  0  0  0  0  0  0  2 V2000
  150.7570  140.9426  155.7344 C   0  0  0  0  0  0  0  0  0  0  0  0
  150.4055  141.8019  156.9618 C   0  0  1  0  0  0  0  0  0  0  0  0
  151.1800  143.1431  156.9930 C   0  0  0  0  0  0  0  0  0  0  0  0
  151.5054  143.6681  158.3213 N   0  0  0  0  0  0  0  0  0  0  0  0
  150.3381  144.1298  159.0673 C   0  0  0  0  0  0  0  0  0  0  0  0
  150.7086  144.6292  160.4755 C   0  0  0  0  0  0  0  0  0  0  0  0
  151.4025  143.6085  161.1843 O   0  0  0  0  0  0  0  0  0  0  0  0
  152.5824  143.1844  160.5109 C   0  0  0  0  0  0  0  0  0  0  0  0
  152.2124  142.6648  159.1114 C   0  0  0  0  0  0  0  0  0  0  0  0
  148.9684  142.0581  156.9123 N   0  0  0  0  0  0  0  0  0  0  0  0
  148.0215  141.2871  157.4695 C   0  0  0  0  0  0  0  0  0  0  0  0
  148.2755  140.2556  158.0938 O   0  0  0  0  0  0  0  0  0  0  0  0
  146.5739  141.7648  157.2735 C   0  0  0  0  0  0  0  0  0  0  0  0
  146.1311  142.7584  158.2626 N   0  0  0  0  0  0  0  0  0  0  0  0
  146.6263  142.5078  159.6131 N   0  5  0  0  0  0  0  0  0  0  0  0
  146.3095  143.3796  160.6070 C   0  0  0  0  0  0  0  0  0  0  0  0
  146.7079  143.2467  161.7618 O   0  0  0  0  0  0  0  0  0  0  0  0
  145.4569  144.5103  160.2793 C   0  0  0  0  0  0  0  0  0  0  0  0
  144.9894  144.7003  159.0297 C   0  0  0  0  0  0  0  0  0  0  0  0
  145.3107  143.7964  157.9318 C   0  0  0  0  0  0  0  0  0  0  0  0
  144.8798  143.9586  156.7899 O   0  0  0  0  0  0  0  0  0  0  0  0
  151.8124  140.6801  155.6988 H   0  0  0  0  0  0  0  0  0  0  0  0
  150.5202  141.4636  154.8059 H   0  0  0  0  0  0  0  0  0  0  0  0
  150.1944  140.0083  155.7401 H   0  0  0  0  0  0  0  0  0  0  0  0
  150.6237  141.2289  157.8652 H   0  0  0  0  0  0  0  0  0  0  0  0
  152.0866  143.0606  156.3914 H   0  0  0  0  0  0  0  0  0  0  0  0
  150.5738  143.8961  156.4869 H   0  0  0  0  0  0  0  0  0  0  0  0
  149.8582  144.9509  158.5373 H   0  0  0  0  0  0  0  0  0  0  0  0
  149.6052  143.3254  159.1466 H   0  0  0  0  0  0  0  0  0  0  0  0
  151.3293  145.5246  160.4151 H   0  0  0  0  0  0  0  0  0  0  0  0
  149.8102  144.9007  161.0297 H   0  0  0  0  0  0  0  0  0  0  0  0
  153.2906  144.0118  160.4424 H   0  0  0  0  0  0  0  0  0  0  0  0
  153.0629  142.3981  161.0931 H   0  0  0  0  0  0  0  0  0  0  0  0
  151.5940  141.7713  159.2126 H   0  0  0  0  0  0  0  0  0  0  0  0
  153.1209  142.3574  158.5925 H   0  0  0  0  0  0  0  0  0  0  0  0
  148.6693  142.8838  156.4145 H   0  0  0  0  0  0  0  0  0  0  0  0
  146.4675  142.1814  156.2702 H   0  0  0  0  0  0  0  0  0  0  0  0
  145.9240  140.8884  157.2963 H   0  0  0  0  0  0  0  0  0  0  0  0
  145.1904  145.2119  161.0559 H   0  0  0  0  0  0  0  0  0  0  0  0
  144.3575  145.5530  158.8319 H   0  0  0  0  0  0  0  0  0  0  0  0
  1  2  1  0  0  0  0
  1 22  1  0  0  0  0
  1 23  1  0  0  0  0
  1 24  1  0  0  0  0
  2  3  1  0  0  0  0
  2 10  1  0  0  0  0
  2 25  1  0  0  0  0
  3  4  1  0  0  0  0
  3 26  1  0  0  0  0
  3 27  1  0  0  0  0
  4  9  1  0  0  0  0
  4  5  1  0  0  0  0
  5  6  1  0  0  0  0
  5 28  1  0  0  0  0
  5 29  1  0  0  0  0
  6  7  1  0  0  0  0
  6 30  1  0  0  0  0
  6 31  1  0  0  0  0
  7  8  1  0  0  0  0
  8  9  1  0  0  0  0
  8 32  1  0  0  0  0
  8 33  1  0  0  0  0
  9 34  1  0  0  0  0
  9 35  1  0  0  0  0
 10 11  1  0  0  0  0
 10 36  1  0  0  0  0
 11 12  2  0  0  0  0
 11 13  1  0  0  0  0
 13 37  1  0  0  0  0
 13 38  1  0  0  0  0
 13 14  1  0  0  0  0
 14 15  1  0  0  0  0
 14 20  1  0  0  0  0
 15 16  1  0  0  0  0
 16 17  2  0  0  0  0
 16 18  1  0  0  0  0
 18 39  1  0  0  0  0
 18 19  2  0  0  0  0
 19 40  1  0  0  0  0
 19 20  1  0  0  0  0
 20 21  2  0  0  0  0
M  CHG  1  15  -1
M  END
> <s_m_source_file>
AV-unprocessed.smi

> <i_m_source_file_index>
1199

> <i_lp_mmshare_version>
43012

> <i_f3d_flags>
0

> <s_epik_input>
W0NIMl0xW0NIMl1PW0NIMl1bQ0gyXU4xW0NIMl1bQ0BASF0oW0NIM10pW05IXUMoPU8pW0NIMl1uMltuSF1jKD1PKVtjSF1bY0hdYzI9Tw==

> <s_epik_cmdline>
J2VwaWtfcHl0aG9uJywgJy1waCcsICc3LjAnLCAnLXRuJywgJzgnLCAnLW1hJywgJzIwMCcsICctbWV0YWxfYmluZGluZycsICctaW1hZScsICc8aW5maWxlLm1hZT4nLCAnLW9tYWUnLCAnPG91dGZpbGUubWFlPic=

> <r_lp_tautomer_probability>
1

> <r_epik_Ionization_Penalty>
0.334996

> <r_epik_Ionization_Penalty_Charging>
0.0976136

> <r_epik_Ionization_Penalty_Neutral>
0.237382

> <r_epik_State_Penalty>
0.26804

> <r_epik_Charging_Adjusted_Penalty>
0.365653

> <i_epik_Tot_Q>
-1

> <i_epik_Tot_abs_Q>
1

> <r_epik_Metal_State_Penalty>
0.26804

> <b_epik_Metal_Only>
0

> <s_lp_Force_Field>
OPLS_2005

> <r_lp_Energy>
39.9629

> <b_lp_Chiralities_Consistent>
1

> <s_lp_Variant>
AV-unprocessed.smi:1199-2

> <Gold.Version>
5.8.1

> <Gold.Id.Protein>
6NUR|6NUR_protein|mol2

> <Gold.PLP.Fitness>
42.1624

> <Gold.PLP.PLP>
-33.3033

> <Gold.PLP.part.hbond>
-4.7088

> <Gold.PLP.part.metal>
0.0000

> <Gold.PLP.part.buried>
-5.5000

> <Gold.PLP.part.nonpolar>
-23.1127

> <Gold.PLP.part.repulsive>
0.4561

> <Gold.PLP.ligand.clash>
0.0000

> <Gold.PLP.ligand.torsion>
1.4839

> <Gold.PLP.Chemscore.Hbond>
3.8960

> <Gold.PLP.Chemscore.CHOScore>
0.0000

> <Gold.PLP.Chemscore.Metal>
0.0000

> <Gold.Chemscore.Hbonds>
donor molecule, donor type, donor heavy atom, donor atom, acceptor molecule, acceptor atom, score
      L1  H    10    36       P1  8028  1.00
      P1  H  6933  6944       L1    17  0.86
      P1  H  6934  6946       L1    15  1.90

> <Gold.PLP.Chemscore.Internal.Correction>
0.1391

> <Gold.Rescore>
     Score         DG    S(hbond)    S(metal)    S(lipo)     H(rot)  DE(clash)    DE(int)     intcor
     11.97     -13.35       1.58        0.00      72.47       2.30       0.05       1.34       ----

> <Gold.Chemscore.Fitness>
11.9659

> <Gold.Chemscore.DG>
-13.3546

> <Gold.Chemscore.ZeroCoef>
-5.4800

> <Gold.Chemscore.Hbond>
1.5784

> <Gold.Chemscore.Metal>
0.0000

> <Gold.Chemscore.Lipo>
72.4717

> <Gold.Chemscore.Internal_Hbond>
0.0000

> <Gold.Chemscore.DEClash>
0.0462

> <Gold.Chemscore.DEInternal>
1.3425

> <Gold.Chemscore.Rot>
2.2955

> <Gold.Chemscore.Internal.Correction>
   9.000000E+99

> <Gold.Chemscore.Hbonds>
donor molecule, donor type, donor heavy atom, donor atom, acceptor molecule, acceptor atom, score
      L1  H    10    36       P1  8028  0.91
      P1  H  6933  6944       L1    17  0.28
      P1  H  6934  6946       L1    15  0.20

> <Gold.Chemscore.Hbond.Weighted>
-5.2720

> <Gold.Chemscore.Metal.Weighted>
-0.0000

> <Gold.Chemscore.Lipo.Weighted>
-8.4792

> <Gold.Chemscore.Internal_Hbond.Weighted>
0.0000

> <Gold.Chemscore.DEClash.Weighted>
0.0462

> <Gold.Chemscore.DEInternal.Weighted>
1.3425

> <Gold.Chemscore.Rot.Weighted>
5.8766

> <Gold.Chemscore.Internal.Correction.Weighted>
   9.000000E+99

> <Gold.Protein.RotatedTorsions>
[ 6907 6896 6895 6894 ] final -163.49 input  -60.11 | X-H torsion
[ 7974 7965 7964 7962 ] final   -1.28 input  175.53 | X-H torsion
[ 8008 7997 7996 7995 ] final  107.10 input   59.86 | X-H torsion
[ 10167 10162 10161 10158 ] final   -6.15 input  -65.29 | X-H torsion
[ 10718 10713 10712 10709 ] final   25.39 input   66.30 | X-H torsion
[ 10763 10752 10751 10750 ] final  -57.40 input  -60.55 | X-H torsion
[ 11005 11000 10999 10996 ] final -145.33 input  -57.11 | X-H torsion

> <Gold.Protein.ActiveResidues>
 VAL166  LYS551  ARG553  GLY616  TRP617  ASP618  TYR619  PRO620  LYS621  CYS622 
 ASP623  PHE694  ASN695  SER759  ASP760  ASP761  ALA762  ILE779  LEU786  VAL792 
 PHE793  MET794  SER795  GLU796  ALA797  LYS798  CYS799  TRP800  GLU811  SER814 

> <Gold.Protein.RotatedAtoms>
  151.3969  133.3770  159.2727 H   0  0  0  0  0  0  0  0  0  0  0  0  # atno 6907 bound_to 6896
  150.9463  134.8868  159.7654 H   0  0  0  0  0  0  0  0  0  0  0  0  # atno 6908 bound_to 6896
  152.5093  134.3922  159.9440 H   0  0  0  0  0  0  0  0  0  0  0  0  # atno 6909 bound_to 6896
  146.2418  140.1397  142.8336 H   0  0  0  0  0  0  0  0  0  0  0  0  # atno 7974 bound_to 7965
  156.1797  140.3101  155.9126 H   0  0  0  0  0  0  0  0  0  0  0  0  # atno 8008 bound_to 7997
  155.3410  140.0466  157.3062 H   0  0  0  0  0  0  0  0  0  0  0  0  # atno 8009 bound_to 7997
  154.5329  140.2236  155.8783 H   0  0  0  0  0  0  0  0  0  0  0  0  # atno 8010 bound_to 7997
  140.6987  143.6227  150.8597 H   0  0  0  0  0  0  0  0  0  0  0  0  # atno 10167 bound_to 10162
  157.1928  130.6854  149.6157 H   0  0  0  0  0  0  0  0  0  0  0  0  # atno 10718 bound_to 10713
  154.2218  135.6376  153.5147 H   0  0  0  0  0  0  0  0  0  0  0  0  # atno 10763 bound_to 10752
  152.9967  135.5498  154.6105 H   0  0  0  0  0  0  0  0  0  0  0  0  # atno 10764 bound_to 10752
  154.5567  135.2906  155.0931 H   0  0  0  0  0  0  0  0  0  0  0  0  # atno 10765 bound_to 10752
  140.7933  134.2943  157.5005 H   0  0  0  0  0  0  0  0  0  0  0  0  # atno 11005 bound_to 11000
  145.0257  140.8830  143.5140 LP  0  0  0  0  0  0  0  0  0  0  0  0  # atno 17320 bound_to 7965
  145.1453  139.2547  143.5469 LP  0  0  0  0  0  0  0  0  0  0  0  0  # atno 17321 bound_to 7965
  139.9947  143.5808  152.2897 LP  0  0  0  0  0  0  0  0  0  0  0  0  # atno 17342 bound_to 10162
  139.6476  144.7659  151.2212 LP  0  0  0  0  0  0  0  0  0  0  0  0  # atno 17343 bound_to 10162
  155.9709  130.4609  150.6089 LP  0  0  0  0  0  0  0  0  0  0  0  0  # atno 17370 bound_to 10713
  157.3844  131.0786  151.1449 LP  0  0  0  0  0  0  0  0  0  0  0  0  # atno 17371 bound_to 10713
  139.8729  134.9387  156.3722 LP  0  0  0  0  0  0  0  0  0  0  0  0  # atno 17394 bound_to 11000
  140.9368  133.7542  156.0094 LP  0  0  0  0  0  0  0  0  0  0  0  0  # atno 17395 bound_to 11000

$$$$
