AV-unprocessed.smi:338|AV-procd|sdf|2375|dock6
  -GOLD-   2262022293D 1   1.00000     0.00000
 Structure written by MMmdl.
 41 43  0  0  0  0  0  0  0  0  1 V2000
  147.3372  134.8159  161.1972 C   0  0  0  0  0  0  0  0  0  0  0  0
  147.7213  136.0294  160.3519 C   0  0  0  0  0  0  0  0  0  0  0  0
  147.5739  137.1529  160.8322 O   0  0  0  0  0  0  0  0  0  0  0  0
  148.2577  135.7827  158.9823 C   0  0  0  0  0  0  0  0  0  0  0  0
  148.2409  134.4935  158.4008 C   0  0  0  0  0  0  0  0  0  0  0  0
  148.7524  134.2918  157.1059 C   0  0  0  0  0  0  0  0  0  0  0  0
  149.2856  135.3725  156.3809 C   0  0  0  0  0  0  0  0  0  0  0  0
  149.3157  136.6660  156.9374 C   0  0  0  0  0  0  0  0  0  0  0  0
  149.8564  137.6664  156.1582 O   0  0  0  0  0  0  0  0  0  0  0  0
  149.8610  138.9932  156.6689 C   0  0  0  0  0  0  0  0  0  0  0  0
  151.0516  139.7547  156.0683 C   0  0  1  0  0  0  0  0  0  0  0  0
  150.9738  139.6708  154.6587 O   0  0  0  0  0  0  0  0  0  0  0  0
  151.0836  141.2335  156.5015 C   0  0  0  0  0  0  0  0  0  0  0  0
  151.6233  141.4104  157.8378 N   0  0  0  0  0  0  0  0  0  0  0  0
  152.0531  140.4472  158.6757 C   0  0  0  0  0  0  0  0  0  0  0  0
  152.5141  140.8328  159.8621 N   0  0  0  0  0  0  0  0  0  0  0  0
  152.3713  142.2076  159.7839 C   0  0  0  0  0  0  0  0  0  0  0  0
  152.6815  143.2171  160.7231 C   0  0  0  0  0  0  0  0  0  0  0  0
  152.4458  144.5738  160.4176 C   0  0  0  0  0  0  0  0  0  0  0  0
  151.8977  144.9418  159.1716 C   0  0  0  0  0  0  0  0  0  0  0  0
  151.5811  143.9538  158.2194 C   0  0  0  0  0  0  0  0  0  0  0  0
  151.8174  142.6013  158.5284 C   0  0  0  0  0  0  0  0  0  0  0  0
  148.7968  136.8617  158.2427 C   0  0  0  0  0  0  0  0  0  0  0  0
  146.5591  134.2348  160.7015 H   0  0  0  0  0  0  0  0  0  0  0  0
  146.9584  135.1326  162.1694 H   0  0  0  0  0  0  0  0  0  0  0  0
  148.2040  134.1755  161.3618 H   0  0  0  0  0  0  0  0  0  0  0  0
  147.8389  133.6422  158.9293 H   0  0  0  0  0  0  0  0  0  0  0  0
  148.7353  133.3050  156.6673 H   0  0  0  0  0  0  0  0  0  0  0  0
  149.6762  135.2069  155.3875 H   0  0  0  0  0  0  0  0  0  0  0  0
  148.9302  139.4905  156.3906 H   0  0  0  0  0  0  0  0  0  0  0  0
  149.9310  138.9891  157.7581 H   0  0  0  0  0  0  0  0  0  0  0  0
  151.9760  139.2629  156.3738 H   0  0  0  0  0  0  0  0  0  0  0  0
  150.1052  139.3815  154.4239 H   0  0  0  0  0  0  0  0  0  0  0  0
  151.6797  141.8226  155.8027 H   0  0  0  0  0  0  0  0  0  0  0  0
  150.0781  141.6556  156.4848 H   0  0  0  0  0  0  0  0  0  0  0  0
  152.0229  139.4031  158.3998 H   0  0  0  0  0  0  0  0  0  0  0  0
  153.1023  142.9470  161.6803 H   0  0  0  0  0  0  0  0  0  0  0  0
  152.6875  145.3364  161.1434 H   0  0  0  0  0  0  0  0  0  0  0  0
  151.7213  145.9834  158.9467 H   0  0  0  0  0  0  0  0  0  0  0  0
  151.1618  144.2315  157.2637 H   0  0  0  0  0  0  0  0  0  0  0  0
  148.8061  137.8436  158.6915 H   0  0  0  0  0  0  0  0  0  0  0  0
  1  2  1  0  0  0  0
  1 24  1  0  0  0  0
  1 25  1  0  0  0  0
  1 26  1  0  0  0  0
  2  3  2  0  0  0  0
  2  4  1  0  0  0  0
  4 23  1  0  0  0  0
  4  5  2  0  0  0  0
  5  6  1  0  0  0  0
  5 27  1  0  0  0  0
  6  7  2  0  0  0  0
  6 28  1  0  0  0  0
  7  8  1  0  0  0  0
  7 29  1  0  0  0  0
  8  9  1  0  0  0  0
  8 23  2  0  0  0  0
  9 10  1  0  0  0  0
 10 11  1  0  0  0  0
 10 30  1  0  0  0  0
 10 31  1  0  0  0  0
 11 12  1  0  0  0  0
 11 13  1  0  0  0  0
 11 32  1  0  0  0  0
 12 33  1  0  0  0  0
 13 14  1  0  0  0  0
 13 34  1  0  0  0  0
 13 35  1  0  0  0  0
 14 22  1  0  0  0  0
 14 15  1  0  0  0  0
 15 16  2  0  0  0  0
 15 36  1  0  0  0  0
 16 17  1  0  0  0  0
 17 22  2  0  0  0  0
 17 18  1  0  0  0  0
 18 19  2  0  0  0  0
 18 37  1  0  0  0  0
 19 20  1  0  0  0  0
 19 38  1  0  0  0  0
 20 21  2  0  0  0  0
 20 39  1  0  0  0  0
 21 22  1  0  0  0  0
 21 40  1  0  0  0  0
 23 41  1  0  0  0  0
M  END
> <s_m_source_file>
AV-unprocessed.smi

> <i_m_source_file_index>
338

> <i_lp_mmshare_version>
43012

> <i_f3d_flags>
0

> <s_epik_input>
W0NIM11DKD1PKWMxW2NIXVtjSF1bY0hdYyhbY0hdMSlPW0NIMl1bQ0BIXShbT0hdKVtDSDJdbihbY0hdbjIpYyhjMjMpW2NIXVtjSF1bY0hdW2NIXTM=

> <s_epik_cmdline>
J2VwaWtfcHl0aG9uJywgJy1waCcsICc3LjAnLCAnLXRuJywgJzgnLCAnLW1hJywgJzIwMCcsICctbWV0YWxfYmluZGluZycsICctaW1hZScsICc8aW5maWxlLm1hZT4nLCAnLW9tYWUnLCAnPG91dGZpbGUubWFlPic=

> <r_lp_tautomer_probability>
0.99995

> <r_epik_Ionization_Penalty>
0.0640132

> <r_epik_Ionization_Penalty_Charging>
0

> <r_epik_Ionization_Penalty_Neutral>
0.0640132

> <r_epik_State_Penalty>
0.0557325

> <r_epik_Charging_Adjusted_Penalty>
0.0557325

> <i_epik_Tot_Q>
0

> <i_epik_Tot_abs_Q>
0

> <r_epik_Metal_State_Penalty>
5.8435e-05

> <b_epik_Metal_Only>
0

> <s_lp_Force_Field>
OPLS_2005

> <r_lp_Energy>
20.9332

> <b_lp_Chiralities_Consistent>
1

> <s_lp_Variant>
AV-unprocessed.smi:338-2

> <Gold.Version>
5.8.1

> <Gold.Id.Protein>
6NUR|6NUR_protein|mol2

> <Gold.PLP.Fitness>
50.3902

> <Gold.PLP.PLP>
-42.7528

> <Gold.PLP.part.hbond>
-3.0000

> <Gold.PLP.part.metal>
0.0000

> <Gold.PLP.part.buried>
-6.1539

> <Gold.PLP.part.nonpolar>
-33.7117

> <Gold.PLP.part.repulsive>
0.0132

> <Gold.PLP.ligand.clash>
0.0000

> <Gold.PLP.ligand.torsion>
0.4085

> <Gold.PLP.Chemscore.Hbond>
2.7600

> <Gold.PLP.Chemscore.CHOScore>
0.0000

> <Gold.PLP.Chemscore.Metal>
0.0000

> <Gold.Chemscore.Hbonds>
donor molecule, donor type, donor heavy atom, donor atom, acceptor molecule, acceptor atom, score
      P1  H  6931  6943       L1     3  0.68
      P1  H  6934  6947       L1     3  0.99
      P1  H  7989  7998       L1    12  1.00

> <Gold.PLP.Chemscore.Internal.Correction>
0.1745

> <Gold.Rescore>
     Score         DG    S(hbond)    S(metal)    S(lipo)     H(rot)  DE(clash)    DE(int)     intcor
     20.61     -21.09       2.72        0.00     108.29       2.40       0.14       0.35       ----

> <Gold.Chemscore.Fitness>
20.6081

> <Gold.Chemscore.DG>
-21.0940

> <Gold.Chemscore.ZeroCoef>
-5.4800

> <Gold.Chemscore.Hbond>
2.7214

> <Gold.Chemscore.Metal>
0.0000

> <Gold.Chemscore.Lipo>
108.2882

> <Gold.Chemscore.Internal_Hbond>
0.0000

> <Gold.Chemscore.DEClash>
0.1377

> <Gold.Chemscore.DEInternal>
0.3482

> <Gold.Chemscore.Rot>
2.4005

> <Gold.Chemscore.Internal.Correction>
   9.000000E+99

> <Gold.Chemscore.Hbonds>
donor molecule, donor type, donor heavy atom, donor atom, acceptor molecule, acceptor atom, score
      P1  H  6931  6943       L1     3  0.65
      P1  H  6934  6947       L1     3  0.93
      P1  H  7989  7998       L1    12  0.82

> <Gold.Chemscore.Hbond.Weighted>
-9.0895

> <Gold.Chemscore.Metal.Weighted>
-0.0000

> <Gold.Chemscore.Lipo.Weighted>
-12.6697

> <Gold.Chemscore.Internal_Hbond.Weighted>
0.0000

> <Gold.Chemscore.DEClash.Weighted>
0.1377

> <Gold.Chemscore.DEInternal.Weighted>
0.3482

> <Gold.Chemscore.Rot.Weighted>
6.1453

> <Gold.Chemscore.Internal.Correction.Weighted>
   9.000000E+99

> <Gold.Protein.RotatedTorsions>
[ 6907 6896 6895 6894 ] final -156.83 input  -60.11 | X-H torsion
[ 7974 7965 7964 7962 ] final  -79.14 input  175.53 | X-H torsion
[ 8008 7997 7996 7995 ] final  148.64 input   59.86 | X-H torsion
[ 10167 10162 10161 10158 ] final  -25.05 input  -65.29 | X-H torsion
[ 10718 10713 10712 10709 ] final -114.68 input   66.30 | X-H torsion
[ 10763 10752 10751 10750 ] final   -3.38 input  -60.55 | X-H torsion
[ 11005 11000 10999 10996 ] final -128.27 input  -57.11 | X-H torsion

> <Gold.Protein.ActiveResidues>
 VAL166  LYS551  ARG553  GLY616  TRP617  ASP618  TYR619  PRO620  LYS621  CYS622 
 ASP623  PHE694  ASN695  SER759  ASP760  ASP761  ALA762  ILE779  LEU786  VAL792 
 PHE793  MET794  SER795  GLU796  ALA797  LYS798  CYS799  TRP800  GLU811  SER814 

> <Gold.Protein.RotatedAtoms>
  151.2936  133.4154  159.2634 H   0  0  0  0  0  0  0  0  0  0  0  0  # atno 6907 bound_to 6896
  151.0256  134.9502  159.8093 H   0  0  0  0  0  0  0  0  0  0  0  0  # atno 6908 bound_to 6896
  152.5334  134.2898  159.9091 H   0  0  0  0  0  0  0  0  0  0  0  0  # atno 6909 bound_to 6896
  145.5772  140.9455  143.1363 H   0  0  0  0  0  0  0  0  0  0  0  0  # atno 7974 bound_to 7965
  156.2784  140.2123  156.5731 H   0  0  0  0  0  0  0  0  0  0  0  0  # atno 8008 bound_to 7997
  154.7119  140.0511  157.0581 H   0  0  0  0  0  0  0  0  0  0  0  0  # atno 8009 bound_to 7997
  155.0594  140.3165  155.4668 H   0  0  0  0  0  0  0  0  0  0  0  0  # atno 8010 bound_to 7997
  140.7287  143.4299  151.0818 H   0  0  0  0  0  0  0  0  0  0  0  0  # atno 10167 bound_to 10162
  156.0846  130.6040  150.8807 H   0  0  0  0  0  0  0  0  0  0  0  0  # atno 10718 bound_to 10713
  153.3706  135.6994  153.6641 H   0  0  0  0  0  0  0  0  0  0  0  0  # atno 10763 bound_to 10752
  153.5293  135.3595  155.2669 H   0  0  0  0  0  0  0  0  0  0  0  0  # atno 10764 bound_to 10752
  154.8680  135.4176  154.2983 H   0  0  0  0  0  0  0  0  0  0  0  0  # atno 10765 bound_to 10752
  140.9530  134.1040  157.4043 H   0  0  0  0  0  0  0  0  0  0  0  0  # atno 11005 bound_to 11000
  144.7410  139.7448  143.7310 LP  0  0  0  0  0  0  0  0  0  0  0  0  # atno 17320 bound_to 7965
  146.1742  139.4905  142.9908 LP  0  0  0  0  0  0  0  0  0  0  0  0  # atno 17321 bound_to 7965
  139.7955  143.8158  152.3157 LP  0  0  0  0  0  0  0  0  0  0  0  0  # atno 17342 bound_to 10162
  139.8156  144.7317  150.9639 LP  0  0  0  0  0  0  0  0  0  0  0  0  # atno 17343 bound_to 10162
  157.5976  131.0942  150.9015 LP  0  0  0  0  0  0  0  0  0  0  0  0  # atno 17370 bound_to 10713
  156.9179  130.5304  149.5279 LP  0  0  0  0  0  0  0  0  0  0  0  0  # atno 17371 bound_to 10713
  139.8853  135.0071  156.6428 LP  0  0  0  0  0  0  0  0  0  0  0  0  # atno 17394 bound_to 11000
  140.7575  133.8845  155.8393 LP  0  0  0  0  0  0  0  0  0  0  0  0  # atno 17395 bound_to 11000

$$$$
