AV-unprocessed.smi:1629|AV-procd|sdf|6524|dock4
  -GOLD-   22720 7203D 1   1.00000     0.00000
 Structure written by MMmdl.
 44 45  0  0  0  0  0  0  0  0  3 V2000
  149.8489  132.6783  156.2115 C   0  0  0  0  0  0  0  0  0  0  0  0
  148.6522  133.5789  157.2745 S   0  0  0  0  0  0  0  0  0  0  0  0
  147.5578  133.9934  156.3819 O   0  0  0  0  0  0  0  0  0  0  0  0
  148.3140  132.6548  158.3689 O   0  0  0  0  0  0  0  0  0  0  0  0
  149.5684  134.8229  157.7673 N   0  5  0  0  0  0  0  0  0  0  0  0
  150.5800  135.3737  156.8771 C   0  0  0  0  0  0  0  0  0  0  0  0
  151.3980  136.4874  157.5863 C   0  0  0  0  0  0  0  0  0  0  0  0
  152.3187  137.2831  156.6200 C   0  0  0  0  0  0  0  0  0  0  0  0
  151.5330  137.8718  155.5131 N   0  0  0  0  0  0  0  0  0  0  0  0
  151.2536  139.1847  155.3192 C   0  0  0  0  0  0  0  0  0  0  0  0
  150.7100  139.6181  154.3021 O   0  0  0  0  0  0  0  0  0  0  0  0
  151.6149  139.9908  156.3319 N   0  0  0  0  0  0  0  0  0  0  0  0
  151.3962  141.4314  156.3807 C   0  0  0  0  0  0  0  0  0  0  0  0
  150.3582  141.8097  157.4509 C   0  0  0  0  0  0  0  0  0  0  0  0
  150.7867  143.0146  158.2647 C   0  0  0  0  0  0  0  0  0  0  0  0
  151.7595  142.9249  159.2840 C   0  0  0  0  0  0  0  0  0  0  0  0
  152.1068  144.0841  160.0090 C   0  0  0  0  0  0  0  0  0  0  0  0
  151.4742  145.3063  159.7006 C   0  0  0  0  0  0  0  0  0  0  0  0
  150.5082  145.3383  158.6742 C   0  0  0  0  0  0  0  0  0  0  0  0
  150.2026  144.2061  158.0026 N   0  3  0  0  0  0  0  0  0  0  0  0
  150.8929  136.7984  154.7301 C   0  0  0  0  0  0  0  0  0  0  0  0
  149.9103  135.9832  155.6172 C   0  0  0  0  0  0  0  0  0  0  0  0
  149.3705  131.7878  155.8049 H   0  0  0  0  0  0  0  0  0  0  0  0
  150.7144  132.3865  156.8056 H   0  0  0  0  0  0  0  0  0  0  0  0
  150.1678  133.3248  155.3946 H   0  0  0  0  0  0  0  0  0  0  0  0
  151.2766  134.6067  156.5363 H   0  0  0  0  0  0  0  0  0  0  0  0
  150.7176  137.1883  158.0729 H   0  0  0  0  0  0  0  0  0  0  0  0
  152.0041  136.0524  158.3814 H   0  0  0  0  0  0  0  0  0  0  0  0
  152.8791  138.0211  157.1933 H   0  0  0  0  0  0  0  0  0  0  0  0
  153.0839  136.6289  156.1960 H   0  0  0  0  0  0  0  0  0  0  0  0
  152.0603  139.5669  157.1329 H   0  0  0  0  0  0  0  0  0  0  0  0
  152.3513  141.9090  156.6006 H   0  0  0  0  0  0  0  0  0  0  0  0
  151.0853  141.7943  155.3994 H   0  0  0  0  0  0  0  0  0  0  0  0
  149.3949  142.0244  156.9863 H   0  0  0  0  0  0  0  0  0  0  0  0
  150.1917  140.9681  158.1251 H   0  0  0  0  0  0  0  0  0  0  0  0
  152.2334  141.9804  159.5099 H   0  0  0  0  0  0  0  0  0  0  0  0
  152.8491  144.0360  160.7922 H   0  0  0  0  0  0  0  0  0  0  0  0
  151.7262  146.2054  160.2438 H   0  0  0  0  0  0  0  0  0  0  0  0
  149.9747  146.2280  158.3727 H   0  0  0  0  0  0  0  0  0  0  0  0
  150.3533  137.1871  153.8657 H   0  0  0  0  0  0  0  0  0  0  0  0
  151.6668  136.1509  154.3120 H   0  0  0  0  0  0  0  0  0  0  0  0
  149.4561  135.1892  155.0232 H   0  0  0  0  0  0  0  0  0  0  0  0
  149.0933  136.6410  155.9184 H   0  0  0  0  0  0  0  0  0  0  0  0
  149.5008  144.2522  157.2634 H   0  0  0  0  0  0  0  0  0  0  0  0
  1  2  1  0  0  0  0
  1 23  1  0  0  0  0
  1 24  1  0  0  0  0
  1 25  1  0  0  0  0
  2  3  2  0  0  0  0
  2  4  2  0  0  0  0
  2  5  1  0  0  0  0
  5  6  1  0  0  0  0
  6 22  1  0  0  0  0
  6  7  1  0  0  0  0
  6 26  1  0  0  0  0
  7  8  1  0  0  0  0
  7 27  1  0  0  0  0
  7 28  1  0  0  0  0
  8  9  1  0  0  0  0
  8 29  1  0  0  0  0
  8 30  1  0  0  0  0
  9 10  1  0  0  0  0
  9 21  1  0  0  0  0
 10 11  2  0  0  0  0
 10 12  1  0  0  0  0
 12 13  1  0  0  0  0
 12 31  1  0  0  0  0
 13 14  1  0  0  0  0
 13 32  1  0  0  0  0
 13 33  1  0  0  0  0
 14 15  1  0  0  0  0
 14 34  1  0  0  0  0
 14 35  1  0  0  0  0
 15 20  1  0  0  0  0
 15 16  2  0  0  0  0
 16 17  1  0  0  0  0
 16 36  1  0  0  0  0
 17 18  2  0  0  0  0
 17 37  1  0  0  0  0
 18 19  1  0  0  0  0
 18 38  1  0  0  0  0
 19 20  2  0  0  0  0
 19 39  1  0  0  0  0
 20 44  1  0  0  0  0
 21 22  1  0  0  0  0
 21 40  1  0  0  0  0
 21 41  1  0  0  0  0
 22 42  1  0  0  0  0
 22 43  1  0  0  0  0
M  CHG  1   5  -1
M  CHG  1  20   1
M  END
> <s_m_source_file>
AV-unprocessed.smi

> <i_m_source_file_index>
1629

> <i_lp_mmshare_version>
43012

> <i_f3d_flags>
0

> <s_epik_input>
W0NIM11TKD1PKSg9TylbTkhdW0NIXTFbQ0gyXVtDSDJdTihbQ0gyXVtDSDJdMSlDKD1PKVtOSF1bQ0gyXVtDSDJdYzJbY0hdW2NIXVtjSF1bY0hdbjI=

> <s_epik_cmdline>
J2VwaWtfcHl0aG9uJywgJy1waCcsICc3LjAnLCAnLXRuJywgJzgnLCAnLW1hJywgJzIwMCcsICctbWV0YWxfYmluZGluZycsICctaW1hZScsICc8aW5maWxlLm1hZT4nLCAnLW9tYWUnLCAnPG91dGZpbGUubWFlPic=

> <r_epik_Ionization_Penalty>
8.25917

> <r_epik_Ionization_Penalty_Charging>
8.2591

> <r_epik_Ionization_Penalty_Neutral>
6.17235e-05

> <r_epik_State_Penalty>
8.35449

> <r_epik_Charging_Adjusted_Penalty>
16.6136

> <i_epik_Tot_Q>
0

> <i_epik_Tot_abs_Q>
2

> <r_epik_Metal_State_Penalty>
4.3175

> <b_epik_Metal_Only>
1

> <s_lp_Force_Field>
OPLS_2005

> <r_lp_Energy>
28.7999

> <b_lp_Chiralities_Consistent>
1

> <s_lp_Variant>
AV-unprocessed.smi:1629-4

> <Gold.Version>
5.8.1

> <Gold.Id.Protein>
6NUR|6NUR_protein|mol2

> <Gold.PLP.Fitness>
48.4613

> <Gold.PLP.PLP>
-34.9794

> <Gold.PLP.part.hbond>
-3.3740

> <Gold.PLP.part.metal>
0.0000

> <Gold.PLP.part.buried>
-5.9148

> <Gold.PLP.part.nonpolar>
-27.4307

> <Gold.PLP.part.repulsive>
0.3466

> <Gold.PLP.ligand.clash>
0.0000

> <Gold.PLP.ligand.torsion>
1.2573

> <Gold.PLP.Chemscore.Hbond>
4.9840

> <Gold.PLP.Chemscore.CHOScore>
0.0000

> <Gold.PLP.Chemscore.Metal>
0.0000

> <Gold.Chemscore.Hbonds>
donor molecule, donor type, donor heavy atom, donor atom, acceptor molecule, acceptor atom, score
      L1  H    20    44       P1  8028  1.90
      P1  H  6896  6908       L1     5  1.98
      P1  H  7989  7998       L1    11  1.00

> <Gold.PLP.Chemscore.Internal.Correction>
1.0445

> <Gold.Rescore>
     Score         DG    S(hbond)    S(metal)    S(lipo)     H(rot)  DE(clash)    DE(int)     intcor
     16.55     -20.17       2.39        0.00      95.79       1.77       1.52       2.09       ----

> <Gold.Chemscore.Fitness>
16.5519

> <Gold.Chemscore.DG>
-20.1653

> <Gold.Chemscore.ZeroCoef>
-5.4800

> <Gold.Chemscore.Hbond>
2.3948

> <Gold.Chemscore.Metal>
0.0000

> <Gold.Chemscore.Lipo>
95.7935

> <Gold.Chemscore.Internal_Hbond>
0.0000

> <Gold.Chemscore.DEClash>
1.5194

> <Gold.Chemscore.DEInternal>
2.0939

> <Gold.Chemscore.Rot>
1.7661

> <Gold.Chemscore.Internal.Correction>
   9.000000E+99

> <Gold.Chemscore.Hbonds>
donor molecule, donor type, donor heavy atom, donor atom, acceptor molecule, acceptor atom, score
      L1  H    20    44       P1  8028  0.21
      P1  H  6896  6908       L1     5  0.27
      P1  H  7989  7998       L1    11  0.88

> <Gold.Chemscore.Hbond.Weighted>
-7.9986

> <Gold.Chemscore.Metal.Weighted>
-0.0000

> <Gold.Chemscore.Lipo.Weighted>
-11.2078

> <Gold.Chemscore.Internal_Hbond.Weighted>
0.0000

> <Gold.Chemscore.DEClash.Weighted>
1.5194

> <Gold.Chemscore.DEInternal.Weighted>
2.0939

> <Gold.Chemscore.Rot.Weighted>
4.5211

> <Gold.Chemscore.Internal.Correction.Weighted>
   9.000000E+99

> <Gold.Protein.RotatedTorsions>
[ 6907 6896 6895 6894 ] final  151.16 input  -60.11 | X-H torsion
[ 7974 7965 7964 7962 ] final  -68.51 input  175.53 | X-H torsion
[ 8008 7997 7996 7995 ] final -125.72 input   59.86 | X-H torsion
[ 10167 10162 10161 10158 ] final  -94.77 input  -65.29 | X-H torsion
[ 10718 10713 10712 10709 ] final  -70.13 input   66.30 | X-H torsion
[ 10763 10752 10751 10750 ] final  -99.68 input  -60.55 | X-H torsion
[ 11005 11000 10999 10996 ] final -172.68 input  -57.11 | X-H torsion

> <Gold.Protein.ActiveResidues>
 VAL166  LYS551  ARG553  GLY616  TRP617  ASP618  TYR619  PRO620  LYS621  CYS622 
 ASP623  PHE694  ASN695  SER759  ASP760  ASP761  ALA762  ILE779  LEU786  VAL792 
 PHE793  MET794  SER795  GLU796  ALA797  LYS798  CYS799  TRP800  GLU811  SER814 

> <Gold.Protein.RotatedAtoms>
  152.1045  133.4267  159.4602 H   0  0  0  0  0  0  0  0  0  0  0  0  # atno 6907 bound_to 6896
  150.6865  134.2721  159.4601 H   0  0  0  0  0  0  0  0  0  0  0  0  # atno 6908 bound_to 6896
  152.0584  134.9609  160.0625 H   0  0  0  0  0  0  0  0  0  0  0  0  # atno 6909 bound_to 6896
  145.7156  140.9060  143.0657 H   0  0  0  0  0  0  0  0  0  0  0  0  # atno 7974 bound_to 7965
  155.2179  140.0421  157.2944 H   0  0  0  0  0  0  0  0  0  0  0  0  # atno 8008 bound_to 7997
  154.5969  140.2441  155.7816 H   0  0  0  0  0  0  0  0  0  0  0  0  # atno 8009 bound_to 7997
  156.2296  140.2943  156.0163 H   0  0  0  0  0  0  0  0  0  0  0  0  # atno 8010 bound_to 7997
  140.3110  143.3105  152.0148 H   0  0  0  0  0  0  0  0  0  0  0  0  # atno 10167 bound_to 10162
  156.0422  130.4325  150.2250 H   0  0  0  0  0  0  0  0  0  0  0  0  # atno 10718 bound_to 10713
  154.7517  135.4963  153.9301 H   0  0  0  0  0  0  0  0  0  0  0  0  # atno 10763 bound_to 10752
  153.1151  135.6718  153.9440 H   0  0  0  0  0  0  0  0  0  0  0  0  # atno 10764 bound_to 10752
  153.9188  135.3090  155.3427 H   0  0  0  0  0  0  0  0  0  0  0  0  # atno 10765 bound_to 10752
  140.4942  134.5955  157.4965 H   0  0  0  0  0  0  0  0  0  0  0  0  # atno 11005 bound_to 11000
  144.6930  139.9133  143.7464 LP  0  0  0  0  0  0  0  0  0  0  0  0  # atno 17320 bound_to 7965
  146.0672  139.3663  143.0545 LP  0  0  0  0  0  0  0  0  0  0  0  0  # atno 17321 bound_to 7965
  139.4894  144.6384  151.6927 LP  0  0  0  0  0  0  0  0  0  0  0  0  # atno 17342 bound_to 10162
  140.5568  144.0335  150.6151 LP  0  0  0  0  0  0  0  0  0  0  0  0  # atno 17343 bound_to 10162
  157.0344  131.0017  151.3302 LP  0  0  0  0  0  0  0  0  0  0  0  0  # atno 17370 bound_to 10713
  157.5254  130.8024  149.7856 LP  0  0  0  0  0  0  0  0  0  0  0  0  # atno 17371 bound_to 10713
  139.9751  134.7229  155.9966 LP  0  0  0  0  0  0  0  0  0  0  0  0  # atno 17394 bound_to 11000
  141.1468  133.6554  156.3893 LP  0  0  0  0  0  0  0  0  0  0  0  0  # atno 17395 bound_to 11000

$$$$
