AV-unprocessed.smi:1019|AV-procd|sdf|4445|dock2
  -GOLD-   22720 2403D 1   1.00000     0.00000
 Structure written by MMmdl.
 44 46  0  0  0  0  0  0  0  0  2 V2000
  148.9891  141.6566  157.5612 C   0  0  0  0  0  0  0  0  0  0  0  0
  149.8822  142.1576  156.4904 N   0  3  1  0  0  0  0  0  0  0  0  0
  151.2963  142.2070  156.9393 C   0  0  0  0  0  0  0  0  0  0  0  0
  151.4781  143.0874  158.1640 C   0  0  0  0  0  0  0  0  0  0  0  0
  151.9042  142.5179  159.3827 C   0  0  0  0  0  0  0  0  0  0  0  0
  152.0730  143.3284  160.5222 C   0  0  0  0  0  0  0  0  0  0  0  0
  151.8188  144.7115  160.4471 C   0  0  0  0  0  0  0  0  0  0  0  0
  151.3963  145.2843  159.2320 C   0  0  0  0  0  0  0  0  0  0  0  0
  151.2274  144.4747  158.0919 C   0  0  0  0  0  0  0  0  0  0  0  0
  149.7011  141.4333  155.2044 C   0  0  0  0  0  0  0  0  0  0  0  0
  148.3072  141.6649  154.5795 C   0  0  1  0  0  0  0  0  0  0  0  0
  148.3899  141.4271  153.1887 O   0  0  0  0  0  0  0  0  0  0  0  0
  147.2181  140.7350  155.1503 C   0  0  0  0  0  0  0  0  0  0  0  0
  146.0589  141.4651  155.6294 N   0  0  0  0  0  0  0  0  0  0  0  0
  145.4263  141.2965  156.8065 C   0  0  0  0  0  0  0  0  0  0  0  0
  144.3683  142.0656  157.0452 N   0  0  0  0  0  0  0  0  0  0  0  0
  144.3102  142.8281  155.8913 C   0  0  0  0  0  0  0  0  0  0  0  0
  143.4054  143.8433  155.5067 C   0  0  0  0  0  0  0  0  0  0  0  0
  143.5421  144.4870  154.2593 C   0  0  0  0  0  0  0  0  0  0  0  0
  144.5830  144.1270  153.3788 C   0  0  0  0  0  0  0  0  0  0  0  0
  145.4973  143.1192  153.7401 C   0  0  0  0  0  0  0  0  0  0  0  0
  145.3572  142.4790  154.9856 C   0  0  0  0  0  0  0  0  0  0  0  0
  149.2242  140.6216  157.8126 H   0  0  0  0  0  0  0  0  0  0  0  0
  147.9417  141.7059  157.2664 H   0  0  0  0  0  0  0  0  0  0  0  0
  149.0960  142.2575  158.4647 H   0  0  0  0  0  0  0  0  0  0  0  0
  151.6368  141.2055  157.2062 H   0  0  0  0  0  0  0  0  0  0  0  0
  151.9364  142.5442  156.1222 H   0  0  0  0  0  0  0  0  0  0  0  0
  152.1008  141.4576  159.4477 H   0  0  0  0  0  0  0  0  0  0  0  0
  152.3983  142.8894  161.4539 H   0  0  0  0  0  0  0  0  0  0  0  0
  151.9486  145.3326  161.3214 H   0  0  0  0  0  0  0  0  0  0  0  0
  151.2024  146.3455  159.1745 H   0  0  0  0  0  0  0  0  0  0  0  0
  150.9022  144.9224  157.1641 H   0  0  0  0  0  0  0  0  0  0  0  0
  150.4500  141.7491  154.4783 H   0  0  0  0  0  0  0  0  0  0  0  0
  149.8841  140.3727  155.3791 H   0  0  0  0  0  0  0  0  0  0  0  0
  147.9896  142.6967  154.7275 H   0  0  0  0  0  0  0  0  0  0  0  0
  147.5152  141.3091  152.8491 H   0  0  0  0  0  0  0  0  0  0  0  0
  146.8847  140.0294  154.3878 H   0  0  0  0  0  0  0  0  0  0  0  0
  147.6157  140.1382  155.9724 H   0  0  0  0  0  0  0  0  0  0  0  0
  145.7579  140.5626  157.5265 H   0  0  0  0  0  0  0  0  0  0  0  0
  142.6036  144.1272  156.1722 H   0  0  0  0  0  0  0  0  0  0  0  0
  142.8442  145.2615  153.9769 H   0  0  0  0  0  0  0  0  0  0  0  0
  144.6795  144.6260  152.4256 H   0  0  0  0  0  0  0  0  0  0  0  0
  146.2946  142.8417  153.0668 H   0  0  0  0  0  0  0  0  0  0  0  0
  149.6160  143.1165  156.3158 H   0  0  0  0  0  0  0  0  0  0  0  0
  1  2  1  0  0  0  0
  1 23  1  0  0  0  0
  1 24  1  0  0  0  0
  1 25  1  0  0  0  0
  2  3  1  0  0  0  0
  2 10  1  0  0  0  0
  2 44  1  0  0  0  0
  3  4  1  0  0  0  0
  3 26  1  0  0  0  0
  3 27  1  0  0  0  0
  4  9  1  0  0  0  0
  4  5  2  0  0  0  0
  5  6  1  0  0  0  0
  5 28  1  0  0  0  0
  6  7  2  0  0  0  0
  6 29  1  0  0  0  0
  7  8  1  0  0  0  0
  7 30  1  0  0  0  0
  8  9  2  0  0  0  0
  8 31  1  0  0  0  0
  9 32  1  0  0  0  0
 10 11  1  0  0  0  0
 10 33  1  0  0  0  0
 10 34  1  0  0  0  0
 11 12  1  0  0  0  0
 11 13  1  0  0  0  0
 11 35  1  0  0  0  0
 12 36  1  0  0  0  0
 13 14  1  0  0  0  0
 13 37  1  0  0  0  0
 13 38  1  0  0  0  0
 14 22  1  0  0  0  0
 14 15  1  0  0  0  0
 15 16  2  0  0  0  0
 15 39  1  0  0  0  0
 16 17  1  0  0  0  0
 17 22  2  0  0  0  0
 17 18  1  0  0  0  0
 18 19  2  0  0  0  0
 18 40  1  0  0  0  0
 19 20  1  0  0  0  0
 19 41  1  0  0  0  0
 20 21  2  0  0  0  0
 20 42  1  0  0  0  0
 21 22  1  0  0  0  0
 21 43  1  0  0  0  0
M  CHG  1   2   1
M  END
> <s_m_source_file>
AV-unprocessed.smi

> <i_m_source_file_index>
1019

> <i_lp_mmshare_version>
43012

> <i_f3d_flags>
0

> <s_epik_input>
W2NIXTFbY0hdW2NIXVtjSF1bY0hdYzFbQ0gyXU4oW0NIM10pW0NIMl1bQ0BIXShbT0hdKVtDSDJdbihbY0hdbjIpYyhjMjMpW2NIXVtjSF1bY0hdW2NIXTM=

> <s_epik_cmdline>
J2VwaWtfcHl0aG9uJywgJy1waCcsICc3LjAnLCAnLXRuJywgJzgnLCAnLW1hJywgJzIwMCcsICctbWV0YWxfYmluZGluZycsICctaW1hZScsICc8aW5maWxlLm1hZT4nLCAnLW9tYWUnLCAnPG91dGZpbGUubWFlPic=

> <r_epik_Ionization_Penalty>
0.0996557

> <r_epik_Ionization_Penalty_Charging>
0.0475377

> <r_epik_Ionization_Penalty_Neutral>
0.0521179

> <r_epik_State_Penalty>
0.0851777

> <r_epik_Charging_Adjusted_Penalty>
0.132715

> <i_epik_Tot_Q>
1

> <i_epik_Tot_abs_Q>
1

> <r_epik_Metal_State_Penalty>
0.0423478

> <b_epik_Metal_Only>
0

> <s_lp_Force_Field>
OPLS_2005

> <r_lp_Energy>
16.033

> <b_lp_Chiralities_Consistent>
1

> <s_lp_Variant>
AV-unprocessed.smi:1019-3

> <Gold.Version>
5.8.1

> <Gold.Id.Protein>
6NUR|6NUR_protein|mol2

> <Gold.PLP.Fitness>
59.9527

> <Gold.PLP.PLP>
-53.5418

> <Gold.PLP.part.hbond>
-3.0000

> <Gold.PLP.part.metal>
0.0000

> <Gold.PLP.part.buried>
-5.4063

> <Gold.PLP.part.nonpolar>
-43.7905

> <Gold.PLP.part.repulsive>
0.1099

> <Gold.PLP.ligand.clash>
0.0000

> <Gold.PLP.ligand.torsion>
1.1994

> <Gold.PLP.Chemscore.Hbond>
2.8960

> <Gold.PLP.Chemscore.CHOScore>
0.0000

> <Gold.PLP.Chemscore.Metal>
0.0000

> <Gold.Chemscore.Hbonds>
donor molecule, donor type, donor heavy atom, donor atom, acceptor molecule, acceptor atom, score
      L1  H     2    44       P1  8028  2.00
      P1  H  8011  8017       L1    12  0.78

> <Gold.PLP.Chemscore.Internal.Correction>
0.1217

> <Gold.Rescore>
     Score         DG    S(hbond)    S(metal)    S(lipo)     H(rot)  DE(clash)    DE(int)     intcor
     17.32     -19.45       1.10        0.00     139.55       2.36       0.93       1.20       ----

> <Gold.Chemscore.Fitness>
17.3166

> <Gold.Chemscore.DG>
-19.4456

> <Gold.Chemscore.ZeroCoef>
-5.4800

> <Gold.Chemscore.Hbond>
1.1030

> <Gold.Chemscore.Metal>
0.0000

> <Gold.Chemscore.Lipo>
139.5508

> <Gold.Chemscore.Internal_Hbond>
0.0000

> <Gold.Chemscore.DEClash>
0.9283

> <Gold.Chemscore.DEInternal>
1.2006

> <Gold.Chemscore.Rot>
2.3616

> <Gold.Chemscore.Internal.Correction>
   9.000000E+99

> <Gold.Chemscore.Hbonds>
donor molecule, donor type, donor heavy atom, donor atom, acceptor molecule, acceptor atom, score
      L1  H     2    44       P1  8028  1.00
      P1  H  8011  8017       L1    12  0.68

> <Gold.Chemscore.Hbond.Weighted>
-3.6839

> <Gold.Chemscore.Metal.Weighted>
-0.0000

> <Gold.Chemscore.Lipo.Weighted>
-16.3274

> <Gold.Chemscore.Internal_Hbond.Weighted>
0.0000

> <Gold.Chemscore.DEClash.Weighted>
0.9283

> <Gold.Chemscore.DEInternal.Weighted>
1.2006

> <Gold.Chemscore.Rot.Weighted>
6.0457

> <Gold.Chemscore.Internal.Correction.Weighted>
   9.000000E+99

> <Gold.Protein.RotatedTorsions>
[ 6907 6896 6895 6894 ] final  136.21 input  -60.11 | X-H torsion
[ 7974 7965 7964 7962 ] final  -97.47 input  175.53 | X-H torsion
[ 8008 7997 7996 7995 ] final   93.52 input   59.86 | X-H torsion
[ 10167 10162 10161 10158 ] final  130.17 input  -65.29 | X-H torsion
[ 10718 10713 10712 10709 ] final  -30.38 input   66.30 | X-H torsion
[ 10763 10752 10751 10750 ] final -118.42 input  -60.55 | X-H torsion
[ 11005 11000 10999 10996 ] final   41.35 input  -57.11 | X-H torsion

> <Gold.Protein.ActiveResidues>
 VAL166  LYS551  ARG553  GLY616  TRP617  ASP618  TYR619  PRO620  LYS621  CYS622 
 ASP623  PHE694  ASN695  SER759  ASP760  ASP761  ALA762  ILE779  LEU786  VAL792 
 PHE793  MET794  SER795  GLU796  ALA797  LYS798  CYS799  TRP800  GLU811  SER814 

> <Gold.Protein.RotatedAtoms>
  152.2919  133.5570  159.5562 H   0  0  0  0  0  0  0  0  0  0  0  0  # atno 6907 bound_to 6896
  150.7239  134.0416  159.3776 H   0  0  0  0  0  0  0  0  0  0  0  0  # atno 6908 bound_to 6896
  151.8321  135.0618  160.0489 H   0  0  0  0  0  0  0  0  0  0  0  0  # atno 6909 bound_to 6896
  145.3332  140.9446  143.2649 H   0  0  0  0  0  0  0  0  0  0  0  0  # atno 7974 bound_to 7965
  156.0477  140.3312  155.7315 H   0  0  0  0  0  0  0  0  0  0  0  0  # atno 8008 bound_to 7997
  155.5649  140.0622  157.2838 H   0  0  0  0  0  0  0  0  0  0  0  0  # atno 8009 bound_to 7997
  154.4421  140.1871  156.0808 H   0  0  0  0  0  0  0  0  0  0  0  0  # atno 8010 bound_to 7997
  139.5442  144.6759  151.4525 H   0  0  0  0  0  0  0  0  0  0  0  0  # atno 10167 bound_to 10162
  156.4005  130.4389  149.7326 H   0  0  0  0  0  0  0  0  0  0  0  0  # atno 10718 bound_to 10713
  154.8587  135.4274  154.2137 H   0  0  0  0  0  0  0  0  0  0  0  0  # atno 10763 bound_to 10752
  153.3157  135.6979  153.7081 H   0  0  0  0  0  0  0  0  0  0  0  0  # atno 10764 bound_to 10752
  153.6156  135.3511  155.2967 H   0  0  0  0  0  0  0  0  0  0  0  0  # atno 10765 bound_to 10752
  140.1842  134.4066  155.8182 H   0  0  0  0  0  0  0  0  0  0  0  0  # atno 11005 bound_to 11000
  144.8847  139.4855  143.6706 LP  0  0  0  0  0  0  0  0  0  0  0  0  # atno 17320 bound_to 7965
  146.3037  139.7509  142.9072 LP  0  0  0  0  0  0  0  0  0  0  0  0  # atno 17321 bound_to 7965
  140.6685  143.8346  150.6970 LP  0  0  0  0  0  0  0  0  0  0  0  0  # atno 17342 bound_to 10162
  140.1763  143.4152  152.1965 LP  0  0  0  0  0  0  0  0  0  0  0  0  # atno 17343 bound_to 10162
  156.4344  130.7831  151.2851 LP  0  0  0  0  0  0  0  0  0  0  0  0  # atno 17370 bound_to 10713
  157.7503  131.0144  150.3463 LP  0  0  0  0  0  0  0  0  0  0  0  0  # atno 17371 bound_to 10713
  141.2224  133.7015  156.7984 LP  0  0  0  0  0  0  0  0  0  0  0  0  # atno 17394 bound_to 11000
  140.2232  134.8741  157.3399 LP  0  0  0  0  0  0  0  0  0  0  0  0  # atno 17395 bound_to 11000

$$$$
