AV-unprocessed.smi:2448|AV-procd|sdf|9662|dock5
  -GOLD-   2272013303D 1   1.00000     0.00000
 Structure written by MMmdl.
 38 39  0  0  0  0  0  0  0  0  2 V2000
  150.7822  143.5938  156.4758 O   0  0  0  0  0  0  0  0  0  0  0  0
  150.9248  142.9256  157.7164 C   0  0  2  0  0  0  0  0  0  0  0  0
  150.6047  141.4326  157.5018 C   0  0  0  0  0  0  0  0  0  0  0  0
  151.1086  140.9387  156.2172 N   0  0  0  0  0  0  0  0  0  0  0  0
  150.8127  139.5322  155.9116 C   0  0  1  0  0  0  0  0  0  0  0  0
  150.2969  139.3445  154.4613 C   0  0  0  0  0  0  0  0  0  0  0  0
  148.8345  139.6913  154.2440 C   0  0  0  0  0  0  0  0  0  0  0  0
  148.3852  141.0225  154.3906 C   0  0  0  0  0  0  0  0  0  0  0  0
  147.0232  141.3170  154.1762 C   0  0  0  0  0  0  0  0  0  0  0  0
  146.1663  140.3289  153.8374 N   0  3  0  0  0  0  0  0  0  0  0  0
  146.5531  139.0426  153.6913 C   0  0  0  0  0  0  0  0  0  0  0  0
  147.9025  138.6881  153.8937 C   0  0  0  0  0  0  0  0  0  0  0  0
  152.0723  138.6754  156.1592 C   0  0  0  0  0  0  0  0  0  0  0  0
  151.7480  137.3819  156.1490 F   0  0  0  0  0  0  0  0  0  0  0  0
  152.9692  138.8851  155.1957 F   0  0  0  0  0  0  0  0  0  0  0  0
  152.6237  138.9718  157.3366 F   0  0  0  0  0  0  0  0  0  0  0  0
  150.0437  143.6032  158.7813 C   0  0  0  0  0  0  0  0  0  0  0  0
  150.6933  144.9406  159.1475 C   0  0  0  0  0  0  0  0  0  0  0  0
  152.4868  144.7252  159.0405 S   0  0  0  0  0  0  0  0  0  0  0  0
  152.3747  143.1269  158.1919 C   0  0  0  0  0  0  0  0  0  0  0  0
  150.0038  144.1284  156.5093 H   0  0  0  0  0  0  0  0  0  0  0  0
  151.0253  140.8448  158.3187 H   0  0  0  0  0  0  0  0  0  0  0  0
  149.5274  141.3044  157.5620 H   0  0  0  0  0  0  0  0  0  0  0  0
  152.1132  141.0822  156.1786 H   0  0  0  0  0  0  0  0  0  0  0  0
  150.0533  139.1670  156.6044 H   0  0  0  0  0  0  0  0  0  0  0  0
  150.9150  139.9205  153.7712 H   0  0  0  0  0  0  0  0  0  0  0  0
  150.4171  138.3029  154.1625 H   0  0  0  0  0  0  0  0  0  0  0  0
  149.0749  141.8091  154.6609 H   0  0  0  0  0  0  0  0  0  0  0  0
  146.5969  142.3056  154.2647 H   0  0  0  0  0  0  0  0  0  0  0  0
  145.7776  138.3417  153.4180 H   0  0  0  0  0  0  0  0  0  0  0  0
  148.2164  137.6612  153.7724 H   0  0  0  0  0  0  0  0  0  0  0  0
  149.0144  143.7392  158.4470 H   0  0  0  0  0  0  0  0  0  0  0  0
  150.0076  142.9730  159.6711 H   0  0  0  0  0  0  0  0  0  0  0  0
  150.4003  145.7080  158.4303 H   0  0  0  0  0  0  0  0  0  0  0  0
  150.3976  145.2833  160.1392 H   0  0  0  0  0  0  0  0  0  0  0  0
  152.6407  142.3622  158.9226 H   0  0  0  0  0  0  0  0  0  0  0  0
  153.0994  143.0610  157.3794 H   0  0  0  0  0  0  0  0  0  0  0  0
  145.1845  140.5636  153.6869 H   0  0  0  0  0  0  0  0  0  0  0  0
  1  2  1  0  0  0  0
  1 21  1  0  0  0  0
  2 20  1  0  0  0  0
  2  3  1  0  0  0  0
  2 17  1  0  0  0  0
  3  4  1  0  0  0  0
  3 22  1  0  0  0  0
  3 23  1  0  0  0  0
  4  5  1  0  0  0  0
  4 24  1  0  0  0  0
  5  6  1  0  0  0  0
  5 13  1  0  0  0  0
  5 25  1  0  0  0  0
  6  7  1  0  0  0  0
  6 26  1  0  0  0  0
  6 27  1  0  0  0  0
  7 12  1  0  0  0  0
  7  8  2  0  0  0  0
  8  9  1  0  0  0  0
  8 28  1  0  0  0  0
  9 10  2  0  0  0  0
  9 29  1  0  0  0  0
 10 11  1  0  0  0  0
 10 38  1  0  0  0  0
 11 12  2  0  0  0  0
 11 30  1  0  0  0  0
 12 31  1  0  0  0  0
 13 14  1  0  0  0  0
 13 15  1  0  0  0  0
 13 16  1  0  0  0  0
 17 18  1  0  0  0  0
 17 32  1  0  0  0  0
 17 33  1  0  0  0  0
 18 19  1  0  0  0  0
 18 34  1  0  0  0  0
 18 35  1  0  0  0  0
 19 20  1  0  0  0  0
 20 36  1  0  0  0  0
 20 37  1  0  0  0  0
M  CHG  1  10   1
M  END
> <s_m_source_file>
AV-unprocessed.smi

> <i_m_source_file_index>
2448

> <i_lp_mmshare_version>
43012

> <i_f3d_flags>
0

> <s_epik_input>
W0NIMl0xU1tDSDJdW0NIMl1bQ0BAXTEoW09IXSlbQ0gyXVtOSF1bQ0BASF0oQyhGKShGKUYpW0NIMl1jMltjSF1bY0hdbltjSF1bY0hdMg==

> <s_epik_cmdline>
J2VwaWtfcHl0aG9uJywgJy1waCcsICc3LjAnLCAnLXRuJywgJzgnLCAnLW1hJywgJzIwMCcsICctbWV0YWxfYmluZGluZycsICctaW1hZScsICc8aW5maWxlLm1hZT4nLCAnLW9tYWUnLCAnPG91dGZpbGUubWFlPic=

> <r_epik_Ionization_Penalty>
1.11129

> <r_epik_Ionization_Penalty_Charging>
1.08366

> <r_epik_Ionization_Penalty_Neutral>
0.0276276

> <r_epik_State_Penalty>
1.93785

> <r_epik_Charging_Adjusted_Penalty>
3.02151

> <i_epik_Tot_Q>
1

> <i_epik_Tot_abs_Q>
1

> <r_epik_Metal_State_Penalty>
5.97911

> <b_epik_Metal_Only>
0

> <s_lp_Force_Field>
OPLS_2005

> <r_lp_Energy>
38.9461

> <b_lp_Chiralities_Consistent>
1

> <s_lp_Variant>
AV-unprocessed.smi:2448-12

> <Gold.Version>
5.8.1

> <Gold.Id.Protein>
6NUR|6NUR_protein|mol2

> <Gold.PLP.Fitness>
46.0134

> <Gold.PLP.PLP>
-39.1193

> <Gold.PLP.part.hbond>
-2.0000

> <Gold.PLP.part.metal>
0.0000

> <Gold.PLP.part.buried>
-1.5924

> <Gold.PLP.part.nonpolar>
-35.3309

> <Gold.PLP.part.repulsive>
0.0162

> <Gold.PLP.ligand.clash>
0.0000

> <Gold.PLP.ligand.torsion>
1.3341

> <Gold.PLP.Chemscore.Hbond>
2.9840

> <Gold.PLP.Chemscore.CHOScore>
0.0000

> <Gold.PLP.Chemscore.Metal>
0.0000

> <Gold.Chemscore.Hbonds>
donor molecule, donor type, donor heavy atom, donor atom, acceptor molecule, acceptor atom, score
      L1  H     1    21       P1  8028  0.83
      L1  H    10    38       P1 10175  1.86

> <Gold.PLP.Chemscore.Internal.Correction>
0.6102

> <Gold.Rescore>
     Score         DG    S(hbond)    S(metal)    S(lipo)     H(rot)  DE(clash)    DE(int)     intcor
     16.63     -18.11       1.97        0.00     104.77       2.42       0.28       1.20       ----

> <Gold.Chemscore.Fitness>
16.6306

> <Gold.Chemscore.DG>
-18.1118

> <Gold.Chemscore.ZeroCoef>
-5.4800

> <Gold.Chemscore.Hbond>
1.9702

> <Gold.Chemscore.Metal>
0.0000

> <Gold.Chemscore.Lipo>
104.7747

> <Gold.Chemscore.Internal_Hbond>
0.0000

> <Gold.Chemscore.DEClash>
0.2820

> <Gold.Chemscore.DEInternal>
1.1993

> <Gold.Chemscore.Rot>
2.4247

> <Gold.Chemscore.Internal.Correction>
   9.000000E+99

> <Gold.Chemscore.Hbonds>
donor molecule, donor type, donor heavy atom, donor atom, acceptor molecule, acceptor atom, score
      L1  H     1    21       P1  8028  0.78
      L1  H    10    38       P1 10175  0.90

> <Gold.Chemscore.Hbond.Weighted>
-6.5804

> <Gold.Chemscore.Metal.Weighted>
-0.0000

> <Gold.Chemscore.Lipo.Weighted>
-12.2586

> <Gold.Chemscore.Internal_Hbond.Weighted>
0.0000

> <Gold.Chemscore.DEClash.Weighted>
0.2820

> <Gold.Chemscore.DEInternal.Weighted>
1.1993

> <Gold.Chemscore.Rot.Weighted>
6.2072

> <Gold.Chemscore.Internal.Correction.Weighted>
   9.000000E+99

> <Gold.Protein.RotatedTorsions>
[ 6907 6896 6895 6894 ] final  149.11 input  -60.11 | X-H torsion
[ 7974 7965 7964 7962 ] final   71.76 input  175.53 | X-H torsion
[ 8008 7997 7996 7995 ] final   55.86 input   59.86 | X-H torsion
[ 10167 10162 10161 10158 ] final -134.59 input  -65.29 | X-H torsion
[ 10718 10713 10712 10709 ] final -136.36 input   66.30 | X-H torsion
[ 10763 10752 10751 10750 ] final   27.98 input  -60.55 | X-H torsion
[ 11005 11000 10999 10996 ] final  168.11 input  -57.11 | X-H torsion

> <Gold.Protein.ActiveResidues>
 VAL166  LYS551  ARG553  GLY616  TRP617  ASP618  TYR619  PRO620  LYS621  CYS622 
 ASP623  PHE694  ASN695  SER759  ASP760  ASP761  ALA762  ILE779  LEU786  VAL792 
 PHE793  MET794  SER795  GLU796  ALA797  LYS798  CYS799  TRP800  GLU811  SER814 

> <Gold.Protein.RotatedAtoms>
  152.1325  133.4416  159.4727 H   0  0  0  0  0  0  0  0  0  0  0  0  # atno 6907 bound_to 6896
  150.6879  134.2404  159.4479 H   0  0  0  0  0  0  0  0  0  0  0  0  # atno 6908 bound_to 6896
  152.0289  134.9779  160.0623 H   0  0  0  0  0  0  0  0  0  0  0  0  # atno 6909 bound_to 6896
  145.7618  139.2804  143.1372 H   0  0  0  0  0  0  0  0  0  0  0  0  # atno 7974 bound_to 7965
  155.5080  140.3476  155.4383 H   0  0  0  0  0  0  0  0  0  0  0  0  # atno 8008 bound_to 7997
  156.0869  140.1400  156.9669 H   0  0  0  0  0  0  0  0  0  0  0  0  # atno 8009 bound_to 7997
  154.4612  140.0934  156.6874 H   0  0  0  0  0  0  0  0  0  0  0  0  # atno 8010 bound_to 7997
  139.8865  143.6775  152.2619 H   0  0  0  0  0  0  0  0  0  0  0  0  # atno 10167 bound_to 10162
  156.2762  130.7294  151.1277 H   0  0  0  0  0  0  0  0  0  0  0  0  # atno 10718 bound_to 10713
  153.0521  135.6524  154.0668 H   0  0  0  0  0  0  0  0  0  0  0  0  # atno 10763 bound_to 10752
  154.0354  135.2908  155.3364 H   0  0  0  0  0  0  0  0  0  0  0  0  # atno 10764 bound_to 10752
  154.6815  135.5318  153.8336 H   0  0  0  0  0  0  0  0  0  0  0  0  # atno 10765 bound_to 10752
  140.2838  134.7728  157.3781 H   0  0  0  0  0  0  0  0  0  0  0  0  # atno 11005 bound_to 11000
  146.0257  140.8306  142.9901 LP  0  0  0  0  0  0  0  0  0  0  0  0  # atno 17320 bound_to 7965
  144.6829  140.2694  143.7308 LP  0  0  0  0  0  0  0  0  0  0  0  0  # atno 17321 bound_to 7965
  139.7148  144.7614  151.1051 LP  0  0  0  0  0  0  0  0  0  0  0  0  # atno 17342 bound_to 10162
  140.7735  143.5283  150.9454 LP  0  0  0  0  0  0  0  0  0  0  0  0  # atno 17343 bound_to 10162
  157.7300  131.0620  150.5748 LP  0  0  0  0  0  0  0  0  0  0  0  0  # atno 17370 bound_to 10713
  156.5849  130.4314  149.5961 LP  0  0  0  0  0  0  0  0  0  0  0  0  # atno 17371 bound_to 10713
  140.1258  134.5159  155.8146 LP  0  0  0  0  0  0  0  0  0  0  0  0  # atno 17394 bound_to 11000
  141.2158  133.6772  156.6950 LP  0  0  0  0  0  0  0  0  0  0  0  0  # atno 17395 bound_to 11000

$$$$
