AV-unprocessed.smi:15|AV-procd|sdf|82|dock2
  -GOLD-   2262015213D 1   1.00000     0.00000
 Structure written by MMmdl.
 53 56  0  0  0  0  0  0  0  0  1 V2000
  151.9137  138.5491  155.1946 C   0  0  0  0  0  0  0  0  0  0  0  0
  152.3366  139.9974  155.4729 C   0  0  0  0  0  0  0  0  0  0  0  0
  151.4680  140.6625  156.4437 N   0  0  0  0  0  0  0  0  0  0  0  0
  151.6628  140.4382  157.8775 C   0  0  0  0  0  0  0  0  0  0  0  0
  152.4466  141.5700  158.5705 C   0  0  1  0  0  0  0  0  0  0  0  0
  151.7742  142.9362  158.4565 C   0  0  0  0  0  0  0  0  0  0  0  0
  152.3063  143.6994  159.6603 C   0  0  0  0  0  0  0  0  0  0  0  0
  152.9008  142.6112  160.5583 C   0  0  0  0  0  0  0  0  0  0  0  0
  152.4792  141.3862  159.9778 O   0  0  0  0  0  0  0  0  0  0  0  0
  150.1751  140.8519  156.0861 C   0  0  0  0  0  0  0  0  0  0  0  0
  149.8845  140.8383  154.7602 N   0  0  0  0  0  0  0  0  0  0  0  0
  148.6335  141.0546  154.3443 C   0  0  0  0  0  0  0  0  0  0  0  0
  147.5454  141.3140  155.0714 N   0  0  0  0  0  0  0  0  0  0  0  0
  147.8346  141.3434  156.4039 C   0  0  0  0  0  0  0  0  0  0  0  0
  149.1094  141.1151  156.9952 C   0  0  0  0  0  0  0  0  0  0  0  0
  149.0158  141.2380  158.3769 N   0  0  0  0  0  0  0  0  0  0  0  0
  147.7607  141.5226  158.5892 C   0  0  0  0  0  0  0  0  0  0  0  0
  146.9824  141.6225  157.4585 N   0  0  0  0  0  0  0  0  0  0  0  0
  145.5683  141.9591  157.4029 C   0  0  0  0  0  0  0  0  0  0  0  0
  144.6827  140.8028  156.8756 C   0  0  2  0  0  0  0  0  0  0  0  0
  145.0832  140.5050  155.5480 O   0  0  0  0  0  0  0  0  0  0  0  0
  143.1969  141.1769  156.8518 C   0  0  0  0  0  0  0  0  0  0  0  0
  142.5720  140.2859  157.9193 C   0  0  0  0  0  0  0  0  0  0  0  0
  143.3668  139.1151  157.8600 O   0  0  0  0  0  0  0  0  0  0  0  0
  144.7193  139.5386  157.7743 C   0  0  1  0  0  0  0  0  0  0  0  0
  145.6258  138.3811  157.3234 C   0  0  0  0  0  0  0  0  0  0  0  0
  152.6255  138.0650  154.5257 H   0  0  0  0  0  0  0  0  0  0  0  0
  150.9347  138.4960  154.7190 H   0  0  0  0  0  0  0  0  0  0  0  0
  151.8756  137.9663  156.1152 H   0  0  0  0  0  0  0  0  0  0  0  0
  153.3608  139.9880  155.8486 H   0  0  0  0  0  0  0  0  0  0  0  0
  152.3512  140.5621  154.5408 H   0  0  0  0  0  0  0  0  0  0  0  0
  150.6838  140.3448  158.3456 H   0  0  0  0  0  0  0  0  0  0  0  0
  152.1586  139.4817  158.0476 H   0  0  0  0  0  0  0  0  0  0  0  0
  153.4666  141.6359  158.1888 H   0  0  0  0  0  0  0  0  0  0  0  0
  151.9895  143.4323  157.5097 H   0  0  0  0  0  0  0  0  0  0  0  0
  150.6918  142.8308  158.5422 H   0  0  0  0  0  0  0  0  0  0  0  0
  153.0728  144.4191  159.3715 H   0  0  0  0  0  0  0  0  0  0  0  0
  151.5050  144.2436  160.1611 H   0  0  0  0  0  0  0  0  0  0  0  0
  153.9910  142.6558  160.5483 H   0  0  0  0  0  0  0  0  0  0  0  0
  152.5661  142.6906  161.5928 H   0  0  0  0  0  0  0  0  0  0  0  0
  148.4845  141.0219  153.2751 H   0  0  0  0  0  0  0  0  0  0  0  0
  147.3686  141.6859  159.5824 H   0  0  0  0  0  0  0  0  0  0  0  0
  145.2461  142.2501  158.4037 H   0  0  0  0  0  0  0  0  0  0  0  0
  145.4518  142.8445  156.7764 H   0  0  0  0  0  0  0  0  0  0  0  0
  144.3903  140.7692  154.9618 H   0  0  0  0  0  0  0  0  0  0  0  0
  143.0118  142.2345  157.0431 H   0  0  0  0  0  0  0  0  0  0  0  0
  142.7460  140.9403  155.8866 H   0  0  0  0  0  0  0  0  0  0  0  0
  142.6572  140.7402  158.9079 H   0  0  0  0  0  0  0  0  0  0  0  0
  141.5208  140.0713  157.7268 H   0  0  0  0  0  0  0  0  0  0  0  0
  145.0056  139.8259  158.7866 H   0  0  0  0  0  0  0  0  0  0  0  0
  146.6608  138.7072  157.2204 H   0  0  0  0  0  0  0  0  0  0  0  0
  145.3053  137.9674  156.3671 H   0  0  0  0  0  0  0  0  0  0  0  0
  145.6087  137.5714  158.0529 H   0  0  0  0  0  0  0  0  0  0  0  0
  1  2  1  0  0  0  0
  1 27  1  0  0  0  0
  1 28  1  0  0  0  0
  1 29  1  0  0  0  0
  2  3  1  0  0  0  0
  2 30  1  0  0  0  0
  2 31  1  0  0  0  0
  3  4  1  0  0  0  0
  3 10  1  0  0  0  0
  4  5  1  0  0  0  0
  4 32  1  0  0  0  0
  4 33  1  0  0  0  0
  5  9  1  0  0  0  0
  5  6  1  0  0  0  0
  5 34  1  0  0  0  0
  6  7  1  0  0  0  0
  6 35  1  0  0  0  0
  6 36  1  0  0  0  0
  7  8  1  0  0  0  0
  7 37  1  0  0  0  0
  7 38  1  0  0  0  0
  8  9  1  0  0  0  0
  8 39  1  0  0  0  0
  8 40  1  0  0  0  0
 10 15  1  0  0  0  0
 10 11  2  0  0  0  0
 11 12  1  0  0  0  0
 12 13  2  0  0  0  0
 12 41  1  0  0  0  0
 13 14  1  0  0  0  0
 14 18  1  0  0  0  0
 14 15  2  0  0  0  0
 15 16  1  0  0  0  0
 16 17  2  0  0  0  0
 17 18  1  0  0  0  0
 17 42  1  0  0  0  0
 18 19  1  0  0  0  0
 19 20  1  0  0  0  0
 19 43  1  0  0  0  0
 19 44  1  0  0  0  0
 20 25  1  0  0  0  0
 20 21  1  0  0  0  0
 20 22  1  0  0  0  0
 21 45  1  0  0  0  0
 22 23  1  0  0  0  0
 22 46  1  0  0  0  0
 22 47  1  0  0  0  0
 23 24  1  0  0  0  0
 23 48  1  0  0  0  0
 23 49  1  0  0  0  0
 24 25  1  0  0  0  0
 25 26  1  0  0  0  0
 25 50  1  0  0  0  0
 26 51  1  0  0  0  0
 26 52  1  0  0  0  0
 26 53  1  0  0  0  0
M  END
> <s_m_source_file>
AV-unprocessed.smi

> <i_m_source_file_index>
15

> <i_lp_mmshare_version>
43012

> <i_f3d_flags>
0

> <s_epik_input>
TzFbQ0gyXVtDSDJdW0NIMl1bQ0BIXTFbQ0gyXU4oW0NIMl1bQ0gzXSljKG5bY0hdbjIpYyhjMjMpbltjSF1uM1tDSDJdW0NAQF00KFtPSF0pW0NIMl1bQ0gyXU9bQ0BIXTRbQ0gzXQ==

> <s_epik_cmdline>
J2VwaWtfcHl0aG9uJywgJy1waCcsICc3LjAnLCAnLXRuJywgJzgnLCAnLW1hJywgJzIwMCcsICctbWV0YWxfYmluZGluZycsICctaW1hZScsICc8aW5maWxlLm1hZT4nLCAnLW9tYWUnLCAnPG91dGZpbGUubWFlPic=

> <r_lp_tautomer_probability>
1

> <r_epik_Ionization_Penalty>
0.00360814

> <r_epik_Ionization_Penalty_Charging>
0

> <r_epik_Ionization_Penalty_Neutral>
0.00360814

> <r_epik_State_Penalty>
0.00237482

> <r_epik_Charging_Adjusted_Penalty>
0.00237482

> <i_epik_Tot_Q>
0

> <i_epik_Tot_abs_Q>
0

> <r_epik_Metal_State_Penalty>
-0

> <b_epik_Metal_Only>
0

> <s_lp_Force_Field>
OPLS_2005

> <r_lp_Energy>
44.887

> <b_lp_Chiralities_Consistent>
1

> <s_lp_Variant>
AV-unprocessed.smi:15-4

> <Gold.Version>
5.8.1

> <Gold.Id.Protein>
6NUR|6NUR_protein|mol2

> <Gold.PLP.Fitness>
45.6965

> <Gold.PLP.PLP>
-37.4669

> <Gold.PLP.part.hbond>
-2.0000

> <Gold.PLP.part.metal>
0.0000

> <Gold.PLP.part.buried>
-4.0154

> <Gold.PLP.part.nonpolar>
-31.1980

> <Gold.PLP.part.repulsive>
0.3931

> <Gold.PLP.ligand.clash>
0.0000

> <Gold.PLP.ligand.torsion>
0.4855

> <Gold.PLP.Chemscore.Hbond>
1.7520

> <Gold.PLP.Chemscore.CHOScore>
1.0000

> <Gold.PLP.Chemscore.Metal>
0.0000

> <Gold.Chemscore.Hbonds>
donor molecule, donor type, donor heavy atom, donor atom, acceptor molecule, acceptor atom, score
      P1  H  7989  7998       L1    11  0.51
      L1  C    12    41       P1  7957  0.87

> <Gold.PLP.Chemscore.Internal.Correction>
0.9446

> <Gold.Rescore>
     Score         DG    S(hbond)    S(metal)    S(lipo)     H(rot)  DE(clash)    DE(int)     intcor
     11.02     -13.74       1.70        0.00      75.47       2.44       0.42       2.30       ----

> <Gold.Chemscore.Fitness>
11.0242

> <Gold.Chemscore.DG>
-13.7434

> <Gold.Chemscore.ZeroCoef>
-5.4800

> <Gold.Chemscore.Hbond>
1.7029

> <Gold.Chemscore.Metal>
0.0000

> <Gold.Chemscore.Lipo>
75.4725

> <Gold.Chemscore.Internal_Hbond>
0.0000

> <Gold.Chemscore.DEClash>
0.4238

> <Gold.Chemscore.DEInternal>
2.2954

> <Gold.Chemscore.Rot>
2.4431

> <Gold.Chemscore.Internal.Correction>
   9.000000E+99

> <Gold.Chemscore.Hbonds>
donor molecule, donor type, donor heavy atom, donor atom, acceptor molecule, acceptor atom, score
      P1  H  7989  7998       L1    11  0.45

> <Gold.Chemscore.Hbond.Weighted>
-5.6876

> <Gold.Chemscore.Metal.Weighted>
-0.0000

> <Gold.Chemscore.Lipo.Weighted>
-8.8303

> <Gold.Chemscore.Internal_Hbond.Weighted>
0.0000

> <Gold.Chemscore.DEClash.Weighted>
0.4238

> <Gold.Chemscore.DEInternal.Weighted>
2.2954

> <Gold.Chemscore.Rot.Weighted>
6.2544

> <Gold.Chemscore.Internal.Correction.Weighted>
   9.000000E+99

> <Gold.Protein.RotatedTorsions>
[ 6907 6896 6895 6894 ] final  112.81 input  -60.11 | X-H torsion
[ 7974 7965 7964 7962 ] final   22.24 input  175.53 | X-H torsion
[ 8008 7997 7996 7995 ] final  -27.41 input   59.86 | X-H torsion
[ 10167 10162 10161 10158 ] final   78.53 input  -65.29 | X-H torsion
[ 10718 10713 10712 10709 ] final   76.93 input   66.30 | X-H torsion
[ 10763 10752 10751 10750 ] final  118.88 input  -60.55 | X-H torsion
[ 11005 11000 10999 10996 ] final  176.85 input  -57.11 | X-H torsion

> <Gold.Protein.ActiveResidues>
 VAL166  LYS551  ARG553  GLY616  TRP617  ASP618  TYR619  PRO620  LYS621  CYS622 
 ASP623  PHE694  ASN695  SER759  ASP760  ASP761  ALA762  ILE779  LEU786  VAL792 
 PHE793  MET794  SER795  GLU796  ALA797  LYS798  CYS799  TRP800  GLU811  SER814 

> <Gold.Protein.RotatedAtoms>
  152.4896  133.8463  159.7178 H   0  0  0  0  0  0  0  0  0  0  0  0  # atno 6907 bound_to 6896
  150.9012  133.7106  159.2885 H   0  0  0  0  0  0  0  0  0  0  0  0  # atno 6908 bound_to 6896
  151.4547  135.1037  159.9760 H   0  0  0  0  0  0  0  0  0  0  0  0  # atno 6909 bound_to 6896
  146.2037  139.7913  142.8742 H   0  0  0  0  0  0  0  0  0  0  0  0  # atno 7974 bound_to 7965
  154.4378  140.1873  156.0928 H   0  0  0  0  0  0  0  0  0  0  0  0  # atno 8008 bound_to 7997
  156.0352  140.3326  155.7157 H   0  0  0  0  0  0  0  0  0  0  0  0  # atno 8009 bound_to 7997
  155.5781  140.0619  157.2781 H   0  0  0  0  0  0  0  0  0  0  0  0  # atno 8010 bound_to 7997
  139.9700  144.5901  150.7994 H   0  0  0  0  0  0  0  0  0  0  0  0  # atno 10167 bound_to 10162
  157.6692  130.9797  150.1568 H   0  0  0  0  0  0  0  0  0  0  0  0  # atno 10718 bound_to 10713
  153.5745  135.3496  155.2850 H   0  0  0  0  0  0  0  0  0  0  0  0  # atno 10763 bound_to 10752
  154.8677  135.4167  154.2689 H   0  0  0  0  0  0  0  0  0  0  0  0  # atno 10764 bound_to 10752
  153.3462  135.7052  153.6896 H   0  0  0  0  0  0  0  0  0  0  0  0  # atno 10765 bound_to 10752
  140.3776  134.6975  157.4431 H   0  0  0  0  0  0  0  0  0  0  0  0  # atno 11005 bound_to 11000
  145.3394  141.0284  143.3401 LP  0  0  0  0  0  0  0  0  0  0  0  0  # atno 17320 bound_to 7965
  144.8742  139.4994  143.6753 LP  0  0  0  0  0  0  0  0  0  0  0  0  # atno 17321 bound_to 7965
  140.7525  143.2992  151.3126 LP  0  0  0  0  0  0  0  0  0  0  0  0  # atno 17342 bound_to 10162
  139.6489  144.0400  152.2611 LP  0  0  0  0  0  0  0  0  0  0  0  0  # atno 17343 bound_to 10162
  156.2354  130.3686  149.8397 LP  0  0  0  0  0  0  0  0  0  0  0  0  # atno 17370 bound_to 10713
  156.6212  130.8627  151.3476 LP  0  0  0  0  0  0  0  0  0  0  0  0  # atno 17371 bound_to 10713
  140.0503  134.6140  155.8870 LP  0  0  0  0  0  0  0  0  0  0  0  0  # atno 17394 bound_to 11000
  141.1934  133.6579  156.5546 LP  0  0  0  0  0  0  0  0  0  0  0  0  # atno 17395 bound_to 11000

$$$$
