AV-unprocessed.smi:2548|AV-procd|sdf|10008|dock3
  -GOLD-   2272014 53D 1   1.00000     0.00000
 Structure written by MMmdl.
 44 45  0  0  0  0  0  0  0  0  1 V2000
  148.2650  124.2710  149.3417 C   0  0  0  0  0  0  0  0  0  0  0  0
  148.2777  125.2280  150.4969 C   0  0  0  0  0  0  0  0  0  0  0  0
  148.5450  126.6283  150.4778 C   0  0  0  0  0  0  0  0  0  0  0  0
  148.4232  127.0137  151.7837 C   0  0  0  0  0  0  0  0  0  0  0  0
  148.5766  128.3509  152.4394 C   0  0  0  0  0  0  0  0  0  0  0  0
  147.2317  129.0414  152.6954 C   0  0  0  0  0  0  0  0  0  0  0  0
  146.4011  128.5489  153.4606 O   0  0  0  0  0  0  0  0  0  0  0  0
  147.0391  130.2025  152.0497 N   0  0  0  0  0  0  0  0  0  0  0  0
  145.8415  131.0392  152.1309 C   0  0  0  0  0  0  0  0  0  0  0  0
  146.0746  132.5222  151.7077 C   0  0  0  0  0  0  0  0  0  0  0  0
  147.3622  133.0318  152.3979 C   0  0  0  0  0  0  0  0  0  0  0  0
  146.3219  132.6263  150.1745 C   0  0  0  0  0  0  0  0  0  0  0  0
  145.2123  132.0930  149.2440 C   0  0  0  0  0  0  0  0  0  0  0  0
  144.0851  133.0823  148.9033 C   0  0  0  0  0  0  0  0  0  0  0  0
  143.5278  133.9270  150.0610 C   0  0  0  0  0  0  0  0  0  0  0  0
  143.5614  133.2653  151.4476 C   0  0  0  0  0  0  0  0  0  0  0  0
  144.9148  133.4487  152.1604 C   0  0  0  0  0  0  0  0  0  0  0  0
  148.1075  125.8751  152.4906 N   0  0  0  0  0  0  0  0  0  0  0  0
  148.0154  124.7791  151.7152 N   0  0  0  0  0  0  0  0  0  0  0  0
  147.9491  125.8334  153.4874 H   0  0  0  0  0  0  0  0  0  0  0  0
  148.5267  124.7742  148.4106 H   0  0  0  0  0  0  0  0  0  0  0  0
  147.2783  123.8255  149.2117 H   0  0  0  0  0  0  0  0  0  0  0  0
  148.9802  123.4621  149.4937 H   0  0  0  0  0  0  0  0  0  0  0  0
  148.7859  127.2552  149.6320 H   0  0  0  0  0  0  0  0  0  0  0  0
  149.1963  128.9931  151.8122 H   0  0  0  0  0  0  0  0  0  0  0  0
  149.1001  128.2442  153.3901 H   0  0  0  0  0  0  0  0  0  0  0  0
  147.7791  130.5335  151.4478 H   0  0  0  0  0  0  0  0  0  0  0  0
  145.0962  130.5894  151.4740 H   0  0  0  0  0  0  0  0  0  0  0  0
  145.4239  130.9659  153.1337 H   0  0  0  0  0  0  0  0  0  0  0  0
  147.6197  134.0386  152.0662 H   0  0  0  0  0  0  0  0  0  0  0  0
  148.2152  132.3899  152.1754 H   0  0  0  0  0  0  0  0  0  0  0  0
  147.2581  133.0727  153.4826 H   0  0  0  0  0  0  0  0  0  0  0  0
  146.5522  133.6565  149.8989 H   0  0  0  0  0  0  0  0  0  0  0  0
  147.2277  132.0630  149.9460 H   0  0  0  0  0  0  0  0  0  0  0  0
  145.6750  131.8016  148.3006 H   0  0  0  0  0  0  0  0  0  0  0  0
  144.7829  131.1701  149.6266 H   0  0  0  0  0  0  0  0  0  0  0  0
  144.4273  133.7609  148.1210 H   0  0  0  0  0  0  0  0  0  0  0  0
  143.2683  132.5150  148.4556 H   0  0  0  0  0  0  0  0  0  0  0  0
  144.0599  134.8781  150.1026 H   0  0  0  0  0  0  0  0  0  0  0  0
  142.4975  134.1901  149.8185 H   0  0  0  0  0  0  0  0  0  0  0  0
  142.8047  133.7550  152.0615 H   0  0  0  0  0  0  0  0  0  0  0  0
  143.2611  132.2188  151.3978 H   0  0  0  0  0  0  0  0  0  0  0  0
  144.7553  133.3280  153.2313 H   0  0  0  0  0  0  0  0  0  0  0  0
  145.2213  134.4901  152.0519 H   0  0  0  0  0  0  0  0  0  0  0  0
  1 21  1  0  0  0  0
  1 22  1  0  0  0  0
  1 23  1  0  0  0  0
  1  2  1  0  0  0  0
  2 19  2  0  0  0  0
  2  3  1  0  0  0  0
  3  4  2  0  0  0  0
  3 24  1  0  0  0  0
  4 18  1  0  0  0  0
  4  5  1  0  0  0  0
  5  6  1  0  0  0  0
  5 25  1  0  0  0  0
  5 26  1  0  0  0  0
  6  7  2  0  0  0  0
  6  8  1  0  0  0  0
  8  9  1  0  0  0  0
  8 27  1  0  0  0  0
  9 10  1  0  0  0  0
  9 28  1  0  0  0  0
  9 29  1  0  0  0  0
 10 17  1  0  0  0  0
 10 11  1  0  0  0  0
 10 12  1  0  0  0  0
 11 30  1  0  0  0  0
 11 31  1  0  0  0  0
 11 32  1  0  0  0  0
 12 13  1  0  0  0  0
 12 33  1  0  0  0  0
 12 34  1  0  0  0  0
 13 14  1  0  0  0  0
 13 35  1  0  0  0  0
 13 36  1  0  0  0  0
 14 15  1  0  0  0  0
 14 37  1  0  0  0  0
 14 38  1  0  0  0  0
 15 16  1  0  0  0  0
 15 39  1  0  0  0  0
 15 40  1  0  0  0  0
 16 17  1  0  0  0  0
 16 41  1  0  0  0  0
 16 42  1  0  0  0  0
 17 43  1  0  0  0  0
 17 44  1  0  0  0  0
 18 19  1  0  0  0  0
 18 20  1  0  0  0  0
M  END
> <s_m_source_file>
AV-unprocessed.smi

> <i_m_source_file_index>
2548

> <i_lp_mmshare_version>
43012

> <i_f3d_flags>
0

> <s_epik_input>
W0NIM11jMVtjSF1jKG5bbkhdMSlbQ0gyXUMoPU8pW05IXVtDSDJdQzIoW0NIM10pW0NIMl1bQ0gyXVtDSDJdW0NIMl1bQ0gyXVtDSDJdMg==

> <s_epik_cmdline>
J2VwaWtfcHl0aG9uJywgJy1waCcsICc3LjAnLCAnLXRuJywgJzgnLCAnLW1hJywgJzIwMCcsICctbWV0YWxfYmluZGluZycsICctaW1hZScsICc8aW5maWxlLm1hZT4nLCAnLW9tYWUnLCAnPG91dGZpbGUubWFlPic=

> <r_lp_tautomer_probability>
0.5

> <r_epik_Ionization_Penalty>
0.000120089

> <r_epik_Ionization_Penalty_Charging>
0

> <r_epik_Ionization_Penalty_Neutral>
0.000120089

> <r_epik_State_Penalty>
0.41068

> <r_epik_Charging_Adjusted_Penalty>
0.41068

> <i_epik_Tot_Q>
0

> <i_epik_Tot_abs_Q>
0

> <r_epik_Metal_State_Penalty>
0.410662

> <b_epik_Metal_Only>
0

> <s_lp_Force_Field>
OPLS_2005

> <r_lp_Energy>
21.4694

> <b_lp_Chiralities_Consistent>
1

> <s_lp_Variant>
AV-unprocessed.smi:2548-2

> <Gold.Version>
5.8.1

> <Gold.Id.Protein>
6NUR|6NUR_protein|mol2

> <Gold.PLP.Fitness>
39.8328

> <Gold.PLP.PLP>
-37.9780

> <Gold.PLP.part.hbond>
-1.7214

> <Gold.PLP.part.metal>
0.0000

> <Gold.PLP.part.buried>
-0.4300

> <Gold.PLP.part.nonpolar>
-36.0383

> <Gold.PLP.part.repulsive>
0.2124

> <Gold.PLP.ligand.clash>
0.0000

> <Gold.PLP.ligand.torsion>
0.5780

> <Gold.PLP.Chemscore.Hbond>
1.0000

> <Gold.PLP.Chemscore.CHOScore>
0.0000

> <Gold.PLP.Chemscore.Metal>
0.0000

> <Gold.Chemscore.Hbonds>
donor molecule, donor type, donor heavy atom, donor atom, acceptor molecule, acceptor atom, score
      L1  H     8    27       P1 10747  1.00

> <Gold.PLP.Chemscore.Internal.Correction>
0.0107

> <Gold.Rescore>
     Score         DG    S(hbond)    S(metal)    S(lipo)     H(rot)  DE(clash)    DE(int)     intcor
     16.70     -18.93       1.00        0.00     120.31       1.55       1.70       0.53       ----

> <Gold.Chemscore.Fitness>
16.7045

> <Gold.Chemscore.DG>
-18.9287

> <Gold.Chemscore.ZeroCoef>
-5.4800

> <Gold.Chemscore.Hbond>
0.9992

> <Gold.Chemscore.Metal>
0.0000

> <Gold.Chemscore.Lipo>
120.3121

> <Gold.Chemscore.Internal_Hbond>
0.0000

> <Gold.Chemscore.DEClash>
1.6952

> <Gold.Chemscore.DEInternal>
0.5291

> <Gold.Chemscore.Rot>
1.5489

> <Gold.Chemscore.Internal.Correction>
   9.000000E+99

> <Gold.Chemscore.Hbonds>
donor molecule, donor type, donor heavy atom, donor atom, acceptor molecule, acceptor atom, score
      L1  H     8    27       P1 10747  1.00

> <Gold.Chemscore.Hbond.Weighted>
-3.3374

> <Gold.Chemscore.Metal.Weighted>
-0.0000

> <Gold.Chemscore.Lipo.Weighted>
-14.0765

> <Gold.Chemscore.Internal_Hbond.Weighted>
0.0000

> <Gold.Chemscore.DEClash.Weighted>
1.6952

> <Gold.Chemscore.DEInternal.Weighted>
0.5291

> <Gold.Chemscore.Rot.Weighted>
3.9652

> <Gold.Chemscore.Internal.Correction.Weighted>
   9.000000E+99

> <Gold.Protein.RotatedTorsions>
[ 6907 6896 6895 6894 ] final  -84.65 input  -60.11 | X-H torsion
[ 7974 7965 7964 7962 ] final  125.66 input  175.53 | X-H torsion
[ 8008 7997 7996 7995 ] final   67.49 input   59.86 | X-H torsion
[ 10167 10162 10161 10158 ] final -153.32 input  -65.29 | X-H torsion
[ 10718 10713 10712 10709 ] final -137.05 input   66.30 | X-H torsion
[ 10763 10752 10751 10750 ] final  -98.74 input  -60.55 | X-H torsion
[ 11005 11000 10999 10996 ] final  131.13 input  -57.11 | X-H torsion

> <Gold.Protein.ActiveResidues>
 VAL166  LYS551  ARG553  GLY616  TRP617  ASP618  TYR619  PRO620  LYS621  CYS622 
 ASP623  PHE694  ASN695  SER759  ASP760  ASP761  ALA762  ILE779  LEU786  VAL792 
 PHE793  MET794  SER795  GLU796  ALA797  LYS798  CYS799  TRP800  GLU811  SER814 

> <Gold.Protein.RotatedAtoms>
  150.6875  134.3326  159.4833 H   0  0  0  0  0  0  0  0  0  0  0  0  # atno 6907 bound_to 6896
  152.1189  134.9218  160.0573 H   0  0  0  0  0  0  0  0  0  0  0  0  # atno 6908 bound_to 6896
  152.0431  133.3951  159.4382 H   0  0  0  0  0  0  0  0  0  0  0  0  # atno 6909 bound_to 6896
  145.0705  139.3734  143.4960 H   0  0  0  0  0  0  0  0  0  0  0  0  # atno 7974 bound_to 7965
  155.6937  140.3496  155.4904 H   0  0  0  0  0  0  0  0  0  0  0  0  # atno 8008 bound_to 7997
  155.9502  140.1118  157.1005 H   0  0  0  0  0  0  0  0  0  0  0  0  # atno 8009 bound_to 7997
  154.4120  140.1196  156.5028 H   0  0  0  0  0  0  0  0  0  0  0  0  # atno 8010 bound_to 7997
  139.7107  143.9113  152.2467 H   0  0  0  0  0  0  0  0  0  0  0  0  # atno 10167 bound_to 10162
  156.2838  130.7336  151.1341 H   0  0  0  0  0  0  0  0  0  0  0  0  # atno 10718 bound_to 10713
  154.7440  135.4998  153.9171 H   0  0  0  0  0  0  0  0  0  0  0  0  # atno 10763 bound_to 10752
  153.1072  135.6700  153.9573 H   0  0  0  0  0  0  0  0  0  0  0  0  # atno 10764 bound_to 10752
  153.9342  135.3074  155.3424 H   0  0  0  0  0  0  0  0  0  0  0  0  # atno 10765 bound_to 10752
  139.9712  134.9577  156.9394 H   0  0  0  0  0  0  0  0  0  0  0  0  # atno 11005 bound_to 11000
  146.3528  140.0447  142.8640 LP  0  0  0  0  0  0  0  0  0  0  0  0  # atno 17320 bound_to 7965
  145.1298  140.9511  143.4551 LP  0  0  0  0  0  0  0  0  0  0  0  0  # atno 17321 bound_to 7965
  139.8982  144.6927  150.8695 LP  0  0  0  0  0  0  0  0  0  0  0  0  # atno 17342 bound_to 10162
  140.7732  143.3534  151.1969 LP  0  0  0  0  0  0  0  0  0  0  0  0  # atno 17343 bound_to 10162
  157.7322  131.0601  150.5638 LP  0  0  0  0  0  0  0  0  0  0  0  0  # atno 17370 bound_to 10713
  156.5747  130.4289  149.6004 LP  0  0  0  0  0  0  0  0  0  0  0  0  # atno 17371 bound_to 10713
  140.5289  134.0833  155.7311 LP  0  0  0  0  0  0  0  0  0  0  0  0  # atno 17394 bound_to 11000
  141.1391  133.9169  157.2366 LP  0  0  0  0  0  0  0  0  0  0  0  0  # atno 17395 bound_to 11000

$$$$
