AV-unprocessed.smi:4|AV-procd|sdf|36|dock8
  -GOLD-   2262015153D 1   1.00000     0.00000
 Structure written by MMmdl.
 42 43  0  0  0  0  0  0  0  0  2 V2000
  152.3115  144.6934  158.1302 C   0  0  0  0  0  0  0  0  0  0  0  0
  151.5984  144.0091  159.3279 C   0  0  0  0  0  0  0  0  0  0  0  0
  150.9727  145.1624  160.1514 C   0  0  0  0  0  0  0  0  0  0  0  0
  150.4893  143.1295  158.6953 C   0  0  0  0  0  0  0  0  0  0  0  0
  152.5075  143.1746  160.1978 N   0  0  0  0  0  0  0  0  0  0  0  0
  152.6747  143.5029  161.5686 C   0  0  0  0  0  0  0  0  0  0  0  0
  153.4729  142.8155  162.4171 C   0  0  0  0  0  0  0  0  0  0  0  0
  153.6572  143.1544  163.8966 C   0  0  0  0  0  0  0  0  0  0  0  0
  155.0386  143.0247  164.3597 N   0  0  0  0  0  0  0  0  0  0  0  0
  155.1506  142.4921  165.7144 C   0  0  0  0  0  0  0  0  0  0  0  0
  155.7514  143.5274  166.6703 C   0  0  0  0  0  0  0  0  0  0  0  0
  156.8667  144.0659  165.9870 O   0  0  0  0  0  0  0  0  0  0  0  0
  154.7982  144.5987  167.2312 C   0  0  0  0  0  0  0  0  0  0  0  0
  155.4800  144.4655  168.5937 C   0  0  0  0  0  0  0  0  0  0  0  0
  156.0196  143.1122  168.1300 C   0  0  0  0  0  0  0  0  0  0  0  0
  154.1978  141.6727  161.8667 C   0  0  0  0  0  0  0  0  0  0  0  0
  154.9502  141.0184  162.5883 O   0  0  0  0  0  0  0  0  0  0  0  0
  154.0102  141.3726  160.5537 N   0  5  0  0  0  0  0  0  0  0  0  0
  153.1928  142.0799  159.7179 C   0  0  0  0  0  0  0  0  0  0  0  0
  153.0692  141.7414  158.5419 O   0  0  0  0  0  0  0  0  0  0  0  0
  151.6082  145.2714  157.5293 H   0  0  0  0  0  0  0  0  0  0  0  0
  152.7665  143.9670  157.4552 H   0  0  0  0  0  0  0  0  0  0  0  0
  153.0798  145.3957  158.4569 H   0  0  0  0  0  0  0  0  0  0  0  0
  151.7444  145.7605  160.6372 H   0  0  0  0  0  0  0  0  0  0  0  0
  150.2892  144.8185  160.9257 H   0  0  0  0  0  0  0  0  0  0  0  0
  150.3949  145.8334  159.5149 H   0  0  0  0  0  0  0  0  0  0  0  0
  149.9030  143.6935  157.9692 H   0  0  0  0  0  0  0  0  0  0  0  0
  149.7744  142.7459  159.4212 H   0  0  0  0  0  0  0  0  0  0  0  0
  150.9177  142.2742  158.1717 H   0  0  0  0  0  0  0  0  0  0  0  0
  152.1266  144.3519  161.9297 H   0  0  0  0  0  0  0  0  0  0  0  0
  153.3115  144.1748  164.0688 H   0  0  0  0  0  0  0  0  0  0  0  0
  153.0050  142.4992  164.4756 H   0  0  0  0  0  0  0  0  0  0  0  0
  155.4878  143.9346  164.3294 H   0  0  0  0  0  0  0  0  0  0  0  0
  154.1744  142.1610  166.0720 H   0  0  0  0  0  0  0  0  0  0  0  0
  155.7778  141.6002  165.6922 H   0  0  0  0  0  0  0  0  0  0  0  0
  156.5465  144.7780  165.4548 H   0  0  0  0  0  0  0  0  0  0  0  0
  154.8958  145.5853  166.7768 H   0  0  0  0  0  0  0  0  0  0  0  0
  153.7563  144.2748  167.2526 H   0  0  0  0  0  0  0  0  0  0  0  0
  156.2678  145.2048  168.7450 H   0  0  0  0  0  0  0  0  0  0  0  0
  154.7976  144.4176  169.4426 H   0  0  0  0  0  0  0  0  0  0  0  0
  155.3956  142.2780  168.4559 H   0  0  0  0  0  0  0  0  0  0  0  0
  157.0690  142.9403  168.3717 H   0  0  0  0  0  0  0  0  0  0  0  0
  1  2  1  0  0  0  0
  1 21  1  0  0  0  0
  1 22  1  0  0  0  0
  1 23  1  0  0  0  0
  2  3  1  0  0  0  0
  2  4  1  0  0  0  0
  2  5  1  0  0  0  0
  3 24  1  0  0  0  0
  3 25  1  0  0  0  0
  3 26  1  0  0  0  0
  4 27  1  0  0  0  0
  4 28  1  0  0  0  0
  4 29  1  0  0  0  0
  5 19  1  0  0  0  0
  5  6  1  0  0  0  0
  6  7  2  0  0  0  0
  6 30  1  0  0  0  0
  7  8  1  0  0  0  0
  7 16  1  0  0  0  0
  8  9  1  0  0  0  0
  8 31  1  0  0  0  0
  8 32  1  0  0  0  0
  9 10  1  0  0  0  0
  9 33  1  0  0  0  0
 10 11  1  0  0  0  0
 10 34  1  0  0  0  0
 10 35  1  0  0  0  0
 11 15  1  0  0  0  0
 11 12  1  0  0  0  0
 11 13  1  0  0  0  0
 12 36  1  0  0  0  0
 13 14  1  0  0  0  0
 13 37  1  0  0  0  0
 13 38  1  0  0  0  0
 14 15  1  0  0  0  0
 14 39  1  0  0  0  0
 14 40  1  0  0  0  0
 15 41  1  0  0  0  0
 15 42  1  0  0  0  0
 16 17  2  0  0  0  0
 16 18  1  0  0  0  0
 18 19  1  0  0  0  0
 19 20  2  0  0  0  0
M  CHG  1  18  -1
M  END
> <s_m_source_file>
AV-unprocessed.smi

> <i_m_source_file_index>
4

> <i_lp_mmshare_version>
43012

> <i_f3d_flags>
0

> <s_epik_input>
W0NIM11DKFtDSDNdKShbQ0gzXSluMVtjSF1jKGMoPU8pW25IXWMxPU8pW0NIMl1bTkhdW0NIMl1DMihbT0hdKVtDSDJdW0NIMl1bQ0gyXTI=

> <s_epik_cmdline>
J2VwaWtfcHl0aG9uJywgJy1waCcsICc3LjAnLCAnLXRuJywgJzgnLCAnLW1hJywgJzIwMCcsICctbWV0YWxfYmluZGluZycsICctaW1hZScsICc8aW5maWxlLm1hZT4nLCAnLW9tYWUnLCAnPG91dGZpbGUubWFlPic=

> <r_lp_tautomer_probability>
0.999537

> <r_epik_Ionization_Penalty>
6.25758

> <r_epik_Ionization_Penalty_Charging>
1.60838e-06

> <r_epik_Ionization_Penalty_Neutral>
6.25758

> <r_epik_State_Penalty>
6.1746

> <r_epik_Charging_Adjusted_Penalty>
6.1746

> <i_epik_Tot_Q>
-1

> <i_epik_Tot_abs_Q>
1

> <r_epik_Metal_State_Penalty>
2.58365

> <b_epik_Metal_Only>
1

> <s_lp_Force_Field>
OPLS_2005

> <r_lp_Energy>
44.4869

> <b_lp_Chiralities_Consistent>
1

> <s_lp_Variant>
AV-unprocessed.smi:4-4

> <Gold.Version>
5.8.1

> <Gold.Id.Protein>
6NUR|6NUR_protein|mol2

> <Gold.PLP.Fitness>
49.4971

> <Gold.PLP.PLP>
-51.5049

> <Gold.PLP.part.hbond>
-2.6231

> <Gold.PLP.part.metal>
0.0000

> <Gold.PLP.part.buried>
-5.9439

> <Gold.PLP.part.nonpolar>
-41.5429

> <Gold.PLP.part.repulsive>
0.0000

> <Gold.PLP.ligand.clash>
0.0000

> <Gold.PLP.ligand.torsion>
1.0612

> <Gold.PLP.Chemscore.Hbond>
0.0000

> <Gold.PLP.Chemscore.CHOScore>
0.0000

> <Gold.PLP.Chemscore.Metal>
0.0000

> <Gold.PLP.Chemscore.Internal.Correction>
0.1147

> <Gold.Rescore>
     Score         DG    S(hbond)    S(metal)    S(lipo)     H(rot)  DE(clash)    DE(int)     intcor
      7.65     -12.99       0.00        0.00     116.66       2.40       1.28       4.05       ----

> <Gold.Chemscore.Fitness>
7.6527

> <Gold.Chemscore.DG>
-12.9898

> <Gold.Chemscore.ZeroCoef>
-5.4800

> <Gold.Chemscore.Hbond>
0.0000

> <Gold.Chemscore.Metal>
0.0000

> <Gold.Chemscore.Lipo>
116.6611

> <Gold.Chemscore.Internal_Hbond>
0.0000

> <Gold.Chemscore.DEClash>
1.2832

> <Gold.Chemscore.DEInternal>
4.0539

> <Gold.Chemscore.Rot>
2.3983

> <Gold.Chemscore.Internal.Correction>
   9.000000E+99

> <Gold.Chemscore.Hbond.Weighted>
-0.0000

> <Gold.Chemscore.Metal.Weighted>
-0.0000

> <Gold.Chemscore.Lipo.Weighted>
-13.6494

> <Gold.Chemscore.Internal_Hbond.Weighted>
0.0000

> <Gold.Chemscore.DEClash.Weighted>
1.2832

> <Gold.Chemscore.DEInternal.Weighted>
4.0539

> <Gold.Chemscore.Rot.Weighted>
6.1395

> <Gold.Chemscore.Internal.Correction.Weighted>
   9.000000E+99

> <Gold.Protein.RotatedTorsions>
[ 6907 6896 6895 6894 ] final   99.51 input  -60.11 | X-H torsion
[ 7974 7965 7964 7962 ] final -167.03 input  175.53 | X-H torsion
[ 8008 7997 7996 7995 ] final   29.37 input   59.86 | X-H torsion
[ 10167 10162 10161 10158 ] final  -10.44 input  -65.29 | X-H torsion
[ 10718 10713 10712 10709 ] final  142.68 input   66.30 | X-H torsion
[ 10763 10752 10751 10750 ] final  -58.77 input  -60.55 | X-H torsion
[ 11005 11000 10999 10996 ] final -107.31 input  -57.11 | X-H torsion

> <Gold.Protein.ActiveResidues>
 VAL166  LYS551  ARG553  GLY616  TRP617  ASP618  TYR619  PRO620  LYS621  CYS622 
 ASP623  PHE694  ASN695  SER759  ASP760  ASP761  ALA762  ILE779  LEU786  VAL792 
 PHE793  MET794  SER795  GLU796  ALA797  LYS798  CYS799  TRP800  GLU811  SER814 

> <Gold.Protein.RotatedAtoms>
  152.5390  134.0418  159.8070 H   0  0  0  0  0  0  0  0  0  0  0  0  # atno 6907 bound_to 6896
  151.0573  133.5566  159.2644 H   0  0  0  0  0  0  0  0  0  0  0  0  # atno 6908 bound_to 6896
  151.2478  135.0619  159.9104 H   0  0  0  0  0  0  0  0  0  0  0  0  # atno 6909 bound_to 6896
  144.7232  140.2578  143.6269 H   0  0  0  0  0  0  0  0  0  0  0  0  # atno 7974 bound_to 7965
  155.0734  140.3202  155.4623 H   0  0  0  0  0  0  0  0  0  0  0  0  # atno 8008 bound_to 7997
  156.2785  140.2108  156.5807 H   0  0  0  0  0  0  0  0  0  0  0  0  # atno 8009 bound_to 7997
  154.7036  140.0504  157.0470 H   0  0  0  0  0  0  0  0  0  0  0  0  # atno 8010 bound_to 7997
  140.7114  143.5748  150.9054 H   0  0  0  0  0  0  0  0  0  0  0  0  # atno 10167 bound_to 10162
  157.3778  131.0988  151.0768 H   0  0  0  0  0  0  0  0  0  0  0  0  # atno 10718 bound_to 10713
  154.2433  135.6339  153.5215 H   0  0  0  0  0  0  0  0  0  0  0  0  # atno 10763 bound_to 10752
  152.9926  135.5547  154.5887 H   0  0  0  0  0  0  0  0  0  0  0  0  # atno 10764 bound_to 10752
  154.5397  135.2894  155.1081 H   0  0  0  0  0  0  0  0  0  0  0  0  # atno 10765 bound_to 10752
  141.0960  133.8969  157.1961 H   0  0  0  0  0  0  0  0  0  0  0  0  # atno 11005 bound_to 11000
  145.8165  139.2025  143.1963 LP  0  0  0  0  0  0  0  0  0  0  0  0  # atno 17320 bound_to 7965
  146.0551  140.8029  142.9762 LP  0  0  0  0  0  0  0  0  0  0  0  0  # atno 17321 bound_to 7965
  139.9474  143.6311  152.3038 LP  0  0  0  0  0  0  0  0  0  0  0  0  # atno 17342 bound_to 10162
  139.6818  144.7655  151.1595 LP  0  0  0  0  0  0  0  0  0  0  0  0  # atno 17343 bound_to 10162
  157.1848  130.6325  149.5684 LP  0  0  0  0  0  0  0  0  0  0  0  0  # atno 17370 bound_to 10713
  155.9769  130.4741  150.6558 LP  0  0  0  0  0  0  0  0  0  0  0  0  # atno 17371 bound_to 10713
  139.9797  135.0102  156.9720 LP  0  0  0  0  0  0  0  0  0  0  0  0  # atno 17394 bound_to 11000
  140.5138  134.0976  155.7276 LP  0  0  0  0  0  0  0  0  0  0  0  0  # atno 17395 bound_to 11000

$$$$
