AV-unprocessed.smi:3303|AV-procd|sdf|12696|dock6
  -GOLD-   2272019 33D 1   1.00000     0.00000
 Structure written by MMmdl.
 44 45  0  0  0  0  0  0  0  0  2 V2000
  149.7486  131.1795  154.8527 C   0  0  0  0  0  0  0  0  0  0  0  0
  148.9553  131.5570  153.5892 C   0  0  1  0  0  0  0  0  0  0  0  0
  147.8895  130.4823  153.2957 C   0  0  0  0  0  0  0  0  0  0  0  0
  147.0956  130.7919  152.0785 N   0  3  1  0  0  0  0  0  0  0  0  0
  146.1952  129.6656  151.7314 C   0  0  0  0  0  0  0  0  0  0  0  0
  146.4063  132.1116  152.1875 C   0  0  2  0  0  0  0  0  0  0  0  0
  145.5832  132.4611  150.9318 C   0  0  0  0  0  0  0  0  0  0  0  0
  147.4391  133.2239  152.4533 C   0  0  0  0  0  0  0  0  0  0  0  0
  148.2879  132.9451  153.7043 C   0  0  2  0  0  0  0  0  0  0  0  0
  149.3039  133.9888  153.7798 N   0  0  0  0  0  0  0  0  0  0  0  0
  149.2942  134.6414  155.0801 C   0  0  0  0  0  0  0  0  0  0  0  0
  150.7182  135.0805  155.4472 C   0  0  0  0  0  0  0  0  0  0  0  0
  150.9105  136.5781  155.3042 C   0  0  0  0  0  0  0  0  0  0  0  0
  150.0598  137.4820  155.9760 C   0  0  0  0  0  0  0  0  0  0  0  0
  150.2815  138.8626  155.8078 C   0  0  0  0  0  0  0  0  0  0  0  0
  151.3385  139.2840  154.9780 C   0  0  0  0  0  0  0  0  0  0  0  0
  152.1298  138.3018  154.3498 C   0  0  0  0  0  0  0  0  0  0  0  0
  151.9261  136.9755  154.5046 N   0  0  0  0  0  0  0  0  0  0  0  0
  149.1115  131.1822  155.7379 H   0  0  0  0  0  0  0  0  0  0  0  0
  150.5702  131.8733  155.0320 H   0  0  0  0  0  0  0  0  0  0  0  0
  150.1844  130.1843  154.7598 H   0  0  0  0  0  0  0  0  0  0  0  0
  149.6523  131.5732  152.7493 H   0  0  0  0  0  0  0  0  0  0  0  0
  148.3831  129.5181  153.1652 H   0  0  0  0  0  0  0  0  0  0  0  0
  147.2156  130.3762  154.1477 H   0  0  0  0  0  0  0  0  0  0  0  0
  145.3779  129.5823  152.4490 H   0  0  0  0  0  0  0  0  0  0  0  0
  146.7395  128.7207  151.7272 H   0  0  0  0  0  0  0  0  0  0  0  0
  145.7717  129.7837  150.7345 H   0  0  0  0  0  0  0  0  0  0  0  0
  145.7219  132.0667  153.0366 H   0  0  0  0  0  0  0  0  0  0  0  0
  145.1758  133.4700  151.0032 H   0  0  0  0  0  0  0  0  0  0  0  0
  144.7320  131.7935  150.8001 H   0  0  0  0  0  0  0  0  0  0  0  0
  146.1933  132.4167  150.0290 H   0  0  0  0  0  0  0  0  0  0  0  0
  148.0876  133.3265  151.5811 H   0  0  0  0  0  0  0  0  0  0  0  0
  146.9270  134.1803  152.5691 H   0  0  0  0  0  0  0  0  0  0  0  0
  147.6368  132.9656  154.5805 H   0  0  0  0  0  0  0  0  0  0  0  0
  149.1352  134.6810  153.0637 H   0  0  0  0  0  0  0  0  0  0  0  0
  148.6323  135.5081  155.0467 H   0  0  0  0  0  0  0  0  0  0  0  0
  148.9053  133.9583  155.8360 H   0  0  0  0  0  0  0  0  0  0  0  0
  150.9471  134.7863  156.4726 H   0  0  0  0  0  0  0  0  0  0  0  0
  151.4448  134.5716  154.8117 H   0  0  0  0  0  0  0  0  0  0  0  0
  149.2566  137.1282  156.6057 H   0  0  0  0  0  0  0  0  0  0  0  0
  149.6522  139.5854  156.3059 H   0  0  0  0  0  0  0  0  0  0  0  0
  151.5376  140.3345  154.8257 H   0  0  0  0  0  0  0  0  0  0  0  0
  152.9477  138.5887  153.7054 H   0  0  0  0  0  0  0  0  0  0  0  0
  147.7574  130.8718  151.3195 H   0  0  0  0  0  0  0  0  0  0  0  0
  1  2  1  0  0  0  0
  1 19  1  0  0  0  0
  1 20  1  0  0  0  0
  1 21  1  0  0  0  0
  2  9  1  0  0  0  0
  2  3  1  0  0  0  0
  2 22  1  0  0  0  0
  3  4  1  0  0  0  0
  3 23  1  0  0  0  0
  3 24  1  0  0  0  0
  4  5  1  0  0  0  0
  4  6  1  0  0  0  0
  4 44  1  0  0  0  0
  5 25  1  0  0  0  0
  5 26  1  0  0  0  0
  5 27  1  0  0  0  0
  6  7  1  0  0  0  0
  6  8  1  0  0  0  0
  6 28  1  0  0  0  0
  7 29  1  0  0  0  0
  7 30  1  0  0  0  0
  7 31  1  0  0  0  0
  8  9  1  0  0  0  0
  8 32  1  0  0  0  0
  8 33  1  0  0  0  0
  9 10  1  0  0  0  0
  9 34  1  0  0  0  0
 10 11  1  0  0  0  0
 10 35  1  0  0  0  0
 11 12  1  0  0  0  0
 11 36  1  0  0  0  0
 11 37  1  0  0  0  0
 12 13  1  0  0  0  0
 12 38  1  0  0  0  0
 12 39  1  0  0  0  0
 13 18  1  0  0  0  0
 13 14  2  0  0  0  0
 14 15  1  0  0  0  0
 14 40  1  0  0  0  0
 15 16  2  0  0  0  0
 15 41  1  0  0  0  0
 16 17  1  0  0  0  0
 16 42  1  0  0  0  0
 17 18  2  0  0  0  0
 17 43  1  0  0  0  0
M  CHG  1   4   1
M  END
> <s_m_source_file>
AV-unprocessed.smi

> <i_m_source_file_index>
3303

> <i_lp_mmshare_version>
43012

> <i_f3d_flags>
0

> <s_epik_input>
W0NIM11bQ0BASF0xW0NIMl1OKFtDSDNdKVtDQEBIXShbQ0gzXSlbQ0gyXVtDQEhdMVtOSF1bQ0gyXVtDSDJdYzJbY0hdW2NIXVtjSF1bY0hdbjI=

> <s_epik_cmdline>
J2VwaWtfcHl0aG9uJywgJy1waCcsICc3LjAnLCAnLXRuJywgJzgnLCAnLW1hJywgJzIwMCcsICctbWV0YWxfYmluZGluZycsICctaW1hZScsICc8aW5maWxlLm1hZT4nLCAnLW9tYWUnLCAnPG91dGZpbGUubWFlPic=

> <r_epik_Ionization_Penalty>
2.31085

> <r_epik_Ionization_Penalty_Charging>
0.000313057

> <r_epik_Ionization_Penalty_Neutral>
2.31054

> <r_epik_State_Penalty>
2.4087

> <r_epik_Charging_Adjusted_Penalty>
2.40902

> <i_epik_Tot_Q>
1

> <i_epik_Tot_abs_Q>
1

> <r_epik_Metal_State_Penalty>
2.30979

> <b_epik_Metal_Only>
0

> <s_lp_Force_Field>
OPLS_2005

> <r_lp_Energy>
23.6085

> <b_lp_Chiralities_Consistent>
1

> <s_lp_Variant>
AV-unprocessed.smi:3303-40

> <Gold.Version>
5.8.1

> <Gold.Id.Protein>
6NUR|6NUR_protein|mol2

> <Gold.PLP.Fitness>
40.1396

> <Gold.PLP.PLP>
-35.0415

> <Gold.PLP.part.hbond>
-3.0000

> <Gold.PLP.part.metal>
0.0000

> <Gold.PLP.part.buried>
-3.9021

> <Gold.PLP.part.nonpolar>
-28.1175

> <Gold.PLP.part.repulsive>
0.1545

> <Gold.PLP.ligand.clash>
0.0000

> <Gold.PLP.ligand.torsion>
1.2843

> <Gold.PLP.Chemscore.Hbond>
2.5500

> <Gold.PLP.Chemscore.CHOScore>
0.0000

> <Gold.PLP.Chemscore.Metal>
0.0000

> <Gold.Chemscore.Hbonds>
donor molecule, donor type, donor heavy atom, donor atom, acceptor molecule, acceptor atom, score
      L1  H     4    44       P1 10747  1.00
      L1  H    10    35       P1  7948  0.50
      P1  H 10752 10764       L1    18  1.00

> <Gold.PLP.Chemscore.Internal.Correction>
0.0168

> <Gold.Rescore>
     Score         DG    S(hbond)    S(metal)    S(lipo)     H(rot)  DE(clash)    DE(int)     intcor
     17.71     -18.99       1.95        0.00      88.91       1.33       0.02       1.25       ----

> <Gold.Chemscore.Fitness>
17.7101

> <Gold.Chemscore.DG>
-18.9854

> <Gold.Chemscore.ZeroCoef>
-5.4800

> <Gold.Chemscore.Hbond>
1.9463

> <Gold.Chemscore.Metal>
0.0000

> <Gold.Chemscore.Lipo>
88.9086

> <Gold.Chemscore.Internal_Hbond>
0.0000

> <Gold.Chemscore.DEClash>
0.0234

> <Gold.Chemscore.DEInternal>
1.2518

> <Gold.Chemscore.Rot>
1.3272

> <Gold.Chemscore.Internal.Correction>
   9.000000E+99

> <Gold.Chemscore.Hbonds>
donor molecule, donor type, donor heavy atom, donor atom, acceptor molecule, acceptor atom, score
      L1  H     4    44       P1 10747  0.99
      L1  H    10    35       P1  7948  0.02
      P1  H 10752 10764       L1    18  0.63

> <Gold.Chemscore.Hbond.Weighted>
-6.5008

> <Gold.Chemscore.Metal.Weighted>
-0.0000

> <Gold.Chemscore.Lipo.Weighted>
-10.4023

> <Gold.Chemscore.Internal_Hbond.Weighted>
0.0000

> <Gold.Chemscore.DEClash.Weighted>
0.0234

> <Gold.Chemscore.DEInternal.Weighted>
1.2518

> <Gold.Chemscore.Rot.Weighted>
3.3976

> <Gold.Chemscore.Internal.Correction.Weighted>
   9.000000E+99

> <Gold.Protein.RotatedTorsions>
[ 6907 6896 6895 6894 ] final  149.73 input  -60.11 | X-H torsion
[ 7974 7965 7964 7962 ] final  -45.42 input  175.53 | X-H torsion
[ 8008 7997 7996 7995 ] final  -84.53 input   59.86 | X-H torsion
[ 10167 10162 10161 10158 ] final  161.00 input  -65.29 | X-H torsion
[ 10718 10713 10712 10709 ] final   70.18 input   66.30 | X-H torsion
[ 10763 10752 10751 10750 ] final  -77.31 input  -60.55 | X-H torsion
[ 11005 11000 10999 10996 ] final  -30.20 input  -57.11 | X-H torsion

> <Gold.Protein.ActiveResidues>
 VAL166  LYS551  ARG553  GLY616  TRP617  ASP618  TYR619  PRO620  LYS621  CYS622 
 ASP623  PHE694  ASN695  SER759  ASP760  ASP761  ALA762  ILE779  LEU786  VAL792 
 PHE793  MET794  SER795  GLU796  ALA797  LYS798  CYS799  TRP800  GLU811  SER814 

> <Gold.Protein.RotatedAtoms>
  152.1241  133.4370  159.4689 H   0  0  0  0  0  0  0  0  0  0  0  0  # atno 6907 bound_to 6896
  150.6874  134.2500  159.4516 H   0  0  0  0  0  0  0  0  0  0  0  0  # atno 6908 bound_to 6896
  152.0379  134.9728  160.0624 H   0  0  0  0  0  0  0  0  0  0  0  0  # atno 6909 bound_to 6896
  145.9822  140.7271  142.9358 H   0  0  0  0  0  0  0  0  0  0  0  0  # atno 7974 bound_to 7965
  154.6308  140.0604  156.9729 H   0  0  0  0  0  0  0  0  0  0  0  0  # atno 8008 bound_to 7997
  155.1669  140.3287  155.4382 H   0  0  0  0  0  0  0  0  0  0  0  0  # atno 8009 bound_to 7997
  156.2482  140.1921  156.6773 H   0  0  0  0  0  0  0  0  0  0  0  0  # atno 8010 bound_to 7997
  139.4845  144.4579  151.8744 H   0  0  0  0  0  0  0  0  0  0  0  0  # atno 10167 bound_to 10162
  157.6386  130.9464  150.0616 H   0  0  0  0  0  0  0  0  0  0  0  0  # atno 10718 bound_to 10713
  154.5112  135.5768  153.6606 H   0  0  0  0  0  0  0  0  0  0  0  0  # atno 10763 bound_to 10752
  152.9897  135.6159  154.2876 H   0  0  0  0  0  0  0  0  0  0  0  0  # atno 10764 bound_to 10752
  154.2791  135.2851  155.2684 H   0  0  0  0  0  0  0  0  0  0  0  0  # atno 10765 bound_to 10752
  140.9362  133.7307  156.1009 H   0  0  0  0  0  0  0  0  0  0  0  0  # atno 11005 bound_to 11000
  144.6865  140.2928  143.7275 LP  0  0  0  0  0  0  0  0  0  0  0  0  # atno 17320 bound_to 7965
  145.7752  139.1871  143.2189 LP  0  0  0  0  0  0  0  0  0  0  0  0  # atno 17321 bound_to 7965
  140.4040  144.2457  150.5891 LP  0  0  0  0  0  0  0  0  0  0  0  0  # atno 17342 bound_to 10162
  140.5030  143.2312  151.8650 LP  0  0  0  0  0  0  0  0  0  0  0  0  # atno 17343 bound_to 10162
  156.1647  130.3645  149.9249 LP  0  0  0  0  0  0  0  0  0  0  0  0  # atno 17370 bound_to 10713
  156.7239  130.9017  151.3620 LP  0  0  0  0  0  0  0  0  0  0  0  0  # atno 17371 bound_to 10713
  140.7795  134.3741  157.5490 LP  0  0  0  0  0  0  0  0  0  0  0  0  # atno 17394 bound_to 11000
  139.8808  134.9073  156.2942 LP  0  0  0  0  0  0  0  0  0  0  0  0  # atno 17395 bound_to 11000

$$$$
