AV-unprocessed.smi:158|AV-procd|sdf|1335|dock1
  -GOLD-   2262019 33D 1   1.00000     0.00000
 Structure written by MMmdl.
 31 33  0  0  0  0  0  0  0  0  1 V2000
  144.0881  141.9252  155.0490 N   0  0  0  0  0  0  0  0  0  0  0  0
  145.3025  141.9601  155.6149 C   0  0  0  0  0  0  0  0  0  0  0  0
  145.4235  142.5100  156.8456 N   0  0  0  0  0  0  0  0  0  0  0  0
  146.6181  142.5626  157.4466 C   0  0  0  0  0  0  0  0  0  0  0  0
  146.6609  143.2822  159.0130 Cl  0  0  0  0  0  0  0  0  0  0  0  0
  147.7851  142.1191  156.9695 N   0  0  0  0  0  0  0  0  0  0  0  0
  147.6698  141.5665  155.7274 C   0  0  0  0  0  0  0  0  0  0  0  0
  146.4639  141.4483  154.9858 C   0  0  0  0  0  0  0  0  0  0  0  0
  146.7150  140.8330  153.7670 N   0  0  0  0  0  0  0  0  0  0  0  0
  148.0006  140.6035  153.7912 C   0  0  0  0  0  0  0  0  0  0  0  0
  148.6548  141.0143  154.9320 N   0  0  0  0  0  0  0  0  0  0  0  0
  150.1148  140.8942  155.2338 C   0  0  2  0  0  0  0  0  0  0  0  0
  150.6102  139.7715  154.5720 O   0  0  0  0  0  0  0  0  0  0  0  0
  151.4570  139.0306  155.4401 C   0  0  2  0  0  0  0  0  0  0  0  0
  151.5350  137.5596  154.9946 C   0  0  0  0  0  0  0  0  0  0  0  0
  152.1753  137.4585  153.7404 O   0  0  0  0  0  0  0  0  0  0  0  0
  150.9150  139.3017  156.8518 C   0  0  2  0  0  0  0  0  0  0  0  0
  149.9190  138.3832  157.2578 O   0  0  0  0  0  0  0  0  0  0  0  0
  150.3397  140.7051  156.7418 C   0  0  1  0  0  0  0  0  0  0  0  0
  151.2431  141.5958  157.1535 F   0  0  0  0  0  0  0  0  0  0  0  0
  150.5575  141.8091  154.8374 H   0  0  0  0  0  0  0  0  0  0  0  0
  152.4476  139.4822  155.3606 H   0  0  0  0  0  0  0  0  0  0  0  0
  151.7145  139.2534  157.5921 H   0  0  0  0  0  0  0  0  0  0  0  0
  149.4295  140.8635  157.3230 H   0  0  0  0  0  0  0  0  0  0  0  0
  143.9725  141.5195  154.1313 H   0  0  0  0  0  0  0  0  0  0  0  0
  143.2911  142.3023  155.5412 H   0  0  0  0  0  0  0  0  0  0  0  0
  148.5129  140.1273  152.9677 H   0  0  0  0  0  0  0  0  0  0  0  0
  152.0584  136.9461  155.7285 H   0  0  0  0  0  0  0  0  0  0  0  0
  150.5301  137.1480  154.8997 H   0  0  0  0  0  0  0  0  0  0  0  0
  151.5323  137.2068  153.0949 H   0  0  0  0  0  0  0  0  0  0  0  0
  149.9847  138.2662  158.1933 H   0  0  0  0  0  0  0  0  0  0  0  0
  1  2  1  0  0  0  0
  1 25  1  0  0  0  0
  1 26  1  0  0  0  0
  2  8  1  0  0  0  0
  2  3  2  0  0  0  0
  3  4  1  0  0  0  0
  4  5  1  0  0  0  0
  4  6  2  0  0  0  0
  6  7  1  0  0  0  0
  7 11  1  0  0  0  0
  7  8  2  0  0  0  0
  8  9  1  0  0  0  0
  9 10  2  0  0  0  0
 10 11  1  0  0  0  0
 10 27  1  0  0  0  0
 11 12  1  0  0  0  0
 12 21  1  0  0  0  0
 12 19  1  0  0  0  0
 12 13  1  0  0  0  0
 13 14  1  0  0  0  0
 14 22  1  0  0  0  0
 14 15  1  0  0  0  0
 14 17  1  0  0  0  0
 15 16  1  0  0  0  0
 15 28  1  0  0  0  0
 15 29  1  0  0  0  0
 16 30  1  0  0  0  0
 17 23  1  0  0  0  0
 17 18  1  0  0  0  0
 17 19  1  0  0  0  0
 18 31  1  0  0  0  0
 19 24  1  0  0  0  0
 19 20  1  0  0  0  0
M  END
> <s_m_source_file>
AV-unprocessed.smi

> <i_m_source_file_index>
158

> <i_lp_mmshare_version>
43012

> <i_f3d_flags>
0

> <s_epik_input>
Q2xjKG4xKW5jKFtOSDJdKWMoYzEyKW5bY0hdbjJbQ0BASF0zT1tDQEhdKFtDSDJdW09IXSlbQ0BASF0oW09IXSlbQ0BASF0zRg==

> <s_epik_cmdline>
J2VwaWtfcHl0aG9uJywgJy1waCcsICc3LjAnLCAnLXRuJywgJzgnLCAnLW1hJywgJzIwMCcsICctbWV0YWxfYmluZGluZycsICctaW1hZScsICc8aW5maWxlLm1hZT4nLCAnLW9tYWUnLCAnPG91dGZpbGUubWFlPic=

> <r_lp_tautomer_probability>
1

> <r_epik_Ionization_Penalty>
6.51543e-05

> <r_epik_Ionization_Penalty_Charging>
0

> <r_epik_Ionization_Penalty_Neutral>
6.51543e-05

> <r_epik_State_Penalty>
-0

> <r_epik_Charging_Adjusted_Penalty>
0

> <i_epik_Tot_Q>
0

> <i_epik_Tot_abs_Q>
0

> <r_epik_Metal_State_Penalty>
-0

> <b_epik_Metal_Only>
0

> <s_epik_Chemistry_Notes>
This compound contains an acetal/aminal-like group ( X-CH(R)-Y where X, Y are N, S, or O) that may be acid/base labile, releasing an aldehyde.

> <s_lp_Force_Field>
OPLS_2005

> <r_lp_Energy>
34.1918

> <b_lp_Chiralities_Consistent>
1

> <s_lp_Variant>
AV-unprocessed.smi:158-13

> <Gold.Version>
5.8.1

> <Gold.Id.Protein>
6NUR|6NUR_protein|mol2

> <Gold.PLP.Fitness>
37.7074

> <Gold.PLP.PLP>
-26.8340

> <Gold.PLP.part.hbond>
-4.2558

> <Gold.PLP.part.metal>
0.0000

> <Gold.PLP.part.buried>
-3.0296

> <Gold.PLP.part.nonpolar>
-21.1077

> <Gold.PLP.part.repulsive>
0.9037

> <Gold.PLP.ligand.clash>
0.0000

> <Gold.PLP.ligand.torsion>
0.7631

> <Gold.PLP.Chemscore.Hbond>
3.1323

> <Gold.PLP.Chemscore.CHOScore>
1.0000

> <Gold.PLP.Chemscore.Metal>
0.0000

> <Gold.Chemscore.Hbonds>
donor molecule, donor type, donor heavy atom, donor atom, acceptor molecule, acceptor atom, score
      L1  H     1    25       P1 10175  0.90
      L1  H    16    30       P1  7949  0.84
      P1  H  7989  7998       L1    13  0.50
      P1  H 10752 10764       L1    16  0.90
      L1  C    10    27       P1  7957  1.00

> <Gold.PLP.Chemscore.Internal.Correction>
0.0027

> <Gold.Rescore>
     Score         DG    S(hbond)    S(metal)    S(lipo)     H(rot)  DE(clash)    DE(int)     intcor
      5.06      -6.97       1.84        0.00      28.42       3.12       0.02       1.89       ----

> <Gold.Chemscore.Fitness>
5.0583

> <Gold.Chemscore.DG>
-6.9696

> <Gold.Chemscore.ZeroCoef>
-5.4800

> <Gold.Chemscore.Hbond>
1.8442

> <Gold.Chemscore.Metal>
0.0000

> <Gold.Chemscore.Lipo>
28.4171

> <Gold.Chemscore.Internal_Hbond>
0.0000

> <Gold.Chemscore.DEClash>
0.0206

> <Gold.Chemscore.DEInternal>
1.8907

> <Gold.Chemscore.Rot>
3.1230

> <Gold.Chemscore.Internal.Correction>
   9.000000E+99

> <Gold.Chemscore.Hbonds>
donor molecule, donor type, donor heavy atom, donor atom, acceptor molecule, acceptor atom, score
      L1  H     1    25       P1 10175  0.18
      L1  H    16    30       P1  7949  0.72
      P1  H  7989  7998       L1    13  0.02
      P1  H 10752 10764       L1    16  0.05

> <Gold.Chemscore.Hbond.Weighted>
-6.1598

> <Gold.Chemscore.Metal.Weighted>
-0.0000

> <Gold.Chemscore.Lipo.Weighted>
-3.3248

> <Gold.Chemscore.Internal_Hbond.Weighted>
0.0000

> <Gold.Chemscore.DEClash.Weighted>
0.0206

> <Gold.Chemscore.DEInternal.Weighted>
1.8907

> <Gold.Chemscore.Rot.Weighted>
7.9950

> <Gold.Chemscore.Internal.Correction.Weighted>
   9.000000E+99

> <Gold.Protein.RotatedTorsions>
[ 6907 6896 6895 6894 ] final  -57.85 input  -60.11 | X-H torsion
[ 7974 7965 7964 7962 ] final  -32.78 input  175.53 | X-H torsion
[ 8008 7997 7996 7995 ] final   -2.01 input   59.86 | X-H torsion
[ 10167 10162 10161 10158 ] final  119.30 input  -65.29 | X-H torsion
[ 10718 10713 10712 10709 ] final   46.85 input   66.30 | X-H torsion
[ 10763 10752 10751 10750 ] final  -97.66 input  -60.55 | X-H torsion
[ 11005 11000 10999 10996 ] final   37.21 input  -57.11 | X-H torsion

> <Gold.Protein.ActiveResidues>
 VAL166  LYS551  ARG553  GLY616  TRP617  ASP618  TYR619  PRO620  LYS621  CYS622 
 ASP623  PHE694  ASN695  SER759  ASP760  ASP761  ALA762  ILE779  LEU786  VAL792 
 PHE793  MET794  SER795  GLU796  ALA797  LYS798  CYS799  TRP800  GLU811  SER814 

> <Gold.Protein.RotatedAtoms>
  150.8053  134.7175  159.6638 H   0  0  0  0  0  0  0  0  0  0  0  0  # atno 6907 bound_to 6896
  152.4172  134.6016  160.0011 H   0  0  0  0  0  0  0  0  0  0  0  0  # atno 6908 bound_to 6896
  151.6242  133.3300  159.3130 H   0  0  0  0  0  0  0  0  0  0  0  0  # atno 6909 bound_to 6896
  146.0963  140.5834  142.8841 H   0  0  0  0  0  0  0  0  0  0  0  0  # atno 7974 bound_to 7965
  154.6404  140.2545  155.7328 H   0  0  0  0  0  0  0  0  0  0  0  0  # atno 8008 bound_to 7997
  156.2526  140.2888  156.0716 H   0  0  0  0  0  0  0  0  0  0  0  0  # atno 8009 bound_to 7997
  155.1605  140.0384  157.2831 H   0  0  0  0  0  0  0  0  0  0  0  0  # atno 8010 bound_to 7997
  139.6055  144.7069  151.2963 H   0  0  0  0  0  0  0  0  0  0  0  0  # atno 10167 bound_to 10162
  157.4524  130.8146  149.7802 H   0  0  0  0  0  0  0  0  0  0  0  0  # atno 10718 bound_to 10713
  154.7347  135.5038  153.9022 H   0  0  0  0  0  0  0  0  0  0  0  0  # atno 10763 bound_to 10752
  153.0983  135.6678  153.9728 H   0  0  0  0  0  0  0  0  0  0  0  0  # atno 10764 bound_to 10752
  153.9521  135.3056  155.3417 H   0  0  0  0  0  0  0  0  0  0  0  0  # atno 10765 bound_to 10752
  140.2248  134.3598  155.7989 H   0  0  0  0  0  0  0  0  0  0  0  0  # atno 11005 bound_to 11000
  144.7398  140.4910  143.6877 LP  0  0  0  0  0  0  0  0  0  0  0  0  # atno 17320 bound_to 7965
  145.5942  139.1498  143.3165 LP  0  0  0  0  0  0  0  0  0  0  0  0  # atno 17321 bound_to 7965
  140.7282  143.6943  150.7896 LP  0  0  0  0  0  0  0  0  0  0  0  0  # atno 17342 bound_to 10162
  140.0528  143.5233  152.2665 LP  0  0  0  0  0  0  0  0  0  0  0  0  # atno 17343 bound_to 10162
  155.9993  130.3889  150.2670 LP  0  0  0  0  0  0  0  0  0  0  0  0  # atno 17370 bound_to 10713
  157.0843  131.0152  151.3145 LP  0  0  0  0  0  0  0  0  0  0  0  0  # atno 17371 bound_to 10713
  141.2221  133.7213  156.8635 LP  0  0  0  0  0  0  0  0  0  0  0  0  # atno 17394 bound_to 11000
  140.1812  134.9032  157.2950 LP  0  0  0  0  0  0  0  0  0  0  0  0  # atno 17395 bound_to 11000

$$$$
