AV-unprocessed.smi:1394|AV-procd|sdf|5665|dock1
  -GOLD-   22720 5283D 1   1.00000     0.00000
 Structure written by MMmdl.
 41 42  0  0  0  0  0  0  0  0  1 V2000
  150.8013  143.7139  158.1693 C   0  0  0  0  0  0  0  0  0  0  0  0
  151.4752  142.6069  159.0004 C   0  0  2  0  0  0  0  0  0  0  0  0
  152.5527  143.2058  159.9272 C   0  0  0  0  0  0  0  0  0  0  0  0
  153.2390  142.1279  160.7792 C   0  0  0  0  0  0  0  0  0  0  0  0
  153.8468  141.0326  159.8932 C   0  0  0  0  0  0  0  0  0  0  0  0
  152.7825  140.4132  158.9760 C   0  0  0  0  0  0  0  0  0  0  0  0
  152.0734  141.4828  158.1176 C   0  0  1  0  0  0  0  0  0  0  0  0
  151.0231  140.8578  157.3164 N   0  0  0  0  0  0  0  0  0  0  0  0
  151.2191  140.0721  156.2471 C   0  0  0  0  0  0  0  0  0  0  0  0
  152.3369  139.7692  155.8270 O   0  0  0  0  0  0  0  0  0  0  0  0
  149.9471  139.5426  155.5690 C   0  0  0  0  0  0  0  0  0  0  0  0
  148.8960  140.5616  155.4043 N   0  0  0  0  0  0  0  0  0  0  0  0
  148.7106  141.0789  154.1098 C   0  0  0  0  0  0  0  0  0  0  0  0
  147.7796  142.0058  153.8471 C   0  0  0  0  0  0  0  0  0  0  0  0
  146.9548  142.4715  154.9350 C   0  0  0  0  0  0  0  0  0  0  0  0
  147.1137  141.9971  156.1925 C   0  0  0  0  0  0  0  0  0  0  0  0
  146.2437  142.4737  157.3534 C   0  0  0  0  0  0  0  0  0  0  0  0
  145.5954  141.4485  157.9078 F   0  0  0  0  0  0  0  0  0  0  0  0
  146.9938  143.0497  158.2935 F   0  0  0  0  0  0  0  0  0  0  0  0
  145.3325  143.3636  156.9564 F   0  0  0  0  0  0  0  0  0  0  0  0
  148.1464  140.9783  156.4718 C   0  0  0  0  0  0  0  0  0  0  0  0
  148.3327  140.5199  157.6004 O   0  0  0  0  0  0  0  0  0  0  0  0
  151.5107  144.1820  157.4863 H   0  0  0  0  0  0  0  0  0  0  0  0
  150.3961  144.4945  158.8134 H   0  0  0  0  0  0  0  0  0  0  0  0
  149.9739  143.3260  157.5748 H   0  0  0  0  0  0  0  0  0  0  0  0
  150.7067  142.1636  159.6363 H   0  0  0  0  0  0  0  0  0  0  0  0
  153.3025  143.7272  159.3306 H   0  0  0  0  0  0  0  0  0  0  0  0
  152.1062  143.9545  160.5823 H   0  0  0  0  0  0  0  0  0  0  0  0
  154.0152  142.5802  161.3972 H   0  0  0  0  0  0  0  0  0  0  0  0
  152.5154  141.6858  161.4651 H   0  0  0  0  0  0  0  0  0  0  0  0
  154.6514  141.4537  159.2891 H   0  0  0  0  0  0  0  0  0  0  0  0
  154.2981  140.2589  160.5148 H   0  0  0  0  0  0  0  0  0  0  0  0
  153.2496  139.6644  158.3352 H   0  0  0  0  0  0  0  0  0  0  0  0
  152.0485  139.8823  159.5839 H   0  0  0  0  0  0  0  0  0  0  0  0
  152.8082  141.9345  157.4478 H   0  0  0  0  0  0  0  0  0  0  0  0
  150.0709  141.0492  157.5928 H   0  0  0  0  0  0  0  0  0  0  0  0
  150.2283  139.1250  154.6013 H   0  0  0  0  0  0  0  0  0  0  0  0
  149.5629  138.6961  156.1414 H   0  0  0  0  0  0  0  0  0  0  0  0
  149.3724  140.6815  153.3539 H   0  0  0  0  0  0  0  0  0  0  0  0
  147.6513  142.3949  152.8477 H   0  0  0  0  0  0  0  0  0  0  0  0
  146.1995  143.2138  154.7241 H   0  0  0  0  0  0  0  0  0  0  0  0
  1  2  1  0  0  0  0
  1 23  1  0  0  0  0
  1 24  1  0  0  0  0
  1 25  1  0  0  0  0
  2  7  1  0  0  0  0
  2  3  1  0  0  0  0
  2 26  1  0  0  0  0
  3  4  1  0  0  0  0
  3 27  1  0  0  0  0
  3 28  1  0  0  0  0
  4  5  1  0  0  0  0
  4 29  1  0  0  0  0
  4 30  1  0  0  0  0
  5  6  1  0  0  0  0
  5 31  1  0  0  0  0
  5 32  1  0  0  0  0
  6  7  1  0  0  0  0
  6 33  1  0  0  0  0
  6 34  1  0  0  0  0
  7  8  1  0  0  0  0
  7 35  1  0  0  0  0
  8  9  1  0  0  0  0
  8 36  1  0  0  0  0
  9 10  2  0  0  0  0
  9 11  1  0  0  0  0
 11 12  1  0  0  0  0
 11 37  1  0  0  0  0
 11 38  1  0  0  0  0
 12 21  1  0  0  0  0
 12 13  1  0  0  0  0
 13 14  2  0  0  0  0
 13 39  1  0  0  0  0
 14 15  1  0  0  0  0
 14 40  1  0  0  0  0
 15 16  2  0  0  0  0
 15 41  1  0  0  0  0
 16 17  1  0  0  0  0
 16 21  1  0  0  0  0
 17 18  1  0  0  0  0
 17 19  1  0  0  0  0
 17 20  1  0  0  0  0
 21 22  2  0  0  0  0
M  END
> <s_m_source_file>
AV-unprocessed.smi

> <i_m_source_file_index>
1394

> <i_lp_mmshare_version>
43012

> <i_f3d_flags>
0

> <s_epik_input>
W0NIM11bQ0BASF0xW0NIMl1bQ0gyXVtDSDJdW0NIMl1bQ0BIXTFbTkhdQyg9TylbQ0gyXW4yW2NIXVtjSF1bY0hdYyhDKEYpKEYpRiljMj1P

> <s_epik_cmdline>
J2VwaWtfcHl0aG9uJywgJy1waCcsICc3LjAnLCAnLXRuJywgJzgnLCAnLW1hJywgJzIwMCcsICctbWV0YWxfYmluZGluZycsICctaW1hZScsICc8aW5maWxlLm1hZT4nLCAnLW9tYWUnLCAnPG91dGZpbGUubWFlPic=

> <r_lp_tautomer_probability>
1

> <r_epik_Ionization_Penalty>
2.11487e-08

> <r_epik_Ionization_Penalty_Charging>
2.10183e-09

> <r_epik_Ionization_Penalty_Neutral>
1.90469e-08

> <r_epik_State_Penalty>
-0

> <r_epik_Charging_Adjusted_Penalty>
2.10183e-09

> <i_epik_Tot_Q>
0

> <i_epik_Tot_abs_Q>
0

> <r_epik_Metal_State_Penalty>
-0

> <b_epik_Metal_Only>
0

> <s_lp_Force_Field>
OPLS_2005

> <r_lp_Energy>
20.2228

> <b_lp_Chiralities_Consistent>
1

> <s_lp_Variant>
AV-unprocessed.smi:1394-1

> <Gold.Version>
5.8.1

> <Gold.Id.Protein>
6NUR|6NUR_protein|mol2

> <Gold.PLP.Fitness>
43.0071

> <Gold.PLP.PLP>
-38.1369

> <Gold.PLP.part.hbond>
-1.1682

> <Gold.PLP.part.metal>
0.0000

> <Gold.PLP.part.buried>
-4.1066

> <Gold.PLP.part.nonpolar>
-32.0444

> <Gold.PLP.part.repulsive>
0.0630

> <Gold.PLP.ligand.clash>
0.3225

> <Gold.PLP.ligand.torsion>
0.5843

> <Gold.PLP.Chemscore.Hbond>
1.0000

> <Gold.PLP.Chemscore.CHOScore>
1.0000

> <Gold.PLP.Chemscore.Metal>
0.0000

> <Gold.Chemscore.Hbonds>
donor molecule, donor type, donor heavy atom, donor atom, acceptor molecule, acceptor atom, score
      P1  H  7997  8010       L1    10  0.76
      L1  C    13    39       P1  7957  1.00

> <Gold.PLP.Chemscore.Internal.Correction>
0.3613

> <Gold.Rescore>
     Score         DG    S(hbond)    S(metal)    S(lipo)     H(rot)  DE(clash)    DE(int)     intcor
     13.41     -16.50       0.98        0.00      99.72       1.52       0.15       2.94       ----

> <Gold.Chemscore.Fitness>
13.4149

> <Gold.Chemscore.DG>
-16.5021

> <Gold.Chemscore.ZeroCoef>
-5.4800

> <Gold.Chemscore.Hbond>
0.9752

> <Gold.Chemscore.Metal>
0.0000

> <Gold.Chemscore.Lipo>
99.7168

> <Gold.Chemscore.Internal_Hbond>
0.0000

> <Gold.Chemscore.DEClash>
0.1471

> <Gold.Chemscore.DEInternal>
2.9401

> <Gold.Chemscore.Rot>
1.5242

> <Gold.Chemscore.Internal.Correction>
   9.000000E+99

> <Gold.Chemscore.Hbonds>
donor molecule, donor type, donor heavy atom, donor atom, acceptor molecule, acceptor atom, score
      P1  H  7997  8010       L1    10  0.74

> <Gold.Chemscore.Hbond.Weighted>
-3.2571

> <Gold.Chemscore.Metal.Weighted>
-0.0000

> <Gold.Chemscore.Lipo.Weighted>
-11.6669

> <Gold.Chemscore.Internal_Hbond.Weighted>
0.0000

> <Gold.Chemscore.DEClash.Weighted>
0.1471

> <Gold.Chemscore.DEInternal.Weighted>
2.9401

> <Gold.Chemscore.Rot.Weighted>
3.9019

> <Gold.Chemscore.Internal.Correction.Weighted>
   9.000000E+99

> <Gold.Protein.RotatedTorsions>
[ 6907 6896 6895 6894 ] final  128.06 input  -60.11 | X-H torsion
[ 7974 7965 7964 7962 ] final   16.16 input  175.53 | X-H torsion
[ 8008 7997 7996 7995 ] final  100.64 input   59.86 | X-H torsion
[ 10167 10162 10161 10158 ] final   -4.47 input  -65.29 | X-H torsion
[ 10718 10713 10712 10709 ] final   26.91 input   66.30 | X-H torsion
[ 10763 10752 10751 10750 ] final  -29.83 input  -60.55 | X-H torsion
[ 11005 11000 10999 10996 ] final  125.55 input  -57.11 | X-H torsion

> <Gold.Protein.ActiveResidues>
 VAL166  LYS551  ARG553  GLY616  TRP617  ASP618  TYR619  PRO620  LYS621  CYS622 
 ASP623  PHE694  ASN695  SER759  ASP760  ASP761  ALA762  ILE779  LEU786  VAL792 
 PHE793  MET794  SER795  GLU796  ALA797  LYS798  CYS799  TRP800  GLU811  SER814 

> <Gold.Protein.RotatedAtoms>
  152.3754  133.6474  159.6119 H   0  0  0  0  0  0  0  0  0  0  0  0  # atno 6907 bound_to 6896
  150.7700  133.9201  159.3404 H   0  0  0  0  0  0  0  0  0  0  0  0  # atno 6908 bound_to 6896
  151.7016  135.0930  160.0303 H   0  0  0  0  0  0  0  0  0  0  0  0  # atno 6909 bound_to 6896
  146.2257  139.8788  142.8574 H   0  0  0  0  0  0  0  0  0  0  0  0  # atno 7974 bound_to 7965
  156.1223  140.3210  155.8226 H   0  0  0  0  0  0  0  0  0  0  0  0  # atno 8008 bound_to 7997
  155.4482  140.0530  157.3021 H   0  0  0  0  0  0  0  0  0  0  0  0  # atno 8009 bound_to 7997
  154.4836  140.2063  155.9719 H   0  0  0  0  0  0  0  0  0  0  0  0  # atno 8010 bound_to 7997
  140.6928  143.6420  150.8427 H   0  0  0  0  0  0  0  0  0  0  0  0  # atno 10167 bound_to 10162
  157.2131  130.6943  149.6237 H   0  0  0  0  0  0  0  0  0  0  0  0  # atno 10718 bound_to 10713
  153.7710  135.6912  153.4906 H   0  0  0  0  0  0  0  0  0  0  0  0  # atno 10763 bound_to 10752
  153.1874  135.4483  155.0105 H   0  0  0  0  0  0  0  0  0  0  0  0  # atno 10764 bound_to 10752
  154.8118  135.3381  154.7220 H   0  0  0  0  0  0  0  0  0  0  0  0  # atno 10765 bound_to 10752
  139.9412  134.9635  156.8575 H   0  0  0  0  0  0  0  0  0  0  0  0  # atno 11005 bound_to 11000
  145.2534  141.0052  143.3868 LP  0  0  0  0  0  0  0  0  0  0  0  0  # atno 17320 bound_to 7965
  144.9356  139.4247  143.6473 LP  0  0  0  0  0  0  0  0  0  0  0  0  # atno 17321 bound_to 7965
  140.0135  143.5618  152.2829 LP  0  0  0  0  0  0  0  0  0  0  0  0  # atno 17342 bound_to 10162
  139.6350  144.7649  151.2457 LP  0  0  0  0  0  0  0  0  0  0  0  0  # atno 17343 bound_to 10162
  155.9689  130.4544  150.5850 LP  0  0  0  0  0  0  0  0  0  0  0  0  # atno 17370 bound_to 10713
  157.3652  131.0756  151.1603 LP  0  0  0  0  0  0  0  0  0  0  0  0  # atno 17371 bound_to 10713
  140.5947  134.0228  155.7513 LP  0  0  0  0  0  0  0  0  0  0  0  0  # atno 17394 bound_to 11000
  141.1047  133.9712  157.3018 LP  0  0  0  0  0  0  0  0  0  0  0  0  # atno 17395 bound_to 11000

$$$$
