AV-unprocessed.smi:600|AV-procd|sdf|3030|dock4
  -GOLD-   2262023543D 1   1.00000     0.00000
 Structure written by MMmdl.
 33 34  0  0  0  0  0  0  0  0  1 V2000
  153.3286  137.1558  160.9449 C   0  0  0  0  0  0  0  0  0  0  0  0
  153.1105  136.5572  159.6801 O   0  0  0  0  0  0  0  0  0  0  0  0
  152.5796  137.4689  158.7326 C   0  0  0  0  0  0  0  0  0  0  0  0
  152.5109  136.8046  157.3480 C   0  0  0  0  0  0  0  0  0  0  0  0
  151.7570  137.6214  156.3902 N   0  0  0  0  0  0  0  0  0  0  0  0
  151.6918  138.9628  156.7279 N   0  0  0  0  0  0  0  0  0  0  0  0
  151.0399  139.7961  155.9842 C   0  0  0  0  0  0  0  0  0  0  0  0
  150.9735  141.2385  156.3744 C   0  0  0  0  0  0  0  0  0  0  0  0
  150.3224  142.0078  155.6586 O   0  0  0  0  0  0  0  0  0  0  0  0
  151.6787  141.5593  157.5348 N   0  0  0  0  0  0  0  0  0  0  0  0
  151.5873  142.7277  158.0964 C   0  0  0  0  0  0  0  0  0  0  0  0
  150.8285  143.8267  157.7060 N   0  0  0  0  0  0  0  0  0  0  0  0
  151.1612  145.1123  158.2917 C   0  0  0  0  0  0  0  0  0  0  0  0
  151.7042  144.8473  159.6930 C   0  0  0  0  0  0  0  0  0  0  0  0
  152.4741  143.2213  159.5985 S   0  0  0  0  0  0  0  0  0  0  0  0
  150.3707  139.3366  154.7719 C   0  0  0  0  0  0  0  0  0  0  0  0
  150.4425  138.0248  154.4573 C   0  0  0  0  0  0  0  0  0  0  0  0
  151.1658  137.0645  155.2908 C   0  0  0  0  0  0  0  0  0  0  0  0
  151.2329  135.8643  155.0274 O   0  0  0  0  0  0  0  0  0  0  0  0
  153.7404  136.4182  161.6334 H   0  0  0  0  0  0  0  0  0  0  0  0
  152.3960  137.5289  161.3700 H   0  0  0  0  0  0  0  0  0  0  0  0
  154.0364  137.9825  160.8732 H   0  0  0  0  0  0  0  0  0  0  0  0
  151.5896  137.8081  159.0420 H   0  0  0  0  0  0  0  0  0  0  0  0
  153.2215  138.3495  158.6808 H   0  0  0  0  0  0  0  0  0  0  0  0
  153.5255  136.6670  156.9704 H   0  0  0  0  0  0  0  0  0  0  0  0
  152.1002  135.7972  157.4330 H   0  0  0  0  0  0  0  0  0  0  0  0
  151.9198  145.5902  157.6711 H   0  0  0  0  0  0  0  0  0  0  0  0
  150.2896  145.7667  158.3173 H   0  0  0  0  0  0  0  0  0  0  0  0
  152.4082  145.6116  160.0221 H   0  0  0  0  0  0  0  0  0  0  0  0
  150.8881  144.7994  160.4146 H   0  0  0  0  0  0  0  0  0  0  0  0
  149.8261  140.0073  154.1241 H   0  0  0  0  0  0  0  0  0  0  0  0
  149.9513  137.6718  153.5627 H   0  0  0  0  0  0  0  0  0  0  0  0
  150.2478  143.8347  156.8794 H   0  0  0  0  0  0  0  0  0  0  0  0
  1  2  1  0  0  0  0
  1 20  1  0  0  0  0
  1 21  1  0  0  0  0
  1 22  1  0  0  0  0
  2  3  1  0  0  0  0
  3  4  1  0  0  0  0
  3 23  1  0  0  0  0
  3 24  1  0  0  0  0
  4  5  1  0  0  0  0
  4 25  1  0  0  0  0
  4 26  1  0  0  0  0
  5 18  1  0  0  0  0
  5  6  1  0  0  0  0
  6  7  2  0  0  0  0
  7  8  1  0  0  0  0
  7 16  1  0  0  0  0
  8  9  2  0  0  0  0
  8 10  1  0  0  0  0
 10 11  2  0  0  0  0
 11 15  1  0  0  0  0
 11 12  1  0  0  0  0
 12 13  1  0  0  0  0
 12 33  1  0  0  0  0
 13 14  1  0  0  0  0
 13 27  1  0  0  0  0
 13 28  1  0  0  0  0
 14 15  1  0  0  0  0
 14 29  1  0  0  0  0
 14 30  1  0  0  0  0
 16 17  2  0  0  0  0
 16 31  1  0  0  0  0
 17 18  1  0  0  0  0
 17 32  1  0  0  0  0
 18 19  2  0  0  0  0
M  END
> <s_m_source_file>
AV-unprocessed.smi

> <i_m_source_file_index>
600

> <i_lp_mmshare_version>
43012

> <i_f3d_flags>
0

> <s_epik_input>
W0NIM11PW0NIMl1bQ0gyXW4xbmMoW2NIXVtjSF1jMT1PKUMoPU8pW05IXUMyPU5bQ0gyXVtDSDJdUzI=

> <s_epik_cmdline>
J2VwaWtfcHl0aG9uJywgJy1waCcsICc3LjAnLCAnLXRuJywgJzgnLCAnLW1hJywgJzIwMCcsICctbWV0YWxfYmluZGluZycsICctaW1hZScsICc8aW5maWxlLm1hZT4nLCAnLW9tYWUnLCAnPG91dGZpbGUubWFlPic=

> <r_epik_Ionization_Penalty>
0.0115713

> <r_epik_Ionization_Penalty_Charging>
8.15052e-11

> <r_epik_Ionization_Penalty_Neutral>
0.0115713

> <r_epik_State_Penalty>
0.0066973

> <r_epik_Charging_Adjusted_Penalty>
0.0066973

> <i_epik_Tot_Q>
0

> <i_epik_Tot_abs_Q>
0

> <r_epik_Metal_State_Penalty>
-0

> <b_epik_Metal_Only>
0

> <s_epik_Chemistry_Notes>
This compound has an imine and may undergo hydrolysis.

> <s_lp_Force_Field>
OPLS_2005

> <r_lp_Energy>
40.8102

> <b_lp_Chiralities_Consistent>
1

> <s_lp_Variant>
AV-unprocessed.smi:600-1

> <Gold.Version>
5.8.1

> <Gold.Id.Protein>
6NUR|6NUR_protein|mol2

> <Gold.PLP.Fitness>
41.4146

> <Gold.PLP.PLP>
-33.1495

> <Gold.PLP.part.hbond>
-3.0000

> <Gold.PLP.part.metal>
0.0000

> <Gold.PLP.part.buried>
-4.7830

> <Gold.PLP.part.nonpolar>
-26.0369

> <Gold.PLP.part.repulsive>
0.7510

> <Gold.PLP.ligand.clash>
0.0000

> <Gold.PLP.ligand.torsion>
0.3776

> <Gold.PLP.Chemscore.Hbond>
3.0000

> <Gold.PLP.Chemscore.CHOScore>
0.0000

> <Gold.PLP.Chemscore.Metal>
0.0000

> <Gold.Chemscore.Hbonds>
donor molecule, donor type, donor heavy atom, donor atom, acceptor molecule, acceptor atom, score
      L1  H    12    33       P1  8028  1.00
      P1  H  6896  6907       L1     2  1.00
      P1  H 10752 10764       L1    19  1.00

> <Gold.PLP.Chemscore.Internal.Correction>
0.0202

> <Gold.Rescore>
     Score         DG    S(hbond)    S(metal)    S(lipo)     H(rot)  DE(clash)    DE(int)     intcor
     17.37     -18.14       2.54        0.00      69.43       1.54       0.23       0.53       ----

> <Gold.Chemscore.Fitness>
17.3711

> <Gold.Chemscore.DG>
-18.1377

> <Gold.Chemscore.ZeroCoef>
-5.4800

> <Gold.Chemscore.Hbond>
2.5397

> <Gold.Chemscore.Metal>
0.0000

> <Gold.Chemscore.Lipo>
69.4348

> <Gold.Chemscore.Internal_Hbond>
0.0000

> <Gold.Chemscore.DEClash>
0.2316

> <Gold.Chemscore.DEInternal>
0.5350

> <Gold.Chemscore.Rot>
1.5425

> <Gold.Chemscore.Internal.Correction>
   9.000000E+99

> <Gold.Chemscore.Hbonds>
donor molecule, donor type, donor heavy atom, donor atom, acceptor molecule, acceptor atom, score
      L1  H    12    33       P1  8028  0.90
      P1  H  6896  6907       L1     2  0.45
      P1  H 10752 10764       L1    19  0.50

> <Gold.Chemscore.Hbond.Weighted>
-8.4827

> <Gold.Chemscore.Metal.Weighted>
-0.0000

> <Gold.Chemscore.Lipo.Weighted>
-8.1239

> <Gold.Chemscore.Internal_Hbond.Weighted>
0.0000

> <Gold.Chemscore.DEClash.Weighted>
0.2316

> <Gold.Chemscore.DEInternal.Weighted>
0.5350

> <Gold.Chemscore.Rot.Weighted>
3.9489

> <Gold.Chemscore.Internal.Correction.Weighted>
   9.000000E+99

> <Gold.Protein.RotatedTorsions>
[ 6907 6896 6895 6894 ] final   25.75 input  -60.11 | X-H torsion
[ 7974 7965 7964 7962 ] final  131.34 input  175.53 | X-H torsion
[ 8008 7997 7996 7995 ] final  -96.06 input   59.86 | X-H torsion
[ 10167 10162 10161 10158 ] final   95.91 input  -65.29 | X-H torsion
[ 10718 10713 10712 10709 ] final -159.92 input   66.30 | X-H torsion
[ 10763 10752 10751 10750 ] final  -68.66 input  -60.55 | X-H torsion
[ 11005 11000 10999 10996 ] final  156.47 input  -57.11 | X-H torsion

> <Gold.Protein.ActiveResidues>
 VAL166  LYS551  ARG553  GLY616  TRP617  ASP618  TYR619  PRO620  LYS621  CYS622 
 ASP623  PHE694  ASN695  SER759  ASP760  ASP761  ALA762  ILE779  LEU786  VAL792 
 PHE793  MET794  SER795  GLU796  ALA797  LYS798  CYS799  TRP800  GLU811  SER814 

> <Gold.Protein.RotatedAtoms>
  151.9772  135.0047  160.0555 H   0  0  0  0  0  0  0  0  0  0  0  0  # atno 6907 bound_to 6896
  152.1729  133.4651  159.4927 H   0  0  0  0  0  0  0  0  0  0  0  0  # atno 6908 bound_to 6896
  150.6904  134.1847  159.4305 H   0  0  0  0  0  0  0  0  0  0  0  0  # atno 6909 bound_to 6896
  145.0083  139.4245  143.5257 H   0  0  0  0  0  0  0  0  0  0  0  0  # atno 7974 bound_to 7965
  154.7695  140.0474  157.1040 H   0  0  0  0  0  0  0  0  0  0  0  0  # atno 8008 bound_to 7997
  154.9838  140.3104  155.4915 H   0  0  0  0  0  0  0  0  0  0  0  0  # atno 8009 bound_to 7997
  156.2918  140.2231  156.4938 H   0  0  0  0  0  0  0  0  0  0  0  0  # atno 8010 bound_to 7997
  139.7944  144.6839  150.9849 H   0  0  0  0  0  0  0  0  0  0  0  0  # atno 10167 bound_to 10162
  156.5749  130.8704  151.2848 H   0  0  0  0  0  0  0  0  0  0  0  0  # atno 10718 bound_to 10713
  154.3922  135.6050  153.5849 H   0  0  0  0  0  0  0  0  0  0  0  0  # atno 10763 bound_to 10752
  152.9787  135.5886  154.4284 H   0  0  0  0  0  0  0  0  0  0  0  0  # atno 10764 bound_to 10752
  154.4070  135.2843  155.2039 H   0  0  0  0  0  0  0  0  0  0  0  0  # atno 10765 bound_to 10752
  140.1678  134.8564  157.2653 H   0  0  0  0  0  0  0  0  0  0  0  0  # atno 11005 bound_to 11000
  146.3465  139.9512  142.8728 LP  0  0  0  0  0  0  0  0  0  0  0  0  # atno 17320 bound_to 7965
  145.2058  140.9874  143.4129 LP  0  0  0  0  0  0  0  0  0  0  0  0  # atno 17321 bound_to 7965
  140.7820  143.4347  151.0642 LP  0  0  0  0  0  0  0  0  0  0  0  0  # atno 17342 bound_to 10162
  139.8022  143.8068  152.3164 LP  0  0  0  0  0  0  0  0  0  0  0  0  # atno 17343 bound_to 10162
  157.7340  130.9739  150.2005 LP  0  0  0  0  0  0  0  0  0  0  0  0  # atno 17370 bound_to 10713
  156.2682  130.3718  149.8059 LP  0  0  0  0  0  0  0  0  0  0  0  0  # atno 17371 bound_to 10713
  140.2413  134.3792  155.7479 LP  0  0  0  0  0  0  0  0  0  0  0  0  # atno 17394 bound_to 11000
  141.2215  133.7267  156.8794 LP  0  0  0  0  0  0  0  0  0  0  0  0  # atno 17395 bound_to 11000

$$$$
