AV-unprocessed.smi:2826|AV-procd|sdf|10894|dock1
  -GOLD-   2272015343D 1   1.00000     0.00000
 Structure written by MMmdl.
 50 51  0  0  0  0  0  0  0  0  1 V2000
  155.0676  142.9184  165.1043 C   0  0  0  0  0  0  0  0  0  0  0  0
  154.0576  143.5038  164.2901 O   0  0  0  0  0  0  0  0  0  0  0  0
  153.7985  142.9366  163.0593 C   0  0  0  0  0  0  0  0  0  0  0  0
  152.7941  143.5050  162.2528 C   0  0  0  0  0  0  0  0  0  0  0  0
  152.5261  142.9317  160.9959 C   0  0  0  0  0  0  0  0  0  0  0  0
  153.2788  141.8090  160.5754 C   0  0  0  0  0  0  0  0  0  0  0  0
  153.0634  141.1506  159.3323 N   0  0  0  0  0  0  0  0  0  0  0  0
  151.8990  140.9335  158.6973 C   0  0  0  0  0  0  0  0  0  0  0  0
  150.7934  141.3002  159.0955 O   0  0  0  0  0  0  0  0  0  0  0  0
  152.0897  140.2784  157.5433 N   0  0  0  0  0  0  0  0  0  0  0  0
  151.0339  139.9065  156.6058 C   0  0  2  0  0  0  0  0  0  0  0  0
  151.6477  139.4861  155.2631 C   0  0  0  0  0  0  0  0  0  0  0  0
  150.5458  139.2305  154.2232 C   0  0  0  0  0  0  0  0  0  0  0  0
  149.7294  140.3886  154.0867 O   0  0  0  0  0  0  0  0  0  0  0  0
  149.0355  140.7350  155.2831 C   0  0  2  0  0  0  0  0  0  0  0  0
  148.1033  141.9239  154.9845 C   0  0  0  0  0  0  0  0  0  0  0  0
  146.7823  141.5507  154.2768 C   0  0  0  0  0  0  0  0  0  0  0  0
  147.0562  140.6477  153.0643 C   0  0  0  0  0  0  0  0  0  0  0  0
  145.9716  142.7860  153.8487 C   0  0  0  0  0  0  0  0  0  0  0  0
  150.0649  141.0790  156.3768 C   0  0  0  0  0  0  0  0  0  0  0  0
  154.2559  141.3019  161.4658 C   0  0  0  0  0  0  0  0  0  0  0  0
  155.0980  140.0890  161.1109 C   0  0  0  0  0  0  0  0  0  0  0  0
  154.5137  141.8519  162.6730 N   0  0  0  0  0  0  0  0  0  0  0  0
  155.1527  143.4812  166.0338 H   0  0  0  0  0  0  0  0  0  0  0  0
  156.0411  142.9435  164.6127 H   0  0  0  0  0  0  0  0  0  0  0  0
  154.8233  141.8873  165.3634 H   0  0  0  0  0  0  0  0  0  0  0  0
  152.2345  144.3632  162.5944 H   0  0  0  0  0  0  0  0  0  0  0  0
  151.7411  143.3534  160.3877 H   0  0  0  0  0  0  0  0  0  0  0  0
  153.8988  140.8769  158.8360 H   0  0  0  0  0  0  0  0  0  0  0  0
  153.0326  140.0208  157.2915 H   0  0  0  0  0  0  0  0  0  0  0  0
  150.4777  139.0572  157.0079 H   0  0  0  0  0  0  0  0  0  0  0  0
  152.3110  140.2705  154.8951 H   0  0  0  0  0  0  0  0  0  0  0  0
  152.2587  138.5915  155.3879 H   0  0  0  0  0  0  0  0  0  0  0  0
  150.9909  138.9981  153.2557 H   0  0  0  0  0  0  0  0  0  0  0  0
  149.9343  138.3721  154.5058 H   0  0  0  0  0  0  0  0  0  0  0  0
  148.4428  139.8828  155.6173 H   0  0  0  0  0  0  0  0  0  0  0  0
  147.8738  142.4464  155.9142 H   0  0  0  0  0  0  0  0  0  0  0  0
  148.6485  142.6396  154.3676 H   0  0  0  0  0  0  0  0  0  0  0  0
  146.1714  140.9740  154.9720 H   0  0  0  0  0  0  0  0  0  0  0  0
  147.6650  141.1593  152.3184 H   0  0  0  0  0  0  0  0  0  0  0  0
  146.1267  140.3420  152.5830 H   0  0  0  0  0  0  0  0  0  0  0  0
  147.5840  139.7405  153.3598 H   0  0  0  0  0  0  0  0  0  0  0  0
  146.5521  143.4314  153.1889 H   0  0  0  0  0  0  0  0  0  0  0  0
  145.6563  143.3799  154.7059 H   0  0  0  0  0  0  0  0  0  0  0  0
  145.0674  142.4938  153.3141 H   0  0  0  0  0  0  0  0  0  0  0  0
  149.5508  141.3289  157.3058 H   0  0  0  0  0  0  0  0  0  0  0  0
  150.6253  141.9677  156.0821 H   0  0  0  0  0  0  0  0  0  0  0  0
  155.6406  140.2619  160.1811 H   0  0  0  0  0  0  0  0  0  0  0  0
  154.4635  139.2118  160.9829 H   0  0  0  0  0  0  0  0  0  0  0  0
  155.8290  139.8662  161.8898 H   0  0  0  0  0  0  0  0  0  0  0  0
  1  2  1  0  0  0  0
  1 24  1  0  0  0  0
  1 25  1  0  0  0  0
  1 26  1  0  0  0  0
  2  3  1  0  0  0  0
  3 23  1  0  0  0  0
  3  4  2  0  0  0  0
  4  5  1  0  0  0  0
  4 27  1  0  0  0  0
  5  6  2  0  0  0  0
  5 28  1  0  0  0  0
  6  7  1  0  0  0  0
  6 21  1  0  0  0  0
  7  8  1  0  0  0  0
  7 29  1  0  0  0  0
  8  9  2  0  0  0  0
  8 10  1  0  0  0  0
 10 11  1  0  0  0  0
 10 30  1  0  0  0  0
 11 20  1  0  0  0  0
 11 12  1  0  0  0  0
 11 31  1  0  0  0  0
 12 13  1  0  0  0  0
 12 32  1  0  0  0  0
 12 33  1  0  0  0  0
 13 14  1  0  0  0  0
 13 34  1  0  0  0  0
 13 35  1  0  0  0  0
 14 15  1  0  0  0  0
 15 16  1  0  0  0  0
 15 20  1  0  0  0  0
 15 36  1  0  0  0  0
 16 17  1  0  0  0  0
 16 37  1  0  0  0  0
 16 38  1  0  0  0  0
 17 18  1  0  0  0  0
 17 19  1  0  0  0  0
 17 39  1  0  0  0  0
 18 40  1  0  0  0  0
 18 41  1  0  0  0  0
 18 42  1  0  0  0  0
 19 43  1  0  0  0  0
 19 44  1  0  0  0  0
 19 45  1  0  0  0  0
 20 46  1  0  0  0  0
 20 47  1  0  0  0  0
 21 22  1  0  0  0  0
 21 23  2  0  0  0  0
 22 48  1  0  0  0  0
 22 49  1  0  0  0  0
 22 50  1  0  0  0  0
M  END
> <s_m_source_file>
AV-unprocessed.smi

> <i_m_source_file_index>
2826

> <i_lp_mmshare_version>
43012

> <i_f3d_flags>
0

> <s_epik_input>
W0NIM11PYzFbY0hdW2NIXWMoYyhuMSlbQ0gzXSlbTkhdQyg9TylbTkhdW0NAQEhdMltDSDJdW0NIMl1PW0NASF0oW0NIMl0yKVtDSDJdW0NIXShbQ0gzXSlbQ0gzXQ==

> <s_epik_cmdline>
J2VwaWtfcHl0aG9uJywgJy1waCcsICc3LjAnLCAnLXRuJywgJzgnLCAnLW1hJywgJzIwMCcsICctbWV0YWxfYmluZGluZycsICctaW1hZScsICc8aW5maWxlLm1hZT4nLCAnLW9tYWUnLCAnPG91dGZpbGUubWFlPic=

> <r_lp_tautomer_probability>
1

> <r_epik_Ionization_Penalty>
0.000249977

> <r_epik_Ionization_Penalty_Charging>
0

> <r_epik_Ionization_Penalty_Neutral>
0.000249977

> <r_epik_State_Penalty>
-0

> <r_epik_Charging_Adjusted_Penalty>
0

> <i_epik_Tot_Q>
0

> <i_epik_Tot_abs_Q>
0

> <r_epik_Metal_State_Penalty>
-0

> <b_epik_Metal_Only>
0

> <s_lp_Force_Field>
OPLS_2005

> <r_lp_Energy>
13.3689

> <b_lp_Chiralities_Consistent>
1

> <s_lp_Variant>
AV-unprocessed.smi:2826-3

> <Gold.Version>
5.8.1

> <Gold.Id.Protein>
6NUR|6NUR_protein|mol2

> <Gold.PLP.Fitness>
49.3876

> <Gold.PLP.PLP>
-50.6554

> <Gold.PLP.part.hbond>
-3.0957

> <Gold.PLP.part.metal>
0.0000

> <Gold.PLP.part.buried>
-3.8189

> <Gold.PLP.part.nonpolar>
-43.8961

> <Gold.PLP.part.repulsive>
1.5100

> <Gold.PLP.ligand.clash>
0.0000

> <Gold.PLP.ligand.torsion>
0.6683

> <Gold.PLP.Chemscore.Hbond>
0.0000

> <Gold.PLP.Chemscore.CHOScore>
0.0000

> <Gold.PLP.Chemscore.Metal>
0.0000

> <Gold.PLP.Chemscore.Internal.Correction>
0.0687

> <Gold.Rescore>
     Score         DG    S(hbond)    S(metal)    S(lipo)     H(rot)  DE(clash)    DE(int)     intcor
      9.29     -15.63       0.00        0.00     119.73       1.51       2.16       4.18       ----

> <Gold.Chemscore.Fitness>
9.2908

> <Gold.Chemscore.DG>
-15.6342

> <Gold.Chemscore.ZeroCoef>
-5.4800

> <Gold.Chemscore.Hbond>
0.0000

> <Gold.Chemscore.Metal>
0.0000

> <Gold.Chemscore.Lipo>
119.7341

> <Gold.Chemscore.Internal_Hbond>
0.0000

> <Gold.Chemscore.DEClash>
2.1611

> <Gold.Chemscore.DEInternal>
4.1823

> <Gold.Chemscore.Rot>
1.5057

> <Gold.Chemscore.Internal.Correction>
   9.000000E+99

> <Gold.Chemscore.Hbond.Weighted>
-0.0000

> <Gold.Chemscore.Metal.Weighted>
-0.0000

> <Gold.Chemscore.Lipo.Weighted>
-14.0089

> <Gold.Chemscore.Internal_Hbond.Weighted>
0.0000

> <Gold.Chemscore.DEClash.Weighted>
2.1611

> <Gold.Chemscore.DEInternal.Weighted>
4.1823

> <Gold.Chemscore.Rot.Weighted>
3.8547

> <Gold.Chemscore.Internal.Correction.Weighted>
   9.000000E+99

> <Gold.Protein.RotatedTorsions>
[ 6907 6896 6895 6894 ] final  117.35 input  -60.11 | X-H torsion
[ 7974 7965 7964 7962 ] final   98.85 input  175.53 | X-H torsion
[ 8008 7997 7996 7995 ] final   35.71 input   59.86 | X-H torsion
[ 10167 10162 10161 10158 ] final   91.83 input  -65.29 | X-H torsion
[ 10718 10713 10712 10709 ] final -147.77 input   66.30 | X-H torsion
[ 10763 10752 10751 10750 ] final  146.94 input  -60.55 | X-H torsion
[ 11005 11000 10999 10996 ] final  179.45 input  -57.11 | X-H torsion

> <Gold.Protein.ActiveResidues>
 VAL166  LYS551  ARG553  GLY616  TRP617  ASP618  TYR619  PRO620  LYS621  CYS622 
 ASP623  PHE694  ASN695  SER759  ASP760  ASP761  ALA762  ILE779  LEU786  VAL792 
 PHE793  MET794  SER795  GLU796  ALA797  LYS798  CYS799  TRP800  GLU811  SER814 

> <Gold.Protein.RotatedAtoms>
  152.4618  133.7837  159.6864 H   0  0  0  0  0  0  0  0  0  0  0  0  # atno 6907 bound_to 6896
  150.8565  133.7698  159.3013 H   0  0  0  0  0  0  0  0  0  0  0  0  # atno 6908 bound_to 6896
  151.5277  135.1071  159.9946 H   0  0  0  0  0  0  0  0  0  0  0  0  # atno 6909 bound_to 6896
  145.4067  139.2339  143.3270 H   0  0  0  0  0  0  0  0  0  0  0  0  # atno 7974 bound_to 7965
  155.1756  140.3295  155.4384 H   0  0  0  0  0  0  0  0  0  0  0  0  # atno 8008 bound_to 7997
  156.2495  140.1936  156.6807 H   0  0  0  0  0  0  0  0  0  0  0  0  # atno 8009 bound_to 7997
  154.6307  140.0583  156.9715 H   0  0  0  0  0  0  0  0  0  0  0  0  # atno 8010 bound_to 7997
  139.8336  144.6675  150.9369 H   0  0  0  0  0  0  0  0  0  0  0  0  # atno 10167 bound_to 10162
  156.4118  130.7985  151.2203 H   0  0  0  0  0  0  0  0  0  0  0  0  # atno 10718 bound_to 10713
  154.0301  135.2898  155.3369 H   0  0  0  0  0  0  0  0  0  0  0  0  # atno 10763 bound_to 10752
  154.6993  135.5195  153.8507 H   0  0  0  0  0  0  0  0  0  0  0  0  # atno 10764 bound_to 10752
  153.0644  135.6625  154.0515 H   0  0  0  0  0  0  0  0  0  0  0  0  # atno 10765 bound_to 10752
  140.4063  134.6732  157.4590 H   0  0  0  0  0  0  0  0  0  0  0  0  # atno 11005 bound_to 11000
  146.2725  140.4772  142.8808 LP  0  0  0  0  0  0  0  0  0  0  0  0  # atno 17320 bound_to 7965
  144.8337  140.6748  143.6274 LP  0  0  0  0  0  0  0  0  0  0  0  0  # atno 17321 bound_to 7965
  140.7804  143.3978  151.1200 LP  0  0  0  0  0  0  0  0  0  0  0  0  # atno 17342 bound_to 10162
  139.7630  143.8608  152.3104 LP  0  0  0  0  0  0  0  0  0  0  0  0  # atno 17343 bound_to 10162
  157.7507  131.0255  150.3923 LP  0  0  0  0  0  0  0  0  0  0  0  0  # atno 17370 bound_to 10713
  156.4222  130.3955  149.6817 LP  0  0  0  0  0  0  0  0  0  0  0  0  # atno 17371 bound_to 10713
  140.0299  134.6421  155.9120 LP  0  0  0  0  0  0  0  0  0  0  0  0  # atno 17394 bound_to 11000
  141.1838  133.6551  156.5130 LP  0  0  0  0  0  0  0  0  0  0  0  0  # atno 17395 bound_to 11000

$$$$
