AV-unprocessed.smi:2979|AV-procd|sdf|11370|dock1
  -GOLD-   2272016283D 1   1.00000     0.00000
 Structure written by MMmdl.
 35 36  0  0  0  0  0  0  0  0  1 V2000
  153.0655  137.4438  160.3676 C   0  0  0  0  0  0  0  0  0  0  0  0
  152.0286  137.0697  159.4783 O   0  0  0  0  0  0  0  0  0  0  0  0
  151.2921  138.1846  159.0020 C   0  0  0  0  0  0  0  0  0  0  0  0
  152.1323  138.9643  157.9804 C   0  0  0  0  0  0  0  0  0  0  0  0
  151.9628  140.4073  158.0970 N   0  0  0  0  0  0  0  0  0  0  0  0
  151.3966  141.2712  157.2144 C   0  0  0  0  0  0  0  0  0  0  0  0
  150.7929  140.8331  155.9129 C   0  0  0  0  0  0  0  0  0  0  0  0
  149.3279  141.2724  155.7653 C   0  0  0  0  0  0  0  0  0  0  0  0
  148.6658  140.6881  154.5112 C   0  0  0  0  0  0  0  0  0  0  0  0
  149.4356  141.0039  153.3714 O   0  0  0  0  0  0  0  0  0  0  0  0
  151.3956  142.5539  157.5793 N   0  0  0  0  0  0  0  0  0  0  0  0
  152.0037  142.5201  158.8182 C   0  0  0  0  0  0  0  0  0  0  0  0
  152.2941  143.5636  159.7261 C   0  0  0  0  0  0  0  0  0  0  0  0
  152.9288  143.2852  160.9541 C   0  0  0  0  0  0  0  0  0  0  0  0
  153.2806  141.9623  161.2913 C   0  0  0  0  0  0  0  0  0  0  0  0
  153.0013  140.9084  160.4003 C   0  0  0  0  0  0  0  0  0  0  0  0
  152.3688  141.1912  159.1741 C   0  0  0  0  0  0  0  0  0  0  0  0
  153.5940  136.5536  160.7085 H   0  0  0  0  0  0  0  0  0  0  0  0
  152.6678  137.9569  161.2441 H   0  0  0  0  0  0  0  0  0  0  0  0
  153.7883  138.0967  159.8766 H   0  0  0  0  0  0  0  0  0  0  0  0
  150.3651  137.8475  158.5362 H   0  0  0  0  0  0  0  0  0  0  0  0
  151.0138  138.8328  159.8326 H   0  0  0  0  0  0  0  0  0  0  0  0
  153.1866  138.7272  158.1246 H   0  0  0  0  0  0  0  0  0  0  0  0
  151.8965  138.6527  156.9632 H   0  0  0  0  0  0  0  0  0  0  0  0
  151.3851  141.2584  155.1015 H   0  0  0  0  0  0  0  0  0  0  0  0
  150.8699  139.7531  155.8011 H   0  0  0  0  0  0  0  0  0  0  0  0
  148.7625  140.9694  156.6471 H   0  0  0  0  0  0  0  0  0  0  0  0
  149.2776  142.3616  155.7310 H   0  0  0  0  0  0  0  0  0  0  0  0
  148.5774  139.6044  154.5916 H   0  0  0  0  0  0  0  0  0  0  0  0
  147.6608  141.0910  154.3828 H   0  0  0  0  0  0  0  0  0  0  0  0
  149.2858  140.3418  152.7141 H   0  0  0  0  0  0  0  0  0  0  0  0
  152.0266  144.5799  159.4772 H   0  0  0  0  0  0  0  0  0  0  0  0
  153.1453  144.0901  161.6411 H   0  0  0  0  0  0  0  0  0  0  0  0
  153.7645  141.7569  162.2351 H   0  0  0  0  0  0  0  0  0  0  0  0
  153.2677  139.8945  160.6591 H   0  0  0  0  0  0  0  0  0  0  0  0
  1  2  1  0  0  0  0
  1 18  1  0  0  0  0
  1 19  1  0  0  0  0
  1 20  1  0  0  0  0
  2  3  1  0  0  0  0
  3  4  1  0  0  0  0
  3 21  1  0  0  0  0
  3 22  1  0  0  0  0
  4  5  1  0  0  0  0
  4 23  1  0  0  0  0
  4 24  1  0  0  0  0
  5 17  1  0  0  0  0
  5  6  1  0  0  0  0
  6  7  1  0  0  0  0
  6 11  2  0  0  0  0
  7  8  1  0  0  0  0
  7 25  1  0  0  0  0
  7 26  1  0  0  0  0
  8  9  1  0  0  0  0
  8 27  1  0  0  0  0
  8 28  1  0  0  0  0
  9 10  1  0  0  0  0
  9 29  1  0  0  0  0
  9 30  1  0  0  0  0
 10 31  1  0  0  0  0
 11 12  1  0  0  0  0
 12 17  2  0  0  0  0
 12 13  1  0  0  0  0
 13 14  2  0  0  0  0
 13 32  1  0  0  0  0
 14 15  1  0  0  0  0
 14 33  1  0  0  0  0
 15 16  2  0  0  0  0
 15 34  1  0  0  0  0
 16 17  1  0  0  0  0
 16 35  1  0  0  0  0
M  END
> <s_m_source_file>
AV-unprocessed.smi

> <i_m_source_file_index>
2979

> <i_lp_mmshare_version>
43012

> <i_f3d_flags>
0

> <s_epik_input>
W2NIXTFbY0hdW2NIXVtjSF1jKGMxMiluKFtDSDJdW0NIMl1PW0NIM10pYyhuMilbQ0gyXVtDSDJdW0NIMl1bT0hd

> <s_epik_cmdline>
J2VwaWtfcHl0aG9uJywgJy1waCcsICc3LjAnLCAnLXRuJywgJzgnLCAnLW1hJywgJzIwMCcsICctbWV0YWxfYmluZGluZycsICctaW1hZScsICc8aW5maWxlLm1hZT4nLCAnLW9tYWUnLCAnPG91dGZpbGUubWFlPic=

> <r_epik_Ionization_Penalty>
0.183246

> <r_epik_Ionization_Penalty_Charging>
0

> <r_epik_Ionization_Penalty_Neutral>
0.183246

> <r_epik_State_Penalty>
0.172781

> <r_epik_Charging_Adjusted_Penalty>
0.172781

> <i_epik_Tot_Q>
0

> <i_epik_Tot_abs_Q>
0

> <r_epik_Metal_State_Penalty>
0.000200578

> <b_epik_Metal_Only>
0

> <s_lp_Force_Field>
OPLS_2005

> <r_lp_Energy>
6.05289

> <b_lp_Chiralities_Consistent>
1

> <s_lp_Variant>
AV-unprocessed.smi:2979-1

> <Gold.Version>
5.8.1

> <Gold.Id.Protein>
6NUR|6NUR_protein|mol2

> <Gold.PLP.Fitness>
46.2992

> <Gold.PLP.PLP>
-38.1395

> <Gold.PLP.part.hbond>
-3.6114

> <Gold.PLP.part.metal>
0.0000

> <Gold.PLP.part.buried>
-4.8693

> <Gold.PLP.part.nonpolar>
-29.7836

> <Gold.PLP.part.repulsive>
0.0649

> <Gold.PLP.ligand.clash>
0.0000

> <Gold.PLP.ligand.torsion>
0.3935

> <Gold.PLP.Chemscore.Hbond>
2.9485

> <Gold.PLP.Chemscore.CHOScore>
0.0000

> <Gold.PLP.Chemscore.Metal>
0.0000

> <Gold.Chemscore.Hbonds>
donor molecule, donor type, donor heavy atom, donor atom, acceptor molecule, acceptor atom, score
      L1  H    10    31       P1  7957  0.80
      P1  H  6896  6907       L1     2  1.00
      P1  H  7989  7998       L1    10  0.14
      P1  H  8011  8017       L1    10  1.00

> <Gold.PLP.Chemscore.Internal.Correction>
0.1014

> <Gold.Rescore>
     Score         DG    S(hbond)    S(metal)    S(lipo)     H(rot)  DE(clash)    DE(int)     intcor
     17.97     -18.33       2.35        0.00      96.37       2.45       0.01       0.34       ----

> <Gold.Chemscore.Fitness>
17.9737

> <Gold.Chemscore.DG>
-18.3318

> <Gold.Chemscore.ZeroCoef>
-5.4800

> <Gold.Chemscore.Hbond>
2.3478

> <Gold.Chemscore.Metal>
0.0000

> <Gold.Chemscore.Lipo>
96.3713

> <Gold.Chemscore.Internal_Hbond>
0.0000

> <Gold.Chemscore.DEClash>
0.0145

> <Gold.Chemscore.DEInternal>
0.3435

> <Gold.Chemscore.Rot>
2.4474

> <Gold.Chemscore.Internal.Correction>
   9.000000E+99

> <Gold.Chemscore.Hbonds>
donor molecule, donor type, donor heavy atom, donor atom, acceptor molecule, acceptor atom, score
      L1  H    10    31       P1  7957  0.79
      P1  H  6896  6907       L1     2  0.38
      P1  H  7989  7998       L1    10  0.03
      P1  H  8011  8017       L1    10  0.25

> <Gold.Chemscore.Hbond.Weighted>
-7.8417

> <Gold.Chemscore.Metal.Weighted>
-0.0000

> <Gold.Chemscore.Lipo.Weighted>
-11.2754

> <Gold.Chemscore.Internal_Hbond.Weighted>
0.0000

> <Gold.Chemscore.DEClash.Weighted>
0.0145

> <Gold.Chemscore.DEInternal.Weighted>
0.3435

> <Gold.Chemscore.Rot.Weighted>
6.2654

> <Gold.Chemscore.Internal.Correction.Weighted>
   9.000000E+99

> <Gold.Protein.RotatedTorsions>
[ 6907 6896 6895 6894 ] final    5.31 input  -60.11 | X-H torsion
[ 7974 7965 7964 7962 ] final   80.25 input  175.53 | X-H torsion
[ 8008 7997 7996 7995 ] final -157.52 input   59.86 | X-H torsion
[ 10167 10162 10161 10158 ] final  -86.45 input  -65.29 | X-H torsion
[ 10718 10713 10712 10709 ] final -153.02 input   66.30 | X-H torsion
[ 10763 10752 10751 10750 ] final  -55.26 input  -60.55 | X-H torsion
[ 11005 11000 10999 10996 ] final  -68.51 input  -57.11 | X-H torsion

> <Gold.Protein.ActiveResidues>
 VAL166  LYS551  ARG553  GLY616  TRP617  ASP618  TYR619  PRO620  LYS621  CYS622 
 ASP623  PHE694  ASN695  SER759  ASP760  ASP761  ALA762  ILE779  LEU786  VAL792 
 PHE793  MET794  SER795  GLU796  ALA797  LYS798  CYS799  TRP800  GLU811  SER814 

> <Gold.Protein.RotatedAtoms>
  151.6554  135.0996  160.0168 H   0  0  0  0  0  0  0  0  0  0  0  0  # atno 6907 bound_to 6896
  152.3977  133.6767  159.6298 H   0  0  0  0  0  0  0  0  0  0  0  0  # atno 6908 bound_to 6896
  150.7881  133.8762  159.3314 H   0  0  0  0  0  0  0  0  0  0  0  0  # atno 6909 bound_to 6896
  145.6536  139.2454  143.1962 H   0  0  0  0  0  0  0  0  0  0  0  0  # atno 7974 bound_to 7965
  155.7336  140.0805  157.2277 H   0  0  0  0  0  0  0  0  0  0  0  0  # atno 8008 bound_to 7997
  154.4030  140.1591  156.2592 H   0  0  0  0  0  0  0  0  0  0  0  0  # atno 8009 bound_to 7997
  155.9086  140.3405  155.6084 H   0  0  0  0  0  0  0  0  0  0  0  0  # atno 8010 bound_to 7997
  140.3940  143.2692  151.9228 H   0  0  0  0  0  0  0  0  0  0  0  0  # atno 10167 bound_to 10162
  156.4802  130.8299  151.2526 H   0  0  0  0  0  0  0  0  0  0  0  0  # atno 10718 bound_to 10713
  154.1880  135.6432  153.5052 H   0  0  0  0  0  0  0  0  0  0  0  0  # atno 10763 bound_to 10752
  153.0042  135.5422  154.6445 H   0  0  0  0  0  0  0  0  0  0  0  0  # atno 10764 bound_to 10752
  154.5826  135.2926  155.0690 H   0  0  0  0  0  0  0  0  0  0  0  0  # atno 10765 bound_to 10752
  141.1533  133.6742  156.6457 H   0  0  0  0  0  0  0  0  0  0  0  0  # atno 11005 bound_to 11000
  146.1183  140.7341  142.9470 LP  0  0  0  0  0  0  0  0  0  0  0  0  # atno 17320 bound_to 7965
  144.7113  140.4051  143.7078 LP  0  0  0  0  0  0  0  0  0  0  0  0  # atno 17321 bound_to 7965
  139.4787  144.5699  151.8104 LP  0  0  0  0  0  0  0  0  0  0  0  0  # atno 17342 bound_to 10162
  140.4810  144.1450  150.5932 LP  0  0  0  0  0  0  0  0  0  0  0  0  # atno 17343 bound_to 10162
  157.7484  131.0047  150.3087 LP  0  0  0  0  0  0  0  0  0  0  0  0  # atno 17370 bound_to 10713
  156.3529  130.3834  149.7314 LP  0  0  0  0  0  0  0  0  0  0  0  0  # atno 17371 bound_to 10713
  140.3359  134.7890  157.4361 LP  0  0  0  0  0  0  0  0  0  0  0  0  # atno 17394 bound_to 11000
  140.0978  134.5513  155.8381 LP  0  0  0  0  0  0  0  0  0  0  0  0  # atno 17395 bound_to 11000

$$$$
