AV-unprocessed.smi:2317|AV-procd|sdf|9271|dock1
  -GOLD-   2272012493D 1   1.00000     0.00000
 Structure written by MMmdl.
 37 38  0  0  0  0  0  0  0  0  1 V2000
  144.7155  136.7462  151.6792 O   0  0  0  0  0  0  0  0  0  0  0  0
  145.9151  136.4862  151.7758 C   0  0  0  0  0  0  0  0  0  0  0  0
  146.8600  137.4113  151.9945 N   0  0  0  0  0  0  0  0  0  0  0  0
  146.6124  138.8430  152.1367 C   0  0  0  0  0  0  0  0  0  0  0  0
  147.1779  139.4229  153.4561 C   0  0  2  0  0  0  0  0  0  0  0  0
  147.3192  140.9617  153.3833 C   0  0  0  0  0  0  0  0  0  0  0  0
  147.9082  141.5511  154.6737 C   0  0  0  0  0  0  0  0  0  0  0  0
  149.2636  140.9126  155.0035 C   0  0  0  0  0  0  0  0  0  0  0  0
  149.1344  139.3871  155.1087 C   0  0  0  0  0  0  0  0  0  0  0  0
  148.5389  138.7811  153.8241 C   0  0  1  0  0  0  0  0  0  0  0  0
  148.3873  137.3911  154.0325 O   0  0  0  0  0  0  0  0  0  0  0  0
  146.4437  135.2538  151.6981 N   0  0  0  0  0  0  0  0  0  0  0  0
  145.7385  134.0364  151.5175 C   0  0  0  0  0  0  0  0  0  0  0  0
  144.4825  134.0812  150.8782 C   0  0  0  0  0  0  0  0  0  0  0  0
  143.7660  132.8795  150.7094 C   0  0  0  0  0  0  0  0  0  0  0  0
  144.2129  131.6819  151.1432 N   0  0  0  0  0  0  0  0  0  0  0  0
  145.4034  131.6462  151.7793 C   0  0  0  0  0  0  0  0  0  0  0  0
  146.1999  132.7878  152.0022 C   0  0  0  0  0  0  0  0  0  0  0  0
  147.3600  132.6745  152.6926 F   0  0  0  0  0  0  0  0  0  0  0  0
  147.8196  137.1065  152.0678 H   0  0  0  0  0  0  0  0  0  0  0  0
  147.0310  139.3620  151.2730 H   0  0  0  0  0  0  0  0  0  0  0  0
  145.5347  139.0034  152.0932 H   0  0  0  0  0  0  0  0  0  0  0  0
  146.4746  139.1935  154.2586 H   0  0  0  0  0  0  0  0  0  0  0  0
  147.9570  141.2313  152.5403 H   0  0  0  0  0  0  0  0  0  0  0  0
  146.3506  141.4258  153.1958 H   0  0  0  0  0  0  0  0  0  0  0  0
  148.0212  142.6307  154.5711 H   0  0  0  0  0  0  0  0  0  0  0  0
  147.2151  141.3896  155.5004 H   0  0  0  0  0  0  0  0  0  0  0  0
  149.9886  141.1686  154.2299 H   0  0  0  0  0  0  0  0  0  0  0  0
  149.6499  141.3191  155.9385 H   0  0  0  0  0  0  0  0  0  0  0  0
  150.1130  138.9494  155.3104 H   0  0  0  0  0  0  0  0  0  0  0  0
  148.5029  139.1392  155.9632 H   0  0  0  0  0  0  0  0  0  0  0  0
  149.2420  138.9238  153.0022 H   0  0  0  0  0  0  0  0  0  0  0  0
  148.5141  136.9479  153.2073 H   0  0  0  0  0  0  0  0  0  0  0  0
  147.4255  135.1685  151.9159 H   0  0  0  0  0  0  0  0  0  0  0  0
  144.0773  135.0136  150.5127 H   0  0  0  0  0  0  0  0  0  0  0  0
  142.8062  132.8819  150.2141 H   0  0  0  0  0  0  0  0  0  0  0  0
  145.7257  130.6786  152.1341 H   0  0  0  0  0  0  0  0  0  0  0  0
  1  2  2  0  0  0  0
  2  3  1  0  0  0  0
  2 12  1  0  0  0  0
  3  4  1  0  0  0  0
  3 20  1  0  0  0  0
  4  5  1  0  0  0  0
  4 21  1  0  0  0  0
  4 22  1  0  0  0  0
  5 10  1  0  0  0  0
  5  6  1  0  0  0  0
  5 23  1  0  0  0  0
  6  7  1  0  0  0  0
  6 24  1  0  0  0  0
  6 25  1  0  0  0  0
  7  8  1  0  0  0  0
  7 26  1  0  0  0  0
  7 27  1  0  0  0  0
  8  9  1  0  0  0  0
  8 28  1  0  0  0  0
  8 29  1  0  0  0  0
  9 10  1  0  0  0  0
  9 30  1  0  0  0  0
  9 31  1  0  0  0  0
 10 11  1  0  0  0  0
 10 32  1  0  0  0  0
 11 33  1  0  0  0  0
 12 13  1  0  0  0  0
 12 34  1  0  0  0  0
 13 18  1  0  0  0  0
 13 14  2  0  0  0  0
 14 15  1  0  0  0  0
 14 35  1  0  0  0  0
 15 16  2  0  0  0  0
 15 36  1  0  0  0  0
 16 17  1  0  0  0  0
 17 18  2  0  0  0  0
 17 37  1  0  0  0  0
 18 19  1  0  0  0  0
M  END
> <s_m_source_file>
AV-unprocessed.smi

> <i_m_source_file_index>
2317

> <i_lp_mmshare_version>
43012

> <i_f3d_flags>
0

> <s_epik_input>
RmMxW2NIXW5bY0hdW2NIXWMxW05IXUMoPU8pW05IXVtDSDJdW0NAQEhdMltDSDJdW0NIMl1bQ0gyXVtDSDJdW0NASF0yW09IXQ==

> <s_epik_cmdline>
J2VwaWtfcHl0aG9uJywgJy1waCcsICc3LjAnLCAnLXRuJywgJzgnLCAnLW1hJywgJzIwMCcsICctbWV0YWxfYmluZGluZycsICctaW1hZScsICc8aW5maWxlLm1hZT4nLCAnLW9tYWUnLCAnPG91dGZpbGUubWFlPic=

> <r_epik_Ionization_Penalty>
0.00317647

> <r_epik_Ionization_Penalty_Charging>
0

> <r_epik_Ionization_Penalty_Neutral>
0.00317647

> <r_epik_State_Penalty>
0.0022093

> <r_epik_Charging_Adjusted_Penalty>
0.0022093

> <i_epik_Tot_Q>
0

> <i_epik_Tot_abs_Q>
0

> <r_epik_Metal_State_Penalty>
-0

> <b_epik_Metal_Only>
0

> <s_lp_Force_Field>
OPLS_2005

> <r_lp_Energy>
18.7745

> <b_lp_Chiralities_Consistent>
1

> <s_lp_Variant>
AV-unprocessed.smi:2317-1

> <Gold.Version>
5.8.1

> <Gold.Id.Protein>
6NUR|6NUR_protein|mol2

> <Gold.PLP.Fitness>
44.5510

> <Gold.PLP.PLP>
-33.3559

> <Gold.PLP.part.hbond>
-2.6297

> <Gold.PLP.part.metal>
0.0000

> <Gold.PLP.part.buried>
-3.7190

> <Gold.PLP.part.nonpolar>
-30.7740

> <Gold.PLP.part.repulsive>
2.6633

> <Gold.PLP.ligand.clash>
0.0000

> <Gold.PLP.ligand.torsion>
0.3607

> <Gold.PLP.Chemscore.Hbond>
2.9280

> <Gold.PLP.Chemscore.CHOScore>
1.0000

> <Gold.PLP.Chemscore.Metal>
0.0000

> <Gold.Chemscore.Hbonds>
donor molecule, donor type, donor heavy atom, donor atom, acceptor molecule, acceptor atom, score
      L1  H     3    20       P1  7948  0.75
      L1  H    11    33       P1  7948  1.00
      L1  H    12    34       P1  7948  0.77
      L1  C    15    36       P1 10186  1.00

> <Gold.PLP.Chemscore.Internal.Correction>
0.1326

> <Gold.Rescore>
     Score         DG    S(hbond)    S(metal)    S(lipo)     H(rot)  DE(clash)    DE(int)     intcor
     15.63     -19.39       2.87        0.00      76.03       1.79       0.11       3.64       ----

> <Gold.Chemscore.Fitness>
15.6347

> <Gold.Chemscore.DG>
-19.3876

> <Gold.Chemscore.ZeroCoef>
-5.4800

> <Gold.Chemscore.Hbond>
2.8689

> <Gold.Chemscore.Metal>
0.0000

> <Gold.Chemscore.Lipo>
76.0330

> <Gold.Chemscore.Internal_Hbond>
0.0000

> <Gold.Chemscore.DEClash>
0.1096

> <Gold.Chemscore.DEInternal>
3.6434

> <Gold.Chemscore.Rot>
1.7853

> <Gold.Chemscore.Internal.Correction>
   9.000000E+99

> <Gold.Chemscore.Hbonds>
donor molecule, donor type, donor heavy atom, donor atom, acceptor molecule, acceptor atom, score
      L1  H     3    20       P1  7948  0.74
      L1  H    11    33       P1  7948  0.98
      L1  H    12    34       P1  7948  0.74

> <Gold.Chemscore.Hbond.Weighted>
-9.5822

> <Gold.Chemscore.Metal.Weighted>
-0.0000

> <Gold.Chemscore.Lipo.Weighted>
-8.8959

> <Gold.Chemscore.Internal_Hbond.Weighted>
0.0000

> <Gold.Chemscore.DEClash.Weighted>
0.1096

> <Gold.Chemscore.DEInternal.Weighted>
3.6434

> <Gold.Chemscore.Rot.Weighted>
4.5704

> <Gold.Chemscore.Internal.Correction.Weighted>
   9.000000E+99

> <Gold.Protein.RotatedTorsions>
[ 6907 6896 6895 6894 ] final  129.70 input  -60.11 | X-H torsion
[ 7974 7965 7964 7962 ] final  133.36 input  175.53 | X-H torsion
[ 8008 7997 7996 7995 ] final -108.12 input   59.86 | X-H torsion
[ 10167 10162 10161 10158 ] final   46.52 input  -65.29 | X-H torsion
[ 10718 10713 10712 10709 ] final   96.31 input   66.30 | X-H torsion
[ 10763 10752 10751 10750 ] final   70.72 input  -60.55 | X-H torsion
[ 11005 11000 10999 10996 ] final   68.88 input  -57.11 | X-H torsion

> <Gold.Protein.ActiveResidues>
 VAL166  LYS551  ARG553  GLY616  TRP617  ASP618  TYR619  PRO620  LYS621  CYS622 
 ASP623  PHE694  ASN695  SER759  ASP760  ASP761  ALA762  ILE779  LEU786  VAL792 
 PHE793  MET794  SER795  GLU796  ALA797  LYS798  CYS799  TRP800  GLU811  SER814 

> <Gold.Protein.RotatedAtoms>
  152.3598  133.6283  159.6006 H   0  0  0  0  0  0  0  0  0  0  0  0  # atno 6907 bound_to 6896
  150.7593  133.9441  159.3474 H   0  0  0  0  0  0  0  0  0  0  0  0  # atno 6908 bound_to 6896
  151.7281  135.0881  160.0346 H   0  0  0  0  0  0  0  0  0  0  0  0  # atno 6909 bound_to 6896
  144.9873  139.4442  143.5356 H   0  0  0  0  0  0  0  0  0  0  0  0  # atno 7974 bound_to 7965
  154.9395  140.0403  157.2089 H   0  0  0  0  0  0  0  0  0  0  0  0  # atno 8008 bound_to 7997
  154.8082  140.2863  155.5850 H   0  0  0  0  0  0  0  0  0  0  0  0  # atno 8009 bound_to 7997
  156.2969  140.2542  156.2965 H   0  0  0  0  0  0  0  0  0  0  0  0  # atno 8010 bound_to 7997
  140.3131  144.2797  150.6196 H   0  0  0  0  0  0  0  0  0  0  0  0  # atno 10167 bound_to 10162
  157.6928  131.0574  150.4472 H   0  0  0  0  0  0  0  0  0  0  0  0  # atno 10718 bound_to 10713
  153.0357  135.5163  154.7484 H   0  0  0  0  0  0  0  0  0  0  0  0  # atno 10763 bound_to 10752
  154.6462  135.2919  155.0046 H   0  0  0  0  0  0  0  0  0  0  0  0  # atno 10764 bound_to 10752
  154.0946  135.6645  153.4910 H   0  0  0  0  0  0  0  0  0  0  0  0  # atno 10765 bound_to 10752
  139.9686  134.6939  156.0494 H   0  0  0  0  0  0  0  0  0  0  0  0  # atno 11005 bound_to 11000
  146.3423  139.9183  142.8770 LP  0  0  0  0  0  0  0  0  0  0  0  0  # atno 17320 bound_to 7965
  145.2335  140.9982  143.3977 LP  0  0  0  0  0  0  0  0  0  0  0  0  # atno 17321 bound_to 7965
  140.5551  143.2200  151.7861 LP  0  0  0  0  0  0  0  0  0  0  0  0  # atno 17342 bound_to 10162
  139.4889  144.4425  151.9748 LP  0  0  0  0  0  0  0  0  0  0  0  0  # atno 17343 bound_to 10162
  156.4826  130.4077  149.6453 LP  0  0  0  0  0  0  0  0  0  0  0  0  # atno 17370 bound_to 10713
  156.3493  130.7423  151.2380 LP  0  0  0  0  0  0  0  0  0  0  0  0  # atno 17371 bound_to 10713
  141.1366  133.6574  156.3610 LP  0  0  0  0  0  0  0  0  0  0  0  0  # atno 17394 bound_to 11000
  140.5343  134.6182  157.5360 LP  0  0  0  0  0  0  0  0  0  0  0  0  # atno 17395 bound_to 11000

$$$$
