AV-unprocessed.smi:2822|AV-procd|sdf|10864|dock3
  -GOLD-   2272015303D 1   1.00000     0.00000
 Structure written by MMmdl.
 41 43  0  0  0  0  0  0  0  0  3 V2000
  147.4401  137.2663  155.9829 Cl  0  0  0  0  0  0  0  0  0  0  0  0
  147.4552  138.7018  155.0190 C   0  0  0  0  0  0  0  0  0  0  0  0
  146.2842  139.0821  154.3313 C   0  0  0  0  0  0  0  0  0  0  0  0
  146.2787  140.1981  153.5722 N   0  3  0  0  0  0  0  0  0  0  0  0
  147.3619  140.9911  153.4343 C   0  0  0  0  0  0  0  0  0  0  0  0
  148.5619  140.6640  154.0981 C   0  0  0  0  0  0  0  0  0  0  0  0
  148.6203  139.5003  154.9055 C   0  0  0  0  0  0  0  0  0  0  0  0
  149.7849  139.1206  155.5912 N   0  0  0  0  0  0  0  0  0  0  0  0
  150.8308  140.0904  155.8808 C   0  0  0  0  0  0  0  0  0  0  0  0
  150.2546  141.3882  156.4659 C   0  0  2  0  0  0  0  0  0  0  0  0
  151.3095  142.5089  156.5064 C   0  0  0  0  0  0  0  0  0  0  0  0
  150.7559  143.7243  157.1538 N   0  3  2  0  0  0  0  0  0  0  0  0
  151.6968  144.8747  157.1791 C   0  0  0  0  0  0  0  0  0  0  0  0
  152.8024  144.7005  158.2379 C   0  0  0  0  0  0  0  0  0  0  0  0
  152.2018  144.4300  159.6238 C   0  0  0  0  0  0  0  0  0  0  0  0
  151.2439  143.2317  159.5672 C   0  0  0  0  0  0  0  0  0  0  0  0
  150.1586  143.4377  158.4874 C   0  0  2  0  0  0  0  0  0  0  0  0
  149.1840  142.2475  158.3900 C   0  0  0  0  0  0  0  0  0  0  0  0
  149.8304  141.1261  157.7996 O   0  0  0  0  0  0  0  0  0  0  0  0
  145.3569  138.5289  154.3657 H   0  0  0  0  0  0  0  0  0  0  0  0
  147.2379  141.8586  152.8024 H   0  0  0  0  0  0  0  0  0  0  0  0
  149.4161  141.3135  153.9784 H   0  0  0  0  0  0  0  0  0  0  0  0
  150.0135  138.1381  155.6526 H   0  0  0  0  0  0  0  0  0  0  0  0
  151.5573  139.6584  156.5706 H   0  0  0  0  0  0  0  0  0  0  0  0
  151.3568  140.3157  154.9522 H   0  0  0  0  0  0  0  0  0  0  0  0
  149.4040  141.7090  155.8609 H   0  0  0  0  0  0  0  0  0  0  0  0
  152.1953  142.1636  157.0397 H   0  0  0  0  0  0  0  0  0  0  0  0
  151.6282  142.7547  155.4927 H   0  0  0  0  0  0  0  0  0  0  0  0
  152.1336  145.0214  156.1905 H   0  0  0  0  0  0  0  0  0  0  0  0
  151.1261  145.7779  157.3980 H   0  0  0  0  0  0  0  0  0  0  0  0
  153.4669  143.8826  157.9585 H   0  0  0  0  0  0  0  0  0  0  0  0
  153.4235  145.5961  158.2734 H   0  0  0  0  0  0  0  0  0  0  0  0
  152.9950  144.2446  160.3488 H   0  0  0  0  0  0  0  0  0  0  0  0
  151.6643  145.3138  159.9700 H   0  0  0  0  0  0  0  0  0  0  0  0
  151.8084  142.3192  159.3724 H   0  0  0  0  0  0  0  0  0  0  0  0
  150.7761  143.0952  160.5427 H   0  0  0  0  0  0  0  0  0  0  0  0
  149.5766  144.3152  158.7734 H   0  0  0  0  0  0  0  0  0  0  0  0
  148.8216  141.9701  159.3800 H   0  0  0  0  0  0  0  0  0  0  0  0
  148.3059  142.5170  157.8010 H   0  0  0  0  0  0  0  0  0  0  0  0
  149.9880  144.0102  156.5631 H   0  0  0  0  0  0  0  0  0  0  0  0
  145.4198  140.4532  153.0837 H   0  0  0  0  0  0  0  0  0  0  0  0
  1  2  1  0  0  0  0
  2  7  1  0  0  0  0
  2  3  2  0  0  0  0
  3  4  1  0  0  0  0
  3 20  1  0  0  0  0
  4  5  2  0  0  0  0
  4 41  1  0  0  0  0
  5  6  1  0  0  0  0
  5 21  1  0  0  0  0
  6  7  2  0  0  0  0
  6 22  1  0  0  0  0
  7  8  1  0  0  0  0
  8  9  1  0  0  0  0
  8 23  1  0  0  0  0
  9 10  1  0  0  0  0
  9 24  1  0  0  0  0
  9 25  1  0  0  0  0
 10 19  1  0  0  0  0
 10 11  1  0  0  0  0
 10 26  1  0  0  0  0
 11 12  1  0  0  0  0
 11 27  1  0  0  0  0
 11 28  1  0  0  0  0
 12 17  1  0  0  0  0
 12 13  1  0  0  0  0
 12 40  1  0  0  0  0
 13 14  1  0  0  0  0
 13 29  1  0  0  0  0
 13 30  1  0  0  0  0
 14 15  1  0  0  0  0
 14 31  1  0  0  0  0
 14 32  1  0  0  0  0
 15 16  1  0  0  0  0
 15 33  1  0  0  0  0
 15 34  1  0  0  0  0
 16 17  1  0  0  0  0
 16 35  1  0  0  0  0
 16 36  1  0  0  0  0
 17 18  1  0  0  0  0
 17 37  1  0  0  0  0
 18 19  1  0  0  0  0
 18 38  1  0  0  0  0
 18 39  1  0  0  0  0
M  CHG  1   4   1
M  CHG  1  12   1
M  END
> <s_m_source_file>
AV-unprocessed.smi

> <i_m_source_file_index>
2822

> <i_lp_mmshare_version>
43012

> <i_f3d_flags>
0

> <s_epik_input>
Q2xjMVtjSF1uW2NIXVtjSF1jMVtOSF1bQ0gyXVtDQEhdKFtDSDJdMilPW0NIMl1bQ0BASF0oTjIzKVtDSDJdW0NIMl1bQ0gyXVtDSDJdMw==

> <s_epik_cmdline>
J2VwaWtfcHl0aG9uJywgJy1waCcsICc3LjAnLCAnLXRuJywgJzgnLCAnLW1hJywgJzIwMCcsICctbWV0YWxfYmluZGluZycsICctaW1hZScsICc8aW5maWxlLm1hZT4nLCAnLW9tYWUnLCAnPG91dGZpbGUubWFlPic=

> <r_lp_tautomer_probability>
1

> <r_epik_Ionization_Penalty>
0.254999

> <r_epik_Ionization_Penalty_Charging>
0.254956

> <r_epik_Ionization_Penalty_Neutral>
4.33524e-05

> <r_epik_State_Penalty>
0.230978

> <r_epik_Charging_Adjusted_Penalty>
0.485934

> <i_epik_Tot_Q>
2

> <i_epik_Tot_abs_Q>
2

> <r_epik_Metal_State_Penalty>
3.47007

> <b_epik_Metal_Only>
0

> <s_lp_Force_Field>
OPLS_2005

> <r_lp_Energy>
39.695

> <b_lp_Chiralities_Consistent>
1

> <s_lp_Variant>
AV-unprocessed.smi:2822-5

> <Gold.Version>
5.8.1

> <Gold.Id.Protein>
6NUR|6NUR_protein|mol2

> <Gold.PLP.Fitness>
41.3867

> <Gold.PLP.PLP>
-29.8894

> <Gold.PLP.part.hbond>
-2.0000

> <Gold.PLP.part.metal>
0.0000

> <Gold.PLP.part.buried>
-4.7443

> <Gold.PLP.part.nonpolar>
-24.0099

> <Gold.PLP.part.repulsive>
0.0715

> <Gold.PLP.ligand.clash>
0.0217

> <Gold.PLP.ligand.torsion>
0.2411

> <Gold.PLP.Chemscore.Hbond>
4.0000

> <Gold.PLP.Chemscore.CHOScore>
0.0000

> <Gold.PLP.Chemscore.Metal>
0.0000

> <Gold.Chemscore.Hbonds>
donor molecule, donor type, donor heavy atom, donor atom, acceptor molecule, acceptor atom, score
      L1  H     4    41       P1 10175  2.00
      L1  H    12    40       P1  8028  2.00

> <Gold.PLP.Chemscore.Internal.Correction>
0.0012

> <Gold.Rescore>
     Score         DG    S(hbond)    S(metal)    S(lipo)     H(rot)  DE(clash)    DE(int)     intcor
     19.40     -20.98       1.98        0.00     102.22       1.20       1.34       0.24       ----

> <Gold.Chemscore.Fitness>
19.4001

> <Gold.Chemscore.DG>
-20.9759

> <Gold.Chemscore.ZeroCoef>
-5.4800

> <Gold.Chemscore.Hbond>
1.9756

> <Gold.Chemscore.Metal>
0.0000

> <Gold.Chemscore.Lipo>
102.2188

> <Gold.Chemscore.Internal_Hbond>
0.0000

> <Gold.Chemscore.DEClash>
1.3391

> <Gold.Chemscore.DEInternal>
0.2367

> <Gold.Chemscore.Rot>
1.1962

> <Gold.Chemscore.Internal.Correction>
   9.000000E+99

> <Gold.Chemscore.Hbonds>
donor molecule, donor type, donor heavy atom, donor atom, acceptor molecule, acceptor atom, score
      L1  H     4    41       P1 10175  0.93
      L1  H    12    40       P1  8028  0.97

> <Gold.Chemscore.Hbond.Weighted>
-6.5986

> <Gold.Chemscore.Metal.Weighted>
-0.0000

> <Gold.Chemscore.Lipo.Weighted>
-11.9596

> <Gold.Chemscore.Internal_Hbond.Weighted>
0.0000

> <Gold.Chemscore.DEClash.Weighted>
1.3391

> <Gold.Chemscore.DEInternal.Weighted>
0.2367

> <Gold.Chemscore.Rot.Weighted>
3.0623

> <Gold.Chemscore.Internal.Correction.Weighted>
   9.000000E+99

> <Gold.Protein.RotatedTorsions>
[ 6907 6896 6895 6894 ] final  131.79 input  -60.11 | X-H torsion
[ 7974 7965 7964 7962 ] final  123.73 input  175.53 | X-H torsion
[ 8008 7997 7996 7995 ] final  -92.59 input   59.86 | X-H torsion
[ 10167 10162 10161 10158 ] final  -70.24 input  -65.29 | X-H torsion
[ 10718 10713 10712 10709 ] final   74.19 input   66.30 | X-H torsion
[ 10763 10752 10751 10750 ] final  -14.53 input  -60.55 | X-H torsion
[ 11005 11000 10999 10996 ] final   18.47 input  -57.11 | X-H torsion

> <Gold.Protein.ActiveResidues>
 VAL166  LYS551  ARG553  GLY616  TRP617  ASP618  TYR619  PRO620  LYS621  CYS622 
 ASP623  PHE694  ASN695  SER759  ASP760  ASP761  ALA762  ILE779  LEU786  VAL792 
 PHE793  MET794  SER795  GLU796  ALA797  LYS798  CYS799  TRP800  GLU811  SER814 

> <Gold.Protein.RotatedAtoms>
  152.3390  133.6045  159.5862 H   0  0  0  0  0  0  0  0  0  0  0  0  # atno 6907 bound_to 6896
  150.7467  133.9751  159.3567 H   0  0  0  0  0  0  0  0  0  0  0  0  # atno 6908 bound_to 6896
  151.7617  135.0809  160.0397 H   0  0  0  0  0  0  0  0  0  0  0  0  # atno 6909 bound_to 6896
  145.0925  139.3576  143.4853 H   0  0  0  0  0  0  0  0  0  0  0  0  # atno 7974 bound_to 7965
  154.7250  140.0507  157.0674 H   0  0  0  0  0  0  0  0  0  0  0  0  # atno 8008 bound_to 7997
  155.0377  140.3165  155.4716 H   0  0  0  0  0  0  0  0  0  0  0  0  # atno 8009 bound_to 7997
  156.2826  140.2138  156.5500 H   0  0  0  0  0  0  0  0  0  0  0  0  # atno 8010 bound_to 7997
  140.5368  143.2317  151.7163 H   0  0  0  0  0  0  0  0  0  0  0  0  # atno 10167 bound_to 10162
  157.6581  130.9665  150.1176 H   0  0  0  0  0  0  0  0  0  0  0  0  # atno 10718 bound_to 10713
  153.5297  135.7015  153.5689 H   0  0  0  0  0  0  0  0  0  0  0  0  # atno 10763 bound_to 10752
  153.3702  135.3946  155.1783 H   0  0  0  0  0  0  0  0  0  0  0  0  # atno 10764 bound_to 10752
  154.8686  135.3810  154.4793 H   0  0  0  0  0  0  0  0  0  0  0  0  # atno 10765 bound_to 10752
  140.4245  134.1484  155.7675 H   0  0  0  0  0  0  0  0  0  0  0  0  # atno 11005 bound_to 11000
  146.3531  140.0766  142.8620 LP  0  0  0  0  0  0  0  0  0  0  0  0  # atno 17320 bound_to 7965
  145.1049  140.9369  143.4691 LP  0  0  0  0  0  0  0  0  0  0  0  0  # atno 17321 bound_to 7965
  139.4974  144.4031  152.0160 LP  0  0  0  0  0  0  0  0  0  0  0  0  # atno 17342 bound_to 10162
  140.3137  144.3508  150.6027 LP  0  0  0  0  0  0  0  0  0  0  0  0  # atno 17343 bound_to 10162
  156.2056  130.3663  149.8734 LP  0  0  0  0  0  0  0  0  0  0  0  0  # atno 17370 bound_to 10713
  156.6626  130.8788  151.3550 LP  0  0  0  0  0  0  0  0  0  0  0  0  # atno 17371 bound_to 10713
  141.1771  133.8492  157.1386 LP  0  0  0  0  0  0  0  0  0  0  0  0  # atno 17394 bound_to 11000
  140.0177  134.9960  157.0527 LP  0  0  0  0  0  0  0  0  0  0  0  0  # atno 17395 bound_to 11000

$$$$
