AV-unprocessed.smi:137|AV-procd|sdf|1178|dock5
  -GOLD-   2262018323D 1   1.00000     0.00000
 Structure written by MMmdl.
 51 54  0  0  0  0  0  0  0  0  1 V2000
  148.3371  141.5974  153.9225 C   0  0  0  0  0  0  0  0  0  0  0  0
  147.8962  141.2079  155.3424 C   0  0  1  0  0  0  0  0  0  0  0  0
  146.3992  140.8140  155.3848 C   0  0  0  0  0  0  0  0  0  0  0  0
  146.1438  139.3723  155.3112 N   0  0  0  0  0  0  0  0  0  0  0  0
  146.0813  138.7316  154.1062 C   0  0  0  0  0  0  0  0  0  0  0  0
  146.8094  139.2383  153.0751 N   0  0  0  0  0  0  0  0  0  0  0  0
  146.7968  138.6628  151.8712 C   0  0  0  0  0  0  0  0  0  0  0  0
  146.1261  137.5833  151.4732 N   0  0  0  0  0  0  0  0  0  0  0  0
  145.3840  137.0627  152.4906 C   0  0  0  0  0  0  0  0  0  0  0  0
  145.3060  137.5618  153.8255 C   0  0  0  0  0  0  0  0  0  0  0  0
  144.4644  136.7392  154.5685 N   0  0  0  0  0  0  0  0  0  0  0  0
  144.0733  135.8196  153.7313 C   0  0  0  0  0  0  0  0  0  0  0  0
  144.5532  135.9561  152.4506 N   0  0  0  0  0  0  0  0  0  0  0  0
  144.3145  135.0719  151.3471 C   0  0  0  0  0  0  0  0  0  0  0  0
  143.8309  133.6367  151.5756 C   0  0  0  0  0  0  0  0  0  0  0  0
  144.7024  133.1403  150.4004 C   0  0  0  0  0  0  0  0  0  0  0  0
  145.5145  131.8721  150.7057 C   0  0  0  0  0  0  0  0  0  0  0  0
  146.5008  131.6406  149.7201 O   0  0  0  0  0  0  0  0  0  0  0  0
  143.9710  132.9009  149.0609 C   0  0  0  0  0  0  0  0  0  0  0  0
  142.8084  132.1087  149.1936 O   0  0  0  0  0  0  0  0  0  0  0  0
  145.4770  134.4680  150.5530 C   0  0  0  0  0  0  0  0  0  0  0  0
  146.0055  138.6512  156.5765 C   0  0  0  0  0  0  0  0  0  0  0  0
  147.3442  138.2022  157.1924 C   0  0  0  0  0  0  0  0  0  0  0  0
  148.3941  139.6651  157.6574 S   0  0  2  0  0  0  0  0  0  0  0  0
  147.4815  140.7398  158.2520 O   0  0  0  0  0  0  0  0  0  0  0  0
  148.8840  140.1802  155.9387 C   0  0  0  0  0  0  0  0  0  0  0  0
  148.3376  140.7365  153.2541 H   0  0  0  0  0  0  0  0  0  0  0  0
  149.3470  142.0089  153.9261 H   0  0  0  0  0  0  0  0  0  0  0  0
  147.6781  142.3537  153.4951 H   0  0  0  0  0  0  0  0  0  0  0  0
  147.9829  142.1179  155.9377 H   0  0  0  0  0  0  0  0  0  0  0  0
  145.9793  141.1731  156.3241 H   0  0  0  0  0  0  0  0  0  0  0  0
  145.8336  141.3592  154.6290 H   0  0  0  0  0  0  0  0  0  0  0  0
  147.4100  139.1368  151.1193 H   0  0  0  0  0  0  0  0  0  0  0  0
  143.4149  135.0161  154.0279 H   0  0  0  0  0  0  0  0  0  0  0  0
  143.6329  135.6053  150.6837 H   0  0  0  0  0  0  0  0  0  0  0  0
  144.1519  133.2433  152.5416 H   0  0  0  0  0  0  0  0  0  0  0  0
  142.7571  133.5002  151.4415 H   0  0  0  0  0  0  0  0  0  0  0  0
  146.0209  131.9568  151.6677 H   0  0  0  0  0  0  0  0  0  0  0  0
  144.8694  130.9957  150.7735 H   0  0  0  0  0  0  0  0  0  0  0  0
  147.2594  131.2615  150.1370 H   0  0  0  0  0  0  0  0  0  0  0  0
  143.6697  133.8444  148.6056 H   0  0  0  0  0  0  0  0  0  0  0  0
  144.6287  132.4057  148.3458 H   0  0  0  0  0  0  0  0  0  0  0  0
  142.0677  132.6819  149.3199 H   0  0  0  0  0  0  0  0  0  0  0  0
  145.6941  134.9806  149.6153 H   0  0  0  0  0  0  0  0  0  0  0  0
  146.3809  134.3592  151.1547 H   0  0  0  0  0  0  0  0  0  0  0  0
  145.4846  139.2904  157.2898 H   0  0  0  0  0  0  0  0  0  0  0  0
  145.3428  137.7965  156.4480 H   0  0  0  0  0  0  0  0  0  0  0  0
  147.1459  137.6299  158.0985 H   0  0  0  0  0  0  0  0  0  0  0  0
  147.9046  137.5504  156.5233 H   0  0  0  0  0  0  0  0  0  0  0  0
  148.9862  139.3002  155.3028 H   0  0  0  0  0  0  0  0  0  0  0  0
  149.8732  140.6343  156.0000 H   0  0  0  0  0  0  0  0  0  0  0  0
  1  2  1  0  0  0  0
  1 27  1  0  0  0  0
  1 28  1  0  0  0  0
  1 29  1  0  0  0  0
  2 26  1  0  0  0  0
  2  3  1  0  0  0  0
  2 30  1  0  0  0  0
  3  4  1  0  0  0  0
  3 31  1  0  0  0  0
  3 32  1  0  0  0  0
  4  5  1  0  0  0  0
  4 22  1  0  0  0  0
  5 10  1  0  0  0  0
  5  6  2  0  0  0  0
  6  7  1  0  0  0  0
  7  8  2  0  0  0  0
  7 33  1  0  0  0  0
  8  9  1  0  0  0  0
  9 13  1  0  0  0  0
  9 10  2  0  0  0  0
 10 11  1  0  0  0  0
 11 12  2  0  0  0  0
 12 13  1  0  0  0  0
 12 34  1  0  0  0  0
 13 14  1  0  0  0  0
 14 21  1  0  0  0  0
 14 15  1  0  0  0  0
 14 35  1  0  0  0  0
 15 16  1  0  0  0  0
 15 36  1  0  0  0  0
 15 37  1  0  0  0  0
 16 17  1  0  0  0  0
 16 19  1  0  0  0  0
 16 21  1  0  0  0  0
 17 18  1  0  0  0  0
 17 38  1  0  0  0  0
 17 39  1  0  0  0  0
 18 40  1  0  0  0  0
 19 20  1  0  0  0  0
 19 41  1  0  0  0  0
 19 42  1  0  0  0  0
 20 43  1  0  0  0  0
 21 44  1  0  0  0  0
 21 45  1  0  0  0  0
 22 23  1  0  0  0  0
 22 46  1  0  0  0  0
 22 47  1  0  0  0  0
 23 24  1  0  0  0  0
 23 48  1  0  0  0  0
 23 49  1  0  0  0  0
 24 25  2  0  0  0  0
 24 26  1  0  0  0  0
 26 50  1  0  0  0  0
 26 51  1  0  0  0  0
M  END
> <s_m_source_file>
AV-unprocessed.smi

> <i_m_source_file_index>
137

> <i_lp_mmshare_version>
43012

> <i_f3d_flags>
0

> <s_epik_input>
Tz1bU0BAXShbQ0gyXTEpW0NIMl1bQ0gyXU4oW0NIMl1bQ0BIXTFbQ0gzXSljKG5bY0hdbjIpYyhjMjMpbltjSF1uM1tDSF0oW0NIMl00KVtDSDJdQzQoW0NIMl1bT0hdKVtDSDJdW09IXQ==

> <s_epik_cmdline>
J2VwaWtfcHl0aG9uJywgJy1waCcsICc3LjAnLCAnLXRuJywgJzgnLCAnLW1hJywgJzIwMCcsICctbWV0YWxfYmluZGluZycsICctaW1hZScsICc8aW5maWxlLm1hZT4nLCAnLW9tYWUnLCAnPG91dGZpbGUubWFlPic=

> <r_lp_tautomer_probability>
1

> <r_epik_Ionization_Penalty>
0.000811024

> <r_epik_Ionization_Penalty_Charging>
0

> <r_epik_Ionization_Penalty_Neutral>
0.000811024

> <r_epik_State_Penalty>
0.000429598

> <r_epik_Charging_Adjusted_Penalty>
0.000429598

> <i_epik_Tot_Q>
0

> <i_epik_Tot_abs_Q>
0

> <r_epik_Metal_State_Penalty>
-0

> <b_epik_Metal_Only>
0

> <s_lp_Force_Field>
OPLS_2005

> <r_lp_Energy>
44.8713

> <b_lp_Chiralities_Consistent>
1

> <s_lp_Variant>
AV-unprocessed.smi:137-4

> <Gold.Version>
5.8.1

> <Gold.Id.Protein>
6NUR|6NUR_protein|mol2

> <Gold.PLP.Fitness>
46.6126

> <Gold.PLP.PLP>
-36.5734

> <Gold.PLP.part.hbond>
-5.0000

> <Gold.PLP.part.metal>
0.0000

> <Gold.PLP.part.buried>
-5.2489

> <Gold.PLP.part.nonpolar>
-28.2920

> <Gold.PLP.part.repulsive>
1.7117

> <Gold.PLP.ligand.clash>
0.0000

> <Gold.PLP.ligand.torsion>
1.1210

> <Gold.PLP.Chemscore.Hbond>
2.9500

> <Gold.PLP.Chemscore.CHOScore>
1.0000

> <Gold.PLP.Chemscore.Metal>
0.0000

> <Gold.Chemscore.Hbonds>
donor molecule, donor type, donor heavy atom, donor atom, acceptor molecule, acceptor atom, score
      L1  H    18    40       P1 10747  1.00
      L1  H    20    43       P1 10186  0.99
      P1  H 10785 10796       L1    20  0.94
      L1  C     7    33       P1  7957  1.00

> <Gold.PLP.Chemscore.Internal.Correction>
0.4312

> <Gold.Rescore>
     Score         DG    S(hbond)    S(metal)    S(lipo)     H(rot)  DE(clash)    DE(int)     intcor
     11.57     -14.61       2.61        0.00      66.37       2.87       0.77       2.27       ----

> <Gold.Chemscore.Fitness>
11.5719

> <Gold.Chemscore.DG>
-14.6129

> <Gold.Chemscore.ZeroCoef>
-5.4800

> <Gold.Chemscore.Hbond>
2.6112

> <Gold.Chemscore.Metal>
0.0000

> <Gold.Chemscore.Lipo>
66.3684

> <Gold.Chemscore.Internal_Hbond>
0.0000

> <Gold.Chemscore.DEClash>
0.7665

> <Gold.Chemscore.DEInternal>
2.2745

> <Gold.Chemscore.Rot>
2.8725

> <Gold.Chemscore.Internal.Correction>
   9.000000E+99

> <Gold.Chemscore.Hbonds>
donor molecule, donor type, donor heavy atom, donor atom, acceptor molecule, acceptor atom, score
      L1  H    18    40       P1 10747  0.98
      L1  H    20    43       P1 10186  0.92
      P1  H 10785 10796       L1    20  0.70

> <Gold.Chemscore.Hbond.Weighted>
-8.7214

> <Gold.Chemscore.Metal.Weighted>
-0.0000

> <Gold.Chemscore.Lipo.Weighted>
-7.7651

> <Gold.Chemscore.Internal_Hbond.Weighted>
0.0000

> <Gold.Chemscore.DEClash.Weighted>
0.7665

> <Gold.Chemscore.DEInternal.Weighted>
2.2745

> <Gold.Chemscore.Rot.Weighted>
7.3535

> <Gold.Chemscore.Internal.Correction.Weighted>
   9.000000E+99

> <Gold.Protein.RotatedTorsions>
[ 6907 6896 6895 6894 ] final   39.52 input  -60.11 | X-H torsion
[ 7974 7965 7964 7962 ] final  125.42 input  175.53 | X-H torsion
[ 8008 7997 7996 7995 ] final  111.55 input   59.86 | X-H torsion
[ 10167 10162 10161 10158 ] final -143.74 input  -65.29 | X-H torsion
[ 10718 10713 10712 10709 ] final  103.61 input   66.30 | X-H torsion
[ 10763 10752 10751 10750 ] final  -49.59 input  -60.55 | X-H torsion
[ 11005 11000 10999 10996 ] final   55.96 input  -57.11 | X-H torsion

> <Gold.Protein.ActiveResidues>
 VAL166  LYS551  ARG553  GLY616  TRP617  ASP618  TYR619  PRO620  LYS621  CYS622 
 ASP623  PHE694  ASN695  SER759  ASP760  ASP761  ALA762  ILE779  LEU786  VAL792 
 PHE793  MET794  SER795  GLU796  ALA797  LYS798  CYS799  TRP800  GLU811  SER814 

> <Gold.Protein.RotatedAtoms>
  152.1707  134.8837  160.0534 H   0  0  0  0  0  0  0  0  0  0  0  0  # atno 6907 bound_to 6896
  151.9798  133.3749  159.4111 H   0  0  0  0  0  0  0  0  0  0  0  0  # atno 6908 bound_to 6896
  150.6901  134.3974  159.5147 H   0  0  0  0  0  0  0  0  0  0  0  0  # atno 6909 bound_to 6896
  145.0732  139.3714  143.4947 H   0  0  0  0  0  0  0  0  0  0  0  0  # atno 7974 bound_to 7965
  156.2131  140.3017  155.9778 H   0  0  0  0  0  0  0  0  0  0  0  0  # atno 8008 bound_to 7997
  155.2673  140.0432  157.3020 H   0  0  0  0  0  0  0  0  0  0  0  0  # atno 8009 bound_to 7997
  154.5729  140.2353  155.8174 H   0  0  0  0  0  0  0  0  0  0  0  0  # atno 8010 bound_to 7997
  139.7965  143.7893  152.2654 H   0  0  0  0  0  0  0  0  0  0  0  0  # atno 10167 bound_to 10162
  157.6767  131.0783  150.5581 H   0  0  0  0  0  0  0  0  0  0  0  0  # atno 10718 bound_to 10713
  154.0966  135.6569  153.4861 H   0  0  0  0  0  0  0  0  0  0  0  0  # atno 10763 bound_to 10752
  153.0303  135.5215  154.7328 H   0  0  0  0  0  0  0  0  0  0  0  0  # atno 10764 bound_to 10752
  154.6467  135.2995  155.0006 H   0  0  0  0  0  0  0  0  0  0  0  0  # atno 10765 bound_to 10752
  140.0566  134.5661  155.9200 H   0  0  0  0  0  0  0  0  0  0  0  0  # atno 11005 bound_to 11000
  146.3529  140.0487  142.8637 LP  0  0  0  0  0  0  0  0  0  0  0  0  # atno 17320 bound_to 7965
  145.1267  140.9494  143.4568 LP  0  0  0  0  0  0  0  0  0  0  0  0  # atno 17321 bound_to 7965
  139.8000  144.7378  150.9838 LP  0  0  0  0  0  0  0  0  0  0  0  0  # atno 17342 bound_to 10162
  140.7820  143.4355  151.0630 LP  0  0  0  0  0  0  0  0  0  0  0  0  # atno 17343 bound_to 10162
  156.5884  130.4323  149.5947 LP  0  0  0  0  0  0  0  0  0  0  0  0  # atno 17370 bound_to 10713
  156.2604  130.6959  151.1725 LP  0  0  0  0  0  0  0  0  0  0  0  0  # atno 17371 bound_to 10713
  141.1955  133.6587  156.5645 LP  0  0  0  0  0  0  0  0  0  0  0  0  # atno 17394 bound_to 11000
  140.3834  134.7503  157.4675 LP  0  0  0  0  0  0  0  0  0  0  0  0  # atno 17395 bound_to 11000

$$$$
