AV-unprocessed.smi:1047|AV-procd|sdf|4564|dock4
  -GOLD-   22720 3 13D 1   1.00000     0.00000
 Structure written by MMmdl.
 57 59  0  0  0  0  0  0  0  0  3 V2000
  141.2882  145.2281  154.4784 C   0  0  0  0  0  0  0  0  0  0  0  0
  142.5023  146.1519  154.6531 C   0  0  0  0  0  0  0  0  0  0  0  0
  143.6438  145.4805  155.3242 N   0  3  1  0  0  0  0  0  0  0  0  0
  143.3459  145.1497  156.7383 C   0  0  0  0  0  0  0  0  0  0  0  0
  144.5696  144.5100  157.4151 C   0  0  0  0  0  0  0  0  0  0  0  0
  144.9689  143.3522  156.6908 O   0  0  0  0  0  0  0  0  0  0  0  0
  145.3365  143.6566  155.3497 C   0  0  1  0  0  0  0  0  0  0  0  0
  145.8823  142.3841  154.6794 C   0  0  0  0  0  0  0  0  0  0  0  0
  147.3552  142.2968  154.7628 N   0  3  0  0  0  0  0  0  0  0  0  0
  147.8532  140.9866  155.2253 C   0  0  0  0  0  0  0  0  0  0  0  0
  149.3398  140.7922  154.8702 C   0  0  1  0  0  0  0  0  0  0  0  0
  149.4846  140.8941  153.4666 O   0  0  0  0  0  0  0  0  0  0  0  0
  150.2743  141.8157  155.5522 C   0  0  0  0  0  0  0  0  0  0  0  0
  151.2239  141.2114  156.4731 N   0  0  0  0  0  0  0  0  0  0  0  0
  151.9132  140.0675  156.2951 C   0  0  0  0  0  0  0  0  0  0  0  0
  152.7431  139.6986  157.2658 N   0  0  0  0  0  0  0  0  0  0  0  0
  152.5662  140.7169  158.1861 C   0  0  0  0  0  0  0  0  0  0  0  0
  153.1628  140.9248  159.4487 C   0  0  0  0  0  0  0  0  0  0  0  0
  152.8276  142.0520  160.2321 C   0  0  0  0  0  0  0  0  0  0  0  0
  153.4911  142.2334  161.5858 C   0  0  0  0  0  0  0  0  0  0  0  0
  151.8803  142.9928  159.7547 C   0  0  0  0  0  0  0  0  0  0  0  0
  151.5012  144.2088  160.5814 C   0  0  0  0  0  0  0  0  0  0  0  0
  151.2761  142.8014  158.4946 C   0  0  0  0  0  0  0  0  0  0  0  0
  151.6188  141.6763  157.7235 C   0  0  0  0  0  0  0  0  0  0  0  0
  144.1355  144.2781  154.6057 C   0  0  0  0  0  0  0  0  0  0  0  0
  140.5154  145.7222  153.8890 H   0  0  0  0  0  0  0  0  0  0  0  0
  140.8381  144.9574  155.4332 H   0  0  0  0  0  0  0  0  0  0  0  0
  141.5607  144.3088  153.9593 H   0  0  0  0  0  0  0  0  0  0  0  0
  142.8188  146.4781  153.6615 H   0  0  0  0  0  0  0  0  0  0  0  0
  142.2224  147.0533  155.2004 H   0  0  0  0  0  0  0  0  0  0  0  0
  143.0615  146.0535  157.2788 H   0  0  0  0  0  0  0  0  0  0  0  0
  142.4947  144.4684  156.7841 H   0  0  0  0  0  0  0  0  0  0  0  0
  145.3966  145.2194  157.4772 H   0  0  0  0  0  0  0  0  0  0  0  0
  144.3234  144.2193  158.4365 H   0  0  0  0  0  0  0  0  0  0  0  0
  146.1480  144.3867  155.3730 H   0  0  0  0  0  0  0  0  0  0  0  0
  145.4417  141.5040  155.1499 H   0  0  0  0  0  0  0  0  0  0  0  0
  145.5861  142.3645  153.6299 H   0  0  0  0  0  0  0  0  0  0  0  0
  147.7448  142.4872  153.8505 H   0  0  0  0  0  0  0  0  0  0  0  0
  147.6991  140.9039  156.3022 H   0  0  0  0  0  0  0  0  0  0  0  0
  147.2576  140.2035  154.7544 H   0  0  0  0  0  0  0  0  0  0  0  0
  149.6552  139.7909  155.1661 H   0  0  0  0  0  0  0  0  0  0  0  0
  149.2931  140.0515  153.0821 H   0  0  0  0  0  0  0  0  0  0  0  0
  150.8355  142.3644  154.7950 H   0  0  0  0  0  0  0  0  0  0  0  0
  149.6910  142.5604  156.0958 H   0  0  0  0  0  0  0  0  0  0  0  0
  151.8048  139.4755  155.3979 H   0  0  0  0  0  0  0  0  0  0  0  0
  153.8824  140.2065  159.8136 H   0  0  0  0  0  0  0  0  0  0  0  0
  152.7478  142.1879  162.3820 H   0  0  0  0  0  0  0  0  0  0  0  0
  153.9993  143.1964  161.6398 H   0  0  0  0  0  0  0  0  0  0  0  0
  154.2313  141.4551  161.7735 H   0  0  0  0  0  0  0  0  0  0  0  0
  150.7311  144.8020  160.0876 H   0  0  0  0  0  0  0  0  0  0  0  0
  152.3695  144.8491  160.7376 H   0  0  0  0  0  0  0  0  0  0  0  0
  151.1153  143.9050  161.5544 H   0  0  0  0  0  0  0  0  0  0  0  0
  150.5524  143.5107  158.1214 H   0  0  0  0  0  0  0  0  0  0  0  0
  143.3220  143.5561  154.5185 H   0  0  0  0  0  0  0  0  0  0  0  0
  144.4401  144.5409  153.5930 H   0  0  0  0  0  0  0  0  0  0  0  0
  147.6871  142.9986  155.4092 H   0  0  0  0  0  0  0  0  0  0  0  0
  144.4015  146.1488  155.3418 H   0  0  0  0  0  0  0  0  0  0  0  0
  1  2  1  0  0  0  0
  1 26  1  0  0  0  0
  1 27  1  0  0  0  0
  1 28  1  0  0  0  0
  2  3  1  0  0  0  0
  2 29  1  0  0  0  0
  2 30  1  0  0  0  0
  3 25  1  0  0  0  0
  3  4  1  0  0  0  0
  3 57  1  0  0  0  0
  4  5  1  0  0  0  0
  4 31  1  0  0  0  0
  4 32  1  0  0  0  0
  5  6  1  0  0  0  0
  5 33  1  0  0  0  0
  5 34  1  0  0  0  0
  6  7  1  0  0  0  0
  7  8  1  0  0  0  0
  7 25  1  0  0  0  0
  7 35  1  0  0  0  0
  8  9  1  0  0  0  0
  8 36  1  0  0  0  0
  8 37  1  0  0  0  0
  9 10  1  0  0  0  0
  9 38  1  0  0  0  0
  9 56  1  0  0  0  0
 10 11  1  0  0  0  0
 10 39  1  0  0  0  0
 10 40  1  0  0  0  0
 11 12  1  0  0  0  0
 11 13  1  0  0  0  0
 11 41  1  0  0  0  0
 12 42  1  0  0  0  0
 13 14  1  0  0  0  0
 13 43  1  0  0  0  0
 13 44  1  0  0  0  0
 14 24  1  0  0  0  0
 14 15  1  0  0  0  0
 15 16  2  0  0  0  0
 15 45  1  0  0  0  0
 16 17  1  0  0  0  0
 17 24  2  0  0  0  0
 17 18  1  0  0  0  0
 18 19  2  0  0  0  0
 18 46  1  0  0  0  0
 19 20  1  0  0  0  0
 19 21  1  0  0  0  0
 20 47  1  0  0  0  0
 20 48  1  0  0  0  0
 20 49  1  0  0  0  0
 21 22  1  0  0  0  0
 21 23  2  0  0  0  0
 22 50  1  0  0  0  0
 22 51  1  0  0  0  0
 22 52  1  0  0  0  0
 23 24  1  0  0  0  0
 23 53  1  0  0  0  0
 25 54  1  0  0  0  0
 25 55  1  0  0  0  0
M  CHG  1   3   1
M  CHG  1   9   1
M  END
> <s_m_source_file>
AV-unprocessed.smi

> <i_m_source_file_index>
1047

> <i_lp_mmshare_version>
43012

> <i_f3d_flags>
0

> <s_epik_input>
W0NIM11bQ0gyXU4xW0NIMl1bQ0gyXU9bQ0BIXShbQ0gyXTEpW0NIMl1bTkhdW0NIMl1bQ0BIXShbT0hdKVtDSDJdbihbY0hdbjIpYyhjMjMpW2NIXWMoW0NIM10pYyhbY0hdMylbQ0gzXQ==

> <s_epik_cmdline>
J2VwaWtfcHl0aG9uJywgJy1waCcsICc3LjAnLCAnLXRuJywgJzgnLCAnLW1hJywgJzIwMCcsICctbWV0YWxfYmluZGluZycsICctaW1hZScsICc8aW5maWxlLm1hZT4nLCAnLW9tYWUnLCAnPG91dGZpbGUubWFlPic=

> <r_epik_Ionization_Penalty>
0.528991

> <r_epik_Ionization_Penalty_Charging>
0.438567

> <r_epik_Ionization_Penalty_Neutral>
0.0904237

> <r_epik_State_Penalty>
0.533036

> <r_epik_Charging_Adjusted_Penalty>
0.971603

> <i_epik_Tot_Q>
2

> <i_epik_Tot_abs_Q>
2

> <r_epik_Metal_State_Penalty>
0.448985

> <b_epik_Metal_Only>
0

> <s_lp_Force_Field>
OPLS_2005

> <r_lp_Energy>
29.0334

> <b_lp_Chiralities_Consistent>
1

> <s_lp_Variant>
AV-unprocessed.smi:1047-5

> <Gold.Version>
5.8.1

> <Gold.Id.Protein>
6NUR|6NUR_protein|mol2

> <Gold.PLP.Fitness>
61.1123

> <Gold.PLP.PLP>
-51.2540

> <Gold.PLP.part.hbond>
-4.7637

> <Gold.PLP.part.metal>
0.0000

> <Gold.PLP.part.buried>
-8.0171

> <Gold.PLP.part.nonpolar>
-38.1140

> <Gold.PLP.part.repulsive>
0.2711

> <Gold.PLP.ligand.clash>
0.0000

> <Gold.PLP.ligand.torsion>
1.9310

> <Gold.PLP.Chemscore.Hbond>
4.4194

> <Gold.PLP.Chemscore.CHOScore>
0.0000

> <Gold.PLP.Chemscore.Metal>
0.0000

> <Gold.Chemscore.Hbonds>
donor molecule, donor type, donor heavy atom, donor atom, acceptor molecule, acceptor atom, score
      L1  H     9    56       P1  8028  1.60
      L1  H    12    42       P1  7957  0.24
      P1  H  7989  7998       L1    12  0.18
      P1  H  7997  8010       L1    16  1.00
      P1  H  8011  8017       L1    12  1.00

> <Gold.PLP.Chemscore.Internal.Correction>
0.4623

> <Gold.Rescore>
     Score         DG    S(hbond)    S(metal)    S(lipo)     H(rot)  DE(clash)    DE(int)     intcor
     19.04     -21.05       2.05        0.00     133.54       2.70       0.21       1.80       ----

> <Gold.Chemscore.Fitness>
19.0440

> <Gold.Chemscore.DG>
-21.0544

> <Gold.Chemscore.ZeroCoef>
-5.4800

> <Gold.Chemscore.Hbond>
2.0532

> <Gold.Chemscore.Metal>
0.0000

> <Gold.Chemscore.Lipo>
133.5449

> <Gold.Chemscore.Internal_Hbond>
0.0000

> <Gold.Chemscore.DEClash>
0.2095

> <Gold.Chemscore.DEInternal>
1.8009

> <Gold.Chemscore.Rot>
2.6985

> <Gold.Chemscore.Internal.Correction>
   9.000000E+99

> <Gold.Chemscore.Hbonds>
donor molecule, donor type, donor heavy atom, donor atom, acceptor molecule, acceptor atom, score
      L1  H     9    56       P1  8028  0.38
      L1  H    12    42       P1  7957  0.24
      P1  H  7989  7998       L1    12  0.01
      P1  H  7997  8010       L1    16  0.14
      P1  H  8011  8017       L1    12  0.96

> <Gold.Chemscore.Hbond.Weighted>
-6.8578

> <Gold.Chemscore.Metal.Weighted>
-0.0000

> <Gold.Chemscore.Lipo.Weighted>
-15.6248

> <Gold.Chemscore.Internal_Hbond.Weighted>
0.0000

> <Gold.Chemscore.DEClash.Weighted>
0.2095

> <Gold.Chemscore.DEInternal.Weighted>
1.8009

> <Gold.Chemscore.Rot.Weighted>
6.9081

> <Gold.Chemscore.Internal.Correction.Weighted>
   9.000000E+99

> <Gold.Protein.RotatedTorsions>
[ 6907 6896 6895 6894 ] final   88.12 input  -60.11 | X-H torsion
[ 7974 7965 7964 7962 ] final    9.21 input  175.53 | X-H torsion
[ 8008 7997 7996 7995 ] final   64.15 input   59.86 | X-H torsion
[ 10167 10162 10161 10158 ] final  -42.16 input  -65.29 | X-H torsion
[ 10718 10713 10712 10709 ] final   86.25 input   66.30 | X-H torsion
[ 10763 10752 10751 10750 ] final  -36.92 input  -60.55 | X-H torsion
[ 11005 11000 10999 10996 ] final  131.23 input  -57.11 | X-H torsion

> <Gold.Protein.ActiveResidues>
 VAL166  LYS551  ARG553  GLY616  TRP617  ASP618  TYR619  PRO620  LYS621  CYS622 
 ASP623  PHE694  ASN695  SER759  ASP760  ASP761  ALA762  ILE779  LEU786  VAL792 
 PHE793  MET794  SER795  GLU796  ALA797  LYS798  CYS799  TRP800  GLU811  SER814 

> <Gold.Protein.RotatedAtoms>
  152.5421  134.2171  159.8772 H   0  0  0  0  0  0  0  0  0  0  0  0  # atno 6907 bound_to 6896
  151.2150  133.4527  159.2606 H   0  0  0  0  0  0  0  0  0  0  0  0  # atno 6908 bound_to 6896
  151.0860  134.9900  159.8435 H   0  0  0  0  0  0  0  0  0  0  0  0  # atno 6909 bound_to 6896
  146.2406  139.9818  142.8435 H   0  0  0  0  0  0  0  0  0  0  0  0  # atno 7974 bound_to 7965
  155.6415  140.3497  155.4716 H   0  0  0  0  0  0  0  0  0  0  0  0  # atno 8008 bound_to 7997
  155.9922  140.1196  157.0650 H   0  0  0  0  0  0  0  0  0  0  0  0  # atno 8009 bound_to 7997
  154.4222  140.1117  156.5568 H   0  0  0  0  0  0  0  0  0  0  0  0  # atno 8010 bound_to 7997
  140.6979  143.3053  151.3169 H   0  0  0  0  0  0  0  0  0  0  0  0  # atno 10167 bound_to 10162
  157.6926  131.0208  150.2944 H   0  0  0  0  0  0  0  0  0  0  0  0  # atno 10718 bound_to 10713
  153.8878  135.6815  153.4762 H   0  0  0  0  0  0  0  0  0  0  0  0  # atno 10763 bound_to 10752
  153.1198  135.4745  154.9174 H   0  0  0  0  0  0  0  0  0  0  0  0  # atno 10764 bound_to 10752
  154.7637  135.3218  154.8280 H   0  0  0  0  0  0  0  0  0  0  0  0  # atno 10765 bound_to 10752
  139.9718  134.9575  156.9408 H   0  0  0  0  0  0  0  0  0  0  0  0  # atno 11005 bound_to 11000
  145.1585  140.9660  143.4391 LP  0  0  0  0  0  0  0  0  0  0  0  0  # atno 17320 bound_to 7965
  145.0139  139.3485  143.6106 LP  0  0  0  0  0  0  0  0  0  0  0  0  # atno 17321 bound_to 7965
  139.6457  144.0456  152.2589 LP  0  0  0  0  0  0  0  0  0  0  0  0  # atno 17342 bound_to 10162
  139.9976  144.6317  150.7759 LP  0  0  0  0  0  0  0  0  0  0  0  0  # atno 17343 bound_to 10162
  156.3470  130.3824  149.7361 LP  0  0  0  0  0  0  0  0  0  0  0  0  # atno 17370 bound_to 10713
  156.4851  130.8059  151.3071 LP  0  0  0  0  0  0  0  0  0  0  0  0  # atno 17371 bound_to 10713
  140.5277  134.0844  155.7308 LP  0  0  0  0  0  0  0  0  0  0  0  0  # atno 17394 bound_to 11000
  141.1397  133.9159  157.2353 LP  0  0  0  0  0  0  0  0  0  0  0  0  # atno 17395 bound_to 11000

$$$$
