AV-unprocessed.smi:1683|AV-procd|sdf|6747|dock9
  -GOLD-   22720 7503D 1   1.00000     0.00000
 Structure written by MMmdl.
 36 37  0  0  0  0  0  0  0  0  1 V2000
  144.3775  136.3693  151.7716 O   0  0  0  0  0  0  0  0  0  0  0  0
  145.5860  136.1559  151.6703 C   0  0  0  0  0  0  0  0  0  0  0  0
  146.5247  137.0955  151.8549 N   0  0  0  0  0  0  0  0  0  0  0  0
  146.2710  138.4892  152.2074 C   0  0  0  0  0  0  0  0  0  0  0  0
  146.8609  138.8502  153.5836 C   0  0  2  0  0  0  0  0  0  0  0  0
  146.7425  140.3346  153.9329 C   0  0  0  0  0  0  0  0  0  0  0  0
  148.1223  140.7267  154.4698 C   0  0  0  0  0  0  0  0  0  0  0  0
  148.7526  139.4581  154.8162 N   0  0  0  0  0  0  0  0  0  0  0  0
  150.2078  139.5403  154.9269 C   0  0  0  0  0  0  0  0  0  0  0  0
  150.6779  140.3632  156.1426 C   0  0  0  0  0  0  0  0  0  0  0  0
  151.9533  140.0664  156.3889 F   0  0  0  0  0  0  0  0  0  0  0  0
  150.5941  141.6730  155.9103 F   0  0  0  0  0  0  0  0  0  0  0  0
  149.9563  140.0583  157.2216 F   0  0  0  0  0  0  0  0  0  0  0  0
  148.3591  138.5727  153.7300 C   0  0  0  0  0  0  0  0  0  0  0  0
  146.1367  134.9709  151.3596 N   0  0  0  0  0  0  0  0  0  0  0  0
  145.4647  133.7451  151.1210 C   0  0  0  0  0  0  0  0  0  0  0  0
  146.0726  132.4621  151.1908 C   0  0  0  0  0  0  0  0  0  0  0  0
  145.2019  131.4989  150.9248 N   0  0  0  0  0  0  0  0  0  0  0  0
  144.0437  132.1548  150.6864 N   0  0  0  0  0  0  0  0  0  0  0  0
  144.1560  133.5235  150.7950 C   0  0  0  0  0  0  0  0  0  0  0  0
  143.1941  131.6599  150.4547 H   0  0  0  0  0  0  0  0  0  0  0  0
  147.4916  136.8260  151.7460 H   0  0  0  0  0  0  0  0  0  0  0  0
  146.6526  139.1636  151.4387 H   0  0  0  0  0  0  0  0  0  0  0  0
  145.1904  138.6327  152.2267 H   0  0  0  0  0  0  0  0  0  0  0  0
  146.3349  138.2809  154.3524 H   0  0  0  0  0  0  0  0  0  0  0  0
  146.4832  140.9482  153.0695 H   0  0  0  0  0  0  0  0  0  0  0  0
  145.9701  140.4866  154.6878 H   0  0  0  0  0  0  0  0  0  0  0  0
  148.6940  141.2269  153.6860 H   0  0  0  0  0  0  0  0  0  0  0  0
  148.0534  141.3980  155.3259 H   0  0  0  0  0  0  0  0  0  0  0  0
  150.5901  138.5245  155.0364 H   0  0  0  0  0  0  0  0  0  0  0  0
  150.6391  139.9370  154.0066 H   0  0  0  0  0  0  0  0  0  0  0  0
  148.5709  137.5277  153.9594 H   0  0  0  0  0  0  0  0  0  0  0  0
  148.8902  138.8400  152.8145 H   0  0  0  0  0  0  0  0  0  0  0  0
  147.1437  134.9394  151.2947 H   0  0  0  0  0  0  0  0  0  0  0  0
  147.0953  132.2027  151.4216 H   0  0  0  0  0  0  0  0  0  0  0  0
  143.3188  134.1871  150.6360 H   0  0  0  0  0  0  0  0  0  0  0  0
  1  2  2  0  0  0  0
  2  3  1  0  0  0  0
  2 15  1  0  0  0  0
  3  4  1  0  0  0  0
  3 22  1  0  0  0  0
  4  5  1  0  0  0  0
  4 23  1  0  0  0  0
  4 24  1  0  0  0  0
  5 14  1  0  0  0  0
  5  6  1  0  0  0  0
  5 25  1  0  0  0  0
  6  7  1  0  0  0  0
  6 26  1  0  0  0  0
  6 27  1  0  0  0  0
  7  8  1  0  0  0  0
  7 28  1  0  0  0  0
  7 29  1  0  0  0  0
  8  9  1  0  0  0  0
  8 14  1  0  0  0  0
  9 10  1  0  0  0  0
  9 30  1  0  0  0  0
  9 31  1  0  0  0  0
 10 11  1  0  0  0  0
 10 12  1  0  0  0  0
 10 13  1  0  0  0  0
 14 32  1  0  0  0  0
 14 33  1  0  0  0  0
 15 16  1  0  0  0  0
 15 34  1  0  0  0  0
 16 20  2  0  0  0  0
 16 17  1  0  0  0  0
 17 18  2  0  0  0  0
 17 35  1  0  0  0  0
 18 19  1  0  0  0  0
 19 21  1  0  0  0  0
 19 20  1  0  0  0  0
 20 36  1  0  0  0  0
M  END
> <s_m_source_file>
AV-unprocessed.smi

> <i_m_source_file_index>
1683

> <i_lp_mmshare_version>
43012

> <i_f3d_flags>
0

> <s_epik_input>
W2NIXTFbbkhdbltjSF1jMVtOSF1DKD1PKVtOSF1bQ0gyXVtDQEBIXTJbQ0gyXVtDSDJdTihbQ0gyXTIpW0NIMl1DKEYpKEYpRg==

> <s_epik_cmdline>
J2VwaWtfcHl0aG9uJywgJy1waCcsICc3LjAnLCAnLXRuJywgJzgnLCAnLW1hJywgJzIwMCcsICctbWV0YWxfYmluZGluZycsICctaW1hZScsICc8aW5maWxlLm1hZT4nLCAnLW9tYWUnLCAnPG91dGZpbGUubWFlPic=

> <r_lp_tautomer_probability>
0.5

> <r_epik_Ionization_Penalty>
0.244885

> <r_epik_Ionization_Penalty_Charging>
0

> <r_epik_Ionization_Penalty_Neutral>
0.244885

> <r_epik_State_Penalty>
0.235951

> <r_epik_Charging_Adjusted_Penalty>
0.235951

> <i_epik_Tot_Q>
0

> <i_epik_Tot_abs_Q>
0

> <r_epik_Metal_State_Penalty>
0.23595

> <b_epik_Metal_Only>
0

> <s_lp_Force_Field>
OPLS_2005

> <r_lp_Energy>
32.4259

> <b_lp_Chiralities_Consistent>
1

> <s_lp_Variant>
AV-unprocessed.smi:1683-1

> <Gold.Version>
5.8.1

> <Gold.Id.Protein>
6NUR|6NUR_protein|mol2

> <Gold.PLP.Fitness>
39.7832

> <Gold.PLP.PLP>
-29.9779

> <Gold.PLP.part.hbond>
-1.8261

> <Gold.PLP.part.metal>
0.0000

> <Gold.PLP.part.buried>
-4.7334

> <Gold.PLP.part.nonpolar>
-26.8667

> <Gold.PLP.part.repulsive>
1.7097

> <Gold.PLP.ligand.clash>
0.0000

> <Gold.PLP.ligand.torsion>
0.3623

> <Gold.PLP.Chemscore.Hbond>
1.3695

> <Gold.PLP.Chemscore.CHOScore>
2.0000

> <Gold.PLP.Chemscore.Metal>
0.0000

> <Gold.Chemscore.Hbonds>
donor molecule, donor type, donor heavy atom, donor atom, acceptor molecule, acceptor atom, score
      L1  H     3    22       P1  7948  1.00
      L1  H    15    34       P1  7948  0.39
      L1  C    17    35       P1 10747  0.87
      L1  C    20    36       P1 10186  0.93

> <Gold.PLP.Chemscore.Internal.Correction>
0.4216

> <Gold.Rescore>
     Score         DG    S(hbond)    S(metal)    S(lipo)     H(rot)  DE(clash)    DE(int)     intcor
     12.65     -13.84       1.90        0.00      56.29       1.78       0.07       1.13       ----

> <Gold.Chemscore.Fitness>
12.6501

> <Gold.Chemscore.DG>
-13.8422

> <Gold.Chemscore.ZeroCoef>
-5.4800

> <Gold.Chemscore.Hbond>
1.8954

> <Gold.Chemscore.Metal>
0.0000

> <Gold.Chemscore.Lipo>
56.2947

> <Gold.Chemscore.Internal_Hbond>
0.0000

> <Gold.Chemscore.DEClash>
0.0657

> <Gold.Chemscore.DEInternal>
1.1264

> <Gold.Chemscore.Rot>
1.7793

> <Gold.Chemscore.Internal.Correction>
   9.000000E+99

> <Gold.Chemscore.Hbonds>
donor molecule, donor type, donor heavy atom, donor atom, acceptor molecule, acceptor atom, score
      L1  H     3    22       P1  7948  0.95
      L1  H    15    34       P1  7948  0.25

> <Gold.Chemscore.Hbond.Weighted>
-6.3308

> <Gold.Chemscore.Metal.Weighted>
-0.0000

> <Gold.Chemscore.Lipo.Weighted>
-6.5865

> <Gold.Chemscore.Internal_Hbond.Weighted>
0.0000

> <Gold.Chemscore.DEClash.Weighted>
0.0657

> <Gold.Chemscore.DEInternal.Weighted>
1.1264

> <Gold.Chemscore.Rot.Weighted>
4.5551

> <Gold.Chemscore.Internal.Correction.Weighted>
   9.000000E+99

> <Gold.Protein.RotatedTorsions>
[ 6907 6896 6895 6894 ] final   22.91 input  -60.11 | X-H torsion
[ 7974 7965 7964 7962 ] final  159.31 input  175.53 | X-H torsion
[ 8008 7997 7996 7995 ] final  -59.59 input   59.86 | X-H torsion
[ 10167 10162 10161 10158 ] final -167.37 input  -65.29 | X-H torsion
[ 10718 10713 10712 10709 ] final   39.47 input   66.30 | X-H torsion
[ 10763 10752 10751 10750 ] final  -71.61 input  -60.55 | X-H torsion
[ 11005 11000 10999 10996 ] final  163.25 input  -57.11 | X-H torsion

> <Gold.Protein.ActiveResidues>
 VAL166  LYS551  ARG553  GLY616  TRP617  ASP618  TYR619  PRO620  LYS621  CYS622 
 ASP623  PHE694  ASN695  SER759  ASP760  ASP761  ALA762  ILE779  LEU786  VAL792 
 PHE793  MET794  SER795  GLU796  ALA797  LYS798  CYS799  TRP800  GLU811  SER814 

> <Gold.Protein.RotatedAtoms>
  151.9343  135.0242  160.0531 H   0  0  0  0  0  0  0  0  0  0  0  0  # atno 6907 bound_to 6896
  152.2092  133.4893  159.5109 H   0  0  0  0  0  0  0  0  0  0  0  0  # atno 6908 bound_to 6896
  150.6972  134.1407  159.4146 H   0  0  0  0  0  0  0  0  0  0  0  0  # atno 6909 bound_to 6896
  144.7797  139.7600  143.6264 H   0  0  0  0  0  0  0  0  0  0  0  0  # atno 7974 bound_to 7965
  154.4359  140.1058  156.6140 H   0  0  0  0  0  0  0  0  0  0  0  0  # atno 8008 bound_to 7997
  155.5779  140.3490  155.4513 H   0  0  0  0  0  0  0  0  0  0  0  0  # atno 8009 bound_to 7997
  156.0341  140.1267  157.0216 H   0  0  0  0  0  0  0  0  0  0  0  0  # atno 8010 bound_to 7997
  139.6053  144.0925  152.1787 H   0  0  0  0  0  0  0  0  0  0  0  0  # atno 10167 bound_to 10162
  157.3710  130.7701  149.7119 H   0  0  0  0  0  0  0  0  0  0  0  0  # atno 10718 bound_to 10713
  154.4342  135.5956  153.6088 H   0  0  0  0  0  0  0  0  0  0  0  0  # atno 10763 bound_to 10752
  152.9801  135.5982  154.3801 H   0  0  0  0  0  0  0  0  0  0  0  0  # atno 10764 bound_to 10752
  154.3643  135.2841  155.2281 H   0  0  0  0  0  0  0  0  0  0  0  0  # atno 10765 bound_to 10752
  140.2339  134.8103  157.3344 H   0  0  0  0  0  0  0  0  0  0  0  0  # atno 11005 bound_to 11000
  146.1998  139.5286  142.9751 LP  0  0  0  0  0  0  0  0  0  0  0  0  # atno 17320 bound_to 7965
  145.6085  141.0343  143.1979 LP  0  0  0  0  0  0  0  0  0  0  0  0  # atno 17321 bound_to 7965
  140.0531  144.5917  150.7321 LP  0  0  0  0  0  0  0  0  0  0  0  0  # atno 17342 bound_to 10162
  140.7280  143.2658  151.4051 LP  0  0  0  0  0  0  0  0  0  0  0  0  # atno 17343 bound_to 10162
  155.9755  130.4087  150.3842 LP  0  0  0  0  0  0  0  0  0  0  0  0  # atno 17370 bound_to 10713
  157.1932  131.0420  151.2689 LP  0  0  0  0  0  0  0  0  0  0  0  0  # atno 17371 bound_to 10713
  140.1722  134.4594  155.7824 LP  0  0  0  0  0  0  0  0  0  0  0  0  # atno 17394 bound_to 11000
  141.2216  133.6946  156.7726 LP  0  0  0  0  0  0  0  0  0  0  0  0  # atno 17395 bound_to 11000

$$$$
