AV-unprocessed.smi:3046|AV-procd|sdf|11617|dock5
  -GOLD-   2272017 03D 1   1.00000     0.00000
 Structure written by MMmdl.
 37 37  0  0  0  0  0  0  0  0  1 V2000
  153.0338  138.8526  154.6798 C   0  0  0  0  0  0  0  0  0  0  0  0
  151.7052  139.0305  154.7295 C   0  0  0  0  0  0  0  0  0  0  0  0
  150.6926  138.0999  154.0975 C   0  0  0  0  0  0  0  0  0  0  0  0
  149.5835  138.8588  153.5415 N   0  0  0  0  0  0  0  0  0  0  0  0
  148.4760  139.1982  154.2165 C   0  0  0  0  0  0  0  0  0  0  0  0
  148.2865  138.8930  155.3946 O   0  0  0  0  0  0  0  0  0  0  0  0
  147.4200  139.9798  153.4252 C   0  0  2  0  0  0  0  0  0  0  0  0
  147.1800  141.3806  154.0230 C   0  0  0  0  0  0  0  0  0  0  0  0
  146.1689  139.2075  153.3721 N   0  0  0  0  0  0  0  0  0  0  0  0
  146.2457  138.0271  152.5141 C   0  0  2  0  0  0  0  0  0  0  0  0
  146.5021  138.5106  151.0802 C   0  0  0  0  0  0  0  0  0  0  0  0
  144.9304  137.2233  152.6083 C   0  0  0  0  0  0  0  0  0  0  0  0
  145.0005  135.9315  151.9474 N   0  0  0  0  0  0  0  0  0  0  0  0
  144.3386  135.5149  150.8115 C   0  0  0  0  0  0  0  0  0  0  0  0
  144.7084  134.2217  150.5767 C   0  0  0  0  0  0  0  0  0  0  0  0
  145.6209  133.9350  151.6302 C   0  0  0  0  0  0  0  0  0  0  0  0
  145.7971  134.9615  152.4465 N   0  0  0  0  0  0  0  0  0  0  0  0
  153.4676  138.0043  154.1707 H   0  0  0  0  0  0  0  0  0  0  0  0
  153.7058  139.5559  155.1490 H   0  0  0  0  0  0  0  0  0  0  0  0
  151.3081  139.8936  155.2445 H   0  0  0  0  0  0  0  0  0  0  0  0
  151.1830  137.5350  153.3035 H   0  0  0  0  0  0  0  0  0  0  0  0
  150.3246  137.3835  154.8341 H   0  0  0  0  0  0  0  0  0  0  0  0
  149.6579  139.1441  152.5757 H   0  0  0  0  0  0  0  0  0  0  0  0
  147.8156  140.1008  152.4156 H   0  0  0  0  0  0  0  0  0  0  0  0
  148.1142  141.9364  154.1121 H   0  0  0  0  0  0  0  0  0  0  0  0
  146.7307  141.3238  155.0153 H   0  0  0  0  0  0  0  0  0  0  0  0
  146.5139  141.9738  153.3965 H   0  0  0  0  0  0  0  0  0  0  0  0
  145.3933  139.7887  153.0874 H   0  0  0  0  0  0  0  0  0  0  0  0
  147.0814  137.3854  152.7976 H   0  0  0  0  0  0  0  0  0  0  0  0
  146.5739  137.6684  150.3916 H   0  0  0  0  0  0  0  0  0  0  0  0
  147.4377  139.0673  151.0140 H   0  0  0  0  0  0  0  0  0  0  0  0
  145.7004  139.1599  150.7260 H   0  0  0  0  0  0  0  0  0  0  0  0
  144.6533  137.0654  153.6518 H   0  0  0  0  0  0  0  0  0  0  0  0
  144.1143  137.7882  152.1552 H   0  0  0  0  0  0  0  0  0  0  0  0
  143.6585  136.1625  150.2776 H   0  0  0  0  0  0  0  0  0  0  0  0
  144.3771  133.5787  149.7749 H   0  0  0  0  0  0  0  0  0  0  0  0
  146.1566  133.0177  151.8255 H   0  0  0  0  0  0  0  0  0  0  0  0
  1  2  2  0  0  0  0
  1 18  1  0  0  0  0
  1 19  1  0  0  0  0
  2  3  1  0  0  0  0
  2 20  1  0  0  0  0
  3  4  1  0  0  0  0
  3 21  1  0  0  0  0
  3 22  1  0  0  0  0
  4  5  1  0  0  0  0
  4 23  1  0  0  0  0
  5  6  2  0  0  0  0
  5  7  1  0  0  0  0
  7  8  1  0  0  0  0
  7  9  1  0  0  0  0
  7 24  1  0  0  0  0
  8 25  1  0  0  0  0
  8 26  1  0  0  0  0
  8 27  1  0  0  0  0
  9 10  1  0  0  0  0
  9 28  1  0  0  0  0
 10 11  1  0  0  0  0
 10 12  1  0  0  0  0
 10 29  1  0  0  0  0
 11 30  1  0  0  0  0
 11 31  1  0  0  0  0
 11 32  1  0  0  0  0
 12 13  1  0  0  0  0
 12 33  1  0  0  0  0
 12 34  1  0  0  0  0
 13 17  1  0  0  0  0
 13 14  1  0  0  0  0
 14 15  2  0  0  0  0
 14 35  1  0  0  0  0
 15 16  1  0  0  0  0
 15 36  1  0  0  0  0
 16 17  2  0  0  0  0
 16 37  1  0  0  0  0
M  END
> <s_m_source_file>
AV-unprocessed.smi

> <i_m_source_file_index>
3046

> <i_lp_mmshare_version>
43012

> <i_f3d_flags>
0

> <s_epik_input>
W0NIMl09W0NIXVtDSDJdW05IXUMoPU8pW0NASF0oW0NIM10pW05IXVtDQEhdKFtDSDNdKVtDSDJdbjFbY0hdW2NIXVtjSF1uMQ==

> <s_epik_cmdline>
J2VwaWtfcHl0aG9uJywgJy1waCcsICc3LjAnLCAnLXRuJywgJzgnLCAnLW1hJywgJzIwMCcsICctbWV0YWxfYmluZGluZycsICctaW1hZScsICc8aW5maWxlLm1hZT4nLCAnLW9tYWUnLCAnPG91dGZpbGUubWFlPic=

> <r_lp_tautomer_probability>
1

> <r_epik_Ionization_Penalty>
0.950627

> <r_epik_Ionization_Penalty_Charging>
0

> <r_epik_Ionization_Penalty_Neutral>
0.950627

> <r_epik_State_Penalty>
0.994814

> <r_epik_Charging_Adjusted_Penalty>
0.994814

> <i_epik_Tot_Q>
0

> <i_epik_Tot_abs_Q>
0

> <r_epik_Metal_State_Penalty>
0.994788

> <b_epik_Metal_Only>
0

> <s_lp_Force_Field>
OPLS_2005

> <r_lp_Energy>
5.49444

> <b_lp_Chiralities_Consistent>
1

> <s_lp_Variant>
AV-unprocessed.smi:3046-5

> <Gold.Version>
5.8.1

> <Gold.Id.Protein>
6NUR|6NUR_protein|mol2

> <Gold.PLP.Fitness>
42.0143

> <Gold.PLP.PLP>
-33.9686

> <Gold.PLP.part.hbond>
-2.6561

> <Gold.PLP.part.metal>
0.0000

> <Gold.PLP.part.buried>
0.9857

> <Gold.PLP.part.nonpolar>
-32.5612

> <Gold.PLP.part.repulsive>
0.2342

> <Gold.PLP.ligand.clash>
0.0000

> <Gold.PLP.ligand.torsion>
0.5492

> <Gold.PLP.Chemscore.Hbond>
2.0000

> <Gold.PLP.Chemscore.CHOScore>
0.9962

> <Gold.PLP.Chemscore.Metal>
0.0000

> <Gold.Chemscore.Hbonds>
donor molecule, donor type, donor heavy atom, donor atom, acceptor molecule, acceptor atom, score
      L1  H     4    23       P1  7957  1.00
      L1  H     9    28       P1 10175  1.00
      L1  C    14    35       P1 10171  1.00

> <Gold.PLP.Chemscore.Internal.Correction>
0.1555

> <Gold.Rescore>
     Score         DG    S(hbond)    S(metal)    S(lipo)     H(rot)  DE(clash)    DE(int)     intcor
     14.52     -15.94       1.97        0.00      80.70       2.17       0.77       0.66       ----

> <Gold.Chemscore.Fitness>
14.5156

> <Gold.Chemscore.DG>
-15.9434

> <Gold.Chemscore.ZeroCoef>
-5.4800

> <Gold.Chemscore.Hbond>
1.9722

> <Gold.Chemscore.Metal>
0.0000

> <Gold.Chemscore.Lipo>
80.6972

> <Gold.Chemscore.Internal_Hbond>
0.0000

> <Gold.Chemscore.DEClash>
0.7691

> <Gold.Chemscore.DEInternal>
0.6588

> <Gold.Chemscore.Rot>
2.1739

> <Gold.Chemscore.Internal.Correction>
   9.000000E+99

> <Gold.Chemscore.Hbonds>
donor molecule, donor type, donor heavy atom, donor atom, acceptor molecule, acceptor atom, score
      L1  H     4    23       P1  7957  0.94
      L1  H     9    28       P1 10175  0.99

> <Gold.Chemscore.Hbond.Weighted>
-6.5870

> <Gold.Chemscore.Metal.Weighted>
-0.0000

> <Gold.Chemscore.Lipo.Weighted>
-9.4416

> <Gold.Chemscore.Internal_Hbond.Weighted>
0.0000

> <Gold.Chemscore.DEClash.Weighted>
0.7691

> <Gold.Chemscore.DEInternal.Weighted>
0.6588

> <Gold.Chemscore.Rot.Weighted>
5.5652

> <Gold.Chemscore.Internal.Correction.Weighted>
   9.000000E+99

> <Gold.Protein.RotatedTorsions>
[ 6907 6896 6895 6894 ] final  -83.02 input  -60.11 | X-H torsion
[ 7974 7965 7964 7962 ] final -116.15 input  175.53 | X-H torsion
[ 8008 7997 7996 7995 ] final  130.48 input   59.86 | X-H torsion
[ 10167 10162 10161 10158 ] final -158.03 input  -65.29 | X-H torsion
[ 10718 10713 10712 10709 ] final -171.10 input   66.30 | X-H torsion
[ 10763 10752 10751 10750 ] final  -38.27 input  -60.55 | X-H torsion
[ 11005 11000 10999 10996 ] final  152.61 input  -57.11 | X-H torsion

> <Gold.Protein.ActiveResidues>
 VAL166  LYS551  ARG553  GLY616  TRP617  ASP618  TYR619  PRO620  LYS621  CYS622 
 ASP623  PHE694  ASN695  SER759  ASP760  ASP761  ALA762  ILE779  LEU786  VAL792 
 PHE793  MET794  SER795  GLU796  ALA797  LYS798  CYS799  TRP800  GLU811  SER814 

> <Gold.Protein.RotatedAtoms>
  150.6890  134.3576  159.4935 H   0  0  0  0  0  0  0  0  0  0  0  0  # atno 6907 bound_to 6896
  152.1409  134.9061  160.0563 H   0  0  0  0  0  0  0  0  0  0  0  0  # atno 6908 bound_to 6896
  152.0195  133.3858  159.4289 H   0  0  0  0  0  0  0  0  0  0  0  0  # atno 6909 bound_to 6896
  145.1001  140.8546  143.3931 H   0  0  0  0  0  0  0  0  0  0  0  0  # atno 7974 bound_to 7965
  156.2955  140.2595  156.2769 H   0  0  0  0  0  0  0  0  0  0  0  0  # atno 8008 bound_to 7997
  154.9640  140.0392  157.2222 H   0  0  0  0  0  0  0  0  0  0  0  0  # atno 8009 bound_to 7997
  154.7920  140.2813  155.5989 H   0  0  0  0  0  0  0  0  0  0  0  0  # atno 8010 bound_to 7997
  139.6724  143.9722  152.2291 H   0  0  0  0  0  0  0  0  0  0  0  0  # atno 10167 bound_to 10162
  156.7358  130.9324  151.3107 H   0  0  0  0  0  0  0  0  0  0  0  0  # atno 10718 bound_to 10713
  153.9101  135.6793  153.4751 H   0  0  0  0  0  0  0  0  0  0  0  0  # atno 10763 bound_to 10752
  153.1083  135.4795  154.8988 H   0  0  0  0  0  0  0  0  0  0  0  0  # atno 10764 bound_to 10752
  154.7531  135.3190  154.8475 H   0  0  0  0  0  0  0  0  0  0  0  0  # atno 10765 bound_to 10752
  140.1323  134.8794  157.2220 H   0  0  0  0  0  0  0  0  0  0  0  0  # atno 11005 bound_to 11000
  145.0965  139.2852  143.5708 LP  0  0  0  0  0  0  0  0  0  0  0  0  # atno 17320 bound_to 7965
  146.3530  140.0519  142.8635 LP  0  0  0  0  0  0  0  0  0  0  0  0  # atno 17321 bound_to 7965
  139.9490  144.6633  150.8191 LP  0  0  0  0  0  0  0  0  0  0  0  0  # atno 17342 bound_to 10162
  140.7623  143.3195  151.2656 LP  0  0  0  0  0  0  0  0  0  0  0  0  # atno 17343 bound_to 10162
  157.6839  130.9167  150.0337 LP  0  0  0  0  0  0  0  0  0  0  0  0  # atno 17370 bound_to 10713
  156.1498  130.3642  149.9456 LP  0  0  0  0  0  0  0  0  0  0  0  0  # atno 17371 bound_to 10713
  140.2827  134.3332  155.7338 LP  0  0  0  0  0  0  0  0  0  0  0  0  # atno 17394 bound_to 11000
  141.2172  133.7487  156.9387 LP  0  0  0  0  0  0  0  0  0  0  0  0  # atno 17395 bound_to 11000

$$$$
