AV-unprocessed.smi:2473|AV-procd|sdf|9744|dock1
  -GOLD-   2272013383D 1   1.00000     0.00000
 Structure written by MMmdl.
 48 49  0  0  0  0  0  0  0  0  2 V2000
  153.6040  142.0056  162.0142 C   0  0  0  0  0  0  0  0  0  0  0  0
  153.2375  142.3092  160.5544 C   0  0  1  0  0  0  0  0  0  0  0  0
  152.8704  141.0236  159.7938 C   0  0  0  0  0  0  0  0  0  0  0  0
  152.5069  141.3187  158.3260 C   0  0  1  0  0  0  0  0  0  0  0  0
  152.1443  140.0191  157.5957 C   0  0  0  0  0  0  0  0  0  0  0  0
  153.0247  139.2354  157.2396 O   0  0  0  0  0  0  0  0  0  0  0  0
  150.8405  139.8137  157.3562 N   0  0  0  0  0  0  0  0  0  0  0  0
  150.2908  138.6822  156.6159 C   0  0  0  0  0  0  0  0  0  0  0  0
  150.5274  138.7880  155.0954 C   0  0  0  0  0  0  0  0  0  0  0  0
  149.3764  139.3851  154.3378 C   0  0  0  0  0  0  0  0  0  0  0  0
  148.6016  138.7239  153.4696 N   0  3  0  0  0  0  0  0  0  0  0  0
  147.6376  139.5510  152.9620 C   0  0  0  0  0  0  0  0  0  0  0  0
  147.8332  140.7755  153.5442 C   0  0  0  0  0  0  0  0  0  0  0  0
  148.9107  140.6458  154.3825 N   0  0  0  0  0  0  0  0  0  0  0  0
  149.4935  141.7032  155.2113 C   0  0  0  0  0  0  0  0  0  0  0  0
  151.3541  142.3458  158.2540 C   0  0  0  0  0  0  0  0  0  0  0  0
  151.6523  143.6620  159.0144 C   0  0  0  0  0  0  0  0  0  0  0  0
  152.7328  144.4909  158.2859 C   0  0  0  0  0  0  0  0  0  0  0  0
  150.3653  144.5091  159.0620 C   0  0  0  0  0  0  0  0  0  0  0  0
  152.0874  143.3339  160.4653 C   0  0  0  0  0  0  0  0  0  0  0  0
  152.7641  141.5640  162.5514 H   0  0  0  0  0  0  0  0  0  0  0  0
  153.8963  142.9135  162.5423 H   0  0  0  0  0  0  0  0  0  0  0  0
  154.4401  141.3081  162.0725 H   0  0  0  0  0  0  0  0  0  0  0  0
  154.1235  142.7388  160.0869 H   0  0  0  0  0  0  0  0  0  0  0  0
  153.7078  140.3252  159.8340 H   0  0  0  0  0  0  0  0  0  0  0  0
  152.0344  140.5314  160.2942 H   0  0  0  0  0  0  0  0  0  0  0  0
  153.3829  141.7426  157.8339 H   0  0  0  0  0  0  0  0  0  0  0  0
  150.1840  140.5031  157.6932 H   0  0  0  0  0  0  0  0  0  0  0  0
  150.6958  137.7450  157.0008 H   0  0  0  0  0  0  0  0  0  0  0  0
  149.2190  138.6585  156.8144 H   0  0  0  0  0  0  0  0  0  0  0  0
  151.4156  139.3838  154.8881 H   0  0  0  0  0  0  0  0  0  0  0  0
  150.7062  137.8007  154.6689 H   0  0  0  0  0  0  0  0  0  0  0  0
  146.9046  139.2154  152.2429 H   0  0  0  0  0  0  0  0  0  0  0  0
  147.2998  141.7076  153.4243 H   0  0  0  0  0  0  0  0  0  0  0  0
  148.8954  142.6102  155.1210 H   0  0  0  0  0  0  0  0  0  0  0  0
  150.5101  141.9059  154.8736 H   0  0  0  0  0  0  0  0  0  0  0  0
  149.5062  141.3870  156.2535 H   0  0  0  0  0  0  0  0  0  0  0  0
  151.1197  142.5667  157.2115 H   0  0  0  0  0  0  0  0  0  0  0  0
  150.4518  141.8966  158.6729 H   0  0  0  0  0  0  0  0  0  0  0  0
  152.9234  145.4311  158.8044 H   0  0  0  0  0  0  0  0  0  0  0  0
  152.4209  144.7376  157.2703 H   0  0  0  0  0  0  0  0  0  0  0  0
  153.6856  143.9689  158.2108 H   0  0  0  0  0  0  0  0  0  0  0  0
  150.5266  145.4484  159.5923 H   0  0  0  0  0  0  0  0  0  0  0  0
  149.5573  143.9822  159.5707 H   0  0  0  0  0  0  0  0  0  0  0  0
  150.0139  144.7545  158.0593 H   0  0  0  0  0  0  0  0  0  0  0  0
  151.2312  142.9381  161.0140 H   0  0  0  0  0  0  0  0  0  0  0  0
  152.3722  144.2518  160.9815 H   0  0  0  0  0  0  0  0  0  0  0  0
  148.7150  137.7481  153.2253 H   0  0  0  0  0  0  0  0  0  0  0  0
  1  2  1  0  0  0  0
  1 21  1  0  0  0  0
  1 22  1  0  0  0  0
  1 23  1  0  0  0  0
  2 20  1  0  0  0  0
  2  3  1  0  0  0  0
  2 24  1  0  0  0  0
  3  4  1  0  0  0  0
  3 25  1  0  0  0  0
  3 26  1  0  0  0  0
  4  5  1  0  0  0  0
  4 16  1  0  0  0  0
  4 27  1  0  0  0  0
  5  6  2  0  0  0  0
  5  7  1  0  0  0  0
  7  8  1  0  0  0  0
  7 28  1  0  0  0  0
  8  9  1  0  0  0  0
  8 29  1  0  0  0  0
  8 30  1  0  0  0  0
  9 10  1  0  0  0  0
  9 31  1  0  0  0  0
  9 32  1  0  0  0  0
 10 14  1  0  0  0  0
 10 11  2  0  0  0  0
 11 12  1  0  0  0  0
 11 48  1  0  0  0  0
 12 13  2  0  0  0  0
 12 33  1  0  0  0  0
 13 14  1  0  0  0  0
 13 34  1  0  0  0  0
 14 15  1  0  0  0  0
 15 35  1  0  0  0  0
 15 36  1  0  0  0  0
 15 37  1  0  0  0  0
 16 17  1  0  0  0  0
 16 38  1  0  0  0  0
 16 39  1  0  0  0  0
 17 18  1  0  0  0  0
 17 19  1  0  0  0  0
 17 20  1  0  0  0  0
 18 40  1  0  0  0  0
 18 41  1  0  0  0  0
 18 42  1  0  0  0  0
 19 43  1  0  0  0  0
 19 44  1  0  0  0  0
 19 45  1  0  0  0  0
 20 46  1  0  0  0  0
 20 47  1  0  0  0  0
M  CHG  1  11   1
M  END
> <s_m_source_file>
AV-unprocessed.smi

> <i_m_source_file_index>
2473

> <i_lp_mmshare_version>
43012

> <i_f3d_flags>
0

> <s_epik_input>
W0NIM11bQ0BASF0oW0NIMl0xKVtDSDJdW0NASF0oW0NIMl1DMShbQ0gzXSlbQ0gzXSlDKD1PKVtOSF1bQ0gyXVtDSDJdYzJuW2NIXVtjSF1uMltDSDNd

> <s_epik_cmdline>
J2VwaWtfcHl0aG9uJywgJy1waCcsICc3LjAnLCAnLXRuJywgJzgnLCAnLW1hJywgJzIwMCcsICctbWV0YWxfYmluZGluZycsICctaW1hZScsICc8aW5maWxlLm1hZT4nLCAnLW9tYWUnLCAnPG91dGZpbGUubWFlPic=

> <r_lp_tautomer_probability>
1

> <r_epik_Ionization_Penalty>
0.0796112

> <r_epik_Ionization_Penalty_Charging>
0

> <r_epik_Ionization_Penalty_Neutral>
0.0796112

> <r_epik_State_Penalty>
0.0704541

> <r_epik_Charging_Adjusted_Penalty>
0.0704541

> <i_epik_Tot_Q>
1

> <i_epik_Tot_abs_Q>
1

> <r_epik_Metal_State_Penalty>
0.409899

> <b_epik_Metal_Only>
0

> <s_lp_Force_Field>
OPLS_2005

> <r_lp_Energy>
16.0975

> <b_lp_Chiralities_Consistent>
1

> <s_lp_Variant>
AV-unprocessed.smi:2473-2

> <Gold.Version>
5.8.1

> <Gold.Id.Protein>
6NUR|6NUR_protein|mol2

> <Gold.PLP.Fitness>
51.7646

> <Gold.PLP.PLP>
-44.9510

> <Gold.PLP.part.hbond>
-3.0000

> <Gold.PLP.part.metal>
0.0000

> <Gold.PLP.part.buried>
-0.3380

> <Gold.PLP.part.nonpolar>
-41.3921

> <Gold.PLP.part.repulsive>
0.0773

> <Gold.PLP.ligand.clash>
0.5366

> <Gold.PLP.ligand.torsion>
0.8399

> <Gold.PLP.Chemscore.Hbond>
3.0000

> <Gold.PLP.Chemscore.CHOScore>
0.0000

> <Gold.PLP.Chemscore.Metal>
0.0000

> <Gold.Chemscore.Hbonds>
donor molecule, donor type, donor heavy atom, donor atom, acceptor molecule, acceptor atom, score
      L1  H    11    48       P1  7948  1.98
      P1  H  7997  8009       L1     6  1.00

> <Gold.PLP.Chemscore.Internal.Correction>
0.0299

> <Gold.Rescore>
     Score         DG    S(hbond)    S(metal)    S(lipo)     H(rot)  DE(clash)    DE(int)     intcor
     20.94     -22.07       1.85        0.00     123.41       1.58       0.24       0.88       ----

> <Gold.Chemscore.Fitness>
20.9449

> <Gold.Chemscore.DG>
-22.0651

> <Gold.Chemscore.ZeroCoef>
-5.4800

> <Gold.Chemscore.Hbond>
1.8549

> <Gold.Chemscore.Metal>
0.0000

> <Gold.Chemscore.Lipo>
123.4126

> <Gold.Chemscore.Internal_Hbond>
0.0000

> <Gold.Chemscore.DEClash>
0.2449

> <Gold.Chemscore.DEInternal>
0.8753

> <Gold.Chemscore.Rot>
1.5818

> <Gold.Chemscore.Internal.Correction>
   9.000000E+99

> <Gold.Chemscore.Hbonds>
donor molecule, donor type, donor heavy atom, donor atom, acceptor molecule, acceptor atom, score
      L1  H    11    48       P1  7948  0.88
      P1  H  7997  8009       L1     6  0.78

> <Gold.Chemscore.Hbond.Weighted>
-6.1953

> <Gold.Chemscore.Metal.Weighted>
-0.0000

> <Gold.Chemscore.Lipo.Weighted>
-14.4393

> <Gold.Chemscore.Internal_Hbond.Weighted>
0.0000

> <Gold.Chemscore.DEClash.Weighted>
0.2449

> <Gold.Chemscore.DEInternal.Weighted>
0.8753

> <Gold.Chemscore.Rot.Weighted>
4.0495

> <Gold.Chemscore.Internal.Correction.Weighted>
   9.000000E+99

> <Gold.Protein.RotatedTorsions>
[ 6907 6896 6895 6894 ] final   21.26 input  -60.11 | X-H torsion
[ 7974 7965 7964 7962 ] final  -93.23 input  175.53 | X-H torsion
[ 8008 7997 7996 7995 ] final  175.30 input   59.86 | X-H torsion
[ 10167 10162 10161 10158 ] final -127.24 input  -65.29 | X-H torsion
[ 10718 10713 10712 10709 ] final -166.18 input   66.30 | X-H torsion
[ 10763 10752 10751 10750 ] final   21.73 input  -60.55 | X-H torsion
[ 11005 11000 10999 10996 ] final  106.94 input  -57.11 | X-H torsion

> <Gold.Protein.ActiveResidues>
 VAL166  LYS551  ARG553  GLY616  TRP617  ASP618  TYR619  PRO620  LYS621  CYS622 
 ASP623  PHE694  ASN695  SER759  ASP760  ASP761  ALA762  ILE779  LEU786  VAL792 
 PHE793  MET794  SER795  GLU796  ALA797  LYS798  CYS799  TRP800  GLU811  SER814 

> <Gold.Protein.RotatedAtoms>
  151.9091  135.0346  160.0512 H   0  0  0  0  0  0  0  0  0  0  0  0  # atno 6907 bound_to 6896
  152.2294  133.5042  159.5216 H   0  0  0  0  0  0  0  0  0  0  0  0  # atno 6908 bound_to 6896
  150.7021  134.1153  159.4057 H   0  0  0  0  0  0  0  0  0  0  0  0  # atno 6909 bound_to 6896
  145.3893  140.9526  143.2349 H   0  0  0  0  0  0  0  0  0  0  0  0  # atno 7974 bound_to 7965
  156.0885  140.1412  156.9622 H   0  0  0  0  0  0  0  0  0  0  0  0  # atno 8008 bound_to 7997
  154.4627  140.0937  156.6985 H   0  0  0  0  0  0  0  0  0  0  0  0  # atno 8009 bound_to 7997
  155.4958  140.3449  155.4365 H   0  0  0  0  0  0  0  0  0  0  0  0  # atno 8010 bound_to 7997
  139.9630  143.5929  152.2439 H   0  0  0  0  0  0  0  0  0  0  0  0  # atno 10167 bound_to 10162
  156.6641  130.9058  151.3034 H   0  0  0  0  0  0  0  0  0  0  0  0  # atno 10718 bound_to 10713
  153.0972  135.6663  153.9741 H   0  0  0  0  0  0  0  0  0  0  0  0  # atno 10763 bound_to 10752
  153.9322  135.3003  155.3446 H   0  0  0  0  0  0  0  0  0  0  0  0  # atno 10764 bound_to 10752
  154.7391  135.5088  153.9166 H   0  0  0  0  0  0  0  0  0  0  0  0  # atno 10765 bound_to 10752
  139.8821  134.9385  156.5744 H   0  0  0  0  0  0  0  0  0  0  0  0  # atno 11005 bound_to 11000
  144.8451  139.5409  143.6882 LP  0  0  0  0  0  0  0  0  0  0  0  0  # atno 17320 bound_to 7965
  146.2805  139.6864  142.9232 LP  0  0  0  0  0  0  0  0  0  0  0  0  # atno 17321 bound_to 7965
  139.6539  144.7661  151.2093 LP  0  0  0  0  0  0  0  0  0  0  0  0  # atno 17342 bound_to 10162
  140.7547  143.6116  150.8600 LP  0  0  0  0  0  0  0  0  0  0  0  0  # atno 17343 bound_to 10162
  157.7100  130.9429  150.1056 LP  0  0  0  0  0  0  0  0  0  0  0  0  # atno 17370 bound_to 10713
  156.1988  130.3659  149.8814 LP  0  0  0  0  0  0  0  0  0  0  0  0  # atno 17371 bound_to 10713
  140.8074  133.8456  155.8780 LP  0  0  0  0  0  0  0  0  0  0  0  0  # atno 17394 bound_to 11000
  140.9537  134.1745  157.4708 LP  0  0  0  0  0  0  0  0  0  0  0  0  # atno 17395 bound_to 11000

$$$$
