AV-unprocessed.smi:2124|AV-procd|sdf|8654|dock8
  -GOLD-   2272011403D 1   1.00000     0.00000
 Structure written by MMmdl.
 47 49  0  0  0  0  0  0  0  0  1 V2000
  146.4807  139.5667  150.3944 C   0  0  0  0  0  0  0  0  0  0  0  0
  146.8581  140.0232  151.7876 C   0  0  0  0  0  0  0  0  0  0  0  0
  146.4009  141.0971  152.3428 N   0  0  0  0  0  0  0  0  0  0  0  0
  146.8197  141.4150  153.6423 C   0  0  0  0  0  0  0  0  0  0  0  0
  146.2317  142.6874  154.2272 C   0  0  0  0  0  0  0  0  0  0  0  0
  147.6995  140.6239  154.3236 C   0  0  0  0  0  0  0  0  0  0  0  0
  148.1740  140.9311  155.7429 C   0  0  0  0  0  0  0  0  0  0  0  0
  149.6858  141.0933  155.9233 C   0  0  0  0  0  0  0  0  0  0  0  0
  150.4379  141.0836  154.9485 O   0  0  0  0  0  0  0  0  0  0  0  0
  150.1144  141.2483  157.1851 N   0  0  0  0  0  0  0  0  0  0  0  0
  151.5023  141.4563  157.5947 C   0  0  2  0  0  0  0  0  0  0  0  0
  152.3127  140.1892  157.2676 C   0  0  0  0  0  0  0  0  0  0  0  0
  151.5435  141.8290  159.0976 C   0  0  2  0  0  0  0  0  0  0  0  0
  150.6934  143.0761  159.4517 C   0  0  0  0  0  0  0  0  0  0  0  0
  151.6878  143.9867  160.1925 C   0  0  1  0  0  0  0  0  0  0  0  0
  152.0364  143.3685  161.5583 C   0  0  0  0  0  0  0  0  0  0  0  0
  152.9277  142.1742  161.1699 C   0  0  0  0  0  0  0  0  0  0  0  0
  152.9388  142.2434  159.6303 C   0  0  2  0  0  0  0  0  0  0  0  0
  152.9648  143.7507  159.3979 C   0  0  0  0  0  0  0  0  0  0  0  0
  148.2150  139.4001  153.6805 C   0  0  0  0  0  0  0  0  0  0  0  0
  149.0018  138.6152  154.2077 O   0  0  0  0  0  0  0  0  0  0  0  0
  147.7543  139.1708  152.4305 N   0  0  0  0  0  0  0  0  0  0  0  0
  148.0750  138.3437  151.9486 H   0  0  0  0  0  0  0  0  0  0  0  0
  145.4014  139.4284  150.3253 H   0  0  0  0  0  0  0  0  0  0  0  0
  146.9626  138.6231  150.1344 H   0  0  0  0  0  0  0  0  0  0  0  0
  146.7785  140.3160  149.6607 H   0  0  0  0  0  0  0  0  0  0  0  0
  147.0061  143.4460  154.3407 H   0  0  0  0  0  0  0  0  0  0  0  0
  145.7870  142.4960  155.2039 H   0  0  0  0  0  0  0  0  0  0  0  0
  145.4527  143.0962  153.5826 H   0  0  0  0  0  0  0  0  0  0  0  0
  147.6693  141.8261  156.1104 H   0  0  0  0  0  0  0  0  0  0  0  0
  147.8485  140.1356  156.4126 H   0  0  0  0  0  0  0  0  0  0  0  0
  149.4225  141.2430  157.9204 H   0  0  0  0  0  0  0  0  0  0  0  0
  151.9210  142.2869  157.0240 H   0  0  0  0  0  0  0  0  0  0  0  0
  153.3740  140.3210  157.4740 H   0  0  0  0  0  0  0  0  0  0  0  0
  152.2260  139.9304  156.2118 H   0  0  0  0  0  0  0  0  0  0  0  0
  151.9637  139.3340  157.8470 H   0  0  0  0  0  0  0  0  0  0  0  0
  151.1796  140.9704  159.6647 H   0  0  0  0  0  0  0  0  0  0  0  0
  150.3315  143.5832  158.5558 H   0  0  0  0  0  0  0  0  0  0  0  0
  149.8239  142.8265  160.0607 H   0  0  0  0  0  0  0  0  0  0  0  0
  151.3666  145.0271  160.2512 H   0  0  0  0  0  0  0  0  0  0  0  0
  152.5905  144.0755  162.1767 H   0  0  0  0  0  0  0  0  0  0  0  0
  151.1476  143.0628  162.1118 H   0  0  0  0  0  0  0  0  0  0  0  0
  153.9345  142.3042  161.5690 H   0  0  0  0  0  0  0  0  0  0  0  0
  152.5424  141.2252  161.5443 H   0  0  0  0  0  0  0  0  0  0  0  0
  153.7764  141.7022  159.1920 H   0  0  0  0  0  0  0  0  0  0  0  0
  152.8808  144.0333  158.3473 H   0  0  0  0  0  0  0  0  0  0  0  0
  153.8396  144.2403  159.8297 H   0  0  0  0  0  0  0  0  0  0  0  0
  1  2  1  0  0  0  0
  1 24  1  0  0  0  0
  1 25  1  0  0  0  0
  1 26  1  0  0  0  0
  2 22  1  0  0  0  0
  2  3  2  0  0  0  0
  3  4  1  0  0  0  0
  4  5  1  0  0  0  0
  4  6  2  0  0  0  0
  5 27  1  0  0  0  0
  5 28  1  0  0  0  0
  5 29  1  0  0  0  0
  6  7  1  0  0  0  0
  6 20  1  0  0  0  0
  7  8  1  0  0  0  0
  7 30  1  0  0  0  0
  7 31  1  0  0  0  0
  8  9  2  0  0  0  0
  8 10  1  0  0  0  0
 10 11  1  0  0  0  0
 10 32  1  0  0  0  0
 11 12  1  0  0  0  0
 11 13  1  0  0  0  0
 11 33  1  0  0  0  0
 12 34  1  0  0  0  0
 12 35  1  0  0  0  0
 12 36  1  0  0  0  0
 13 18  1  0  0  0  0
 13 14  1  0  0  0  0
 13 37  1  0  0  0  0
 14 15  1  0  0  0  0
 14 38  1  0  0  0  0
 14 39  1  0  0  0  0
 15 19  1  0  0  0  0
 15 16  1  0  0  0  0
 15 40  1  0  0  0  0
 16 17  1  0  0  0  0
 16 41  1  0  0  0  0
 16 42  1  0  0  0  0
 17 18  1  0  0  0  0
 17 43  1  0  0  0  0
 17 44  1  0  0  0  0
 18 19  1  0  0  0  0
 18 45  1  0  0  0  0
 19 46  1  0  0  0  0
 19 47  1  0  0  0  0
 20 21  2  0  0  0  0
 20 22  1  0  0  0  0
 22 23  1  0  0  0  0
M  END
> <s_m_source_file>
AV-unprocessed.smi

> <i_m_source_file_index>
2124

> <i_lp_mmshare_version>
43012

> <i_f3d_flags>
0

> <s_epik_input>
W0NIM11jMW5jKFtDSDNdKWMoYyg9TylbbkhdMSlbQ0gyXUMoPU8pW05IXVtDQEhdKFtDSDNdKVtDQEhdKFtDSDJdW0NASF0yMylbQ0BIXShbQ0gyXTMpW0NIMl1bQ0gyXTI=

> <s_epik_cmdline>
J2VwaWtfcHl0aG9uJywgJy1waCcsICc3LjAnLCAnLXRuJywgJzgnLCAnLW1hJywgJzIwMCcsICctbWV0YWxfYmluZGluZycsICctaW1hZScsICc8aW5maWxlLm1hZT4nLCAnLW9tYWUnLCAnPG91dGZpbGUubWFlPic=

> <r_lp_tautomer_probability>
0.839158

> <r_epik_Ionization_Penalty>
0.000383628

> <r_epik_Ionization_Penalty_Charging>
0.00035045

> <r_epik_Ionization_Penalty_Neutral>
3.31781e-05

> <r_epik_State_Penalty>
0.09125

> <r_epik_Charging_Adjusted_Penalty>
0.0916005

> <i_epik_Tot_Q>
0

> <i_epik_Tot_abs_Q>
0

> <r_epik_Metal_State_Penalty>
0.255229

> <b_epik_Metal_Only>
0

> <s_lp_Force_Field>
OPLS_2005

> <r_lp_Energy>
52.554

> <b_lp_Chiralities_Consistent>
1

> <s_lp_Variant>
AV-unprocessed.smi:2124-5

> <Gold.Version>
5.8.1

> <Gold.Id.Protein>
6NUR|6NUR_protein|mol2

> <Gold.PLP.Fitness>
47.2022

> <Gold.PLP.PLP>
-41.5831

> <Gold.PLP.part.hbond>
-2.9152

> <Gold.PLP.part.metal>
0.0000

> <Gold.PLP.part.buried>
-1.0112

> <Gold.PLP.part.nonpolar>
-41.5741

> <Gold.PLP.part.repulsive>
2.3967

> <Gold.PLP.ligand.clash>
0.0000

> <Gold.PLP.ligand.torsion>
0.1185

> <Gold.PLP.Chemscore.Hbond>
1.9440

> <Gold.PLP.Chemscore.CHOScore>
0.0000

> <Gold.PLP.Chemscore.Metal>
0.0000

> <Gold.Chemscore.Hbonds>
donor molecule, donor type, donor heavy atom, donor atom, acceptor molecule, acceptor atom, score
      L1  H    22    23       P1  7948  0.44
      P1  H  7989  7998       L1     9  0.66

> <Gold.PLP.Chemscore.Internal.Correction>
0.0239

> <Gold.Rescore>
     Score         DG    S(hbond)    S(metal)    S(lipo)     H(rot)  DE(clash)    DE(int)     intcor
     15.63     -20.99       1.29        0.00     132.00       1.65       3.93       1.43       ----

> <Gold.Chemscore.Fitness>
15.6265

> <Gold.Chemscore.DG>
-20.9871

> <Gold.Chemscore.ZeroCoef>
-5.4800

> <Gold.Chemscore.Hbond>
1.2862

> <Gold.Chemscore.Metal>
0.0000

> <Gold.Chemscore.Lipo>
131.9970

> <Gold.Chemscore.Internal_Hbond>
0.0000

> <Gold.Chemscore.DEClash>
3.9326

> <Gold.Chemscore.DEInternal>
1.4281

> <Gold.Chemscore.Rot>
1.6534

> <Gold.Chemscore.Internal.Correction>
   9.000000E+99

> <Gold.Chemscore.Hbonds>
donor molecule, donor type, donor heavy atom, donor atom, acceptor molecule, acceptor atom, score
      L1  H    22    23       P1  7948  0.43
      P1  H  7989  7998       L1     9  0.66

> <Gold.Chemscore.Hbond.Weighted>
-4.2960

> <Gold.Chemscore.Metal.Weighted>
-0.0000

> <Gold.Chemscore.Lipo.Weighted>
-15.4436

> <Gold.Chemscore.Internal_Hbond.Weighted>
0.0000

> <Gold.Chemscore.DEClash.Weighted>
3.9326

> <Gold.Chemscore.DEInternal.Weighted>
1.4281

> <Gold.Chemscore.Rot.Weighted>
4.2326

> <Gold.Chemscore.Internal.Correction.Weighted>
   9.000000E+99

> <Gold.Protein.RotatedTorsions>
[ 6907 6896 6895 6894 ] final  104.93 input  -60.11 | X-H torsion
[ 7974 7965 7964 7962 ] final -138.53 input  175.53 | X-H torsion
[ 8008 7997 7996 7995 ] final   27.81 input   59.86 | X-H torsion
[ 10167 10162 10161 10158 ] final -135.80 input  -65.29 | X-H torsion
[ 10718 10713 10712 10709 ] final  169.00 input   66.30 | X-H torsion
[ 10763 10752 10751 10750 ] final -158.53 input  -60.55 | X-H torsion
[ 11005 11000 10999 10996 ] final  148.05 input  -57.11 | X-H torsion

> <Gold.Protein.ActiveResidues>
 VAL166  LYS551  ARG553  GLY616  TRP617  ASP618  TYR619  PRO620  LYS621  CYS622 
 ASP623  PHE694  ASN695  SER759  ASP760  ASP761  ALA762  ILE779  LEU786  VAL792 
 PHE793  MET794  SER795  GLU796  ALA797  LYS798  CYS799  TRP800  GLU811  SER814 

> <Gold.Protein.RotatedAtoms>
  152.5248  133.9604  159.7713 H   0  0  0  0  0  0  0  0  0  0  0  0  # atno 6907 bound_to 6896
  150.9895  133.6155  159.2717 H   0  0  0  0  0  0  0  0  0  0  0  0  # atno 6908 bound_to 6896
  151.3303  135.0846  159.9389 H   0  0  0  0  0  0  0  0  0  0  0  0  # atno 6909 bound_to 6896
  144.8751  140.6425  143.5242 H   0  0  0  0  0  0  0  0  0  0  0  0  # atno 7974 bound_to 7965
  155.0488  140.3177  155.4699 H   0  0  0  0  0  0  0  0  0  0  0  0  # atno 8008 bound_to 7997
  156.2839  140.2150  156.5557 H   0  0  0  0  0  0  0  0  0  0  0  0  # atno 8009 bound_to 7997
  154.7228  140.0488  157.0643 H   0  0  0  0  0  0  0  0  0  0  0  0  # atno 8010 bound_to 7997
  139.8742  143.6920  152.2636 H   0  0  0  0  0  0  0  0  0  0  0  0  # atno 10167 bound_to 10162
  157.0290  131.0254  151.2751 H   0  0  0  0  0  0  0  0  0  0  0  0  # atno 10718 bound_to 10713
  154.7549  135.3102  154.8488 H   0  0  0  0  0  0  0  0  0  0  0  0  # atno 10763 bound_to 10752
  153.9265  135.6790  153.4750 H   0  0  0  0  0  0  0  0  0  0  0  0  # atno 10764 bound_to 10752
  153.1146  135.4850  154.9023 H   0  0  0  0  0  0  0  0  0  0  0  0  # atno 10765 bound_to 10752
  140.0927  134.9031  157.1675 H   0  0  0  0  0  0  0  0  0  0  0  0  # atno 11005 bound_to 11000
  145.4058  139.1589  143.4153 LP  0  0  0  0  0  0  0  0  0  0  0  0  # atno 17320 bound_to 7965
  146.2957  140.4158  142.8723 LP  0  0  0  0  0  0  0  0  0  0  0  0  # atno 17321 bound_to 7965
  139.7256  144.7593  151.0885 LP  0  0  0  0  0  0  0  0  0  0  0  0  # atno 17342 bound_to 10162
  140.7755  143.5153  150.9603 LP  0  0  0  0  0  0  0  0  0  0  0  0  # atno 17343 bound_to 10162
  157.5192  130.7987  149.7790 LP  0  0  0  0  0  0  0  0  0  0  0  0  # atno 17370 bound_to 10713
  156.0076  130.3848  150.2376 LP  0  0  0  0  0  0  0  0  0  0  0  0  # atno 17371 bound_to 10713
  140.3330  134.2789  155.7225 LP  0  0  0  0  0  0  0  0  0  0  0  0  # atno 17394 bound_to 11000
  141.2083  133.7782  157.0069 LP  0  0  0  0  0  0  0  0  0  0  0  0  # atno 17395 bound_to 11000

$$$$
