AV-unprocessed.smi:1736|AV-procd|sdf|6992|dock3
  -GOLD-   22720 8203D 1   1.00000     0.00000
 Structure written by MMmdl.
 44 45  0  0  0  0  0  0  0  0  1 V2000
  152.5871  139.6720  155.7517 C   0  0  0  0  0  0  0  0  0  0  0  0
  151.3854  139.9595  154.9838 N   0  0  0  0  0  0  0  0  0  0  0  0
  150.6659  138.7381  154.6348 C   0  0  0  0  0  0  0  0  0  0  0  0
  149.4010  139.0434  153.8114 C   0  0  0  0  0  0  0  0  0  0  0  0
  148.4798  139.9371  154.5332 N   0  0  0  0  0  0  0  0  0  0  0  0
  147.1742  140.1717  153.8540 C   0  0  0  0  0  0  0  0  0  0  0  0
  146.4631  141.4591  154.3366 C   0  0  0  0  0  0  0  0  0  0  0  0
  147.3617  140.3024  152.3211 C   0  0  0  0  0  0  0  0  0  0  0  0
  146.1854  138.9900  154.0827 C   0  0  0  0  0  0  0  0  0  0  0  0
  146.4296  137.8610  153.1855 N   0  0  0  0  0  0  0  0  0  0  0  0
  145.4890  137.1000  152.6087 C   0  0  0  0  0  0  0  0  0  0  0  0
  144.2806  137.2570  152.7831 O   0  0  0  0  0  0  0  0  0  0  0  0
  146.0398  136.1627  151.8207 N   0  0  0  0  0  0  0  0  0  0  0  0
  145.3638  135.1842  151.0501 C   0  0  0  0  0  0  0  0  0  0  0  0
  145.7743  133.8621  150.7087 C   0  0  0  0  0  0  0  0  0  0  0  0
  144.8599  133.2526  149.9671 N   0  0  0  0  0  0  0  0  0  0  0  0
  143.8744  134.1685  149.8326 N   0  0  0  0  0  0  0  0  0  0  0  0
  144.1404  135.3574  150.4750 C   0  0  0  0  0  0  0  0  0  0  0  0
  149.2185  141.1591  154.8910 C   0  0  0  0  0  0  0  0  0  0  0  0
  150.4810  140.8429  155.7132 C   0  0  0  0  0  0  0  0  0  0  0  0
  143.0363  133.9688  149.3054 H   0  0  0  0  0  0  0  0  0  0  0  0
  153.2612  139.0273  155.1869 H   0  0  0  0  0  0  0  0  0  0  0  0
  152.3457  139.1721  156.6906 H   0  0  0  0  0  0  0  0  0  0  0  0
  153.1252  140.5915  155.9847 H   0  0  0  0  0  0  0  0  0  0  0  0
  151.3179  138.0787  154.0607 H   0  0  0  0  0  0  0  0  0  0  0  0
  150.3906  138.1934  155.5396 H   0  0  0  0  0  0  0  0  0  0  0  0
  149.6938  139.4852  152.8588 H   0  0  0  0  0  0  0  0  0  0  0  0
  148.9210  138.0930  153.5851 H   0  0  0  0  0  0  0  0  0  0  0  0
  145.5193  141.6050  153.8096 H   0  0  0  0  0  0  0  0  0  0  0  0
  147.0612  142.3526  154.1591 H   0  0  0  0  0  0  0  0  0  0  0  0
  146.2259  141.4251  155.3996 H   0  0  0  0  0  0  0  0  0  0  0  0
  146.4050  140.2862  151.7977 H   0  0  0  0  0  0  0  0  0  0  0  0
  147.9656  139.4887  151.9178 H   0  0  0  0  0  0  0  0  0  0  0  0
  147.8444  141.2387  152.0418 H   0  0  0  0  0  0  0  0  0  0  0  0
  146.2503  138.6189  155.1053 H   0  0  0  0  0  0  0  0  0  0  0  0
  145.1545  139.3366  153.9886 H   0  0  0  0  0  0  0  0  0  0  0  0
  147.3956  137.6605  152.9721 H   0  0  0  0  0  0  0  0  0  0  0  0
  147.0474  136.1502  151.7635 H   0  0  0  0  0  0  0  0  0  0  0  0
  146.6787  133.3292  150.9624 H   0  0  0  0  0  0  0  0  0  0  0  0
  143.4567  136.1937  150.4655 H   0  0  0  0  0  0  0  0  0  0  0  0
  149.5051  141.7081  153.9938 H   0  0  0  0  0  0  0  0  0  0  0  0
  148.5988  141.8272  155.4858 H   0  0  0  0  0  0  0  0  0  0  0  0
  150.1952  140.3864  156.6623 H   0  0  0  0  0  0  0  0  0  0  0  0
  150.9935  141.7741  155.9574 H   0  0  0  0  0  0  0  0  0  0  0  0
  1  2  1  0  0  0  0
  1 22  1  0  0  0  0
  1 23  1  0  0  0  0
  1 24  1  0  0  0  0
  2 20  1  0  0  0  0
  2  3  1  0  0  0  0
  3  4  1  0  0  0  0
  3 25  1  0  0  0  0
  3 26  1  0  0  0  0
  4  5  1  0  0  0  0
  4 27  1  0  0  0  0
  4 28  1  0  0  0  0
  5  6  1  0  0  0  0
  5 19  1  0  0  0  0
  6  7  1  0  0  0  0
  6  8  1  0  0  0  0
  6  9  1  0  0  0  0
  7 29  1  0  0  0  0
  7 30  1  0  0  0  0
  7 31  1  0  0  0  0
  8 32  1  0  0  0  0
  8 33  1  0  0  0  0
  8 34  1  0  0  0  0
  9 10  1  0  0  0  0
  9 35  1  0  0  0  0
  9 36  1  0  0  0  0
 10 11  1  0  0  0  0
 10 37  1  0  0  0  0
 11 12  2  0  0  0  0
 11 13  1  0  0  0  0
 13 14  1  0  0  0  0
 13 38  1  0  0  0  0
 14 18  2  0  0  0  0
 14 15  1  0  0  0  0
 15 16  2  0  0  0  0
 15 39  1  0  0  0  0
 16 17  1  0  0  0  0
 17 21  1  0  0  0  0
 17 18  1  0  0  0  0
 18 40  1  0  0  0  0
 19 20  1  0  0  0  0
 19 41  1  0  0  0  0
 19 42  1  0  0  0  0
 20 43  1  0  0  0  0
 20 44  1  0  0  0  0
M  END
> <s_m_source_file>
AV-unprocessed.smi

> <i_m_source_file_index>
1736

> <i_lp_mmshare_version>
43012

> <i_f3d_flags>
0

> <s_epik_input>
W0NIM11OMVtDSDJdW0NIMl1OKFtDSDJdW0NIMl0xKUMoW0NIM10pKFtDSDNdKVtDSDJdW05IXUMoPU8pW05IXWMyW2NIXW5bbkhdW2NIXTI=

> <s_epik_cmdline>
J2VwaWtfcHl0aG9uJywgJy1waCcsICc3LjAnLCAnLXRuJywgJzgnLCAnLW1hJywgJzIwMCcsICctbWV0YWxfYmluZGluZycsICctaW1hZScsICc8aW5maWxlLm1hZT4nLCAnLW9tYWUnLCAnPG91dGZpbGUubWFlPic=

> <r_lp_tautomer_probability>
0.5

> <r_epik_Ionization_Penalty>
3.08539

> <r_epik_Ionization_Penalty_Charging>
0

> <r_epik_Ionization_Penalty_Neutral>
3.08539

> <r_epik_State_Penalty>
2.1584

> <r_epik_Charging_Adjusted_Penalty>
2.1584

> <i_epik_Tot_Q>
0

> <i_epik_Tot_abs_Q>
0

> <r_epik_Metal_State_Penalty>
2.1584

> <b_epik_Metal_Only>
0

> <s_lp_Force_Field>
OPLS_2005

> <r_lp_Energy>
53.1153

> <b_lp_Chiralities_Consistent>
1

> <s_lp_Variant>
AV-unprocessed.smi:1736-3

> <Gold.Version>
5.8.1

> <Gold.Id.Protein>
6NUR|6NUR_protein|mol2

> <Gold.PLP.Fitness>
37.0397

> <Gold.PLP.PLP>
-28.3930

> <Gold.PLP.part.hbond>
-3.3431

> <Gold.PLP.part.metal>
0.0000

> <Gold.PLP.part.buried>
2.7540

> <Gold.PLP.part.nonpolar>
-28.9507

> <Gold.PLP.part.repulsive>
0.5950

> <Gold.PLP.ligand.clash>
0.0000

> <Gold.PLP.ligand.torsion>
1.4695

> <Gold.PLP.Chemscore.Hbond>
2.8445

> <Gold.PLP.Chemscore.CHOScore>
1.0000

> <Gold.PLP.Chemscore.Metal>
0.0000

> <Gold.Chemscore.Hbonds>
donor molecule, donor type, donor heavy atom, donor atom, acceptor molecule, acceptor atom, score
      L1  H    10    37       P1  7948  0.12
      L1  H    13    38       P1  7948  1.00
      L1  H    17    21       P1 10186  0.59
      P1  H  7989  7998       L1     2  1.00
      L1  C    18    40       P1 10171  1.00

> <Gold.PLP.Chemscore.Internal.Correction>
0.0524

> <Gold.Rescore>
     Score         DG    S(hbond)    S(metal)    S(lipo)     H(rot)  DE(clash)    DE(int)     intcor
     14.54     -19.60       2.65        0.00      79.87       1.59       2.50       2.56       ----

> <Gold.Chemscore.Fitness>
14.5410

> <Gold.Chemscore.DG>
-19.6041

> <Gold.Chemscore.ZeroCoef>
-5.4800

> <Gold.Chemscore.Hbond>
2.6498

> <Gold.Chemscore.Metal>
0.0000

> <Gold.Chemscore.Lipo>
79.8654

> <Gold.Chemscore.Internal_Hbond>
0.0000

> <Gold.Chemscore.DEClash>
2.5004

> <Gold.Chemscore.DEInternal>
2.5627

> <Gold.Chemscore.Rot>
1.5901

> <Gold.Chemscore.Internal.Correction>
   9.000000E+99

> <Gold.Chemscore.Hbonds>
donor molecule, donor type, donor heavy atom, donor atom, acceptor molecule, acceptor atom, score
      L1  H    10    37       P1  7948  0.13
      L1  H    13    38       P1  7948  1.00
      L1  H    17    21       P1 10186  0.59
      P1  H  7989  7998       L1     2  0.20

> <Gold.Chemscore.Hbond.Weighted>
-8.8505

> <Gold.Chemscore.Metal.Weighted>
-0.0000

> <Gold.Chemscore.Lipo.Weighted>
-9.3443

> <Gold.Chemscore.Internal_Hbond.Weighted>
0.0000

> <Gold.Chemscore.DEClash.Weighted>
2.5004

> <Gold.Chemscore.DEInternal.Weighted>
2.5627

> <Gold.Chemscore.Rot.Weighted>
4.0706

> <Gold.Chemscore.Internal.Correction.Weighted>
   9.000000E+99

> <Gold.Protein.RotatedTorsions>
[ 6907 6896 6895 6894 ] final -101.94 input  -60.11 | X-H torsion
[ 7974 7965 7964 7962 ] final   -3.42 input  175.53 | X-H torsion
[ 8008 7997 7996 7995 ] final  108.95 input   59.86 | X-H torsion
[ 10167 10162 10161 10158 ] final  -33.57 input  -65.29 | X-H torsion
[ 10718 10713 10712 10709 ] final  -94.56 input   66.30 | X-H torsion
[ 10763 10752 10751 10750 ] final   34.79 input  -60.55 | X-H torsion
[ 11005 11000 10999 10996 ] final  -11.91 input  -57.11 | X-H torsion

> <Gold.Protein.ActiveResidues>
 VAL166  LYS551  ARG553  GLY616  TRP617  ASP618  TYR619  PRO620  LYS621  CYS622 
 ASP623  PHE694  ASN695  SER759  ASP760  ASP761  ALA762  ILE779  LEU786  VAL792 
 PHE793  MET794  SER795  GLU796  ALA797  LYS798  CYS799  TRP800  GLU811  SER814 

> <Gold.Protein.RotatedAtoms>
  150.7175  134.0657  159.3846 H   0  0  0  0  0  0  0  0  0  0  0  0  # atno 6907 bound_to 6896
  151.8638  135.0512  160.0481 H   0  0  0  0  0  0  0  0  0  0  0  0  # atno 6908 bound_to 6896
  152.2696  133.5335  159.5468 H   0  0  0  0  0  0  0  0  0  0  0  0  # atno 6909 bound_to 6896
  146.2390  140.1718  142.8332 H   0  0  0  0  0  0  0  0  0  0  0  0  # atno 7974 bound_to 7965
  156.1942  140.3067  155.9394 H   0  0  0  0  0  0  0  0  0  0  0  0  # atno 8008 bound_to 7997
  155.3103  140.0451  157.3051 H   0  0  0  0  0  0  0  0  0  0  0  0  # atno 8009 bound_to 7997
  154.5489  140.2285  155.8526 H   0  0  0  0  0  0  0  0  0  0  0  0  # atno 8010 bound_to 7997
  140.7202  143.3611  151.1961 H   0  0  0  0  0  0  0  0  0  0  0  0  # atno 10167 bound_to 10162
  156.0029  130.5073  150.5945 H   0  0  0  0  0  0  0  0  0  0  0  0  # atno 10718 bound_to 10713
  153.0148  135.6351  154.1724 H   0  0  0  0  0  0  0  0  0  0  0  0  # atno 10763 bound_to 10752
  154.1464  135.2831  155.3149 H   0  0  0  0  0  0  0  0  0  0  0  0  # atno 10764 bound_to 10752
  154.6086  135.5564  153.7511 H   0  0  0  0  0  0  0  0  0  0  0  0  # atno 10765 bound_to 10752
  140.7602  133.8521  155.9118 H   0  0  0  0  0  0  0  0  0  0  0  0  # atno 11005 bound_to 11000
  145.0005  140.8627  143.5284 LP  0  0  0  0  0  0  0  0  0  0  0  0  # atno 17320 bound_to 7965
  145.1737  139.2390  143.5328 LP  0  0  0  0  0  0  0  0  0  0  0  0  # atno 17321 bound_to 7965
  139.7163  143.9295  152.2968 LP  0  0  0  0  0  0  0  0  0  0  0  0  # atno 17342 bound_to 10162
  139.9037  144.6897  150.8637 LP  0  0  0  0  0  0  0  0  0  0  0  0  # atno 17343 bound_to 10162
  157.3804  131.0780  151.1481 LP  0  0  0  0  0  0  0  0  0  0  0  0  # atno 17370 bound_to 10713
  157.2206  130.6479  149.5809 LP  0  0  0  0  0  0  0  0  0  0  0  0  # atno 17371 bound_to 10713
  140.9670  134.1580  157.4607 LP  0  0  0  0  0  0  0  0  0  0  0  0  # atno 17394 bound_to 11000
  139.8772  134.9965  156.5799 LP  0  0  0  0  0  0  0  0  0  0  0  0  # atno 17395 bound_to 11000

$$$$
