AV-unprocessed.smi:221|AV-procd|sdf|1699|dock8
  -GOLD-   2262020153D 1   1.00000     0.00000
 Structure written by MMmdl.
 50 53  0  0  0  0  0  0  0  0  1 V2000
  143.8031  136.0505  151.5122 N   0  0  0  0  0  0  0  0  0  0  0  0
  144.8129  135.1807  151.4317 C   0  0  0  0  0  0  0  0  0  0  0  0
  145.8506  135.4422  150.8250 O   0  0  0  0  0  0  0  0  0  0  0  0
  144.6141  133.8257  152.1369 C   0  0  1  0  0  0  0  0  0  0  0  0
  143.4927  132.9966  151.4843 C   0  0  0  0  0  0  0  0  0  0  0  0
  144.2001  132.1232  150.4476 C   0  0  1  0  0  0  0  0  0  0  0  0
  144.3572  132.8008  149.3095 F   0  0  0  0  0  0  0  0  0  0  0  0
  145.5646  131.8558  151.0844 C   0  0  0  0  0  0  0  0  0  0  0  0
  145.7849  132.9552  152.0200 N   0  0  0  0  0  0  0  0  0  0  0  0
  146.9285  133.0694  152.7520 C   0  0  0  0  0  0  0  0  0  0  0  0
  147.8610  132.0877  152.6246 N   0  0  0  0  0  0  0  0  0  0  0  0
  149.0064  132.1364  153.3086 C   0  0  0  0  0  0  0  0  0  0  0  0
  149.4227  133.0643  154.1695 N   0  0  0  0  0  0  0  0  0  0  0  0
  148.4966  134.0543  154.3110 C   0  0  0  0  0  0  0  0  0  0  0  0
  147.2348  134.1376  153.6509 C   0  0  0  0  0  0  0  0  0  0  0  0
  146.5776  135.2926  154.0653 N   0  0  0  0  0  0  0  0  0  0  0  0
  147.3961  135.8535  154.9113 C   0  0  0  0  0  0  0  0  0  0  0  0
  148.5715  135.1736  155.1213 N   0  0  0  0  0  0  0  0  0  0  0  0
  149.6520  135.5677  156.0079 C   0  0  0  0  0  0  0  0  0  0  0  0
  149.6691  137.0817  156.3470 C   0  0  1  0  0  0  0  0  0  0  0  0
  149.3548  137.3578  157.8400 C   0  0  0  0  0  0  0  0  0  0  0  0
  150.2392  136.6690  158.7000 O   0  0  0  0  0  0  0  0  0  0  0  0
  151.0276  137.7102  155.9402 C   0  0  1  0  0  0  0  0  0  0  0  0
  151.4553  137.4422  154.5065 C   0  0  0  0  0  0  0  0  0  0  0  0
  152.5027  138.5237  154.2779 C   0  0  0  0  0  0  0  0  0  0  0  0
  152.0285  139.6537  154.9972 O   0  0  0  0  0  0  0  0  0  0  0  0
  151.0614  139.2455  155.9608 C   0  0  0  0  0  0  0  0  0  0  0  0
  144.3599  133.9918  153.1840 H   0  0  0  0  0  0  0  0  0  0  0  0
  143.6535  131.2107  150.2082 H   0  0  0  0  0  0  0  0  0  0  0  0
  143.8856  136.9546  151.0705 H   0  0  0  0  0  0  0  0  0  0  0  0
  142.9641  135.8042  152.0167 H   0  0  0  0  0  0  0  0  0  0  0  0
  143.0358  132.3563  152.2400 H   0  0  0  0  0  0  0  0  0  0  0  0
  142.6939  133.6000  151.0501 H   0  0  0  0  0  0  0  0  0  0  0  0
  145.5448  130.9178  151.6409 H   0  0  0  0  0  0  0  0  0  0  0  0
  146.3515  131.7904  150.3315 H   0  0  0  0  0  0  0  0  0  0  0  0
  149.6862  131.3140  153.1414 H   0  0  0  0  0  0  0  0  0  0  0  0
  147.1615  136.7808  155.4134 H   0  0  0  0  0  0  0  0  0  0  0  0
  149.5812  134.9801  156.9239 H   0  0  0  0  0  0  0  0  0  0  0  0
  150.5842  135.2714  155.5270 H   0  0  0  0  0  0  0  0  0  0  0  0
  148.8982  137.5688  155.7473 H   0  0  0  0  0  0  0  0  0  0  0  0
  149.3928  138.4265  158.0529 H   0  0  0  0  0  0  0  0  0  0  0  0
  148.3527  137.0237  158.1045 H   0  0  0  0  0  0  0  0  0  0  0  0
  149.8869  135.8079  158.8662 H   0  0  0  0  0  0  0  0  0  0  0  0
  151.8103  137.3381  156.6037 H   0  0  0  0  0  0  0  0  0  0  0  0
  151.8579  136.4404  154.3548 H   0  0  0  0  0  0  0  0  0  0  0  0
  150.6166  137.5829  153.8232 H   0  0  0  0  0  0  0  0  0  0  0  0
  153.4620  138.2185  154.6974 H   0  0  0  0  0  0  0  0  0  0  0  0
  152.6489  138.7522  153.2222 H   0  0  0  0  0  0  0  0  0  0  0  0
  150.0965  139.6619  155.6690 H   0  0  0  0  0  0  0  0  0  0  0  0
  151.3135  139.6398  156.9454 H   0  0  0  0  0  0  0  0  0  0  0  0
  1  2  1  0  0  0  0
  1 30  1  0  0  0  0
  1 31  1  0  0  0  0
  2  3  2  0  0  0  0
  2  4  1  0  0  0  0
  4 28  1  0  0  0  0
  4  9  1  0  0  0  0
  4  5  1  0  0  0  0
  5  6  1  0  0  0  0
  5 32  1  0  0  0  0
  5 33  1  0  0  0  0
  6 29  1  0  0  0  0
  6  7  1  0  0  0  0
  6  8  1  0  0  0  0
  8  9  1  0  0  0  0
  8 34  1  0  0  0  0
  8 35  1  0  0  0  0
  9 10  1  0  0  0  0
 10 15  1  0  0  0  0
 10 11  2  0  0  0  0
 11 12  1  0  0  0  0
 12 13  2  0  0  0  0
 12 36  1  0  0  0  0
 13 14  1  0  0  0  0
 14 18  1  0  0  0  0
 14 15  2  0  0  0  0
 15 16  1  0  0  0  0
 16 17  2  0  0  0  0
 17 18  1  0  0  0  0
 17 37  1  0  0  0  0
 18 19  1  0  0  0  0
 19 20  1  0  0  0  0
 19 38  1  0  0  0  0
 19 39  1  0  0  0  0
 20 21  1  0  0  0  0
 20 23  1  0  0  0  0
 20 40  1  0  0  0  0
 21 22  1  0  0  0  0
 21 41  1  0  0  0  0
 21 42  1  0  0  0  0
 22 43  1  0  0  0  0
 23 27  1  0  0  0  0
 23 24  1  0  0  0  0
 23 44  1  0  0  0  0
 24 25  1  0  0  0  0
 24 45  1  0  0  0  0
 24 46  1  0  0  0  0
 25 26  1  0  0  0  0
 25 47  1  0  0  0  0
 25 48  1  0  0  0  0
 26 27  1  0  0  0  0
 27 49  1  0  0  0  0
 27 50  1  0  0  0  0
M  END
> <s_m_source_file>
AV-unprocessed.smi

> <i_m_source_file_index>
221

> <i_lp_mmshare_version>
43012

> <i_f3d_flags>
0

> <s_epik_input>
W05IMl1DKD1PKVtDQEBIXTFbQ0gyXVtDQEBIXShGKVtDSDJdTjFjKG5bY0hdbjIpYyhjMjMpbltjSF1uM1tDSDJdW0NASF0oW0NIMl1bT0hdKVtDQEBIXTRbQ0gyXVtDSDJdT1tDSDJdNA==

> <s_epik_cmdline>
J2VwaWtfcHl0aG9uJywgJy1waCcsICc3LjAnLCAnLXRuJywgJzgnLCAnLW1hJywgJzIwMCcsICctbWV0YWxfYmluZGluZycsICctaW1hZScsICc8aW5maWxlLm1hZT4nLCAnLW9tYWUnLCAnPG91dGZpbGUubWFlPic=

> <r_lp_tautomer_probability>
1

> <r_epik_Ionization_Penalty>
0.000818822

> <r_epik_Ionization_Penalty_Charging>
0

> <r_epik_Ionization_Penalty_Neutral>
0.000818822

> <r_epik_State_Penalty>
0.000440551

> <r_epik_Charging_Adjusted_Penalty>
0.000440551

> <i_epik_Tot_Q>
0

> <i_epik_Tot_abs_Q>
0

> <r_epik_Metal_State_Penalty>
-0

> <b_epik_Metal_Only>
0

> <s_lp_Force_Field>
OPLS_2005

> <r_lp_Energy>
47.9731

> <b_lp_Chiralities_Consistent>
1

> <s_lp_Variant>
AV-unprocessed.smi:221-14

> <Gold.Version>
5.8.1

> <Gold.Id.Protein>
6NUR|6NUR_protein|mol2

> <Gold.PLP.Fitness>
42.5633

> <Gold.PLP.PLP>
-39.0528

> <Gold.PLP.part.hbond>
-2.1652

> <Gold.PLP.part.metal>
0.0000

> <Gold.PLP.part.buried>
-7.9439

> <Gold.PLP.part.nonpolar>
-29.6995

> <Gold.PLP.part.repulsive>
1.3571

> <Gold.PLP.ligand.clash>
0.0000

> <Gold.PLP.ligand.torsion>
1.1789

> <Gold.PLP.Chemscore.Hbond>
1.9280

> <Gold.PLP.Chemscore.CHOScore>
0.0000

> <Gold.PLP.Chemscore.Metal>
0.0000

> <Gold.Chemscore.Hbonds>
donor molecule, donor type, donor heavy atom, donor atom, acceptor molecule, acceptor atom, score
      L1  H     1    30       P1 10171  0.94
      P1  H  7989  7998       L1    26  0.85

> <Gold.PLP.Chemscore.Internal.Correction>
0.0843

> <Gold.Rescore>
     Score         DG    S(hbond)    S(metal)    S(lipo)     H(rot)  DE(clash)    DE(int)     intcor
      8.89     -10.48       1.67        0.00      67.44       3.31       0.35       1.25       ----

> <Gold.Chemscore.Fitness>
8.8870

> <Gold.Chemscore.DG>
-10.4849

> <Gold.Chemscore.ZeroCoef>
-5.4800

> <Gold.Chemscore.Hbond>
1.6724

> <Gold.Chemscore.Metal>
0.0000

> <Gold.Chemscore.Lipo>
67.4362

> <Gold.Chemscore.Internal_Hbond>
0.0000

> <Gold.Chemscore.DEClash>
0.3465

> <Gold.Chemscore.DEInternal>
1.2514

> <Gold.Chemscore.Rot>
3.3089

> <Gold.Chemscore.Internal.Correction>
   9.000000E+99

> <Gold.Chemscore.Hbonds>
donor molecule, donor type, donor heavy atom, donor atom, acceptor molecule, acceptor atom, score
      L1  H     1    30       P1 10171  0.90
      P1  H  7989  7998       L1    26  0.19

> <Gold.Chemscore.Hbond.Weighted>
-5.5857

> <Gold.Chemscore.Metal.Weighted>
-0.0000

> <Gold.Chemscore.Lipo.Weighted>
-7.8900

> <Gold.Chemscore.Internal_Hbond.Weighted>
0.0000

> <Gold.Chemscore.DEClash.Weighted>
0.3465

> <Gold.Chemscore.DEInternal.Weighted>
1.2514

> <Gold.Chemscore.Rot.Weighted>
8.4709

> <Gold.Chemscore.Internal.Correction.Weighted>
   9.000000E+99

> <Gold.Protein.RotatedTorsions>
[ 6907 6896 6895 6894 ] final -123.76 input  -60.11 | X-H torsion
[ 7974 7965 7964 7962 ] final  -43.61 input  175.53 | X-H torsion
[ 8008 7997 7996 7995 ] final  145.38 input   59.86 | X-H torsion
[ 10167 10162 10161 10158 ] final  101.95 input  -65.29 | X-H torsion
[ 10718 10713 10712 10709 ] final  112.56 input   66.30 | X-H torsion
[ 10763 10752 10751 10750 ] final -152.15 input  -60.55 | X-H torsion
[ 11005 11000 10999 10996 ] final -107.55 input  -57.11 | X-H torsion

> <Gold.Protein.ActiveResidues>
 VAL166  LYS551  ARG553  GLY616  TRP617  ASP618  TYR619  PRO620  LYS621  CYS622 
 ASP623  PHE694  ASN695  SER759  ASP760  ASP761  ALA762  ILE779  LEU786  VAL792 
 PHE793  MET794  SER795  GLU796  ALA797  LYS798  CYS799  TRP800  GLU811  SER814 

> <Gold.Protein.RotatedAtoms>
  150.8702  133.7516  159.2963 H   0  0  0  0  0  0  0  0  0  0  0  0  # atno 6907 bound_to 6896
  151.5130  135.1064  159.9868 H   0  0  0  0  0  0  0  0  0  0  0  0  # atno 6908 bound_to 6896
  152.4690  133.7941  159.6974 H   0  0  0  0  0  0  0  0  0  0  0  0  # atno 6909 bound_to 6896
  146.0002  140.7083  142.9274 H   0  0  0  0  0  0  0  0  0  0  0  0  # atno 7974 bound_to 7965
  156.2884  140.2211  156.5205 H   0  0  0  0  0  0  0  0  0  0  0  0  # atno 8008 bound_to 7997
  154.7532  140.0479  157.0933 H   0  0  0  0  0  0  0  0  0  0  0  0  # atno 8009 bound_to 7997
  155.0083  140.3110  155.4843 H   0  0  0  0  0  0  0  0  0  0  0  0  # atno 8010 bound_to 7997
  139.7393  144.7015  151.0601 H   0  0  0  0  0  0  0  0  0  0  0  0  # atno 10167 bound_to 10162
  157.6386  131.0969  150.6913 H   0  0  0  0  0  0  0  0  0  0  0  0  # atno 10718 bound_to 10713
  154.8012  135.3243  154.7544 H   0  0  0  0  0  0  0  0  0  0  0  0  # atno 10763 bound_to 10752
  153.8211  135.6887  153.4831 H   0  0  0  0  0  0  0  0  0  0  0  0  # atno 10764 bound_to 10752
  153.1731  135.4615  154.9872 H   0  0  0  0  0  0  0  0  0  0  0  0  # atno 10765 bound_to 10752
  141.0948  133.8990  157.1989 H   0  0  0  0  0  0  0  0  0  0  0  0  # atno 11005 bound_to 11000
  144.6917  140.3220  143.7230 LP  0  0  0  0  0  0  0  0  0  0  0  0  # atno 17320 bound_to 7965
  145.7499  139.1790  143.2327 LP  0  0  0  0  0  0  0  0  0  0  0  0  # atno 17321 bound_to 7965
  140.7783  143.4945  150.9850 LP  0  0  0  0  0  0  0  0  0  0  0  0  # atno 17342 bound_to 10162
  139.8633  143.7286  152.3172 LP  0  0  0  0  0  0  0  0  0  0  0  0  # atno 17343 bound_to 10162
  156.7240  130.4689  149.5516 LP  0  0  0  0  0  0  0  0  0  0  0  0  # atno 17370 bound_to 10713
  156.1646  130.6397  151.0762 LP  0  0  0  0  0  0  0  0  0  0  0  0  # atno 17371 bound_to 10713
  139.9782  135.0107  156.9684 LP  0  0  0  0  0  0  0  0  0  0  0  0  # atno 17394 bound_to 11000
  140.5166  134.0949  155.7282 LP  0  0  0  0  0  0  0  0  0  0  0  0  # atno 17395 bound_to 11000

$$$$
