AV-unprocessed.smi:12|AV-procd|sdf|63|dock9
  -GOLD-   2262015183D 1   1.00000     0.00000
 Structure written by MMmdl.
 41 44  0  0  0  0  0  0  0  0  1 V2000
  147.5386  133.3770  155.2446 C   0  0  0  0  0  0  0  0  0  0  0  0
  148.7178  134.2797  155.5597 C   0  0  0  0  0  0  0  0  0  0  0  0
  149.0206  135.3502  154.7880 C   0  0  0  0  0  0  0  0  0  0  0  0
  150.0914  136.1331  155.1177 N   0  0  0  0  0  0  0  0  0  0  0  0
  150.8762  135.8083  156.2451 C   0  0  0  0  0  0  0  0  0  0  0  0
  150.6515  134.8026  157.0324 N   0  0  0  0  0  0  0  0  0  0  0  0
  149.5515  133.9703  156.7486 C   0  0  0  0  0  0  0  0  0  0  0  0
  149.2939  133.0087  157.4713 O   0  0  0  0  0  0  0  0  0  0  0  0
  151.8953  136.7054  156.3480 O   0  0  0  0  0  0  0  0  0  0  0  0
  151.8214  137.6504  155.2719 C   0  0  2  0  0  0  0  0  0  0  0  0
  151.5294  139.0557  155.7906 C   0  0  1  0  0  0  0  0  0  0  0  0
  152.6661  139.8852  155.6576 O   0  0  0  0  0  0  0  0  0  0  0  0
  150.3814  139.5365  154.8976 C   0  0  2  0  0  0  0  0  0  0  0  0
  149.4511  140.5624  155.5566 C   0  0  0  0  0  0  0  0  0  0  0  0
  150.2122  141.4125  156.3990 O   0  0  0  0  0  0  0  0  0  0  0  0
  149.6811  141.8827  157.5440 C   0  0  0  0  0  0  0  0  0  0  0  0
  148.5934  141.5156  157.9928 O   0  0  0  0  0  0  0  0  0  0  0  0
  150.5473  142.8980  158.2101 C   0  0  0  0  0  0  0  0  0  0  0  0
  151.8710  143.0900  157.7492 C   0  0  0  0  0  0  0  0  0  0  0  0
  152.7134  144.0382  158.3614 C   0  0  0  0  0  0  0  0  0  0  0  0
  152.2424  144.8071  159.4417 C   0  0  0  0  0  0  0  0  0  0  0  0
  150.9269  144.6278  159.9078 C   0  0  0  0  0  0  0  0  0  0  0  0
  150.0831  143.6795  159.2972 C   0  0  0  0  0  0  0  0  0  0  0  0
  149.6616  138.3483  154.6113 O   0  0  0  0  0  0  0  0  0  0  0  0
  150.5802  137.3215  154.4206 C   0  0  2  0  0  0  0  0  0  0  0  0
  147.0083  133.7144  154.3535 H   0  0  0  0  0  0  0  0  0  0  0  0
  146.8313  133.3689  156.0746 H   0  0  0  0  0  0  0  0  0  0  0  0
  147.8761  132.3550  155.0693 H   0  0  0  0  0  0  0  0  0  0  0  0
  148.4268  135.5970  153.9198 H   0  0  0  0  0  0  0  0  0  0  0  0
  152.7090  137.6006  154.6390 H   0  0  0  0  0  0  0  0  0  0  0  0
  151.2111  139.0164  156.8336 H   0  0  0  0  0  0  0  0  0  0  0  0
  152.8432  140.0053  154.7369 H   0  0  0  0  0  0  0  0  0  0  0  0
  150.7658  139.9232  153.9514 H   0  0  0  0  0  0  0  0  0  0  0  0
  148.9613  141.1623  154.7883 H   0  0  0  0  0  0  0  0  0  0  0  0
  148.6697  140.0600  156.1285 H   0  0  0  0  0  0  0  0  0  0  0  0
  152.2554  142.5107  156.9219 H   0  0  0  0  0  0  0  0  0  0  0  0
  153.7227  144.1748  158.0016 H   0  0  0  0  0  0  0  0  0  0  0  0
  152.8890  145.5334  159.9118 H   0  0  0  0  0  0  0  0  0  0  0  0
  150.5635  145.2182  160.7360 H   0  0  0  0  0  0  0  0  0  0  0  0
  149.0794  143.5674  159.6805 H   0  0  0  0  0  0  0  0  0  0  0  0
  150.7680  137.0343  153.3854 H   0  0  0  0  0  0  0  0  0  0  0  0
  1  2  1  0  0  0  0
  1 26  1  0  0  0  0
  1 27  1  0  0  0  0
  1 28  1  0  0  0  0
  2  7  1  0  0  0  0
  2  3  2  0  0  0  0
  3  4  1  0  0  0  0
  3 29  1  0  0  0  0
  4 25  1  0  0  0  0
  4  5  1  0  0  0  0
  5  6  2  0  0  0  0
  5  9  1  0  0  0  0
  6  7  1  0  0  0  0
  7  8  2  0  0  0  0
  9 10  1  0  0  0  0
 10 25  1  0  0  0  0
 10 11  1  0  0  0  0
 10 30  1  0  0  0  0
 11 12  1  0  0  0  0
 11 13  1  0  0  0  0
 11 31  1  0  0  0  0
 12 32  1  0  0  0  0
 13 14  1  0  0  0  0
 13 24  1  0  0  0  0
 13 33  1  0  0  0  0
 14 15  1  0  0  0  0
 14 34  1  0  0  0  0
 14 35  1  0  0  0  0
 15 16  1  0  0  0  0
 16 17  2  0  0  0  0
 16 18  1  0  0  0  0
 18 23  1  0  0  0  0
 18 19  2  0  0  0  0
 19 20  1  0  0  0  0
 19 36  1  0  0  0  0
 20 21  2  0  0  0  0
 20 37  1  0  0  0  0
 21 22  1  0  0  0  0
 21 38  1  0  0  0  0
 22 23  2  0  0  0  0
 22 39  1  0  0  0  0
 23 40  1  0  0  0  0
 24 25  1  0  0  0  0
 25 41  1  0  0  0  0
M  END
> <s_m_source_file>
AV-unprocessed.smi

> <i_m_source_file_index>
12

> <i_lp_mmshare_version>
43012

> <i_f3d_flags>
0

> <s_epik_input>
W0NIM11jKFtjSF0xKWMoPU8pbmMobjEyKU9bQ0BIXTNbQ0BASF0yT1tDQEBIXShbQ0BASF0zW09IXSlbQ0gyXU9DKD1PKWM0W2NIXVtjSF1bY0hdW2NIXVtjSF00

> <s_epik_cmdline>
J2VwaWtfcHl0aG9uJywgJy1waCcsICc3LjAnLCAnLXRuJywgJzgnLCAnLW1hJywgJzIwMCcsICctbWV0YWxfYmluZGluZycsICctaW1hZScsICc8aW5maWxlLm1hZT4nLCAnLW9tYWUnLCAnPG91dGZpbGUubWFlPic=

> <r_lp_tautomer_probability>
0.933681

> <r_epik_Ionization_Penalty>
0.00399549

> <r_epik_Ionization_Penalty_Charging>
3.09373e-09

> <r_epik_Ionization_Penalty_Neutral>
0.00399549

> <r_epik_State_Penalty>
0.00284953

> <r_epik_Charging_Adjusted_Penalty>
0.00284953

> <i_epik_Tot_Q>
0

> <i_epik_Tot_abs_Q>
0

> <r_epik_Metal_State_Penalty>
-0

> <b_epik_Metal_Only>
0

> <s_epik_Chemistry_Notes>
This compound has an ester and may undergo hydrolysis at high or low pH. This compound contains an acetal/aminal-like group ( X-CH(R)-Y where X, Y are N, S, or O) that may be acid/base labile, releasing an aldehyde.

> <s_lp_Force_Field>
OPLS_2005

> <r_lp_Energy>
41.0284

> <b_lp_Chiralities_Consistent>
1

> <s_lp_Variant>
AV-unprocessed.smi:12-3

> <Gold.Version>
5.8.1

> <Gold.Id.Protein>
6NUR|6NUR_protein|mol2

> <Gold.PLP.Fitness>
48.7144

> <Gold.PLP.PLP>
-40.9804

> <Gold.PLP.part.hbond>
-5.0000

> <Gold.PLP.part.metal>
0.0000

> <Gold.PLP.part.buried>
-2.5839

> <Gold.PLP.part.nonpolar>
-34.6948

> <Gold.PLP.part.repulsive>
0.3226

> <Gold.PLP.ligand.clash>
0.0000

> <Gold.PLP.ligand.torsion>
0.6407

> <Gold.PLP.Chemscore.Hbond>
2.0000

> <Gold.PLP.Chemscore.CHOScore>
1.0000

> <Gold.PLP.Chemscore.Metal>
0.0000

> <Gold.Chemscore.Hbonds>
donor molecule, donor type, donor heavy atom, donor atom, acceptor molecule, acceptor atom, score
      P1  H  7997  8009       L1    12  0.40
      L1  C     3    29       P1  7948  1.00

> <Gold.PLP.Chemscore.Internal.Correction>
0.0153

> <Gold.Rescore>
     Score         DG    S(hbond)    S(metal)    S(lipo)     H(rot)  DE(clash)    DE(int)     intcor
     14.08     -16.59       1.50        0.00      99.92       2.18       0.78       1.72       ----

> <Gold.Chemscore.Fitness>
14.0829

> <Gold.Chemscore.DG>
-16.5891

> <Gold.Chemscore.ZeroCoef>
-5.4800

> <Gold.Chemscore.Hbond>
1.4967

> <Gold.Chemscore.Metal>
0.0000

> <Gold.Chemscore.Lipo>
99.9217

> <Gold.Chemscore.Internal_Hbond>
0.0000

> <Gold.Chemscore.DEClash>
0.7817

> <Gold.Chemscore.DEInternal>
1.7245

> <Gold.Chemscore.Rot>
2.1800

> <Gold.Chemscore.Internal.Correction>
   9.000000E+99

> <Gold.Chemscore.Hbonds>
donor molecule, donor type, donor heavy atom, donor atom, acceptor molecule, acceptor atom, score
      P1  H  7997  8009       L1    12  0.01

> <Gold.Chemscore.Hbond.Weighted>
-4.9990

> <Gold.Chemscore.Metal.Weighted>
-0.0000

> <Gold.Chemscore.Lipo.Weighted>
-11.6908

> <Gold.Chemscore.Internal_Hbond.Weighted>
0.0000

> <Gold.Chemscore.DEClash.Weighted>
0.7817

> <Gold.Chemscore.DEInternal.Weighted>
1.7245

> <Gold.Chemscore.Rot.Weighted>
5.5807

> <Gold.Chemscore.Internal.Correction.Weighted>
   9.000000E+99

> <Gold.Protein.RotatedTorsions>
[ 6907 6896 6895 6894 ] final  -20.97 input  -60.11 | X-H torsion
[ 7974 7965 7964 7962 ] final -126.17 input  175.53 | X-H torsion
[ 8008 7997 7996 7995 ] final -139.48 input   59.86 | X-H torsion
[ 10167 10162 10161 10158 ] final   61.39 input  -65.29 | X-H torsion
[ 10718 10713 10712 10709 ] final   39.39 input   66.30 | X-H torsion
[ 10763 10752 10751 10750 ] final   53.98 input  -60.55 | X-H torsion
[ 11005 11000 10999 10996 ] final -111.37 input  -57.11 | X-H torsion

> <Gold.Protein.ActiveResidues>
 VAL166  LYS551  ARG553  GLY616  TRP617  ASP618  TYR619  PRO620  LYS621  CYS622 
 ASP623  PHE694  ASN695  SER759  ASP760  ASP761  ALA762  ILE779  LEU786  VAL792 
 PHE793  MET794  SER795  GLU796  ALA797  LYS798  CYS799  TRP800  GLU811  SER814 

> <Gold.Protein.RotatedAtoms>
  151.2403  135.0586  159.9022 H   0  0  0  0  0  0  0  0  0  0  0  0  # atno 6907 bound_to 6896
  152.5394  134.0441  159.8091 H   0  0  0  0  0  0  0  0  0  0  0  0  # atno 6908 bound_to 6896
  151.0634  133.5476  159.2664 H   0  0  0  0  0  0  0  0  0  0  0  0  # atno 6909 bound_to 6896
  144.9900  140.7723  143.4560 H   0  0  0  0  0  0  0  0  0  0  0  0  # atno 7974 bound_to 7965
  155.4455  140.0535  157.3006 H   0  0  0  0  0  0  0  0  0  0  0  0  # atno 8008 bound_to 7997
  154.4800  140.2077  155.9744 H   0  0  0  0  0  0  0  0  0  0  0  0  # atno 8009 bound_to 7997
  156.1190  140.3191  155.8186 H   0  0  0  0  0  0  0  0  0  0  0  0  # atno 8010 bound_to 7997
  140.1552  144.4424  150.6738 H   0  0  0  0  0  0  0  0  0  0  0  0  # atno 10167 bound_to 10162
  157.3700  130.7696  149.7112 H   0  0  0  0  0  0  0  0  0  0  0  0  # atno 10718 bound_to 10713
  152.9800  135.5760  154.4829 H   0  0  0  0  0  0  0  0  0  0  0  0  # atno 10763 bound_to 10752
  154.4375  135.2775  155.1872 H   0  0  0  0  0  0  0  0  0  0  0  0  # atno 10764 bound_to 10752
  154.3554  135.6200  153.5717 H   0  0  0  0  0  0  0  0  0  0  0  0  # atno 10765 bound_to 10752
  141.0738  133.9335  157.2431 H   0  0  0  0  0  0  0  0  0  0  0  0  # atno 11005 bound_to 11000
  145.2299  139.2120  143.5048 LP  0  0  0  0  0  0  0  0  0  0  0  0  # atno 17320 bound_to 7965
  146.3429  140.2174  142.8591 LP  0  0  0  0  0  0  0  0  0  0  0  0  # atno 17321 bound_to 7965
  140.6677  143.2274  151.5702 LP  0  0  0  0  0  0  0  0  0  0  0  0  # atno 17342 bound_to 10162
  139.5407  144.2657  152.1344 LP  0  0  0  0  0  0  0  0  0  0  0  0  # atno 17343 bound_to 10162
  155.9753  130.4090  150.3855 LP  0  0  0  0  0  0  0  0  0  0  0  0  # atno 17370 bound_to 10713
  157.1945  131.0423  151.2683 LP  0  0  0  0  0  0  0  0  0  0  0  0  # atno 17371 bound_to 10713
  139.9551  135.0167  156.9104 LP  0  0  0  0  0  0  0  0  0  0  0  0  # atno 17394 bound_to 11000
  140.5617  134.0529  155.7401 LP  0  0  0  0  0  0  0  0  0  0  0  0  # atno 17395 bound_to 11000

$$$$
