AV-unprocessed.smi:104|AV-procd|sdf|996|dock2
  -GOLD-   2262017573D 1   1.00000     0.00000
 Structure written by MMmdl.
 47 49  0  0  0  0  0  0  0  0  1 V2000
  154.2502  134.1952  158.9137 C   0  0  0  0  0  0  0  0  0  0  0  0
  153.7054  135.4748  158.2920 C   0  0  0  0  0  0  0  0  0  0  0  0
  153.7078  135.6470  157.0731 O   0  0  0  0  0  0  0  0  0  0  0  0
  153.2510  136.3401  159.2109 O   0  0  0  0  0  0  0  0  0  0  0  0
  152.6389  137.5547  158.8017 C   0  0  0  0  0  0  0  0  0  0  0  0
  151.1325  137.3655  158.5527 C   0  0  1  0  0  0  0  0  0  0  0  0
  150.4208  137.0361  159.7436 O   0  0  0  0  0  0  0  0  0  0  0  0
  149.1207  137.5414  159.6600 C   0  0  2  0  0  0  0  0  0  0  0  0
  148.1382  136.4408  159.8945 N   0  0  0  0  0  0  0  0  0  0  0  0
  147.7458  135.4403  159.0351 C   0  0  0  0  0  0  0  0  0  0  0  0
  148.4572  135.2735  157.2763 Br  0  0  0  0  0  0  0  0  0  0  0  0
  146.8693  134.5833  159.4787 N   0  0  0  0  0  0  0  0  0  0  0  0
  146.6402  135.0243  160.7761 C   0  0  0  0  0  0  0  0  0  0  0  0
  145.8165  134.5732  161.8384 C   0  0  0  0  0  0  0  0  0  0  0  0
  145.0127  133.5055  161.7394 N   0  0  0  0  0  0  0  0  0  0  0  0
  145.8431  135.2506  163.0098 N   0  0  0  0  0  0  0  0  0  0  0  0
  146.6373  136.3183  163.1365 C   0  0  0  0  0  0  0  0  0  0  0  0
  147.4598  136.8598  162.2341 N   0  0  0  0  0  0  0  0  0  0  0  0
  147.4309  136.1789  161.0510 C   0  0  0  0  0  0  0  0  0  0  0  0
  148.9374  138.1249  158.2590 C   0  0  1  0  0  0  0  0  0  0  0  0
  148.0145  139.2062  158.2747 O   0  0  0  0  0  0  0  0  0  0  0  0
  147.6346  139.7843  157.1244 C   0  0  0  0  0  0  0  0  0  0  0  0
  146.6600  140.9328  157.3474 C   0  0  0  0  0  0  0  0  0  0  0  0
  148.0097  139.4681  155.9956 O   0  0  0  0  0  0  0  0  0  0  0  0
  150.3626  138.5286  157.9114 C   0  0  1  0  0  0  0  0  0  0  0  0
  150.7130  139.7682  158.5237 O   0  0  0  0  0  0  0  0  0  0  0  0
  151.8614  140.3932  158.2105 C   0  0  0  0  0  0  0  0  0  0  0  0
  151.9894  141.7490  158.8924 C   0  0  0  0  0  0  0  0  0  0  0  0
  152.7417  139.9659  157.4638 O   0  0  0  0  0  0  0  0  0  0  0  0
  154.5257  134.3572  159.9563 H   0  0  0  0  0  0  0  0  0  0  0  0
  155.1356  133.8597  158.3731 H   0  0  0  0  0  0  0  0  0  0  0  0
  153.4994  133.4061  158.8711 H   0  0  0  0  0  0  0  0  0  0  0  0
  152.7805  138.3275  159.5591 H   0  0  0  0  0  0  0  0  0  0  0  0
  153.1262  137.9032  157.8906 H   0  0  0  0  0  0  0  0  0  0  0  0
  151.0238  136.5094  157.8856 H   0  0  0  0  0  0  0  0  0  0  0  0
  148.9664  138.2638  160.4614 H   0  0  0  0  0  0  0  0  0  0  0  0
  144.9750  132.9813  160.8769 H   0  0  0  0  0  0  0  0  0  0  0  0
  144.4434  133.2290  162.5262 H   0  0  0  0  0  0  0  0  0  0  0  0
  146.6088  136.8096  164.0980 H   0  0  0  0  0  0  0  0  0  0  0  0
  148.6100  137.3227  157.5949 H   0  0  0  0  0  0  0  0  0  0  0  0
  145.9304  140.6717  158.1144 H   0  0  0  0  0  0  0  0  0  0  0  0
  146.1246  141.1643  156.4263 H   0  0  0  0  0  0  0  0  0  0  0  0
  147.1980  141.8248  157.6690 H   0  0  0  0  0  0  0  0  0  0  0  0
  150.5252  138.5529  156.8331 H   0  0  0  0  0  0  0  0  0  0  0  0
  151.0486  142.0398  159.3607 H   0  0  0  0  0  0  0  0  0  0  0  0
  152.2635  142.5130  158.1648 H   0  0  0  0  0  0  0  0  0  0  0  0
  152.7604  141.7108  159.6619 H   0  0  0  0  0  0  0  0  0  0  0  0
  1  2  1  0  0  0  0
  1 30  1  0  0  0  0
  1 31  1  0  0  0  0
  1 32  1  0  0  0  0
  2  3  2  0  0  0  0
  2  4  1  0  0  0  0
  4  5  1  0  0  0  0
  5  6  1  0  0  0  0
  5 33  1  0  0  0  0
  5 34  1  0  0  0  0
  6 25  1  0  0  0  0
  6  7  1  0  0  0  0
  6 35  1  0  0  0  0
  7  8  1  0  0  0  0
  8  9  1  0  0  0  0
  8 20  1  0  0  0  0
  8 36  1  0  0  0  0
  9 19  1  0  0  0  0
  9 10  1  0  0  0  0
 10 11  1  0  0  0  0
 10 12  2  0  0  0  0
 12 13  1  0  0  0  0
 13 19  2  0  0  0  0
 13 14  1  0  0  0  0
 14 15  1  0  0  0  0
 14 16  2  0  0  0  0
 15 37  1  0  0  0  0
 15 38  1  0  0  0  0
 16 17  1  0  0  0  0
 17 18  2  0  0  0  0
 17 39  1  0  0  0  0
 18 19  1  0  0  0  0
 20 21  1  0  0  0  0
 20 25  1  0  0  0  0
 20 40  1  0  0  0  0
 21 22  1  0  0  0  0
 22 23  1  0  0  0  0
 22 24  2  0  0  0  0
 23 41  1  0  0  0  0
 23 42  1  0  0  0  0
 23 43  1  0  0  0  0
 25 26  1  0  0  0  0
 25 44  1  0  0  0  0
 26 27  1  0  0  0  0
 27 28  1  0  0  0  0
 27 29  2  0  0  0  0
 28 45  1  0  0  0  0
 28 46  1  0  0  0  0
 28 47  1  0  0  0  0
M  END
> <s_m_source_file>
AV-unprocessed.smi

> <i_m_source_file_index>
104

> <i_lp_mmshare_version>
43012

> <i_f3d_flags>
0

> <s_epik_input>
W0NIM11DKD1PKU9bQ0gyXVtDQEBIXTFPW0NASF0oW0NAQEhdKE9DKD1PKVtDSDNdKVtDQEhdMU9DKD1PKVtDSDNdKW4oYyhCciluMiljKGMyMyluW2NIXW5jM1tOSDJd

> <s_epik_cmdline>
J2VwaWtfcHl0aG9uJywgJy1waCcsICc3LjAnLCAnLXRuJywgJzgnLCAnLW1hJywgJzIwMCcsICctbWV0YWxfYmluZGluZycsICctaW1hZScsICc8aW5maWxlLm1hZT4nLCAnLW9tYWUnLCAnPG91dGZpbGUubWFlPic=

> <r_lp_tautomer_probability>
1

> <r_epik_Ionization_Penalty>
7.36622e-05

> <r_epik_Ionization_Penalty_Charging>
0

> <r_epik_Ionization_Penalty_Neutral>
7.36622e-05

> <r_epik_State_Penalty>
-0

> <r_epik_Charging_Adjusted_Penalty>
0

> <i_epik_Tot_Q>
0

> <i_epik_Tot_abs_Q>
0

> <r_epik_Metal_State_Penalty>
-0

> <b_epik_Metal_Only>
0

> <s_epik_Chemistry_Notes>
This compound has an ester and may undergo hydrolysis at high or low pH. This compound contains an acetal/aminal-like group ( X-CH(R)-Y where X, Y are N, S, or O) that may be acid/base labile, releasing an aldehyde.

> <s_lp_Force_Field>
OPLS_2005

> <r_lp_Energy>
19.7206

> <b_lp_Chiralities_Consistent>
1

> <s_lp_Variant>
AV-unprocessed.smi:104-4

> <Gold.Version>
5.8.1

> <Gold.Id.Protein>
6NUR|6NUR_protein|mol2

> <Gold.PLP.Fitness>
43.7675

> <Gold.PLP.PLP>
-32.8550

> <Gold.PLP.part.hbond>
-5.6601

> <Gold.PLP.part.metal>
0.0000

> <Gold.PLP.part.buried>
-3.1837

> <Gold.PLP.part.nonpolar>
-23.0848

> <Gold.PLP.part.repulsive>
0.0482

> <Gold.PLP.ligand.clash>
0.0000

> <Gold.PLP.ligand.torsion>
0.8561

> <Gold.PLP.Chemscore.Hbond>
3.9920

> <Gold.PLP.Chemscore.CHOScore>
0.0000

> <Gold.PLP.Chemscore.Metal>
0.0000

> <Gold.Chemscore.Hbonds>
donor molecule, donor type, donor heavy atom, donor atom, acceptor molecule, acceptor atom, score
      P1  H  6896  6908       L1     7  0.67
      P1  H  6931  6943       L1    18  0.78
      P1  H  7997  8010       L1    29  1.00
      P1  H 10752 10763       L1     3  1.00

> <Gold.PLP.Chemscore.Internal.Correction>
0.6487

> <Gold.Rescore>
     Score         DG    S(hbond)    S(metal)    S(lipo)     H(rot)  DE(clash)    DE(int)     intcor
      6.34     -10.35       3.64        0.00      32.08       4.31       0.00       4.01       ----

> <Gold.Chemscore.Fitness>
6.3416

> <Gold.Chemscore.DG>
-10.3527

> <Gold.Chemscore.ZeroCoef>
-5.4800

> <Gold.Chemscore.Hbond>
3.6362

> <Gold.Chemscore.Metal>
0.0000

> <Gold.Chemscore.Lipo>
32.0826

> <Gold.Chemscore.Internal_Hbond>
0.0000

> <Gold.Chemscore.DEClash>
0.0030

> <Gold.Chemscore.DEInternal>
4.0080

> <Gold.Chemscore.Rot>
4.3070

> <Gold.Chemscore.Internal.Correction>
   9.000000E+99

> <Gold.Chemscore.Hbonds>
donor molecule, donor type, donor heavy atom, donor atom, acceptor molecule, acceptor atom, score
      P1  H  6896  6908       L1     7  0.08
      P1  H  6931  6943       L1    18  0.30
      P1  H  7997  8010       L1    29  0.99
      P1  H 10752 10763       L1     3  1.00

> <Gold.Chemscore.Hbond.Weighted>
-12.1449

> <Gold.Chemscore.Metal.Weighted>
-0.0000

> <Gold.Chemscore.Lipo.Weighted>
-3.7537

> <Gold.Chemscore.Internal_Hbond.Weighted>
0.0000

> <Gold.Chemscore.DEClash.Weighted>
0.0030

> <Gold.Chemscore.DEInternal.Weighted>
4.0080

> <Gold.Chemscore.Rot.Weighted>
11.0259

> <Gold.Chemscore.Internal.Correction.Weighted>
   9.000000E+99

> <Gold.Protein.RotatedTorsions>
[ 6907 6896 6895 6894 ] final -144.49 input  -60.11 | X-H torsion
[ 7974 7965 7964 7962 ] final -125.46 input  175.53 | X-H torsion
[ 8008 7997 7996 7995 ] final   49.94 input   59.86 | X-H torsion
[ 10167 10162 10161 10158 ] final  145.23 input  -65.29 | X-H torsion
[ 10718 10713 10712 10709 ] final   42.63 input   66.30 | X-H torsion
[ 10763 10752 10751 10750 ] final  134.77 input  -60.55 | X-H torsion
[ 11005 11000 10999 10996 ] final   57.12 input  -57.11 | X-H torsion

> <Gold.Protein.ActiveResidues>
 VAL166  LYS551  ARG553  GLY616  TRP617  ASP618  TYR619  PRO620  LYS621  CYS622 
 ASP623  PHE694  ASN695  SER759  ASP760  ASP761  ALA762  ILE779  LEU786  VAL792 
 PHE793  MET794  SER795  GLU796  ALA797  LYS798  CYS799  TRP800  GLU811  SER814 

> <Gold.Protein.RotatedAtoms>
  151.1148  133.5146  159.2604 H   0  0  0  0  0  0  0  0  0  0  0  0  # atno 6907 bound_to 6896
  151.1927  135.0409  159.8849 H   0  0  0  0  0  0  0  0  0  0  0  0  # atno 6908 bound_to 6896
  152.5452  134.0986  159.8361 H   0  0  0  0  0  0  0  0  0  0  0  0  # atno 6909 bound_to 6896
  144.9974  140.7789  143.4517 H   0  0  0  0  0  0  0  0  0  0  0  0  # atno 7974 bound_to 7965
  155.4106  140.3442  155.4263 H   0  0  0  0  0  0  0  0  0  0  0  0  # atno 8008 bound_to 7997
  156.1451  140.1554  156.8891 H   0  0  0  0  0  0  0  0  0  0  0  0  # atno 8009 bound_to 7997
  154.5003  140.0816  156.7765 H   0  0  0  0  0  0  0  0  0  0  0  0  # atno 8010 bound_to 7997
  139.4930  144.5916  151.6669 H   0  0  0  0  0  0  0  0  0  0  0  0  # atno 10167 bound_to 10162
  157.4070  130.7892  149.7397 H   0  0  0  0  0  0  0  0  0  0  0  0  # atno 10718 bound_to 10713
  153.8291  135.3106  155.3417 H   0  0  0  0  0  0  0  0  0  0  0  0  # atno 10763 bound_to 10752
  154.7981  135.4743  154.0212 H   0  0  0  0  0  0  0  0  0  0  0  0  # atno 10764 bound_to 10752
  153.1645  135.6867  153.8785 H   0  0  0  0  0  0  0  0  0  0  0  0  # atno 10765 bound_to 10752
  140.0477  134.5782  155.9302 H   0  0  0  0  0  0  0  0  0  0  0  0  # atno 11005 bound_to 11000
  145.2200  139.2163  143.5098 LP  0  0  0  0  0  0  0  0  0  0  0  0  # atno 17320 bound_to 7965
  146.3445  140.2056  142.8589 LP  0  0  0  0  0  0  0  0  0  0  0  0  # atno 17321 bound_to 7965
  140.5544  144.0372  150.6141 LP  0  0  0  0  0  0  0  0  0  0  0  0  # atno 17342 bound_to 10162
  140.3437  143.3004  152.0561 LP  0  0  0  0  0  0  0  0  0  0  0  0  # atno 17343 bound_to 10162
  155.9839  130.3996  150.3337 LP  0  0  0  0  0  0  0  0  0  0  0  0  # atno 17370 bound_to 10713
  157.1471  131.0311  151.2902 LP  0  0  0  0  0  0  0  0  0  0  0  0  # atno 17371 bound_to 10713
  141.1915  133.6572  156.5459 LP  0  0  0  0  0  0  0  0  0  0  0  0  # atno 17394 bound_to 11000
  140.3967  134.7392  157.4755 LP  0  0  0  0  0  0  0  0  0  0  0  0  # atno 17395 bound_to 11000

$$$$
