AV-unprocessed.smi:3200|AV-procd|sdf|12236|dock6
  -GOLD-   2272018 73D 1   1.00000     0.00000
 Structure written by MMmdl.
 38 39  0  0  0  0  0  0  0  0  2 V2000
  151.8009  130.5998  156.7573 C   0  0  0  0  0  0  0  0  0  0  0  0
  150.9317  131.7716  156.4512 C   0  0  0  0  0  0  0  0  0  0  0  0
  150.5214  132.5956  157.4078 N   0  0  0  0  0  0  0  0  0  0  0  0
  149.7508  133.5395  156.7139 O   0  0  0  0  0  0  0  0  0  0  0  0
  149.7748  133.1523  155.4162 C   0  0  0  0  0  0  0  0  0  0  0  0
  149.0792  133.9941  154.3998 C   0  0  0  0  0  0  0  0  0  0  0  0
  148.0940  133.1836  153.5489 C   0  0  0  0  0  0  0  0  0  0  0  0
  147.1191  134.0681  152.8793 N   0  3  0  0  0  0  0  0  0  0  0  0
  146.3771  133.4407  151.7626 C   0  0  1  0  0  0  0  0  0  0  0  0
  146.0239  131.9676  152.0147 C   0  0  0  0  0  0  0  0  0  0  0  0
  144.7718  131.6951  151.1707 C   0  0  0  0  0  0  0  0  0  0  0  0
  144.3288  133.0523  150.6050 C   0  0  0  0  0  0  0  0  0  0  0  0
  145.0296  134.1281  151.4542 C   0  0  0  0  0  0  0  0  0  0  0  0
  144.1974  134.4175  152.7253 C   0  0  0  0  0  0  0  0  0  0  0  0
  145.2190  135.4306  150.6545 C   0  0  0  0  0  0  0  0  0  0  0  0
  150.5111  132.0675  155.1906 N   0  0  0  0  0  0  0  0  0  0  0  0
  152.3341  130.7474  157.6971 H   0  0  0  0  0  0  0  0  0  0  0  0
  152.5367  130.4547  155.9657 H   0  0  0  0  0  0  0  0  0  0  0  0
  151.1971  129.6958  156.8391 H   0  0  0  0  0  0  0  0  0  0  0  0
  148.5564  134.8002  154.9160 H   0  0  0  0  0  0  0  0  0  0  0  0
  149.8310  134.4637  153.7641 H   0  0  0  0  0  0  0  0  0  0  0  0
  148.6365  132.6101  152.7958 H   0  0  0  0  0  0  0  0  0  0  0  0
  147.5650  132.4686  154.1802 H   0  0  0  0  0  0  0  0  0  0  0  0
  146.4525  134.4009  153.5613 H   0  0  0  0  0  0  0  0  0  0  0  0
  147.0000  133.4919  150.8672 H   0  0  0  0  0  0  0  0  0  0  0  0
  146.8454  131.3000  151.7529 H   0  0  0  0  0  0  0  0  0  0  0  0
  145.7939  131.8024  153.0683 H   0  0  0  0  0  0  0  0  0  0  0  0
  144.9748  130.9868  150.3668 H   0  0  0  0  0  0  0  0  0  0  0  0
  143.9880  131.2635  151.7942 H   0  0  0  0  0  0  0  0  0  0  0  0
  144.6644  133.1218  149.5691 H   0  0  0  0  0  0  0  0  0  0  0  0
  143.2437  133.1615  150.5919 H   0  0  0  0  0  0  0  0  0  0  0  0
  143.2069  134.7932  152.4667 H   0  0  0  0  0  0  0  0  0  0  0  0
  144.6702  135.1728  153.3535 H   0  0  0  0  0  0  0  0  0  0  0  0
  144.0544  133.5252  153.3351 H   0  0  0  0  0  0  0  0  0  0  0  0
  144.2580  135.8550  150.3615 H   0  0  0  0  0  0  0  0  0  0  0  0
  145.7941  135.2642  149.7428 H   0  0  0  0  0  0  0  0  0  0  0  0
  145.7461  136.1829  151.2420 H   0  0  0  0  0  0  0  0  0  0  0  0
  147.6231  134.8614  152.5094 H   0  0  0  0  0  0  0  0  0  0  0  0
  1  2  1  0  0  0  0
  1 17  1  0  0  0  0
  1 18  1  0  0  0  0
  1 19  1  0  0  0  0
  2 16  1  0  0  0  0
  2  3  2  0  0  0  0
  3  4  1  0  0  0  0
  4  5  1  0  0  0  0
  5  6  1  0  0  0  0
  5 16  2  0  0  0  0
  6  7  1  0  0  0  0
  6 20  1  0  0  0  0
  6 21  1  0  0  0  0
  7  8  1  0  0  0  0
  7 22  1  0  0  0  0
  7 23  1  0  0  0  0
  8  9  1  0  0  0  0
  8 24  1  0  0  0  0
  8 38  1  0  0  0  0
  9 13  1  0  0  0  0
  9 10  1  0  0  0  0
  9 25  1  0  0  0  0
 10 11  1  0  0  0  0
 10 26  1  0  0  0  0
 10 27  1  0  0  0  0
 11 12  1  0  0  0  0
 11 28  1  0  0  0  0
 11 29  1  0  0  0  0
 12 13  1  0  0  0  0
 12 30  1  0  0  0  0
 12 31  1  0  0  0  0
 13 14  1  0  0  0  0
 13 15  1  0  0  0  0
 14 32  1  0  0  0  0
 14 33  1  0  0  0  0
 14 34  1  0  0  0  0
 15 35  1  0  0  0  0
 15 36  1  0  0  0  0
 15 37  1  0  0  0  0
M  CHG  1   8   1
M  END
> <s_m_source_file>
AV-unprocessed.smi

> <i_m_source_file_index>
3200

> <i_lp_mmshare_version>
43012

> <i_f3d_flags>
0

> <s_epik_input>
W0NIM11jMW5vYyhuMSlbQ0gyXVtDSDJdW05IXVtDQEBIXShDMihbQ0gzXSlbQ0gzXSlbQ0gyXVtDSDJdW0NIMl0y

> <s_epik_cmdline>
J2VwaWtfcHl0aG9uJywgJy1waCcsICc3LjAnLCAnLXRuJywgJzgnLCAnLW1hJywgJzIwMCcsICctbWV0YWxfYmluZGluZycsICctaW1hZScsICc8aW5maWxlLm1hZT4nLCAnLW9tYWUnLCAnPG91dGZpbGUubWFlPic=

> <r_lp_tautomer_probability>
1

> <r_epik_Ionization_Penalty>
0.000953161

> <r_epik_Ionization_Penalty_Charging>
0.000953161

> <r_epik_Ionization_Penalty_Neutral>
4.23223e-13

> <r_epik_State_Penalty>
0.000619331

> <r_epik_Charging_Adjusted_Penalty>
0.00157249

> <i_epik_Tot_Q>
1

> <i_epik_Tot_abs_Q>
1

> <r_epik_Metal_State_Penalty>
-0

> <b_epik_Metal_Only>
0

> <s_lp_Force_Field>
OPLS_2005

> <r_lp_Energy>
25.6419

> <b_lp_Chiralities_Consistent>
1

> <s_lp_Variant>
AV-unprocessed.smi:3200-2

> <Gold.Version>
5.8.1

> <Gold.Id.Protein>
6NUR|6NUR_protein|mol2

> <Gold.PLP.Fitness>
35.9993

> <Gold.PLP.PLP>
-27.8092

> <Gold.PLP.part.hbond>
-2.0000

> <Gold.PLP.part.metal>
0.0000

> <Gold.PLP.part.buried>
-3.4350

> <Gold.PLP.part.nonpolar>
-22.3467

> <Gold.PLP.part.repulsive>
0.0000

> <Gold.PLP.ligand.clash>
0.0000

> <Gold.PLP.ligand.torsion>
0.4115

> <Gold.PLP.Chemscore.Hbond>
3.0000

> <Gold.PLP.Chemscore.CHOScore>
0.0000

> <Gold.PLP.Chemscore.Metal>
0.0000

> <Gold.Chemscore.Hbonds>
donor molecule, donor type, donor heavy atom, donor atom, acceptor molecule, acceptor atom, score
      L1  H     8    38       P1  7948  2.00
      P1  H  6896  6908       L1     3  0.88

> <Gold.PLP.Chemscore.Internal.Correction>
0.0132

> <Gold.Rescore>
     Score         DG    S(hbond)    S(metal)    S(lipo)     H(rot)  DE(clash)    DE(int)     intcor
     13.90     -14.33       1.96        0.00      58.95       1.79       0.00       0.43       ----

> <Gold.Chemscore.Fitness>
13.8997

> <Gold.Chemscore.DG>
-14.3336

> <Gold.Chemscore.ZeroCoef>
-5.4800

> <Gold.Chemscore.Hbond>
1.9556

> <Gold.Chemscore.Metal>
0.0000

> <Gold.Chemscore.Lipo>
58.9508

> <Gold.Chemscore.Internal_Hbond>
0.0000

> <Gold.Chemscore.DEClash>
0.0030

> <Gold.Chemscore.DEInternal>
0.4309

> <Gold.Chemscore.Rot>
1.7872

> <Gold.Chemscore.Internal.Correction>
   9.000000E+99

> <Gold.Chemscore.Hbonds>
donor molecule, donor type, donor heavy atom, donor atom, acceptor molecule, acceptor atom, score
      L1  H     8    38       P1  7948  0.92
      P1  H  6896  6908       L1     3  0.56

> <Gold.Chemscore.Hbond.Weighted>
-6.5317

> <Gold.Chemscore.Metal.Weighted>
-0.0000

> <Gold.Chemscore.Lipo.Weighted>
-6.8972

> <Gold.Chemscore.Internal_Hbond.Weighted>
0.0000

> <Gold.Chemscore.DEClash.Weighted>
0.0030

> <Gold.Chemscore.DEInternal.Weighted>
0.4309

> <Gold.Chemscore.Rot.Weighted>
4.5753

> <Gold.Chemscore.Internal.Correction.Weighted>
   9.000000E+99

> <Gold.Protein.RotatedTorsions>
[ 6907 6896 6895 6894 ] final   93.31 input  -60.11 | X-H torsion
[ 7974 7965 7964 7962 ] final -160.07 input  175.53 | X-H torsion
[ 8008 7997 7996 7995 ] final  -99.65 input   59.86 | X-H torsion
[ 10167 10162 10161 10158 ] final  177.06 input  -65.29 | X-H torsion
[ 10718 10713 10712 10709 ] final  171.27 input   66.30 | X-H torsion
[ 10763 10752 10751 10750 ] final  100.03 input  -60.55 | X-H torsion
[ 11005 11000 10999 10996 ] final  -32.53 input  -57.11 | X-H torsion

> <Gold.Protein.ActiveResidues>
 VAL166  LYS551  ARG553  GLY616  TRP617  ASP618  TYR619  PRO620  LYS621  CYS622 
 ASP623  PHE694  ASN695  SER759  ASP760  ASP761  ALA762  ILE779  LEU786  VAL792 
 PHE793  MET794  SER795  GLU796  ALA797  LYS798  CYS799  TRP800  GLU811  SER814 

> <Gold.Protein.RotatedAtoms>
  152.5452  134.1368  159.8461 H   0  0  0  0  0  0  0  0  0  0  0  0  # atno 6907 bound_to 6896
  151.1408  133.4965  159.2604 H   0  0  0  0  0  0  0  0  0  0  0  0  # atno 6908 bound_to 6896
  151.1575  135.0267  159.8750 H   0  0  0  0  0  0  0  0  0  0  0  0  # atno 6909 bound_to 6896
  144.7441  140.3594  143.6099 H   0  0  0  0  0  0  0  0  0  0  0  0  # atno 7974 bound_to 7965
  154.8178  140.0446  157.1389 H   0  0  0  0  0  0  0  0  0  0  0  0  # atno 8008 bound_to 7997
  154.9294  140.3038  155.5155 H   0  0  0  0  0  0  0  0  0  0  0  0  # atno 8009 bound_to 7997
  156.2977  140.2326  156.4353 H   0  0  0  0  0  0  0  0  0  0  0  0  # atno 8010 bound_to 7997
  139.5238  144.2842  152.0520 H   0  0  0  0  0  0  0  0  0  0  0  0  # atno 10167 bound_to 10162
  156.9960  131.0162  151.2844 H   0  0  0  0  0  0  0  0  0  0  0  0  # atno 10718 bound_to 10713
  153.3089  135.4093  155.1318 H   0  0  0  0  0  0  0  0  0  0  0  0  # atno 10763 bound_to 10752
  154.8570  135.3559  154.5751 H   0  0  0  0  0  0  0  0  0  0  0  0  # atno 10764 bound_to 10752
  153.6179  135.7065  153.5380 H   0  0  0  0  0  0  0  0  0  0  0  0  # atno 10765 bound_to 10752
  140.9560  133.7192  156.1294 H   0  0  0  0  0  0  0  0  0  0  0  0  # atno 11005 bound_to 11000
  145.7193  139.1705  143.2494 LP  0  0  0  0  0  0  0  0  0  0  0  0  # atno 17320 bound_to 7965
  146.1289  140.7212  142.9422 LP  0  0  0  0  0  0  0  0  0  0  0  0  # atno 17321 bound_to 7965
  140.2296  144.4382  150.6306 LP  0  0  0  0  0  0  0  0  0  0  0  0  # atno 17342 bound_to 10162
  140.6364  143.2195  151.6386 LP  0  0  0  0  0  0  0  0  0  0  0  0  # atno 17343 bound_to 10162
  157.5424  130.8129  149.8045 LP  0  0  0  0  0  0  0  0  0  0  0  0  # atno 17370 bound_to 10713
  156.0189  130.3803  150.2024 LP  0  0  0  0  0  0  0  0  0  0  0  0  # atno 17371 bound_to 10713
  140.7536  134.4018  157.5537 LP  0  0  0  0  0  0  0  0  0  0  0  0  # atno 17394 bound_to 11000
  139.8862  134.8915  156.2597 LP  0  0  0  0  0  0  0  0  0  0  0  0  # atno 17395 bound_to 11000

$$$$
