AV-unprocessed.smi:3140|AV-procd|sdf|11961|dock3
  -GOLD-   2272017363D 1   1.00000     0.00000
 Structure written by MMmdl.
 37 38  0  0  0  0  0  0  0  0  1 V2000
  154.8339  140.5288  160.0937 C   0  0  0  0  0  0  0  0  0  0  0  0
  153.4003  140.4719  159.5371 C   0  0  1  0  0  0  0  0  0  0  0  0
  152.9707  141.8450  158.9819 C   0  0  0  0  0  0  0  0  0  0  0  0
  152.7253  142.8178  160.0330 N   0  0  0  0  0  0  0  0  0  0  0  0
  152.9879  142.7024  161.3819 C   0  0  0  0  0  0  0  0  0  0  0  0
  152.5889  143.8656  161.9754 C   0  0  0  0  0  0  0  0  0  0  0  0
  152.0920  144.6436  160.8925 C   0  0  0  0  0  0  0  0  0  0  0  0
  152.1777  144.0154  159.7310 N   0  0  0  0  0  0  0  0  0  0  0  0
  153.3165  139.4814  158.4687 N   0  0  0  0  0  0  0  0  0  0  0  0
  151.9958  139.4276  157.8612 C   0  0  0  0  0  0  0  0  0  0  0  0
  152.0017  140.2409  156.5583 C   0  0  0  0  0  0  0  0  0  0  0  0
  150.6666  140.7348  156.2350 N   0  0  0  0  0  0  0  0  0  0  0  0
  149.9373  141.5710  157.1734 C   0  0  0  0  0  0  0  0  0  0  0  0
  148.5308  141.7091  156.5730 C   0  0  0  0  0  0  0  0  0  0  0  0
  148.6464  141.2226  155.1241 C   0  0  0  0  0  0  0  0  0  0  0  0
  150.0012  140.5358  155.0910 C   0  0  0  0  0  0  0  0  0  0  0  0
  150.3995  139.8916  154.1215 O   0  0  0  0  0  0  0  0  0  0  0  0
  154.9211  141.2989  160.8604 H   0  0  0  0  0  0  0  0  0  0  0  0
  155.5562  140.7617  159.3104 H   0  0  0  0  0  0  0  0  0  0  0  0
  155.1325  139.5876  160.5545 H   0  0  0  0  0  0  0  0  0  0  0  0
  152.7153  140.1976  160.3406 H   0  0  0  0  0  0  0  0  0  0  0  0
  153.7553  142.2479  158.3406 H   0  0  0  0  0  0  0  0  0  0  0  0
  152.0799  141.7518  158.3578 H   0  0  0  0  0  0  0  0  0  0  0  0
  153.4298  141.8107  161.8013 H   0  0  0  0  0  0  0  0  0  0  0  0
  152.6441  144.1218  163.0230 H   0  0  0  0  0  0  0  0  0  0  0  0
  151.6761  145.6402  160.9157 H   0  0  0  0  0  0  0  0  0  0  0  0
  153.5894  138.5715  158.8123 H   0  0  0  0  0  0  0  0  0  0  0  0
  151.7172  138.3948  157.6547 H   0  0  0  0  0  0  0  0  0  0  0  0
  151.2577  139.8359  158.5526 H   0  0  0  0  0  0  0  0  0  0  0  0
  152.6871  141.0854  156.6467 H   0  0  0  0  0  0  0  0  0  0  0  0
  152.3685  139.6307  155.7309 H   0  0  0  0  0  0  0  0  0  0  0  0
  149.9114  141.1237  158.1679 H   0  0  0  0  0  0  0  0  0  0  0  0
  150.4288  142.5419  157.2468 H   0  0  0  0  0  0  0  0  0  0  0  0
  147.8272  141.0796  157.1192 H   0  0  0  0  0  0  0  0  0  0  0  0
  148.1661  142.7351  156.6315 H   0  0  0  0  0  0  0  0  0  0  0  0
  147.8441  140.5352  154.8545 H   0  0  0  0  0  0  0  0  0  0  0  0
  148.6451  142.0571  154.4222 H   0  0  0  0  0  0  0  0  0  0  0  0
  1  2  1  0  0  0  0
  1 18  1  0  0  0  0
  1 19  1  0  0  0  0
  1 20  1  0  0  0  0
  2  3  1  0  0  0  0
  2  9  1  0  0  0  0
  2 21  1  0  0  0  0
  3  4  1  0  0  0  0
  3 22  1  0  0  0  0
  3 23  1  0  0  0  0
  4  8  1  0  0  0  0
  4  5  1  0  0  0  0
  5  6  2  0  0  0  0
  5 24  1  0  0  0  0
  6  7  1  0  0  0  0
  6 25  1  0  0  0  0
  7  8  2  0  0  0  0
  7 26  1  0  0  0  0
  9 10  1  0  0  0  0
  9 27  1  0  0  0  0
 10 11  1  0  0  0  0
 10 28  1  0  0  0  0
 10 29  1  0  0  0  0
 11 12  1  0  0  0  0
 11 30  1  0  0  0  0
 11 31  1  0  0  0  0
 12 16  1  0  0  0  0
 12 13  1  0  0  0  0
 13 14  1  0  0  0  0
 13 32  1  0  0  0  0
 13 33  1  0  0  0  0
 14 15  1  0  0  0  0
 14 34  1  0  0  0  0
 14 35  1  0  0  0  0
 15 16  1  0  0  0  0
 15 36  1  0  0  0  0
 15 37  1  0  0  0  0
 16 17  2  0  0  0  0
M  END
> <s_m_source_file>
AV-unprocessed.smi

> <i_m_source_file_index>
3140

> <i_lp_mmshare_version>
43012

> <i_f3d_flags>
0

> <s_epik_input>
bjFbY0hdW2NIXVtjSF1uMVtDSDJdW0NAQEhdKFtDSDNdKVtOSF1bQ0gyXVtDSDJdTjJbQ0gyXVtDSDJdW0NIMl1DMj1P

> <s_epik_cmdline>
J2VwaWtfcHl0aG9uJywgJy1waCcsICc3LjAnLCAnLXRuJywgJzgnLCAnLW1hJywgJzIwMCcsICctbWV0YWxfYmluZGluZycsICctaW1hZScsICc8aW5maWxlLm1hZT4nLCAnLW9tYWUnLCAnPG91dGZpbGUubWFlPic=

> <r_lp_tautomer_probability>
1

> <r_epik_Ionization_Penalty>
2.53587

> <r_epik_Ionization_Penalty_Charging>
0

> <r_epik_Ionization_Penalty_Neutral>
2.53587

> <r_epik_State_Penalty>
2.70334

> <r_epik_Charging_Adjusted_Penalty>
2.70334

> <i_epik_Tot_Q>
0

> <i_epik_Tot_abs_Q>
0

> <r_epik_Metal_State_Penalty>
2.7033

> <b_epik_Metal_Only>
0

> <s_lp_Force_Field>
OPLS_2005

> <r_lp_Energy>
20.5339

> <b_lp_Chiralities_Consistent>
1

> <s_lp_Variant>
AV-unprocessed.smi:3140-4

> <Gold.Version>
5.8.1

> <Gold.Id.Protein>
6NUR|6NUR_protein|mol2

> <Gold.PLP.Fitness>
42.9170

> <Gold.PLP.PLP>
-37.9679

> <Gold.PLP.part.hbond>
-2.0000

> <Gold.PLP.part.metal>
0.0000

> <Gold.PLP.part.buried>
-3.9978

> <Gold.PLP.part.nonpolar>
-31.8839

> <Gold.PLP.part.repulsive>
0.7606

> <Gold.PLP.ligand.clash>
0.0000

> <Gold.PLP.ligand.torsion>
0.5947

> <Gold.PLP.Chemscore.Hbond>
2.0000

> <Gold.PLP.Chemscore.CHOScore>
0.0000

> <Gold.PLP.Chemscore.Metal>
0.0000

> <Gold.Chemscore.Hbonds>
donor molecule, donor type, donor heavy atom, donor atom, acceptor molecule, acceptor atom, score
      P1  H  7989  7998       L1    17  1.00
      P1  H  7997  8009       L1     9  1.00

> <Gold.PLP.Chemscore.Internal.Correction>
0.1385

> <Gold.Rescore>
     Score         DG    S(hbond)    S(metal)    S(lipo)     H(rot)  DE(clash)    DE(int)     intcor
     12.94     -14.44       1.08        0.00      89.04       1.97       0.14       1.37       ----

> <Gold.Chemscore.Fitness>
12.9357

> <Gold.Chemscore.DG>
-14.4425

> <Gold.Chemscore.ZeroCoef>
-5.4800

> <Gold.Chemscore.Hbond>
1.0758

> <Gold.Chemscore.Metal>
0.0000

> <Gold.Chemscore.Lipo>
89.0437

> <Gold.Chemscore.Internal_Hbond>
0.0000

> <Gold.Chemscore.DEClash>
0.1365

> <Gold.Chemscore.DEInternal>
1.3702

> <Gold.Chemscore.Rot>
1.9722

> <Gold.Chemscore.Internal.Correction>
   9.000000E+99

> <Gold.Chemscore.Hbonds>
donor molecule, donor type, donor heavy atom, donor atom, acceptor molecule, acceptor atom, score
      P1  H  7989  7998       L1    17  0.44
      P1  H  7997  8009       L1     9  0.22

> <Gold.Chemscore.Hbond.Weighted>
-3.5931

> <Gold.Chemscore.Metal.Weighted>
-0.0000

> <Gold.Chemscore.Lipo.Weighted>
-10.4181

> <Gold.Chemscore.Internal_Hbond.Weighted>
0.0000

> <Gold.Chemscore.DEClash.Weighted>
0.1365

> <Gold.Chemscore.DEInternal.Weighted>
1.3702

> <Gold.Chemscore.Rot.Weighted>
5.0487

> <Gold.Chemscore.Internal.Correction.Weighted>
   9.000000E+99

> <Gold.Protein.RotatedTorsions>
[ 6907 6896 6895 6894 ] final   53.95 input  -60.11 | X-H torsion
[ 7974 7965 7964 7962 ] final -179.41 input  175.53 | X-H torsion
[ 8008 7997 7996 7995 ] final  143.81 input   59.86 | X-H torsion
[ 10167 10162 10161 10158 ] final  -93.17 input  -65.29 | X-H torsion
[ 10718 10713 10712 10709 ] final  104.57 input   66.30 | X-H torsion
[ 10763 10752 10751 10750 ] final  169.73 input  -60.55 | X-H torsion
[ 11005 11000 10999 10996 ] final   66.99 input  -57.11 | X-H torsion

> <Gold.Protein.ActiveResidues>
 VAL166  LYS551  ARG553  GLY616  TRP617  ASP618  TYR619  PRO620  LYS621  CYS622 
 ASP623  PHE694  ASN695  SER759  ASP760  ASP761  ALA762  ILE779  LEU786  VAL792 
 PHE793  MET794  SER795  GLU796  ALA797  LYS798  CYS799  TRP800  GLU811  SER814 

> <Gold.Protein.RotatedAtoms>
  152.3390  134.7160  160.0268 H   0  0  0  0  0  0  0  0  0  0  0  0  # atno 6907 bound_to 6896
  151.7552  133.3324  159.3410 H   0  0  0  0  0  0  0  0  0  0  0  0  # atno 6908 bound_to 6896
  150.7468  134.6089  159.6120 H   0  0  0  0  0  0  0  0  0  0  0  0  # atno 6909 bound_to 6896
  144.7136  140.0722  143.6429 H   0  0  0  0  0  0  0  0  0  0  0  0  # atno 7974 bound_to 7965
  156.2922  140.2252  156.4951 H   0  0  0  0  0  0  0  0  0  0  0  0  # atno 8008 bound_to 7997
  154.7737  140.0465  157.1093 H   0  0  0  0  0  0  0  0  0  0  0  0  # atno 8009 bound_to 7997
  154.9842  140.3082  155.4936 H   0  0  0  0  0  0  0  0  0  0  0  0  # atno 8010 bound_to 7997
  140.3273  143.3014  151.9980 H   0  0  0  0  0  0  0  0  0  0  0  0  # atno 10167 bound_to 10162
  157.6735  131.0807  150.5726 H   0  0  0  0  0  0  0  0  0  0  0  0  # atno 10718 bound_to 10713
  154.3874  135.2754  155.2175 H   0  0  0  0  0  0  0  0  0  0  0  0  # atno 10763 bound_to 10752
  154.4255  135.5990  153.6040 H   0  0  0  0  0  0  0  0  0  0  0  0  # atno 10764 bound_to 10752
  152.9833  135.5983  154.4125 H   0  0  0  0  0  0  0  0  0  0  0  0  # atno 10765 bound_to 10752
  139.9798  134.6763  156.0284 H   0  0  0  0  0  0  0  0  0  0  0  0  # atno 11005 bound_to 11000
  145.9774  139.2915  143.1062 LP  0  0  0  0  0  0  0  0  0  0  0  0  # atno 17320 bound_to 7965
  145.9049  140.9218  143.0484 LP  0  0  0  0  0  0  0  0  0  0  0  0  # atno 17321 bound_to 7965
  139.4863  144.6263  151.7158 LP  0  0  0  0  0  0  0  0  0  0  0  0  # atno 17342 bound_to 10162
  140.5429  144.0550  150.6095 LP  0  0  0  0  0  0  0  0  0  0  0  0  # atno 17343 bound_to 10162
  156.6028  130.4359  149.5890 LP  0  0  0  0  0  0  0  0  0  0  0  0  # atno 17370 bound_to 10713
  156.2493  130.6897  151.1629 LP  0  0  0  0  0  0  0  0  0  0  0  0  # atno 17371 bound_to 10713
  141.1471  133.6554  156.3901 LP  0  0  0  0  0  0  0  0  0  0  0  0  # atno 17394 bound_to 11000
  140.5120  134.6386  157.5288 LP  0  0  0  0  0  0  0  0  0  0  0  0  # atno 17395 bound_to 11000

$$$$
