AV-unprocessed.smi:713|AV-procd|sdf|3477|dock2
  -GOLD-   22720 0473D 1   1.00000     0.00000
 Structure written by MMmdl.
 41 42  0  0  0  0  0  0  0  0  1 V2000
  144.4019  136.0657  153.5389 C   0  0  0  0  0  0  0  0  0  0  0  0
  144.7840  136.3012  152.0661 C   0  0  1  0  0  0  0  0  0  0  0  0
  145.9150  137.3283  151.9092 C   0  0  0  0  0  0  0  0  0  0  0  0
  146.4589  137.5007  150.8174 O   0  0  0  0  0  0  0  0  0  0  0  0
  146.2569  138.0080  153.0152 N   0  0  0  0  0  0  0  0  0  0  0  0
  147.2922  139.0339  153.0893 C   0  0  1  0  0  0  0  0  0  0  0  0
  146.6885  140.3379  153.6411 C   0  0  0  0  0  0  0  0  0  0  0  0
  147.7574  141.4331  153.7776 C   0  0  0  0  0  0  0  0  0  0  0  0
  148.9314  140.9607  154.6490 C   0  0  0  0  0  0  0  0  0  0  0  0
  149.5460  139.6567  154.1080 C   0  0  1  0  0  0  0  0  0  0  0  0
  150.9222  139.1081  155.2169 S   0  0  0  0  0  0  0  0  0  0  0  0
  151.5345  137.5846  154.3839 C   0  0  0  0  0  0  0  0  0  0  0  0
  151.9851  140.1233  155.1681 O   0  0  0  0  0  0  0  0  0  0  0  0
  150.3526  138.7165  156.5152 O   0  0  0  0  0  0  0  0  0  0  0  0
  148.4693  138.5622  153.9679 C   0  0  0  0  0  0  0  0  0  0  0  0
  145.1417  135.0505  151.4096 N   0  0  0  0  0  0  0  0  0  0  0  0
  144.3955  134.2851  150.5339 C   0  0  0  0  0  0  0  0  0  0  0  0
  145.1537  133.2043  150.1859 C   0  0  0  0  0  0  0  0  0  0  0  0
  146.3641  133.3948  150.9081 C   0  0  0  0  0  0  0  0  0  0  0  0
  146.3544  134.4984  151.6381 N   0  0  0  0  0  0  0  0  0  0  0  0
  144.1284  137.0003  154.0295 H   0  0  0  0  0  0  0  0  0  0  0  0
  145.2196  135.6191  154.1061 H   0  0  0  0  0  0  0  0  0  0  0  0
  143.5453  135.3952  153.6136 H   0  0  0  0  0  0  0  0  0  0  0  0
  143.9022  136.7070  151.5655 H   0  0  0  0  0  0  0  0  0  0  0  0
  145.7552  137.8049  153.8680 H   0  0  0  0  0  0  0  0  0  0  0  0
  147.6613  139.2322  152.0810 H   0  0  0  0  0  0  0  0  0  0  0  0
  145.8876  140.6862  152.9877 H   0  0  0  0  0  0  0  0  0  0  0  0
  146.2342  140.1530  154.6158 H   0  0  0  0  0  0  0  0  0  0  0  0
  148.1249  141.7113  152.7891 H   0  0  0  0  0  0  0  0  0  0  0  0
  147.3149  142.3322  154.2071 H   0  0  0  0  0  0  0  0  0  0  0  0
  149.6907  141.7419  154.6933 H   0  0  0  0  0  0  0  0  0  0  0  0
  148.5871  140.8076  155.6726 H   0  0  0  0  0  0  0  0  0  0  0  0
  149.9861  139.8543  153.1300 H   0  0  0  0  0  0  0  0  0  0  0  0
  152.4197  137.2222  154.9060 H   0  0  0  0  0  0  0  0  0  0  0  0
  151.7948  137.8112  153.3503 H   0  0  0  0  0  0  0  0  0  0  0  0
  150.7689  136.8103  154.4089 H   0  0  0  0  0  0  0  0  0  0  0  0
  148.0984  138.2833  154.9552 H   0  0  0  0  0  0  0  0  0  0  0  0
  148.9076  137.6626  153.5375 H   0  0  0  0  0  0  0  0  0  0  0  0
  143.3977  134.5711  150.2343 H   0  0  0  0  0  0  0  0  0  0  0  0
  144.8841  132.4004  149.5171 H   0  0  0  0  0  0  0  0  0  0  0  0
  147.2441  132.7689  150.9231 H   0  0  0  0  0  0  0  0  0  0  0  0
  1  2  1  0  0  0  0
  1 21  1  0  0  0  0
  1 22  1  0  0  0  0
  1 23  1  0  0  0  0
  2  3  1  0  0  0  0
  2 16  1  0  0  0  0
  2 24  1  0  0  0  0
  3  4  2  0  0  0  0
  3  5  1  0  0  0  0
  5  6  1  0  0  0  0
  5 25  1  0  0  0  0
  6 15  1  0  0  0  0
  6  7  1  0  0  0  0
  6 26  1  0  0  0  0
  7  8  1  0  0  0  0
  7 27  1  0  0  0  0
  7 28  1  0  0  0  0
  8  9  1  0  0  0  0
  8 29  1  0  0  0  0
  8 30  1  0  0  0  0
  9 10  1  0  0  0  0
  9 31  1  0  0  0  0
  9 32  1  0  0  0  0
 10 11  1  0  0  0  0
 10 15  1  0  0  0  0
 10 33  1  0  0  0  0
 11 12  1  0  0  0  0
 11 13  2  0  0  0  0
 11 14  2  0  0  0  0
 12 34  1  0  0  0  0
 12 35  1  0  0  0  0
 12 36  1  0  0  0  0
 15 37  1  0  0  0  0
 15 38  1  0  0  0  0
 16 20  1  0  0  0  0
 16 17  1  0  0  0  0
 17 18  2  0  0  0  0
 17 39  1  0  0  0  0
 18 19  1  0  0  0  0
 18 40  1  0  0  0  0
 19 20  2  0  0  0  0
 19 41  1  0  0  0  0
M  END
> <s_m_source_file>
AV-unprocessed.smi

> <i_m_source_file_index>
713

> <i_lp_mmshare_version>
43012

> <i_f3d_flags>
0

> <s_epik_input>
bjFbY0hdW2NIXVtjSF1uMVtDQEhdKFtDSDNdKUMoPU8pW05IXVtDQEBIXTJbQ0gyXVtDSDJdW0NIMl1bQ0BIXShbQ0gyXTIpUyg9TykoPU8pW0NIM10=

> <s_epik_cmdline>
J2VwaWtfcHl0aG9uJywgJy1waCcsICc3LjAnLCAnLXRuJywgJzgnLCAnLW1hJywgJzIwMCcsICctbWV0YWxfYmluZGluZycsICctaW1hZScsICc8aW5maWxlLm1hZT4nLCAnLW9tYWUnLCAnPG91dGZpbGUubWFlPic=

> <r_lp_tautomer_probability>
1

> <r_epik_Ionization_Penalty>
4.07816e-05

> <r_epik_Ionization_Penalty_Charging>
0

> <r_epik_Ionization_Penalty_Neutral>
4.07816e-05

> <r_epik_State_Penalty>
-0

> <r_epik_Charging_Adjusted_Penalty>
0

> <i_epik_Tot_Q>
0

> <i_epik_Tot_abs_Q>
0

> <r_epik_Metal_State_Penalty>
-0

> <b_epik_Metal_Only>
0

> <s_lp_Force_Field>
OPLS_2005

> <r_lp_Energy>
7.49251

> <b_lp_Chiralities_Consistent>
1

> <s_lp_Variant>
AV-unprocessed.smi:713-4

> <Gold.Version>
5.8.1

> <Gold.Id.Protein>
6NUR|6NUR_protein|mol2

> <Gold.PLP.Fitness>
40.6303

> <Gold.PLP.PLP>
-31.6002

> <Gold.PLP.part.hbond>
-2.0000

> <Gold.PLP.part.metal>
0.0000

> <Gold.PLP.part.buried>
-1.5863

> <Gold.PLP.part.nonpolar>
-31.7534

> <Gold.PLP.part.repulsive>
3.2170

> <Gold.PLP.ligand.clash>
0.4929

> <Gold.PLP.ligand.torsion>
0.7172

> <Gold.PLP.Chemscore.Hbond>
1.8160

> <Gold.PLP.Chemscore.CHOScore>
1.7693

> <Gold.PLP.Chemscore.Metal>
0.0000

> <Gold.Chemscore.Hbonds>
donor molecule, donor type, donor heavy atom, donor atom, acceptor molecule, acceptor atom, score
      P1  H  7954  7966       L1     4  1.00
      P1  H  7989  7998       L1    13  0.80
      L1  C    17    39       P1 10186  1.00
      L1  C    19    41       P1 10747  0.69

> <Gold.PLP.Chemscore.Internal.Correction>
0.2015

> <Gold.Rescore>
     Score         DG    S(hbond)    S(metal)    S(lipo)     H(rot)  DE(clash)    DE(int)     intcor
     12.84     -15.33       1.62        0.00      75.59       1.72       1.89       0.61       ----

> <Gold.Chemscore.Fitness>
12.8415

> <Gold.Chemscore.DG>
-15.3329

> <Gold.Chemscore.ZeroCoef>
-5.4800

> <Gold.Chemscore.Hbond>
1.6243

> <Gold.Chemscore.Metal>
0.0000

> <Gold.Chemscore.Lipo>
75.5867

> <Gold.Chemscore.Internal_Hbond>
0.0000

> <Gold.Chemscore.DEClash>
1.8862

> <Gold.Chemscore.DEInternal>
0.6052

> <Gold.Chemscore.Rot>
1.7249

> <Gold.Chemscore.Internal.Correction>
   9.000000E+99

> <Gold.Chemscore.Hbonds>
donor molecule, donor type, donor heavy atom, donor atom, acceptor molecule, acceptor atom, score
      P1  H  7954  7966       L1     4  0.96
      P1  H  7989  7998       L1    13  0.24

> <Gold.Chemscore.Hbond.Weighted>
-5.4250

> <Gold.Chemscore.Metal.Weighted>
-0.0000

> <Gold.Chemscore.Lipo.Weighted>
-8.8436

> <Gold.Chemscore.Internal_Hbond.Weighted>
0.0000

> <Gold.Chemscore.DEClash.Weighted>
1.8862

> <Gold.Chemscore.DEInternal.Weighted>
0.6052

> <Gold.Chemscore.Rot.Weighted>
4.4157

> <Gold.Chemscore.Internal.Correction.Weighted>
   9.000000E+99

> <Gold.Protein.RotatedTorsions>
[ 6907 6896 6895 6894 ] final   81.53 input  -60.11 | X-H torsion
[ 7974 7965 7964 7962 ] final -155.87 input  175.53 | X-H torsion
[ 8008 7997 7996 7995 ] final  -22.81 input   59.86 | X-H torsion
[ 10167 10162 10161 10158 ] final   10.51 input  -65.29 | X-H torsion
[ 10718 10713 10712 10709 ] final   41.94 input   66.30 | X-H torsion
[ 10763 10752 10751 10750 ] final   48.89 input  -60.55 | X-H torsion
[ 11005 11000 10999 10996 ] final  -52.81 input  -57.11 | X-H torsion

> <Gold.Protein.ActiveResidues>
 VAL166  LYS551  ARG553  GLY616  TRP617  ASP618  TYR619  PRO620  LYS621  CYS622 
 ASP623  PHE694  ASN695  SER759  ASP760  ASP761  ALA762  ILE779  LEU786  VAL792 
 PHE793  MET794  SER795  GLU796  ALA797  LYS798  CYS799  TRP800  GLU811  SER814 

> <Gold.Protein.RotatedAtoms>
  152.5271  134.3189  159.9140 H   0  0  0  0  0  0  0  0  0  0  0  0  # atno 6907 bound_to 6896
  151.3139  133.4062  159.2656 H   0  0  0  0  0  0  0  0  0  0  0  0  # atno 6908 bound_to 6896
  151.0016  134.9343  159.8014 H   0  0  0  0  0  0  0  0  0  0  0  0  # atno 6909 bound_to 6896
  144.7620  140.4189  143.5970 H   0  0  0  0  0  0  0  0  0  0  0  0  # atno 7974 bound_to 7965
  154.4622  140.1998  156.0214 H   0  0  0  0  0  0  0  0  0  0  0  0  # atno 8008 bound_to 7997
  156.0861  140.3264  155.7727 H   0  0  0  0  0  0  0  0  0  0  0  0  # atno 8009 bound_to 7997
  155.5033  140.0555  157.2926 H   0  0  0  0  0  0  0  0  0  0  0  0  # atno 8010 bound_to 7997
  140.6189  143.8247  150.7151 H   0  0  0  0  0  0  0  0  0  0  0  0  # atno 10167 bound_to 10162
  157.3992  130.7850  149.7334 H   0  0  0  0  0  0  0  0  0  0  0  0  # atno 10718 bound_to 10713
  152.9789  135.5929  154.4000 H   0  0  0  0  0  0  0  0  0  0  0  0  # atno 10763 bound_to 10752
  154.3647  135.2767  155.2302 H   0  0  0  0  0  0  0  0  0  0  0  0  # atno 10764 bound_to 10752
  154.4284  135.6042  153.6108 H   0  0  0  0  0  0  0  0  0  0  0  0  # atno 10765 bound_to 10752
  141.0944  133.6627  156.4079 H   0  0  0  0  0  0  0  0  0  0  0  0  # atno 11005 bound_to 11000
  145.6590  139.1578  143.2819 LP  0  0  0  0  0  0  0  0  0  0  0  0  # atno 17320 bound_to 7965
  146.1691  140.6672  142.9241 LP  0  0  0  0  0  0  0  0  0  0  0  0  # atno 17321 bound_to 7965
  140.1833  143.4097  152.1917 LP  0  0  0  0  0  0  0  0  0  0  0  0  # atno 17342 bound_to 10162
  139.5422  144.7267  151.4697 LP  0  0  0  0  0  0  0  0  0  0  0  0  # atno 17343 bound_to 10162
  155.9818  130.4015  150.3448 LP  0  0  0  0  0  0  0  0  0  0  0  0  # atno 17370 bound_to 10713
  157.1574  131.0336  151.2857 LP  0  0  0  0  0  0  0  0  0  0  0  0  # atno 17371 bound_to 10713
  140.5176  134.6335  157.5307 LP  0  0  0  0  0  0  0  0  0  0  0  0  # atno 17394 bound_to 11000
  139.9776  134.7189  155.9919 LP  0  0  0  0  0  0  0  0  0  0  0  0  # atno 17395 bound_to 11000

$$$$
