AV-unprocessed.smi:2131|AV-procd|sdf|8690|dock6
  -GOLD-   2272011443D 1   1.00000     0.00000
 Structure written by MMmdl.
 41 43  0  0  0  0  0  0  0  0  2 V2000
  147.1530  141.4736  160.0258 N   0  0  0  0  0  0  0  0  0  0  0  0
  146.9156  142.1201  159.0960 C   0  0  0  0  0  0  0  0  0  0  0  0
  146.6133  142.9417  157.9143 C   0  0  0  0  0  0  0  0  0  0  0  0
  146.6918  142.1407  156.6313 C   0  0  0  0  0  0  0  0  0  0  0  0
  146.4333  142.7595  155.3927 C   0  0  0  0  0  0  0  0  0  0  0  0
  146.5025  142.0114  154.2019 C   0  0  0  0  0  0  0  0  0  0  0  0
  146.8273  140.6395  154.2281 C   0  0  0  0  0  0  0  0  0  0  0  0
  146.8700  139.9837  153.0165 O   0  0  0  0  0  0  0  0  0  0  0  0
  147.2557  138.6154  153.0046 C   0  0  0  0  0  0  0  0  0  0  0  0
  146.1654  137.7987  152.2962 C   0  0  1  0  0  0  0  0  0  0  0  0
  146.2624  138.0254  150.9038 O   0  0  0  0  0  0  0  0  0  0  0  0
  146.2817  136.2885  152.5841 C   0  0  0  0  0  0  0  0  0  0  0  0
  145.2936  135.4905  151.8471 N   0  0  0  0  0  0  0  0  0  0  0  0
  144.0867  135.8500  151.3320 C   0  0  0  0  0  0  0  0  0  0  0  0
  143.5471  134.7470  150.7425 N   0  3  0  0  0  0  0  0  0  0  0  0
  144.4221  133.6675  150.8834 C   0  0  0  0  0  0  0  0  0  0  0  0
  144.3186  132.3469  150.4571 C   0  0  0  0  0  0  0  0  0  0  0  0
  145.3978  131.4944  150.7705 C   0  0  0  0  0  0  0  0  0  0  0  0
  146.5235  131.9632  151.4791 C   0  0  0  0  0  0  0  0  0  0  0  0
  146.6189  133.3045  151.9048 C   0  0  0  0  0  0  0  0  0  0  0  0
  145.5470  134.1394  151.5922 C   0  0  0  0  0  0  0  0  0  0  0  0
  147.0876  140.0233  155.4784 C   0  0  0  0  0  0  0  0  0  0  0  0
  147.0195  140.7713  156.6700 C   0  0  0  0  0  0  0  0  0  0  0  0
  145.6150  143.3635  158.0334 H   0  0  0  0  0  0  0  0  0  0  0  0
  147.3186  143.7726  157.8818 H   0  0  0  0  0  0  0  0  0  0  0  0
  146.1792  143.8086  155.3529 H   0  0  0  0  0  0  0  0  0  0  0  0
  146.3004  142.4957  153.2576 H   0  0  0  0  0  0  0  0  0  0  0  0
  148.2000  138.5102  152.4675 H   0  0  0  0  0  0  0  0  0  0  0  0
  147.4003  138.2452  154.0212 H   0  0  0  0  0  0  0  0  0  0  0  0
  145.1887  138.1615  152.6181 H   0  0  0  0  0  0  0  0  0  0  0  0
  145.4001  138.2232  150.5710 H   0  0  0  0  0  0  0  0  0  0  0  0
  147.2714  135.9241  152.3042 H   0  0  0  0  0  0  0  0  0  0  0  0
  146.1649  136.0805  153.6485 H   0  0  0  0  0  0  0  0  0  0  0  0
  143.6371  136.8312  151.3857 H   0  0  0  0  0  0  0  0  0  0  0  0
  143.4579  131.9849  149.9141 H   0  0  0  0  0  0  0  0  0  0  0  0
  145.3610  130.4598  150.4614 H   0  0  0  0  0  0  0  0  0  0  0  0
  147.3305  131.2799  151.7016 H   0  0  0  0  0  0  0  0  0  0  0  0
  147.4840  133.6558  152.4478 H   0  0  0  0  0  0  0  0  0  0  0  0
  147.3426  138.9772  155.5512 H   0  0  0  0  0  0  0  0  0  0  0  0
  147.2185  140.2894  157.6161 H   0  0  0  0  0  0  0  0  0  0  0  0
  142.6466  134.7349  150.2808 H   0  0  0  0  0  0  0  0  0  0  0  0
  1  2  3  0  0  0  0
  2  3  1  0  0  0  0
  3  4  1  0  0  0  0
  3 24  1  0  0  0  0
  3 25  1  0  0  0  0
  4 23  1  0  0  0  0
  4  5  2  0  0  0  0
  5  6  1  0  0  0  0
  5 26  1  0  0  0  0
  6  7  2  0  0  0  0
  6 27  1  0  0  0  0
  7  8  1  0  0  0  0
  7 22  1  0  0  0  0
  8  9  1  0  0  0  0
  9 10  1  0  0  0  0
  9 28  1  0  0  0  0
  9 29  1  0  0  0  0
 10 11  1  0  0  0  0
 10 12  1  0  0  0  0
 10 30  1  0  0  0  0
 11 31  1  0  0  0  0
 12 13  1  0  0  0  0
 12 32  1  0  0  0  0
 12 33  1  0  0  0  0
 13 21  1  0  0  0  0
 13 14  1  0  0  0  0
 14 15  2  0  0  0  0
 14 34  1  0  0  0  0
 15 16  1  0  0  0  0
 15 41  1  0  0  0  0
 16 21  2  0  0  0  0
 16 17  1  0  0  0  0
 17 18  2  0  0  0  0
 17 35  1  0  0  0  0
 18 19  1  0  0  0  0
 18 36  1  0  0  0  0
 19 20  2  0  0  0  0
 19 37  1  0  0  0  0
 20 21  1  0  0  0  0
 20 38  1  0  0  0  0
 22 23  2  0  0  0  0
 22 39  1  0  0  0  0
 23 40  1  0  0  0  0
M  CHG  1  15   1
M  END
> <s_m_source_file>
AV-unprocessed.smi

> <i_m_source_file_index>
2131

> <i_lp_mmshare_version>
43012

> <i_f3d_flags>
0

> <s_epik_input>
TiNDW0NIMl1jMVtjSF1bY0hdYyhbY0hdW2NIXTEpT1tDSDJdW0NASF0oW09IXSlbQ0gyXW4oW2NIXW4yKWMoYzIzKVtjSF1bY0hdW2NIXVtjSF0z

> <s_epik_cmdline>
J2VwaWtfcHl0aG9uJywgJy1waCcsICc3LjAnLCAnLXRuJywgJzgnLCAnLW1hJywgJzIwMCcsICctbWV0YWxfYmluZGluZycsICctaW1hZScsICc8aW5maWxlLm1hZT4nLCAnLW9tYWUnLCAnPG91dGZpbGUubWFlPic=

> <r_lp_tautomer_probability>
1

> <r_epik_Ionization_Penalty>
1.3774

> <r_epik_Ionization_Penalty_Charging>
1.37739

> <r_epik_Ionization_Penalty_Neutral>
2.3994e-06

> <r_epik_State_Penalty>
1.45762

> <r_epik_Charging_Adjusted_Penalty>
2.83501

> <i_epik_Tot_Q>
1

> <i_epik_Tot_abs_Q>
1

> <r_epik_Metal_State_Penalty>
5.49752

> <b_epik_Metal_Only>
0

> <s_lp_Force_Field>
OPLS_2005

> <r_lp_Energy>
20.3244

> <b_lp_Chiralities_Consistent>
1

> <s_lp_Variant>
AV-unprocessed.smi:2131-4

> <Gold.Version>
5.8.1

> <Gold.Id.Protein>
6NUR|6NUR_protein|mol2

> <Gold.PLP.Fitness>
53.2823

> <Gold.PLP.PLP>
-36.8539

> <Gold.PLP.part.hbond>
-4.8791

> <Gold.PLP.part.metal>
0.0000

> <Gold.PLP.part.buried>
-2.3283

> <Gold.PLP.part.nonpolar>
-31.2781

> <Gold.PLP.part.repulsive>
0.2835

> <Gold.PLP.ligand.clash>
0.0000

> <Gold.PLP.ligand.torsion>
0.8416

> <Gold.PLP.Chemscore.Hbond>
5.0000

> <Gold.PLP.Chemscore.CHOScore>
1.0000

> <Gold.PLP.Chemscore.Metal>
0.0000

> <Gold.Chemscore.Hbonds>
donor molecule, donor type, donor heavy atom, donor atom, acceptor molecule, acceptor atom, score
      L1  H    11    31       P1 10171  1.00
      L1  H    15    41       P1 10186  2.00
      P1  H  6933  6944       L1     1  0.09
      P1  H  7954  7966       L1    11  0.68
      L1  C    14    34       P1 10171  0.94

> <Gold.PLP.Chemscore.Internal.Correction>
0.1115

> <Gold.Rescore>
     Score         DG    S(hbond)    S(metal)    S(lipo)     H(rot)  DE(clash)    DE(int)     intcor
     18.78     -20.74       3.52        0.00      91.56       2.81       1.12       0.84       ----

> <Gold.Chemscore.Fitness>
18.7760

> <Gold.Chemscore.DG>
-20.7379

> <Gold.Chemscore.ZeroCoef>
-5.4800

> <Gold.Chemscore.Hbond>
3.5177

> <Gold.Chemscore.Metal>
0.0000

> <Gold.Chemscore.Lipo>
91.5632

> <Gold.Chemscore.Internal_Hbond>
0.0000

> <Gold.Chemscore.DEClash>
1.1173

> <Gold.Chemscore.DEInternal>
0.8446

> <Gold.Chemscore.Rot>
2.8140

> <Gold.Chemscore.Internal.Correction>
   9.000000E+99

> <Gold.Chemscore.Hbonds>
donor molecule, donor type, donor heavy atom, donor atom, acceptor molecule, acceptor atom, score
      L1  H    11    31       P1 10171  1.00
      L1  H    15    41       P1 10186  0.30
      P1  H  6933  6944       L1     1  0.10
      P1  H  7954  7966       L1    11  0.66

> <Gold.Chemscore.Hbond.Weighted>
-11.7490

> <Gold.Chemscore.Metal.Weighted>
-0.0000

> <Gold.Chemscore.Lipo.Weighted>
-10.7129

> <Gold.Chemscore.Internal_Hbond.Weighted>
0.0000

> <Gold.Chemscore.DEClash.Weighted>
1.1173

> <Gold.Chemscore.DEInternal.Weighted>
0.8446

> <Gold.Chemscore.Rot.Weighted>
7.2039

> <Gold.Chemscore.Internal.Correction.Weighted>
   9.000000E+99

> <Gold.Protein.RotatedTorsions>
[ 6907 6896 6895 6894 ] final -104.53 input  -60.11 | X-H torsion
[ 7974 7965 7964 7962 ] final   55.37 input  175.53 | X-H torsion
[ 8008 7997 7996 7995 ] final  -54.04 input   59.86 | X-H torsion
[ 10167 10162 10161 10158 ] final   76.43 input  -65.29 | X-H torsion
[ 10718 10713 10712 10709 ] final  125.67 input   66.30 | X-H torsion
[ 10763 10752 10751 10750 ] final -175.89 input  -60.55 | X-H torsion
[ 11005 11000 10999 10996 ] final -174.35 input  -57.11 | X-H torsion

> <Gold.Protein.ActiveResidues>
 VAL166  LYS551  ARG553  GLY616  TRP617  ASP618  TYR619  PRO620  LYS621  CYS622 
 ASP623  PHE694  ASN695  SER759  ASP760  ASP761  ALA762  ILE779  LEU786  VAL792 
 PHE793  MET794  SER795  GLU796  ALA797  LYS798  CYS799  TRP800  GLU811  SER814 

> <Gold.Protein.RotatedAtoms>
  150.7292  134.0263  159.3718 H   0  0  0  0  0  0  0  0  0  0  0  0  # atno 6907 bound_to 6896
  151.8231  135.0643  160.0437 H   0  0  0  0  0  0  0  0  0  0  0  0  # atno 6908 bound_to 6896
  152.2989  133.5599  159.5642 H   0  0  0  0  0  0  0  0  0  0  0  0  # atno 6909 bound_to 6896
  145.9511  139.3973  143.0305 H   0  0  0  0  0  0  0  0  0  0  0  0  # atno 7974 bound_to 7965
  154.4151  140.1185  156.5251 H   0  0  0  0  0  0  0  0  0  0  0  0  # atno 8008 bound_to 7997
  155.6663  140.3496  155.4782 H   0  0  0  0  0  0  0  0  0  0  0  0  # atno 8009 bound_to 7997
  155.9671  140.1134  157.0835 H   0  0  0  0  0  0  0  0  0  0  0  0  # atno 8010 bound_to 7997
  139.9923  144.5748  150.7807 H   0  0  0  0  0  0  0  0  0  0  0  0  # atno 10167 bound_to 10162
  157.5483  131.1095  150.8744 H   0  0  0  0  0  0  0  0  0  0  0  0  # atno 10718 bound_to 10713
  154.5790  135.2834  155.0752 H   0  0  0  0  0  0  0  0  0  0  0  0  # atno 10763 bound_to 10752
  154.2096  135.6410  153.5115 H   0  0  0  0  0  0  0  0  0  0  0  0  # atno 10764 bound_to 10752
  153.0082  135.5488  154.6437 H   0  0  0  0  0  0  0  0  0  0  0  0  # atno 10765 bound_to 10752
  140.4755  134.6125  157.4899 H   0  0  0  0  0  0  0  0  0  0  0  0  # atno 11005 bound_to 11000
  145.8170  140.9698  143.0919 LP  0  0  0  0  0  0  0  0  0  0  0  0  # atno 17320 bound_to 7965
  144.6796  139.9993  143.7484 LP  0  0  0  0  0  0  0  0  0  0  0  0  # atno 17321 bound_to 7965
  140.7450  143.2869  151.3439 LP  0  0  0  0  0  0  0  0  0  0  0  0  # atno 17342 bound_to 10162
  139.6331  144.0682  152.2493 LP  0  0  0  0  0  0  0  0  0  0  0  0  # atno 17343 bound_to 10162
  156.9276  130.5338  149.5279 LP  0  0  0  0  0  0  0  0  0  0  0  0  # atno 17370 bound_to 10713
  156.0555  130.5617  150.9082 LP  0  0  0  0  0  0  0  0  0  0  0  0  # atno 17371 bound_to 10713
  139.9859  134.7063  155.9776 LP  0  0  0  0  0  0  0  0  0  0  0  0  # atno 17394 bound_to 11000
  141.1556  133.6543  156.4152 LP  0  0  0  0  0  0  0  0  0  0  0  0  # atno 17395 bound_to 11000

$$$$
