AV-unprocessed.smi:535|AV-procd|sdf|2859|dock4
  -GOLD-   2262023353D 1   1.00000     0.00000
 Structure written by MMmdl.
 46 48  0  0  0  0  0  0  0  0  1 V2000
  153.7416  137.3082  158.3344 C   0  0  0  0  0  0  0  0  0  0  0  0
  153.7073  138.4473  157.4926 O   0  0  0  0  0  0  0  0  0  0  0  0
  152.4206  138.6811  156.9469 C   0  0  0  0  0  0  0  0  0  0  0  0
  152.4908  139.9156  156.0329 C   0  0  0  0  0  0  0  0  0  0  0  0
  151.1891  140.5525  155.8553 N   0  0  0  0  0  0  0  0  0  0  0  0
  150.7043  141.7125  156.3900 C   0  0  0  0  0  0  0  0  0  0  0  0
  151.4247  142.5238  157.2790 N   0  0  0  0  0  0  0  0  0  0  0  0
  151.5875  143.9795  157.2419 C   0  0  0  0  0  0  0  0  0  0  0  0
  151.2548  144.6320  158.5956 C   0  0  0  0  0  0  0  0  0  0  0  0
  152.1398  144.0494  159.7037 C   0  0  0  0  0  0  0  0  0  0  0  0
  152.0571  142.5143  159.6919 C   0  0  2  0  0  0  0  0  0  0  0  0
  152.9962  141.8913  160.7335 C   0  0  0  0  0  0  0  0  0  0  0  0
  152.3540  141.9828  158.2748 C   0  0  0  0  0  0  0  0  0  0  0  0
  149.4796  142.0380  155.9620 N   0  0  0  0  0  0  0  0  0  0  0  0
  149.1489  141.0058  155.1013 C   0  0  0  0  0  0  0  0  0  0  0  0
  150.1634  140.1103  155.0153 C   0  0  0  0  0  0  0  0  0  0  0  0
  150.0962  138.9309  154.1396 C   0  0  0  0  0  0  0  0  0  0  0  0
  151.0068  138.1129  154.0302 O   0  0  0  0  0  0  0  0  0  0  0  0
  148.9288  138.8396  153.4576 N   0  0  0  0  0  0  0  0  0  0  0  0
  147.8693  139.7028  153.5034 C   0  0  0  0  0  0  0  0  0  0  0  0
  146.8707  139.4887  152.8163 O   0  0  0  0  0  0  0  0  0  0  0  0
  147.9714  140.7928  154.3291 N   0  0  0  0  0  0  0  0  0  0  0  0
  146.8691  141.7525  154.4146 C   0  0  0  0  0  0  0  0  0  0  0  0
  148.8319  138.0458  152.8414 H   0  0  0  0  0  0  0  0  0  0  0  0
  154.7518  137.1667  158.7182 H   0  0  0  0  0  0  0  0  0  0  0  0
  153.4587  136.4063  157.7903 H   0  0  0  0  0  0  0  0  0  0  0  0
  153.0716  137.4283  159.1868 H   0  0  0  0  0  0  0  0  0  0  0  0
  152.0937  137.8058  156.3852 H   0  0  0  0  0  0  0  0  0  0  0  0
  151.6968  138.8287  157.7482 H   0  0  0  0  0  0  0  0  0  0  0  0
  153.2067  140.6398  156.4125 H   0  0  0  0  0  0  0  0  0  0  0  0
  152.8748  139.6327  155.0529 H   0  0  0  0  0  0  0  0  0  0  0  0
  152.6200  144.2059  156.9723 H   0  0  0  0  0  0  0  0  0  0  0  0
  150.9836  144.4207  156.4556 H   0  0  0  0  0  0  0  0  0  0  0  0
  151.3966  145.7113  158.5350 H   0  0  0  0  0  0  0  0  0  0  0  0
  150.2056  144.4708  158.8435 H   0  0  0  0  0  0  0  0  0  0  0  0
  153.1720  144.3659  159.5473 H   0  0  0  0  0  0  0  0  0  0  0  0
  151.8348  144.4428  160.6740 H   0  0  0  0  0  0  0  0  0  0  0  0
  151.0374  142.2264  159.9529 H   0  0  0  0  0  0  0  0  0  0  0  0
  154.0381  142.1365  160.5252 H   0  0  0  0  0  0  0  0  0  0  0  0
  152.9056  140.8046  160.7420 H   0  0  0  0  0  0  0  0  0  0  0  0
  152.7629  142.2490  161.7367 H   0  0  0  0  0  0  0  0  0  0  0  0
  152.2910  140.8943  158.2852 H   0  0  0  0  0  0  0  0  0  0  0  0
  153.3764  142.2264  157.9825 H   0  0  0  0  0  0  0  0  0  0  0  0
  145.9398  141.2494  154.6848 H   0  0  0  0  0  0  0  0  0  0  0  0
  146.7220  142.2481  153.4544 H   0  0  0  0  0  0  0  0  0  0  0  0
  147.0445  142.5271  155.1607 H   0  0  0  0  0  0  0  0  0  0  0  0
  1  2  1  0  0  0  0
  1 25  1  0  0  0  0
  1 26  1  0  0  0  0
  1 27  1  0  0  0  0
  2  3  1  0  0  0  0
  3  4  1  0  0  0  0
  3 28  1  0  0  0  0
  3 29  1  0  0  0  0
  4  5  1  0  0  0  0
  4 30  1  0  0  0  0
  4 31  1  0  0  0  0
  5 16  1  0  0  0  0
  5  6  1  0  0  0  0
  6  7  1  0  0  0  0
  6 14  2  0  0  0  0
  7 13  1  0  0  0  0
  7  8  1  0  0  0  0
  8  9  1  0  0  0  0
  8 32  1  0  0  0  0
  8 33  1  0  0  0  0
  9 10  1  0  0  0  0
  9 34  1  0  0  0  0
  9 35  1  0  0  0  0
 10 11  1  0  0  0  0
 10 36  1  0  0  0  0
 10 37  1  0  0  0  0
 11 12  1  0  0  0  0
 11 13  1  0  0  0  0
 11 38  1  0  0  0  0
 12 39  1  0  0  0  0
 12 40  1  0  0  0  0
 12 41  1  0  0  0  0
 13 42  1  0  0  0  0
 13 43  1  0  0  0  0
 14 15  1  0  0  0  0
 15 22  1  0  0  0  0
 15 16  2  0  0  0  0
 16 17  1  0  0  0  0
 17 18  2  0  0  0  0
 17 19  1  0  0  0  0
 19 24  1  0  0  0  0
 19 20  1  0  0  0  0
 20 21  2  0  0  0  0
 20 22  1  0  0  0  0
 22 23  1  0  0  0  0
 23 44  1  0  0  0  0
 23 45  1  0  0  0  0
 23 46  1  0  0  0  0
M  END
> <s_m_source_file>
AV-unprocessed.smi

> <i_m_source_file_index>
535

> <i_lp_mmshare_version>
43012

> <i_f3d_flags>
0

> <s_epik_input>
W0NIM11uMWMoPU8pW25IXWMoPU8pYyhjMTIpbihbQ0gyXVtDSDJdT1tDSDNdKWMobjIpTjNbQ0gyXVtDSDJdW0NIMl1bQ0BASF0oW0NIM10pW0NIMl0z

> <s_epik_cmdline>
J2VwaWtfcHl0aG9uJywgJy1waCcsICc3LjAnLCAnLXRuJywgJzgnLCAnLW1hJywgJzIwMCcsICctbWV0YWxfYmluZGluZycsICctaW1hZScsICc8aW5maWxlLm1hZT4nLCAnLW9tYWUnLCAnPG91dGZpbGUubWFlPic=

> <r_lp_tautomer_probability>
1

> <r_epik_Ionization_Penalty>
0.00042181

> <r_epik_Ionization_Penalty_Charging>
0.000122112

> <r_epik_Ionization_Penalty_Neutral>
0.000299698

> <r_epik_State_Penalty>
-0

> <r_epik_Charging_Adjusted_Penalty>
0.000122112

> <i_epik_Tot_Q>
0

> <i_epik_Tot_abs_Q>
0

> <r_epik_Metal_State_Penalty>
0.0934894

> <b_epik_Metal_Only>
0

> <s_lp_Force_Field>
OPLS_2005

> <r_lp_Energy>
38.1768

> <b_lp_Chiralities_Consistent>
1

> <s_lp_Variant>
AV-unprocessed.smi:535-2

> <Gold.Version>
5.8.1

> <Gold.Id.Protein>
6NUR|6NUR_protein|mol2

> <Gold.PLP.Fitness>
47.8955

> <Gold.PLP.PLP>
-43.7640

> <Gold.PLP.part.hbond>
-3.0000

> <Gold.PLP.part.metal>
0.0000

> <Gold.PLP.part.buried>
-2.7834

> <Gold.PLP.part.nonpolar>
-40.2004

> <Gold.PLP.part.repulsive>
2.9637

> <Gold.PLP.ligand.clash>
0.0000

> <Gold.PLP.ligand.torsion>
0.9450

> <Gold.PLP.Chemscore.Hbond>
1.9913

> <Gold.PLP.Chemscore.CHOScore>
0.0000

> <Gold.PLP.Chemscore.Metal>
0.0000

> <Gold.Chemscore.Hbonds>
donor molecule, donor type, donor heavy atom, donor atom, acceptor molecule, acceptor atom, score
      L1  H    19    24       P1  7948  0.98
      P1  H  7997  8010       L1     2  1.00

> <Gold.PLP.Chemscore.Internal.Correction>
0.0477

> <Gold.Rescore>
     Score         DG    S(hbond)    S(metal)    S(lipo)     H(rot)  DE(clash)    DE(int)     intcor
     13.79     -17.88       1.52        0.00      94.57       1.46       2.29       1.80       ----

> <Gold.Chemscore.Fitness>
13.7879

> <Gold.Chemscore.DG>
-17.8793

> <Gold.Chemscore.ZeroCoef>
-5.4800

> <Gold.Chemscore.Hbond>
1.5153

> <Gold.Chemscore.Metal>
0.0000

> <Gold.Chemscore.Lipo>
94.5711

> <Gold.Chemscore.Internal_Hbond>
0.0000

> <Gold.Chemscore.DEClash>
2.2941

> <Gold.Chemscore.DEInternal>
1.7973

> <Gold.Chemscore.Rot>
1.4557

> <Gold.Chemscore.Internal.Correction>
   9.000000E+99

> <Gold.Chemscore.Hbonds>
donor molecule, donor type, donor heavy atom, donor atom, acceptor molecule, acceptor atom, score
      L1  H    19    24       P1  7948  0.92
      P1  H  7997  8010       L1     2  0.28

> <Gold.Chemscore.Hbond.Weighted>
-5.0612

> <Gold.Chemscore.Metal.Weighted>
-0.0000

> <Gold.Chemscore.Lipo.Weighted>
-11.0648

> <Gold.Chemscore.Internal_Hbond.Weighted>
0.0000

> <Gold.Chemscore.DEClash.Weighted>
2.2941

> <Gold.Chemscore.DEInternal.Weighted>
1.7973

> <Gold.Chemscore.Rot.Weighted>
3.7267

> <Gold.Chemscore.Internal.Correction.Weighted>
   9.000000E+99

> <Gold.Protein.RotatedTorsions>
[ 6907 6896 6895 6894 ] final   -6.32 input  -60.11 | X-H torsion
[ 7974 7965 7964 7962 ] final -130.09 input  175.53 | X-H torsion
[ 8008 7997 7996 7995 ] final   35.11 input   59.86 | X-H torsion
[ 10167 10162 10161 10158 ] final  118.59 input  -65.29 | X-H torsion
[ 10718 10713 10712 10709 ] final   56.08 input   66.30 | X-H torsion
[ 10763 10752 10751 10750 ] final -160.52 input  -60.55 | X-H torsion
[ 11005 11000 10999 10996 ] final  -67.23 input  -57.11 | X-H torsion

> <Gold.Protein.ActiveResidues>
 VAL166  LYS551  ARG553  GLY616  TRP617  ASP618  TYR619  PRO620  LYS621  CYS622 
 ASP623  PHE694  ASN695  SER759  ASP760  ASP761  ALA762  ILE779  LEU786  VAL792 
 PHE793  MET794  SER795  GLU796  ALA797  LYS798  CYS799  TRP800  GLU811  SER814 

> <Gold.Protein.RotatedAtoms>
  151.4675  135.1043  159.9741 H   0  0  0  0  0  0  0  0  0  0  0  0  # atno 6907 bound_to 6896
  152.4829  133.8296  159.7107 H   0  0  0  0  0  0  0  0  0  0  0  0  # atno 6908 bound_to 6896
  150.8915  133.7176  159.2930 H   0  0  0  0  0  0  0  0  0  0  0  0  # atno 6909 bound_to 6896
  144.9508  140.7343  143.4789 H   0  0  0  0  0  0  0  0  0  0  0  0  # atno 7974 bound_to 7965
  155.1657  140.3287  155.4402 H   0  0  0  0  0  0  0  0  0  0  0  0  # atno 8008 bound_to 7997
  156.2527  140.1952  156.6713 H   0  0  0  0  0  0  0  0  0  0  0  0  # atno 8009 bound_to 7997
  154.6373  140.0575  156.9790 H   0  0  0  0  0  0  0  0  0  0  0  0  # atno 8010 bound_to 7997
  139.6102  144.7080  151.2862 H   0  0  0  0  0  0  0  0  0  0  0  0  # atno 10167 bound_to 10162
  157.5400  130.8690  149.8808 H   0  0  0  0  0  0  0  0  0  0  0  0  # atno 10718 bound_to 10713
  154.7383  135.3062  154.8773 H   0  0  0  0  0  0  0  0  0  0  0  0  # atno 10763 bound_to 10752
  153.9595  135.6754  153.4749 H   0  0  0  0  0  0  0  0  0  0  0  0  # atno 10764 bound_to 10752
  153.0984  135.4924  154.8744 H   0  0  0  0  0  0  0  0  0  0  0  0  # atno 10765 bound_to 10752
  141.1503  133.6715  156.6261 H   0  0  0  0  0  0  0  0  0  0  0  0  # atno 11005 bound_to 11000
  145.2846  139.1905  143.4772 LP  0  0  0  0  0  0  0  0  0  0  0  0  # atno 17320 bound_to 7965
  146.3320  140.2814  142.8610 LP  0  0  0  0  0  0  0  0  0  0  0  0  # atno 17321 bound_to 7965
  140.7313  143.6855  150.7965 LP  0  0  0  0  0  0  0  0  0  0  0  0  # atno 17342 bound_to 10162
  140.0448  143.5309  152.2701 LP  0  0  0  0  0  0  0  0  0  0  0  0  # atno 17343 bound_to 10162
  156.0489  130.3722  150.1250 LP  0  0  0  0  0  0  0  0  0  0  0  0  # atno 17370 bound_to 10713
  156.9430  130.9750  151.3512 LP  0  0  0  0  0  0  0  0  0  0  0  0  # atno 17371 bound_to 10713
  140.3503  134.7774  157.4462 LP  0  0  0  0  0  0  0  0  0  0  0  0  # atno 17394 bound_to 11000
  140.0866  134.5658  155.8486 LP  0  0  0  0  0  0  0  0  0  0  0  0  # atno 17395 bound_to 11000

$$$$
