AV-unprocessed.smi:2542|AV-procd|sdf|9992|dock7
  -GOLD-   2272014 43D 1   1.00000     0.00000
 Structure written by MMmdl.
 42 43  0  0  0  0  0  0  0  0  2 V2000
  150.1280  138.2670  156.4614 C   0  0  0  0  0  0  0  0  0  0  0  0
  150.3492  138.7491  155.0122 C   0  0  0  0  0  0  0  0  0  0  0  0
  151.4032  139.8818  155.0713 C   0  0  0  0  0  0  0  0  0  0  0  0
  150.9263  137.5737  154.1770 C   0  0  0  0  0  0  0  0  0  0  0  0
  150.2235  136.3159  154.4219 N   0  0  0  0  0  0  0  0  0  0  0  0
  150.6601  135.2991  155.1832 C   0  0  0  0  0  0  0  0  0  0  0  0
  151.7068  135.3585  155.8294 O   0  0  0  0  0  0  0  0  0  0  0  0
  149.7983  134.0179  155.2097 C   0  0  0  0  0  0  0  0  0  0  0  0
  148.4703  134.2492  155.8164 C   0  0  0  0  0  0  0  0  0  0  0  0
  147.4311  134.4292  156.2943 N   0  0  0  0  0  0  0  0  0  0  0  0
  149.6172  133.4195  153.8021 C   0  0  0  0  0  0  0  0  0  0  0  0
  149.3089  131.9347  154.0245 C   0  0  0  0  0  0  0  0  0  0  0  0
  149.9111  131.5771  155.3897 C   0  0  0  0  0  0  0  0  0  0  0  0
  150.5202  132.8727  155.9403 C   0  0  0  0  0  0  0  0  0  0  0  0
  149.0071  139.2195  154.4145 C   0  0  0  0  0  0  0  0  0  0  0  0
  148.7658  140.5669  154.0393 C   0  0  0  0  0  0  0  0  0  0  0  0
  147.5258  140.9259  153.4730 C   0  0  0  0  0  0  0  0  0  0  0  0
  146.5717  139.9899  153.2896 N   0  3  0  0  0  0  0  0  0  0  0  0
  146.7470  138.6965  153.6303 C   0  0  0  0  0  0  0  0  0  0  0  0
  147.9669  138.2806  154.2002 C   0  0  0  0  0  0  0  0  0  0  0  0
  151.0649  137.9475  156.9197 H   0  0  0  0  0  0  0  0  0  0  0  0
  149.4437  137.4201  156.5138 H   0  0  0  0  0  0  0  0  0  0  0  0
  149.7142  139.0612  157.0838 H   0  0  0  0  0  0  0  0  0  0  0  0
  152.3440  139.5225  155.4901 H   0  0  0  0  0  0  0  0  0  0  0  0
  151.0705  140.7085  155.7000 H   0  0  0  0  0  0  0  0  0  0  0  0
  151.6321  140.2853  154.0848 H   0  0  0  0  0  0  0  0  0  0  0  0
  150.9356  137.8235  153.1146 H   0  0  0  0  0  0  0  0  0  0  0  0
  151.9702  137.4035  154.4416 H   0  0  0  0  0  0  0  0  0  0  0  0
  149.3472  136.1903  153.9357 H   0  0  0  0  0  0  0  0  0  0  0  0
  148.8257  133.9156  153.2389 H   0  0  0  0  0  0  0  0  0  0  0  0
  150.5310  133.5025  153.2115 H   0  0  0  0  0  0  0  0  0  0  0  0
  148.2303  131.7743  154.0446 H   0  0  0  0  0  0  0  0  0  0  0  0
  149.7160  131.3176  153.2228 H   0  0  0  0  0  0  0  0  0  0  0  0
  149.1269  131.2147  156.0555 H   0  0  0  0  0  0  0  0  0  0  0  0
  150.6611  130.7896  155.3107 H   0  0  0  0  0  0  0  0  0  0  0  0
  151.5899  132.8835  155.7237 H   0  0  0  0  0  0  0  0  0  0  0  0
  150.4112  132.9392  157.0237 H   0  0  0  0  0  0  0  0  0  0  0  0
  149.5088  141.3388  154.1677 H   0  0  0  0  0  0  0  0  0  0  0  0
  147.2718  141.9284  153.1609 H   0  0  0  0  0  0  0  0  0  0  0  0
  145.9138  138.0373  153.4353 H   0  0  0  0  0  0  0  0  0  0  0  0
  148.0981  137.2413  154.4622 H   0  0  0  0  0  0  0  0  0  0  0  0
  145.6825  140.2715  152.8757 H   0  0  0  0  0  0  0  0  0  0  0  0
  1  2  1  0  0  0  0
  1 21  1  0  0  0  0
  1 22  1  0  0  0  0
  1 23  1  0  0  0  0
  2  3  1  0  0  0  0
  2  4  1  0  0  0  0
  2 15  1  0  0  0  0
  3 24  1  0  0  0  0
  3 25  1  0  0  0  0
  3 26  1  0  0  0  0
  4  5  1  0  0  0  0
  4 27  1  0  0  0  0
  4 28  1  0  0  0  0
  5  6  1  0  0  0  0
  5 29  1  0  0  0  0
  6  7  2  0  0  0  0
  6  8  1  0  0  0  0
  8 14  1  0  0  0  0
  8  9  1  0  0  0  0
  8 11  1  0  0  0  0
  9 10  3  0  0  0  0
 11 12  1  0  0  0  0
 11 30  1  0  0  0  0
 11 31  1  0  0  0  0
 12 13  1  0  0  0  0
 12 32  1  0  0  0  0
 12 33  1  0  0  0  0
 13 14  1  0  0  0  0
 13 34  1  0  0  0  0
 13 35  1  0  0  0  0
 14 36  1  0  0  0  0
 14 37  1  0  0  0  0
 15 20  1  0  0  0  0
 15 16  2  0  0  0  0
 16 17  1  0  0  0  0
 16 38  1  0  0  0  0
 17 18  2  0  0  0  0
 17 39  1  0  0  0  0
 18 19  1  0  0  0  0
 18 42  1  0  0  0  0
 19 20  2  0  0  0  0
 19 40  1  0  0  0  0
 20 41  1  0  0  0  0
M  CHG  1  18   1
M  END
> <s_m_source_file>
AV-unprocessed.smi

> <i_m_source_file_index>
2542

> <i_lp_mmshare_version>
43012

> <i_f3d_flags>
0

> <s_epik_input>
W2NIXTFbY0hdbltjSF1bY0hdYzFDKFtDSDNdKShbQ0gzXSlbQ0gyXVtOSF1DKD1PKUMyKEMjTilbQ0gyXVtDSDJdW0NIMl1bQ0gyXTI=

> <s_epik_cmdline>
J2VwaWtfcHl0aG9uJywgJy1waCcsICc3LjAnLCAnLXRuJywgJzgnLCAnLW1hJywgJzIwMCcsICctbWV0YWxfYmluZGluZycsICctaW1hZScsICc8aW5maWxlLm1hZT4nLCAnLW9tYWUnLCAnPG91dGZpbGUubWFlPic=

> <r_epik_Ionization_Penalty>
1.51272

> <r_epik_Ionization_Penalty_Charging>
1.51272

> <r_epik_Ionization_Penalty_Neutral>
6.26824e-07

> <r_epik_State_Penalty>
1.60388

> <r_epik_Charging_Adjusted_Penalty>
3.1166

> <i_epik_Tot_Q>
1

> <i_epik_Tot_abs_Q>
1

> <r_epik_Metal_State_Penalty>
1.64935

> <b_epik_Metal_Only>
0

> <s_lp_Force_Field>
OPLS_2005

> <r_lp_Energy>
37.2322

> <b_lp_Chiralities_Consistent>
1

> <s_lp_Variant>
AV-unprocessed.smi:2542-2

> <Gold.Version>
5.8.1

> <Gold.Id.Protein>
6NUR|6NUR_protein|mol2

> <Gold.PLP.Fitness>
42.8502

> <Gold.PLP.PLP>
-32.9105

> <Gold.PLP.part.hbond>
-3.4984

> <Gold.PLP.part.metal>
0.0000

> <Gold.PLP.part.buried>
-2.2311

> <Gold.PLP.part.nonpolar>
-27.8509

> <Gold.PLP.part.repulsive>
0.0998

> <Gold.PLP.ligand.clash>
0.0000

> <Gold.PLP.ligand.torsion>
0.4780

> <Gold.PLP.Chemscore.Hbond>
3.6080

> <Gold.PLP.Chemscore.CHOScore>
0.0000

> <Gold.PLP.Chemscore.Metal>
0.0000

> <Gold.Chemscore.Hbonds>
donor molecule, donor type, donor heavy atom, donor atom, acceptor molecule, acceptor atom, score
      L1  H     5    29       P1  7948  0.48
      L1  H    18    42       P1 10175  1.92
      P1  H 10752 10763       L1     7  0.99

> <Gold.PLP.Chemscore.Internal.Correction>
0.0718

> <Gold.Rescore>
     Score         DG    S(hbond)    S(metal)    S(lipo)     H(rot)  DE(clash)    DE(int)     intcor
     16.83     -17.44       2.13        0.00      75.71       1.56       0.15       0.47       ----

> <Gold.Chemscore.Fitness>
16.8266

> <Gold.Chemscore.DG>
-17.4383

> <Gold.Chemscore.ZeroCoef>
-5.4800

> <Gold.Chemscore.Hbond>
2.1276

> <Gold.Chemscore.Metal>
0.0000

> <Gold.Chemscore.Lipo>
75.7106

> <Gold.Chemscore.Internal_Hbond>
0.0000

> <Gold.Chemscore.DEClash>
0.1461

> <Gold.Chemscore.DEInternal>
0.4657

> <Gold.Chemscore.Rot>
1.5649

> <Gold.Chemscore.Internal.Correction>
   9.000000E+99

> <Gold.Chemscore.Hbonds>
donor molecule, donor type, donor heavy atom, donor atom, acceptor molecule, acceptor atom, score
      L1  H     5    29       P1  7948  0.39
      L1  H    18    42       P1 10175  0.84
      P1  H 10752 10763       L1     7  0.94

> <Gold.Chemscore.Hbond.Weighted>
-7.1063

> <Gold.Chemscore.Metal.Weighted>
-0.0000

> <Gold.Chemscore.Lipo.Weighted>
-8.8581

> <Gold.Chemscore.Internal_Hbond.Weighted>
0.0000

> <Gold.Chemscore.DEClash.Weighted>
0.1461

> <Gold.Chemscore.DEInternal.Weighted>
0.4657

> <Gold.Chemscore.Rot.Weighted>
4.0061

> <Gold.Chemscore.Internal.Correction.Weighted>
   9.000000E+99

> <Gold.Protein.RotatedTorsions>
[ 6907 6896 6895 6894 ] final   44.48 input  -60.11 | X-H torsion
[ 7974 7965 7964 7962 ] final  136.10 input  175.53 | X-H torsion
[ 8008 7997 7996 7995 ] final  129.15 input   59.86 | X-H torsion
[ 10167 10162 10161 10158 ] final  149.91 input  -65.29 | X-H torsion
[ 10718 10713 10712 10709 ] final   74.96 input   66.30 | X-H torsion
[ 10763 10752 10751 10750 ] final   97.10 input  -60.55 | X-H torsion
[ 11005 11000 10999 10996 ] final  -20.60 input  -57.11 | X-H torsion

> <Gold.Protein.ActiveResidues>
 VAL166  LYS551  ARG553  GLY616  TRP617  ASP618  TYR619  PRO620  LYS621  CYS622 
 ASP623  PHE694  ASN695  SER759  ASP760  ASP761  ALA762  ILE779  LEU786  VAL792 
 PHE793  MET794  SER795  GLU796  ALA797  LYS798  CYS799  TRP800  GLU811  SER814 

> <Gold.Protein.RotatedAtoms>
  152.2330  134.8303  160.0470 H   0  0  0  0  0  0  0  0  0  0  0  0  # atno 6907 bound_to 6896
  151.9045  133.3541  159.3850 H   0  0  0  0  0  0  0  0  0  0  0  0  # atno 6908 bound_to 6896
  150.7031  134.4720  159.5474 H   0  0  0  0  0  0  0  0  0  0  0  0  # atno 6909 bound_to 6896
  144.9598  139.4723  143.5485 H   0  0  0  0  0  0  0  0  0  0  0  0  # atno 7974 bound_to 7965
  156.2930  140.2627  156.2552 H   0  0  0  0  0  0  0  0  0  0  0  0  # atno 8008 bound_to 7997
  154.9843  140.0389  157.2310 H   0  0  0  0  0  0  0  0  0  0  0  0  # atno 8009 bound_to 7997
  154.7743  140.2784  155.6118 H   0  0  0  0  0  0  0  0  0  0  0  0  # atno 8010 bound_to 7997
  139.4856  144.5564  151.7310 H   0  0  0  0  0  0  0  0  0  0  0  0  # atno 10167 bound_to 10162
  157.6614  130.9703  150.1285 H   0  0  0  0  0  0  0  0  0  0  0  0  # atno 10718 bound_to 10713
  153.2728  135.4195  155.1004 H   0  0  0  0  0  0  0  0  0  0  0  0  # atno 10763 bound_to 10752
  154.8462  135.3476  154.6220 H   0  0  0  0  0  0  0  0  0  0  0  0  # atno 10764 bound_to 10752
  153.6640  135.7047  153.5225 H   0  0  0  0  0  0  0  0  0  0  0  0  # atno 10765 bound_to 10752
  140.8480  133.7877  155.9934 H   0  0  0  0  0  0  0  0  0  0  0  0  # atno 11005 bound_to 11000
  146.3349  139.8740  142.8835 LP  0  0  0  0  0  0  0  0  0  0  0  0  # atno 17320 bound_to 7965
  145.2717  141.0111  143.3768 LP  0  0  0  0  0  0  0  0  0  0  0  0  # atno 17321 bound_to 7965
  140.5126  144.1001  150.5999 LP  0  0  0  0  0  0  0  0  0  0  0  0  # atno 17342 bound_to 10162
  140.3932  143.2741  152.0035 LP  0  0  0  0  0  0  0  0  0  0  0  0  # atno 17343 bound_to 10162
  156.2138  130.3668  149.8638 LP  0  0  0  0  0  0  0  0  0  0  0  0  # atno 17370 bound_to 10713
  156.6509  130.8743  151.3531 LP  0  0  0  0  0  0  0  0  0  0  0  0  # atno 17371 bound_to 10713
  140.8822  134.2598  157.5138 LP  0  0  0  0  0  0  0  0  0  0  0  0  # atno 17394 bound_to 11000
  139.8703  134.9620  156.4416 LP  0  0  0  0  0  0  0  0  0  0  0  0  # atno 17395 bound_to 11000

$$$$
