AV-unprocessed.smi:3255|AV-procd|sdf|12464|dock9
  -GOLD-   2272018363D 1   1.00000     0.00000
 Structure written by MMmdl.
 38 39  0  0  0  0  0  0  0  0  1 V2000
  148.0527  140.5586  153.9055 C   0  0  0  0  0  0  0  0  0  0  0  0
  148.5414  139.1633  154.3320 C   0  0  1  0  0  0  0  0  0  0  0  0
  147.9416  138.1460  153.4724 N   0  0  0  0  0  0  0  0  0  0  0  0
  146.6266  137.9699  153.2829 C   0  0  0  0  0  0  0  0  0  0  0  0
  145.7543  138.6733  153.7931 O   0  0  0  0  0  0  0  0  0  0  0  0
  146.3755  136.9314  152.4743 N   0  0  0  0  0  0  0  0  0  0  0  0
  145.0442  136.4813  152.0859 C   0  0  0  0  0  0  0  0  0  0  0  0
  145.0406  135.8882  150.6675 C   0  0  0  0  0  0  0  0  0  0  0  0
  145.2672  134.4579  150.6905 N   0  0  0  0  0  0  0  0  0  0  0  0
  146.4108  133.7991  151.1217 C   0  0  0  0  0  0  0  0  0  0  0  0
  146.1706  132.4526  150.9651 C   0  0  0  0  0  0  0  0  0  0  0  0
  144.8930  132.2616  150.4435 N   0  0  0  0  0  0  0  0  0  0  0  0
  144.4192  133.4936  150.3077 C   0  0  0  0  0  0  0  0  0  0  0  0
  150.0752  139.0366  154.2651 C   0  0  1  0  0  0  0  0  0  0  0  0
  150.8374  139.9461  155.2308 C   0  0  0  0  0  0  0  0  0  0  0  0
  152.1459  139.2080  155.4693 C   0  0  0  0  0  0  0  0  0  0  0  0
  151.8901  137.8034  154.9176 C   0  0  0  0  0  0  0  0  0  0  0  0
  150.4893  137.7468  154.6904 O   0  0  0  0  0  0  0  0  0  0  0  0
  148.4552  141.3359  154.5549 H   0  0  0  0  0  0  0  0  0  0  0  0
  146.9656  140.6295  153.9551 H   0  0  0  0  0  0  0  0  0  0  0  0
  148.3546  140.7891  152.8835 H   0  0  0  0  0  0  0  0  0  0  0  0
  148.2292  138.9846  155.3628 H   0  0  0  0  0  0  0  0  0  0  0  0
  148.5775  137.5119  153.0115 H   0  0  0  0  0  0  0  0  0  0  0  0
  147.1593  136.4125  152.1059 H   0  0  0  0  0  0  0  0  0  0  0  0
  144.6716  135.7520  152.8075 H   0  0  0  0  0  0  0  0  0  0  0  0
  144.3705  137.3372  152.1338 H   0  0  0  0  0  0  0  0  0  0  0  0
  144.0876  136.0820  150.1733 H   0  0  0  0  0  0  0  0  0  0  0  0
  145.8161  136.3482  150.0535 H   0  0  0  0  0  0  0  0  0  0  0  0
  147.2756  134.3284  151.4943 H   0  0  0  0  0  0  0  0  0  0  0  0
  146.8133  131.6136  151.1870 H   0  0  0  0  0  0  0  0  0  0  0  0
  143.4313  133.6994  149.9223 H   0  0  0  0  0  0  0  0  0  0  0  0
  150.4288  139.2001  153.2449 H   0  0  0  0  0  0  0  0  0  0  0  0
  150.9865  140.9504  154.8333 H   0  0  0  0  0  0  0  0  0  0  0  0
  150.2951  140.0352  156.1732 H   0  0  0  0  0  0  0  0  0  0  0  0
  152.9765  139.6826  154.9458 H   0  0  0  0  0  0  0  0  0  0  0  0
  152.3877  139.1843  156.5323 H   0  0  0  0  0  0  0  0  0  0  0  0
  152.4126  137.6625  153.9703 H   0  0  0  0  0  0  0  0  0  0  0  0
  152.2095  137.0181  155.6032 H   0  0  0  0  0  0  0  0  0  0  0  0
  1  2  1  0  0  0  0
  1 19  1  0  0  0  0
  1 20  1  0  0  0  0
  1 21  1  0  0  0  0
  2  3  1  0  0  0  0
  2 14  1  0  0  0  0
  2 22  1  0  0  0  0
  3  4  1  0  0  0  0
  3 23  1  0  0  0  0
  4  5  2  0  0  0  0
  4  6  1  0  0  0  0
  6  7  1  0  0  0  0
  6 24  1  0  0  0  0
  7  8  1  0  0  0  0
  7 25  1  0  0  0  0
  7 26  1  0  0  0  0
  8  9  1  0  0  0  0
  8 27  1  0  0  0  0
  8 28  1  0  0  0  0
  9 13  1  0  0  0  0
  9 10  1  0  0  0  0
 10 11  2  0  0  0  0
 10 29  1  0  0  0  0
 11 12  1  0  0  0  0
 11 30  1  0  0  0  0
 12 13  2  0  0  0  0
 13 31  1  0  0  0  0
 14 18  1  0  0  0  0
 14 15  1  0  0  0  0
 14 32  1  0  0  0  0
 15 16  1  0  0  0  0
 15 33  1  0  0  0  0
 15 34  1  0  0  0  0
 16 17  1  0  0  0  0
 16 35  1  0  0  0  0
 16 36  1  0  0  0  0
 17 18  1  0  0  0  0
 17 37  1  0  0  0  0
 17 38  1  0  0  0  0
M  END
> <s_m_source_file>
AV-unprocessed.smi

> <i_m_source_file_index>
3255

> <i_lp_mmshare_version>
43012

> <i_f3d_flags>
0

> <s_epik_input>
TzFbQ0gyXVtDSDJdW0NIMl1bQ0BIXTFbQ0BIXShbQ0gzXSlbTkhdQyg9TylbTkhdW0NIMl1bQ0gyXW4yW2NIXVtjSF1uW2NIXTI=

> <s_epik_cmdline>
J2VwaWtfcHl0aG9uJywgJy1waCcsICc3LjAnLCAnLXRuJywgJzgnLCAnLW1hJywgJzIwMCcsICctbWV0YWxfYmluZGluZycsICctaW1hZScsICc8aW5maWxlLm1hZT4nLCAnLW9tYWUnLCAnPG91dGZpbGUubWFlPic=

> <r_lp_tautomer_probability>
1

> <r_epik_Ionization_Penalty>
0.620274

> <r_epik_Ionization_Penalty_Charging>
0.620225

> <r_epik_Ionization_Penalty_Neutral>
4.91362e-05

> <r_epik_State_Penalty>
0.636186

> <r_epik_Charging_Adjusted_Penalty>
1.25641

> <i_epik_Tot_Q>
0

> <i_epik_Tot_abs_Q>
0

> <r_epik_Metal_State_Penalty>
0.306491

> <b_epik_Metal_Only>
0

> <s_lp_Force_Field>
OPLS_2005

> <r_lp_Energy>
17.3194

> <b_lp_Chiralities_Consistent>
1

> <s_lp_Variant>
AV-unprocessed.smi:3255-8

> <Gold.Version>
5.8.1

> <Gold.Id.Protein>
6NUR|6NUR_protein|mol2

> <Gold.PLP.Fitness>
46.3210

> <Gold.PLP.PLP>
-32.1862

> <Gold.PLP.part.hbond>
-2.0000

> <Gold.PLP.part.metal>
0.0000

> <Gold.PLP.part.buried>
-2.0084

> <Gold.PLP.part.nonpolar>
-29.4370

> <Gold.PLP.part.repulsive>
0.6181

> <Gold.PLP.ligand.clash>
0.0000

> <Gold.PLP.ligand.torsion>
0.4273

> <Gold.PLP.Chemscore.Hbond>
2.0000

> <Gold.PLP.Chemscore.CHOScore>
2.9788

> <Gold.PLP.Chemscore.Metal>
0.0000

> <Gold.Chemscore.Hbonds>
donor molecule, donor type, donor heavy atom, donor atom, acceptor molecule, acceptor atom, score
      L1  H     3    23       P1  7948  1.00
      L1  H     6    24       P1  7948  1.00
      L1  C    10    29       P1  7948  1.00
      L1  C    11    30       P1 10747  1.00
      L1  C    13    31       P1 10186  0.94

> <Gold.PLP.Chemscore.Internal.Correction>
0.0529

> <Gold.Rescore>
     Score         DG    S(hbond)    S(metal)    S(lipo)     H(rot)  DE(clash)    DE(int)     intcor
     13.70     -14.23       1.91        0.00      67.94       2.18       0.09       0.43       ----

> <Gold.Chemscore.Fitness>
13.7030

> <Gold.Chemscore.DG>
-14.2254

> <Gold.Chemscore.ZeroCoef>
-5.4800

> <Gold.Chemscore.Hbond>
1.9117

> <Gold.Chemscore.Metal>
0.0000

> <Gold.Chemscore.Lipo>
67.9359

> <Gold.Chemscore.Internal_Hbond>
0.0000

> <Gold.Chemscore.DEClash>
0.0909

> <Gold.Chemscore.DEInternal>
0.4315

> <Gold.Chemscore.Rot>
2.1828

> <Gold.Chemscore.Internal.Correction>
   9.000000E+99

> <Gold.Chemscore.Hbonds>
donor molecule, donor type, donor heavy atom, donor atom, acceptor molecule, acceptor atom, score
      L1  H     3    23       P1  7948  0.98
      L1  H     6    24       P1  7948  0.95

> <Gold.Chemscore.Hbond.Weighted>
-6.3850

> <Gold.Chemscore.Metal.Weighted>
-0.0000

> <Gold.Chemscore.Lipo.Weighted>
-7.9485

> <Gold.Chemscore.Internal_Hbond.Weighted>
0.0000

> <Gold.Chemscore.DEClash.Weighted>
0.0909

> <Gold.Chemscore.DEInternal.Weighted>
0.4315

> <Gold.Chemscore.Rot.Weighted>
5.5881

> <Gold.Chemscore.Internal.Correction.Weighted>
   9.000000E+99

> <Gold.Protein.RotatedTorsions>
[ 6907 6896 6895 6894 ] final  100.82 input  -60.11 | X-H torsion
[ 7974 7965 7964 7962 ] final   12.28 input  175.53 | X-H torsion
[ 8008 7997 7996 7995 ] final   13.63 input   59.86 | X-H torsion
[ 10167 10162 10161 10158 ] final  104.84 input  -65.29 | X-H torsion
[ 10718 10713 10712 10709 ] final  -74.05 input   66.30 | X-H torsion
[ 10763 10752 10751 10750 ] final  103.01 input  -60.55 | X-H torsion
[ 11005 11000 10999 10996 ] final  -62.74 input  -57.11 | X-H torsion

> <Gold.Protein.ActiveResidues>
 VAL166  LYS551  ARG553  GLY616  TRP617  ASP618  TYR619  PRO620  LYS621  CYS622 
 ASP623  PHE694  ASN695  SER759  ASP760  ASP761  ALA762  ILE779  LEU786  VAL792 
 PHE793  MET794  SER795  GLU796  ALA797  LYS798  CYS799  TRP800  GLU811  SER814 

> <Gold.Protein.RotatedAtoms>
  152.5363  134.0219  159.7985 H   0  0  0  0  0  0  0  0  0  0  0  0  # atno 6907 bound_to 6896
  151.0404  133.5704  159.2659 H   0  0  0  0  0  0  0  0  0  0  0  0  # atno 6908 bound_to 6896
  151.2675  135.0681  159.9175 H   0  0  0  0  0  0  0  0  0  0  0  0  # atno 6909 bound_to 6896
  146.2354  139.9360  142.8490 H   0  0  0  0  0  0  0  0  0  0  0  0  # atno 7974 bound_to 7965
  154.8371  140.2909  155.5683 H   0  0  0  0  0  0  0  0  0  0  0  0  # atno 8008 bound_to 7997
  156.3009  140.2521  156.3238 H   0  0  0  0  0  0  0  0  0  0  0  0  # atno 8009 bound_to 7997
  154.9166  140.0387  157.1964 H   0  0  0  0  0  0  0  0  0  0  0  0  # atno 8010 bound_to 7997
  139.7143  144.7071  151.0976 H   0  0  0  0  0  0  0  0  0  0  0  0  # atno 10167 bound_to 10162
  156.0257  130.4408  150.2833 H   0  0  0  0  0  0  0  0  0  0  0  0  # atno 10718 bound_to 10713
  153.3471  135.3991  155.1617 H   0  0  0  0  0  0  0  0  0  0  0  0  # atno 10763 bound_to 10752
  154.8655  135.3647  154.5270 H   0  0  0  0  0  0  0  0  0  0  0  0  # atno 10764 bound_to 10752
  153.5719  135.7078  153.5561 H   0  0  0  0  0  0  0  0  0  0  0  0  # atno 10765 bound_to 10752
  141.1370  133.6643  156.5573 H   0  0  0  0  0  0  0  0  0  0  0  0  # atno 11005 bound_to 11000
  145.1998  140.9849  143.4162 LP  0  0  0  0  0  0  0  0  0  0  0  0  # atno 17320 bound_to 7965
  144.9783  139.3809  143.6274 LP  0  0  0  0  0  0  0  0  0  0  0  0  # atno 17321 bound_to 7965
  140.7740  143.5251  150.9490 LP  0  0  0  0  0  0  0  0  0  0  0  0  # atno 17342 bound_to 10162
  139.8937  143.6922  152.3141 LP  0  0  0  0  0  0  0  0  0  0  0  0  # atno 17343 bound_to 10162
  157.0937  131.0176  151.3112 LP  0  0  0  0  0  0  0  0  0  0  0  0  # atno 17370 bound_to 10713
  157.4834  130.7779  149.7436 LP  0  0  0  0  0  0  0  0  0  0  0  0  # atno 17371 bound_to 10713
  140.4016  134.7352  157.4783 LP  0  0  0  0  0  0  0  0  0  0  0  0  # atno 17394 bound_to 11000
  140.0492  134.6155  155.8883 LP  0  0  0  0  0  0  0  0  0  0  0  0  # atno 17395 bound_to 11000

$$$$
