AV-unprocessed.smi:2691|AV-procd|sdf|10390|dock6
  -GOLD-   2272014423D 1   1.00000     0.00000
 Structure written by MMmdl.
 49 51  0  0  0  0  0  0  0  0  1 V2000
  153.2714  142.7489  160.7350 C   0  0  0  0  0  0  0  0  0  0  0  0
  152.3236  142.4039  159.5999 C   0  0  0  0  0  0  0  0  0  0  0  0
  152.2086  141.0578  159.1861 C   0  0  0  0  0  0  0  0  0  0  0  0
  151.3425  140.6955  158.1316 C   0  0  0  0  0  0  0  0  0  0  0  0
  151.0770  139.4572  157.5724 N   0  0  0  0  0  0  0  0  0  0  0  0
  150.1926  139.7732  156.6312 C   0  0  0  0  0  0  0  0  0  0  0  0
  149.8598  141.0726  156.5076 N   0  0  0  0  0  0  0  0  0  0  0  0
  148.9362  141.6539  155.5497 C   0  0  0  0  0  0  0  0  0  0  0  0
  148.7087  140.7445  154.3255 C   0  0  2  0  0  0  0  0  0  0  0  0
  149.8304  140.9021  153.4811 O   0  0  0  0  0  0  0  0  0  0  0  0
  147.4309  141.0898  153.5210 C   0  0  0  0  0  0  0  0  0  0  0  0
  146.4456  141.8085  154.3434 N   0  0  0  0  0  0  0  0  0  0  0  0
  146.0273  143.0639  153.8643 C   0  0  0  0  0  0  0  0  0  0  0  0
  145.1555  143.7796  154.5001 N   0  0  0  0  0  0  0  0  0  0  0  0
  144.6039  143.3046  155.6966 C   0  0  0  0  0  0  0  0  0  0  0  0
  143.5778  144.1832  156.4003 C   0  0  0  0  0  0  0  0  0  0  0  0
  143.2513  145.4431  155.5822 C   0  0  0  0  0  0  0  0  0  0  0  0
  144.0308  144.5373  157.8250 C   0  0  0  0  0  0  0  0  0  0  0  0
  144.9705  142.0990  156.1935 C   0  0  0  0  0  0  0  0  0  0  0  0
  145.9530  141.2689  155.4968 C   0  0  0  0  0  0  0  0  0  0  0  0
  146.3052  140.1658  155.9151 O   0  0  0  0  0  0  0  0  0  0  0  0
  150.5895  141.7253  157.4954 C   0  0  0  0  0  0  0  0  0  0  0  0
  150.6908  143.0676  157.9019 C   0  0  0  0  0  0  0  0  0  0  0  0
  151.5605  143.4120  158.9577 C   0  0  0  0  0  0  0  0  0  0  0  0
  151.6658  144.8647  159.3865 C   0  0  0  0  0  0  0  0  0  0  0  0
  153.8025  141.8661  161.0924 H   0  0  0  0  0  0  0  0  0  0  0  0
  152.7219  143.1724  161.5760 H   0  0  0  0  0  0  0  0  0  0  0  0
  154.0149  143.4744  160.4048 H   0  0  0  0  0  0  0  0  0  0  0  0
  152.7883  140.2893  159.6758 H   0  0  0  0  0  0  0  0  0  0  0  0
  149.7700  139.0173  155.9855 H   0  0  0  0  0  0  0  0  0  0  0  0
  147.9904  141.8596  156.0534 H   0  0  0  0  0  0  0  0  0  0  0  0
  149.3411  142.6173  155.2364 H   0  0  0  0  0  0  0  0  0  0  0  0
  148.6841  139.7070  154.6611 H   0  0  0  0  0  0  0  0  0  0  0  0
  149.7473  140.3026  152.7553 H   0  0  0  0  0  0  0  0  0  0  0  0
  147.6735  141.7226  152.6669 H   0  0  0  0  0  0  0  0  0  0  0  0
  147.0095  140.1932  153.0611 H   0  0  0  0  0  0  0  0  0  0  0  0
  146.4837  143.3841  152.9261 H   0  0  0  0  0  0  0  0  0  0  0  0
  142.6544  143.6091  156.4882 H   0  0  0  0  0  0  0  0  0  0  0  0
  142.9080  145.1822  154.5807 H   0  0  0  0  0  0  0  0  0  0  0  0
  144.1216  146.0920  155.4782 H   0  0  0  0  0  0  0  0  0  0  0  0
  142.4621  146.0250  156.0589 H   0  0  0  0  0  0  0  0  0  0  0  0
  144.2354  143.6376  158.4063 H   0  0  0  0  0  0  0  0  0  0  0  0
  143.2601  145.1006  158.3517 H   0  0  0  0  0  0  0  0  0  0  0  0
  144.9377  145.1429  157.8185 H   0  0  0  0  0  0  0  0  0  0  0  0
  144.5378  141.7367  157.1146 H   0  0  0  0  0  0  0  0  0  0  0  0
  150.1067  143.8260  157.4023 H   0  0  0  0  0  0  0  0  0  0  0  0
  150.9698  145.4945  158.8315 H   0  0  0  0  0  0  0  0  0  0  0  0
  152.6735  145.2415  159.2102 H   0  0  0  0  0  0  0  0  0  0  0  0
  151.4365  144.9696  160.4472 H   0  0  0  0  0  0  0  0  0  0  0  0
  1  2  1  0  0  0  0
  1 26  1  0  0  0  0
  1 27  1  0  0  0  0
  1 28  1  0  0  0  0
  2 24  1  0  0  0  0
  2  3  2  0  0  0  0
  3  4  1  0  0  0  0
  3 29  1  0  0  0  0
  4 22  2  0  0  0  0
  4  5  1  0  0  0  0
  5  6  2  0  0  0  0
  6  7  1  0  0  0  0
  6 30  1  0  0  0  0
  7  8  1  0  0  0  0
  7 22  1  0  0  0  0
  8  9  1  0  0  0  0
  8 31  1  0  0  0  0
  8 32  1  0  0  0  0
  9 10  1  0  0  0  0
  9 11  1  0  0  0  0
  9 33  1  0  0  0  0
 10 34  1  0  0  0  0
 11 12  1  0  0  0  0
 11 35  1  0  0  0  0
 11 36  1  0  0  0  0
 12 20  1  0  0  0  0
 12 13  1  0  0  0  0
 13 14  2  0  0  0  0
 13 37  1  0  0  0  0
 14 15  1  0  0  0  0
 15 16  1  0  0  0  0
 15 19  2  0  0  0  0
 16 17  1  0  0  0  0
 16 18  1  0  0  0  0
 16 38  1  0  0  0  0
 17 39  1  0  0  0  0
 17 40  1  0  0  0  0
 17 41  1  0  0  0  0
 18 42  1  0  0  0  0
 18 43  1  0  0  0  0
 18 44  1  0  0  0  0
 19 20  1  0  0  0  0
 19 45  1  0  0  0  0
 20 21  2  0  0  0  0
 22 23  1  0  0  0  0
 23 24  2  0  0  0  0
 23 46  1  0  0  0  0
 24 25  1  0  0  0  0
 25 47  1  0  0  0  0
 25 48  1  0  0  0  0
 25 49  1  0  0  0  0
M  END
> <s_m_source_file>
AV-unprocessed.smi

> <i_m_source_file_index>
2691

> <i_lp_mmshare_version>
43012

> <i_f3d_flags>
0

> <s_epik_input>
W0NIM11jKFtjSF0xKWMoW0NIM10pW2NIXWMoYzEyKW4oW2NIXW4yKVtDSDJdW0NASF0oW09IXSlbQ0gyXW4zW2NIXW5jKFtDSF0oW0NIM10pW0NIM10pW2NIXWMzPU8=

> <s_epik_cmdline>
J2VwaWtfcHl0aG9uJywgJy1waCcsICc3LjAnLCAnLXRuJywgJzgnLCAnLW1hJywgJzIwMCcsICctbWV0YWxfYmluZGluZycsICctaW1hZScsICc8aW5maWxlLm1hZT4nLCAnLW9tYWUnLCAnPG91dGZpbGUubWFlPic=

> <r_lp_tautomer_probability>
1

> <r_epik_Ionization_Penalty>
0.113357

> <r_epik_Ionization_Penalty_Charging>
3.84185e-08

> <r_epik_Ionization_Penalty_Neutral>
0.113357

> <r_epik_State_Penalty>
0.103025

> <r_epik_Charging_Adjusted_Penalty>
0.103025

> <i_epik_Tot_Q>
0

> <i_epik_Tot_abs_Q>
0

> <r_epik_Metal_State_Penalty>
0.0863451

> <b_epik_Metal_Only>
0

> <s_lp_Force_Field>
OPLS_2005

> <r_lp_Energy>
18.3457

> <b_lp_Chiralities_Consistent>
1

> <s_lp_Variant>
AV-unprocessed.smi:2691-1

> <Gold.Version>
5.8.1

> <Gold.Id.Protein>
6NUR|6NUR_protein|mol2

> <Gold.PLP.Fitness>
53.1078

> <Gold.PLP.PLP>
-48.9299

> <Gold.PLP.part.hbond>
-2.3975

> <Gold.PLP.part.metal>
0.0000

> <Gold.PLP.part.buried>
-4.0989

> <Gold.PLP.part.nonpolar>
-41.9225

> <Gold.PLP.part.repulsive>
0.2379

> <Gold.PLP.ligand.clash>
0.0000

> <Gold.PLP.ligand.torsion>
0.9934

> <Gold.PLP.Chemscore.Hbond>
2.0340

> <Gold.PLP.Chemscore.CHOScore>
0.0000

> <Gold.PLP.Chemscore.Metal>
0.0000

> <Gold.Chemscore.Hbonds>
donor molecule, donor type, donor heavy atom, donor atom, acceptor molecule, acceptor atom, score
      L1  H    10    34       P1  7957  0.99
      P1  H  7989  7998       L1    10  0.21
      P1  H  8011  8017       L1    10  0.60

> <Gold.PLP.Chemscore.Internal.Correction>
0.0627

> <Gold.Rescore>
     Score         DG    S(hbond)    S(metal)    S(lipo)     H(rot)  DE(clash)    DE(int)     intcor
     14.97     -16.24       1.18        0.00     112.13       2.45       0.32       0.95       ----

> <Gold.Chemscore.Fitness>
14.9731

> <Gold.Chemscore.DG>
-16.2445

> <Gold.Chemscore.ZeroCoef>
-5.4800

> <Gold.Chemscore.Hbond>
1.1757

> <Gold.Chemscore.Metal>
0.0000

> <Gold.Chemscore.Lipo>
112.1262

> <Gold.Chemscore.Internal_Hbond>
0.0000

> <Gold.Chemscore.DEClash>
0.3202

> <Gold.Chemscore.DEInternal>
0.9512

> <Gold.Chemscore.Rot>
2.4536

> <Gold.Chemscore.Internal.Correction>
   9.000000E+99

> <Gold.Chemscore.Hbonds>
donor molecule, donor type, donor heavy atom, donor atom, acceptor molecule, acceptor atom, score
      L1  H    10    34       P1  7957  0.93
      P1  H  7989  7998       L1    10  0.02
      P1  H  8011  8017       L1    10  0.04

> <Gold.Chemscore.Hbond.Weighted>
-3.9270

> <Gold.Chemscore.Metal.Weighted>
-0.0000

> <Gold.Chemscore.Lipo.Weighted>
-13.1188

> <Gold.Chemscore.Internal_Hbond.Weighted>
0.0000

> <Gold.Chemscore.DEClash.Weighted>
0.3202

> <Gold.Chemscore.DEInternal.Weighted>
0.9512

> <Gold.Chemscore.Rot.Weighted>
6.2812

> <Gold.Chemscore.Internal.Correction.Weighted>
   9.000000E+99

> <Gold.Protein.RotatedTorsions>
[ 6907 6896 6895 6894 ] final  -97.88 input  -60.11 | X-H torsion
[ 7974 7965 7964 7962 ] final  -59.49 input  175.53 | X-H torsion
[ 8008 7997 7996 7995 ] final   89.29 input   59.86 | X-H torsion
[ 10167 10162 10161 10158 ] final   40.05 input  -65.29 | X-H torsion
[ 10718 10713 10712 10709 ] final  -48.90 input   66.30 | X-H torsion
[ 10763 10752 10751 10750 ] final   33.36 input  -60.55 | X-H torsion
[ 11005 11000 10999 10996 ] final -110.53 input  -57.11 | X-H torsion

> <Gold.Protein.ActiveResidues>
 VAL166  LYS551  ARG553  GLY616  TRP617  ASP618  TYR619  PRO620  LYS621  CYS622 
 ASP623  PHE694  ASN695  SER759  ASP760  ASP761  ALA762  ILE779  LEU786  VAL792 
 PHE793  MET794  SER795  GLU796  ALA797  LYS798  CYS799  TRP800  GLU811  SER814 

> <Gold.Protein.RotatedAtoms>
  150.7029  134.1281  159.4059 H   0  0  0  0  0  0  0  0  0  0  0  0  # atno 6907 bound_to 6896
  151.9267  135.0272  160.0535 H   0  0  0  0  0  0  0  0  0  0  0  0  # atno 6908 bound_to 6896
  152.2210  133.4948  159.5199 H   0  0  0  0  0  0  0  0  0  0  0  0  # atno 6909 bound_to 6896
  145.8268  140.8505  143.0104 H   0  0  0  0  0  0  0  0  0  0  0  0  # atno 7974 bound_to 7965
  155.9981  140.3362  155.6819 H   0  0  0  0  0  0  0  0  0  0  0  0  # atno 8008 bound_to 7997
  155.6328  140.0687  157.2661 H   0  0  0  0  0  0  0  0  0  0  0  0  # atno 8009 bound_to 7997
  154.4240  140.1756  156.1477 H   0  0  0  0  0  0  0  0  0  0  0  0  # atno 8010 bound_to 7997
  140.3780  144.2017  150.6131 H   0  0  0  0  0  0  0  0  0  0  0  0  # atno 10167 bound_to 10162
  156.1943  130.4154  149.9327 H   0  0  0  0  0  0  0  0  0  0  0  0  # atno 10718 bound_to 10713
  153.0216  135.6389  154.1499 H   0  0  0  0  0  0  0  0  0  0  0  0  # atno 10763 bound_to 10752
  154.1233  135.2845  155.3204 H   0  0  0  0  0  0  0  0  0  0  0  0  # atno 10764 bound_to 10752
  154.6247  135.5513  153.7676 H   0  0  0  0  0  0  0  0  0  0  0  0  # atno 10765 bound_to 10752
  141.0786  133.9258  157.2336 H   0  0  0  0  0  0  0  0  0  0  0  0  # atno 11005 bound_to 11000
  144.6743  140.0614  143.7476 LP  0  0  0  0  0  0  0  0  0  0  0  0  # atno 17320 bound_to 7965
  145.9614  139.2803  143.1153 LP  0  0  0  0  0  0  0  0  0  0  0  0  # atno 17321 bound_to 7965
  140.4966  143.2330  151.8740 LP  0  0  0  0  0  0  0  0  0  0  0  0  # atno 17342 bound_to 10162
  139.4798  144.5106  151.8937 LP  0  0  0  0  0  0  0  0  0  0  0  0  # atno 17343 bound_to 10162
  156.7057  130.8950  151.3604 LP  0  0  0  0  0  0  0  0  0  0  0  0  # atno 17370 bound_to 10713
  157.6948  130.9271  150.0614 LP  0  0  0  0  0  0  0  0  0  0  0  0  # atno 17371 bound_to 10713
  139.9599  135.0156  156.9232 LP  0  0  0  0  0  0  0  0  0  0  0  0  # atno 17394 bound_to 11000
  140.5518  134.0620  155.7371 LP  0  0  0  0  0  0  0  0  0  0  0  0  # atno 17395 bound_to 11000

$$$$
