AV-unprocessed.smi:705|AV-procd|sdf|3448|dock5
  -GOLD-   22720 0433D 1   1.00000     0.00000
 Structure written by MMmdl.
 29 30  0  0  0  0  0  0  0  0  2 V2000
  150.8627  137.7992  153.7594 N   0  0  0  0  0  0  0  0  0  0  0  0
  151.5401  138.0443  154.8842 C   0  0  0  0  0  0  0  0  0  0  0  0
  152.3121  137.2298  155.3874 O   0  0  0  0  0  0  0  0  0  0  0  0
  151.3036  139.3911  155.5020 C   0  0  0  0  0  0  0  0  0  0  0  0
  151.7022  139.6546  156.8471 C   0  0  0  0  0  0  0  0  0  0  0  0
  151.3362  140.9545  157.0617 C   0  0  0  0  0  0  0  0  0  0  0  0
  151.4673  141.8317  158.2669 C   0  0  2  0  0  0  0  0  0  0  0  0
  151.1755  143.3093  157.9394 C   0  0  0  0  0  0  0  0  0  0  0  0
  151.3416  144.1883  159.1884 C   0  0  0  0  0  0  0  0  0  0  0  0
  152.7332  143.9966  159.8117 C   0  0  0  0  0  0  0  0  0  0  0  0
  152.9766  142.5692  160.1121 N   0  3  0  0  0  0  0  0  0  0  0  0
  152.8590  141.7000  158.9203 C   0  0  0  0  0  0  0  0  0  0  0  0
  150.7562  141.3872  155.8904 N   0  0  0  0  0  0  0  0  0  0  0  0
  150.7315  140.4437  154.9308 N   0  0  0  0  0  0  0  0  0  0  0  0
  150.3826  142.3124  155.7309 H   0  0  0  0  0  0  0  0  0  0  0  0
  150.9732  136.9134  153.2879 H   0  0  0  0  0  0  0  0  0  0  0  0
  150.2434  138.5043  153.3866 H   0  0  0  0  0  0  0  0  0  0  0  0
  152.1843  138.9898  157.5488 H   0  0  0  0  0  0  0  0  0  0  0  0
  150.7283  141.5081  159.0019 H   0  0  0  0  0  0  0  0  0  0  0  0
  151.8520  143.6594  157.1584 H   0  0  0  0  0  0  0  0  0  0  0  0
  150.1644  143.4144  157.5444 H   0  0  0  0  0  0  0  0  0  0  0  0
  151.1896  145.2365  158.9287 H   0  0  0  0  0  0  0  0  0  0  0  0
  150.5730  143.9361  159.9203 H   0  0  0  0  0  0  0  0  0  0  0  0
  153.5065  144.3578  159.1323 H   0  0  0  0  0  0  0  0  0  0  0  0
  152.8197  144.5752  160.7316 H   0  0  0  0  0  0  0  0  0  0  0  0
  153.9042  142.4691  160.4996 H   0  0  0  0  0  0  0  0  0  0  0  0
  153.0396  140.6677  159.2217 H   0  0  0  0  0  0  0  0  0  0  0  0
  153.6429  141.9645  158.2091 H   0  0  0  0  0  0  0  0  0  0  0  0
  152.3022  142.2659  160.8001 H   0  0  0  0  0  0  0  0  0  0  0  0
  1  2  1  0  0  0  0
  1 16  1  0  0  0  0
  1 17  1  0  0  0  0
  2  3  2  0  0  0  0
  2  4  1  0  0  0  0
  4 14  2  0  0  0  0
  4  5  1  0  0  0  0
  5  6  2  0  0  0  0
  5 18  1  0  0  0  0
  6  7  1  0  0  0  0
  6 13  1  0  0  0  0
  7 12  1  0  0  0  0
  7  8  1  0  0  0  0
  7 19  1  0  0  0  0
  8  9  1  0  0  0  0
  8 20  1  0  0  0  0
  8 21  1  0  0  0  0
  9 10  1  0  0  0  0
  9 22  1  0  0  0  0
  9 23  1  0  0  0  0
 10 11  1  0  0  0  0
 10 24  1  0  0  0  0
 10 25  1  0  0  0  0
 11 12  1  0  0  0  0
 11 26  1  0  0  0  0
 11 29  1  0  0  0  0
 12 27  1  0  0  0  0
 12 28  1  0  0  0  0
 13 15  1  0  0  0  0
 13 14  1  0  0  0  0
M  CHG  1  11   1
M  END
> <s_m_source_file>
AV-unprocessed.smi

> <i_m_source_file_index>
705

> <i_lp_mmshare_version>
43012

> <i_f3d_flags>
0

> <s_epik_input>
W05IMl1DKD1PKWMxW2NIXWMoW25IXW4xKVtDQEBIXTJbQ0gyXVtDSDJdW0NIMl1bTkhdW0NIMl0y

> <s_epik_cmdline>
J2VwaWtfcHl0aG9uJywgJy1waCcsICc3LjAnLCAnLXRuJywgJzgnLCAnLW1hJywgJzIwMCcsICctbWV0YWxfYmluZGluZycsICctaW1hZScsICc8aW5maWxlLm1hZT4nLCAnLW9tYWUnLCAnPG91dGZpbGUubWFlPic=

> <r_lp_tautomer_probability>
0.5

> <r_epik_Ionization_Penalty>
0.000245231

> <r_epik_Ionization_Penalty_Charging>
0.000226378

> <r_epik_Ionization_Penalty_Neutral>
1.88531e-05

> <r_epik_State_Penalty>
0.41068

> <r_epik_Charging_Adjusted_Penalty>
0.410906

> <i_epik_Tot_Q>
1

> <i_epik_Tot_abs_Q>
1

> <r_epik_Metal_State_Penalty>
0.446108

> <b_epik_Metal_Only>
0

> <s_lp_Force_Field>
OPLS_2005

> <r_lp_Energy>
15.347

> <b_lp_Chiralities_Consistent>
1

> <s_lp_Variant>
AV-unprocessed.smi:705-3

> <Gold.Version>
5.8.1

> <Gold.Id.Protein>
6NUR|6NUR_protein|mol2

> <Gold.PLP.Fitness>
35.9043

> <Gold.PLP.PLP>
-28.5910

> <Gold.PLP.part.hbond>
-3.9157

> <Gold.PLP.part.metal>
0.0000

> <Gold.PLP.part.buried>
-5.1786

> <Gold.PLP.part.nonpolar>
-20.1177

> <Gold.PLP.part.repulsive>
0.4067

> <Gold.PLP.ligand.clash>
0.0000

> <Gold.PLP.ligand.torsion>
0.4436

> <Gold.PLP.Chemscore.Hbond>
2.7280

> <Gold.PLP.Chemscore.CHOScore>
0.0000

> <Gold.PLP.Chemscore.Metal>
0.0000

> <Gold.Chemscore.Hbonds>
donor molecule, donor type, donor heavy atom, donor atom, acceptor molecule, acceptor atom, score
      L1  H     1    16       P1  7949  0.91
      P1  H  7989  7998       L1    14  1.00
      P1  H 10752 10765       L1     3  0.77

> <Gold.PLP.Chemscore.Internal.Correction>
0.0164

> <Gold.Rescore>
     Score         DG    S(hbond)    S(metal)    S(lipo)     H(rot)  DE(clash)    DE(int)     intcor
     17.29     -17.81       2.09        0.00      67.46       1.00       0.03       0.49       ----

> <Gold.Chemscore.Fitness>
17.2925

> <Gold.Chemscore.DG>
-17.8075

> <Gold.Chemscore.ZeroCoef>
-5.4800

> <Gold.Chemscore.Hbond>
2.0943

> <Gold.Chemscore.Metal>
0.0000

> <Gold.Chemscore.Lipo>
67.4581

> <Gold.Chemscore.Internal_Hbond>
0.0000

> <Gold.Chemscore.DEClash>
0.0275

> <Gold.Chemscore.DEInternal>
0.4875

> <Gold.Chemscore.Rot>
1.0000

> <Gold.Chemscore.Internal.Correction>
   9.000000E+99

> <Gold.Chemscore.Hbonds>
donor molecule, donor type, donor heavy atom, donor atom, acceptor molecule, acceptor atom, score
      L1  H     1    16       P1  7949  0.21
      P1  H  7989  7998       L1    14  0.58
      P1  H 10752 10765       L1     3  0.78

> <Gold.Chemscore.Hbond.Weighted>
-6.9949

> <Gold.Chemscore.Metal.Weighted>
-0.0000

> <Gold.Chemscore.Lipo.Weighted>
-7.8926

> <Gold.Chemscore.Internal_Hbond.Weighted>
0.0000

> <Gold.Chemscore.DEClash.Weighted>
0.0275

> <Gold.Chemscore.DEInternal.Weighted>
0.4875

> <Gold.Chemscore.Rot.Weighted>
2.5600

> <Gold.Chemscore.Internal.Correction.Weighted>
   9.000000E+99

> <Gold.Protein.RotatedTorsions>
[ 6907 6896 6895 6894 ] final   59.64 input  -60.11 | X-H torsion
[ 7974 7965 7964 7962 ] final -136.64 input  175.53 | X-H torsion
[ 8008 7997 7996 7995 ] final   79.36 input   59.86 | X-H torsion
[ 10167 10162 10161 10158 ] final  -60.82 input  -65.29 | X-H torsion
[ 10718 10713 10712 10709 ] final -120.05 input   66.30 | X-H torsion
[ 10763 10752 10751 10750 ] final -175.30 input  -60.55 | X-H torsion
[ 11005 11000 10999 10996 ] final  -41.68 input  -57.11 | X-H torsion

> <Gold.Protein.ActiveResidues>
 VAL166  LYS551  ARG553  GLY616  TRP617  ASP618  TYR619  PRO620  LYS621  CYS622 
 ASP623  PHE694  ASN695  SER759  ASP760  ASP761  ALA762  ILE779  LEU786  VAL792 
 PHE793  MET794  SER795  GLU796  ALA797  LYS798  CYS799  TRP800  GLU811  SER814 

> <Gold.Protein.RotatedAtoms>
  152.3933  134.6406  160.0098 H   0  0  0  0  0  0  0  0  0  0  0  0  # atno 6907 bound_to 6896
  151.6634  133.3310  159.3187 H   0  0  0  0  0  0  0  0  0  0  0  0  # atno 6908 bound_to 6896
  150.7845  134.6862  159.6516 H   0  0  0  0  0  0  0  0  0  0  0  0  # atno 6909 bound_to 6896
  144.8909  140.6641  143.5146 H   0  0  0  0  0  0  0  0  0  0  0  0  # atno 7974 bound_to 7965
  155.8686  140.3450  155.5806 H   0  0  0  0  0  0  0  0  0  0  0  0  # atno 8008 bound_to 7997
  155.7852  140.0864  157.2057 H   0  0  0  0  0  0  0  0  0  0  0  0  # atno 8009 bound_to 7997
  154.4016  140.1493  156.3086 H   0  0  0  0  0  0  0  0  0  0  0  0  # atno 8010 bound_to 7997
  140.6046  143.2370  151.5850 H   0  0  0  0  0  0  0  0  0  0  0  0  # atno 10167 bound_to 10162
  156.1228  130.6336  150.9493 H   0  0  0  0  0  0  0  0  0  0  0  0  # atno 10718 bound_to 10713
  154.5860  135.2840  155.0684 H   0  0  0  0  0  0  0  0  0  0  0  0  # atno 10763 bound_to 10752
  154.2003  135.6425  153.5089 H   0  0  0  0  0  0  0  0  0  0  0  0  # atno 10764 bound_to 10752
  153.0104  135.5467  154.6530 H   0  0  0  0  0  0  0  0  0  0  0  0  # atno 10765 bound_to 10752
  141.0263  133.6840  156.2490 H   0  0  0  0  0  0  0  0  0  0  0  0  # atno 11005 bound_to 11000
  145.3784  139.1642  143.4294 LP  0  0  0  0  0  0  0  0  0  0  0  0  # atno 17320 bound_to 7965
  146.3053  140.3863  142.8689 LP  0  0  0  0  0  0  0  0  0  0  0  0  # atno 17321 bound_to 7965
  139.5316  144.2901  152.1159 LP  0  0  0  0  0  0  0  0  0  0  0  0  # atno 17342 bound_to 10162
  140.2088  144.4584  150.6396 LP  0  0  0  0  0  0  0  0  0  0  0  0  # atno 17343 bound_to 10162
  157.6411  131.0910  150.8249 LP  0  0  0  0  0  0  0  0  0  0  0  0  # atno 17370 bound_to 10713
  156.8343  130.5026  149.5328 LP  0  0  0  0  0  0  0  0  0  0  0  0  # atno 17371 bound_to 10713
  140.6486  134.5091  157.5575 LP  0  0  0  0  0  0  0  0  0  0  0  0  # atno 17394 bound_to 11000
  139.9178  134.8211  156.1310 LP  0  0  0  0  0  0  0  0  0  0  0  0  # atno 17395 bound_to 11000

$$$$
