AV-unprocessed.smi:787|AV-procd|sdf|3726|dock3
  -GOLD-   22720 1153D 1   1.00000     0.00000
 Structure written by MMmdl.
 47 49  0  0  0  0  0  0  0  0  2 V2000
  152.6379  139.3154  154.0569 C   0  0  0  0  0  0  0  0  0  0  0  0
  151.2377  139.6613  153.8718 N   0  0  0  0  0  0  0  0  0  0  0  0
  150.5680  140.4606  154.8095 C   0  0  0  0  0  0  0  0  0  0  0  0
  151.2456  140.9964  155.8504 N   0  0  0  0  0  0  0  0  0  0  0  0
  150.5627  141.7569  156.7169 C   0  0  0  0  0  0  0  0  0  0  0  0
  149.2602  142.0817  156.7130 N   0  0  0  0  0  0  0  0  0  0  0  0
  148.5797  141.5534  155.6868 C   0  0  0  0  0  0  0  0  0  0  0  0
  147.2286  141.7178  155.4330 N   0  0  0  0  0  0  0  0  0  0  0  0
  147.0707  141.0001  154.3235 C   0  0  0  0  0  0  0  0  0  0  0  0
  148.1590  140.3805  153.8250 N   0  0  0  0  0  0  0  0  0  0  0  0
  148.2212  139.5457  152.6392 C   0  0  0  0  0  0  0  0  0  0  0  0
  146.8485  138.9392  152.2790 C   0  0  1  0  0  0  0  0  0  0  0  0
  146.9225  138.3516  150.9962 O   0  0  0  0  0  0  0  0  0  0  0  0
  146.3980  137.8602  153.2806 C   0  0  0  0  0  0  0  0  0  0  0  0
  146.3936  136.5056  152.6671 N   0  3  1  0  0  0  0  0  0  0  0  0
  146.8176  135.4472  153.6124 C   0  0  0  0  0  0  0  0  0  0  0  0
  145.1211  136.1655  151.9846 C   0  0  0  0  0  0  0  0  0  0  0  0
  145.1234  134.7331  151.4790 C   0  0  0  0  0  0  0  0  0  0  0  0
  144.0170  133.8953  151.7336 C   0  0  0  0  0  0  0  0  0  0  0  0
  144.0198  132.5617  151.2807 C   0  0  0  0  0  0  0  0  0  0  0  0
  145.1267  132.0621  150.5680 C   0  0  0  0  0  0  0  0  0  0  0  0
  146.2310  132.8963  150.3082 C   0  0  0  0  0  0  0  0  0  0  0  0
  146.2296  134.2296  150.7615 C   0  0  0  0  0  0  0  0  0  0  0  0
  149.1889  140.7255  154.6967 C   0  0  0  0  0  0  0  0  0  0  0  0
  152.9796  138.6907  153.2317 H   0  0  0  0  0  0  0  0  0  0  0  0
  152.7794  138.7619  154.9859 H   0  0  0  0  0  0  0  0  0  0  0  0
  153.2576  140.2123  154.0854 H   0  0  0  0  0  0  0  0  0  0  0  0
  150.7478  139.3201  153.0592 H   0  0  0  0  0  0  0  0  0  0  0  0
  151.1409  142.1658  157.5322 H   0  0  0  0  0  0  0  0  0  0  0  0
  146.1044  140.9155  153.8476 H   0  0  0  0  0  0  0  0  0  0  0  0
  148.6085  140.1382  151.8086 H   0  0  0  0  0  0  0  0  0  0  0  0
  148.9566  138.7618  152.8209 H   0  0  0  0  0  0  0  0  0  0  0  0
  146.0970  139.7263  152.2238 H   0  0  0  0  0  0  0  0  0  0  0  0
  146.2287  137.7146  150.9145 H   0  0  0  0  0  0  0  0  0  0  0  0
  147.0448  137.8530  154.1598 H   0  0  0  0  0  0  0  0  0  0  0  0
  145.4063  138.1272  153.6461 H   0  0  0  0  0  0  0  0  0  0  0  0
  146.0879  135.3242  154.4139 H   0  0  0  0  0  0  0  0  0  0  0  0
  147.7819  135.6805  154.0634 H   0  0  0  0  0  0  0  0  0  0  0  0
  146.9231  134.4918  153.0974 H   0  0  0  0  0  0  0  0  0  0  0  0
  144.2874  136.2657  152.6816 H   0  0  0  0  0  0  0  0  0  0  0  0
  144.9330  136.8665  151.1696 H   0  0  0  0  0  0  0  0  0  0  0  0
  143.1651  134.2711  152.2815 H   0  0  0  0  0  0  0  0  0  0  0  0
  143.1727  131.9215  151.4794 H   0  0  0  0  0  0  0  0  0  0  0  0
  145.1283  131.0397  150.2192 H   0  0  0  0  0  0  0  0  0  0  0  0
  147.0795  132.5129  149.7604 H   0  0  0  0  0  0  0  0  0  0  0  0
  147.0821  134.8617  150.5589 H   0  0  0  0  0  0  0  0  0  0  0  0
  147.0879  136.5262  151.9343 H   0  0  0  0  0  0  0  0  0  0  0  0
  1  2  1  0  0  0  0
  1 25  1  0  0  0  0
  1 26  1  0  0  0  0
  1 27  1  0  0  0  0
  2  3  1  0  0  0  0
  2 28  1  0  0  0  0
  3 24  1  0  0  0  0
  3  4  2  0  0  0  0
  4  5  1  0  0  0  0
  5  6  2  0  0  0  0
  5 29  1  0  0  0  0
  6  7  1  0  0  0  0
  7 24  2  0  0  0  0
  7  8  1  0  0  0  0
  8  9  2  0  0  0  0
  9 10  1  0  0  0  0
  9 30  1  0  0  0  0
 10 11  1  0  0  0  0
 10 24  1  0  0  0  0
 11 12  1  0  0  0  0
 11 31  1  0  0  0  0
 11 32  1  0  0  0  0
 12 13  1  0  0  0  0
 12 14  1  0  0  0  0
 12 33  1  0  0  0  0
 13 34  1  0  0  0  0
 14 15  1  0  0  0  0
 14 35  1  0  0  0  0
 14 36  1  0  0  0  0
 15 16  1  0  0  0  0
 15 17  1  0  0  0  0
 15 47  1  0  0  0  0
 16 37  1  0  0  0  0
 16 38  1  0  0  0  0
 16 39  1  0  0  0  0
 17 18  1  0  0  0  0
 17 40  1  0  0  0  0
 17 41  1  0  0  0  0
 18 23  1  0  0  0  0
 18 19  2  0  0  0  0
 19 20  1  0  0  0  0
 19 42  1  0  0  0  0
 20 21  2  0  0  0  0
 20 43  1  0  0  0  0
 21 22  1  0  0  0  0
 21 44  1  0  0  0  0
 22 23  2  0  0  0  0
 22 45  1  0  0  0  0
 23 46  1  0  0  0  0
M  CHG  1  15   1
M  END
> <s_m_source_file>
AV-unprocessed.smi

> <i_m_source_file_index>
787

> <i_lp_mmshare_version>
43012

> <i_f3d_flags>
0

> <s_epik_input>
bjFbY0hdbmMoW05IXVtDSDNdKWMoYzEyKW4oW2NIXW4yKVtDSDJdW0NASF0oW09IXSlbQ0gyXU4oW0NIM10pW0NIMl1jM1tjSF1bY0hdW2NIXVtjSF1bY0hdMw==

> <s_epik_cmdline>
J2VwaWtfcHl0aG9uJywgJy1waCcsICc3LjAnLCAnLXRuJywgJzgnLCAnLW1hJywgJzIwMCcsICctbWV0YWxfYmluZGluZycsICctaW1hZScsICc8aW5maWxlLm1hZT4nLCAnLW9tYWUnLCAnPG91dGZpbGUubWFlPic=

> <r_lp_tautomer_probability>
0.999987

> <r_epik_Ionization_Penalty>
0.0526284

> <r_epik_Ionization_Penalty_Charging>
0.0475377

> <r_epik_Ionization_Penalty_Neutral>
0.00509065

> <r_epik_State_Penalty>
0.0404888

> <r_epik_Charging_Adjusted_Penalty>
0.0880265

> <i_epik_Tot_Q>
1

> <i_epik_Tot_abs_Q>
1

> <r_epik_Metal_State_Penalty>
0.040507

> <b_epik_Metal_Only>
0

> <s_lp_Force_Field>
OPLS_2005

> <r_lp_Energy>
14.3877

> <b_lp_Chiralities_Consistent>
1

> <s_lp_Variant>
AV-unprocessed.smi:787-2

> <Gold.Version>
5.8.1

> <Gold.Id.Protein>
6NUR|6NUR_protein|mol2

> <Gold.PLP.Fitness>
49.4067

> <Gold.PLP.PLP>
-40.5460

> <Gold.PLP.part.hbond>
-3.7326

> <Gold.PLP.part.metal>
0.0000

> <Gold.PLP.part.buried>
-2.9374

> <Gold.PLP.part.nonpolar>
-36.1659

> <Gold.PLP.part.repulsive>
2.1031

> <Gold.PLP.ligand.clash>
0.0000

> <Gold.PLP.ligand.torsion>
1.7079

> <Gold.PLP.Chemscore.Hbond>
2.9840

> <Gold.PLP.Chemscore.CHOScore>
1.0000

> <Gold.PLP.Chemscore.Metal>
0.0000

> <Gold.Chemscore.Hbonds>
donor molecule, donor type, donor heavy atom, donor atom, acceptor molecule, acceptor atom, score
      L1  H     2    28       P1  7957  0.26
      L1  H    15    47       P1  7948  1.44
      P1  H  7954  7966       L1    13  1.00
      L1  C     9    30       P1 10175  0.30

> <Gold.PLP.Chemscore.Internal.Correction>
0.3245

> <Gold.Rescore>
     Score         DG    S(hbond)    S(metal)    S(lipo)     H(rot)  DE(clash)    DE(int)     intcor
      9.16     -14.02       1.79        0.00      91.79       3.19       2.01       2.84       ----

> <Gold.Chemscore.Fitness>
9.1631

> <Gold.Chemscore.DG>
-14.0152

> <Gold.Chemscore.ZeroCoef>
-5.4800

> <Gold.Chemscore.Hbond>
1.7872

> <Gold.Chemscore.Metal>
0.0000

> <Gold.Chemscore.Lipo>
91.7915

> <Gold.Chemscore.Internal_Hbond>
0.0000

> <Gold.Chemscore.DEClash>
2.0143

> <Gold.Chemscore.DEInternal>
2.8378

> <Gold.Chemscore.Rot>
3.1928

> <Gold.Chemscore.Internal.Correction>
   9.000000E+99

> <Gold.Chemscore.Hbonds>
donor molecule, donor type, donor heavy atom, donor atom, acceptor molecule, acceptor atom, score
      L1  H     2    28       P1  7957  0.16
      L1  H    15    47       P1  7948  0.72
      P1  H  7954  7966       L1    13  0.59

> <Gold.Chemscore.Hbond.Weighted>
-5.9692

> <Gold.Chemscore.Metal.Weighted>
-0.0000

> <Gold.Chemscore.Lipo.Weighted>
-10.7396

> <Gold.Chemscore.Internal_Hbond.Weighted>
0.0000

> <Gold.Chemscore.DEClash.Weighted>
2.0143

> <Gold.Chemscore.DEInternal.Weighted>
2.8378

> <Gold.Chemscore.Rot.Weighted>
8.1736

> <Gold.Chemscore.Internal.Correction.Weighted>
   9.000000E+99

> <Gold.Protein.RotatedTorsions>
[ 6907 6896 6895 6894 ] final   -4.25 input  -60.11 | X-H torsion
[ 7974 7965 7964 7962 ] final  133.80 input  175.53 | X-H torsion
[ 8008 7997 7996 7995 ] final -128.40 input   59.86 | X-H torsion
[ 10167 10162 10161 10158 ] final  155.75 input  -65.29 | X-H torsion
[ 10718 10713 10712 10709 ] final   93.75 input   66.30 | X-H torsion
[ 10763 10752 10751 10750 ] final -114.52 input  -60.55 | X-H torsion
[ 11005 11000 10999 10996 ] final  -77.34 input  -57.11 | X-H torsion

> <Gold.Protein.ActiveResidues>
 VAL166  LYS551  ARG553  GLY616  TRP617  ASP618  TYR619  PRO620  LYS621  CYS622 
 ASP623  PHE694  ASN695  SER759  ASP760  ASP761  ALA762  ILE779  LEU786  VAL792 
 PHE793  MET794  SER795  GLU796  ALA797  LYS798  CYS799  TRP800  GLU811  SER814 

> <Gold.Protein.RotatedAtoms>
  151.5007  135.1061  159.9827 H   0  0  0  0  0  0  0  0  0  0  0  0  # atno 6907 bound_to 6896
  152.4703  133.8011  159.6963 H   0  0  0  0  0  0  0  0  0  0  0  0  # atno 6908 bound_to 6896
  150.8708  133.7445  159.2987 H   0  0  0  0  0  0  0  0  0  0  0  0  # atno 6909 bound_to 6896
  144.9829  139.4486  143.5377 H   0  0  0  0  0  0  0  0  0  0  0  0  # atno 7974 bound_to 7965
  155.2621  140.0436  157.2998 H   0  0  0  0  0  0  0  0  0  0  0  0  # atno 8008 bound_to 7997
  154.5704  140.2372  155.8169 H   0  0  0  0  0  0  0  0  0  0  0  0  # atno 8009 bound_to 7997
  156.2118  140.2996  155.9757 H   0  0  0  0  0  0  0  0  0  0  0  0  # atno 8010 bound_to 7997
  139.4821  144.5070  151.8082 H   0  0  0  0  0  0  0  0  0  0  0  0  # atno 10167 bound_to 10162
  157.6952  131.0489  150.4082 H   0  0  0  0  0  0  0  0  0  0  0  0  # atno 10718 bound_to 10713
  154.8443  135.4415  154.1519 H   0  0  0  0  0  0  0  0  0  0  0  0  # atno 10763 bound_to 10752
  153.2677  135.6942  153.7518 H   0  0  0  0  0  0  0  0  0  0  0  0  # atno 10764 bound_to 10752
  153.6771  135.3409  155.3144 H   0  0  0  0  0  0  0  0  0  0  0  0  # atno 10765 bound_to 10752
  141.1659  133.7018  156.7805 H   0  0  0  0  0  0  0  0  0  0  0  0  # atno 11005 bound_to 11000
  146.3412  139.9112  142.8780 LP  0  0  0  0  0  0  0  0  0  0  0  0  # atno 17320 bound_to 7965
  145.2395  141.0004  143.3944 LP  0  0  0  0  0  0  0  0  0  0  0  0  # atno 17321 bound_to 7965
  140.4569  144.1777  150.5902 LP  0  0  0  0  0  0  0  0  0  0  0  0  # atno 17342 bound_to 10162
  140.4526  143.2481  151.9328 LP  0  0  0  0  0  0  0  0  0  0  0  0  # atno 17343 bound_to 10162
  156.4469  130.4003  149.6661 LP  0  0  0  0  0  0  0  0  0  0  0  0  # atno 17370 bound_to 10713
  156.3825  130.7586  151.2580 LP  0  0  0  0  0  0  0  0  0  0  0  0  # atno 17371 bound_to 10713
  140.2398  134.8622  157.3561 LP  0  0  0  0  0  0  0  0  0  0  0  0  # atno 17394 bound_to 11000
  140.1808  134.4492  155.7773 LP  0  0  0  0  0  0  0  0  0  0  0  0  # atno 17395 bound_to 11000

$$$$
