AV-unprocessed.smi:245|AV-procd|sdf|1878|dock10
  -GOLD-   2262020523D 1   1.00000     0.00000
 Structure written by MMmdl.
 54 58  0  0  0  0  0  0  0  0  1 V2000
  149.3786  141.6712  155.0804 O   0  0  0  0  0  0  0  0  0  0  0  0
  150.1967  141.7740  155.9914 C   0  0  0  0  0  0  0  0  0  0  0  0
  150.7927  140.5024  156.6208 C   0  0  0  0  0  0  0  0  0  0  0  0
  151.7302  140.7273  157.7345 N   0  0  0  0  0  0  0  0  0  0  0  0
  151.9328  139.5798  158.4256 C   0  0  0  0  0  0  0  0  0  0  0  0
  150.9237  138.6798  158.5675 N   0  0  0  0  0  0  0  0  0  0  0  0
  151.1356  137.5364  159.2266 C   0  0  0  0  0  0  0  0  0  0  0  0
  152.2593  137.0983  159.7990 N   0  0  0  0  0  0  0  0  0  0  0  0
  153.2767  137.9939  159.6439 C   0  0  0  0  0  0  0  0  0  0  0  0
  153.1983  139.2486  158.9783 C   0  0  0  0  0  0  0  0  0  0  0  0
  154.4265  139.8951  159.0308 N   0  0  0  0  0  0  0  0  0  0  0  0
  155.1881  139.0706  159.6973 C   0  0  0  0  0  0  0  0  0  0  0  0
  154.5859  137.8924  160.0805 N   0  0  0  0  0  0  0  0  0  0  0  0
  155.1712  136.8304  160.8447 C   0  0  0  0  0  0  0  0  0  0  0  0
  154.3387  135.6446  161.3404 C   0  0  0  0  0  0  0  0  0  0  0  0
  155.2360  135.5509  162.5958 C   0  0  0  0  0  0  0  0  0  0  0  0
  154.4764  135.2520  163.9006 C   0  0  0  0  0  0  0  0  0  0  0  0
  155.2825  135.4602  165.0419 O   0  0  0  0  0  0  0  0  0  0  0  0
  156.4099  134.5592  162.4511 C   0  0  0  0  0  0  0  0  0  0  0  0
  155.9754  133.2155  162.4223 O   0  0  0  0  0  0  0  0  0  0  0  0
  155.5513  137.0377  162.3114 C   0  0  0  0  0  0  0  0  0  0  0  0
  151.6095  141.9802  158.4903 C   0  0  1  0  0  0  0  0  0  0  0  0
  152.7520  142.2088  159.5118 C   0  0  0  0  0  0  0  0  0  0  0  0
  152.5744  143.5453  160.2533 C   0  0  0  0  0  0  0  0  0  0  0  0
  152.4766  144.7268  159.2754 C   0  0  0  0  0  0  0  0  0  0  0  0
  151.3713  144.4996  158.2320 C   0  0  0  0  0  0  0  0  0  0  0  0
  151.5831  143.1644  157.4982 C   0  0  2  0  0  0  0  0  0  0  0  0
  150.5724  142.9715  156.4662 N   0  0  0  0  0  0  0  0  0  0  0  0
  149.9592  139.8789  156.9513 H   0  0  0  0  0  0  0  0  0  0  0  0
  151.3071  139.9488  155.8344 H   0  0  0  0  0  0  0  0  0  0  0  0
  150.2843  136.8763  159.3036 H   0  0  0  0  0  0  0  0  0  0  0  0
  156.2193  139.3014  159.9218 H   0  0  0  0  0  0  0  0  0  0  0  0
  156.0323  136.4857  160.2696 H   0  0  0  0  0  0  0  0  0  0  0  0
  153.3090  135.9250  161.5698 H   0  0  0  0  0  0  0  0  0  0  0  0
  154.3665  134.7709  160.6884 H   0  0  0  0  0  0  0  0  0  0  0  0
  153.6044  135.8994  163.9983 H   0  0  0  0  0  0  0  0  0  0  0  0
  154.1000  134.2287  163.9153 H   0  0  0  0  0  0  0  0  0  0  0  0
  156.0566  134.9238  164.9658 H   0  0  0  0  0  0  0  0  0  0  0  0
  156.9849  134.7596  161.5468 H   0  0  0  0  0  0  0  0  0  0  0  0
  157.1112  134.6567  163.2799 H   0  0  0  0  0  0  0  0  0  0  0  0
  155.2779  133.1379  161.7896 H   0  0  0  0  0  0  0  0  0  0  0  0
  156.5892  137.3312  162.4705 H   0  0  0  0  0  0  0  0  0  0  0  0
  154.8717  137.7209  162.8248 H   0  0  0  0  0  0  0  0  0  0  0  0
  150.6596  141.9551  159.0288 H   0  0  0  0  0  0  0  0  0  0  0  0
  152.7923  141.4090  160.2503 H   0  0  0  0  0  0  0  0  0  0  0  0
  153.7145  142.1995  158.9984 H   0  0  0  0  0  0  0  0  0  0  0  0
  151.6721  143.5036  160.8648 H   0  0  0  0  0  0  0  0  0  0  0  0
  153.4058  143.7018  160.9413 H   0  0  0  0  0  0  0  0  0  0  0  0
  152.2878  145.6502  159.8238 H   0  0  0  0  0  0  0  0  0  0  0  0
  153.4335  144.8589  158.7687 H   0  0  0  0  0  0  0  0  0  0  0  0
  150.3963  144.5047  158.7216 H   0  0  0  0  0  0  0  0  0  0  0  0
  151.3661  145.3250  157.5190 H   0  0  0  0  0  0  0  0  0  0  0  0
  152.5429  143.2081  156.9799 H   0  0  0  0  0  0  0  0  0  0  0  0
  150.1622  143.7989  156.0580 H   0  0  0  0  0  0  0  0  0  0  0  0
  1  2  2  0  0  0  0
  2 28  1  0  0  0  0
  2  3  1  0  0  0  0
  3  4  1  0  0  0  0
  3 29  1  0  0  0  0
  3 30  1  0  0  0  0
  4  5  1  0  0  0  0
  4 22  1  0  0  0  0
  5 10  1  0  0  0  0
  5  6  2  0  0  0  0
  6  7  1  0  0  0  0
  7  8  2  0  0  0  0
  7 31  1  0  0  0  0
  8  9  1  0  0  0  0
  9 13  1  0  0  0  0
  9 10  2  0  0  0  0
 10 11  1  0  0  0  0
 11 12  2  0  0  0  0
 12 13  1  0  0  0  0
 12 32  1  0  0  0  0
 13 14  1  0  0  0  0
 14 21  1  0  0  0  0
 14 15  1  0  0  0  0
 14 33  1  0  0  0  0
 15 16  1  0  0  0  0
 15 34  1  0  0  0  0
 15 35  1  0  0  0  0
 16 17  1  0  0  0  0
 16 19  1  0  0  0  0
 16 21  1  0  0  0  0
 17 18  1  0  0  0  0
 17 36  1  0  0  0  0
 17 37  1  0  0  0  0
 18 38  1  0  0  0  0
 19 20  1  0  0  0  0
 19 39  1  0  0  0  0
 19 40  1  0  0  0  0
 20 41  1  0  0  0  0
 21 42  1  0  0  0  0
 21 43  1  0  0  0  0
 22 27  1  0  0  0  0
 22 23  1  0  0  0  0
 22 44  1  0  0  0  0
 23 24  1  0  0  0  0
 23 45  1  0  0  0  0
 23 46  1  0  0  0  0
 24 25  1  0  0  0  0
 24 47  1  0  0  0  0
 24 48  1  0  0  0  0
 25 26  1  0  0  0  0
 25 49  1  0  0  0  0
 25 50  1  0  0  0  0
 26 27  1  0  0  0  0
 26 51  1  0  0  0  0
 26 52  1  0  0  0  0
 27 28  1  0  0  0  0
 27 53  1  0  0  0  0
 28 54  1  0  0  0  0
M  END
> <s_m_source_file>
AV-unprocessed.smi

> <i_m_source_file_index>
245

> <i_lp_mmshare_version>
43012

> <i_f3d_flags>
0

> <s_epik_input>
W0NIMl0xW0NIMl1bQ0gyXVtDSDJdW0NASF0oW0NASF0xMilbTkhdQyg9TylbQ0gyXU4yYyhuW2NIXW4zKWMoYzM0KW5bY0hdbjRbQ0hdKFtDSDJdNSlbQ0gyXUM1KFtDSDJdW09IXSlbQ0gyXVtPSF0=

> <s_epik_cmdline>
J2VwaWtfcHl0aG9uJywgJy1waCcsICc3LjAnLCAnLXRuJywgJzgnLCAnLW1hJywgJzIwMCcsICctbWV0YWxfYmluZGluZycsICctaW1hZScsICc8aW5maWxlLm1hZT4nLCAnLW9tYWUnLCAnPG91dGZpbGUubWFlPic=

> <r_lp_tautomer_probability>
1

> <r_epik_Ionization_Penalty>
0.000702616

> <r_epik_Ionization_Penalty_Charging>
0

> <r_epik_Ionization_Penalty_Neutral>
0.000702616

> <r_epik_State_Penalty>
0.000343985

> <r_epik_Charging_Adjusted_Penalty>
0.000343985

> <i_epik_Tot_Q>
0

> <i_epik_Tot_abs_Q>
0

> <r_epik_Metal_State_Penalty>
-0

> <b_epik_Metal_Only>
0

> <s_lp_Force_Field>
OPLS_2005

> <r_lp_Energy>
49.1986

> <b_lp_Chiralities_Consistent>
1

> <s_lp_Variant>
AV-unprocessed.smi:245-3

> <Gold.Version>
5.8.1

> <Gold.Id.Protein>
6NUR|6NUR_protein|mol2

> <Gold.PLP.Fitness>
54.7036

> <Gold.PLP.PLP>
-46.4309

> <Gold.PLP.part.hbond>
-4.2993

> <Gold.PLP.part.metal>
0.0000

> <Gold.PLP.part.buried>
-7.7674

> <Gold.PLP.part.nonpolar>
-35.4226

> <Gold.PLP.part.repulsive>
0.2372

> <Gold.PLP.ligand.clash>
0.0000

> <Gold.PLP.ligand.torsion>
0.7914

> <Gold.PLP.Chemscore.Hbond>
2.9913

> <Gold.PLP.Chemscore.CHOScore>
0.0000

> <Gold.PLP.Chemscore.Metal>
0.0000

> <Gold.Chemscore.Hbonds>
donor molecule, donor type, donor heavy atom, donor atom, acceptor molecule, acceptor atom, score
      L1  H    28    54       P1  8028  1.00
      P1  H  6896  6908       L1     8  1.00
      P1  H  7997  8010       L1    11  1.00

> <Gold.PLP.Chemscore.Internal.Correction>
0.8817

> <Gold.Rescore>
     Score         DG    S(hbond)    S(metal)    S(lipo)     H(rot)  DE(clash)    DE(int)     intcor
     14.41     -16.63       2.37        0.00      99.27       3.28       0.06       2.16       ----

> <Gold.Chemscore.Fitness>
14.4125

> <Gold.Chemscore.DG>
-16.6262

> <Gold.Chemscore.ZeroCoef>
-5.4800

> <Gold.Chemscore.Hbond>
2.3706

> <Gold.Chemscore.Metal>
0.0000

> <Gold.Chemscore.Lipo>
99.2680

> <Gold.Chemscore.Internal_Hbond>
0.0000

> <Gold.Chemscore.DEClash>
0.0580

> <Gold.Chemscore.DEInternal>
2.1557

> <Gold.Chemscore.Rot>
3.2758

> <Gold.Chemscore.Internal.Correction>
   9.000000E+99

> <Gold.Chemscore.Hbonds>
donor molecule, donor type, donor heavy atom, donor atom, acceptor molecule, acceptor atom, score
      L1  H    28    54       P1  8028  0.96
      P1  H  6896  6908       L1     8  0.32
      P1  H  7997  8010       L1    11  0.42

> <Gold.Chemscore.Hbond.Weighted>
-7.9178

> <Gold.Chemscore.Metal.Weighted>
-0.0000

> <Gold.Chemscore.Lipo.Weighted>
-11.6144

> <Gold.Chemscore.Internal_Hbond.Weighted>
0.0000

> <Gold.Chemscore.DEClash.Weighted>
0.0580

> <Gold.Chemscore.DEInternal.Weighted>
2.1557

> <Gold.Chemscore.Rot.Weighted>
8.3859

> <Gold.Chemscore.Internal.Correction.Weighted>
   9.000000E+99

> <Gold.Protein.RotatedTorsions>
[ 6907 6896 6895 6894 ] final -101.97 input  -60.11 | X-H torsion
[ 7974 7965 7964 7962 ] final   84.47 input  175.53 | X-H torsion
[ 8008 7997 7996 7995 ] final    7.57 input   59.86 | X-H torsion
[ 10167 10162 10161 10158 ] final  159.36 input  -65.29 | X-H torsion
[ 10718 10713 10712 10709 ] final   90.82 input   66.30 | X-H torsion
[ 10763 10752 10751 10750 ] final  -56.32 input  -60.55 | X-H torsion
[ 11005 11000 10999 10996 ] final  173.85 input  -57.11 | X-H torsion

> <Gold.Protein.ActiveResidues>
 VAL166  LYS551  ARG553  GLY616  TRP617  ASP618  TYR619  PRO620  LYS621  CYS622 
 ASP623  PHE694  ASN695  SER759  ASP760  ASP761  ALA762  ILE779  LEU786  VAL792 
 PHE793  MET794  SER795  GLU796  ALA797  LYS798  CYS799  TRP800  GLU811  SER814 

> <Gold.Protein.RotatedAtoms>
  150.7176  134.0652  159.3844 H   0  0  0  0  0  0  0  0  0  0  0  0  # atno 6907 bound_to 6896
  151.8633  135.0514  160.0481 H   0  0  0  0  0  0  0  0  0  0  0  0  # atno 6908 bound_to 6896
  152.2700  133.5338  159.5470 H   0  0  0  0  0  0  0  0  0  0  0  0  # atno 6909 bound_to 6896
  145.5982  139.2348  143.2260 H   0  0  0  0  0  0  0  0  0  0  0  0  # atno 7974 bound_to 7965
  154.7555  140.2775  155.6257 H   0  0  0  0  0  0  0  0  0  0  0  0  # atno 8008 bound_to 7997
  156.2905  140.2670  156.2247 H   0  0  0  0  0  0  0  0  0  0  0  0  # atno 8009 bound_to 7997
  155.0083  140.0372  157.2378 H   0  0  0  0  0  0  0  0  0  0  0  0  # atno 8010 bound_to 7997
  139.4832  144.4737  151.8541 H   0  0  0  0  0  0  0  0  0  0  0  0  # atno 10167 bound_to 10162
  157.6959  131.0385  150.3636 H   0  0  0  0  0  0  0  0  0  0  0  0  # atno 10718 bound_to 10713
  154.2048  135.6405  153.5097 H   0  0  0  0  0  0  0  0  0  0  0  0  # atno 10763 bound_to 10752
  153.0003  135.5460  154.6277 H   0  0  0  0  0  0  0  0  0  0  0  0  # atno 10764 bound_to 10752
  154.5699  135.2916  155.0810 H   0  0  0  0  0  0  0  0  0  0  0  0  # atno 10765 bound_to 10752
  140.3450  134.7244  157.4228 H   0  0  0  0  0  0  0  0  0  0  0  0  # atno 11005 bound_to 11000
  146.1596  140.6808  142.9284 LP  0  0  0  0  0  0  0  0  0  0  0  0  # atno 17320 bound_to 7965
  144.7321  140.4702  143.6930 LP  0  0  0  0  0  0  0  0  0  0  0  0  # atno 17321 bound_to 7965
  140.4208  144.2246  150.5887 LP  0  0  0  0  0  0  0  0  0  0  0  0  # atno 17342 bound_to 10162
  140.4876  143.2358  151.8865 LP  0  0  0  0  0  0  0  0  0  0  0  0  # atno 17343 bound_to 10162
  156.4069  130.3926  149.6919 LP  0  0  0  0  0  0  0  0  0  0  0  0  # atno 17370 bound_to 10713
  156.4217  130.7772  151.2789 LP  0  0  0  0  0  0  0  0  0  0  0  0  # atno 17371 bound_to 10713
  140.0750  134.5810  155.8601 LP  0  0  0  0  0  0  0  0  0  0  0  0  # atno 17394 bound_to 11000
  141.2028  133.6627  156.6027 LP  0  0  0  0  0  0  0  0  0  0  0  0  # atno 17395 bound_to 11000

$$$$
