AV-unprocessed.smi:717|AV-procd|sdf|3490|dock10
  -GOLD-   22720 0483D 1   1.00000     0.00000
 Structure written by MMmdl.
 43 44  0  0  0  0  0  0  0  0  1 V2000
  156.7080  142.2340  164.8068 O   0  0  0  0  0  0  0  0  0  0  0  0
  155.4901  142.3906  164.7155 C   0  0  0  0  0  0  0  0  0  0  0  0
  154.7890  143.4768  165.5352 C   0  0  0  0  0  0  0  0  0  0  0  0
  154.9293  143.2061  167.0226 C   0  0  0  0  0  0  0  0  0  0  0  0
  154.9488  141.8864  167.5202 C   0  0  0  0  0  0  0  0  0  0  0  0
  155.0766  141.6866  168.9080 C   0  0  0  0  0  0  0  0  0  0  0  0
  155.1799  142.8180  169.7417 C   0  0  0  0  0  0  0  0  0  0  0  0
  155.1637  144.0860  169.2769 N   0  0  0  0  0  0  0  0  0  0  0  0
  155.0404  144.2689  167.9447 C   0  0  0  0  0  0  0  0  0  0  0  0
  154.7095  141.6492  163.9145 N   0  0  0  0  0  0  0  0  0  0  0  0
  155.1756  140.5691  163.0525 C   0  0  0  0  0  0  0  0  0  0  0  0
  154.3687  140.4951  161.7454 C   0  0  0  0  0  0  0  0  0  0  0  0
  153.8102  141.8606  161.3211 C   0  0  0  0  0  0  0  0  0  0  0  0
  152.9988  141.7851  160.0181 C   0  0  0  0  0  0  0  0  0  0  0  0
  152.6266  143.1670  159.4523 C   0  0  0  0  0  0  0  0  0  0  0  0
  151.8657  144.0468  160.4456 C   0  0  0  0  0  0  0  0  0  0  0  0
  151.2301  145.1353  159.5791 C   0  0  0  0  0  0  0  0  0  0  0  0
  150.9824  144.4878  158.2089 C   0  0  0  0  0  0  0  0  0  0  0  0
  151.6960  143.1284  158.2337 C   0  0  0  0  0  0  0  0  0  0  0  0
  155.2261  144.4455  165.2903 H   0  0  0  0  0  0  0  0  0  0  0  0
  153.7302  143.5327  165.2762 H   0  0  0  0  0  0  0  0  0  0  0  0
  154.8642  141.0419  166.8519 H   0  0  0  0  0  0  0  0  0  0  0  0
  155.0933  140.6901  169.3240 H   0  0  0  0  0  0  0  0  0  0  0  0
  155.2782  142.7009  170.8106 H   0  0  0  0  0  0  0  0  0  0  0  0
  155.0276  145.2941  167.6048 H   0  0  0  0  0  0  0  0  0  0  0  0
  153.7191  141.8462  163.9026 H   0  0  0  0  0  0  0  0  0  0  0  0
  156.2387  140.6938  162.8400 H   0  0  0  0  0  0  0  0  0  0  0  0
  155.0771  139.6333  163.6033 H   0  0  0  0  0  0  0  0  0  0  0  0
  154.9996  140.0976  160.9493 H   0  0  0  0  0  0  0  0  0  0  0  0
  153.5429  139.7925  161.8647 H   0  0  0  0  0  0  0  0  0  0  0  0
  153.1780  142.2554  162.1174 H   0  0  0  0  0  0  0  0  0  0  0  0
  154.6335  142.5654  161.2018 H   0  0  0  0  0  0  0  0  0  0  0  0
  153.5533  141.2152  159.2713 H   0  0  0  0  0  0  0  0  0  0  0  0
  152.0816  141.2258  160.2069 H   0  0  0  0  0  0  0  0  0  0  0  0
  153.5401  143.6944  159.1722 H   0  0  0  0  0  0  0  0  0  0  0  0
  151.0827  143.4666  160.9359 H   0  0  0  0  0  0  0  0  0  0  0  0
  152.5113  144.4572  161.2228 H   0  0  0  0  0  0  0  0  0  0  0  0
  150.3165  145.5315  160.0234 H   0  0  0  0  0  0  0  0  0  0  0  0
  151.9274  145.9666  159.4678 H   0  0  0  0  0  0  0  0  0  0  0  0
  149.9165  144.3569  158.0193 H   0  0  0  0  0  0  0  0  0  0  0  0
  151.3783  145.1220  157.4149 H   0  0  0  0  0  0  0  0  0  0  0  0
  152.2362  142.9306  157.3073 H   0  0  0  0  0  0  0  0  0  0  0  0
  150.9556  142.3364  158.3553 H   0  0  0  0  0  0  0  0  0  0  0  0
  1  2  2  0  0  0  0
  2  3  1  0  0  0  0
  2 10  1  0  0  0  0
  3  4  1  0  0  0  0
  3 20  1  0  0  0  0
  3 21  1  0  0  0  0
  4  9  1  0  0  0  0
  4  5  2  0  0  0  0
  5  6  1  0  0  0  0
  5 22  1  0  0  0  0
  6  7  2  0  0  0  0
  6 23  1  0  0  0  0
  7  8  1  0  0  0  0
  7 24  1  0  0  0  0
  8  9  2  0  0  0  0
  9 25  1  0  0  0  0
 10 11  1  0  0  0  0
 10 26  1  0  0  0  0
 11 12  1  0  0  0  0
 11 27  1  0  0  0  0
 11 28  1  0  0  0  0
 12 13  1  0  0  0  0
 12 29  1  0  0  0  0
 12 30  1  0  0  0  0
 13 14  1  0  0  0  0
 13 31  1  0  0  0  0
 13 32  1  0  0  0  0
 14 15  1  0  0  0  0
 14 33  1  0  0  0  0
 14 34  1  0  0  0  0
 15 19  1  0  0  0  0
 15 16  1  0  0  0  0
 15 35  1  0  0  0  0
 16 17  1  0  0  0  0
 16 36  1  0  0  0  0
 16 37  1  0  0  0  0
 17 18  1  0  0  0  0
 17 38  1  0  0  0  0
 17 39  1  0  0  0  0
 18 19  1  0  0  0  0
 18 40  1  0  0  0  0
 18 41  1  0  0  0  0
 19 42  1  0  0  0  0
 19 43  1  0  0  0  0
M  END
> <s_m_source_file>
AV-unprocessed.smi

> <i_m_source_file_index>
717

> <i_lp_mmshare_version>
43012

> <i_f3d_flags>
0

> <s_epik_input>
W2NIXTFuW2NIXVtjSF1bY0hdYzFbQ0gyXUMoPU8pW05IXVtDSDJdW0NIMl1bQ0gyXVtDSDJdW0NIXTJbQ0gyXVtDSDJdW0NIMl1bQ0gyXTI=

> <s_epik_cmdline>
J2VwaWtfcHl0aG9uJywgJy1waCcsICc3LjAnLCAnLXRuJywgJzgnLCAnLW1hJywgJzIwMCcsICctbWV0YWxfYmluZGluZycsICctaW1hZScsICc8aW5maWxlLm1hZT4nLCAnLW9tYWUnLCAnPG91dGZpbGUubWFlPic=

> <r_epik_Ionization_Penalty>
0.00412097

> <r_epik_Ionization_Penalty_Charging>
0

> <r_epik_Ionization_Penalty_Neutral>
0.00412097

> <r_epik_State_Penalty>
0.00295657

> <r_epik_Charging_Adjusted_Penalty>
0.00295657

> <i_epik_Tot_Q>
0

> <i_epik_Tot_abs_Q>
0

> <r_epik_Metal_State_Penalty>
-0

> <b_epik_Metal_Only>
0

> <s_lp_Force_Field>
OPLS_2005

> <r_lp_Energy>
20.3192

> <b_lp_Chiralities_Consistent>
1

> <s_lp_Variant>
AV-unprocessed.smi:717-1

> <Gold.Version>
5.8.1

> <Gold.Id.Protein>
6NUR|6NUR_protein|mol2

> <Gold.PLP.Fitness>
46.2612

> <Gold.PLP.PLP>
-47.7206

> <Gold.PLP.part.hbond>
-2.0000

> <Gold.PLP.part.metal>
0.0000

> <Gold.PLP.part.buried>
-1.7887

> <Gold.PLP.part.nonpolar>
-43.2801

> <Gold.PLP.part.repulsive>
0.2440

> <Gold.PLP.ligand.clash>
0.0000

> <Gold.PLP.ligand.torsion>
0.7815

> <Gold.PLP.Chemscore.Hbond>
0.0000

> <Gold.PLP.Chemscore.CHOScore>
0.0000

> <Gold.PLP.Chemscore.Metal>
0.0000

> <Gold.PLP.Chemscore.Internal.Correction>
0.1037

> <Gold.Rescore>
     Score         DG    S(hbond)    S(metal)    S(lipo)     H(rot)  DE(clash)    DE(int)     intcor
     16.77     -17.95       0.00        0.00     143.07       1.67       0.32       0.87       ----

> <Gold.Chemscore.Fitness>
16.7663

> <Gold.Chemscore.DG>
-17.9506

> <Gold.Chemscore.ZeroCoef>
-5.4800

> <Gold.Chemscore.Hbond>
0.0000

> <Gold.Chemscore.Metal>
0.0000

> <Gold.Chemscore.Lipo>
143.0733

> <Gold.Chemscore.Internal_Hbond>
0.0000

> <Gold.Chemscore.DEClash>
0.3186

> <Gold.Chemscore.DEInternal>
0.8657

> <Gold.Chemscore.Rot>
1.6676

> <Gold.Chemscore.Internal.Correction>
   9.000000E+99

> <Gold.Chemscore.Hbond.Weighted>
-0.0000

> <Gold.Chemscore.Metal.Weighted>
-0.0000

> <Gold.Chemscore.Lipo.Weighted>
-16.7396

> <Gold.Chemscore.Internal_Hbond.Weighted>
0.0000

> <Gold.Chemscore.DEClash.Weighted>
0.3186

> <Gold.Chemscore.DEInternal.Weighted>
0.8657

> <Gold.Chemscore.Rot.Weighted>
4.2690

> <Gold.Chemscore.Internal.Correction.Weighted>
   9.000000E+99

> <Gold.Protein.RotatedTorsions>
[ 6907 6896 6895 6894 ] final   71.37 input  -60.11 | X-H torsion
[ 7974 7965 7964 7962 ] final   89.37 input  175.53 | X-H torsion
[ 8008 7997 7996 7995 ] final  -99.38 input   59.86 | X-H torsion
[ 10167 10162 10161 10158 ] final  -20.06 input  -65.29 | X-H torsion
[ 10718 10713 10712 10709 ] final  -72.21 input   66.30 | X-H torsion
[ 10763 10752 10751 10750 ] final  113.50 input  -60.55 | X-H torsion
[ 11005 11000 10999 10996 ] final   88.53 input  -57.11 | X-H torsion

> <Gold.Protein.ActiveResidues>
 VAL166  LYS551  ARG553  GLY616  TRP617  ASP618  TYR619  PRO620  LYS621  CYS622 
 ASP623  PHE694  ASN695  SER759  ASP760  ASP761  ALA762  ILE779  LEU786  VAL792 
 PHE793  MET794  SER795  GLU796  ALA797  LYS798  CYS799  TRP800  GLU811  SER814 

> <Gold.Protein.RotatedAtoms>
  152.4805  134.4731  159.9641 H   0  0  0  0  0  0  0  0  0  0  0  0  # atno 6907 bound_to 6896
  151.4738  133.3557  159.2835 H   0  0  0  0  0  0  0  0  0  0  0  0  # atno 6908 bound_to 6896
  150.8875  134.8300  159.7330 H   0  0  0  0  0  0  0  0  0  0  0  0  # atno 6909 bound_to 6896
  145.5333  139.2284  143.2607 H   0  0  0  0  0  0  0  0  0  0  0  0  # atno 7974 bound_to 7965
  154.8141  140.0448  157.1364 H   0  0  0  0  0  0  0  0  0  0  0  0  # atno 8008 bound_to 7997
  154.9335  140.3043  155.5136 H   0  0  0  0  0  0  0  0  0  0  0  0  # atno 8009 bound_to 7997
  156.2974  140.2318  156.4397 H   0  0  0  0  0  0  0  0  0  0  0  0  # atno 8010 bound_to 7997
  140.7273  143.4759  151.0183 H   0  0  0  0  0  0  0  0  0  0  0  0  # atno 10167 bound_to 10162
  156.0330  130.4367  150.2558 H   0  0  0  0  0  0  0  0  0  0  0  0  # atno 10718 bound_to 10713
  153.4934  135.3654  155.2503 H   0  0  0  0  0  0  0  0  0  0  0  0  # atno 10763 bound_to 10752
  154.8751  135.3982  154.3563 H   0  0  0  0  0  0  0  0  0  0  0  0  # atno 10764 bound_to 10752
  153.4186  135.7079  153.6375 H   0  0  0  0  0  0  0  0  0  0  0  0  # atno 10765 bound_to 10752
  139.8894  134.8493  156.3013 H   0  0  0  0  0  0  0  0  0  0  0  0  # atno 11005 bound_to 11000
  146.2030  140.6150  142.9094 LP  0  0  0  0  0  0  0  0  0  0  0  0  # atno 17320 bound_to 7965
  144.7615  140.5432  143.6732 LP  0  0  0  0  0  0  0  0  0  0  0  0  # atno 17321 bound_to 7965
  139.8454  143.7508  152.3179 LP  0  0  0  0  0  0  0  0  0  0  0  0  # atno 17342 bound_to 10162
  139.7671  144.7488  151.0278 LP  0  0  0  0  0  0  0  0  0  0  0  0  # atno 17343 bound_to 10162
  157.0659  131.0103  151.3207 LP  0  0  0  0  0  0  0  0  0  0  0  0  # atno 17370 bound_to 10713
  157.5035  130.7895  149.7630 LP  0  0  0  0  0  0  0  0  0  0  0  0  # atno 17371 bound_to 10713
  140.9911  133.7208  156.0816 LP  0  0  0  0  0  0  0  0  0  0  0  0  # atno 17394 bound_to 11000
  140.7623  134.3925  157.5523 LP  0  0  0  0  0  0  0  0  0  0  0  0  # atno 17395 bound_to 11000

$$$$
