AV-unprocessed.smi:500|AV-procd|sdf|2738|dock6
  -GOLD-   2262023193D 1   1.00000     0.00000
 Structure written by MMmdl.
 44 46  0  0  0  0  0  0  0  0  2 V2000
  154.0071  137.4108  162.5100 C   0  0  0  0  0  0  0  0  0  0  0  0
  153.7101  137.6823  161.0336 C   0  0  0  0  0  0  0  0  0  0  0  0
  154.1280  139.0027  160.7191 O   0  0  0  0  0  0  0  0  0  0  0  0
  154.1388  139.2848  159.3272 C   0  0  0  0  0  0  0  0  0  0  0  0
  152.7679  139.0055  158.6869 C   0  0  0  0  0  0  0  0  0  0  0  0
  152.2246  140.1968  158.0319 N   0  0  0  0  0  0  0  0  0  0  0  0
  151.6509  140.3482  156.7974 C   0  0  0  0  0  0  0  0  0  0  0  0
  151.4544  139.2181  155.7981 C   0  0  2  0  0  0  0  0  0  0  0  0
  152.8037  138.6929  155.2883 C   0  0  0  0  0  0  0  0  0  0  0  0
  150.6310  139.6096  154.6508 N   0  5  0  0  0  0  0  0  0  0  0  0
  149.3421  139.2094  154.4585 C   0  0  0  0  0  0  0  0  0  0  0  0
  148.8718  138.0682  154.4009 O   0  0  0  0  0  0  0  0  0  0  0  0
  148.4128  140.3538  154.3067 C   0  0  0  0  0  0  0  0  0  0  0  0
  148.6572  141.7001  154.3736 C   0  0  0  0  0  0  0  0  0  0  0  0
  147.4144  142.3561  154.1541 C   0  0  0  0  0  0  0  0  0  0  0  0
  146.4947  141.3646  153.9691 C   0  0  0  0  0  0  0  0  0  0  0  0
  147.0835  140.1418  154.0585 O   0  0  0  0  0  0  0  0  0  0  0  0
  151.2717  141.5967  156.5020 N   0  0  0  0  0  0  0  0  0  0  0  0
  151.5997  142.3074  157.6367 C   0  0  0  0  0  0  0  0  0  0  0  0
  151.4348  143.6779  157.9396 C   0  0  0  0  0  0  0  0  0  0  0  0
  151.8522  144.1886  159.1857 C   0  0  0  0  0  0  0  0  0  0  0  0
  152.4396  143.3373  160.1437 C   0  0  0  0  0  0  0  0  0  0  0  0
  152.6138  141.9690  159.8598 C   0  0  0  0  0  0  0  0  0  0  0  0
  152.1955  141.4633  158.6133 C   0  0  0  0  0  0  0  0  0  0  0  0
  153.6963  136.4044  162.7915 H   0  0  0  0  0  0  0  0  0  0  0  0
  153.4787  138.1164  163.1514 H   0  0  0  0  0  0  0  0  0  0  0  0
  155.0737  137.5023  162.7172 H   0  0  0  0  0  0  0  0  0  0  0  0
  154.2289  136.9499  160.4151 H   0  0  0  0  0  0  0  0  0  0  0  0
  152.6411  137.5723  160.8451 H   0  0  0  0  0  0  0  0  0  0  0  0
  154.4675  140.3078  159.1436 H   0  0  0  0  0  0  0  0  0  0  0  0
  154.8840  138.6367  158.8654 H   0  0  0  0  0  0  0  0  0  0  0  0
  152.8687  138.2150  157.9431 H   0  0  0  0  0  0  0  0  0  0  0  0
  152.0485  138.6258  159.4111 H   0  0  0  0  0  0  0  0  0  0  0  0
  150.9804  138.3893  156.3245 H   0  0  0  0  0  0  0  0  0  0  0  0
  153.4236  138.3481  156.1163 H   0  0  0  0  0  0  0  0  0  0  0  0
  153.3595  139.4678  154.7588 H   0  0  0  0  0  0  0  0  0  0  0  0
  152.6698  137.8526  154.6063 H   0  0  0  0  0  0  0  0  0  0  0  0
  149.6183  142.1571  154.5579 H   0  0  0  0  0  0  0  0  0  0  0  0
  147.2188  143.4179  154.1338 H   0  0  0  0  0  0  0  0  0  0  0  0
  145.4328  141.3515  153.7734 H   0  0  0  0  0  0  0  0  0  0  0  0
  150.9844  144.3353  157.2110 H   0  0  0  0  0  0  0  0  0  0  0  0
  151.7198  145.2373  159.4074 H   0  0  0  0  0  0  0  0  0  0  0  0
  152.7559  143.7351  161.0968 H   0  0  0  0  0  0  0  0  0  0  0  0
  153.0627  141.3160  160.5932 H   0  0  0  0  0  0  0  0  0  0  0  0
  1  2  1  0  0  0  0
  1 25  1  0  0  0  0
  1 26  1  0  0  0  0
  1 27  1  0  0  0  0
  2  3  1  0  0  0  0
  2 28  1  0  0  0  0
  2 29  1  0  0  0  0
  3  4  1  0  0  0  0
  4  5  1  0  0  0  0
  4 30  1  0  0  0  0
  4 31  1  0  0  0  0
  5  6  1  0  0  0  0
  5 32  1  0  0  0  0
  5 33  1  0  0  0  0
  6 24  1  0  0  0  0
  6  7  1  0  0  0  0
  7  8  1  0  0  0  0
  7 18  2  0  0  0  0
  8  9  1  0  0  0  0
  8 10  1  0  0  0  0
  8 34  1  0  0  0  0
  9 35  1  0  0  0  0
  9 36  1  0  0  0  0
  9 37  1  0  0  0  0
 10 11  1  0  0  0  0
 11 12  2  0  0  0  0
 11 13  1  0  0  0  0
 13 17  1  0  0  0  0
 13 14  2  0  0  0  0
 14 15  1  0  0  0  0
 14 38  1  0  0  0  0
 15 16  2  0  0  0  0
 15 39  1  0  0  0  0
 16 17  1  0  0  0  0
 16 40  1  0  0  0  0
 18 19  1  0  0  0  0
 19 24  2  0  0  0  0
 19 20  1  0  0  0  0
 20 21  2  0  0  0  0
 20 41  1  0  0  0  0
 21 22  1  0  0  0  0
 21 42  1  0  0  0  0
 22 23  2  0  0  0  0
 22 43  1  0  0  0  0
 23 24  1  0  0  0  0
 23 44  1  0  0  0  0
M  CHG  1  10  -1
M  END
> <s_m_source_file>
AV-unprocessed.smi

> <i_m_source_file_index>
500

> <i_lp_mmshare_version>
43012

> <i_f3d_flags>
0

> <s_epik_input>
W0NIM11bQ0gyXU9bQ0gyXVtDSDJdbihjKGMxMilbY0hdW2NIXVtjSF1bY0hdMiljKG4xKVtDQEhdKFtDSDNdKVtOSF1DKD1PKWMzW2NIXVtjSF1bY0hdbzM=

> <s_epik_cmdline>
J2VwaWtfcHl0aG9uJywgJy1waCcsICc3LjAnLCAnLXRuJywgJzgnLCAnLW1hJywgJzIwMCcsICctbWV0YWxfYmluZGluZycsICctaW1hZScsICc8aW5maWxlLm1hZT4nLCAnLW9tYWUnLCAnPG91dGZpbGUubWFlPic=

> <r_epik_Ionization_Penalty>
7.31223

> <r_epik_Ionization_Penalty_Charging>
6.43826

> <r_epik_Ionization_Penalty_Neutral>
0.873973

> <r_epik_State_Penalty>
6.5378

> <r_epik_Charging_Adjusted_Penalty>
12.9761

> <i_epik_Tot_Q>
-1

> <i_epik_Tot_abs_Q>
1

> <r_epik_Metal_State_Penalty>
2.55818

> <b_epik_Metal_Only>
1

> <s_lp_Force_Field>
OPLS_2005

> <r_lp_Energy>
15.486

> <b_lp_Chiralities_Consistent>
1

> <s_lp_Variant>
AV-unprocessed.smi:500-5

> <Gold.Version>
5.8.1

> <Gold.Id.Protein>
6NUR|6NUR_protein|mol2

> <Gold.PLP.Fitness>
51.9259

> <Gold.PLP.PLP>
-48.3473

> <Gold.PLP.part.hbond>
-1.0000

> <Gold.PLP.part.metal>
0.0000

> <Gold.PLP.part.buried>
-3.2668

> <Gold.PLP.part.nonpolar>
-44.2908

> <Gold.PLP.part.repulsive>
0.5455

> <Gold.PLP.ligand.clash>
0.0000

> <Gold.PLP.ligand.torsion>
1.3447

> <Gold.PLP.Chemscore.Hbond>
1.0000

> <Gold.PLP.Chemscore.CHOScore>
1.0000

> <Gold.PLP.Chemscore.Metal>
0.0000

> <Gold.Chemscore.Hbonds>
donor molecule, donor type, donor heavy atom, donor atom, acceptor molecule, acceptor atom, score
      P1  H  7989  7998       L1    10  1.00
      L1  C    16    40       P1 10175  1.00

> <Gold.PLP.Chemscore.Internal.Correction>
0.2680

> <Gold.Rescore>
     Score         DG    S(hbond)    S(metal)    S(lipo)     H(rot)  DE(clash)    DE(int)     intcor
     17.37     -18.86       0.87        0.00     129.75       1.84       0.39       1.10       ----

> <Gold.Chemscore.Fitness>
17.3735

> <Gold.Chemscore.DG>
-18.8639

> <Gold.Chemscore.ZeroCoef>
-5.4800

> <Gold.Chemscore.Hbond>
0.8709

> <Gold.Chemscore.Metal>
0.0000

> <Gold.Chemscore.Lipo>
129.7523

> <Gold.Chemscore.Internal_Hbond>
0.0000

> <Gold.Chemscore.DEClash>
0.3894

> <Gold.Chemscore.DEInternal>
1.1009

> <Gold.Chemscore.Rot>
1.8382

> <Gold.Chemscore.Internal.Correction>
   9.000000E+99

> <Gold.Chemscore.Hbonds>
donor molecule, donor type, donor heavy atom, donor atom, acceptor molecule, acceptor atom, score
      P1  H  7989  7998       L1    10  0.73

> <Gold.Chemscore.Hbond.Weighted>
-2.9087

> <Gold.Chemscore.Metal.Weighted>
-0.0000

> <Gold.Chemscore.Lipo.Weighted>
-15.1810

> <Gold.Chemscore.Internal_Hbond.Weighted>
0.0000

> <Gold.Chemscore.DEClash.Weighted>
0.3894

> <Gold.Chemscore.DEInternal.Weighted>
1.1009

> <Gold.Chemscore.Rot.Weighted>
4.7059

> <Gold.Chemscore.Internal.Correction.Weighted>
   9.000000E+99

> <Gold.Protein.RotatedTorsions>
[ 6907 6896 6895 6894 ] final  126.36 input  -60.11 | X-H torsion
[ 7974 7965 7964 7962 ] final -161.04 input  175.53 | X-H torsion
[ 8008 7997 7996 7995 ] final   20.82 input   59.86 | X-H torsion
[ 10167 10162 10161 10158 ] final  -71.67 input  -65.29 | X-H torsion
[ 10718 10713 10712 10709 ] final  161.63 input   66.30 | X-H torsion
[ 10763 10752 10751 10750 ] final  -71.79 input  -60.55 | X-H torsion
[ 11005 11000 10999 10996 ] final   97.90 input  -57.11 | X-H torsion

> <Gold.Protein.ActiveResidues>
 VAL166  LYS551  ARG553  GLY616  TRP617  ASP618  TYR619  PRO620  LYS621  CYS622 
 ASP623  PHE694  ASN695  SER759  ASP760  ASP761  ALA762  ILE779  LEU786  VAL792 
 PHE793  MET794  SER795  GLU796  ALA797  LYS798  CYS799  TRP800  GLU811  SER814 

> <Gold.Protein.RotatedAtoms>
  152.3910  133.6679  159.6237 H   0  0  0  0  0  0  0  0  0  0  0  0  # atno 6907 bound_to 6896
  150.7818  133.8954  159.3334 H   0  0  0  0  0  0  0  0  0  0  0  0  # atno 6908 bound_to 6896
  151.6740  135.0973  160.0255 H   0  0  0  0  0  0  0  0  0  0  0  0  # atno 6909 bound_to 6896
  144.7405  140.3455  143.6126 H   0  0  0  0  0  0  0  0  0  0  0  0  # atno 7974 bound_to 7965
  154.9413  140.3053  155.5119 H   0  0  0  0  0  0  0  0  0  0  0  0  # atno 8008 bound_to 7997
  156.2995  140.2336  156.4420 H   0  0  0  0  0  0  0  0  0  0  0  0  # atno 8009 bound_to 7997
  154.8143  140.0427  157.1353 H   0  0  0  0  0  0  0  0  0  0  0  0  # atno 8010 bound_to 7997
  140.5254  143.2327  151.7356 H   0  0  0  0  0  0  0  0  0  0  0  0  # atno 10167 bound_to 10162
  157.1339  131.0523  151.2359 H   0  0  0  0  0  0  0  0  0  0  0  0  # atno 10718 bound_to 10713
  154.4367  135.5951  153.6103 H   0  0  0  0  0  0  0  0  0  0  0  0  # atno 10763 bound_to 10752
  152.9802  135.5988  154.3773 H   0  0  0  0  0  0  0  0  0  0  0  0  # atno 10764 bound_to 10752
  154.3618  135.2841  155.2294 H   0  0  0  0  0  0  0  0  0  0  0  0  # atno 10765 bound_to 10752
  139.8774  134.9023  156.4375 H   0  0  0  0  0  0  0  0  0  0  0  0  # atno 11005 bound_to 11000
  145.7330  139.1742  143.2419 LP  0  0  0  0  0  0  0  0  0  0  0  0  # atno 17320 bound_to 7965
  146.1191  140.7331  142.9466 LP  0  0  0  0  0  0  0  0  0  0  0  0  # atno 17321 bound_to 7965
  139.4936  144.4193  151.9995 LP  0  0  0  0  0  0  0  0  0  0  0  0  # atno 17342 bound_to 10162
  140.3292  144.3336  150.5991 LP  0  0  0  0  0  0  0  0  0  0  0  0  # atno 17343 bound_to 10162
  157.4368  130.7521  149.7036 LP  0  0  0  0  0  0  0  0  0  0  0  0  # atno 17370 bound_to 10713
  155.9802  130.4032  150.3541 LP  0  0  0  0  0  0  0  0  0  0  0  0  # atno 17371 bound_to 10713
  140.9023  133.7771  155.9694 LP  0  0  0  0  0  0  0  0  0  0  0  0  # atno 17394 bound_to 11000
  140.8638  134.2809  157.5222 LP  0  0  0  0  0  0  0  0  0  0  0  0  # atno 17395 bound_to 11000

$$$$
