AV-unprocessed.smi:697|AV-procd|sdf|3395|dock8
  -GOLD-   22720 0373D 1   1.00000     0.00000
 Structure written by MMmdl.
 43 44  0  0  0  0  0  0  0  0  2 V2000
  144.3884  135.1802  153.3140 C   0  0  0  0  0  0  0  0  0  0  0  0
  144.2312  134.0401  152.4782 O   0  0  0  0  0  0  0  0  0  0  0  0
  145.2154  133.8338  151.4557 C   0  0  1  0  0  0  0  0  0  0  0  0
  145.3421  135.0799  150.5701 C   0  0  0  0  0  0  0  0  0  0  0  0
  146.4853  133.2070  152.0623 C   0  0  0  0  0  0  0  0  0  0  0  0
  145.7886  131.8535  151.9376 C   0  0  2  0  0  0  0  0  0  0  0  0
  146.7025  130.7845  151.5488 N   0  0  0  0  0  0  0  0  0  0  0  0
  146.7965  129.6024  152.1720 C   0  0  0  0  0  0  0  0  0  0  0  0
  146.1262  129.3106  153.1622 O   0  0  0  0  0  0  0  0  0  0  0  0
  147.7068  128.8166  151.5686 N   0  0  0  0  0  0  0  0  0  0  0  0
  148.0904  127.4956  151.8600 C   0  0  0  0  0  0  0  0  0  0  0  0
  148.0998  126.4682  150.9654 C   0  0  0  0  0  0  0  0  0  0  0  0
  148.5235  125.1215  151.3274 C   0  0  0  0  0  0  0  0  0  0  0  0
  148.4545  123.9353  150.3819 C   0  0  0  0  0  0  0  0  0  0  0  0
  147.1986  123.6897  150.0087 F   0  0  0  0  0  0  0  0  0  0  0  0
  149.1837  124.1543  149.2878 F   0  0  0  0  0  0  0  0  0  0  0  0
  148.9288  122.8465  150.9853 F   0  0  0  0  0  0  0  0  0  0  0  0
  148.8914  125.0265  152.6555 C   0  0  0  0  0  0  0  0  0  0  0  0
  148.9365  125.9947  153.5966 N   0  5  0  0  0  0  0  0  0  0  0  0
  148.5391  127.2507  153.2467 C   0  0  0  0  0  0  0  0  0  0  0  0
  148.5488  128.1776  154.0577 O   0  0  0  0  0  0  0  0  0  0  0  0
  144.9464  132.4492  150.7798 C   0  0  0  0  0  0  0  0  0  0  0  0
  143.4850  131.9918  150.7107 C   0  0  0  0  0  0  0  0  0  0  0  0
  145.5069  132.2731  149.3555 C   0  0  0  0  0  0  0  0  0  0  0  0
  143.6780  135.1170  154.1378 H   0  0  0  0  0  0  0  0  0  0  0  0
  144.1754  136.1038  152.7760 H   0  0  0  0  0  0  0  0  0  0  0  0
  145.3874  135.2476  153.7434 H   0  0  0  0  0  0  0  0  0  0  0  0
  146.0078  134.9103  149.7247 H   0  0  0  0  0  0  0  0  0  0  0  0
  145.7583  135.9265  151.1153 H   0  0  0  0  0  0  0  0  0  0  0  0
  144.3743  135.3811  150.1689 H   0  0  0  0  0  0  0  0  0  0  0  0
  147.3584  133.3115  151.4158 H   0  0  0  0  0  0  0  0  0  0  0  0
  146.7217  133.4939  153.0864 H   0  0  0  0  0  0  0  0  0  0  0  0
  145.1919  131.6244  152.8236 H   0  0  0  0  0  0  0  0  0  0  0  0
  147.2909  130.9508  150.7456 H   0  0  0  0  0  0  0  0  0  0  0  0
  148.2087  129.2285  150.7955 H   0  0  0  0  0  0  0  0  0  0  0  0
  147.8074  126.6202  149.9402 H   0  0  0  0  0  0  0  0  0  0  0  0
  149.1919  124.0201  153.0175 H   0  0  0  0  0  0  0  0  0  0  0  0
  143.3993  130.9838  150.3036 H   0  0  0  0  0  0  0  0  0  0  0  0
  142.8886  132.6541  150.0826 H   0  0  0  0  0  0  0  0  0  0  0  0
  143.0169  131.9698  151.6951 H   0  0  0  0  0  0  0  0  0  0  0  0
  145.4347  131.2382  149.0190 H   0  0  0  0  0  0  0  0  0  0  0  0
  146.5577  132.5554  149.2877 H   0  0  0  0  0  0  0  0  0  0  0  0
  144.9630  132.8833  148.6341 H   0  0  0  0  0  0  0  0  0  0  0  0
  1  2  1  0  0  0  0
  1 25  1  0  0  0  0
  1 26  1  0  0  0  0
  1 27  1  0  0  0  0
  2  3  1  0  0  0  0
  3 22  1  0  0  0  0
  3  4  1  0  0  0  0
  3  5  1  0  0  0  0
  4 28  1  0  0  0  0
  4 29  1  0  0  0  0
  4 30  1  0  0  0  0
  5  6  1  0  0  0  0
  5 31  1  0  0  0  0
  5 32  1  0  0  0  0
  6  7  1  0  0  0  0
  6 22  1  0  0  0  0
  6 33  1  0  0  0  0
  7  8  1  0  0  0  0
  7 34  1  0  0  0  0
  8  9  2  0  0  0  0
  8 10  1  0  0  0  0
 10 11  1  0  0  0  0
 10 35  1  0  0  0  0
 11 20  1  0  0  0  0
 11 12  2  0  0  0  0
 12 13  1  0  0  0  0
 12 36  1  0  0  0  0
 13 14  1  0  0  0  0
 13 18  2  0  0  0  0
 14 15  1  0  0  0  0
 14 16  1  0  0  0  0
 14 17  1  0  0  0  0
 18 19  1  0  0  0  0
 18 37  1  0  0  0  0
 19 20  1  0  0  0  0
 20 21  2  0  0  0  0
 22 23  1  0  0  0  0
 22 24  1  0  0  0  0
 23 38  1  0  0  0  0
 23 39  1  0  0  0  0
 23 40  1  0  0  0  0
 24 41  1  0  0  0  0
 24 42  1  0  0  0  0
 24 43  1  0  0  0  0
M  CHG  1  19  -1
M  END
> <s_m_source_file>
AV-unprocessed.smi

> <i_m_source_file_index>
697

> <i_lp_mmshare_version>
43012

> <i_f3d_flags>
0

> <s_epik_input>
W0NIM11PW0NAQF0xKFtDSDNdKVtDSDJdW0NASF0oQzEoW0NIM10pW0NIM10pW05IXUMoPU8pW05IXWMyW2NIXWMoQyhGKShGKUYpW2NIXVtuSF1jMj1P

> <s_epik_cmdline>
J2VwaWtfcHl0aG9uJywgJy1waCcsICc3LjAnLCAnLXRuJywgJzgnLCAnLW1hJywgJzIwMCcsICctbWV0YWxfYmluZGluZycsICctaW1hZScsICc8aW5maWxlLm1hZT4nLCAnLW9tYWUnLCAnPG91dGZpbGUubWFlPic=

> <r_lp_tautomer_probability>
1

> <r_epik_Ionization_Penalty>
3.20094

> <r_epik_Ionization_Penalty_Charging>
0.180017

> <r_epik_Ionization_Penalty_Neutral>
3.02092

> <r_epik_State_Penalty>
3.01726

> <r_epik_Charging_Adjusted_Penalty>
3.19727

> <i_epik_Tot_Q>
-1

> <i_epik_Tot_abs_Q>
1

> <r_epik_Metal_State_Penalty>
0.455096

> <b_epik_Metal_Only>
1

> <s_lp_Force_Field>
OPLS_2005

> <r_lp_Energy>
36.256

> <b_lp_Chiralities_Consistent>
1

> <s_lp_Variant>
AV-unprocessed.smi:697-7

> <Gold.Version>
5.8.1

> <Gold.Id.Protein>
6NUR|6NUR_protein|mol2

> <Gold.PLP.Fitness>
47.6932

> <Gold.PLP.PLP>
-43.4549

> <Gold.PLP.part.hbond>
-2.0000

> <Gold.PLP.part.metal>
0.0000

> <Gold.PLP.part.buried>
-6.5906

> <Gold.PLP.part.nonpolar>
-34.3733

> <Gold.PLP.part.repulsive>
0.4627

> <Gold.PLP.ligand.clash>
0.1266

> <Gold.PLP.ligand.torsion>
0.7702

> <Gold.PLP.Chemscore.Hbond>
1.8248

> <Gold.PLP.Chemscore.CHOScore>
0.0000

> <Gold.PLP.Chemscore.Metal>
0.0000

> <Gold.Chemscore.Hbonds>
donor molecule, donor type, donor heavy atom, donor atom, acceptor molecule, acceptor atom, score
      L1  H     7    34       P1 10747  0.80
      L1  H    10    35       P1 10747  0.76

> <Gold.PLP.Chemscore.Internal.Correction>
0.4308

> <Gold.Rescore>
     Score         DG    S(hbond)    S(metal)    S(lipo)     H(rot)  DE(clash)    DE(int)     intcor
     12.74     -16.08       1.23        0.00      83.92       1.30       0.24       3.11       ----

> <Gold.Chemscore.Fitness>
12.7369

> <Gold.Chemscore.DG>
-16.0805

> <Gold.Chemscore.ZeroCoef>
-5.4800

> <Gold.Chemscore.Hbond>
1.2284

> <Gold.Chemscore.Metal>
0.0000

> <Gold.Chemscore.Lipo>
83.9201

> <Gold.Chemscore.Internal_Hbond>
0.0000

> <Gold.Chemscore.DEClash>
0.2353

> <Gold.Chemscore.DEInternal>
3.1084

> <Gold.Chemscore.Rot>
1.2973

> <Gold.Chemscore.Internal.Correction>
   9.000000E+99

> <Gold.Chemscore.Hbonds>
donor molecule, donor type, donor heavy atom, donor atom, acceptor molecule, acceptor atom, score
      L1  H     7    34       P1 10747  0.80
      L1  H    10    35       P1 10747  0.15

> <Gold.Chemscore.Hbond.Weighted>
-4.1029

> <Gold.Chemscore.Metal.Weighted>
-0.0000

> <Gold.Chemscore.Lipo.Weighted>
-9.8187

> <Gold.Chemscore.Internal_Hbond.Weighted>
0.0000

> <Gold.Chemscore.DEClash.Weighted>
0.2353

> <Gold.Chemscore.DEInternal.Weighted>
3.1084

> <Gold.Chemscore.Rot.Weighted>
3.3210

> <Gold.Chemscore.Internal.Correction.Weighted>
   9.000000E+99

> <Gold.Protein.RotatedTorsions>
[ 6907 6896 6895 6894 ] final -141.03 input  -60.11 | X-H torsion
[ 7974 7965 7964 7962 ] final  -79.10 input  175.53 | X-H torsion
[ 8008 7997 7996 7995 ] final  -30.58 input   59.86 | X-H torsion
[ 10167 10162 10161 10158 ] final -105.91 input  -65.29 | X-H torsion
[ 10718 10713 10712 10709 ] final   86.32 input   66.30 | X-H torsion
[ 10763 10752 10751 10750 ] final  -37.93 input  -60.55 | X-H torsion
[ 11005 11000 10999 10996 ] final   15.44 input  -57.11 | X-H torsion

> <Gold.Protein.ActiveResidues>
 VAL166  LYS551  ARG553  GLY616  TRP617  ASP618  TYR619  PRO620  LYS621  CYS622 
 ASP623  PHE694  ASN695  SER759  ASP760  ASP761  ALA762  ILE779  LEU786  VAL792 
 PHE793  MET794  SER795  GLU796  ALA797  LYS798  CYS799  TRP800  GLU811  SER814 

> <Gold.Protein.RotatedAtoms>
  151.0684  133.5486  159.2628 H   0  0  0  0  0  0  0  0  0  0  0  0  # atno 6907 bound_to 6896
  151.2435  135.0596  159.9044 H   0  0  0  0  0  0  0  0  0  0  0  0  # atno 6908 bound_to 6896
  152.5408  134.0456  159.8140 H   0  0  0  0  0  0  0  0  0  0  0  0  # atno 6909 bound_to 6896
  145.5778  140.9454  143.1360 H   0  0  0  0  0  0  0  0  0  0  0  0  # atno 7974 bound_to 7965
  154.4245  140.1787  156.1430 H   0  0  0  0  0  0  0  0  0  0  0  0  # atno 8008 bound_to 7997
  155.9976  140.3363  155.6789 H   0  0  0  0  0  0  0  0  0  0  0  0  # atno 8009 bound_to 7997
  155.6287  140.0667  157.2646 H   0  0  0  0  0  0  0  0  0  0  0  0  # atno 8010 bound_to 7997
  140.1934  143.3874  152.1188 H   0  0  0  0  0  0  0  0  0  0  0  0  # atno 10167 bound_to 10162
  157.6927  131.0210  150.2954 H   0  0  0  0  0  0  0  0  0  0  0  0  # atno 10718 bound_to 10713
  153.9045  135.6799  153.4753 H   0  0  0  0  0  0  0  0  0  0  0  0  # atno 10763 bound_to 10752
  153.1111  135.4782  154.9035 H   0  0  0  0  0  0  0  0  0  0  0  0  # atno 10764 bound_to 10752
  154.7558  135.3197  154.8426 H   0  0  0  0  0  0  0  0  0  0  0  0  # atno 10765 bound_to 10752
  140.4582  134.1154  155.7712 H   0  0  0  0  0  0  0  0  0  0  0  0  # atno 11005 bound_to 11000
  144.7408  139.7455  143.7311 LP  0  0  0  0  0  0  0  0  0  0  0  0  # atno 17320 bound_to 7965
  146.1738  139.4900  142.9910 LP  0  0  0  0  0  0  0  0  0  0  0  0  # atno 17321 bound_to 7965
  139.5246  144.7086  151.5277 LP  0  0  0  0  0  0  0  0  0  0  0  0  # atno 17342 bound_to 10162
  140.6440  143.8832  150.6719 LP  0  0  0  0  0  0  0  0  0  0  0  0  # atno 17343 bound_to 10162
  156.3479  130.3826  149.7354 LP  0  0  0  0  0  0  0  0  0  0  0  0  # atno 17370 bound_to 10713
  156.4841  130.8055  151.3068 LP  0  0  0  0  0  0  0  0  0  0  0  0  # atno 17371 bound_to 10713
  141.1633  133.8751  157.1786 LP  0  0  0  0  0  0  0  0  0  0  0  0  # atno 17394 bound_to 11000
  139.9962  135.0046  157.0088 LP  0  0  0  0  0  0  0  0  0  0  0  0  # atno 17395 bound_to 11000

$$$$
