AV-unprocessed.smi:257|AV-procd|sdf|1963|dock3
  -GOLD-   2262021113D 1   1.00000     0.00000
 Structure written by MMmdl.
 50 53  0  0  0  0  0  0  0  0  1 V2000
  151.2230  137.1502  154.9040 C   0  0  0  0  0  0  0  0  0  0  0  0
  150.1301  138.1080  154.8432 N   0  0  0  0  0  0  0  0  0  0  0  0
  150.2934  139.4379  154.8004 C   0  0  0  0  0  0  0  0  0  0  0  0
  151.4004  139.9787  154.7976 O   0  0  0  0  0  0  0  0  0  0  0  0
  149.0033  140.2763  154.7433 C   0  0  2  0  0  0  0  0  0  0  0  0
  149.0100  141.3988  155.7958 C   0  0  0  0  0  0  0  0  0  0  0  0
  148.3540  140.7738  157.0256 C   0  0  0  0  0  0  0  0  0  0  0  0
  147.3087  139.8383  156.4201 C   0  0  0  0  0  0  0  0  0  0  0  0
  147.8185  139.4933  155.0965 N   0  0  0  0  0  0  0  0  0  0  0  0
  147.1669  138.6322  154.2658 C   0  0  0  0  0  0  0  0  0  0  0  0
  146.7407  139.1118  153.0668 N   0  0  0  0  0  0  0  0  0  0  0  0
  146.0924  138.3251  152.2050 C   0  0  0  0  0  0  0  0  0  0  0  0
  145.7677  137.0395  152.3344 N   0  0  0  0  0  0  0  0  0  0  0  0
  146.1915  136.5417  153.5301 C   0  0  0  0  0  0  0  0  0  0  0  0
  146.8902  137.2582  154.5466 C   0  0  0  0  0  0  0  0  0  0  0  0
  147.1442  136.4037  155.6151 N   0  0  0  0  0  0  0  0  0  0  0  0
  146.6286  135.2617  155.2548 C   0  0  0  0  0  0  0  0  0  0  0  0
  146.0439  135.2518  154.0105 N   0  0  0  0  0  0  0  0  0  0  0  0
  145.3976  134.1198  153.3621 C   0  0  0  0  0  0  0  0  0  0  0  0
  146.0958  133.6532  152.0551 C   0  0  0  0  0  0  0  0  0  0  0  0
  147.4903  133.6317  152.2999 O   0  0  0  0  0  0  0  0  0  0  0  0
  145.6793  132.2208  151.6650 C   0  0  0  0  0  0  0  0  0  0  0  0
  144.2588  132.1834  151.0722 C   0  0  0  0  0  0  0  0  0  0  0  0
  144.1723  133.0652  149.9582 O   0  0  0  0  0  0  0  0  0  0  0  0
  144.4166  134.4245  150.3028 C   0  0  0  0  0  0  0  0  0  0  0  0
  145.8490  134.5788  150.8442 C   0  0  0  0  0  0  0  0  0  0  0  0
  150.8271  136.1349  154.9133 H   0  0  0  0  0  0  0  0  0  0  0  0
  151.8139  137.2944  155.8096 H   0  0  0  0  0  0  0  0  0  0  0  0
  151.8796  137.2538  154.0392 H   0  0  0  0  0  0  0  0  0  0  0  0
  149.1901  137.7389  154.8417 H   0  0  0  0  0  0  0  0  0  0  0  0
  148.8926  140.7234  153.7549 H   0  0  0  0  0  0  0  0  0  0  0  0
  150.0049  141.7925  156.0092 H   0  0  0  0  0  0  0  0  0  0  0  0
  148.4007  142.2320  155.4425 H   0  0  0  0  0  0  0  0  0  0  0  0
  149.0921  140.1956  157.5834 H   0  0  0  0  0  0  0  0  0  0  0  0
  147.9224  141.5115  157.7024 H   0  0  0  0  0  0  0  0  0  0  0  0
  147.1614  138.9566  157.0451 H   0  0  0  0  0  0  0  0  0  0  0  0
  146.3515  140.3505  156.3138 H   0  0  0  0  0  0  0  0  0  0  0  0
  145.7907  138.7935  151.2798 H   0  0  0  0  0  0  0  0  0  0  0  0
  146.6653  134.3878  155.8889 H   0  0  0  0  0  0  0  0  0  0  0  0
  145.3620  133.2993  154.0801 H   0  0  0  0  0  0  0  0  0  0  0  0
  144.3595  134.3904  153.1715 H   0  0  0  0  0  0  0  0  0  0  0  0
  147.8351  134.4988  152.1487 H   0  0  0  0  0  0  0  0  0  0  0  0
  146.3694  131.8284  150.9163 H   0  0  0  0  0  0  0  0  0  0  0  0
  145.7484  131.5518  152.5237 H   0  0  0  0  0  0  0  0  0  0  0  0
  144.0240  131.1735  150.7356 H   0  0  0  0  0  0  0  0  0  0  0  0
  143.5084  132.4454  151.8187 H   0  0  0  0  0  0  0  0  0  0  0  0
  144.2876  135.0396  149.4123 H   0  0  0  0  0  0  0  0  0  0  0  0
  143.6766  134.7629  151.0280 H   0  0  0  0  0  0  0  0  0  0  0  0
  146.0532  135.6210  151.0897 H   0  0  0  0  0  0  0  0  0  0  0  0
  146.5421  134.3216  150.0416 H   0  0  0  0  0  0  0  0  0  0  0  0
  1  2  1  0  0  0  0
  1 27  1  0  0  0  0
  1 28  1  0  0  0  0
  1 29  1  0  0  0  0
  2  3  1  0  0  0  0
  2 30  1  0  0  0  0
  3  4  2  0  0  0  0
  3  5  1  0  0  0  0
  5  9  1  0  0  0  0
  5  6  1  0  0  0  0
  5 31  1  0  0  0  0
  6  7  1  0  0  0  0
  6 32  1  0  0  0  0
  6 33  1  0  0  0  0
  7  8  1  0  0  0  0
  7 34  1  0  0  0  0
  7 35  1  0  0  0  0
  8  9  1  0  0  0  0
  8 36  1  0  0  0  0
  8 37  1  0  0  0  0
  9 10  1  0  0  0  0
 10 15  1  0  0  0  0
 10 11  2  0  0  0  0
 11 12  1  0  0  0  0
 12 13  2  0  0  0  0
 12 38  1  0  0  0  0
 13 14  1  0  0  0  0
 14 18  1  0  0  0  0
 14 15  2  0  0  0  0
 15 16  1  0  0  0  0
 16 17  2  0  0  0  0
 17 18  1  0  0  0  0
 17 39  1  0  0  0  0
 18 19  1  0  0  0  0
 19 20  1  0  0  0  0
 19 40  1  0  0  0  0
 19 41  1  0  0  0  0
 20 26  1  0  0  0  0
 20 21  1  0  0  0  0
 20 22  1  0  0  0  0
 21 42  1  0  0  0  0
 22 23  1  0  0  0  0
 22 43  1  0  0  0  0
 22 44  1  0  0  0  0
 23 24  1  0  0  0  0
 23 45  1  0  0  0  0
 23 46  1  0  0  0  0
 24 25  1  0  0  0  0
 25 26  1  0  0  0  0
 25 47  1  0  0  0  0
 25 48  1  0  0  0  0
 26 49  1  0  0  0  0
 26 50  1  0  0  0  0
M  END
> <s_m_source_file>
AV-unprocessed.smi

> <i_m_source_file_index>
257

> <i_lp_mmshare_version>
43012

> <i_f3d_flags>
0

> <s_epik_input>
W0NIM11bTkhdQyg9TylbQ0BASF0xW0NIMl1bQ0gyXVtDSDJdTjFjKG5bY0hdbjIpYyhjMjMpbltjSF1uM1tDSDJdQzQoW09IXSlbQ0gyXVtDSDJdT1tDSDJdW0NIMl00

> <s_epik_cmdline>
J2VwaWtfcHl0aG9uJywgJy1waCcsICc3LjAnLCAnLXRuJywgJzgnLCAnLW1hJywgJzIwMCcsICctbWV0YWxfYmluZGluZycsICctaW1hZScsICc8aW5maWxlLm1hZT4nLCAnLW9tYWUnLCAnPG91dGZpbGUubWFlPic=

> <r_lp_tautomer_probability>
1

> <r_epik_Ionization_Penalty>
0.000951012

> <r_epik_Ionization_Penalty_Charging>
0

> <r_epik_Ionization_Penalty_Neutral>
0.000951012

> <r_epik_State_Penalty>
0.000495984

> <r_epik_Charging_Adjusted_Penalty>
0.000495984

> <i_epik_Tot_Q>
0

> <i_epik_Tot_abs_Q>
0

> <r_epik_Metal_State_Penalty>
-0

> <b_epik_Metal_Only>
0

> <s_lp_Force_Field>
OPLS_2005

> <r_lp_Energy>
35.0404

> <b_lp_Chiralities_Consistent>
1

> <s_lp_Variant>
AV-unprocessed.smi:257-1

> <Gold.Version>
5.8.1

> <Gold.Id.Protein>
6NUR|6NUR_protein|mol2

> <Gold.PLP.Fitness>
35.5168

> <Gold.PLP.PLP>
-29.4962

> <Gold.PLP.part.hbond>
-1.9505

> <Gold.PLP.part.metal>
0.0000

> <Gold.PLP.part.buried>
-5.5133

> <Gold.PLP.part.nonpolar>
-23.8672

> <Gold.PLP.part.repulsive>
0.8317

> <Gold.PLP.ligand.clash>
0.0000

> <Gold.PLP.ligand.torsion>
1.5764

> <Gold.PLP.Chemscore.Hbond>
2.0000

> <Gold.PLP.Chemscore.CHOScore>
1.0211

> <Gold.PLP.Chemscore.Metal>
0.0000

> <Gold.Chemscore.Hbonds>
donor molecule, donor type, donor heavy atom, donor atom, acceptor molecule, acceptor atom, score
      L1  H    21    42       P1  7948  0.99
      P1  H  7989  7998       L1     4  1.00
      L1  C    12    38       P1 10171  1.00
      L1  C    12    38       P1 10175  0.01

> <Gold.PLP.Chemscore.Internal.Correction>
0.1099

> <Gold.Rescore>
     Score         DG    S(hbond)    S(metal)    S(lipo)     H(rot)  DE(clash)    DE(int)     intcor
      9.83     -11.57       1.65        0.00      55.01       2.29       0.00       1.74       ----

> <Gold.Chemscore.Fitness>
9.8269

> <Gold.Chemscore.DG>
-11.5663

> <Gold.Chemscore.ZeroCoef>
-5.4800

> <Gold.Chemscore.Hbond>
1.6498

> <Gold.Chemscore.Metal>
0.0000

> <Gold.Chemscore.Lipo>
55.0060

> <Gold.Chemscore.Internal_Hbond>
0.0000

> <Gold.Chemscore.DEClash>
0.0000

> <Gold.Chemscore.DEInternal>
1.7393

> <Gold.Chemscore.Rot>
2.2889

> <Gold.Chemscore.Internal.Correction>
   9.000000E+99

> <Gold.Chemscore.Hbonds>
donor molecule, donor type, donor heavy atom, donor atom, acceptor molecule, acceptor atom, score
      L1  H    21    42       P1  7948  0.32
      P1  H  7989  7998       L1     4  0.83

> <Gold.Chemscore.Hbond.Weighted>
-5.5102

> <Gold.Chemscore.Metal.Weighted>
-0.0000

> <Gold.Chemscore.Lipo.Weighted>
-6.4357

> <Gold.Chemscore.Internal_Hbond.Weighted>
0.0000

> <Gold.Chemscore.DEClash.Weighted>
0.0000

> <Gold.Chemscore.DEInternal.Weighted>
1.7393

> <Gold.Chemscore.Rot.Weighted>
5.8596

> <Gold.Chemscore.Internal.Correction.Weighted>
   9.000000E+99

> <Gold.Protein.RotatedTorsions>
[ 6907 6896 6895 6894 ] final  110.54 input  -60.11 | X-H torsion
[ 7974 7965 7964 7962 ] final  128.81 input  175.53 | X-H torsion
[ 8008 7997 7996 7995 ] final   78.79 input   59.86 | X-H torsion
[ 10167 10162 10161 10158 ] final -150.84 input  -65.29 | X-H torsion
[ 10718 10713 10712 10709 ] final  -91.14 input   66.30 | X-H torsion
[ 10763 10752 10751 10750 ] final  137.32 input  -60.55 | X-H torsion
[ 11005 11000 10999 10996 ] final -162.01 input  -57.11 | X-H torsion

> <Gold.Protein.ActiveResidues>
 VAL166  LYS551  ARG553  GLY616  TRP617  ASP618  TYR619  PRO620  LYS621  CYS622 
 ASP623  PHE694  ASN695  SER759  ASP760  ASP761  ALA762  ILE779  LEU786  VAL792 
 PHE793  MET794  SER795  GLU796  ALA797  LYS798  CYS799  TRP800  GLU811  SER814 

> <Gold.Protein.RotatedAtoms>
  152.5014  133.8785  159.7334 H   0  0  0  0  0  0  0  0  0  0  0  0  # atno 6907 bound_to 6896
  150.9253  133.6822  159.2829 H   0  0  0  0  0  0  0  0  0  0  0  0  # atno 6908 bound_to 6896
  151.4185  135.0999  159.9659 H   0  0  0  0  0  0  0  0  0  0  0  0  # atno 6909 bound_to 6896
  145.0355  139.4008  143.5128 H   0  0  0  0  0  0  0  0  0  0  0  0  # atno 7974 bound_to 7965
  155.8607  140.3454  155.5754 H   0  0  0  0  0  0  0  0  0  0  0  0  # atno 8008 bound_to 7997
  155.7937  140.0875  157.2014 H   0  0  0  0  0  0  0  0  0  0  0  0  # atno 8009 bound_to 7997
  154.4011  140.1478  156.3180 H   0  0  0  0  0  0  0  0  0  0  0  0  # atno 8010 bound_to 7997
  139.7319  143.8795  152.2537 H   0  0  0  0  0  0  0  0  0  0  0  0  # atno 10167 bound_to 10162
  155.9992  130.4936  150.5429 H   0  0  0  0  0  0  0  0  0  0  0  0  # atno 10718 bound_to 10713
  153.8711  135.3055  155.3442 H   0  0  0  0  0  0  0  0  0  0  0  0  # atno 10763 bound_to 10752
  154.7805  135.4838  153.9838 H   0  0  0  0  0  0  0  0  0  0  0  0  # atno 10764 bound_to 10752
  153.1406  135.6823  153.9129 H   0  0  0  0  0  0  0  0  0  0  0  0  # atno 10765 bound_to 10752
  140.6141  134.4819  157.5218 H   0  0  0  0  0  0  0  0  0  0  0  0  # atno 11005 bound_to 11000
  146.3503  139.9928  142.8684 LP  0  0  0  0  0  0  0  0  0  0  0  0  # atno 17320 bound_to 7965
  145.1715  140.9723  143.4319 LP  0  0  0  0  0  0  0  0  0  0  0  0  # atno 17321 bound_to 7965
  139.8720  144.7063  150.8976 LP  0  0  0  0  0  0  0  0  0  0  0  0  # atno 17342 bound_to 10162
  140.7772  143.3730  151.1614 LP  0  0  0  0  0  0  0  0  0  0  0  0  # atno 17343 bound_to 10162
  157.3363  131.0708  151.1822 LP  0  0  0  0  0  0  0  0  0  0  0  0  # atno 17370 bound_to 10713
  157.2686  130.6693  149.6008 LP  0  0  0  0  0  0  0  0  0  0  0  0  # atno 17371 bound_to 10713
  139.9180  134.8206  156.1302 LP  0  0  0  0  0  0  0  0  0  0  0  0  # atno 17394 bound_to 11000
  141.0788  133.6763  156.2292 LP  0  0  0  0  0  0  0  0  0  0  0  0  # atno 17395 bound_to 11000

$$$$
