AV-unprocessed.smi:2185|AV-procd|sdf|8875|dock8
  -GOLD-   2272012 73D 1   1.00000     0.00000
 Structure written by MMmdl.
 38 39  0  0  0  0  0  0  0  0  1 V2000
  143.4870  141.4846  160.1218 C   0  0  0  0  0  0  0  0  0  0  0  0
  142.2855  142.6843  160.8286 S   0  0  0  0  0  0  0  0  0  0  0  0
  141.4478  143.1930  159.7317 O   0  0  0  0  0  0  0  0  0  0  0  0
  141.6522  142.0630  162.0018 O   0  0  0  0  0  0  0  0  0  0  0  0
  143.2789  143.9977  161.3915 N   0  0  0  0  0  0  0  0  0  0  0  0
  144.4712  143.7211  162.2176 C   0  0  0  0  0  0  0  0  0  0  0  0
  145.7665  143.8018  161.3914 C   0  0  0  0  0  0  0  0  0  0  0  0
  145.8792  145.1454  160.6567 C   0  0  0  0  0  0  0  0  0  0  0  0
  147.0904  145.1635  159.8416 N   0  0  0  0  0  0  0  0  0  0  0  0
  148.2976  144.7378  160.2402 C   0  0  0  0  0  0  0  0  0  0  0  0
  148.5198  144.2832  161.3618 O   0  0  0  0  0  0  0  0  0  0  0  0
  149.2034  144.8624  159.2548 N   0  0  0  0  0  0  0  0  0  0  0  0
  150.5838  144.5223  159.2640 C   0  0  0  0  0  0  0  0  0  0  0  0
  151.4573  144.6801  158.1603 C   0  0  0  0  0  0  0  0  0  0  0  0
  152.8029  144.2870  158.2967 C   0  0  0  0  0  0  0  0  0  0  0  0
  153.2249  143.7457  159.5265 C   0  0  0  0  0  0  0  0  0  0  0  0
  152.4016  143.5788  160.5826 N   0  0  0  0  0  0  0  0  0  0  0  0
  151.1132  143.9576  160.4442 C   0  0  0  0  0  0  0  0  0  0  0  0
  144.6285  145.3543  159.7866 C   0  0  0  0  0  0  0  0  0  0  0  0
  143.3399  145.2576  160.6230 C   0  0  0  0  0  0  0  0  0  0  0  0
  142.9433  140.6192  159.7437 H   0  0  0  0  0  0  0  0  0  0  0  0
  144.1815  141.1562  160.8928 H   0  0  0  0  0  0  0  0  0  0  0  0
  144.0312  141.9461  159.2997 H   0  0  0  0  0  0  0  0  0  0  0  0
  144.5077  144.4544  163.0242 H   0  0  0  0  0  0  0  0  0  0  0  0
  144.3860  142.7454  162.6948 H   0  0  0  0  0  0  0  0  0  0  0  0
  146.6251  143.6660  162.0500 H   0  0  0  0  0  0  0  0  0  0  0  0
  145.8007  142.9816  160.6747 H   0  0  0  0  0  0  0  0  0  0  0  0
  145.9350  145.9413  161.4022 H   0  0  0  0  0  0  0  0  0  0  0  0
  146.9994  145.5201  158.9016 H   0  0  0  0  0  0  0  0  0  0  0  0
  148.8490  145.1924  158.3692 H   0  0  0  0  0  0  0  0  0  0  0  0
  151.1262  145.0773  157.2138 H   0  0  0  0  0  0  0  0  0  0  0  0
  153.4949  144.3942  157.4746 H   0  0  0  0  0  0  0  0  0  0  0  0
  154.2495  143.4329  159.6635 H   0  0  0  0  0  0  0  0  0  0  0  0
  150.4835  143.8066  161.3090 H   0  0  0  0  0  0  0  0  0  0  0  0
  144.6688  146.3296  159.3004 H   0  0  0  0  0  0  0  0  0  0  0  0
  144.6079  144.6169  158.9847 H   0  0  0  0  0  0  0  0  0  0  0  0
  142.4641  145.3540  159.9822 H   0  0  0  0  0  0  0  0  0  0  0  0
  143.2999  146.0906  161.3255 H   0  0  0  0  0  0  0  0  0  0  0  0
  1  2  1  0  0  0  0
  1 21  1  0  0  0  0
  1 22  1  0  0  0  0
  1 23  1  0  0  0  0
  2  3  2  0  0  0  0
  2  4  2  0  0  0  0
  2  5  1  0  0  0  0
  5 20  1  0  0  0  0
  5  6  1  0  0  0  0
  6  7  1  0  0  0  0
  6 24  1  0  0  0  0
  6 25  1  0  0  0  0
  7  8  1  0  0  0  0
  7 26  1  0  0  0  0
  7 27  1  0  0  0  0
  8  9  1  0  0  0  0
  8 19  1  0  0  0  0
  8 28  1  0  0  0  0
  9 10  1  0  0  0  0
  9 29  1  0  0  0  0
 10 11  2  0  0  0  0
 10 12  1  0  0  0  0
 12 13  1  0  0  0  0
 12 30  1  0  0  0  0
 13 18  1  0  0  0  0
 13 14  2  0  0  0  0
 14 15  1  0  0  0  0
 14 31  1  0  0  0  0
 15 16  2  0  0  0  0
 15 32  1  0  0  0  0
 16 17  1  0  0  0  0
 16 33  1  0  0  0  0
 17 18  2  0  0  0  0
 18 34  1  0  0  0  0
 19 20  1  0  0  0  0
 19 35  1  0  0  0  0
 19 36  1  0  0  0  0
 20 37  1  0  0  0  0
 20 38  1  0  0  0  0
M  END
> <s_m_source_file>
AV-unprocessed.smi

> <i_m_source_file_index>
2185

> <i_lp_mmshare_version>
43012

> <i_f3d_flags>
0

> <s_epik_input>
W0NIM11TKD1PKSg9TylOMVtDSDJdW0NIMl1bQ0hdKFtDSDJdW0NIMl0xKVtOSF1DKD1PKVtOSF1jMltjSF1bY0hdW2NIXW5bY0hdMg==

> <s_epik_cmdline>
J2VwaWtfcHl0aG9uJywgJy1waCcsICc3LjAnLCAnLXRuJywgJzgnLCAnLW1hJywgJzIwMCcsICctbWV0YWxfYmluZGluZycsICctaW1hZScsICc8aW5maWxlLm1hZT4nLCAnLW9tYWUnLCAnPG91dGZpbGUubWFlPic=

> <r_epik_Ionization_Penalty>
0.00480481

> <r_epik_Ionization_Penalty_Charging>
0

> <r_epik_Ionization_Penalty_Neutral>
0.00480481

> <r_epik_State_Penalty>
0.00345682

> <r_epik_Charging_Adjusted_Penalty>
0.00345682

> <i_epik_Tot_Q>
0

> <i_epik_Tot_abs_Q>
0

> <r_epik_Metal_State_Penalty>
-0

> <b_epik_Metal_Only>
0

> <s_lp_Force_Field>
OPLS_2005

> <r_lp_Energy>
2.72974

> <b_lp_Chiralities_Consistent>
1

> <s_lp_Variant>
AV-unprocessed.smi:2185-1

> <Gold.Version>
5.8.1

> <Gold.Id.Protein>
6NUR|6NUR_protein|mol2

> <Gold.PLP.Fitness>
45.2171

> <Gold.PLP.PLP>
-37.2643

> <Gold.PLP.part.hbond>
-5.0000

> <Gold.PLP.part.metal>
0.0000

> <Gold.PLP.part.buried>
-5.7591

> <Gold.PLP.part.nonpolar>
-27.1232

> <Gold.PLP.part.repulsive>
0.5549

> <Gold.PLP.ligand.clash>
0.0000

> <Gold.PLP.ligand.torsion>
1.2609

> <Gold.PLP.Chemscore.Hbond>
2.8080

> <Gold.PLP.Chemscore.CHOScore>
0.0000

> <Gold.PLP.Chemscore.Metal>
0.0000

> <Gold.Chemscore.Hbonds>
donor molecule, donor type, donor heavy atom, donor atom, acceptor molecule, acceptor atom, score
      L1  H     9    29       P1  8029  0.96
      L1  H    12    30       P1  8029  1.00
      P1  H  6933  6944       L1    11  0.83

> <Gold.PLP.Chemscore.Internal.Correction>
2.0507

> <Gold.Rescore>
     Score         DG    S(hbond)    S(metal)    S(lipo)     H(rot)  DE(clash)    DE(int)     intcor
     18.22     -22.48       2.77        0.00      88.16       1.00       0.05       4.22       ----

> <Gold.Chemscore.Fitness>
18.2219

> <Gold.Chemscore.DG>
-22.4846

> <Gold.Chemscore.ZeroCoef>
-5.4800

> <Gold.Chemscore.Hbond>
2.7694

> <Gold.Chemscore.Metal>
0.0000

> <Gold.Chemscore.Lipo>
88.1609

> <Gold.Chemscore.Internal_Hbond>
0.0000

> <Gold.Chemscore.DEClash>
0.0464

> <Gold.Chemscore.DEInternal>
4.2163

> <Gold.Chemscore.Rot>
1.0000

> <Gold.Chemscore.Internal.Correction>
   9.000000E+99

> <Gold.Chemscore.Hbonds>
donor molecule, donor type, donor heavy atom, donor atom, acceptor molecule, acceptor atom, score
      L1  H     9    29       P1  8029  0.92
      L1  H    12    30       P1  8029  0.92
      P1  H  6933  6944       L1    11  0.75

> <Gold.Chemscore.Hbond.Weighted>
-9.2498

> <Gold.Chemscore.Metal.Weighted>
-0.0000

> <Gold.Chemscore.Lipo.Weighted>
-10.3148

> <Gold.Chemscore.Internal_Hbond.Weighted>
0.0000

> <Gold.Chemscore.DEClash.Weighted>
0.0464

> <Gold.Chemscore.DEInternal.Weighted>
4.2163

> <Gold.Chemscore.Rot.Weighted>
2.5600

> <Gold.Chemscore.Internal.Correction.Weighted>
   9.000000E+99

> <Gold.Protein.RotatedTorsions>
[ 6907 6896 6895 6894 ] final   80.21 input  -60.11 | X-H torsion
[ 7974 7965 7964 7962 ] final -130.48 input  175.53 | X-H torsion
[ 8008 7997 7996 7995 ] final -178.55 input   59.86 | X-H torsion
[ 10167 10162 10161 10158 ] final -121.14 input  -65.29 | X-H torsion
[ 10718 10713 10712 10709 ] final  154.77 input   66.30 | X-H torsion
[ 10763 10752 10751 10750 ] final  -35.43 input  -60.55 | X-H torsion
[ 11005 11000 10999 10996 ] final   57.28 input  -57.11 | X-H torsion

> <Gold.Protein.ActiveResidues>
 VAL166  LYS551  ARG553  GLY616  TRP617  ASP618  TYR619  PRO620  LYS621  CYS622 
 ASP623  PHE694  ASN695  SER759  ASP760  ASP761  ALA762  ILE779  LEU786  VAL792 
 PHE793  MET794  SER795  GLU796  ALA797  LYS798  CYS799  TRP800  GLU811  SER814 

> <Gold.Protein.RotatedAtoms>
  152.5227  134.3393  159.9210 H   0  0  0  0  0  0  0  0  0  0  0  0  # atno 6907 bound_to 6896
  151.3342  133.3982  159.2673 H   0  0  0  0  0  0  0  0  0  0  0  0  # atno 6908 bound_to 6896
  150.9856  134.9219  159.7927 H   0  0  0  0  0  0  0  0  0  0  0  0  # atno 6909 bound_to 6896
  144.9471  140.7303  143.4811 H   0  0  0  0  0  0  0  0  0  0  0  0  # atno 7974 bound_to 7965
  156.0201  140.1259  157.0366 H   0  0  0  0  0  0  0  0  0  0  0  0  # atno 8008 bound_to 7997
  154.4308  140.1070  156.6022 H   0  0  0  0  0  0  0  0  0  0  0  0  # atno 8009 bound_to 7997
  155.5956  140.3470  155.4581 H   0  0  0  0  0  0  0  0  0  0  0  0  # atno 8010 bound_to 7997
  140.0282  143.5274  152.2189 H   0  0  0  0  0  0  0  0  0  0  0  0  # atno 10167 bound_to 10162
  157.2272  131.0731  151.1876 H   0  0  0  0  0  0  0  0  0  0  0  0  # atno 10718 bound_to 10713
  153.8630  135.6838  153.4781 H   0  0  0  0  0  0  0  0  0  0  0  0  # atno 10763 bound_to 10752
  153.1330  135.4689  154.9377 H   0  0  0  0  0  0  0  0  0  0  0  0  # atno 10764 bound_to 10752
  154.7749  135.3250  154.8061 H   0  0  0  0  0  0  0  0  0  0  0  0  # atno 10765 bound_to 10752
  140.0464  134.5799  155.9317 H   0  0  0  0  0  0  0  0  0  0  0  0  # atno 11005 bound_to 11000
  145.2901  139.1886  143.4745 LP  0  0  0  0  0  0  0  0  0  0  0  0  # atno 17320 bound_to 7965
  146.3307  140.2877  142.8613 LP  0  0  0  0  0  0  0  0  0  0  0  0  # atno 17321 bound_to 7965
  139.6093  144.7604  151.2988 LP  0  0  0  0  0  0  0  0  0  0  0  0  # atno 17342 bound_to 10162
  140.7313  143.6855  150.7965 LP  0  0  0  0  0  0  0  0  0  0  0  0  # atno 17343 bound_to 10162
  157.3516  130.7085  149.6444 LP  0  0  0  0  0  0  0  0  0  0  0  0  # atno 17370 bound_to 10713
  155.9678  130.4251  150.4638 LP  0  0  0  0  0  0  0  0  0  0  0  0  # atno 17371 bound_to 10713
  141.1909  133.6570  156.5432 LP  0  0  0  0  0  0  0  0  0  0  0  0  # atno 17394 bound_to 11000
  140.3987  134.7376  157.4766 LP  0  0  0  0  0  0  0  0  0  0  0  0  # atno 17395 bound_to 11000

$$$$
