AV-unprocessed.smi:2095|AV-procd|sdf|8556|dock9
  -GOLD-   2272011283D 1   1.00000     0.00000
 Structure written by MMmdl.
 42 43  0  0  0  0  0  0  0  0  2 V2000
  147.7615  133.4146  152.8516 C   0  0  0  0  0  0  0  0  0  0  0  0
  146.2560  133.6527  153.0626 C   0  0  2  0  0  0  0  0  0  0  0  0
  145.4206  133.3473  151.8044 C   0  0  0  0  0  0  0  0  0  0  0  0
  145.5919  134.4401  150.7383 C   0  0  0  0  0  0  0  0  0  0  0  0
  145.3079  135.8330  151.3225 C   0  0  0  0  0  0  0  0  0  0  0  0
  146.1678  136.0927  152.5068 N   0  3  1  0  0  0  0  0  0  0  0  0
  146.1416  137.5136  152.9598 C   0  0  2  0  0  0  0  0  0  0  0  0
  146.5621  138.4586  151.8172 C   0  0  0  0  0  0  0  0  0  0  0  0
  146.9451  137.7533  154.2639 C   0  0  0  0  0  0  0  0  0  0  0  0
  148.3758  137.5523  154.0687 N   0  0  0  0  0  0  0  0  0  0  0  0
  149.3406  138.1719  154.7657 C   0  0  0  0  0  0  0  0  0  0  0  0
  149.1152  138.9363  155.7033 O   0  0  0  0  0  0  0  0  0  0  0  0
  150.7777  137.9120  154.3158 C   0  0  0  0  0  0  0  0  0  0  0  0
  151.7093  138.2668  155.3696 N   0  0  0  0  0  0  0  0  0  0  0  0
  151.9264  139.4262  155.9940 C   0  0  0  0  0  0  0  0  0  0  0  0
  152.9040  139.3269  156.8819 N   0  0  0  0  0  0  0  0  0  0  0  0
  153.2937  138.0021  156.7750 N   0  0  0  0  0  0  0  0  0  0  0  0
  152.5886  137.3679  155.8791 N   0  0  0  0  0  0  0  0  0  0  0  0
  145.9570  135.0765  153.5752 C   0  0  0  0  0  0  0  0  0  0  0  0
  148.1798  134.0842  152.1001 H   0  0  0  0  0  0  0  0  0  0  0  0
  147.9538  132.3914  152.5274 H   0  0  0  0  0  0  0  0  0  0  0  0
  148.3154  133.5733  153.7775 H   0  0  0  0  0  0  0  0  0  0  0  0
  145.9410  132.9536  153.8384 H   0  0  0  0  0  0  0  0  0  0  0  0
  145.6864  132.3724  151.3940 H   0  0  0  0  0  0  0  0  0  0  0  0
  144.3673  133.2842  152.0809 H   0  0  0  0  0  0  0  0  0  0  0  0
  146.6040  134.4106  150.3337 H   0  0  0  0  0  0  0  0  0  0  0  0
  144.9230  134.2466  149.8992 H   0  0  0  0  0  0  0  0  0  0  0  0
  145.4911  136.5841  150.5534 H   0  0  0  0  0  0  0  0  0  0  0  0
  144.2563  135.9133  151.6004 H   0  0  0  0  0  0  0  0  0  0  0  0
  145.0966  137.7520  153.1627 H   0  0  0  0  0  0  0  0  0  0  0  0
  146.3669  139.5007  152.0723 H   0  0  0  0  0  0  0  0  0  0  0  0
  146.0042  138.2433  150.9053 H   0  0  0  0  0  0  0  0  0  0  0  0
  147.6239  138.3753  151.5863 H   0  0  0  0  0  0  0  0  0  0  0  0
  146.7713  138.7567  154.6551 H   0  0  0  0  0  0  0  0  0  0  0  0
  146.6294  137.0586  155.0421 H   0  0  0  0  0  0  0  0  0  0  0  0
  148.6537  136.9387  153.3159 H   0  0  0  0  0  0  0  0  0  0  0  0
  150.9101  136.8577  154.0685 H   0  0  0  0  0  0  0  0  0  0  0  0
  151.0059  138.4880  153.4175 H   0  0  0  0  0  0  0  0  0  0  0  0
  151.3804  140.3360  155.7924 H   0  0  0  0  0  0  0  0  0  0  0  0
  144.9231  135.1204  153.9203 H   0  0  0  0  0  0  0  0  0  0  0  0
  146.5834  135.2900  154.4409 H   0  0  0  0  0  0  0  0  0  0  0  0
  147.1115  135.9472  152.1774 H   0  0  0  0  0  0  0  0  0  0  0  0
  1  2  1  0  0  0  0
  1 20  1  0  0  0  0
  1 21  1  0  0  0  0
  1 22  1  0  0  0  0
  2 19  1  0  0  0  0
  2  3  1  0  0  0  0
  2 23  1  0  0  0  0
  3  4  1  0  0  0  0
  3 24  1  0  0  0  0
  3 25  1  0  0  0  0
  4  5  1  0  0  0  0
  4 26  1  0  0  0  0
  4 27  1  0  0  0  0
  5  6  1  0  0  0  0
  5 28  1  0  0  0  0
  5 29  1  0  0  0  0
  6  7  1  0  0  0  0
  6 19  1  0  0  0  0
  6 42  1  0  0  0  0
  7  8  1  0  0  0  0
  7  9  1  0  0  0  0
  7 30  1  0  0  0  0
  8 31  1  0  0  0  0
  8 32  1  0  0  0  0
  8 33  1  0  0  0  0
  9 10  1  0  0  0  0
  9 34  1  0  0  0  0
  9 35  1  0  0  0  0
 10 11  1  0  0  0  0
 10 36  1  0  0  0  0
 11 12  2  0  0  0  0
 11 13  1  0  0  0  0
 13 14  1  0  0  0  0
 13 37  1  0  0  0  0
 13 38  1  0  0  0  0
 14 18  1  0  0  0  0
 14 15  1  0  0  0  0
 15 16  2  0  0  0  0
 15 39  1  0  0  0  0
 16 17  1  0  0  0  0
 17 18  2  0  0  0  0
 19 40  1  0  0  0  0
 19 41  1  0  0  0  0
M  CHG  1   6   1
M  END
> <s_m_source_file>
AV-unprocessed.smi

> <i_m_source_file_index>
2095

> <i_lp_mmshare_version>
43012

> <i_f3d_flags>
0

> <s_epik_input>
W0NIM11bQ0BASF0xW0NIMl1bQ0gyXVtDSDJdTihbQ0gyXTEpW0NASF0oW0NIM10pW0NIMl1bTkhdQyg9TylbQ0gyXW4yW2NIXW5ubjI=

> <s_epik_cmdline>
J2VwaWtfcHl0aG9uJywgJy1waCcsICc3LjAnLCAnLXRuJywgJzgnLCAnLW1hJywgJzIwMCcsICctbWV0YWxfYmluZGluZycsICctaW1hZScsICc8aW5maWxlLm1hZT4nLCAnLW9tYWUnLCAnPG91dGZpbGUubWFlPic=

> <r_lp_tautomer_probability>
1

> <r_epik_Ionization_Penalty>
0.00268321

> <r_epik_Ionization_Penalty_Charging>
0.00267875

> <r_epik_Ionization_Penalty_Neutral>
4.46125e-06

> <r_epik_State_Penalty>
0.00186642

> <r_epik_Charging_Adjusted_Penalty>
0.00454517

> <i_epik_Tot_Q>
1

> <i_epik_Tot_abs_Q>
1

> <r_epik_Metal_State_Penalty>
-0

> <b_epik_Metal_Only>
0

> <s_lp_Force_Field>
OPLS_2005

> <r_lp_Energy>
23.935

> <b_lp_Chiralities_Consistent>
1

> <s_lp_Variant>
AV-unprocessed.smi:2095-3

> <Gold.Version>
5.8.1

> <Gold.Id.Protein>
6NUR|6NUR_protein|mol2

> <Gold.PLP.Fitness>
43.7986

> <Gold.PLP.PLP>
-31.0540

> <Gold.PLP.part.hbond>
-4.8062

> <Gold.PLP.part.metal>
0.0000

> <Gold.PLP.part.buried>
-2.9710

> <Gold.PLP.part.nonpolar>
-25.6149

> <Gold.PLP.part.repulsive>
0.0702

> <Gold.PLP.ligand.clash>
0.0000

> <Gold.PLP.ligand.torsion>
0.5485

> <Gold.PLP.Chemscore.Hbond>
4.5760

> <Gold.PLP.Chemscore.CHOScore>
0.0000

> <Gold.PLP.Chemscore.Metal>
0.0000

> <Gold.Chemscore.Hbonds>
donor molecule, donor type, donor heavy atom, donor atom, acceptor molecule, acceptor atom, score
      L1  H     6    42       P1  7948  2.00
      L1  H    10    36       P1  7948  1.00
      P1  H  7997  8010       L1    16  0.95
      P1  H 10752 10765       L1    18  0.56

> <Gold.PLP.Chemscore.Internal.Correction>
0.1136

> <Gold.Rescore>
     Score         DG    S(hbond)    S(metal)    S(lipo)     H(rot)  DE(clash)    DE(int)     intcor
     15.26     -17.01       3.72        0.00      50.15       2.64       0.03       1.72       ----

> <Gold.Chemscore.Fitness>
15.2589

> <Gold.Chemscore.DG>
-17.0086

> <Gold.Chemscore.ZeroCoef>
-5.4800

> <Gold.Chemscore.Hbond>
3.7214

> <Gold.Chemscore.Metal>
0.0000

> <Gold.Chemscore.Lipo>
50.1512

> <Gold.Chemscore.Internal_Hbond>
0.0000

> <Gold.Chemscore.DEClash>
0.0310

> <Gold.Chemscore.DEInternal>
1.7187

> <Gold.Chemscore.Rot>
2.6439

> <Gold.Chemscore.Internal.Correction>
   9.000000E+99

> <Gold.Chemscore.Hbonds>
donor molecule, donor type, donor heavy atom, donor atom, acceptor molecule, acceptor atom, score
      L1  H     6    42       P1  7948  1.00
      L1  H    10    36       P1  7948  1.00
      P1  H  7997  8010       L1    16  0.21
      P1  H 10752 10765       L1    18  0.55

> <Gold.Chemscore.Hbond.Weighted>
-12.4294

> <Gold.Chemscore.Metal.Weighted>
-0.0000

> <Gold.Chemscore.Lipo.Weighted>
-5.8677

> <Gold.Chemscore.Internal_Hbond.Weighted>
0.0000

> <Gold.Chemscore.DEClash.Weighted>
0.0310

> <Gold.Chemscore.DEInternal.Weighted>
1.7187

> <Gold.Chemscore.Rot.Weighted>
6.7685

> <Gold.Chemscore.Internal.Correction.Weighted>
   9.000000E+99

> <Gold.Protein.RotatedTorsions>
[ 6907 6896 6895 6894 ] final -137.23 input  -60.11 | X-H torsion
[ 7974 7965 7964 7962 ] final -103.15 input  175.53 | X-H torsion
[ 8008 7997 7996 7995 ] final   50.03 input   59.86 | X-H torsion
[ 10167 10162 10161 10158 ] final  -37.47 input  -65.29 | X-H torsion
[ 10718 10713 10712 10709 ] final  -53.54 input   66.30 | X-H torsion
[ 10763 10752 10751 10750 ] final -156.34 input  -60.55 | X-H torsion
[ 11005 11000 10999 10996 ] final  147.03 input  -57.11 | X-H torsion

> <Gold.Protein.ActiveResidues>
 VAL166  LYS551  ARG553  GLY616  TRP617  ASP618  TYR619  PRO620  LYS621  CYS622 
 ASP623  PHE694  ASN695  SER759  ASP760  ASP761  ALA762  ILE779  LEU786  VAL792 
 PHE793  MET794  SER795  GLU796  ALA797  LYS798  CYS799  TRP800  GLU811  SER814 

> <Gold.Protein.RotatedAtoms>
  151.0199  133.5886  159.2672 H   0  0  0  0  0  0  0  0  0  0  0  0  # atno 6907 bound_to 6896
  151.3006  135.0767  159.9247 H   0  0  0  0  0  0  0  0  0  0  0  0  # atno 6908 bound_to 6896
  152.5320  133.9882  159.7892 H   0  0  0  0  0  0  0  0  0  0  0  0  # atno 6909 bound_to 6896
  145.2596  140.9265  143.3048 H   0  0  0  0  0  0  0  0  0  0  0  0  # atno 7974 bound_to 7965
  155.4120  140.3442  155.4264 H   0  0  0  0  0  0  0  0  0  0  0  0  # atno 8008 bound_to 7997
  156.1443  140.1551  156.8903 H   0  0  0  0  0  0  0  0  0  0  0  0  # atno 8009 bound_to 7997
  154.4997  140.0818  156.7753 H   0  0  0  0  0  0  0  0  0  0  0  0  # atno 8010 bound_to 7997
  140.7117  143.3340  151.2505 H   0  0  0  0  0  0  0  0  0  0  0  0  # atno 10167 bound_to 10162
  156.1526  130.4151  149.9920 H   0  0  0  0  0  0  0  0  0  0  0  0  # atno 10718 bound_to 10713
  154.7720  135.3148  154.8170 H   0  0  0  0  0  0  0  0  0  0  0  0  # atno 10763 bound_to 10752
  153.8903  135.6826  153.4765 H   0  0  0  0  0  0  0  0  0  0  0  0  # atno 10764 bound_to 10752
  153.1336  135.4769  154.9322 H   0  0  0  0  0  0  0  0  0  0  0  0  # atno 10765 bound_to 10752
  140.0842  134.9079  157.1549 H   0  0  0  0  0  0  0  0  0  0  0  0  # atno 11005 bound_to 11000
  144.9430  139.4167  143.6439 LP  0  0  0  0  0  0  0  0  0  0  0  0  # atno 17320 bound_to 7965
  146.3279  139.8400  142.8892 LP  0  0  0  0  0  0  0  0  0  0  0  0  # atno 17321 bound_to 7965
  139.6829  143.9823  152.2818 LP  0  0  0  0  0  0  0  0  0  0  0  0  # atno 17342 bound_to 10162
  139.9459  144.6652  150.8220 LP  0  0  0  0  0  0  0  0  0  0  0  0  # atno 17343 bound_to 10162
  156.7773  130.9208  151.3645 LP  0  0  0  0  0  0  0  0  0  0  0  0  # atno 17370 bound_to 10713
  157.6669  130.9016  149.9953 LP  0  0  0  0  0  0  0  0  0  0  0  0  # atno 17371 bound_to 10713
  140.3444  134.2668  155.7207 LP  0  0  0  0  0  0  0  0  0  0  0  0  # atno 17394 bound_to 11000
  141.2057  133.7853  157.0218 LP  0  0  0  0  0  0  0  0  0  0  0  0  # atno 17395 bound_to 11000

$$$$
