AV-unprocessed.smi:162|AV-procd|sdf|1378|dock7
  -GOLD-   2262019103D 1   1.00000     0.00000
 Structure written by MMmdl.
 54 57  0  0  0  0  0  0  0  0  1 V2000
  150.6985  138.8250  154.3963 C   0  0  0  0  0  0  0  0  0  0  0  0
  151.0959  139.6658  155.4641 O   0  0  0  0  0  0  0  0  0  0  0  0
  150.1067  140.6242  155.8027 C   0  0  0  0  0  0  0  0  0  0  0  0
  150.4150  141.1994  157.1947 C   0  0  2  0  0  0  0  0  0  0  0  0
  151.0300  142.5957  157.1618 C   0  0  0  0  0  0  0  0  0  0  0  0
  151.6128  142.7177  158.5724 C   0  0  2  0  0  0  0  0  0  0  0  0
  152.7246  143.5983  158.6482 O   0  0  0  0  0  0  0  0  0  0  0  0
  152.3900  144.8981  159.1066 C   0  0  0  0  0  0  0  0  0  0  0  0
  152.0334  141.2809  158.9170 C   0  0  0  0  0  0  0  0  0  0  0  0
  151.3972  140.4133  157.9321 N   0  0  0  0  0  0  0  0  0  0  0  0
  150.9940  139.2160  158.4080 C   0  0  0  0  0  0  0  0  0  0  0  0
  151.9446  138.4279  158.9665 N   0  0  0  0  0  0  0  0  0  0  0  0
  151.6160  137.2252  159.4475 C   0  0  0  0  0  0  0  0  0  0  0  0
  150.4200  136.6327  159.4708 N   0  0  0  0  0  0  0  0  0  0  0  0
  149.4611  137.4286  158.9158 C   0  0  0  0  0  0  0  0  0  0  0  0
  149.6577  138.7271  158.3675 C   0  0  0  0  0  0  0  0  0  0  0  0
  148.4491  139.2334  157.9041 N   0  0  0  0  0  0  0  0  0  0  0  0
  147.5897  138.2835  158.1541 C   0  0  0  0  0  0  0  0  0  0  0  0
  148.1110  137.1653  158.7651 N   0  0  0  0  0  0  0  0  0  0  0  0
  147.3865  135.9652  159.1549 C   0  0  0  0  0  0  0  0  0  0  0  0
  146.7330  136.0533  160.5560 C   0  0  0  0  0  0  0  0  0  0  0  0
  145.6784  136.9974  160.4785 O   0  0  0  0  0  0  0  0  0  0  0  0
  146.1361  134.6895  160.9583 C   0  0  0  0  0  0  0  0  0  0  0  0
  145.6204  134.6876  162.4085 C   0  0  0  0  0  0  0  0  0  0  0  0
  146.6627  135.0758  163.2951 O   0  0  0  0  0  0  0  0  0  0  0  0
  147.1193  136.4022  163.0601 C   0  0  0  0  0  0  0  0  0  0  0  0
  147.7230  136.5140  161.6486 C   0  0  0  0  0  0  0  0  0  0  0  0
  149.4861  141.2626  157.7615 H   0  0  0  0  0  0  0  0  0  0  0  0
  150.8302  143.0256  159.2685 H   0  0  0  0  0  0  0  0  0  0  0  0
  151.4945  138.1141  154.1753 H   0  0  0  0  0  0  0  0  0  0  0  0
  150.5022  139.4031  153.4925 H   0  0  0  0  0  0  0  0  0  0  0  0
  149.8023  138.2587  154.6531 H   0  0  0  0  0  0  0  0  0  0  0  0
  150.0588  141.4203  155.0577 H   0  0  0  0  0  0  0  0  0  0  0  0
  149.1330  140.1318  155.8184 H   0  0  0  0  0  0  0  0  0  0  0  0
  151.8282  142.6398  156.4189 H   0  0  0  0  0  0  0  0  0  0  0  0
  150.3028  143.3742  156.9302 H   0  0  0  0  0  0  0  0  0  0  0  0
  153.2926  145.5063  159.1635 H   0  0  0  0  0  0  0  0  0  0  0  0
  151.9455  144.8641  160.1020 H   0  0  0  0  0  0  0  0  0  0  0  0
  151.6959  145.3964  158.4295 H   0  0  0  0  0  0  0  0  0  0  0  0
  153.1132  141.1636  158.8197 H   0  0  0  0  0  0  0  0  0  0  0  0
  151.7651  141.0251  159.9433 H   0  0  0  0  0  0  0  0  0  0  0  0
  152.4284  136.6561  159.8749 H   0  0  0  0  0  0  0  0  0  0  0  0
  146.5428  138.3743  157.9025 H   0  0  0  0  0  0  0  0  0  0  0  0
  146.6314  135.7597  158.3948 H   0  0  0  0  0  0  0  0  0  0  0  0
  148.0833  135.1267  159.1219 H   0  0  0  0  0  0  0  0  0  0  0  0
  145.0567  136.6996  159.8320 H   0  0  0  0  0  0  0  0  0  0  0  0
  145.3351  134.4044  160.2750 H   0  0  0  0  0  0  0  0  0  0  0  0
  146.9034  133.9195  160.8662 H   0  0  0  0  0  0  0  0  0  0  0  0
  144.7624  135.3516  162.5238 H   0  0  0  0  0  0  0  0  0  0  0  0
  145.2830  133.6877  162.6821 H   0  0  0  0  0  0  0  0  0  0  0  0
  146.2999  137.1101  163.1941 H   0  0  0  0  0  0  0  0  0  0  0  0
  147.8732  136.6501  163.8074 H   0  0  0  0  0  0  0  0  0  0  0  0
  148.6194  135.8942  161.6046 H   0  0  0  0  0  0  0  0  0  0  0  0
  148.0513  137.5390  161.4717 H   0  0  0  0  0  0  0  0  0  0  0  0
  1  2  1  0  0  0  0
  1 30  1  0  0  0  0
  1 31  1  0  0  0  0
  1 32  1  0  0  0  0
  2  3  1  0  0  0  0
  3  4  1  0  0  0  0
  3 33  1  0  0  0  0
  3 34  1  0  0  0  0
  4 28  1  0  0  0  0
  4 10  1  0  0  0  0
  4  5  1  0  0  0  0
  5  6  1  0  0  0  0
  5 35  1  0  0  0  0
  5 36  1  0  0  0  0
  6 29  1  0  0  0  0
  6  7  1  0  0  0  0
  6  9  1  0  0  0  0
  7  8  1  0  0  0  0
  8 37  1  0  0  0  0
  8 38  1  0  0  0  0
  8 39  1  0  0  0  0
  9 10  1  0  0  0  0
  9 40  1  0  0  0  0
  9 41  1  0  0  0  0
 10 11  1  0  0  0  0
 11 16  1  0  0  0  0
 11 12  2  0  0  0  0
 12 13  1  0  0  0  0
 13 14  2  0  0  0  0
 13 42  1  0  0  0  0
 14 15  1  0  0  0  0
 15 19  1  0  0  0  0
 15 16  2  0  0  0  0
 16 17  1  0  0  0  0
 17 18  2  0  0  0  0
 18 19  1  0  0  0  0
 18 43  1  0  0  0  0
 19 20  1  0  0  0  0
 20 21  1  0  0  0  0
 20 44  1  0  0  0  0
 20 45  1  0  0  0  0
 21 27  1  0  0  0  0
 21 22  1  0  0  0  0
 21 23  1  0  0  0  0
 22 46  1  0  0  0  0
 23 24  1  0  0  0  0
 23 47  1  0  0  0  0
 23 48  1  0  0  0  0
 24 25  1  0  0  0  0
 24 49  1  0  0  0  0
 24 50  1  0  0  0  0
 25 26  1  0  0  0  0
 26 27  1  0  0  0  0
 26 51  1  0  0  0  0
 26 52  1  0  0  0  0
 27 53  1  0  0  0  0
 27 54  1  0  0  0  0
M  END
> <s_m_source_file>
AV-unprocessed.smi

> <i_m_source_file_index>
162

> <i_lp_mmshare_version>
43012

> <i_f3d_flags>
0

> <s_epik_input>
W0NIM11PW0NIMl1bQ0BASF0xW0NIMl1bQ0BASF0oT1tDSDNdKVtDSDJdTjFjKG5bY0hdbjIpYyhjMjMpbltjSF1uM1tDSDJdQzQoW09IXSlbQ0gyXVtDSDJdT1tDSDJdW0NIMl00

> <s_epik_cmdline>
J2VwaWtfcHl0aG9uJywgJy1waCcsICc3LjAnLCAnLXRuJywgJzgnLCAnLW1hJywgJzIwMCcsICctbWV0YWxfYmluZGluZycsICctaW1hZScsICc8aW5maWxlLm1hZT4nLCAnLW9tYWUnLCAnPG91dGZpbGUubWFlPic=

> <r_lp_tautomer_probability>
1

> <r_epik_Ionization_Penalty>
0.00660334

> <r_epik_Ionization_Penalty_Charging>
0

> <r_epik_Ionization_Penalty_Neutral>
0.00660334

> <r_epik_State_Penalty>
0.00469459

> <r_epik_Charging_Adjusted_Penalty>
0.00469459

> <i_epik_Tot_Q>
0

> <i_epik_Tot_abs_Q>
0

> <r_epik_Metal_State_Penalty>
-0

> <b_epik_Metal_Only>
0

> <s_lp_Force_Field>
OPLS_2005

> <r_lp_Energy>
44.4659

> <b_lp_Chiralities_Consistent>
1

> <s_lp_Variant>
AV-unprocessed.smi:162-3

> <Gold.Version>
5.8.1

> <Gold.Id.Protein>
6NUR|6NUR_protein|mol2

> <Gold.PLP.Fitness>
46.5811

> <Gold.PLP.PLP>
-46.7175

> <Gold.PLP.part.hbond>
-2.3282

> <Gold.PLP.part.metal>
0.0000

> <Gold.PLP.part.buried>
-6.6708

> <Gold.PLP.part.nonpolar>
-37.9155

> <Gold.PLP.part.repulsive>
0.0484

> <Gold.PLP.ligand.clash>
0.0000

> <Gold.PLP.ligand.torsion>
1.6568

> <Gold.PLP.Chemscore.Hbond>
1.0000

> <Gold.PLP.Chemscore.CHOScore>
0.0000

> <Gold.PLP.Chemscore.Metal>
0.0000

> <Gold.Chemscore.Hbonds>
donor molecule, donor type, donor heavy atom, donor atom, acceptor molecule, acceptor atom, score
      P1  H  6896  6909       L1    14  0.70

> <Gold.PLP.Chemscore.Internal.Correction>
0.1773

> <Gold.Rescore>
     Score         DG    S(hbond)    S(metal)    S(lipo)     H(rot)  DE(clash)    DE(int)     intcor
      9.29     -13.66       0.98        0.00     104.73       2.86       0.05       4.32       ----

> <Gold.Chemscore.Fitness>
9.2941

> <Gold.Chemscore.DG>
-13.6643

> <Gold.Chemscore.ZeroCoef>
-5.4800

> <Gold.Chemscore.Hbond>
0.9769

> <Gold.Chemscore.Metal>
0.0000

> <Gold.Chemscore.Lipo>
104.7322

> <Gold.Chemscore.Internal_Hbond>
0.0000

> <Gold.Chemscore.DEClash>
0.0481

> <Gold.Chemscore.DEInternal>
4.3221

> <Gold.Chemscore.Rot>
2.8642

> <Gold.Chemscore.Internal.Correction>
   9.000000E+99

> <Gold.Chemscore.Hbonds>
donor molecule, donor type, donor heavy atom, donor atom, acceptor molecule, acceptor atom, score
      P1  H  6896  6909       L1    14  0.07

> <Gold.Chemscore.Hbond.Weighted>
-3.2630

> <Gold.Chemscore.Metal.Weighted>
-0.0000

> <Gold.Chemscore.Lipo.Weighted>
-12.2537

> <Gold.Chemscore.Internal_Hbond.Weighted>
0.0000

> <Gold.Chemscore.DEClash.Weighted>
0.0481

> <Gold.Chemscore.DEInternal.Weighted>
4.3221

> <Gold.Chemscore.Rot.Weighted>
7.3324

> <Gold.Chemscore.Internal.Correction.Weighted>
   9.000000E+99

> <Gold.Protein.RotatedTorsions>
[ 6907 6896 6895 6894 ] final   88.66 input  -60.11 | X-H torsion
[ 7974 7965 7964 7962 ] final  -80.41 input  175.53 | X-H torsion
[ 8008 7997 7996 7995 ] final -101.37 input   59.86 | X-H torsion
[ 10167 10162 10161 10158 ] final -144.82 input  -65.29 | X-H torsion
[ 10718 10713 10712 10709 ] final  101.35 input   66.30 | X-H torsion
[ 10763 10752 10751 10750 ] final -153.13 input  -60.55 | X-H torsion
[ 11005 11000 10999 10996 ] final  -66.91 input  -57.11 | X-H torsion

> <Gold.Protein.ActiveResidues>
 VAL166  LYS551  ARG553  GLY616  TRP617  ASP618  TYR619  PRO620  LYS621  CYS622 
 ASP623  PHE694  ASN695  SER759  ASP760  ASP761  ALA762  ILE779  LEU786  VAL792 
 PHE793  MET794  SER795  GLU796  ALA797  LYS798  CYS799  TRP800  GLU811  SER814 

> <Gold.Protein.RotatedAtoms>
  152.5428  134.2086  159.8740 H   0  0  0  0  0  0  0  0  0  0  0  0  # atno 6907 bound_to 6896
  151.2070  133.4571  159.2605 H   0  0  0  0  0  0  0  0  0  0  0  0  # atno 6908 bound_to 6896
  151.0933  134.9942  159.8469 H   0  0  0  0  0  0  0  0  0  0  0  0  # atno 6909 bound_to 6896
  145.5603  140.9483  143.1451 H   0  0  0  0  0  0  0  0  0  0  0  0  # atno 7974 bound_to 7965
  154.8416  140.0435  157.1545 H   0  0  0  0  0  0  0  0  0  0  0  0  # atno 8008 bound_to 7997
  154.9041  140.3004  155.5281 H   0  0  0  0  0  0  0  0  0  0  0  0  # atno 8009 bound_to 7997
  156.2992  140.2370  156.4072 H   0  0  0  0  0  0  0  0  0  0  0  0  # atno 8010 bound_to 7997
  139.7863  143.8029  152.2645 H   0  0  0  0  0  0  0  0  0  0  0  0  # atno 10167 bound_to 10162
  157.6831  131.0724  150.5239 H   0  0  0  0  0  0  0  0  0  0  0  0  # atno 10718 bound_to 10713
  154.7948  135.3220  154.7693 H   0  0  0  0  0  0  0  0  0  0  0  0  # atno 10763 bound_to 10752
  153.8374  135.6874  153.4811 H   0  0  0  0  0  0  0  0  0  0  0  0  # atno 10764 bound_to 10752
  153.1634  135.4651  154.9745 H   0  0  0  0  0  0  0  0  0  0  0  0  # atno 10765 bound_to 10752
  141.1494  133.6708  156.6211 H   0  0  0  0  0  0  0  0  0  0  0  0  # atno 11005 bound_to 11000
  144.7486  139.7254  143.7282 LP  0  0  0  0  0  0  0  0  0  0  0  0  # atno 17320 bound_to 7965
  146.1855  139.5069  142.9838 LP  0  0  0  0  0  0  0  0  0  0  0  0  # atno 17321 bound_to 7965
  139.8107  144.7337  150.9701 LP  0  0  0  0  0  0  0  0  0  0  0  0  # atno 17342 bound_to 10162
  140.7819  143.4253  151.0777 LP  0  0  0  0  0  0  0  0  0  0  0  0  # atno 17343 bound_to 10162
  156.5552  130.4241  149.6089 LP  0  0  0  0  0  0  0  0  0  0  0  0  # atno 17370 bound_to 10713
  156.2868  130.7102  151.1941 LP  0  0  0  0  0  0  0  0  0  0  0  0  # atno 17371 bound_to 10713
  140.3539  134.7745  157.4487 LP  0  0  0  0  0  0  0  0  0  0  0  0  # atno 17394 bound_to 11000
  140.0838  134.5694  155.8513 LP  0  0  0  0  0  0  0  0  0  0  0  0  # atno 17395 bound_to 11000

$$$$
