AV-unprocessed.smi:1843|AV-procd|sdf|7505|dock7
  -GOLD-   22720 9213D 1   1.00000     0.00000
 Structure written by MMmdl.
 36 38  0  0  0  0  0  0  0  0  2 V2000
  145.9817  138.4209  154.3126 O   0  0  0  0  0  0  0  0  0  0  0  0
  146.6321  138.3439  153.2678 C   0  0  0  0  0  0  0  0  0  0  0  0
  146.1737  137.9215  152.0678 N   0  5  0  0  0  0  0  0  0  0  0  0
  145.4481  136.7941  151.9849 C   0  0  0  0  0  0  0  0  0  0  0  0
  144.9688  136.1649  153.0673 N   0  0  0  0  0  0  0  0  0  0  0  0
  144.2514  135.0185  152.7574 N   0  0  0  0  0  0  0  0  0  0  0  0
  144.2057  134.7930  151.4422 C   0  0  0  0  0  0  0  0  0  0  0  0
  143.4915  133.6216  150.8554 C   0  0  0  0  0  0  0  0  0  0  0  0
  143.8420  132.2027  151.2474 C   0  0  0  0  0  0  0  0  0  0  0  0
  144.1834  132.7088  149.8691 C   0  0  0  0  0  0  0  0  0  0  0  0
  145.0563  135.9826  150.4695 S   0  0  0  0  0  0  0  0  0  0  0  0
  147.9223  138.7082  153.2531 N   0  0  0  0  0  0  0  0  0  0  0  0
  148.6857  139.2305  154.3856 C   0  0  1  0  0  0  0  0  0  0  0  0
  150.0440  138.5102  154.4917 C   0  0  0  0  0  0  0  0  0  0  0  0
  150.8655  139.0405  155.6779 C   0  0  0  0  0  0  0  0  0  0  0  0
  151.0604  140.5622  155.5862 C   0  0  0  0  0  0  0  0  0  0  0  0
  149.7116  141.2961  155.4716 C   0  0  0  0  0  0  0  0  0  0  0  0
  148.8576  140.7678  154.3024 C   0  0  1  0  0  0  0  0  0  0  0  0
  149.4648  141.1422  153.0793 O   0  0  0  0  0  0  0  0  0  0  0  0
  142.4432  133.8578  150.6832 H   0  0  0  0  0  0  0  0  0  0  0  0
  144.6684  132.0472  151.9381 H   0  0  0  0  0  0  0  0  0  0  0  0
  143.0238  131.4909  151.3333 H   0  0  0  0  0  0  0  0  0  0  0  0
  143.5945  132.3337  149.0346 H   0  0  0  0  0  0  0  0  0  0  0  0
  145.2319  132.9025  149.6509 H   0  0  0  0  0  0  0  0  0  0  0  0
  148.4143  138.6239  152.3757 H   0  0  0  0  0  0  0  0  0  0  0  0
  148.1291  139.0012  155.2965 H   0  0  0  0  0  0  0  0  0  0  0  0
  149.8878  137.4370  154.6069 H   0  0  0  0  0  0  0  0  0  0  0  0
  150.6106  138.6410  153.5686 H   0  0  0  0  0  0  0  0  0  0  0  0
  150.3602  138.7928  156.6122 H   0  0  0  0  0  0  0  0  0  0  0  0
  151.8351  138.5427  155.7093 H   0  0  0  0  0  0  0  0  0  0  0  0
  151.6031  140.9207  156.4612 H   0  0  0  0  0  0  0  0  0  0  0  0
  151.6826  140.7983  154.7220 H   0  0  0  0  0  0  0  0  0  0  0  0
  149.1578  141.1660  156.4023 H   0  0  0  0  0  0  0  0  0  0  0  0
  149.8768  142.3688  155.3646 H   0  0  0  0  0  0  0  0  0  0  0  0
  147.8799  141.2497  154.3376 H   0  0  0  0  0  0  0  0  0  0  0  0
  149.2777  140.4702  152.4410 H   0  0  0  0  0  0  0  0  0  0  0  0
  1  2  2  0  0  0  0
  2  3  1  0  0  0  0
  2 12  1  0  0  0  0
  3  4  1  0  0  0  0
  4 11  1  0  0  0  0
  4  5  2  0  0  0  0
  5  6  1  0  0  0  0
  6  7  2  0  0  0  0
  7  8  1  0  0  0  0
  7 11  1  0  0  0  0
  8 10  1  0  0  0  0
  8  9  1  0  0  0  0
  8 20  1  0  0  0  0
  9 10  1  0  0  0  0
  9 21  1  0  0  0  0
  9 22  1  0  0  0  0
 10 23  1  0  0  0  0
 10 24  1  0  0  0  0
 12 13  1  0  0  0  0
 12 25  1  0  0  0  0
 13 18  1  0  0  0  0
 13 14  1  0  0  0  0
 13 26  1  0  0  0  0
 14 15  1  0  0  0  0
 14 27  1  0  0  0  0
 14 28  1  0  0  0  0
 15 16  1  0  0  0  0
 15 29  1  0  0  0  0
 15 30  1  0  0  0  0
 16 17  1  0  0  0  0
 16 31  1  0  0  0  0
 16 32  1  0  0  0  0
 17 18  1  0  0  0  0
 17 33  1  0  0  0  0
 17 34  1  0  0  0  0
 18 19  1  0  0  0  0
 18 35  1  0  0  0  0
 19 36  1  0  0  0  0
M  CHG  1   3  -1
M  END
> <s_m_source_file>
AV-unprocessed.smi

> <i_m_source_file_index>
1843

> <i_lp_mmshare_version>
43012

> <i_f3d_flags>
0

> <s_epik_input>
W09IXVtDQEBIXTFbQ0gyXVtDSDJdW0NIMl1bQ0gyXVtDQEhdMVtOSF1DKD1PKVtOSF1jMm5uYyhzMilbQ0hdM1tDSDJdW0NIMl0z

> <s_epik_cmdline>
J2VwaWtfcHl0aG9uJywgJy1waCcsICc3LjAnLCAnLXRuJywgJzgnLCAnLW1hJywgJzIwMCcsICctbWV0YWxfYmluZGluZycsICctaW1hZScsICc8aW5maWxlLm1hZT4nLCAnLW9tYWUnLCAnPG91dGZpbGUubWFlPic=

> <r_lp_tautomer_probability>
1

> <r_epik_Ionization_Penalty>
4.7996

> <r_epik_Ionization_Penalty_Charging>
4.64516

> <r_epik_Ionization_Penalty_Neutral>
0.154442

> <r_epik_State_Penalty>
4.64493

> <r_epik_Charging_Adjusted_Penalty>
9.29009

> <i_epik_Tot_Q>
-1

> <i_epik_Tot_abs_Q>
1

> <r_epik_Metal_State_Penalty>
0.896144

> <b_epik_Metal_Only>
1

> <s_lp_Force_Field>
OPLS_2005

> <r_lp_Energy>
9.18757

> <b_lp_Chiralities_Consistent>
1

> <s_lp_Variant>
AV-unprocessed.smi:1843-6

> <Gold.Version>
5.8.1

> <Gold.Id.Protein>
6NUR|6NUR_protein|mol2

> <Gold.PLP.Fitness>
40.7864

> <Gold.PLP.PLP>
-34.6594

> <Gold.PLP.part.hbond>
-4.3937

> <Gold.PLP.part.metal>
0.0000

> <Gold.PLP.part.buried>
-2.6151

> <Gold.PLP.part.nonpolar>
-28.0304

> <Gold.PLP.part.repulsive>
0.7064

> <Gold.PLP.ligand.clash>
0.0000

> <Gold.PLP.ligand.torsion>
0.7034

> <Gold.PLP.Chemscore.Hbond>
2.4562

> <Gold.PLP.Chemscore.CHOScore>
0.0000

> <Gold.PLP.Chemscore.Metal>
0.0000

> <Gold.Chemscore.Hbonds>
donor molecule, donor type, donor heavy atom, donor atom, acceptor molecule, acceptor atom, score
      L1  H    12    25       P1  7957  0.41
      L1  H    19    36       P1  7957  0.54
      P1  H  7989  7998       L1    19  0.04
      P1  H  8011  8017       L1    19  0.94

> <Gold.PLP.Chemscore.Internal.Correction>
0.1652

> <Gold.Rescore>
     Score         DG    S(hbond)    S(metal)    S(lipo)     H(rot)  DE(clash)    DE(int)     intcor
     13.01     -16.71       1.93        0.00      78.38       1.72       1.69       2.01       ----

> <Gold.Chemscore.Fitness>
13.0111

> <Gold.Chemscore.DG>
-16.7139

> <Gold.Chemscore.ZeroCoef>
-5.4800

> <Gold.Chemscore.Hbond>
1.9330

> <Gold.Chemscore.Metal>
0.0000

> <Gold.Chemscore.Lipo>
78.3825

> <Gold.Chemscore.Internal_Hbond>
0.0000

> <Gold.Chemscore.DEClash>
1.6907

> <Gold.Chemscore.DEInternal>
2.0121

> <Gold.Chemscore.Rot>
1.7160

> <Gold.Chemscore.Internal.Correction>
   9.000000E+99

> <Gold.Chemscore.Hbonds>
donor molecule, donor type, donor heavy atom, donor atom, acceptor molecule, acceptor atom, score
      L1  H    12    25       P1  7957  0.40
      L1  H    19    36       P1  7957  0.54
      P1  H  7989  7998       L1    19  0.01
      P1  H  8011  8017       L1    19  0.54

> <Gold.Chemscore.Hbond.Weighted>
-6.4561

> <Gold.Chemscore.Metal.Weighted>
-0.0000

> <Gold.Chemscore.Lipo.Weighted>
-9.1708

> <Gold.Chemscore.Internal_Hbond.Weighted>
0.0000

> <Gold.Chemscore.DEClash.Weighted>
1.6907

> <Gold.Chemscore.DEInternal.Weighted>
2.0121

> <Gold.Chemscore.Rot.Weighted>
4.3930

> <Gold.Chemscore.Internal.Correction.Weighted>
   9.000000E+99

> <Gold.Protein.RotatedTorsions>
[ 6907 6896 6895 6894 ] final  101.41 input  -60.11 | X-H torsion
[ 7974 7965 7964 7962 ] final   46.44 input  175.53 | X-H torsion
[ 8008 7997 7996 7995 ] final  -95.55 input   59.86 | X-H torsion
[ 10167 10162 10161 10158 ] final  -55.75 input  -65.29 | X-H torsion
[ 10718 10713 10712 10709 ] final  153.25 input   66.30 | X-H torsion
[ 10763 10752 10751 10750 ] final  -96.74 input  -60.55 | X-H torsion
[ 11005 11000 10999 10996 ] final  105.59 input  -57.11 | X-H torsion

> <Gold.Protein.ActiveResidues>
 VAL166  LYS551  ARG553  GLY616  TRP617  ASP618  TYR619  PRO620  LYS621  CYS622 
 ASP623  PHE694  ASN695  SER759  ASP760  ASP761  ALA762  ILE779  LEU786  VAL792 
 PHE793  MET794  SER795  GLU796  ALA797  LYS798  CYS799  TRP800  GLU811  SER814 

> <Gold.Protein.RotatedAtoms>
  152.5350  134.0129  159.7946 H   0  0  0  0  0  0  0  0  0  0  0  0  # atno 6907 bound_to 6896
  151.0328  133.5767  159.2666 H   0  0  0  0  0  0  0  0  0  0  0  0  # atno 6908 bound_to 6896
  151.2765  135.0708  159.9207 H   0  0  0  0  0  0  0  0  0  0  0  0  # atno 6909 bound_to 6896
  146.0389  139.4855  142.9791 H   0  0  0  0  0  0  0  0  0  0  0  0  # atno 7974 bound_to 7965
  154.7629  140.0479  157.0988 H   0  0  0  0  0  0  0  0  0  0  0  0  # atno 8008 bound_to 7997
  154.9916  140.3114  155.4884 H   0  0  0  0  0  0  0  0  0  0  0  0  # atno 8009 bound_to 7997
  156.2907  140.2217  156.5021 H   0  0  0  0  0  0  0  0  0  0  0  0  # atno 8010 bound_to 7997
  140.6357  143.2481  151.5124 H   0  0  0  0  0  0  0  0  0  0  0  0  # atno 10167 bound_to 10162
  157.2472  131.0771  151.1754 H   0  0  0  0  0  0  0  0  0  0  0  0  # atno 10718 bound_to 10713
  154.7266  135.5072  153.8896 H   0  0  0  0  0  0  0  0  0  0  0  0  # atno 10763 bound_to 10752
  153.0910  135.6659  153.9862 H   0  0  0  0  0  0  0  0  0  0  0  0  # atno 10764 bound_to 10752
  153.9673  135.3042  155.3409 H   0  0  0  0  0  0  0  0  0  0  0  0  # atno 10765 bound_to 10752
  139.8804  134.9341  156.5537 H   0  0  0  0  0  0  0  0  0  0  0  0  # atno 11005 bound_to 11000
  145.6917  141.0162  143.1551 LP  0  0  0  0  0  0  0  0  0  0  0  0  # atno 17320 bound_to 7965
  144.7065  139.8541  143.7428 LP  0  0  0  0  0  0  0  0  0  0  0  0  # atno 17321 bound_to 7965
  139.5568  144.2256  152.1625 LP  0  0  0  0  0  0  0  0  0  0  0  0  # atno 17342 bound_to 10162
  140.1512  144.5112  150.6686 LP  0  0  0  0  0  0  0  0  0  0  0  0  # atno 17343 bound_to 10162
  157.3316  130.6988  149.6328 LP  0  0  0  0  0  0  0  0  0  0  0  0  # atno 17370 bound_to 10713
  155.9667  130.4306  150.4882 LP  0  0  0  0  0  0  0  0  0  0  0  0  # atno 17371 bound_to 10713
  140.8221  133.8345  155.8905 LP  0  0  0  0  0  0  0  0  0  0  0  0  # atno 17394 bound_to 11000
  140.9408  134.1903  157.4799 LP  0  0  0  0  0  0  0  0  0  0  0  0  # atno 17395 bound_to 11000

$$$$
