AV-unprocessed.smi:1972|AV-procd|sdf|7975|dock2
  -GOLD-   2272010153D 1   1.00000     0.00000
 Structure written by MMmdl.
 44 45  0  0  0  0  0  0  0  0  1 V2000
  150.5125  130.9201  154.9520 C   0  0  0  0  0  0  0  0  0  0  0  0
  149.3187  132.2806  155.0228 S   0  0  0  0  0  0  0  0  0  0  0  0
  150.4578  133.6651  155.3134 C   0  0  0  0  0  0  0  0  0  0  0  0
  149.7229  135.0138  155.4104 C   0  0  0  0  0  0  0  0  0  0  0  0
  150.6486  136.2178  155.2100 C   0  0  0  0  0  0  0  0  0  0  0  0
  151.6523  136.3522  155.9099 O   0  0  0  0  0  0  0  0  0  0  0  0
  150.2958  137.0874  154.2522 N   0  0  0  0  0  0  0  0  0  0  0  0
  151.0540  138.2784  153.8861 C   0  0  0  0  0  0  0  0  0  0  0  0
  151.2994  139.2234  155.0519 C   0  0  0  0  0  0  0  0  0  0  0  0
  150.4561  140.3227  155.3184 C   0  0  0  0  0  0  0  0  0  0  0  0
  150.7513  141.1620  156.4096 C   0  0  0  0  0  0  0  0  0  0  0  0
  151.8862  140.8851  157.2086 C   0  0  0  0  0  0  0  0  0  0  0  0
  152.2001  141.7118  158.3095 N   0  0  0  0  0  0  0  0  0  0  0  0
  152.2652  141.0964  159.6335 C   0  0  0  0  0  0  0  0  0  0  0  0
  152.8991  142.0665  160.6435 C   0  0  0  0  0  0  0  0  0  0  0  0
  152.1827  143.2967  160.6401 O   0  0  0  0  0  0  0  0  0  0  0  0
  152.2257  143.9394  159.3691 C   0  0  2  0  0  0  0  0  0  0  0  0
  151.5122  145.2902  159.4886 C   0  0  0  0  0  0  0  0  0  0  0  0
  151.5668  143.0281  158.3154 C   0  0  0  0  0  0  0  0  0  0  0  0
  152.7024  139.8362  156.9390 N   0  0  0  0  0  0  0  0  0  0  0  0
  152.4148  139.0344  155.8922 C   0  0  0  0  0  0  0  0  0  0  0  0
  149.9963  129.9755  154.7812 H   0  0  0  0  0  0  0  0  0  0  0  0
  151.0650  130.8490  155.8889 H   0  0  0  0  0  0  0  0  0  0  0  0
  151.2220  131.0782  154.1396 H   0  0  0  0  0  0  0  0  0  0  0  0
  150.9925  133.4749  156.2443 H   0  0  0  0  0  0  0  0  0  0  0  0
  151.2090  133.6852  154.5228 H   0  0  0  0  0  0  0  0  0  0  0  0
  148.8979  135.0422  154.6968 H   0  0  0  0  0  0  0  0  0  0  0  0
  149.2747  135.1074  156.3999 H   0  0  0  0  0  0  0  0  0  0  0  0
  149.4517  136.9036  153.7294 H   0  0  0  0  0  0  0  0  0  0  0  0
  152.0095  137.9649  153.4634 H   0  0  0  0  0  0  0  0  0  0  0  0
  150.5292  138.8373  153.1093 H   0  0  0  0  0  0  0  0  0  0  0  0
  149.5974  140.5317  154.6978 H   0  0  0  0  0  0  0  0  0  0  0  0
  150.1166  142.0125  156.6087 H   0  0  0  0  0  0  0  0  0  0  0  0
  151.2586  140.8269  159.9565 H   0  0  0  0  0  0  0  0  0  0  0  0
  152.8541  140.1788  159.5971 H   0  0  0  0  0  0  0  0  0  0  0  0
  152.8662  141.6388  161.6456 H   0  0  0  0  0  0  0  0  0  0  0  0
  153.9497  142.2431  160.4071 H   0  0  0  0  0  0  0  0  0  0  0  0
  153.2669  144.1213  159.0964 H   0  0  0  0  0  0  0  0  0  0  0  0
  151.5309  145.8291  158.5410 H   0  0  0  0  0  0  0  0  0  0  0  0
  151.9928  145.9193  160.2380 H   0  0  0  0  0  0  0  0  0  0  0  0
  150.4695  145.1611  159.7806 H   0  0  0  0  0  0  0  0  0  0  0  0
  151.6314  143.5094  157.3408 H   0  0  0  0  0  0  0  0  0  0  0  0
  150.5059  142.9038  158.5368 H   0  0  0  0  0  0  0  0  0  0  0  0
  153.0977  138.2149  155.7229 H   0  0  0  0  0  0  0  0  0  0  0  0
  1  2  1  0  0  0  0
  1 22  1  0  0  0  0
  1 23  1  0  0  0  0
  1 24  1  0  0  0  0
  2  3  1  0  0  0  0
  3  4  1  0  0  0  0
  3 25  1  0  0  0  0
  3 26  1  0  0  0  0
  4  5  1  0  0  0  0
  4 27  1  0  0  0  0
  4 28  1  0  0  0  0
  5  6  2  0  0  0  0
  5  7  1  0  0  0  0
  7  8  1  0  0  0  0
  7 29  1  0  0  0  0
  8  9  1  0  0  0  0
  8 30  1  0  0  0  0
  8 31  1  0  0  0  0
  9 21  1  0  0  0  0
  9 10  2  0  0  0  0
 10 11  1  0  0  0  0
 10 32  1  0  0  0  0
 11 12  2  0  0  0  0
 11 33  1  0  0  0  0
 12 13  1  0  0  0  0
 12 20  1  0  0  0  0
 13 19  1  0  0  0  0
 13 14  1  0  0  0  0
 14 15  1  0  0  0  0
 14 34  1  0  0  0  0
 14 35  1  0  0  0  0
 15 16  1  0  0  0  0
 15 36  1  0  0  0  0
 15 37  1  0  0  0  0
 16 17  1  0  0  0  0
 17 18  1  0  0  0  0
 17 19  1  0  0  0  0
 17 38  1  0  0  0  0
 18 39  1  0  0  0  0
 18 40  1  0  0  0  0
 18 41  1  0  0  0  0
 19 42  1  0  0  0  0
 19 43  1  0  0  0  0
 20 21  2  0  0  0  0
 21 44  1  0  0  0  0
M  END
> <s_m_source_file>
AV-unprocessed.smi

> <i_m_source_file_index>
1972

> <i_lp_mmshare_version>
43012

> <i_f3d_flags>
0

> <s_epik_input>
W0NIM11TW0NIMl1bQ0gyXUMoPU8pW05IXVtDSDJdYzFbY0hdW2NIXWMobltjSF0xKU4yW0NIMl1bQ0gyXU9bQ0BASF0oW0NIM10pW0NIMl0y

> <s_epik_cmdline>
J2VwaWtfcHl0aG9uJywgJy1waCcsICc3LjAnLCAnLXRuJywgJzgnLCAnLW1hJywgJzIwMCcsICctbWV0YWxfYmluZGluZycsICctaW1hZScsICc8aW5maWxlLm1hZT4nLCAnLW9tYWUnLCAnPG91dGZpbGUubWFlPic=

> <r_lp_tautomer_probability>
1

> <r_epik_Ionization_Penalty>
0.00559088

> <r_epik_Ionization_Penalty_Charging>
0

> <r_epik_Ionization_Penalty_Neutral>
0.00559088

> <r_epik_State_Penalty>
0.00409544

> <r_epik_Charging_Adjusted_Penalty>
0.00409544

> <i_epik_Tot_Q>
0

> <i_epik_Tot_abs_Q>
0

> <r_epik_Metal_State_Penalty>
-0

> <b_epik_Metal_Only>
0

> <s_lp_Force_Field>
OPLS_2005

> <r_lp_Energy>
17.9422

> <b_lp_Chiralities_Consistent>
1

> <s_lp_Variant>
AV-unprocessed.smi:1972-2

> <Gold.Version>
5.8.1

> <Gold.Id.Protein>
6NUR|6NUR_protein|mol2

> <Gold.PLP.Fitness>
52.2787

> <Gold.PLP.PLP>
-45.1265

> <Gold.PLP.part.hbond>
-3.8325

> <Gold.PLP.part.metal>
0.0000

> <Gold.PLP.part.buried>
-4.2404

> <Gold.PLP.part.nonpolar>
-36.3215

> <Gold.PLP.part.repulsive>
0.1473

> <Gold.PLP.ligand.clash>
0.0000

> <Gold.PLP.ligand.torsion>
0.7189

> <Gold.PLP.Chemscore.Hbond>
2.7360

> <Gold.PLP.Chemscore.CHOScore>
0.0000

> <Gold.PLP.Chemscore.Metal>
0.0000

> <Gold.Chemscore.Hbonds>
donor molecule, donor type, donor heavy atom, donor atom, acceptor molecule, acceptor atom, score
      L1  H     7    29       P1  7948  0.72
      P1  H  7997  8009       L1    20  1.00
      P1  H 10752 10763       L1     6  1.00

> <Gold.PLP.Chemscore.Internal.Correction>
0.3820

> <Gold.Rescore>
     Score         DG    S(hbond)    S(metal)    S(lipo)     H(rot)  DE(clash)    DE(int)     intcor
     18.72     -20.95       2.14        0.00     109.42       1.75       0.16       2.06       ----

> <Gold.Chemscore.Fitness>
18.7235

> <Gold.Chemscore.DG>
-20.9500

> <Gold.Chemscore.ZeroCoef>
-5.4800

> <Gold.Chemscore.Hbond>
2.1370

> <Gold.Chemscore.Metal>
0.0000

> <Gold.Chemscore.Lipo>
109.4190

> <Gold.Chemscore.Internal_Hbond>
0.0000

> <Gold.Chemscore.DEClash>
0.1626

> <Gold.Chemscore.DEInternal>
2.0638

> <Gold.Chemscore.Rot>
1.7460

> <Gold.Chemscore.Internal.Correction>
   9.000000E+99

> <Gold.Chemscore.Hbonds>
donor molecule, donor type, donor heavy atom, donor atom, acceptor molecule, acceptor atom, score
      L1  H     7    29       P1  7948  0.62
      P1  H  7997  8009       L1    20  0.38
      P1  H 10752 10763       L1     6  0.70

> <Gold.Chemscore.Hbond.Weighted>
-7.1376

> <Gold.Chemscore.Metal.Weighted>
-0.0000

> <Gold.Chemscore.Lipo.Weighted>
-12.8020

> <Gold.Chemscore.Internal_Hbond.Weighted>
0.0000

> <Gold.Chemscore.DEClash.Weighted>
0.1626

> <Gold.Chemscore.DEInternal.Weighted>
2.0638

> <Gold.Chemscore.Rot.Weighted>
4.4697

> <Gold.Chemscore.Internal.Correction.Weighted>
   9.000000E+99

> <Gold.Protein.RotatedTorsions>
[ 6907 6896 6895 6894 ] final  -86.06 input  -60.11 | X-H torsion
[ 7974 7965 7964 7962 ] final -109.40 input  175.53 | X-H torsion
[ 8008 7997 7996 7995 ] final  168.29 input   59.86 | X-H torsion
[ 10167 10162 10161 10158 ] final  -14.89 input  -65.29 | X-H torsion
[ 10718 10713 10712 10709 ] final  177.25 input   66.30 | X-H torsion
[ 10763 10752 10751 10750 ] final   89.84 input  -60.55 | X-H torsion
[ 11005 11000 10999 10996 ] final    7.51 input  -57.11 | X-H torsion

> <Gold.Protein.ActiveResidues>
 VAL166  LYS551  ARG553  GLY616  TRP617  ASP618  TYR619  PRO620  LYS621  CYS622 
 ASP623  PHE694  ASN695  SER759  ASP760  ASP761  ALA762  ILE779  LEU786  VAL792 
 PHE793  MET794  SER795  GLU796  ALA797  LYS798  CYS799  TRP800  GLU811  SER814 

> <Gold.Protein.RotatedAtoms>
  150.6868  134.3108  159.4745 H   0  0  0  0  0  0  0  0  0  0  0  0  # atno 6907 bound_to 6896
  152.0994  134.9349  160.0579 H   0  0  0  0  0  0  0  0  0  0  0  0  # atno 6908 bound_to 6896
  152.0634  133.4038  159.4464 H   0  0  0  0  0  0  0  0  0  0  0  0  # atno 6909 bound_to 6896
  145.1810  140.8971  143.3480 H   0  0  0  0  0  0  0  0  0  0  0  0  # atno 7974 bound_to 7965
  156.1560  140.1594  156.8692 H   0  0  0  0  0  0  0  0  0  0  0  0  # atno 8008 bound_to 7997
  154.5115  140.0800  156.8035 H   0  0  0  0  0  0  0  0  0  0  0  0  # atno 8009 bound_to 7997
  155.3803  140.3405  155.4249 H   0  0  0  0  0  0  0  0  0  0  0  0  # atno 8010 bound_to 7997
  140.7209  143.5275  150.9559 H   0  0  0  0  0  0  0  0  0  0  0  0  # atno 10167 bound_to 10162
  156.9082  130.9901  151.3025 H   0  0  0  0  0  0  0  0  0  0  0  0  # atno 10718 bound_to 10713
  153.1913  135.4455  155.0153 H   0  0  0  0  0  0  0  0  0  0  0  0  # atno 10763 bound_to 10752
  154.8092  135.3287  154.7353 H   0  0  0  0  0  0  0  0  0  0  0  0  # atno 10764 bound_to 10752
  153.7807  135.6978  153.4944 H   0  0  0  0  0  0  0  0  0  0  0  0  # atno 10765 bound_to 10752
  140.5474  134.0316  155.7925 H   0  0  0  0  0  0  0  0  0  0  0  0  # atno 11005 bound_to 11000
  145.0137  139.3487  143.6107 LP  0  0  0  0  0  0  0  0  0  0  0  0  # atno 17320 bound_to 7965
  146.3453  139.9409  142.8741 LP  0  0  0  0  0  0  0  0  0  0  0  0  # atno 17321 bound_to 7965
  139.8994  143.6854  152.3133 LP  0  0  0  0  0  0  0  0  0  0  0  0  # atno 17342 bound_to 10162
  139.7198  144.7605  151.0973 LP  0  0  0  0  0  0  0  0  0  0  0  0  # atno 17343 bound_to 10162
  157.5984  130.8494  149.8764 LP  0  0  0  0  0  0  0  0  0  0  0  0  # atno 17370 bound_to 10713
  156.0549  130.3710  150.1115 LP  0  0  0  0  0  0  0  0  0  0  0  0  # atno 17371 bound_to 10713
  141.1191  133.9490  157.2764 LP  0  0  0  0  0  0  0  0  0  0  0  0  # atno 17394 bound_to 11000
  139.9472  135.0182  156.8888 LP  0  0  0  0  0  0  0  0  0  0  0  0  # atno 17395 bound_to 11000

$$$$
