AV-unprocessed.smi:247|AV-procd|sdf|1890|dock8
  -GOLD-   2262020553D 1   1.00000     0.00000
 Structure written by MMmdl.
 61 65  0  0  0  0  0  0  0  0  1 V2000
  145.9559  136.8475  150.7937 O   0  0  0  0  0  0  0  0  0  0  0  0
  145.4701  136.3923  152.0416 C   0  0  0  0  0  0  0  0  0  0  0  0
  145.1164  134.8789  152.0536 C   0  0  0  0  0  0  0  0  0  0  0  0
  144.3984  134.5489  153.4003 C   0  0  0  0  0  0  0  0  0  0  0  0
  145.1581  134.8674  154.6013 N   0  0  0  0  0  0  0  0  0  0  0  0
  146.3190  134.2603  155.0274 C   0  0  0  0  0  0  0  0  0  0  0  0
  146.8236  134.7328  156.1342 N   0  0  0  0  0  0  0  0  0  0  0  0
  145.9539  135.7555  156.4885 C   0  0  0  0  0  0  0  0  0  0  0  0
  145.9137  136.6849  157.5611 C   0  0  0  0  0  0  0  0  0  0  0  0
  146.8562  136.6806  158.5344 N   0  0  0  0  0  0  0  0  0  0  0  0
  148.1572  136.9856  157.9640 C   0  0  0  0  0  0  0  0  0  0  0  0
  149.1599  136.6832  159.0659 C   0  0  0  0  0  0  0  0  0  0  0  0
  148.4726  135.6121  159.9131 C   0  0  0  0  0  0  0  0  0  0  0  0
  147.0202  135.5006  159.3942 C   0  0  1  0  0  0  0  0  0  0  0  0
  145.9660  135.3791  160.5523 C   0  0  1  0  0  0  0  0  0  0  0  0
  146.1806  134.1764  161.5045 C   0  0  0  0  0  0  0  0  0  0  0  0
  147.3863  134.3334  162.2475 O   0  0  0  0  0  0  0  0  0  0  0  0
  147.3588  135.4481  163.1326 C   0  0  0  0  0  0  0  0  0  0  0  0
  147.1268  136.7515  162.3513 C   0  0  0  0  0  0  0  0  0  0  0  0
  145.8709  136.6239  161.4770 C   0  0  1  0  0  0  0  0  0  0  0  0
  145.6228  137.8358  160.7955 O   0  0  0  0  0  0  0  0  0  0  0  0
  144.8789  137.5657  157.5953 N   0  0  0  0  0  0  0  0  0  0  0  0
  143.9599  137.5573  156.6251 C   0  0  0  0  0  0  0  0  0  0  0  0
  143.8796  136.7593  155.5578 N   0  0  0  0  0  0  0  0  0  0  0  0
  144.9053  135.8602  155.5333 C   0  0  0  0  0  0  0  0  0  0  0  0
  144.2347  134.5359  150.8249 C   0  0  0  0  0  0  0  0  0  0  0  0
  144.0412  133.0193  150.6482 C   0  0  0  0  0  0  0  0  0  0  0  0
  145.3071  132.3806  150.5352 O   0  0  0  0  0  0  0  0  0  0  0  0
  146.1158  132.5336  151.6957 C   0  0  0  0  0  0  0  0  0  0  0  0
  146.4071  134.0255  151.9488 C   0  0  0  0  0  0  0  0  0  0  0  0
  145.3324  137.4604  150.4348 H   0  0  0  0  0  0  0  0  0  0  0  0
  146.2258  136.6112  152.7967 H   0  0  0  0  0  0  0  0  0  0  0  0
  144.5960  136.9963  152.2849 H   0  0  0  0  0  0  0  0  0  0  0  0
  143.4446  135.0678  153.4801 H   0  0  0  0  0  0  0  0  0  0  0  0
  144.1500  133.4871  153.4348 H   0  0  0  0  0  0  0  0  0  0  0  0
  146.7826  133.4460  154.4897 H   0  0  0  0  0  0  0  0  0  0  0  0
  148.3478  136.3486  157.0982 H   0  0  0  0  0  0  0  0  0  0  0  0
  148.2202  138.0255  157.6410 H   0  0  0  0  0  0  0  0  0  0  0  0
  150.1238  136.3597  158.6719 H   0  0  0  0  0  0  0  0  0  0  0  0
  149.3271  137.5771  159.6681 H   0  0  0  0  0  0  0  0  0  0  0  0
  148.9850  134.6531  159.8292 H   0  0  0  0  0  0  0  0  0  0  0  0
  148.5121  135.9145  160.9600 H   0  0  0  0  0  0  0  0  0  0  0  0
  146.9668  134.6120  158.7658 H   0  0  0  0  0  0  0  0  0  0  0  0
  144.9923  135.2337  160.0824 H   0  0  0  0  0  0  0  0  0  0  0  0
  145.3430  134.0879  162.1982 H   0  0  0  0  0  0  0  0  0  0  0  0
  146.1979  133.2311  160.9663 H   0  0  0  0  0  0  0  0  0  0  0  0
  146.5773  135.3032  163.8801 H   0  0  0  0  0  0  0  0  0  0  0  0
  148.3057  135.4958  163.6705 H   0  0  0  0  0  0  0  0  0  0  0  0
  147.0218  137.5838  163.0481 H   0  0  0  0  0  0  0  0  0  0  0  0
  147.9987  136.9738  161.7359 H   0  0  0  0  0  0  0  0  0  0  0  0
  145.0161  136.4858  162.1408 H   0  0  0  0  0  0  0  0  0  0  0  0
  145.7061  137.6807  159.8670 H   0  0  0  0  0  0  0  0  0  0  0  0
  143.1779  138.2965  156.7165 H   0  0  0  0  0  0  0  0  0  0  0  0
  143.2695  135.0383  150.8785 H   0  0  0  0  0  0  0  0  0  0  0  0
  144.7059  134.9116  149.9161 H   0  0  0  0  0  0  0  0  0  0  0  0
  143.4719  132.5864  151.4709 H   0  0  0  0  0  0  0  0  0  0  0  0
  143.4722  132.8234  149.7393 H   0  0  0  0  0  0  0  0  0  0  0  0
  145.6360  132.0624  152.5535 H   0  0  0  0  0  0  0  0  0  0  0  0
  147.0518  131.9982  151.5363 H   0  0  0  0  0  0  0  0  0  0  0  0
  147.0257  134.3775  151.1229 H   0  0  0  0  0  0  0  0  0  0  0  0
  147.0146  134.1403  152.8471 H   0  0  0  0  0  0  0  0  0  0  0  0
  1  2  1  0  0  0  0
  1 31  1  0  0  0  0
  2  3  1  0  0  0  0
  2 32  1  0  0  0  0
  2 33  1  0  0  0  0
  3 30  1  0  0  0  0
  3  4  1  0  0  0  0
  3 26  1  0  0  0  0
  4  5  1  0  0  0  0
  4 34  1  0  0  0  0
  4 35  1  0  0  0  0
  5 25  1  0  0  0  0
  5  6  1  0  0  0  0
  6  7  2  0  0  0  0
  6 36  1  0  0  0  0
  7  8  1  0  0  0  0
  8 25  2  0  0  0  0
  8  9  1  0  0  0  0
  9 10  1  0  0  0  0
  9 22  2  0  0  0  0
 10 14  1  0  0  0  0
 10 11  1  0  0  0  0
 11 12  1  0  0  0  0
 11 37  1  0  0  0  0
 11 38  1  0  0  0  0
 12 13  1  0  0  0  0
 12 39  1  0  0  0  0
 12 40  1  0  0  0  0
 13 14  1  0  0  0  0
 13 41  1  0  0  0  0
 13 42  1  0  0  0  0
 14 15  1  0  0  0  0
 14 43  1  0  0  0  0
 15 20  1  0  0  0  0
 15 16  1  0  0  0  0
 15 44  1  0  0  0  0
 16 17  1  0  0  0  0
 16 45  1  0  0  0  0
 16 46  1  0  0  0  0
 17 18  1  0  0  0  0
 18 19  1  0  0  0  0
 18 47  1  0  0  0  0
 18 48  1  0  0  0  0
 19 20  1  0  0  0  0
 19 49  1  0  0  0  0
 19 50  1  0  0  0  0
 20 21  1  0  0  0  0
 20 51  1  0  0  0  0
 21 52  1  0  0  0  0
 22 23  1  0  0  0  0
 23 24  2  0  0  0  0
 23 53  1  0  0  0  0
 24 25  1  0  0  0  0
 26 27  1  0  0  0  0
 26 54  1  0  0  0  0
 26 55  1  0  0  0  0
 27 28  1  0  0  0  0
 27 56  1  0  0  0  0
 27 57  1  0  0  0  0
 28 29  1  0  0  0  0
 29 30  1  0  0  0  0
 29 58  1  0  0  0  0
 29 59  1  0  0  0  0
 30 60  1  0  0  0  0
 30 61  1  0  0  0  0
M  END
> <s_m_source_file>
AV-unprocessed.smi

> <i_m_source_file_index>
247

> <i_lp_mmshare_version>
43012

> <i_f3d_flags>
0

> <s_epik_input>
W0NIMl0xW0NIMl1PW0NIMl1bQ0gyXUMxKFtDSDJdW09IXSlbQ0gyXW4oW2NIXW4yKWMoYzIzKW5bY0hdbmMzTjRbQ0gyXVtDSDJdW0NIMl1bQ0BIXTRbQ0BASF01W0NIMl1PW0NIMl1bQ0gyXVtDQEhdNVtPSF0=

> <s_epik_cmdline>
J2VwaWtfcHl0aG9uJywgJy1waCcsICc3LjAnLCAnLXRuJywgJzgnLCAnLW1hJywgJzIwMCcsICctbWV0YWxfYmluZGluZycsICctaW1hZScsICc8aW5maWxlLm1hZT4nLCAnLW9tYWUnLCAnPG91dGZpbGUubWFlPic=

> <r_lp_tautomer_probability>
1

> <r_epik_Ionization_Penalty>
0.00362597

> <r_epik_Ionization_Penalty_Charging>
0

> <r_epik_Ionization_Penalty_Neutral>
0.00362597

> <r_epik_State_Penalty>
0.00241433

> <r_epik_Charging_Adjusted_Penalty>
0.00241433

> <i_epik_Tot_Q>
0

> <i_epik_Tot_abs_Q>
0

> <r_epik_Metal_State_Penalty>
-0

> <b_epik_Metal_Only>
0

> <s_lp_Force_Field>
OPLS_2005

> <r_lp_Energy>
64.2344

> <b_lp_Chiralities_Consistent>
1

> <s_lp_Variant>
AV-unprocessed.smi:247-3

> <Gold.Version>
5.8.1

> <Gold.Id.Protein>
6NUR|6NUR_protein|mol2

> <Gold.PLP.Fitness>
40.1062

> <Gold.PLP.PLP>
-34.4885

> <Gold.PLP.part.hbond>
-2.3985

> <Gold.PLP.part.metal>
0.0000

> <Gold.PLP.part.buried>
-7.4125

> <Gold.PLP.part.nonpolar>
-25.7168

> <Gold.PLP.part.repulsive>
0.1338

> <Gold.PLP.ligand.clash>
0.0000

> <Gold.PLP.ligand.torsion>
0.1699

> <Gold.PLP.Chemscore.Hbond>
1.9600

> <Gold.PLP.Chemscore.CHOScore>
0.0000

> <Gold.PLP.Chemscore.Metal>
0.0000

> <Gold.Chemscore.Hbonds>
donor molecule, donor type, donor heavy atom, donor atom, acceptor molecule, acceptor atom, score
      L1  H     1    31       P1 10171  1.00
      P1  H  6934  6947       L1    21  0.77

> <Gold.PLP.Chemscore.Internal.Correction>
0.0774

> <Gold.Rescore>
     Score         DG    S(hbond)    S(metal)    S(lipo)     H(rot)  DE(clash)    DE(int)     intcor
     10.94     -13.67       1.89        0.00      86.67       3.23       0.02       2.70       ----

> <Gold.Chemscore.Fitness>
10.9449

> <Gold.Chemscore.DG>
-13.6668

> <Gold.Chemscore.ZeroCoef>
-5.4800

> <Gold.Chemscore.Hbond>
1.8893

> <Gold.Chemscore.Metal>
0.0000

> <Gold.Chemscore.Lipo>
86.6657

> <Gold.Chemscore.Internal_Hbond>
0.0000

> <Gold.Chemscore.DEClash>
0.0234

> <Gold.Chemscore.DEInternal>
2.6984

> <Gold.Chemscore.Rot>
3.2278

> <Gold.Chemscore.Internal.Correction>
   9.000000E+99

> <Gold.Chemscore.Hbonds>
donor molecule, donor type, donor heavy atom, donor atom, acceptor molecule, acceptor atom, score
      L1  H     1    31       P1 10171  0.99
      P1  H  6934  6947       L1    21  0.09

> <Gold.Chemscore.Hbond.Weighted>
-6.3102

> <Gold.Chemscore.Metal.Weighted>
-0.0000

> <Gold.Chemscore.Lipo.Weighted>
-10.1399

> <Gold.Chemscore.Internal_Hbond.Weighted>
0.0000

> <Gold.Chemscore.DEClash.Weighted>
0.0234

> <Gold.Chemscore.DEInternal.Weighted>
2.6984

> <Gold.Chemscore.Rot.Weighted>
8.2633

> <Gold.Chemscore.Internal.Correction.Weighted>
   9.000000E+99

> <Gold.Protein.RotatedTorsions>
[ 6907 6896 6895 6894 ] final -136.70 input  -60.11 | X-H torsion
[ 7974 7965 7964 7962 ] final -144.95 input  175.53 | X-H torsion
[ 8008 7997 7996 7995 ] final  -82.82 input   59.86 | X-H torsion
[ 10167 10162 10161 10158 ] final -173.29 input  -65.29 | X-H torsion
[ 10718 10713 10712 10709 ] final  146.18 input   66.30 | X-H torsion
[ 10763 10752 10751 10750 ] final  -32.70 input  -60.55 | X-H torsion
[ 11005 11000 10999 10996 ] final   55.60 input  -57.11 | X-H torsion

> <Gold.Protein.ActiveResidues>
 VAL166  LYS551  ARG553  GLY616  TRP617  ASP618  TYR619  PRO620  LYS621  CYS622 
 ASP623  PHE694  ASN695  SER759  ASP760  ASP761  ALA762  ILE779  LEU786  VAL792 
 PHE793  MET794  SER795  GLU796  ALA797  LYS798  CYS799  TRP800  GLU811  SER814 

> <Gold.Protein.RotatedAtoms>
  151.0133  133.5945  159.2679 H   0  0  0  0  0  0  0  0  0  0  0  0  # atno 6907 bound_to 6896
  151.3089  135.0788  159.9275 H   0  0  0  0  0  0  0  0  0  0  0  0  # atno 6908 bound_to 6896
  152.5305  133.9801  159.7857 H   0  0  0  0  0  0  0  0  0  0  0  0  # atno 6909 bound_to 6896
  144.8261  140.5645  143.5546 H   0  0  0  0  0  0  0  0  0  0  0  0  # atno 7974 bound_to 7965
  154.6125  140.0628  156.9512 H   0  0  0  0  0  0  0  0  0  0  0  0  # atno 8008 bound_to 7997
  155.1949  140.3310  155.4334 H   0  0  0  0  0  0  0  0  0  0  0  0  # atno 8009 bound_to 7997
  156.2385  140.1874  156.7036 H   0  0  0  0  0  0  0  0  0  0  0  0  # atno 8010 bound_to 7997
  139.5696  144.1672  152.1365 H   0  0  0  0  0  0  0  0  0  0  0  0  # atno 10167 bound_to 10162
  157.3363  131.0928  151.1120 H   0  0  0  0  0  0  0  0  0  0  0  0  # atno 10718 bound_to 10713
  153.8181  135.6876  153.4831 H   0  0  0  0  0  0  0  0  0  0  0  0  # atno 10763 bound_to 10752
  153.1586  135.4589  154.9738 H   0  0  0  0  0  0  0  0  0  0  0  0  # atno 10764 bound_to 10752
  154.7939  135.3312  154.7656 H   0  0  0  0  0  0  0  0  0  0  0  0  # atno 10765 bound_to 10752
  140.0595  134.5623  155.9169 H   0  0  0  0  0  0  0  0  0  0  0  0  # atno 11005 bound_to 11000
  145.4997  139.1484  143.3664 LP  0  0  0  0  0  0  0  0  0  0  0  0  # atno 17320 bound_to 7965
  146.2566  140.5137  142.8871 LP  0  0  0  0  0  0  0  0  0  0  0  0  # atno 17321 bound_to 7965
  140.1202  144.5380  150.6868 LP  0  0  0  0  0  0  0  0  0  0  0  0  # atno 17342 bound_to 10162
  140.6981  143.2416  151.4944 LP  0  0  0  0  0  0  0  0  0  0  0  0  # atno 17343 bound_to 10162
  157.2349  130.6542  149.5865 LP  0  0  0  0  0  0  0  0  0  0  0  0  # atno 17370 bound_to 10713
  155.9702  130.4587  150.6008 LP  0  0  0  0  0  0  0  0  0  0  0  0  # atno 17371 bound_to 10713
  141.1967  133.6592  156.5703 LP  0  0  0  0  0  0  0  0  0  0  0  0  # atno 17394 bound_to 11000
  140.3793  134.7538  157.4650 LP  0  0  0  0  0  0  0  0  0  0  0  0  # atno 17395 bound_to 11000

$$$$
