AV-unprocessed.smi:870|AV-procd|sdf|4007|dock4
  -GOLD-   22720 1493D 1   1.00000     0.00000
 Structure written by MMmdl.
 46 48  0  0  0  0  0  0  0  0  1 V2000
  147.8414  142.9466  155.2778 C   0  0  0  0  0  0  0  0  0  0  0  0
  148.5923  141.8828  154.7209 O   0  0  0  0  0  0  0  0  0  0  0  0
  148.7734  140.8116  155.6347 C   0  0  0  0  0  0  0  0  0  0  0  0
  149.7539  141.2437  156.6880 C   0  0  0  0  0  0  0  0  0  0  0  0
  150.0578  142.5232  156.9203 N   0  0  0  0  0  0  0  0  0  0  0  0
  150.9714  142.4398  157.9520 C   0  0  0  0  0  0  0  0  0  0  0  0
  151.6678  143.4544  158.6471 C   0  0  0  0  0  0  0  0  0  0  0  0
  152.5638  143.1226  159.6845 C   0  0  0  0  0  0  0  0  0  0  0  0
  152.7753  141.7749  160.0414 C   0  0  0  0  0  0  0  0  0  0  0  0
  152.0911  140.7490  159.3614 C   0  0  0  0  0  0  0  0  0  0  0  0
  151.1985  141.0858  158.3262 C   0  0  0  0  0  0  0  0  0  0  0  0
  150.3878  140.3394  157.4773 N   0  0  0  0  0  0  0  0  0  0  0  0
  150.2658  138.8871  157.4728 C   0  0  0  0  0  0  0  0  0  0  0  0
  149.8120  138.3254  158.8352 C   0  0  2  0  0  0  0  0  0  0  0  0
  150.5380  137.1443  159.1154 O   0  0  0  0  0  0  0  0  0  0  0  0
  148.3113  137.9937  158.8464 C   0  0  0  0  0  0  0  0  0  0  0  0
  147.9216  137.6753  160.1756 O   0  0  0  0  0  0  0  0  0  0  0  0
  147.3926  136.4257  160.4266 C   0  0  0  0  0  0  0  0  0  0  0  0
  147.1286  135.4648  159.4169 C   0  0  0  0  0  0  0  0  0  0  0  0
  146.5855  134.2088  159.7482 C   0  0  0  0  0  0  0  0  0  0  0  0
  146.2992  133.8950  161.0886 C   0  0  0  0  0  0  0  0  0  0  0  0
  146.5567  134.8395  162.0986 C   0  0  0  0  0  0  0  0  0  0  0  0
  147.1012  136.0995  161.7722 C   0  0  0  0  0  0  0  0  0  0  0  0
  147.3716  137.1068  162.8742 C   0  0  0  0  0  0  0  0  0  0  0  0
  147.7335  143.7434  154.5421 H   0  0  0  0  0  0  0  0  0  0  0  0
  148.3382  143.3629  156.1549 H   0  0  0  0  0  0  0  0  0  0  0  0
  146.8427  142.6154  155.5650 H   0  0  0  0  0  0  0  0  0  0  0  0
  147.8264  140.5497  156.1089 H   0  0  0  0  0  0  0  0  0  0  0  0
  149.1570  139.9331  155.1149 H   0  0  0  0  0  0  0  0  0  0  0  0
  151.5120  144.4894  158.3810 H   0  0  0  0  0  0  0  0  0  0  0  0
  153.0911  143.9059  160.2089 H   0  0  0  0  0  0  0  0  0  0  0  0
  153.4634  141.5292  160.8369 H   0  0  0  0  0  0  0  0  0  0  0  0
  152.2514  139.7158  159.6315 H   0  0  0  0  0  0  0  0  0  0  0  0
  149.5415  138.6186  156.7026 H   0  0  0  0  0  0  0  0  0  0  0  0
  151.2096  138.4363  157.1661 H   0  0  0  0  0  0  0  0  0  0  0  0
  150.0268  139.0611  159.6116 H   0  0  0  0  0  0  0  0  0  0  0  0
  151.2128  137.3483  159.7447 H   0  0  0  0  0  0  0  0  0  0  0  0
  147.7469  138.8708  158.5254 H   0  0  0  0  0  0  0  0  0  0  0  0
  148.0885  137.1806  158.1530 H   0  0  0  0  0  0  0  0  0  0  0  0
  147.3330  135.6662  158.3765 H   0  0  0  0  0  0  0  0  0  0  0  0
  146.3881  133.4849  158.9713 H   0  0  0  0  0  0  0  0  0  0  0  0
  145.8822  132.9316  161.3421 H   0  0  0  0  0  0  0  0  0  0  0  0
  146.3334  134.5917  163.1261 H   0  0  0  0  0  0  0  0  0  0  0  0
  147.1363  136.6972  163.8570 H   0  0  0  0  0  0  0  0  0  0  0  0
  146.7658  138.0011  162.7255 H   0  0  0  0  0  0  0  0  0  0  0  0
  148.4222  137.3983  162.8724 H   0  0  0  0  0  0  0  0  0  0  0  0
  1  2  1  0  0  0  0
  1 25  1  0  0  0  0
  1 26  1  0  0  0  0
  1 27  1  0  0  0  0
  2  3  1  0  0  0  0
  3  4  1  0  0  0  0
  3 28  1  0  0  0  0
  3 29  1  0  0  0  0
  4 12  1  0  0  0  0
  4  5  2  0  0  0  0
  5  6  1  0  0  0  0
  6 11  2  0  0  0  0
  6  7  1  0  0  0  0
  7  8  2  0  0  0  0
  7 30  1  0  0  0  0
  8  9  1  0  0  0  0
  8 31  1  0  0  0  0
  9 10  2  0  0  0  0
  9 32  1  0  0  0  0
 10 11  1  0  0  0  0
 10 33  1  0  0  0  0
 11 12  1  0  0  0  0
 12 13  1  0  0  0  0
 13 14  1  0  0  0  0
 13 34  1  0  0  0  0
 13 35  1  0  0  0  0
 14 15  1  0  0  0  0
 14 16  1  0  0  0  0
 14 36  1  0  0  0  0
 15 37  1  0  0  0  0
 16 17  1  0  0  0  0
 16 38  1  0  0  0  0
 16 39  1  0  0  0  0
 17 18  1  0  0  0  0
 18 23  1  0  0  0  0
 18 19  2  0  0  0  0
 19 20  1  0  0  0  0
 19 40  1  0  0  0  0
 20 21  2  0  0  0  0
 20 41  1  0  0  0  0
 21 22  1  0  0  0  0
 21 42  1  0  0  0  0
 22 23  2  0  0  0  0
 22 43  1  0  0  0  0
 23 24  1  0  0  0  0
 24 44  1  0  0  0  0
 24 45  1  0  0  0  0
 24 46  1  0  0  0  0
M  END
> <s_m_source_file>
AV-unprocessed.smi

> <i_m_source_file_index>
870

> <i_lp_mmshare_version>
43012

> <i_f3d_flags>
0

> <s_epik_input>
W2NIXTFbY0hdW2NIXVtjSF1jKGMxMiluKGMobjIpW0NIMl1PW0NIM10pW0NIMl1bQ0BIXShbT0hdKVtDSDJdT2MzW2NIXVtjSF1bY0hdW2NIXWMzW0NIM10=

> <s_epik_cmdline>
J2VwaWtfcHl0aG9uJywgJy1waCcsICc3LjAnLCAnLXRuJywgJzgnLCAnLW1hJywgJzIwMCcsICctbWV0YWxfYmluZGluZycsICctaW1hZScsICc8aW5maWxlLm1hZT4nLCAnLW9tYWUnLCAnPG91dGZpbGUubWFlPic=

> <r_lp_tautomer_probability>
1

> <r_epik_Ionization_Penalty>
0.0447032

> <r_epik_Ionization_Penalty_Charging>
0

> <r_epik_Ionization_Penalty_Neutral>
0.0447032

> <r_epik_State_Penalty>
0.0379025

> <r_epik_Charging_Adjusted_Penalty>
0.0379025

> <i_epik_Tot_Q>
0

> <i_epik_Tot_abs_Q>
0

> <r_epik_Metal_State_Penalty>
3.91398e-05

> <b_epik_Metal_Only>
0

> <s_lp_Force_Field>
OPLS_2005

> <r_lp_Energy>
17.6925

> <b_lp_Chiralities_Consistent>
1

> <s_lp_Variant>
AV-unprocessed.smi:870-1

> <Gold.Version>
5.8.1

> <Gold.Id.Protein>
6NUR|6NUR_protein|mol2

> <Gold.PLP.Fitness>
55.6668

> <Gold.PLP.PLP>
-50.4401

> <Gold.PLP.part.hbond>
-3.9426

> <Gold.PLP.part.metal>
0.0000

> <Gold.PLP.part.buried>
-4.2009

> <Gold.PLP.part.nonpolar>
-43.7743

> <Gold.PLP.part.repulsive>
0.1950

> <Gold.PLP.ligand.clash>
0.0000

> <Gold.PLP.ligand.torsion>
1.2839

> <Gold.PLP.Chemscore.Hbond>
2.5447

> <Gold.PLP.Chemscore.CHOScore>
0.0000

> <Gold.PLP.Chemscore.Metal>
0.0000

> <Gold.Chemscore.Hbonds>
donor molecule, donor type, donor heavy atom, donor atom, acceptor molecule, acceptor atom, score
      P1  H  6931  6943       L1    17  0.35
      P1  H  6934  6947       L1    17  0.64

> <Gold.PLP.Chemscore.Internal.Correction>
0.1606

> <Gold.Rescore>
     Score         DG    S(hbond)    S(metal)    S(lipo)     H(rot)  DE(clash)    DE(int)     intcor
     20.88     -22.96       2.53        0.00     128.64       2.36       0.82       1.26       ----

> <Gold.Chemscore.Fitness>
20.8789

> <Gold.Chemscore.DG>
-22.9595

> <Gold.Chemscore.ZeroCoef>
-5.4800

> <Gold.Chemscore.Hbond>
2.5347

> <Gold.Chemscore.Metal>
0.0000

> <Gold.Chemscore.Lipo>
128.6435

> <Gold.Chemscore.Internal_Hbond>
0.0000

> <Gold.Chemscore.DEClash>
0.8216

> <Gold.Chemscore.DEInternal>
1.2589

> <Gold.Chemscore.Rot>
2.3585

> <Gold.Chemscore.Internal.Correction>
   9.000000E+99

> <Gold.Chemscore.Hbonds>
donor molecule, donor type, donor heavy atom, donor atom, acceptor molecule, acceptor atom, score
      P1  H  6931  6943       L1    17  0.23
      P1  H  6934  6947       L1    17  0.46

> <Gold.Chemscore.Hbond.Weighted>
-8.4660

> <Gold.Chemscore.Metal.Weighted>
-0.0000

> <Gold.Chemscore.Lipo.Weighted>
-15.0513

> <Gold.Chemscore.Internal_Hbond.Weighted>
0.0000

> <Gold.Chemscore.DEClash.Weighted>
0.8216

> <Gold.Chemscore.DEInternal.Weighted>
1.2589

> <Gold.Chemscore.Rot.Weighted>
6.0378

> <Gold.Chemscore.Internal.Correction.Weighted>
   9.000000E+99

> <Gold.Protein.RotatedTorsions>
[ 6907 6896 6895 6894 ] final  126.37 input  -60.11 | X-H torsion
[ 7974 7965 7964 7962 ] final   89.84 input  175.53 | X-H torsion
[ 8008 7997 7996 7995 ] final  163.29 input   59.86 | X-H torsion
[ 10167 10162 10161 10158 ] final   81.76 input  -65.29 | X-H torsion
[ 10718 10713 10712 10709 ] final  -51.03 input   66.30 | X-H torsion
[ 10763 10752 10751 10750 ] final  152.80 input  -60.55 | X-H torsion
[ 11005 11000 10999 10996 ] final   76.72 input  -57.11 | X-H torsion

> <Gold.Protein.ActiveResidues>
 VAL166  LYS551  ARG553  GLY616  TRP617  ASP618  TYR619  PRO620  LYS621  CYS622 
 ASP623  PHE694  ASN695  SER759  ASP760  ASP761  ALA762  ILE779  LEU786  VAL792 
 PHE793  MET794  SER795  GLU796  ALA797  LYS798  CYS799  TRP800  GLU811  SER814 

> <Gold.Protein.RotatedAtoms>
  152.3909  133.6678  159.6236 H   0  0  0  0  0  0  0  0  0  0  0  0  # atno 6907 bound_to 6896
  150.7818  133.8955  159.3334 H   0  0  0  0  0  0  0  0  0  0  0  0  # atno 6908 bound_to 6896
  151.6742  135.0973  160.0255 H   0  0  0  0  0  0  0  0  0  0  0  0  # atno 6909 bound_to 6896
  145.5270  139.2281  143.2640 H   0  0  0  0  0  0  0  0  0  0  0  0  # atno 7974 bound_to 7965
  156.1968  140.1727  156.7982 H   0  0  0  0  0  0  0  0  0  0  0  0  # atno 8008 bound_to 7997
  154.5539  140.0712  156.8744 H   0  0  0  0  0  0  0  0  0  0  0  0  # atno 8009 bound_to 7997
  155.2975  140.3359  155.4251 H   0  0  0  0  0  0  0  0  0  0  0  0  # atno 8010 bound_to 7997
  139.9358  144.6122  150.8300 H   0  0  0  0  0  0  0  0  0  0  0  0  # atno 10167 bound_to 10162
  156.1747  130.4149  149.9595 H   0  0  0  0  0  0  0  0  0  0  0  0  # atno 10718 bound_to 10713
  154.1259  135.2830  155.3197 H   0  0  0  0  0  0  0  0  0  0  0  0  # atno 10763 bound_to 10752
  154.6390  135.5409  153.7770 H   0  0  0  0  0  0  0  0  0  0  0  0  # atno 10764 bound_to 10752
  153.0297  135.6481  154.1411 H   0  0  0  0  0  0  0  0  0  0  0  0  # atno 10765 bound_to 10752
  139.9286  134.7624  156.1431 H   0  0  0  0  0  0  0  0  0  0  0  0  # atno 11005 bound_to 11000
  146.2069  140.6085  142.9077 LP  0  0  0  0  0  0  0  0  0  0  0  0  # atno 17320 bound_to 7965
  144.7646  140.5500  143.6712 LP  0  0  0  0  0  0  0  0  0  0  0  0  # atno 17321 bound_to 7965
  140.7625  143.3199  151.2646 LP  0  0  0  0  0  0  0  0  0  0  0  0  # atno 17342 bound_to 10162
  139.6744  143.9963  152.2772 LP  0  0  0  0  0  0  0  0  0  0  0  0  # atno 17343 bound_to 10162
  156.7384  130.9070  151.3630 LP  0  0  0  0  0  0  0  0  0  0  0  0  # atno 17370 bound_to 10713
  157.6827  130.9156  150.0308 LP  0  0  0  0  0  0  0  0  0  0  0  0  # atno 17371 bound_to 10713
  141.0860  133.6734  156.2436 LP  0  0  0  0  0  0  0  0  0  0  0  0  # atno 17394 bound_to 11000
  140.6266  134.5307  157.5554 LP  0  0  0  0  0  0  0  0  0  0  0  0  # atno 17395 bound_to 11000

$$$$
