AV-unprocessed.smi:212|AV-procd|sdf|1622|dock6
  -GOLD-   2262019563D 1   1.00000     0.00000
 Structure written by MMmdl.
 65 68  0  0  0  0  0  0  0  0  2 V2000
  142.1246  134.9875  153.1128 C   0  0  0  0  0  0  0  0  0  0  0  0
  143.5565  135.1250  153.6572 C   0  0  1  0  0  0  0  0  0  0  0  0
  144.5380  134.1515  152.9693 C   0  0  0  0  0  0  0  0  0  0  0  0
  144.8457  134.5708  151.5767 N   0  3  2  0  0  0  0  0  0  0  0  0
  145.6961  133.5940  150.8460 C   0  0  0  0  0  0  0  0  0  0  0  0
  144.8850  132.7059  149.8731 C   0  0  0  0  0  0  0  0  0  0  0  0
  145.8270  131.7490  149.1235 C   0  0  0  0  0  0  0  0  0  0  0  0
  143.7790  131.9109  150.5919 C   0  0  0  0  0  0  0  0  0  0  0  0
  144.2788  133.5223  148.8910 O   0  0  0  0  0  0  0  0  0  0  0  0
  145.3619  135.9624  151.5126 C   0  0  0  0  0  0  0  0  0  0  0  0
  144.3902  136.9438  152.1925 C   0  0  0  0  0  0  0  0  0  0  0  0
  144.0465  136.5007  153.5445 N   0  0  0  0  0  0  0  0  0  0  0  0
  144.7857  136.9564  154.5898 C   0  0  0  0  0  0  0  0  0  0  0  0
  144.3796  136.7157  155.8650 N   0  0  0  0  0  0  0  0  0  0  0  0
  145.0940  137.1683  156.8992 C   0  0  0  0  0  0  0  0  0  0  0  0
  146.2303  137.8666  156.8852 N   0  0  0  0  0  0  0  0  0  0  0  0
  146.6507  138.1028  155.6099 C   0  0  0  0  0  0  0  0  0  0  0  0
  145.9929  137.6914  154.4163 C   0  0  0  0  0  0  0  0  0  0  0  0
  146.7197  138.1104  153.3077 N   0  0  0  0  0  0  0  0  0  0  0  0
  147.7468  138.7350  153.8165 C   0  0  0  0  0  0  0  0  0  0  0  0
  147.7904  138.7673  155.1919 N   0  0  0  0  0  0  0  0  0  0  0  0
  148.8210  139.3804  156.0126 C   0  0  0  0  0  0  0  0  0  0  0  0
  149.8747  140.1656  155.1923 C   0  0  1  0  0  0  0  0  0  0  0  0
  149.2011  141.3156  154.4061 C   0  0  0  0  0  0  0  0  0  0  0  0
  148.3698  142.0788  155.2557 O   0  0  0  0  0  0  0  0  0  0  0  0
  151.0877  140.6266  156.0505 C   0  0  2  0  0  0  0  0  0  0  0  0
  151.7468  139.5454  156.9041 C   0  0  0  0  0  0  0  0  0  0  0  0
  152.2262  140.3226  158.1220 C   0  0  0  0  0  0  0  0  0  0  0  0
  151.1737  141.2488  158.3281 O   0  0  0  0  0  0  0  0  0  0  0  0
  150.7903  141.7543  157.0555 C   0  0  0  0  0  0  0  0  0  0  0  0
  141.7484  133.9749  153.2588 H   0  0  0  0  0  0  0  0  0  0  0  0
  142.0670  135.2076  152.0468 H   0  0  0  0  0  0  0  0  0  0  0  0
  141.4457  135.6660  153.6306 H   0  0  0  0  0  0  0  0  0  0  0  0
  143.5149  134.8357  154.7072 H   0  0  0  0  0  0  0  0  0  0  0  0
  145.4694  134.1075  153.5363 H   0  0  0  0  0  0  0  0  0  0  0  0
  144.1203  133.1438  152.9725 H   0  0  0  0  0  0  0  0  0  0  0  0
  146.4982  134.1126  150.3180 H   0  0  0  0  0  0  0  0  0  0  0  0
  146.1991  132.9405  151.5606 H   0  0  0  0  0  0  0  0  0  0  0  0
  146.3335  131.0731  149.8134 H   0  0  0  0  0  0  0  0  0  0  0  0
  146.5962  132.2940  148.5745 H   0  0  0  0  0  0  0  0  0  0  0  0
  145.2839  131.1350  148.4040 H   0  0  0  0  0  0  0  0  0  0  0  0
  144.1970  131.2750  151.3732 H   0  0  0  0  0  0  0  0  0  0  0  0
  143.2402  131.2654  149.8972 H   0  0  0  0  0  0  0  0  0  0  0  0
  143.0435  132.5670  151.0590 H   0  0  0  0  0  0  0  0  0  0  0  0
  144.9586  133.9540  148.3951 H   0  0  0  0  0  0  0  0  0  0  0  0
  146.3398  136.0055  151.9942 H   0  0  0  0  0  0  0  0  0  0  0  0
  145.5111  136.2621  150.4756 H   0  0  0  0  0  0  0  0  0  0  0  0
  144.8085  137.9512  152.2048 H   0  0  0  0  0  0  0  0  0  0  0  0
  143.4720  137.0133  151.6093 H   0  0  0  0  0  0  0  0  0  0  0  0
  144.6997  136.9375  157.8779 H   0  0  0  0  0  0  0  0  0  0  0  0
  148.5118  139.1840  153.1994 H   0  0  0  0  0  0  0  0  0  0  0  0
  148.3261  140.0392  156.7270 H   0  0  0  0  0  0  0  0  0  0  0  0
  149.3081  138.6024  156.6013 H   0  0  0  0  0  0  0  0  0  0  0  0
  150.2839  139.4741  154.4538 H   0  0  0  0  0  0  0  0  0  0  0  0
  149.9434  141.9781  153.9608 H   0  0  0  0  0  0  0  0  0  0  0  0
  148.5832  140.9396  153.5919 H   0  0  0  0  0  0  0  0  0  0  0  0
  148.8508  142.8409  155.5410 H   0  0  0  0  0  0  0  0  0  0  0  0
  151.8533  141.0257  155.3844 H   0  0  0  0  0  0  0  0  0  0  0  0
  151.0294  138.7907  157.2233 H   0  0  0  0  0  0  0  0  0  0  0  0
  152.5603  139.0349  156.3892 H   0  0  0  0  0  0  0  0  0  0  0  0
  152.3839  139.6877  158.9939 H   0  0  0  0  0  0  0  0  0  0  0  0
  153.1534  140.8572  157.9080 H   0  0  0  0  0  0  0  0  0  0  0  0
  151.3948  142.6334  156.8267 H   0  0  0  0  0  0  0  0  0  0  0  0
  149.7484  142.0732  157.0662 H   0  0  0  0  0  0  0  0  0  0  0  0
  143.9591  134.5759  151.0927 H   0  0  0  0  0  0  0  0  0  0  0  0
  1  2  1  0  0  0  0
  1 31  1  0  0  0  0
  1 32  1  0  0  0  0
  1 33  1  0  0  0  0
  2 12  1  0  0  0  0
  2  3  1  0  0  0  0
  2 34  1  0  0  0  0
  3  4  1  0  0  0  0
  3 35  1  0  0  0  0
  3 36  1  0  0  0  0
  4  5  1  0  0  0  0
  4 10  1  0  0  0  0
  4 65  1  0  0  0  0
  5  6  1  0  0  0  0
  5 37  1  0  0  0  0
  5 38  1  0  0  0  0
  6  7  1  0  0  0  0
  6  8  1  0  0  0  0
  6  9  1  0  0  0  0
  7 39  1  0  0  0  0
  7 40  1  0  0  0  0
  7 41  1  0  0  0  0
  8 42  1  0  0  0  0
  8 43  1  0  0  0  0
  8 44  1  0  0  0  0
  9 45  1  0  0  0  0
 10 11  1  0  0  0  0
 10 46  1  0  0  0  0
 10 47  1  0  0  0  0
 11 12  1  0  0  0  0
 11 48  1  0  0  0  0
 11 49  1  0  0  0  0
 12 13  1  0  0  0  0
 13 18  1  0  0  0  0
 13 14  2  0  0  0  0
 14 15  1  0  0  0  0
 15 16  2  0  0  0  0
 15 50  1  0  0  0  0
 16 17  1  0  0  0  0
 17 21  1  0  0  0  0
 17 18  2  0  0  0  0
 18 19  1  0  0  0  0
 19 20  2  0  0  0  0
 20 21  1  0  0  0  0
 20 51  1  0  0  0  0
 21 22  1  0  0  0  0
 22 23  1  0  0  0  0
 22 52  1  0  0  0  0
 22 53  1  0  0  0  0
 23 24  1  0  0  0  0
 23 26  1  0  0  0  0
 23 54  1  0  0  0  0
 24 25  1  0  0  0  0
 24 55  1  0  0  0  0
 24 56  1  0  0  0  0
 25 57  1  0  0  0  0
 26 30  1  0  0  0  0
 26 27  1  0  0  0  0
 26 58  1  0  0  0  0
 27 28  1  0  0  0  0
 27 59  1  0  0  0  0
 27 60  1  0  0  0  0
 28 29  1  0  0  0  0
 28 61  1  0  0  0  0
 28 62  1  0  0  0  0
 29 30  1  0  0  0  0
 30 63  1  0  0  0  0
 30 64  1  0  0  0  0
M  CHG  1   4   1
M  END
> <s_m_source_file>
AV-unprocessed.smi

> <i_m_source_file_index>
212

> <i_lp_mmshare_version>
43012

> <i_f3d_flags>
0

> <s_epik_input>
W0NIM11bQ0BASF0xW0NIMl1OKFtDSDJdQyhbQ0gzXSkoW0NIM10pW09IXSlbQ0gyXVtDSDJdTjFjKG5bY0hdbjIpYyhjMjMpbltjSF1uM1tDSDJdW0NASF0oW0NIMl1bT0hdKVtDQEBIXTRbQ0gyXVtDSDJdT1tDSDJdNA==

> <s_epik_cmdline>
J2VwaWtfcHl0aG9uJywgJy1waCcsICc3LjAnLCAnLXRuJywgJzgnLCAnLW1hJywgJzIwMCcsICctbWV0YWxfYmluZGluZycsICctaW1hZScsICc8aW5maWxlLm1hZT4nLCAnLW9tYWUnLCAnPG91dGZpbGUubWFlPic=

> <r_lp_tautomer_probability>
1

> <r_epik_Ionization_Penalty>
0.00182193

> <r_epik_Ionization_Penalty_Charging>
0.00173996

> <r_epik_Ionization_Penalty_Neutral>
8.19718e-05

> <r_epik_State_Penalty>
-0

> <r_epik_Charging_Adjusted_Penalty>
0.00173996

> <i_epik_Tot_Q>
1

> <i_epik_Tot_abs_Q>
1

> <r_epik_Metal_State_Penalty>
-0

> <b_epik_Metal_Only>
0

> <s_lp_Force_Field>
OPLS_2005

> <r_lp_Energy>
60.7413

> <b_lp_Chiralities_Consistent>
1

> <s_lp_Variant>
AV-unprocessed.smi:212-6

> <Gold.Version>
5.8.1

> <Gold.Id.Protein>
6NUR|6NUR_protein|mol2

> <Gold.PLP.Fitness>
49.2353

> <Gold.PLP.PLP>
-41.7018

> <Gold.PLP.part.hbond>
-2.0000

> <Gold.PLP.part.metal>
0.0000

> <Gold.PLP.part.buried>
-5.8321

> <Gold.PLP.part.nonpolar>
-34.4762

> <Gold.PLP.part.repulsive>
0.2309

> <Gold.PLP.ligand.clash>
0.0000

> <Gold.PLP.ligand.torsion>
1.2542

> <Gold.PLP.Chemscore.Hbond>
2.0000

> <Gold.PLP.Chemscore.CHOScore>
1.0000

> <Gold.PLP.Chemscore.Metal>
0.0000

> <Gold.Chemscore.Hbonds>
donor molecule, donor type, donor heavy atom, donor atom, acceptor molecule, acceptor atom, score
      L1  H     9    45       P1  7921  1.00
      L1  H    25    57       P1  8028  0.91
      L1  C    20    51       P1  7957  1.00

> <Gold.PLP.Chemscore.Internal.Correction>
1.0418

> <Gold.Rescore>
     Score         DG    S(hbond)    S(metal)    S(lipo)     H(rot)  DE(clash)    DE(int)     intcor
     12.24     -15.17       1.89        0.00     103.32       3.40       0.13       2.80       ----

> <Gold.Chemscore.Fitness>
12.2398

> <Gold.Chemscore.DG>
-15.1688

> <Gold.Chemscore.ZeroCoef>
-5.4800

> <Gold.Chemscore.Hbond>
1.8864

> <Gold.Chemscore.Metal>
0.0000

> <Gold.Chemscore.Lipo>
103.3214

> <Gold.Chemscore.Internal_Hbond>
0.0000

> <Gold.Chemscore.DEClash>
0.1306

> <Gold.Chemscore.DEInternal>
2.7984

> <Gold.Chemscore.Rot>
3.3986

> <Gold.Chemscore.Internal.Correction>
   9.000000E+99

> <Gold.Chemscore.Hbonds>
donor molecule, donor type, donor heavy atom, donor atom, acceptor molecule, acceptor atom, score
      L1  H     9    45       P1  7921  0.98
      L1  H    25    57       P1  8028  0.90

> <Gold.Chemscore.Hbond.Weighted>
-6.3006

> <Gold.Chemscore.Metal.Weighted>
-0.0000

> <Gold.Chemscore.Lipo.Weighted>
-12.0886

> <Gold.Chemscore.Internal_Hbond.Weighted>
0.0000

> <Gold.Chemscore.DEClash.Weighted>
0.1306

> <Gold.Chemscore.DEInternal.Weighted>
2.7984

> <Gold.Chemscore.Rot.Weighted>
8.7005

> <Gold.Chemscore.Internal.Correction.Weighted>
   9.000000E+99

> <Gold.Protein.RotatedTorsions>
[ 6907 6896 6895 6894 ] final   57.61 input  -60.11 | X-H torsion
[ 7974 7965 7964 7962 ] final  -99.30 input  175.53 | X-H torsion
[ 8008 7997 7996 7995 ] final  170.00 input   59.86 | X-H torsion
[ 10167 10162 10161 10158 ] final  153.33 input  -65.29 | X-H torsion
[ 10718 10713 10712 10709 ] final   40.43 input   66.30 | X-H torsion
[ 10763 10752 10751 10750 ] final   18.75 input  -60.55 | X-H torsion
[ 11005 11000 10999 10996 ] final   98.93 input  -57.11 | X-H torsion

> <Gold.Protein.ActiveResidues>
 VAL166  LYS551  ARG553  GLY616  TRP617  ASP618  TYR619  PRO620  LYS621  CYS622 
 ASP623  PHE694  ASN695  SER759  ASP760  ASP761  ALA762  ILE779  LEU786  VAL792 
 PHE793  MET794  SER795  GLU796  ALA797  LYS798  CYS799  TRP800  GLU811  SER814 

> <Gold.Protein.RotatedAtoms>
  152.3747  134.6681  160.0163 H   0  0  0  0  0  0  0  0  0  0  0  0  # atno 6907 bound_to 6896
  151.6963  133.3305  159.3263 H   0  0  0  0  0  0  0  0  0  0  0  0  # atno 6908 bound_to 6896
  150.7700  134.6590  159.6374 H   0  0  0  0  0  0  0  0  0  0  0  0  # atno 6909 bound_to 6896
  145.3093  140.9396  143.2778 H   0  0  0  0  0  0  0  0  0  0  0  0  # atno 7974 bound_to 7965
  156.1405  140.1549  156.8927 H   0  0  0  0  0  0  0  0  0  0  0  0  # atno 8008 bound_to 7997
  154.4984  140.0832  156.7783 H   0  0  0  0  0  0  0  0  0  0  0  0  # atno 8009 bound_to 7997
  155.4087  140.3418  155.4264 H   0  0  0  0  0  0  0  0  0  0  0  0  # atno 8010 bound_to 7997
  139.4828  144.5282  151.7766 H   0  0  0  0  0  0  0  0  0  0  0  0  # atno 10167 bound_to 10162
  157.3821  130.7759  149.7201 H   0  0  0  0  0  0  0  0  0  0  0  0  # atno 10718 bound_to 10713
  153.1222  135.6721  153.9316 H   0  0  0  0  0  0  0  0  0  0  0  0  # atno 10763 bound_to 10752
  153.8828  135.3056  155.3447 H   0  0  0  0  0  0  0  0  0  0  0  0  # atno 10764 bound_to 10752
  154.7632  135.4977  153.9584 H   0  0  0  0  0  0  0  0  0  0  0  0  # atno 10765 bound_to 10752
  139.8771  134.9072  156.4529 H   0  0  0  0  0  0  0  0  0  0  0  0  # atno 11005 bound_to 11000
  144.9028  139.4627  143.6624 LP  0  0  0  0  0  0  0  0  0  0  0  0  # atno 17320 bound_to 7965
  146.3123  139.7792  142.9010 LP  0  0  0  0  0  0  0  0  0  0  0  0  # atno 17321 bound_to 7965
  140.4805  144.1456  150.5932 LP  0  0  0  0  0  0  0  0  0  0  0  0  # atno 17342 bound_to 10162
  140.4283  143.2580  151.9628 LP  0  0  0  0  0  0  0  0  0  0  0  0  # atno 17343 bound_to 10162
  155.9778  130.4059  150.3689 LP  0  0  0  0  0  0  0  0  0  0  0  0  # atno 17370 bound_to 10713
  157.1794  131.0388  151.2756 LP  0  0  0  0  0  0  0  0  0  0  0  0  # atno 17371 bound_to 10713
  140.8919  133.7842  155.9581 LP  0  0  0  0  0  0  0  0  0  0  0  0  # atno 17394 bound_to 11000
  140.8744  134.2687  157.5175 LP  0  0  0  0  0  0  0  0  0  0  0  0  # atno 17395 bound_to 11000

$$$$
