AV-unprocessed.smi:3246|AV-procd|sdf|12410|dock10
  -GOLD-   2272018293D 1   1.00000     0.00000
 Structure written by MMmdl.
 35 36  0  0  0  0  0  0  0  0  1 V2000
  155.3623  139.3481  159.0130 O   0  0  0  0  0  0  0  0  0  0  0  0
  155.8417  140.0791  159.8790 C   0  0  0  0  0  0  0  0  0  0  0  0
  157.2917  139.8420  160.3328 C   0  0  0  0  0  0  0  0  0  0  0  0
  158.2686  140.8036  159.8148 N   0  0  0  0  0  0  0  0  0  0  0  0
  158.2519  141.1955  158.4149 C   0  0  0  0  0  0  0  0  0  0  0  0
  159.2458  142.3616  158.3162 C   0  0  0  0  0  0  0  0  0  0  0  0
  160.0507  142.3342  159.6200 C   0  0  0  0  0  0  0  0  0  0  0  0
  159.2496  141.3965  160.5070 C   0  0  0  0  0  0  0  0  0  0  0  0
  159.4932  141.2355  161.7016 O   0  0  0  0  0  0  0  0  0  0  0  0
  155.1502  141.0832  160.4447 N   0  0  0  0  0  0  0  0  0  0  0  0
  153.7732  141.4395  160.1271 C   0  0  0  0  0  0  0  0  0  0  0  0
  153.7046  142.6885  159.2343 C   0  0  0  0  0  0  0  0  0  0  0  0
  152.3274  143.3215  159.2467 C   0  0  0  0  0  0  0  0  0  0  0  0
  152.1587  144.6870  159.5557 C   0  0  0  0  0  0  0  0  0  0  0  0
  150.8574  145.2254  159.5590 C   0  0  0  0  0  0  0  0  0  0  0  0
  149.7779  144.3729  159.2526 C   0  0  0  0  0  0  0  0  0  0  0  0
  149.9278  143.0638  158.9558 N   0  0  0  0  0  0  0  0  0  0  0  0
  151.1790  142.5553  158.9547 C   0  0  0  0  0  0  0  0  0  0  0  0
  157.3201  139.8461  161.4236 H   0  0  0  0  0  0  0  0  0  0  0  0
  157.5852  138.8371  160.0267 H   0  0  0  0  0  0  0  0  0  0  0  0
  158.5751  140.3532  157.8017 H   0  0  0  0  0  0  0  0  0  0  0  0
  157.2510  141.4882  158.0952 H   0  0  0  0  0  0  0  0  0  0  0  0
  159.8863  142.2728  157.4381 H   0  0  0  0  0  0  0  0  0  0  0  0
  158.7070  143.3065  158.2344 H   0  0  0  0  0  0  0  0  0  0  0  0
  161.0481  141.9219  159.4649 H   0  0  0  0  0  0  0  0  0  0  0  0
  160.1452  143.3239  160.0674 H   0  0  0  0  0  0  0  0  0  0  0  0
  155.6125  141.6359  161.1521 H   0  0  0  0  0  0  0  0  0  0  0  0
  153.2697  140.5971  159.6497 H   0  0  0  0  0  0  0  0  0  0  0  0
  153.2484  141.6238  161.0650 H   0  0  0  0  0  0  0  0  0  0  0  0
  154.4402  143.4244  159.5622 H   0  0  0  0  0  0  0  0  0  0  0  0
  153.9623  142.4339  158.2053 H   0  0  0  0  0  0  0  0  0  0  0  0
  153.0088  145.3115  159.7878 H   0  0  0  0  0  0  0  0  0  0  0  0
  150.6901  146.2668  159.7911 H   0  0  0  0  0  0  0  0  0  0  0  0
  148.7670  144.7528  159.2456 H   0  0  0  0  0  0  0  0  0  0  0  0
  151.2656  141.5052  158.7165 H   0  0  0  0  0  0  0  0  0  0  0  0
  1  2  2  0  0  0  0
  2  3  1  0  0  0  0
  2 10  1  0  0  0  0
  3  4  1  0  0  0  0
  3 19  1  0  0  0  0
  3 20  1  0  0  0  0
  4  8  1  0  0  0  0
  4  5  1  0  0  0  0
  5  6  1  0  0  0  0
  5 21  1  0  0  0  0
  5 22  1  0  0  0  0
  6  7  1  0  0  0  0
  6 23  1  0  0  0  0
  6 24  1  0  0  0  0
  7  8  1  0  0  0  0
  7 25  1  0  0  0  0
  7 26  1  0  0  0  0
  8  9  2  0  0  0  0
 10 11  1  0  0  0  0
 10 27  1  0  0  0  0
 11 12  1  0  0  0  0
 11 28  1  0  0  0  0
 11 29  1  0  0  0  0
 12 13  1  0  0  0  0
 12 30  1  0  0  0  0
 12 31  1  0  0  0  0
 13 18  1  0  0  0  0
 13 14  2  0  0  0  0
 14 15  1  0  0  0  0
 14 32  1  0  0  0  0
 15 16  2  0  0  0  0
 15 33  1  0  0  0  0
 16 17  1  0  0  0  0
 16 34  1  0  0  0  0
 17 18  2  0  0  0  0
 18 35  1  0  0  0  0
M  END
> <s_m_source_file>
AV-unprocessed.smi

> <i_m_source_file_index>
3246

> <i_lp_mmshare_version>
43012

> <i_f3d_flags>
0

> <s_epik_input>
Tz1DMVtDSDJdW0NIMl1bQ0gyXU4xW0NIMl1DKD1PKVtOSF1bQ0gyXVtDSDJdYzJbY0hdW2NIXVtjSF1uW2NIXTI=

> <s_epik_cmdline>
J2VwaWtfcHl0aG9uJywgJy1waCcsICc3LjAnLCAnLXRuJywgJzgnLCAnLW1hJywgJzIwMCcsICctbWV0YWxfYmluZGluZycsICctaW1hZScsICc8aW5maWxlLm1hZT4nLCAnLW9tYWUnLCAnPG91dGZpbGUubWFlPic=

> <r_epik_Ionization_Penalty>
0.0129263

> <r_epik_Ionization_Penalty_Charging>
0

> <r_epik_Ionization_Penalty_Neutral>
0.0129263

> <r_epik_State_Penalty>
0.0100328

> <r_epik_Charging_Adjusted_Penalty>
0.0100328

> <i_epik_Tot_Q>
0

> <i_epik_Tot_abs_Q>
0

> <r_epik_Metal_State_Penalty>
0.00981748

> <b_epik_Metal_Only>
0

> <s_lp_Force_Field>
OPLS_2005

> <r_lp_Energy>
11.4517

> <b_lp_Chiralities_Consistent>
1

> <s_lp_Variant>
AV-unprocessed.smi:3246-1

> <Gold.Version>
5.8.1

> <Gold.Id.Protein>
6NUR|6NUR_protein|mol2

> <Gold.PLP.Fitness>
44.4188

> <Gold.PLP.PLP>
-40.3339

> <Gold.PLP.part.hbond>
-2.7527

> <Gold.PLP.part.metal>
0.0000

> <Gold.PLP.part.buried>
-2.9690

> <Gold.PLP.part.nonpolar>
-34.4643

> <Gold.PLP.part.repulsive>
0.1748

> <Gold.PLP.ligand.clash>
0.0000

> <Gold.PLP.ligand.torsion>
0.6236

> <Gold.PLP.Chemscore.Hbond>
1.0000

> <Gold.PLP.Chemscore.CHOScore>
0.7690

> <Gold.PLP.Chemscore.Metal>
0.0000

> <Gold.Chemscore.Hbonds>
donor molecule, donor type, donor heavy atom, donor atom, acceptor molecule, acceptor atom, score
      P1  H  7997  8010       L1     1  1.00
      L1  C    16    34       P1  8029  0.81

> <Gold.PLP.Chemscore.Internal.Correction>
0.0250

> <Gold.Rescore>
     Score         DG    S(hbond)    S(metal)    S(lipo)     H(rot)  DE(clash)    DE(int)     intcor
     16.00     -16.97       0.91        0.00     112.79       1.85       0.40       0.56       ----

> <Gold.Chemscore.Fitness>
16.0014

> <Gold.Chemscore.DG>
-16.9662

> <Gold.Chemscore.ZeroCoef>
-5.4800

> <Gold.Chemscore.Hbond>
0.9054

> <Gold.Chemscore.Metal>
0.0000

> <Gold.Chemscore.Lipo>
112.7917

> <Gold.Chemscore.Internal_Hbond>
0.0000

> <Gold.Chemscore.DEClash>
0.4019

> <Gold.Chemscore.DEInternal>
0.5629

> <Gold.Chemscore.Rot>
1.8494

> <Gold.Chemscore.Internal.Correction>
   9.000000E+99

> <Gold.Chemscore.Hbonds>
donor molecule, donor type, donor heavy atom, donor atom, acceptor molecule, acceptor atom, score
      P1  H  7997  8010       L1     1  0.85

> <Gold.Chemscore.Hbond.Weighted>
-3.0239

> <Gold.Chemscore.Metal.Weighted>
-0.0000

> <Gold.Chemscore.Lipo.Weighted>
-13.1966

> <Gold.Chemscore.Internal_Hbond.Weighted>
0.0000

> <Gold.Chemscore.DEClash.Weighted>
0.4019

> <Gold.Chemscore.DEInternal.Weighted>
0.5629

> <Gold.Chemscore.Rot.Weighted>
4.7344

> <Gold.Chemscore.Internal.Correction.Weighted>
   9.000000E+99

> <Gold.Protein.RotatedTorsions>
[ 6907 6896 6895 6894 ] final  109.46 input  -60.11 | X-H torsion
[ 7974 7965 7964 7962 ] final  -23.23 input  175.53 | X-H torsion
[ 8008 7997 7996 7995 ] final  -23.82 input   59.86 | X-H torsion
[ 10167 10162 10161 10158 ] final   77.53 input  -65.29 | X-H torsion
[ 10718 10713 10712 10709 ] final -155.07 input   66.30 | X-H torsion
[ 10763 10752 10751 10750 ] final   64.21 input  -60.55 | X-H torsion
[ 11005 11000 10999 10996 ] final  -21.32 input  -57.11 | X-H torsion

> <Gold.Protein.ActiveResidues>
 VAL166  LYS551  ARG553  GLY616  TRP617  ASP618  TYR619  PRO620  LYS621  CYS622 
 ASP623  PHE694  ASN695  SER759  ASP760  ASP761  ALA762  ILE779  LEU786  VAL792 
 PHE793  MET794  SER795  GLU796  ALA797  LYS798  CYS799  TRP800  GLU811  SER814 

> <Gold.Protein.RotatedAtoms>
  152.5066  133.8941  159.7408 H   0  0  0  0  0  0  0  0  0  0  0  0  # atno 6907 bound_to 6896
  150.9372  133.6689  159.2805 H   0  0  0  0  0  0  0  0  0  0  0  0  # atno 6908 bound_to 6896
  151.4013  135.0976  159.9609 H   0  0  0  0  0  0  0  0  0  0  0  0  # atno 6909 bound_to 6896
  146.1628  140.4588  142.8564 H   0  0  0  0  0  0  0  0  0  0  0  0  # atno 7974 bound_to 7965
  154.4564  140.1970  156.0369 H   0  0  0  0  0  0  0  0  0  0  0  0  # atno 8008 bound_to 7997
  156.0753  140.3279  155.7598 H   0  0  0  0  0  0  0  0  0  0  0  0  # atno 8009 bound_to 7997
  155.5198  140.0569  157.2899 H   0  0  0  0  0  0  0  0  0  0  0  0  # atno 8010 bound_to 7997
  139.9806  144.5829  150.7904 H   0  0  0  0  0  0  0  0  0  0  0  0  # atno 10167 bound_to 10162
  156.5079  130.8421  151.2635 H   0  0  0  0  0  0  0  0  0  0  0  0  # atno 10718 bound_to 10713
  153.0047  135.5401  154.6474 H   0  0  0  0  0  0  0  0  0  0  0  0  # atno 10763 bound_to 10752
  154.5715  135.2842  155.0825 H   0  0  0  0  0  0  0  0  0  0  0  0  # atno 10764 bound_to 10752
  154.1989  135.6487  153.5134 H   0  0  0  0  0  0  0  0  0  0  0  0  # atno 10765 bound_to 10752
  140.8550  133.7829  156.0009 H   0  0  0  0  0  0  0  0  0  0  0  0  # atno 11005 bound_to 11000
  144.8051  140.6284  143.6452 LP  0  0  0  0  0  0  0  0  0  0  0  0  # atno 17320 bound_to 7965
  145.4544  139.1520  143.3901 LP  0  0  0  0  0  0  0  0  0  0  0  0  # atno 17321 bound_to 7965
  140.7490  143.2932  151.3274 LP  0  0  0  0  0  0  0  0  0  0  0  0  # atno 17342 bound_to 10162
  139.6413  144.0534  152.2556 LP  0  0  0  0  0  0  0  0  0  0  0  0  # atno 17343 bound_to 10162
  157.7454  130.9959  150.2762 LP  0  0  0  0  0  0  0  0  0  0  0  0  # atno 17370 bound_to 10713
  156.3269  130.3794  149.7526 LP  0  0  0  0  0  0  0  0  0  0  0  0  # atno 17371 bound_to 10713
  140.8748  134.2683  157.5173 LP  0  0  0  0  0  0  0  0  0  0  0  0  # atno 17394 bound_to 11000
  139.8705  134.9585  156.4303 LP  0  0  0  0  0  0  0  0  0  0  0  0  # atno 17395 bound_to 11000

$$$$
