AV-unprocessed.smi:158|AV-procd|sdf|1331|dock5
  -GOLD-   2262019 23D 1   1.00000     0.00000
 Structure written by MMmdl.
 31 33  0  0  0  0  0  0  0  0  1 V2000
  155.9847  141.2219  160.0259 N   0  0  0  0  0  0  0  0  0  0  0  0
  154.6791  141.5047  159.9165 C   0  0  0  0  0  0  0  0  0  0  0  0
  154.1832  142.5437  160.6277 N   0  0  0  0  0  0  0  0  0  0  0  0
  152.8855  142.8597  160.5444 C   0  0  0  0  0  0  0  0  0  0  0  0
  152.3568  144.2013  161.4894 Cl  0  0  0  0  0  0  0  0  0  0  0  0
  151.9496  142.2512  159.8094 N   0  0  0  0  0  0  0  0  0  0  0  0
  152.4418  141.2017  159.0903 C   0  0  0  0  0  0  0  0  0  0  0  0
  153.7952  140.7678  159.0906 C   0  0  0  0  0  0  0  0  0  0  0  0
  153.9442  139.6773  158.2459 N   0  0  0  0  0  0  0  0  0  0  0  0
  152.7424  139.4812  157.7742 C   0  0  0  0  0  0  0  0  0  0  0  0
  151.7748  140.3502  158.2297 N   0  0  0  0  0  0  0  0  0  0  0  0
  150.3223  140.3473  157.8611 C   0  0  2  0  0  0  0  0  0  0  0  0
  150.0821  139.3081  156.9555 O   0  0  0  0  0  0  0  0  0  0  0  0
  149.4654  139.8176  155.7730 C   0  0  2  0  0  0  0  0  0  0  0  0
  149.8393  138.9447  154.5638 C   0  0  0  0  0  0  0  0  0  0  0  0
  151.2343  138.9708  154.3468 O   0  0  0  0  0  0  0  0  0  0  0  0
  149.9582  141.2653  155.7066 C   0  0  1  0  0  0  0  0  0  0  0  0
  149.1402  142.1115  154.9241 O   0  0  0  0  0  0  0  0  0  0  0  0
  149.9417  141.6621  157.1721 C   0  0  1  0  0  0  0  0  0  0  0  0
  148.7087  141.9834  157.5721 F   0  0  0  0  0  0  0  0  0  0  0  0
  149.8029  140.1799  158.8057 H   0  0  0  0  0  0  0  0  0  0  0  0
  148.3864  139.7938  155.9376 H   0  0  0  0  0  0  0  0  0  0  0  0
  150.9779  141.3057  155.3243 H   0  0  0  0  0  0  0  0  0  0  0  0
  150.6126  142.4833  157.4284 H   0  0  0  0  0  0  0  0  0  0  0  0
  156.3772  140.4515  159.5038 H   0  0  0  0  0  0  0  0  0  0  0  0
  156.5733  141.7802  160.6270 H   0  0  0  0  0  0  0  0  0  0  0  0
  152.5259  138.6861  157.0755 H   0  0  0  0  0  0  0  0  0  0  0  0
  149.5116  137.9143  154.6991 H   0  0  0  0  0  0  0  0  0  0  0  0
  149.3496  139.3228  153.6662 H   0  0  0  0  0  0  0  0  0  0  0  0
  151.6592  138.5447  155.0756 H   0  0  0  0  0  0  0  0  0  0  0  0
  149.0385  142.9325  155.3819 H   0  0  0  0  0  0  0  0  0  0  0  0
  1  2  1  0  0  0  0
  1 25  1  0  0  0  0
  1 26  1  0  0  0  0
  2  8  1  0  0  0  0
  2  3  2  0  0  0  0
  3  4  1  0  0  0  0
  4  5  1  0  0  0  0
  4  6  2  0  0  0  0
  6  7  1  0  0  0  0
  7 11  1  0  0  0  0
  7  8  2  0  0  0  0
  8  9  1  0  0  0  0
  9 10  2  0  0  0  0
 10 11  1  0  0  0  0
 10 27  1  0  0  0  0
 11 12  1  0  0  0  0
 12 21  1  0  0  0  0
 12 19  1  0  0  0  0
 12 13  1  0  0  0  0
 13 14  1  0  0  0  0
 14 22  1  0  0  0  0
 14 15  1  0  0  0  0
 14 17  1  0  0  0  0
 15 16  1  0  0  0  0
 15 28  1  0  0  0  0
 15 29  1  0  0  0  0
 16 30  1  0  0  0  0
 17 23  1  0  0  0  0
 17 18  1  0  0  0  0
 17 19  1  0  0  0  0
 18 31  1  0  0  0  0
 19 24  1  0  0  0  0
 19 20  1  0  0  0  0
M  END
> <s_m_source_file>
AV-unprocessed.smi

> <i_m_source_file_index>
158

> <i_lp_mmshare_version>
43012

> <i_f3d_flags>
0

> <s_epik_input>
Q2xjKG4xKW5jKFtOSDJdKWMoYzEyKW5bY0hdbjJbQ0BASF0zT1tDQEhdKFtDSDJdW09IXSlbQ0BASF0oW09IXSlbQ0BASF0zRg==

> <s_epik_cmdline>
J2VwaWtfcHl0aG9uJywgJy1waCcsICc3LjAnLCAnLXRuJywgJzgnLCAnLW1hJywgJzIwMCcsICctbWV0YWxfYmluZGluZycsICctaW1hZScsICc8aW5maWxlLm1hZT4nLCAnLW9tYWUnLCAnPG91dGZpbGUubWFlPic=

> <r_lp_tautomer_probability>
1

> <r_epik_Ionization_Penalty>
6.51543e-05

> <r_epik_Ionization_Penalty_Charging>
0

> <r_epik_Ionization_Penalty_Neutral>
6.51543e-05

> <r_epik_State_Penalty>
-0

> <r_epik_Charging_Adjusted_Penalty>
0

> <i_epik_Tot_Q>
0

> <i_epik_Tot_abs_Q>
0

> <r_epik_Metal_State_Penalty>
-0

> <b_epik_Metal_Only>
0

> <s_epik_Chemistry_Notes>
This compound contains an acetal/aminal-like group ( X-CH(R)-Y where X, Y are N, S, or O) that may be acid/base labile, releasing an aldehyde.

> <s_lp_Force_Field>
OPLS_2005

> <r_lp_Energy>
33.8646

> <b_lp_Chiralities_Consistent>
1

> <s_lp_Variant>
AV-unprocessed.smi:158-9

> <Gold.Version>
5.8.1

> <Gold.Id.Protein>
6NUR|6NUR_protein|mol2

> <Gold.PLP.Fitness>
43.0561

> <Gold.PLP.PLP>
-34.0729

> <Gold.PLP.part.hbond>
-5.6965

> <Gold.PLP.part.metal>
0.0000

> <Gold.PLP.part.buried>
-1.9235

> <Gold.PLP.part.nonpolar>
-25.6270

> <Gold.PLP.part.repulsive>
0.0552

> <Gold.PLP.ligand.clash>
0.0000

> <Gold.PLP.ligand.torsion>
0.0117

> <Gold.PLP.Chemscore.Hbond>
3.0000

> <Gold.PLP.Chemscore.CHOScore>
0.0000

> <Gold.PLP.Chemscore.Metal>
0.0000

> <Gold.Chemscore.Hbonds>
donor molecule, donor type, donor heavy atom, donor atom, acceptor molecule, acceptor atom, score
      L1  H    18    31       P1  8028  1.00
      P1  H  7989  7998       L1    16  0.81
      P1  H  7997  8010       L1     9  0.70

> <Gold.PLP.Chemscore.Internal.Correction>
0.0065

> <Gold.Rescore>
     Score         DG    S(hbond)    S(metal)    S(lipo)     H(rot)  DE(clash)    DE(int)     intcor
     10.09     -10.72       2.45        0.00      43.11       3.12       0.45       0.18       ----

> <Gold.Chemscore.Fitness>
10.0920

> <Gold.Chemscore.DG>
-10.7168

> <Gold.Chemscore.ZeroCoef>
-5.4800

> <Gold.Chemscore.Hbond>
2.4514

> <Gold.Chemscore.Metal>
0.0000

> <Gold.Chemscore.Lipo>
43.1128

> <Gold.Chemscore.Internal_Hbond>
0.0000

> <Gold.Chemscore.DEClash>
0.4496

> <Gold.Chemscore.DEInternal>
0.1752

> <Gold.Chemscore.Rot>
3.1230

> <Gold.Chemscore.Internal.Correction>
   9.000000E+99

> <Gold.Chemscore.Hbonds>
donor molecule, donor type, donor heavy atom, donor atom, acceptor molecule, acceptor atom, score
      L1  H    18    31       P1  8028  0.99
      P1  H  7989  7998       L1    16  0.44
      P1  H  7997  8010       L1     9  0.17

> <Gold.Chemscore.Hbond.Weighted>
-8.1876

> <Gold.Chemscore.Metal.Weighted>
-0.0000

> <Gold.Chemscore.Lipo.Weighted>
-5.0442

> <Gold.Chemscore.Internal_Hbond.Weighted>
0.0000

> <Gold.Chemscore.DEClash.Weighted>
0.4496

> <Gold.Chemscore.DEInternal.Weighted>
0.1752

> <Gold.Chemscore.Rot.Weighted>
7.9950

> <Gold.Chemscore.Internal.Correction.Weighted>
   9.000000E+99

> <Gold.Protein.RotatedTorsions>
[ 6907 6896 6895 6894 ] final  136.06 input  -60.11 | X-H torsion
[ 7974 7965 7964 7962 ] final  -17.24 input  175.53 | X-H torsion
[ 8008 7997 7996 7995 ] final   32.71 input   59.86 | X-H torsion
[ 10167 10162 10161 10158 ] final  -90.45 input  -65.29 | X-H torsion
[ 10718 10713 10712 10709 ] final  -15.37 input   66.30 | X-H torsion
[ 10763 10752 10751 10750 ] final  177.22 input  -60.55 | X-H torsion
[ 11005 11000 10999 10996 ] final   80.10 input  -57.11 | X-H torsion

> <Gold.Protein.ActiveResidues>
 VAL166  LYS551  ARG553  GLY616  TRP617  ASP618  TYR619  PRO620  LYS621  CYS622 
 ASP623  PHE694  ASN695  SER759  ASP760  ASP761  ALA762  ILE779  LEU786  VAL792 
 PHE793  MET794  SER795  GLU796  ALA797  LYS798  CYS799  TRP800  GLU811  SER814 

> <Gold.Protein.RotatedAtoms>
  152.2936  133.5585  159.5572 H   0  0  0  0  0  0  0  0  0  0  0  0  # atno 6907 bound_to 6896
  150.7246  134.0394  159.3769 H   0  0  0  0  0  0  0  0  0  0  0  0  # atno 6908 bound_to 6896
  151.8298  135.0625  160.0486 H   0  0  0  0  0  0  0  0  0  0  0  0  # atno 6909 bound_to 6896
  146.1950  140.3751  142.8444 H   0  0  0  0  0  0  0  0  0  0  0  0  # atno 7974 bound_to 7965
  155.1269  140.3253  155.4483 H   0  0  0  0  0  0  0  0  0  0  0  0  # atno 8008 bound_to 7997
  156.2646  140.2017  156.6338 H   0  0  0  0  0  0  0  0  0  0  0  0  # atno 8009 bound_to 7997
  154.6642  140.0544  157.0082 H   0  0  0  0  0  0  0  0  0  0  0  0  # atno 8010 bound_to 7997
  140.3547  143.2872  151.9684 H   0  0  0  0  0  0  0  0  0  0  0  0  # atno 10167 bound_to 10162
  156.6028  130.4828  149.6233 H   0  0  0  0  0  0  0  0  0  0  0  0  # atno 10718 bound_to 10713
  154.4915  135.2779  155.1492 H   0  0  0  0  0  0  0  0  0  0  0  0  # atno 10763 bound_to 10752
  154.3162  135.6219  153.5491 H   0  0  0  0  0  0  0  0  0  0  0  0  # atno 10764 bound_to 10752
  152.9889  135.5731  154.5338 H   0  0  0  0  0  0  0  0  0  0  0  0  # atno 10765 bound_to 10752
  139.9147  134.7894  156.1865 H   0  0  0  0  0  0  0  0  0  0  0  0  # atno 11005 bound_to 11000
  144.8562  140.7074  143.6136 LP  0  0  0  0  0  0  0  0  0  0  0  0  # atno 17320 bound_to 7965
  145.3672  139.1667  143.4351 LP  0  0  0  0  0  0  0  0  0  0  0  0  # atno 17321 bound_to 7965
  139.4821  144.6045  151.7546 LP  0  0  0  0  0  0  0  0  0  0  0  0  # atno 17342 bound_to 10162
  140.5185  144.0916  150.6015 LP  0  0  0  0  0  0  0  0  0  0  0  0  # atno 17343 bound_to 10162
  156.2455  130.6876  151.1596 LP  0  0  0  0  0  0  0  0  0  0  0  0  # atno 17370 bound_to 10713
  157.7275  131.0638  150.5862 LP  0  0  0  0  0  0  0  0  0  0  0  0  # atno 17371 bound_to 10713
  141.0610  133.6842  156.1952 LP  0  0  0  0  0  0  0  0  0  0  0  0  # atno 17394 bound_to 11000
  140.6661  134.4917  157.5585 LP  0  0  0  0  0  0  0  0  0  0  0  0  # atno 17395 bound_to 11000

$$$$
