AV-unprocessed.smi:1762|AV-procd|sdf|7121|dock5
  -GOLD-   22720 8353D 1   1.00000     0.00000
 Structure written by MMmdl.
 52 53  0  0  0  0  0  0  0  0  3 V2000
  145.5681  135.7130  155.1928 C   0  0  0  0  0  0  0  0  0  0  0  0
  146.4338  136.4628  154.1752 C   0  0  2  0  0  0  0  0  0  0  0  0
  147.6373  137.1528  154.8390 C   0  0  0  0  0  0  0  0  0  0  0  0
  148.3905  137.9353  153.8291 N   0  3  2  0  0  0  0  0  0  0  0  0
  149.7227  138.4701  154.2507 C   0  0  1  0  0  0  0  0  0  0  0  0
  149.6418  139.6336  155.2723 C   0  0  0  0  0  0  0  0  0  0  0  0
  148.6424  139.6901  155.9969 O   0  0  0  0  0  0  0  0  0  0  0  0
  150.7258  140.4587  155.2176 N   0  5  0  0  0  0  0  0  0  0  0  0
  151.4061  140.9927  156.3986 C   0  0  0  0  0  0  0  0  0  0  0  0
  150.6127  142.1567  157.0412 C   0  0  0  0  0  0  0  0  0  0  0  0
  151.3232  142.9018  158.1701 C   0  0  0  0  0  0  0  0  0  0  0  0
  151.7107  144.2512  158.0072 C   0  0  0  0  0  0  0  0  0  0  0  0
  152.3929  144.8903  159.0604 C   0  0  0  0  0  0  0  0  0  0  0  0
  152.6696  144.1613  160.2321 C   0  0  0  0  0  0  0  0  0  0  0  0
  152.2573  142.8160  160.2956 C   0  0  0  0  0  0  0  0  0  0  0  0
  151.6075  142.1920  159.2904 N   0  0  0  0  0  0  0  0  0  0  0  0
  150.7442  137.3401  154.6009 C   0  0  0  0  0  0  0  0  0  0  0  0
  150.3934  136.6026  155.9096 C   0  0  0  0  0  0  0  0  0  0  0  0
  152.1865  137.8753  154.6909 C   0  0  0  0  0  0  0  0  0  0  0  0
  147.5063  138.9327  153.1789 C   0  0  0  0  0  0  0  0  0  0  0  0
  146.2754  138.2432  152.5603 C   0  0  1  0  0  0  0  0  0  0  0  0
  146.5967  137.4506  151.2804 C   0  0  0  0  0  0  0  0  0  0  0  0
  145.6129  137.4412  153.5395 O   0  0  0  0  0  0  0  0  0  0  0  0
  146.1471  134.9534  155.7187 H   0  0  0  0  0  0  0  0  0  0  0  0
  144.7326  135.2141  154.7013 H   0  0  0  0  0  0  0  0  0  0  0  0
  145.1566  136.3949  155.9365 H   0  0  0  0  0  0  0  0  0  0  0  0
  146.7875  135.7425  153.4374 H   0  0  0  0  0  0  0  0  0  0  0  0
  147.2903  137.8114  155.6333 H   0  0  0  0  0  0  0  0  0  0  0  0
  148.2787  136.4028  155.3001 H   0  0  0  0  0  0  0  0  0  0  0  0
  150.1323  138.9244  153.3466 H   0  0  0  0  0  0  0  0  0  0  0  0
  151.5671  140.2155  157.1460 H   0  0  0  0  0  0  0  0  0  0  0  0
  152.4053  141.3551  156.1529 H   0  0  0  0  0  0  0  0  0  0  0  0
  150.3751  142.8857  156.2658 H   0  0  0  0  0  0  0  0  0  0  0  0
  149.6496  141.7924  157.4014 H   0  0  0  0  0  0  0  0  0  0  0  0
  151.4924  144.7830  157.0930 H   0  0  0  0  0  0  0  0  0  0  0  0
  152.7035  145.9204  158.9698 H   0  0  0  0  0  0  0  0  0  0  0  0
  153.1907  144.6191  161.0599 H   0  0  0  0  0  0  0  0  0  0  0  0
  152.4595  142.2233  161.1755 H   0  0  0  0  0  0  0  0  0  0  0  0
  150.7365  136.5930  153.8069 H   0  0  0  0  0  0  0  0  0  0  0  0
  150.3540  137.2920  156.7535 H   0  0  0  0  0  0  0  0  0  0  0  0
  151.1365  135.8390  156.1403 H   0  0  0  0  0  0  0  0  0  0  0  0
  149.4304  136.0959  155.8492 H   0  0  0  0  0  0  0  0  0  0  0  0
  152.2718  138.6556  155.4479 H   0  0  0  0  0  0  0  0  0  0  0  0
  152.5272  138.2900  153.7422 H   0  0  0  0  0  0  0  0  0  0  0  0
  152.8833  137.0798  154.9564 H   0  0  0  0  0  0  0  0  0  0  0  0
  147.1796  139.6645  153.9193 H   0  0  0  0  0  0  0  0  0  0  0  0
  148.0504  139.4822  152.4097 H   0  0  0  0  0  0  0  0  0  0  0  0
  145.5666  139.0223  152.2782 H   0  0  0  0  0  0  0  0  0  0  0  0
  146.9848  138.1112  150.5047 H   0  0  0  0  0  0  0  0  0  0  0  0
  145.7012  136.9708  150.8851 H   0  0  0  0  0  0  0  0  0  0  0  0
  147.3451  136.6767  151.4487 H   0  0  0  0  0  0  0  0  0  0  0  0
  148.6149  137.2739  153.1004 H   0  0  0  0  0  0  0  0  0  0  0  0
  1  2  1  0  0  0  0
  1 24  1  0  0  0  0
  1 25  1  0  0  0  0
  1 26  1  0  0  0  0
  2 23  1  0  0  0  0
  2  3  1  0  0  0  0
  2 27  1  0  0  0  0
  3  4  1  0  0  0  0
  3 28  1  0  0  0  0
  3 29  1  0  0  0  0
  4  5  1  0  0  0  0
  4 20  1  0  0  0  0
  4 52  1  0  0  0  0
  5  6  1  0  0  0  0
  5 17  1  0  0  0  0
  5 30  1  0  0  0  0
  6  7  2  0  0  0  0
  6  8  1  0  0  0  0
  8  9  1  0  0  0  0
  9 10  1  0  0  0  0
  9 31  1  0  0  0  0
  9 32  1  0  0  0  0
 10 11  1  0  0  0  0
 10 33  1  0  0  0  0
 10 34  1  0  0  0  0
 11 16  1  0  0  0  0
 11 12  2  0  0  0  0
 12 13  1  0  0  0  0
 12 35  1  0  0  0  0
 13 14  2  0  0  0  0
 13 36  1  0  0  0  0
 14 15  1  0  0  0  0
 14 37  1  0  0  0  0
 15 16  2  0  0  0  0
 15 38  1  0  0  0  0
 17 18  1  0  0  0  0
 17 19  1  0  0  0  0
 17 39  1  0  0  0  0
 18 40  1  0  0  0  0
 18 41  1  0  0  0  0
 18 42  1  0  0  0  0
 19 43  1  0  0  0  0
 19 44  1  0  0  0  0
 19 45  1  0  0  0  0
 20 21  1  0  0  0  0
 20 46  1  0  0  0  0
 20 47  1  0  0  0  0
 21 22  1  0  0  0  0
 21 23  1  0  0  0  0
 21 48  1  0  0  0  0
 22 49  1  0  0  0  0
 22 50  1  0  0  0  0
 22 51  1  0  0  0  0
M  CHG  1   4   1
M  CHG  1   8  -1
M  END
> <s_m_source_file>
AV-unprocessed.smi

> <i_m_source_file_index>
1762

> <i_lp_mmshare_version>
43012

> <i_f3d_flags>
0

> <s_epik_input>
W0NIM11bQ0BASF0xW0NIMl1OKFtDSDJdW0NASF0oTzEpW0NIM10pW0NAQEhdKFtDSF0oW0NIM10pW0NIM10pQyg9TylbTkhdW0NIMl1bQ0gyXWMyW2NIXVtjSF1bY0hdW2NIXW4y

> <s_epik_cmdline>
J2VwaWtfcHl0aG9uJywgJy1waCcsICc3LjAnLCAnLXRuJywgJzgnLCAnLW1hJywgJzIwMCcsICctbWV0YWxfYmluZGluZycsICctaW1hZScsICc8aW5maWxlLm1hZT4nLCAnLW9tYWUnLCAnPG91dGZpbGUubWFlPic=

> <r_epik_Ionization_Penalty>
7.82966

> <r_epik_Ionization_Penalty_Charging>
7.7461

> <r_epik_Ionization_Penalty_Neutral>
0.0835571

> <r_epik_State_Penalty>
8.52273

> <r_epik_Charging_Adjusted_Penalty>
16.2688

> <i_epik_Tot_Q>
0

> <i_epik_Tot_abs_Q>
2

> <r_epik_Metal_State_Penalty>
4.47451

> <b_epik_Metal_Only>
1

> <s_lp_Force_Field>
OPLS_2005

> <r_lp_Energy>
25.1161

> <b_lp_Chiralities_Consistent>
1

> <s_lp_Variant>
AV-unprocessed.smi:1762-23

> <Gold.Version>
5.8.1

> <Gold.Id.Protein>
6NUR|6NUR_protein|mol2

> <Gold.PLP.Fitness>
48.8264

> <Gold.PLP.PLP>
-41.5187

> <Gold.PLP.part.hbond>
-2.0000

> <Gold.PLP.part.metal>
0.0000

> <Gold.PLP.part.buried>
-0.7441

> <Gold.PLP.part.nonpolar>
-39.7127

> <Gold.PLP.part.repulsive>
0.2379

> <Gold.PLP.ligand.clash>
0.0000

> <Gold.PLP.ligand.torsion>
1.1708

> <Gold.PLP.Chemscore.Hbond>
2.9440

> <Gold.PLP.Chemscore.CHOScore>
0.0000

> <Gold.PLP.Chemscore.Metal>
0.0000

> <Gold.Chemscore.Hbonds>
donor molecule, donor type, donor heavy atom, donor atom, acceptor molecule, acceptor atom, score
      L1  H     4    52       P1  7948  2.00
      P1  H  7989  7998       L1     8  1.00

> <Gold.PLP.Chemscore.Internal.Correction>
0.8173

> <Gold.Rescore>
     Score         DG    S(hbond)    S(metal)    S(lipo)     H(rot)  DE(clash)    DE(int)     intcor
     16.77     -21.61       1.67        0.00     125.18       1.60       1.82       3.03       ----

> <Gold.Chemscore.Fitness>
16.7700

> <Gold.Chemscore.DG>
-21.6141

> <Gold.Chemscore.ZeroCoef>
-5.4800

> <Gold.Chemscore.Hbond>
1.6727

> <Gold.Chemscore.Metal>
0.0000

> <Gold.Chemscore.Lipo>
125.1810

> <Gold.Chemscore.Internal_Hbond>
0.0000

> <Gold.Chemscore.DEClash>
1.8188

> <Gold.Chemscore.DEInternal>
3.0253

> <Gold.Chemscore.Rot>
1.6012

> <Gold.Chemscore.Internal.Correction>
   9.000000E+99

> <Gold.Chemscore.Hbonds>
donor molecule, donor type, donor heavy atom, donor atom, acceptor molecule, acceptor atom, score
      L1  H     4    52       P1  7948  1.00
      P1  H  7989  7998       L1     8  0.81

> <Gold.Chemscore.Hbond.Weighted>
-5.5869

> <Gold.Chemscore.Metal.Weighted>
-0.0000

> <Gold.Chemscore.Lipo.Weighted>
-14.6462

> <Gold.Chemscore.Internal_Hbond.Weighted>
0.0000

> <Gold.Chemscore.DEClash.Weighted>
1.8188

> <Gold.Chemscore.DEInternal.Weighted>
3.0253

> <Gold.Chemscore.Rot.Weighted>
4.0990

> <Gold.Chemscore.Internal.Correction.Weighted>
   9.000000E+99

> <Gold.Protein.RotatedTorsions>
[ 6907 6896 6895 6894 ] final  -52.17 input  -60.11 | X-H torsion
[ 7974 7965 7964 7962 ] final  -76.56 input  175.53 | X-H torsion
[ 8008 7997 7996 7995 ] final  156.72 input   59.86 | X-H torsion
[ 10167 10162 10161 10158 ] final  178.12 input  -65.29 | X-H torsion
[ 10718 10713 10712 10709 ] final  -91.88 input   66.30 | X-H torsion
[ 10763 10752 10751 10750 ] final  -53.23 input  -60.55 | X-H torsion
[ 11005 11000 10999 10996 ] final  -23.14 input  -57.11 | X-H torsion

> <Gold.Protein.ActiveResidues>
 VAL166  LYS551  ARG553  GLY616  TRP617  ASP618  TYR619  PRO620  LYS621  CYS622 
 ASP623  PHE694  ASN695  SER759  ASP760  ASP761  ALA762  ILE779  LEU786  VAL792 
 PHE793  MET794  SER795  GLU796  ALA797  LYS798  CYS799  TRP800  GLU811  SER814 

> <Gold.Protein.RotatedAtoms>
  150.8542  134.7876  159.7032 H   0  0  0  0  0  0  0  0  0  0  0  0  # atno 6907 bound_to 6896
  152.4598  134.5206  159.9791 H   0  0  0  0  0  0  0  0  0  0  0  0  # atno 6908 bound_to 6896
  151.5321  133.3409  159.2955 H   0  0  0  0  0  0  0  0  0  0  0  0  # atno 6909 bound_to 6896
  145.6112  140.9386  143.1188 H   0  0  0  0  0  0  0  0  0  0  0  0  # atno 7974 bound_to 7965
  156.2406  140.1905  156.6998 H   0  0  0  0  0  0  0  0  0  0  0  0  # atno 8008 bound_to 7997
  154.6190  140.0611  156.9618 H   0  0  0  0  0  0  0  0  0  0  0  0  # atno 8009 bound_to 7997
  155.1892  140.3283  155.4364 H   0  0  0  0  0  0  0  0  0  0  0  0  # atno 8010 bound_to 7997
  139.5281  144.2718  152.0621 H   0  0  0  0  0  0  0  0  0  0  0  0  # atno 10167 bound_to 10162
  155.9997  130.4965  150.5541 H   0  0  0  0  0  0  0  0  0  0  0  0  # atno 10718 bound_to 10713
  154.1555  135.6483  153.4973 H   0  0  0  0  0  0  0  0  0  0  0  0  # atno 10763 bound_to 10752
  153.0125  135.5348  154.6764 H   0  0  0  0  0  0  0  0  0  0  0  0  # atno 10764 bound_to 10752
  154.6064  135.2949  155.0452 H   0  0  0  0  0  0  0  0  0  0  0  0  # atno 10765 bound_to 10752
  140.8724  133.7711  156.0202 H   0  0  0  0  0  0  0  0  0  0  0  0  # atno 11005 bound_to 11000
  144.7269  139.7847  143.7361 LP  0  0  0  0  0  0  0  0  0  0  0  0  # atno 17320 bound_to 7965
  146.1503  139.4584  143.0053 LP  0  0  0  0  0  0  0  0  0  0  0  0  # atno 17321 bound_to 7965
  140.2177  144.4498  150.6356 LP  0  0  0  0  0  0  0  0  0  0  0  0  # atno 17342 bound_to 10162
  140.6439  143.2209  151.6230 LP  0  0  0  0  0  0  0  0  0  0  0  0  # atno 17343 bound_to 10162
  157.3460  131.0725  151.1751 LP  0  0  0  0  0  0  0  0  0  0  0  0  # atno 17370 bound_to 10713
  157.2583  130.6647  149.5963 LP  0  0  0  0  0  0  0  0  0  0  0  0  # atno 17371 bound_to 10713
  140.8558  134.2900  157.5256 LP  0  0  0  0  0  0  0  0  0  0  0  0  # atno 17394 bound_to 11000
  139.8713  134.9492  156.4019 LP  0  0  0  0  0  0  0  0  0  0  0  0  # atno 17395 bound_to 11000

$$$$
