AV-unprocessed.smi:281|AV-procd|sdf|2116|dock5
  -GOLD-   2262021413D 1   1.00000     0.00000
 Structure written by MMmdl.
 55 59  0  0  0  0  0  0  0  0  1 V2000
  152.1915  138.4462  156.1564 C   0  0  0  0  0  0  0  0  0  0  0  0
  151.4667  139.6216  156.8193 C   0  0  1  0  0  0  0  0  0  0  0  0
  150.1588  139.1849  157.4974 C   0  0  0  0  0  0  0  0  0  0  0  0
  149.5696  140.3220  158.1876 N   0  0  0  0  0  0  0  0  0  0  0  0
  148.3182  140.1332  158.6548 C   0  0  0  0  0  0  0  0  0  0  0  0
  147.3062  140.6663  157.9282 N   0  0  0  0  0  0  0  0  0  0  0  0
  146.0427  140.5256  158.3402 C   0  0  0  0  0  0  0  0  0  0  0  0
  145.5835  139.9061  159.4297 N   0  0  0  0  0  0  0  0  0  0  0  0
  146.6017  139.3741  160.1657 C   0  0  0  0  0  0  0  0  0  0  0  0
  147.9893  139.4439  159.8565 C   0  0  0  0  0  0  0  0  0  0  0  0
  148.7273  138.8068  160.8468 N   0  0  0  0  0  0  0  0  0  0  0  0
  147.8273  138.3790  161.6892 C   0  0  0  0  0  0  0  0  0  0  0  0
  146.5233  138.6662  161.3529 N   0  0  0  0  0  0  0  0  0  0  0  0
  145.3283  138.3150  162.1055 C   0  0  0  0  0  0  0  0  0  0  0  0
  145.1930  139.0675  163.4521 C   0  0  2  0  0  0  0  0  0  0  0  0
  143.8214  139.2955  163.7183 O   0  0  0  0  0  0  0  0  0  0  0  0
  145.9286  140.4092  163.4430 C   0  0  0  0  0  0  0  0  0  0  0  0
  147.1381  140.1604  164.3355 C   0  0  0  0  0  0  0  0  0  0  0  0
  146.6177  139.2860  165.3203 O   0  0  0  0  0  0  0  0  0  0  0  0
  145.8247  138.3206  164.6447 C   0  0  0  0  0  0  0  0  0  0  0  0
  150.4666  140.9136  159.1694 C   0  0  0  0  0  0  0  0  0  0  0  0
  151.8149  141.3054  158.5202 C   0  0  1  0  0  0  0  0  0  0  0  0
  151.7174  142.5348  157.6061 C   0  0  0  0  0  0  0  0  0  0  0  0
  152.3976  143.6464  158.3934 C   0  0  0  0  0  0  0  0  0  0  0  0
  153.4165  142.9504  159.0858 O   0  0  0  0  0  0  0  0  0  0  0  0
  152.8277  141.7640  159.5981 C   0  0  2  0  0  0  0  0  0  0  0  0
  153.9147  140.7475  159.9762 C   0  0  0  0  0  0  0  0  0  0  0  0
  152.3406  140.1812  157.8010 O   0  0  0  0  0  0  0  0  0  0  0  0
  151.5705  137.9841  155.3886 H   0  0  0  0  0  0  0  0  0  0  0  0
  152.4484  137.6787  156.8872 H   0  0  0  0  0  0  0  0  0  0  0  0
  153.1155  138.7770  155.6818 H   0  0  0  0  0  0  0  0  0  0  0  0
  151.2463  140.3652  156.0528 H   0  0  0  0  0  0  0  0  0  0  0  0
  149.4590  138.7966  156.7562 H   0  0  0  0  0  0  0  0  0  0  0  0
  150.3638  138.3817  158.2056 H   0  0  0  0  0  0  0  0  0  0  0  0
  145.2921  140.9746  157.7067 H   0  0  0  0  0  0  0  0  0  0  0  0
  148.0944  137.8386  162.5857 H   0  0  0  0  0  0  0  0  0  0  0  0
  144.4601  138.5155  161.4763 H   0  0  0  0  0  0  0  0  0  0  0  0
  145.3379  137.2373  162.2754 H   0  0  0  0  0  0  0  0  0  0  0  0
  143.4249  139.6702  162.9466 H   0  0  0  0  0  0  0  0  0  0  0  0
  146.2108  140.7452  162.4446 H   0  0  0  0  0  0  0  0  0  0  0  0
  145.3169  141.1948  163.8901 H   0  0  0  0  0  0  0  0  0  0  0  0
  147.9383  139.6636  163.7846 H   0  0  0  0  0  0  0  0  0  0  0  0
  147.5344  141.0760  164.7752 H   0  0  0  0  0  0  0  0  0  0  0  0
  145.0929  137.8677  165.3149 H   0  0  0  0  0  0  0  0  0  0  0  0
  146.4936  137.5296  164.3050 H   0  0  0  0  0  0  0  0  0  0  0  0
  149.9984  141.7873  159.6256 H   0  0  0  0  0  0  0  0  0  0  0  0
  150.6392  140.1916  159.9691 H   0  0  0  0  0  0  0  0  0  0  0  0
  152.2830  142.3693  156.6884 H   0  0  0  0  0  0  0  0  0  0  0  0
  150.6960  142.7903  157.3219 H   0  0  0  0  0  0  0  0  0  0  0  0
  152.8047  144.4290  157.7530 H   0  0  0  0  0  0  0  0  0  0  0  0
  151.7092  144.1030  159.1061 H   0  0  0  0  0  0  0  0  0  0  0  0
  152.2902  142.0493  160.5046 H   0  0  0  0  0  0  0  0  0  0  0  0
  153.4731  139.8246  160.3531 H   0  0  0  0  0  0  0  0  0  0  0  0
  154.5640  141.1479  160.7549 H   0  0  0  0  0  0  0  0  0  0  0  0
  154.5432  140.4973  159.1211 H   0  0  0  0  0  0  0  0  0  0  0  0
  1  2  1  0  0  0  0
  1 29  1  0  0  0  0
  1 30  1  0  0  0  0
  1 31  1  0  0  0  0
  2 28  1  0  0  0  0
  2  3  1  0  0  0  0
  2 32  1  0  0  0  0
  3  4  1  0  0  0  0
  3 33  1  0  0  0  0
  3 34  1  0  0  0  0
  4  5  1  0  0  0  0
  4 21  1  0  0  0  0
  5 10  1  0  0  0  0
  5  6  2  0  0  0  0
  6  7  1  0  0  0  0
  7  8  2  0  0  0  0
  7 35  1  0  0  0  0
  8  9  1  0  0  0  0
  9 13  1  0  0  0  0
  9 10  2  0  0  0  0
 10 11  1  0  0  0  0
 11 12  2  0  0  0  0
 12 13  1  0  0  0  0
 12 36  1  0  0  0  0
 13 14  1  0  0  0  0
 14 15  1  0  0  0  0
 14 37  1  0  0  0  0
 14 38  1  0  0  0  0
 15 20  1  0  0  0  0
 15 16  1  0  0  0  0
 15 17  1  0  0  0  0
 16 39  1  0  0  0  0
 17 18  1  0  0  0  0
 17 40  1  0  0  0  0
 17 41  1  0  0  0  0
 18 19  1  0  0  0  0
 18 42  1  0  0  0  0
 18 43  1  0  0  0  0
 19 20  1  0  0  0  0
 20 44  1  0  0  0  0
 20 45  1  0  0  0  0
 21 22  1  0  0  0  0
 21 46  1  0  0  0  0
 21 47  1  0  0  0  0
 22 26  1  0  0  0  0
 22 23  1  0  0  0  0
 22 28  1  0  0  0  0
 23 24  1  0  0  0  0
 23 48  1  0  0  0  0
 23 49  1  0  0  0  0
 24 25  1  0  0  0  0
 24 50  1  0  0  0  0
 24 51  1  0  0  0  0
 25 26  1  0  0  0  0
 26 27  1  0  0  0  0
 26 52  1  0  0  0  0
 27 53  1  0  0  0  0
 27 54  1  0  0  0  0
 27 55  1  0  0  0  0
M  END
> <s_m_source_file>
AV-unprocessed.smi

> <i_m_source_file_index>
281

> <i_lp_mmshare_version>
43012

> <i_f3d_flags>
0

> <s_epik_input>
W0NIM11bQ0BASF0xT1tDSDJdW0NIMl1bQ0BAXTEyW0NIMl1OKFtDSDJdW0NASF0oTzIpW0NIM10pYyhuW2NIXW4zKWMoYzM0KW5bY0hdbjRbQ0gyXVtDQEBdNShbT0hdKVtDSDJdW0NIMl1PW0NIMl01

> <s_epik_cmdline>
J2VwaWtfcHl0aG9uJywgJy1waCcsICc3LjAnLCAnLXRuJywgJzgnLCAnLW1hJywgJzIwMCcsICctbWV0YWxfYmluZGluZycsICctaW1hZScsICc8aW5maWxlLm1hZT4nLCAnLW9tYWUnLCAnPG91dGZpbGUubWFlPic=

> <r_lp_tautomer_probability>
1

> <r_epik_Ionization_Penalty>
0.00571331

> <r_epik_Ionization_Penalty_Charging>
0

> <r_epik_Ionization_Penalty_Neutral>
0.00571331

> <r_epik_State_Penalty>
0.00399586

> <r_epik_Charging_Adjusted_Penalty>
0.00399586

> <i_epik_Tot_Q>
0

> <i_epik_Tot_abs_Q>
0

> <r_epik_Metal_State_Penalty>
-0

> <b_epik_Metal_Only>
0

> <s_lp_Force_Field>
OPLS_2005

> <r_lp_Energy>
55.1206

> <b_lp_Chiralities_Consistent>
1

> <s_lp_Variant>
AV-unprocessed.smi:281-16

> <Gold.Version>
5.8.1

> <Gold.Id.Protein>
6NUR|6NUR_protein|mol2

> <Gold.PLP.Fitness>
41.5870

> <Gold.PLP.PLP>
-40.5048

> <Gold.PLP.part.hbond>
-2.1803

> <Gold.PLP.part.metal>
0.0000

> <Gold.PLP.part.buried>
-7.4441

> <Gold.PLP.part.nonpolar>
-31.3322

> <Gold.PLP.part.repulsive>
0.0231

> <Gold.PLP.ligand.clash>
0.0000

> <Gold.PLP.ligand.torsion>
1.0384

> <Gold.PLP.Chemscore.Hbond>
1.0000

> <Gold.PLP.Chemscore.CHOScore>
0.0000

> <Gold.PLP.Chemscore.Metal>
0.0000

> <Gold.Chemscore.Hbonds>
donor molecule, donor type, donor heavy atom, donor atom, acceptor molecule, acceptor atom, score
      P1  H  7997  8010       L1    28  0.26

> <Gold.PLP.Chemscore.Internal.Correction>
0.1588

> <Gold.Rescore>
     Score         DG    S(hbond)    S(metal)    S(lipo)     H(rot)  DE(clash)    DE(int)     intcor
     14.19     -15.41       0.92        0.00     104.54       2.09       0.32       0.90       ----

> <Gold.Chemscore.Fitness>
14.1931

> <Gold.Chemscore.DG>
-15.4132

> <Gold.Chemscore.ZeroCoef>
-5.4800

> <Gold.Chemscore.Hbond>
0.9160

> <Gold.Chemscore.Metal>
0.0000

> <Gold.Chemscore.Lipo>
104.5387

> <Gold.Chemscore.Internal_Hbond>
0.0000

> <Gold.Chemscore.DEClash>
0.3182

> <Gold.Chemscore.DEInternal>
0.9019

> <Gold.Chemscore.Rot>
2.0927

> <Gold.Chemscore.Internal.Correction>
   9.000000E+99

> <Gold.Chemscore.Hbonds>
donor molecule, donor type, donor heavy atom, donor atom, acceptor molecule, acceptor atom, score
      P1  H  7997  8010       L1    28  0.11

> <Gold.Chemscore.Hbond.Weighted>
-3.0595

> <Gold.Chemscore.Metal.Weighted>
-0.0000

> <Gold.Chemscore.Lipo.Weighted>
-12.2310

> <Gold.Chemscore.Internal_Hbond.Weighted>
0.0000

> <Gold.Chemscore.DEClash.Weighted>
0.3182

> <Gold.Chemscore.DEInternal.Weighted>
0.9019

> <Gold.Chemscore.Rot.Weighted>
5.3573

> <Gold.Chemscore.Internal.Correction.Weighted>
   9.000000E+99

> <Gold.Protein.RotatedTorsions>
[ 6907 6896 6895 6894 ] final  -89.90 input  -60.11 | X-H torsion
[ 7974 7965 7964 7962 ] final  -79.06 input  175.53 | X-H torsion
[ 8008 7997 7996 7995 ] final   49.02 input   59.86 | X-H torsion
[ 10167 10162 10161 10158 ] final  163.81 input  -65.29 | X-H torsion
[ 10718 10713 10712 10709 ] final -101.91 input   66.30 | X-H torsion
[ 10763 10752 10751 10750 ] final  104.58 input  -60.55 | X-H torsion
[ 11005 11000 10999 10996 ] final  170.29 input  -57.11 | X-H torsion

> <Gold.Protein.ActiveResidues>
 VAL166  LYS551  ARG553  GLY616  TRP617  ASP618  TYR619  PRO620  LYS621  CYS622 
 ASP623  PHE694  ASN695  SER759  ASP760  ASP761  ALA762  ILE779  LEU786  VAL792 
 PHE793  MET794  SER795  GLU796  ALA797  LYS798  CYS799  TRP800  GLU811  SER814 

> <Gold.Protein.RotatedAtoms>
  150.6877  134.2516  159.4512 H   0  0  0  0  0  0  0  0  0  0  0  0  # atno 6907 bound_to 6896
  152.0453  134.9684  160.0583 H   0  0  0  0  0  0  0  0  0  0  0  0  # atno 6908 bound_to 6896
  152.1170  133.4297  159.4694 H   0  0  0  0  0  0  0  0  0  0  0  0  # atno 6909 bound_to 6896
  145.5782  140.9453  143.1358 H   0  0  0  0  0  0  0  0  0  0  0  0  # atno 7974 bound_to 7965
  155.3952  140.3435  155.4253 H   0  0  0  0  0  0  0  0  0  0  0  0  # atno 8008 bound_to 7997
  156.1535  140.1578  156.8764 H   0  0  0  0  0  0  0  0  0  0  0  0  # atno 8009 bound_to 7997
  154.5073  140.0799  156.7902 H   0  0  0  0  0  0  0  0  0  0  0  0  # atno 8010 bound_to 7997
  139.4879  144.4299  151.9083 H   0  0  0  0  0  0  0  0  0  0  0  0  # atno 10167 bound_to 10162
  156.0210  130.5395  150.7032 H   0  0  0  0  0  0  0  0  0  0  0  0  # atno 10718 bound_to 10713
  153.3679  135.3938  155.1767 H   0  0  0  0  0  0  0  0  0  0  0  0  # atno 10763 bound_to 10752
  154.8690  135.3695  154.5015 H   0  0  0  0  0  0  0  0  0  0  0  0  # atno 10764 bound_to 10752
  153.5480  135.7083  153.5665 H   0  0  0  0  0  0  0  0  0  0  0  0  # atno 10765 bound_to 10752
  140.3068  134.7550  157.3960 H   0  0  0  0  0  0  0  0  0  0  0  0  # atno 11005 bound_to 11000
  144.7406  139.7460  143.7312 LP  0  0  0  0  0  0  0  0  0  0  0  0  # atno 17320 bound_to 7965
  146.1735  139.4896  142.9912 LP  0  0  0  0  0  0  0  0  0  0  0  0  # atno 17321 bound_to 7965
  140.3746  144.2812  150.5915 LP  0  0  0  0  0  0  0  0  0  0  0  0  # atno 17342 bound_to 10162
  140.5288  143.2248  151.8272 LP  0  0  0  0  0  0  0  0  0  0  0  0  # atno 17343 bound_to 10162
  157.4687  131.0891  151.0666 LP  0  0  0  0  0  0  0  0  0  0  0  0  # atno 17370 bound_to 10713
  157.1133  130.6030  149.5487 LP  0  0  0  0  0  0  0  0  0  0  0  0  # atno 17371 bound_to 10713
  140.1060  134.5409  155.8309 LP  0  0  0  0  0  0  0  0  0  0  0  0  # atno 17394 bound_to 11000
  141.2117  133.6709  156.6600 LP  0  0  0  0  0  0  0  0  0  0  0  0  # atno 17395 bound_to 11000

$$$$
