AV-unprocessed.smi:675|AV-procd|sdf|3305|dock6
  -GOLD-   22720 0263D 1   1.00000     0.00000
 Structure written by MMmdl.
 28 29  0  0  0  0  0  0  0  0  2 V2000
  151.7076  137.2368  154.3632 O   0  0  0  0  0  0  0  0  0  0  0  0
  151.4400  138.3642  154.7763 C   0  0  0  0  0  0  0  0  0  0  0  0
  150.4745  139.1461  154.2107 N   0  5  0  0  0  0  0  0  0  0  0  0
  150.1651  140.4037  154.6527 C   0  0  0  0  0  0  0  0  0  0  0  0
  149.2931  141.0892  154.1189 O   0  0  0  0  0  0  0  0  0  0  0  0
  150.8533  140.9148  155.7177 N   0  0  0  0  0  0  0  0  0  0  0  0
  150.6174  142.2645  156.2550 C   0  0  0  0  0  0  0  0  0  0  0  0
  150.2701  142.2513  157.7611 C   0  0  2  0  0  0  0  0  0  0  0  0
  149.4026  143.3377  158.0180 O   0  0  0  0  0  0  0  0  0  0  0  0
  151.5058  142.2718  158.6614 C   0  0  0  0  0  0  0  0  0  0  0  0
  151.9740  141.0559  159.2101 C   0  0  0  0  0  0  0  0  0  0  0  0
  153.0925  141.0348  160.0640 C   0  0  0  0  0  0  0  0  0  0  0  0
  153.7569  142.2329  160.3801 C   0  0  0  0  0  0  0  0  0  0  0  0
  153.2992  143.4496  159.8425 C   0  0  0  0  0  0  0  0  0  0  0  0
  152.1789  143.4780  158.9877 C   0  0  0  0  0  0  0  0  0  0  0  0
  151.6617  145.0104  158.3749 Cl  0  0  0  0  0  0  0  0  0  0  0  0
  151.8515  140.1470  156.3406 C   0  0  0  0  0  0  0  0  0  0  0  0
  152.1716  138.9089  155.9179 C   0  0  0  0  0  0  0  0  0  0  0  0
  153.4140  137.9951  156.6964 Cl  0  0  0  0  0  0  0  0  0  0  0  0
  151.4739  142.9166  156.0771 H   0  0  0  0  0  0  0  0  0  0  0  0
  149.7992  142.7229  155.6970 H   0  0  0  0  0  0  0  0  0  0  0  0
  149.6764  141.3632  157.9705 H   0  0  0  0  0  0  0  0  0  0  0  0
  148.9292  143.5355  157.2246 H   0  0  0  0  0  0  0  0  0  0  0  0
  151.4650  140.1297  158.9868 H   0  0  0  0  0  0  0  0  0  0  0  0
  153.4364  140.0998  160.4806 H   0  0  0  0  0  0  0  0  0  0  0  0
  154.6136  142.2200  161.0376 H   0  0  0  0  0  0  0  0  0  0  0  0
  153.8084  144.3687  160.0921 H   0  0  0  0  0  0  0  0  0  0  0  0
  152.3445  140.6307  157.1714 H   0  0  0  0  0  0  0  0  0  0  0  0
  1  2  2  0  0  0  0
  2 18  1  0  0  0  0
  2  3  1  0  0  0  0
  3  4  1  0  0  0  0
  4  5  2  0  0  0  0
  4  6  1  0  0  0  0
  6  7  1  0  0  0  0
  6 17  1  0  0  0  0
  7  8  1  0  0  0  0
  7 20  1  0  0  0  0
  7 21  1  0  0  0  0
  8  9  1  0  0  0  0
  8 10  1  0  0  0  0
  8 22  1  0  0  0  0
  9 23  1  0  0  0  0
 10 15  1  0  0  0  0
 10 11  2  0  0  0  0
 11 12  1  0  0  0  0
 11 24  1  0  0  0  0
 12 13  2  0  0  0  0
 12 25  1  0  0  0  0
 13 14  1  0  0  0  0
 13 26  1  0  0  0  0
 14 15  2  0  0  0  0
 14 27  1  0  0  0  0
 15 16  1  0  0  0  0
 17 18  2  0  0  0  0
 17 28  1  0  0  0  0
 18 19  1  0  0  0  0
M  CHG  1   3  -1
M  END
> <s_m_source_file>
AV-unprocessed.smi

> <i_m_source_file_index>
675

> <i_lp_mmshare_version>
43012

> <i_f3d_flags>
0

> <s_epik_input>
Tz1jMVtuSF1jKD1PKW4oW2NIXWMxQ2wpW0NIMl1bQ0BIXShbT0hdKWMyW2NIXVtjSF1bY0hdW2NIXWMyQ2w=

> <s_epik_cmdline>
J2VwaWtfcHl0aG9uJywgJy1waCcsICc3LjAnLCAnLXRuJywgJzgnLCAnLW1hJywgJzIwMCcsICctbWV0YWxfYmluZGluZycsICctaW1hZScsICc8aW5maWxlLm1hZT4nLCAnLW9tYWUnLCAnPG91dGZpbGUubWFlPic=

> <r_epik_Ionization_Penalty>
1.79791

> <r_epik_Ionization_Penalty_Charging>
3.23819e-08

> <r_epik_Ionization_Penalty_Neutral>
1.79791

> <r_epik_State_Penalty>
1.91135

> <r_epik_Charging_Adjusted_Penalty>
1.91135

> <i_epik_Tot_Q>
-1

> <i_epik_Tot_abs_Q>
1

> <r_epik_Metal_State_Penalty>
0.014155

> <b_epik_Metal_Only>
0

> <s_lp_Force_Field>
OPLS_2005

> <r_lp_Energy>
20.012

> <b_lp_Chiralities_Consistent>
1

> <s_lp_Variant>
AV-unprocessed.smi:675-3

> <Gold.Version>
5.8.1

> <Gold.Id.Protein>
6NUR|6NUR_protein|mol2

> <Gold.PLP.Fitness>
48.7126

> <Gold.PLP.PLP>
-42.6522

> <Gold.PLP.part.hbond>
-5.4425

> <Gold.PLP.part.metal>
0.0000

> <Gold.PLP.part.buried>
-0.1044

> <Gold.PLP.part.nonpolar>
-37.6049

> <Gold.PLP.part.repulsive>
1.4554

> <Gold.PLP.ligand.clash>
0.0000

> <Gold.PLP.ligand.torsion>
0.9517

> <Gold.PLP.Chemscore.Hbond>
2.6490

> <Gold.PLP.Chemscore.CHOScore>
0.0000

> <Gold.PLP.Chemscore.Metal>
0.0000

> <Gold.Chemscore.Hbonds>
donor molecule, donor type, donor heavy atom, donor atom, acceptor molecule, acceptor atom, score
      L1  H     9    23       P1  8028  0.86
      P1  H  8011  8017       L1     5  0.31
      P1  H 10752 10763       L1     1  1.00

> <Gold.PLP.Chemscore.Internal.Correction>
0.0168

> <Gold.Rescore>
     Score         DG    S(hbond)    S(metal)    S(lipo)     H(rot)  DE(clash)    DE(int)     intcor
     16.01     -20.78       2.37        0.00     109.58       2.13       2.49       2.28       ----

> <Gold.Chemscore.Fitness>
16.0116

> <Gold.Chemscore.DG>
-20.7819

> <Gold.Chemscore.ZeroCoef>
-5.4800

> <Gold.Chemscore.Hbond>
2.3738

> <Gold.Chemscore.Metal>
0.0000

> <Gold.Chemscore.Lipo>
109.5753

> <Gold.Chemscore.Internal_Hbond>
0.0000

> <Gold.Chemscore.DEClash>
2.4909

> <Gold.Chemscore.DEInternal>
2.2794

> <Gold.Chemscore.Rot>
2.1278

> <Gold.Chemscore.Internal.Correction>
   9.000000E+99

> <Gold.Chemscore.Hbonds>
donor molecule, donor type, donor heavy atom, donor atom, acceptor molecule, acceptor atom, score
      L1  H     9    23       P1  8028  0.30
      P1  H  8011  8017       L1     5  0.30
      P1  H 10752 10763       L1     1  0.92

> <Gold.Chemscore.Hbond.Weighted>
-7.9286

> <Gold.Chemscore.Metal.Weighted>
-0.0000

> <Gold.Chemscore.Lipo.Weighted>
-12.8203

> <Gold.Chemscore.Internal_Hbond.Weighted>
0.0000

> <Gold.Chemscore.DEClash.Weighted>
2.4909

> <Gold.Chemscore.DEInternal.Weighted>
2.2794

> <Gold.Chemscore.Rot.Weighted>
5.4470

> <Gold.Chemscore.Internal.Correction.Weighted>
   9.000000E+99

> <Gold.Protein.RotatedTorsions>
[ 6907 6896 6895 6894 ] final   93.47 input  -60.11 | X-H torsion
[ 7974 7965 7964 7962 ] final  -10.44 input  175.53 | X-H torsion
[ 8008 7997 7996 7995 ] final  171.82 input   59.86 | X-H torsion
[ 10167 10162 10161 10158 ] final   42.91 input  -65.29 | X-H torsion
[ 10718 10713 10712 10709 ] final   59.40 input   66.30 | X-H torsion
[ 10763 10752 10751 10750 ] final   32.71 input  -60.55 | X-H torsion
[ 11005 11000 10999 10996 ] final   76.41 input  -57.11 | X-H torsion

> <Gold.Protein.ActiveResidues>
 VAL166  LYS551  ARG553  GLY616  TRP617  ASP618  TYR619  PRO620  LYS621  CYS622 
 ASP623  PHE694  ASN695  SER759  ASP760  ASP761  ALA762  ILE779  LEU786  VAL792 
 PHE793  MET794  SER795  GLU796  ALA797  LYS798  CYS799  TRP800  GLU811  SER814 

> <Gold.Protein.RotatedAtoms>
  152.5452  134.1342  159.8451 H   0  0  0  0  0  0  0  0  0  0  0  0  # atno 6907 bound_to 6896
  151.1385  133.4980  159.2605 H   0  0  0  0  0  0  0  0  0  0  0  0  # atno 6908 bound_to 6896
  151.1599  135.0278  159.8760 H   0  0  0  0  0  0  0  0  0  0  0  0  # atno 6909 bound_to 6896
  146.2220  140.2764  142.8359 H   0  0  0  0  0  0  0  0  0  0  0  0  # atno 7974 bound_to 7965
  156.1235  140.1502  156.9171 H   0  0  0  0  0  0  0  0  0  0  0  0  # atno 8008 bound_to 7997
  154.4853  140.0867  156.7514 H   0  0  0  0  0  0  0  0  0  0  0  0  # atno 8009 bound_to 7997
  155.4386  140.3430  155.4290 H   0  0  0  0  0  0  0  0  0  0  0  0  # atno 8010 bound_to 7997
  140.3496  144.2366  150.6147 H   0  0  0  0  0  0  0  0  0  0  0  0  # atno 10167 bound_to 10162
  157.5673  130.8880  149.9208 H   0  0  0  0  0  0  0  0  0  0  0  0  # atno 10718 bound_to 10713
  153.0248  135.6406  154.1398 H   0  0  0  0  0  0  0  0  0  0  0  0  # atno 10763 bound_to 10752
  154.1128  135.2852  155.3228 H   0  0  0  0  0  0  0  0  0  0  0  0  # atno 10764 bound_to 10752
  154.6319  135.5489  153.7753 H   0  0  0  0  0  0  0  0  0  0  0  0  # atno 10765 bound_to 10752
  139.9300  134.7598  156.1392 H   0  0  0  0  0  0  0  0  0  0  0  0  # atno 11005 bound_to 11000
  144.9229  140.7888  143.5737 LP  0  0  0  0  0  0  0  0  0  0  0  0  # atno 17320 bound_to 7965
  145.2702  139.1957  143.4845 LP  0  0  0  0  0  0  0  0  0  0  0  0  # atno 17321 bound_to 7965
  140.5231  143.2261  151.8357 LP  0  0  0  0  0  0  0  0  0  0  0  0  # atno 17342 bound_to 10162
  139.4828  144.4812  151.9304 LP  0  0  0  0  0  0  0  0  0  0  0  0  # atno 17343 bound_to 10162
  156.0720  130.3684  150.0756 LP  0  0  0  0  0  0  0  0  0  0  0  0  # atno 17370 bound_to 10713
  156.8913  130.9589  151.3588 LP  0  0  0  0  0  0  0  0  0  0  0  0  # atno 17371 bound_to 10713
  141.0882  133.6725  156.2482 LP  0  0  0  0  0  0  0  0  0  0  0  0  # atno 17394 bound_to 11000
  140.6229  134.5342  157.5550 LP  0  0  0  0  0  0  0  0  0  0  0  0  # atno 17395 bound_to 11000

$$$$
