AV-unprocessed.smi:1961|AV-procd|sdf|7919|dock9
  -GOLD-   2272010 83D 1   1.00000     0.00000
 Structure written by MMmdl.
 36 37  0  0  0  0  0  0  0  0  1 V2000
  151.7506  141.4090  157.8413 C   0  0  0  0  0  0  0  0  0  0  0  0
  150.5242  141.8551  157.0320 C   0  0  0  0  0  0  0  0  0  0  0  0
  149.3116  142.1907  157.9126 C   0  0  0  0  0  0  0  0  0  0  0  0
  150.1806  140.8855  155.9440 C   0  0  0  0  0  0  0  0  0  0  0  0
  151.0483  140.5201  154.9905 N   0  0  0  0  0  0  0  0  0  0  0  0
  150.5008  139.6091  154.0982 N   0  0  0  0  0  0  0  0  0  0  0  0
  149.2316  139.3095  154.4058 C   0  0  0  0  0  0  0  0  0  0  0  0
  148.4337  138.3970  153.6660 N   0  0  0  0  0  0  0  0  0  0  0  0
  147.0946  138.3660  153.5473 C   0  0  0  0  0  0  0  0  0  0  0  0
  146.3127  139.1382  154.1025 O   0  0  0  0  0  0  0  0  0  0  0  0
  146.7038  137.3698  152.7394 N   0  0  0  0  0  0  0  0  0  0  0  0
  145.3220  137.0510  152.3940 C   0  0  0  0  0  0  0  0  0  0  0  0
  145.2333  135.8336  151.4581 C   0  0  1  0  0  0  0  0  0  0  0  0
  146.1035  134.6420  151.8587 C   0  0  0  0  0  0  0  0  0  0  0  0
  145.3783  133.4988  151.1872 C   0  0  0  0  0  0  0  0  0  0  0  0
  143.9187  133.8986  151.3830 C   0  0  0  0  0  0  0  0  0  0  0  0
  143.9027  135.3234  151.4373 O   0  0  0  0  0  0  0  0  0  0  0  0
  148.5958  140.1283  155.8221 S   0  0  0  0  0  0  0  0  0  0  0  0
  152.6161  141.2635  157.1939 H   0  0  0  0  0  0  0  0  0  0  0  0
  151.5625  140.4701  158.3629 H   0  0  0  0  0  0  0  0  0  0  0  0
  152.0191  142.1558  158.5889 H   0  0  0  0  0  0  0  0  0  0  0  0
  150.8081  142.7843  156.5361 H   0  0  0  0  0  0  0  0  0  0  0  0
  148.4901  142.5861  157.3145 H   0  0  0  0  0  0  0  0  0  0  0  0
  149.5657  142.9415  158.6613 H   0  0  0  0  0  0  0  0  0  0  0  0
  148.9470  141.3079  158.4388 H   0  0  0  0  0  0  0  0  0  0  0  0
  148.9443  137.6893  153.1592 H   0  0  0  0  0  0  0  0  0  0  0  0
  147.4167  136.7848  152.3290 H   0  0  0  0  0  0  0  0  0  0  0  0
  144.7170  136.8922  153.2884 H   0  0  0  0  0  0  0  0  0  0  0  0
  144.8995  137.9224  151.8934 H   0  0  0  0  0  0  0  0  0  0  0  0
  145.4810  136.1306  150.4376 H   0  0  0  0  0  0  0  0  0  0  0  0
  147.1400  134.7415  151.5350 H   0  0  0  0  0  0  0  0  0  0  0  0
  146.0940  134.5044  152.9410 H   0  0  0  0  0  0  0  0  0  0  0  0
  145.6229  133.4738  150.1245 H   0  0  0  0  0  0  0  0  0  0  0  0
  145.6165  132.5255  151.6171 H   0  0  0  0  0  0  0  0  0  0  0  0
  143.2760  133.5230  150.5863 H   0  0  0  0  0  0  0  0  0  0  0  0
  143.5422  133.5135  152.3312 H   0  0  0  0  0  0  0  0  0  0  0  0
  1  2  1  0  0  0  0
  1 19  1  0  0  0  0
  1 20  1  0  0  0  0
  1 21  1  0  0  0  0
  2  3  1  0  0  0  0
  2  4  1  0  0  0  0
  2 22  1  0  0  0  0
  3 23  1  0  0  0  0
  3 24  1  0  0  0  0
  3 25  1  0  0  0  0
  4 18  1  0  0  0  0
  4  5  2  0  0  0  0
  5  6  1  0  0  0  0
  6  7  2  0  0  0  0
  7  8  1  0  0  0  0
  7 18  1  0  0  0  0
  8  9  1  0  0  0  0
  8 26  1  0  0  0  0
  9 10  2  0  0  0  0
  9 11  1  0  0  0  0
 11 12  1  0  0  0  0
 11 27  1  0  0  0  0
 12 13  1  0  0  0  0
 12 28  1  0  0  0  0
 12 29  1  0  0  0  0
 13 17  1  0  0  0  0
 13 14  1  0  0  0  0
 13 30  1  0  0  0  0
 14 15  1  0  0  0  0
 14 31  1  0  0  0  0
 14 32  1  0  0  0  0
 15 16  1  0  0  0  0
 15 33  1  0  0  0  0
 15 34  1  0  0  0  0
 16 17  1  0  0  0  0
 16 35  1  0  0  0  0
 16 36  1  0  0  0  0
M  END
> <s_m_source_file>
AV-unprocessed.smi

> <i_m_source_file_index>
1961

> <i_lp_mmshare_version>
43012

> <i_f3d_flags>
0

> <s_epik_input>
W0NIM11bQ0hdKFtDSDNdKWMxbm5jKHMxKVtOSF1DKD1PKVtOSF1bQ0gyXVtDQEBIXTJbQ0gyXVtDSDJdW0NIMl1PMg==

> <s_epik_cmdline>
J2VwaWtfcHl0aG9uJywgJy1waCcsICc3LjAnLCAnLXRuJywgJzgnLCAnLW1hJywgJzIwMCcsICctbWV0YWxfYmluZGluZycsICctaW1hZScsICc8aW5maWxlLm1hZT4nLCAnLW9tYWUnLCAnPG91dGZpbGUubWFlPic=

> <r_lp_tautomer_probability>
1

> <r_epik_Ionization_Penalty>
0.000505257

> <r_epik_Ionization_Penalty_Charging>
0

> <r_epik_Ionization_Penalty_Neutral>
0.000505257

> <r_epik_State_Penalty>
-0

> <r_epik_Charging_Adjusted_Penalty>
0

> <i_epik_Tot_Q>
0

> <i_epik_Tot_abs_Q>
0

> <r_epik_Metal_State_Penalty>
0.219912

> <b_epik_Metal_Only>
0

> <s_lp_Force_Field>
OPLS_2005

> <r_lp_Energy>
10.2881

> <b_lp_Chiralities_Consistent>
1

> <s_lp_Variant>
AV-unprocessed.smi:1961-2

> <Gold.Version>
5.8.1

> <Gold.Id.Protein>
6NUR|6NUR_protein|mol2

> <Gold.PLP.Fitness>
32.6504

> <Gold.PLP.PLP>
-27.1717

> <Gold.PLP.part.hbond>
-4.5140

> <Gold.PLP.part.metal>
0.0000

> <Gold.PLP.part.buried>
-4.1649

> <Gold.PLP.part.nonpolar>
-19.0742

> <Gold.PLP.part.repulsive>
0.8274

> <Gold.PLP.ligand.clash>
0.0000

> <Gold.PLP.ligand.torsion>
0.3051

> <Gold.PLP.Chemscore.Hbond>
2.0000

> <Gold.PLP.Chemscore.CHOScore>
0.0000

> <Gold.PLP.Chemscore.Metal>
0.0000

> <Gold.Chemscore.Hbonds>
donor molecule, donor type, donor heavy atom, donor atom, acceptor molecule, acceptor atom, score
      L1  H     8    26       P1  7948  1.00
      L1  H    11    27       P1  7948  1.00

> <Gold.PLP.Chemscore.Internal.Correction>
0.0888

> <Gold.Rescore>
     Score         DG    S(hbond)    S(metal)    S(lipo)     H(rot)  DE(clash)    DE(int)     intcor
     13.33     -14.64       1.95        0.00      54.19       1.45       0.08       1.23       ----

> <Gold.Chemscore.Fitness>
13.3263

> <Gold.Chemscore.DG>
-14.6353

> <Gold.Chemscore.ZeroCoef>
-5.4800

> <Gold.Chemscore.Hbond>
1.9512

> <Gold.Chemscore.Metal>
0.0000

> <Gold.Chemscore.Lipo>
54.1913

> <Gold.Chemscore.Internal_Hbond>
0.0000

> <Gold.Chemscore.DEClash>
0.0801

> <Gold.Chemscore.DEInternal>
1.2289

> <Gold.Chemscore.Rot>
1.4461

> <Gold.Chemscore.Internal.Correction>
   9.000000E+99

> <Gold.Chemscore.Hbonds>
donor molecule, donor type, donor heavy atom, donor atom, acceptor molecule, acceptor atom, score
      L1  H     8    26       P1  7948  0.94
      L1  H    11    27       P1  7948  1.00

> <Gold.Chemscore.Hbond.Weighted>
-6.5169

> <Gold.Chemscore.Metal.Weighted>
-0.0000

> <Gold.Chemscore.Lipo.Weighted>
-6.3404

> <Gold.Chemscore.Internal_Hbond.Weighted>
0.0000

> <Gold.Chemscore.DEClash.Weighted>
0.0801

> <Gold.Chemscore.DEInternal.Weighted>
1.2289

> <Gold.Chemscore.Rot.Weighted>
3.7019

> <Gold.Chemscore.Internal.Correction.Weighted>
   9.000000E+99

> <Gold.Protein.RotatedTorsions>
[ 6907 6896 6895 6894 ] final   94.20 input  -60.11 | X-H torsion
[ 7974 7965 7964 7962 ] final  148.35 input  175.53 | X-H torsion
[ 8008 7997 7996 7995 ] final   -6.11 input   59.86 | X-H torsion
[ 10167 10162 10161 10158 ] final  -74.50 input  -65.29 | X-H torsion
[ 10718 10713 10712 10709 ] final   96.64 input   66.30 | X-H torsion
[ 10763 10752 10751 10750 ] final -162.47 input  -60.55 | X-H torsion
[ 11005 11000 10999 10996 ] final -109.48 input  -57.11 | X-H torsion

> <Gold.Protein.ActiveResidues>
 VAL166  LYS551  ARG553  GLY616  TRP617  ASP618  TYR619  PRO620  LYS621  CYS622 
 ASP623  PHE694  ASN695  SER759  ASP760  ASP761  ALA762  ILE779  LEU786  VAL792 
 PHE793  MET794  SER795  GLU796  ALA797  LYS798  CYS799  TRP800  GLU811  SER814 

> <Gold.Protein.RotatedAtoms>
  152.5450  134.1230  159.8406 H   0  0  0  0  0  0  0  0  0  0  0  0  # atno 6907 bound_to 6896
  151.1284  133.5047  159.2607 H   0  0  0  0  0  0  0  0  0  0  0  0  # atno 6908 bound_to 6896
  151.1702  135.0324  159.8803 H   0  0  0  0  0  0  0  0  0  0  0  0  # atno 6909 bound_to 6896
  144.8520  139.6143  143.5969 H   0  0  0  0  0  0  0  0  0  0  0  0  # atno 7974 bound_to 7965
  154.5971  140.2441  155.7842 H   0  0  0  0  0  0  0  0  0  0  0  0  # atno 8008 bound_to 7997
  156.2286  140.2974  156.0083 H   0  0  0  0  0  0  0  0  0  0  0  0  # atno 8009 bound_to 7997
  155.2275  140.0402  157.2948 H   0  0  0  0  0  0  0  0  0  0  0  0  # atno 8010 bound_to 7997
  140.5021  143.2359  151.7734 H   0  0  0  0  0  0  0  0  0  0  0  0  # atno 10167 bound_to 10162
  157.6924  131.0584  150.4522 H   0  0  0  0  0  0  0  0  0  0  0  0  # atno 10718 bound_to 10713
  154.7211  135.3026  154.9045 H   0  0  0  0  0  0  0  0  0  0  0  0  # atno 10763 bound_to 10752
  153.9917  135.6718  153.4758 H   0  0  0  0  0  0  0  0  0  0  0  0  # atno 10764 bound_to 10752
  153.0835  135.4996  154.8467 H   0  0  0  0  0  0  0  0  0  0  0  0  # atno 10765 bound_to 10752
  141.0845  133.9162  157.2216 H   0  0  0  0  0  0  0  0  0  0  0  0  # atno 11005 bound_to 11000
  146.2793  139.6834  142.9241 LP  0  0  0  0  0  0  0  0  0  0  0  0  # atno 17320 bound_to 7965
  145.4480  141.0426  143.2820 LP  0  0  0  0  0  0  0  0  0  0  0  0  # atno 17321 bound_to 7965
  139.4875  144.4507  151.9657 LP  0  0  0  0  0  0  0  0  0  0  0  0  # atno 17342 bound_to 10162
  140.3596  144.2989  150.5935 LP  0  0  0  0  0  0  0  0  0  0  0  0  # atno 17343 bound_to 10162
  156.4872  130.4087  149.6427 LP  0  0  0  0  0  0  0  0  0  0  0  0  # atno 17370 bound_to 10713
  156.3451  130.7402  151.2353 LP  0  0  0  0  0  0  0  0  0  0  0  0  # atno 17371 bound_to 10713
  139.9662  135.0141  156.9392 LP  0  0  0  0  0  0  0  0  0  0  0  0  # atno 17394 bound_to 11000
  140.5394  134.0735  155.7337 LP  0  0  0  0  0  0  0  0  0  0  0  0  # atno 17395 bound_to 11000

$$$$
