AV-unprocessed.smi:221|AV-procd|sdf|1693|dock10
  -GOLD-   2262020143D 1   1.00000     0.00000
 Structure written by MMmdl.
 50 53  0  0  0  0  0  0  0  0  1 V2000
  142.1216  134.0289  154.3266 N   0  0  0  0  0  0  0  0  0  0  0  0
  142.7811  135.0918  153.8609 C   0  0  0  0  0  0  0  0  0  0  0  0
  142.3749  136.2401  154.0325 O   0  0  0  0  0  0  0  0  0  0  0  0
  144.0742  134.8158  153.0770 C   0  0  1  0  0  0  0  0  0  0  0  0
  143.7721  134.2018  151.7000 C   0  0  0  0  0  0  0  0  0  0  0  0
  144.9548  134.6356  150.8397 C   0  0  2  0  0  0  0  0  0  0  0  0
  145.9862  133.8180  151.0572 F   0  0  0  0  0  0  0  0  0  0  0  0
  145.2868  136.0282  151.3753 C   0  0  0  0  0  0  0  0  0  0  0  0
  144.8123  136.0413  152.7542 N   0  0  0  0  0  0  0  0  0  0  0  0
  145.4984  136.7520  153.6888 C   0  0  0  0  0  0  0  0  0  0  0  0
  145.4951  136.3337  154.9828 N   0  0  0  0  0  0  0  0  0  0  0  0
  146.1607  137.0155  155.9189 C   0  0  0  0  0  0  0  0  0  0  0  0
  146.8815  138.1294  155.7849 N   0  0  0  0  0  0  0  0  0  0  0  0
  146.8832  138.5623  154.4920 C   0  0  0  0  0  0  0  0  0  0  0  0
  146.2267  137.9405  153.3912 C   0  0  0  0  0  0  0  0  0  0  0  0
  146.4473  138.6816  152.2351 N   0  0  0  0  0  0  0  0  0  0  0  0
  147.1877  139.6811  152.6292 C   0  0  0  0  0  0  0  0  0  0  0  0
  147.4923  139.6900  153.9705 N   0  0  0  0  0  0  0  0  0  0  0  0
  148.2843  140.6850  154.6713 C   0  0  0  0  0  0  0  0  0  0  0  0
  149.5048  140.0985  155.4303 C   0  0  1  0  0  0  0  0  0  0  0  0
  150.4976  139.3764  154.4828 C   0  0  0  0  0  0  0  0  0  0  0  0
  149.8328  138.5076  153.5885 O   0  0  0  0  0  0  0  0  0  0  0  0
  150.2123  141.2128  156.2459 C   0  0  2  0  0  0  0  0  0  0  0  0
  151.3374  140.7383  157.1523 C   0  0  0  0  0  0  0  0  0  0  0  0
  151.4882  141.9014  158.1264 C   0  0  0  0  0  0  0  0  0  0  0  0
  150.1881  142.4619  158.2613 O   0  0  0  0  0  0  0  0  0  0  0  0
  149.3188  141.9162  157.2751 C   0  0  0  0  0  0  0  0  0  0  0  0
  144.7230  134.1394  153.6371 H   0  0  0  0  0  0  0  0  0  0  0  0
  144.7435  134.6232  149.7702 H   0  0  0  0  0  0  0  0  0  0  0  0
  141.2700  134.1599  154.8529 H   0  0  0  0  0  0  0  0  0  0  0  0
  142.4784  133.0999  154.1570 H   0  0  0  0  0  0  0  0  0  0  0  0
  143.6564  133.1179  151.7383 H   0  0  0  0  0  0  0  0  0  0  0  0
  142.8546  134.6178  151.2797 H   0  0  0  0  0  0  0  0  0  0  0  0
  146.3533  136.2425  151.2874 H   0  0  0  0  0  0  0  0  0  0  0  0
  144.7406  136.7897  150.8174 H   0  0  0  0  0  0  0  0  0  0  0  0
  146.1067  136.6110  156.9189 H   0  0  0  0  0  0  0  0  0  0  0  0
  147.5277  140.4493  151.9501 H   0  0  0  0  0  0  0  0  0  0  0  0
  148.6164  141.4333  153.9506 H   0  0  0  0  0  0  0  0  0  0  0  0
  147.6148  141.2010  155.3594 H   0  0  0  0  0  0  0  0  0  0  0  0
  149.1342  139.3639  156.1473 H   0  0  0  0  0  0  0  0  0  0  0  0
  151.0925  140.0974  153.9214 H   0  0  0  0  0  0  0  0  0  0  0  0
  151.2009  138.7567  155.0361 H   0  0  0  0  0  0  0  0  0  0  0  0
  149.7750  138.9304  152.7451 H   0  0  0  0  0  0  0  0  0  0  0  0
  150.6125  141.9643  155.5630 H   0  0  0  0  0  0  0  0  0  0  0  0
  151.0401  139.8368  157.6899 H   0  0  0  0  0  0  0  0  0  0  0  0
  152.2672  140.5302  156.6231 H   0  0  0  0  0  0  0  0  0  0  0  0
  151.8909  141.5886  159.0899 H   0  0  0  0  0  0  0  0  0  0  0  0
  152.1520  142.6610  157.7118 H   0  0  0  0  0  0  0  0  0  0  0  0
  148.7016  142.6966  156.8298 H   0  0  0  0  0  0  0  0  0  0  0  0
  148.6565  141.2013  157.7653 H   0  0  0  0  0  0  0  0  0  0  0  0
  1  2  1  0  0  0  0
  1 30  1  0  0  0  0
  1 31  1  0  0  0  0
  2  3  2  0  0  0  0
  2  4  1  0  0  0  0
  4 28  1  0  0  0  0
  4  9  1  0  0  0  0
  4  5  1  0  0  0  0
  5  6  1  0  0  0  0
  5 32  1  0  0  0  0
  5 33  1  0  0  0  0
  6 29  1  0  0  0  0
  6  7  1  0  0  0  0
  6  8  1  0  0  0  0
  8  9  1  0  0  0  0
  8 34  1  0  0  0  0
  8 35  1  0  0  0  0
  9 10  1  0  0  0  0
 10 15  1  0  0  0  0
 10 11  2  0  0  0  0
 11 12  1  0  0  0  0
 12 13  2  0  0  0  0
 12 36  1  0  0  0  0
 13 14  1  0  0  0  0
 14 18  1  0  0  0  0
 14 15  2  0  0  0  0
 15 16  1  0  0  0  0
 16 17  2  0  0  0  0
 17 18  1  0  0  0  0
 17 37  1  0  0  0  0
 18 19  1  0  0  0  0
 19 20  1  0  0  0  0
 19 38  1  0  0  0  0
 19 39  1  0  0  0  0
 20 21  1  0  0  0  0
 20 23  1  0  0  0  0
 20 40  1  0  0  0  0
 21 22  1  0  0  0  0
 21 41  1  0  0  0  0
 21 42  1  0  0  0  0
 22 43  1  0  0  0  0
 23 27  1  0  0  0  0
 23 24  1  0  0  0  0
 23 44  1  0  0  0  0
 24 25  1  0  0  0  0
 24 45  1  0  0  0  0
 24 46  1  0  0  0  0
 25 26  1  0  0  0  0
 25 47  1  0  0  0  0
 25 48  1  0  0  0  0
 26 27  1  0  0  0  0
 27 49  1  0  0  0  0
 27 50  1  0  0  0  0
M  END
> <s_m_source_file>
AV-unprocessed.smi

> <i_m_source_file_index>
221

> <i_lp_mmshare_version>
43012

> <i_f3d_flags>
0

> <s_epik_input>
W05IMl1DKD1PKVtDQEBIXTFbQ0gyXVtDQEBIXShGKVtDSDJdTjFjKG5bY0hdbjIpYyhjMjMpbltjSF1uM1tDSDJdW0NASF0oW0NIMl1bT0hdKVtDQEBIXTRbQ0gyXVtDSDJdT1tDSDJdNA==

> <s_epik_cmdline>
J2VwaWtfcHl0aG9uJywgJy1waCcsICc3LjAnLCAnLXRuJywgJzgnLCAnLW1hJywgJzIwMCcsICctbWV0YWxfYmluZGluZycsICctaW1hZScsICc8aW5maWxlLm1hZT4nLCAnLW9tYWUnLCAnPG91dGZpbGUubWFlPic=

> <r_lp_tautomer_probability>
1

> <r_epik_Ionization_Penalty>
0.000818822

> <r_epik_Ionization_Penalty_Charging>
0

> <r_epik_Ionization_Penalty_Neutral>
0.000818822

> <r_epik_State_Penalty>
0.000440551

> <r_epik_Charging_Adjusted_Penalty>
0.000440551

> <i_epik_Tot_Q>
0

> <i_epik_Tot_abs_Q>
0

> <r_epik_Metal_State_Penalty>
-0

> <b_epik_Metal_Only>
0

> <s_lp_Force_Field>
OPLS_2005

> <r_lp_Energy>
48.2465

> <b_lp_Chiralities_Consistent>
1

> <s_lp_Variant>
AV-unprocessed.smi:221-8

> <Gold.Version>
5.8.1

> <Gold.Id.Protein>
6NUR|6NUR_protein|mol2

> <Gold.PLP.Fitness>
47.8691

> <Gold.PLP.PLP>
-37.9535

> <Gold.PLP.part.hbond>
-4.0000

> <Gold.PLP.part.metal>
0.0000

> <Gold.PLP.part.buried>
-3.8761

> <Gold.PLP.part.nonpolar>
-31.2304

> <Gold.PLP.part.repulsive>
0.5931

> <Gold.PLP.ligand.clash>
0.0000

> <Gold.PLP.ligand.torsion>
0.4726

> <Gold.PLP.Chemscore.Hbond>
2.8080

> <Gold.PLP.Chemscore.CHOScore>
0.7047

> <Gold.PLP.Chemscore.Metal>
0.0000

> <Gold.Chemscore.Hbonds>
donor molecule, donor type, donor heavy atom, donor atom, acceptor molecule, acceptor atom, score
      L1  H     1    30       P1 11000  0.96
      L1  H     1    31       P1 10957  0.74
      L1  H    22    43       P1  7957  1.00
      L1  C    17    37       P1  7957  0.67

> <Gold.PLP.Chemscore.Internal.Correction>
0.3225

> <Gold.Rescore>
     Score         DG    S(hbond)    S(metal)    S(lipo)     H(rot)  DE(clash)    DE(int)     intcor
      9.63     -14.25       2.81        0.00      67.11       3.31       1.53       3.08       ----

> <Gold.Chemscore.Fitness>
9.6306

> <Gold.Chemscore.DG>
-14.2464

> <Gold.Chemscore.ZeroCoef>
-5.4800

> <Gold.Chemscore.Hbond>
2.8100

> <Gold.Chemscore.Metal>
0.0000

> <Gold.Chemscore.Lipo>
67.1115

> <Gold.Chemscore.Internal_Hbond>
0.0000

> <Gold.Chemscore.DEClash>
1.5341

> <Gold.Chemscore.DEInternal>
3.0818

> <Gold.Chemscore.Rot>
3.3089

> <Gold.Chemscore.Internal.Correction>
   9.000000E+99

> <Gold.Chemscore.Hbonds>
donor molecule, donor type, donor heavy atom, donor atom, acceptor molecule, acceptor atom, score
      L1  H     1    30       P1 11000  0.86
      L1  H     1    31       P1 10957  0.71
      L1  H    22    43       P1  7957  0.85

> <Gold.Chemscore.Hbond.Weighted>
-9.3853

> <Gold.Chemscore.Metal.Weighted>
-0.0000

> <Gold.Chemscore.Lipo.Weighted>
-7.8520

> <Gold.Chemscore.Internal_Hbond.Weighted>
0.0000

> <Gold.Chemscore.DEClash.Weighted>
1.5341

> <Gold.Chemscore.DEInternal.Weighted>
3.0818

> <Gold.Chemscore.Rot.Weighted>
8.4709

> <Gold.Chemscore.Internal.Correction.Weighted>
   9.000000E+99

> <Gold.Protein.RotatedTorsions>
[ 6907 6896 6895 6894 ] final   83.45 input  -60.11 | X-H torsion
[ 7974 7965 7964 7962 ] final -104.13 input  175.53 | X-H torsion
[ 8008 7997 7996 7995 ] final -172.00 input   59.86 | X-H torsion
[ 10167 10162 10161 10158 ] final  150.52 input  -65.29 | X-H torsion
[ 10718 10713 10712 10709 ] final  101.03 input   66.30 | X-H torsion
[ 10763 10752 10751 10750 ] final  105.07 input  -60.55 | X-H torsion
[ 11005 11000 10999 10996 ] final -167.67 input  -57.11 | X-H torsion

> <Gold.Protein.ActiveResidues>
 VAL166  LYS551  ARG553  GLY616  TRP617  ASP618  TYR619  PRO620  LYS621  CYS622 
 ASP623  PHE694  ASN695  SER759  ASP760  ASP761  ALA762  ILE779  LEU786  VAL792 
 PHE793  MET794  SER795  GLU796  ALA797  LYS798  CYS799  TRP800  GLU811  SER814 

> <Gold.Protein.RotatedAtoms>
  152.5327  134.2894  159.9037 H   0  0  0  0  0  0  0  0  0  0  0  0  # atno 6907 bound_to 6896
  151.2847  133.4187  159.2637 H   0  0  0  0  0  0  0  0  0  0  0  0  # atno 6908 bound_to 6896
  151.0253  134.9515  159.8138 H   0  0  0  0  0  0  0  0  0  0  0  0  # atno 6909 bound_to 6896
  145.2471  140.9225  143.3117 H   0  0  0  0  0  0  0  0  0  0  0  0  # atno 7974 bound_to 7965
  155.9389  140.1105  157.1072 H   0  0  0  0  0  0  0  0  0  0  0  0  # atno 8008 bound_to 7997
  154.4085  140.1223  156.4966 H   0  0  0  0  0  0  0  0  0  0  0  0  # atno 8009 bound_to 7997
  155.6987  140.3472  155.4926 H   0  0  0  0  0  0  0  0  0  0  0  0  # atno 8010 bound_to 7997
  139.4849  144.5515  151.7392 H   0  0  0  0  0  0  0  0  0  0  0  0  # atno 10167 bound_to 10162
  157.6839  131.0715  150.5191 H   0  0  0  0  0  0  0  0  0  0  0  0  # atno 10718 bound_to 10713
  153.3744  135.3922  155.1812 H   0  0  0  0  0  0  0  0  0  0  0  0  # atno 10763 bound_to 10752
  154.8699  135.3710  154.4936 H   0  0  0  0  0  0  0  0  0  0  0  0  # atno 10764 bound_to 10752
  153.5407  135.7084  153.5699 H   0  0  0  0  0  0  0  0  0  0  0  0  # atno 10765 bound_to 10752
  140.5507  134.5431  157.5121 H   0  0  0  0  0  0  0  0  0  0  0  0  # atno 11005 bound_to 11000
  144.9537  139.4055  143.6390 LP  0  0  0  0  0  0  0  0  0  0  0  0  # atno 17320 bound_to 7965
  146.3313  139.8556  142.8865 LP  0  0  0  0  0  0  0  0  0  0  0  0  # atno 17321 bound_to 7965
  140.5070  144.1083  150.5985 LP  0  0  0  0  0  0  0  0  0  0  0  0  # atno 17342 bound_to 10162
  140.3995  143.2711  151.9964 LP  0  0  0  0  0  0  0  0  0  0  0  0  # atno 17343 bound_to 10162
  156.5505  130.4230  149.6110 LP  0  0  0  0  0  0  0  0  0  0  0  0  # atno 17370 bound_to 10713
  156.2907  130.7122  151.1970 LP  0  0  0  0  0  0  0  0  0  0  0  0  # atno 17371 bound_to 10713
  139.9457  134.7707  156.0569 LP  0  0  0  0  0  0  0  0  0  0  0  0  # atno 17394 bound_to 11000
  141.1173  133.6623  156.3127 LP  0  0  0  0  0  0  0  0  0  0  0  0  # atno 17395 bound_to 11000

$$$$
