AV-unprocessed.smi:2807|AV-procd|sdf|10818|dock10
  -GOLD-   2272015253D 1   1.00000     0.00000
 Structure written by MMmdl.
 32 33  0  0  0  0  0  0  0  0  1 V2000
  150.2614  140.2649  154.3747 O   0  0  0  0  0  0  0  0  0  0  0  0
  150.1620  139.9563  155.5629 C   0  0  0  0  0  0  0  0  0  0  0  0
  148.9816  139.7659  156.1762 N   0  0  0  0  0  0  0  0  0  0  0  0
  147.6627  139.8917  155.5542 C   0  0  2  0  0  0  0  0  0  0  0  0
  147.6860  139.3248  154.1204 C   0  0  0  0  0  0  0  0  0  0  0  0
  147.0578  140.3945  153.2234 C   0  0  0  0  0  0  0  0  0  0  0  0
  147.3485  141.7092  153.9396 C   0  0  0  0  0  0  0  0  0  0  0  0
  147.1898  141.3607  155.4206 C   0  0  2  0  0  0  0  0  0  0  0  0
  147.8722  142.2951  156.2358 O   0  0  0  0  0  0  0  0  0  0  0  0
  151.4220  139.7738  156.4224 C   0  0  0  0  0  0  0  0  0  0  0  0
  151.3352  138.6193  157.0884 F   0  0  0  0  0  0  0  0  0  0  0  0
  152.4851  139.7003  155.6180 F   0  0  0  0  0  0  0  0  0  0  0  0
  151.5741  140.9385  157.3972 C   0  0  0  0  0  0  0  0  0  0  0  0
  152.5105  140.8842  158.4546 C   0  0  0  0  0  0  0  0  0  0  0  0
  152.6192  141.9907  159.3185 C   0  0  0  0  0  0  0  0  0  0  0  0
  151.7947  143.1095  159.0956 C   0  0  0  0  0  0  0  0  0  0  0  0
  150.8951  143.0723  158.0126 C   0  0  0  0  0  0  0  0  0  0  0  0
  150.7827  142.0166  157.1784 N   0  0  0  0  0  0  0  0  0  0  0  0
  148.9986  139.5231  157.1565 H   0  0  0  0  0  0  0  0  0  0  0  0
  146.9243  139.3386  156.1375 H   0  0  0  0  0  0  0  0  0  0  0  0
  148.7115  139.1446  153.7935 H   0  0  0  0  0  0  0  0  0  0  0  0
  147.1564  138.3743  154.0468 H   0  0  0  0  0  0  0  0  0  0  0  0
  147.4511  140.3734  152.2067 H   0  0  0  0  0  0  0  0  0  0  0  0
  145.9793  140.2401  153.1666 H   0  0  0  0  0  0  0  0  0  0  0  0
  148.3745  142.0159  153.7296 H   0  0  0  0  0  0  0  0  0  0  0  0
  146.6869  142.5166  153.6240 H   0  0  0  0  0  0  0  0  0  0  0  0
  146.1297  141.4068  155.6744 H   0  0  0  0  0  0  0  0  0  0  0  0
  147.8795  143.1298  155.7929 H   0  0  0  0  0  0  0  0  0  0  0  0
  153.1369  140.0167  158.6017 H   0  0  0  0  0  0  0  0  0  0  0  0
  153.3243  141.9818  160.1367 H   0  0  0  0  0  0  0  0  0  0  0  0
  151.8519  143.9758  159.7380 H   0  0  0  0  0  0  0  0  0  0  0  0
  150.2482  143.9132  157.8103 H   0  0  0  0  0  0  0  0  0  0  0  0
  1  2  2  0  0  0  0
  2  3  1  0  0  0  0
  2 10  1  0  0  0  0
  3  4  1  0  0  0  0
  3 19  1  0  0  0  0
  4  8  1  0  0  0  0
  4  5  1  0  0  0  0
  4 20  1  0  0  0  0
  5  6  1  0  0  0  0
  5 21  1  0  0  0  0
  5 22  1  0  0  0  0
  6  7  1  0  0  0  0
  6 23  1  0  0  0  0
  6 24  1  0  0  0  0
  7  8  1  0  0  0  0
  7 25  1  0  0  0  0
  7 26  1  0  0  0  0
  8  9  1  0  0  0  0
  8 27  1  0  0  0  0
  9 28  1  0  0  0  0
 10 11  1  0  0  0  0
 10 12  1  0  0  0  0
 10 13  1  0  0  0  0
 13 18  1  0  0  0  0
 13 14  2  0  0  0  0
 14 15  1  0  0  0  0
 14 29  1  0  0  0  0
 15 16  2  0  0  0  0
 15 30  1  0  0  0  0
 16 17  1  0  0  0  0
 16 31  1  0  0  0  0
 17 18  2  0  0  0  0
 17 32  1  0  0  0  0
M  END
> <s_m_source_file>
AV-unprocessed.smi

> <i_m_source_file_index>
2807

> <i_lp_mmshare_version>
43012

> <i_f3d_flags>
0

> <s_epik_input>
bjFbY0hdW2NIXVtjSF1bY0hdYzFDKEYpKEYpQyg9TylbTkhdW0NAQEhdMltDSDJdW0NIMl1bQ0gyXVtDQEhdMltPSF0=

> <s_epik_cmdline>
J2VwaWtfcHl0aG9uJywgJy1waCcsICc3LjAnLCAnLXRuJywgJzgnLCAnLW1hJywgJzIwMCcsICctbWV0YWxfYmluZGluZycsICctaW1hZScsICc8aW5maWxlLm1hZT4nLCAnLW9tYWUnLCAnPG91dGZpbGUubWFlPic=

> <r_lp_tautomer_probability>
1

> <r_epik_Ionization_Penalty>
4.08325e-05

> <r_epik_Ionization_Penalty_Charging>
0

> <r_epik_Ionization_Penalty_Neutral>
4.08325e-05

> <r_epik_State_Penalty>
-0

> <r_epik_Charging_Adjusted_Penalty>
0

> <i_epik_Tot_Q>
0

> <i_epik_Tot_abs_Q>
0

> <r_epik_Metal_State_Penalty>
0.034564

> <b_epik_Metal_Only>
0

> <s_lp_Force_Field>
OPLS_2005

> <r_lp_Energy>
28.2651

> <b_lp_Chiralities_Consistent>
1

> <s_lp_Variant>
AV-unprocessed.smi:2807-3

> <Gold.Version>
5.8.1

> <Gold.Id.Protein>
6NUR|6NUR_protein|mol2

> <Gold.PLP.Fitness>
34.8191

> <Gold.PLP.PLP>
-28.6689

> <Gold.PLP.part.hbond>
-1.7349

> <Gold.PLP.part.metal>
0.0000

> <Gold.PLP.part.buried>
-2.5120

> <Gold.PLP.part.nonpolar>
-24.2232

> <Gold.PLP.part.repulsive>
0.1931

> <Gold.PLP.ligand.clash>
0.0000

> <Gold.PLP.ligand.torsion>
1.1070

> <Gold.PLP.Chemscore.Hbond>
1.7840

> <Gold.PLP.Chemscore.CHOScore>
1.0000

> <Gold.PLP.Chemscore.Metal>
0.0000

> <Gold.Chemscore.Hbonds>
donor molecule, donor type, donor heavy atom, donor atom, acceptor molecule, acceptor atom, score
      L1  H     9    28       P1  8028  0.86
      P1  H  7989  7998       L1     1  1.00
      L1  C    17    32       P1  8028  0.71

> <Gold.PLP.Chemscore.Internal.Correction>
0.0122

> <Gold.Rescore>
     Score         DG    S(hbond)    S(metal)    S(lipo)     H(rot)  DE(clash)    DE(int)     intcor
     12.68     -15.71       1.92        0.00      77.30       2.05       0.28       2.74       ----

> <Gold.Chemscore.Fitness>
12.6814

> <Gold.Chemscore.DG>
-15.7065

> <Gold.Chemscore.ZeroCoef>
-5.4800

> <Gold.Chemscore.Hbond>
1.9218

> <Gold.Chemscore.Metal>
0.0000

> <Gold.Chemscore.Lipo>
77.3046

> <Gold.Chemscore.Internal_Hbond>
0.0000

> <Gold.Chemscore.DEClash>
0.2827

> <Gold.Chemscore.DEInternal>
2.7424

> <Gold.Chemscore.Rot>
2.0457

> <Gold.Chemscore.Internal.Correction>
   9.000000E+99

> <Gold.Chemscore.Hbonds>
donor molecule, donor type, donor heavy atom, donor atom, acceptor molecule, acceptor atom, score
      L1  H     9    28       P1  8028  0.38
      P1  H  7989  7998       L1     1  0.95

> <Gold.Chemscore.Hbond.Weighted>
-6.4190

> <Gold.Chemscore.Metal.Weighted>
-0.0000

> <Gold.Chemscore.Lipo.Weighted>
-9.0446

> <Gold.Chemscore.Internal_Hbond.Weighted>
0.0000

> <Gold.Chemscore.DEClash.Weighted>
0.2827

> <Gold.Chemscore.DEInternal.Weighted>
2.7424

> <Gold.Chemscore.Rot.Weighted>
5.2371

> <Gold.Chemscore.Internal.Correction.Weighted>
   9.000000E+99

> <Gold.Protein.RotatedTorsions>
[ 6907 6896 6895 6894 ] final  -54.17 input  -60.11 | X-H torsion
[ 7974 7965 7964 7962 ] final  148.83 input  175.53 | X-H torsion
[ 8008 7997 7996 7995 ] final  -27.95 input   59.86 | X-H torsion
[ 10167 10162 10161 10158 ] final  -98.05 input  -65.29 | X-H torsion
[ 10718 10713 10712 10709 ] final  166.19 input   66.30 | X-H torsion
[ 10763 10752 10751 10750 ] final  -49.23 input  -60.55 | X-H torsion
[ 11005 11000 10999 10996 ] final -117.70 input  -57.11 | X-H torsion

> <Gold.Protein.ActiveResidues>
 VAL166  LYS551  ARG553  GLY616  TRP617  ASP618  TYR619  PRO620  LYS621  CYS622 
 ASP623  PHE694  ASN695  SER759  ASP760  ASP761  ALA762  ILE779  LEU786  VAL792 
 PHE793  MET794  SER795  GLU796  ALA797  LYS798  CYS799  TRP800  GLU811  SER814 

> <Gold.Protein.RotatedAtoms>
  150.8361  134.7635  159.6893 H   0  0  0  0  0  0  0  0  0  0  0  0  # atno 6907 bound_to 6896
  152.4458  134.5495  159.9872 H   0  0  0  0  0  0  0  0  0  0  0  0  # atno 6908 bound_to 6896
  151.5645  133.3361  159.3013 H   0  0  0  0  0  0  0  0  0  0  0  0  # atno 6909 bound_to 6896
  144.8484  139.6204  143.5985 H   0  0  0  0  0  0  0  0  0  0  0  0  # atno 7974 bound_to 7965
  154.4354  140.1858  156.1012 H   0  0  0  0  0  0  0  0  0  0  0  0  # atno 8008 bound_to 7997
  156.0290  140.3332  155.7094 H   0  0  0  0  0  0  0  0  0  0  0  0  # atno 8009 bound_to 7997
  155.5866  140.0627  157.2760 H   0  0  0  0  0  0  0  0  0  0  0  0  # atno 8010 bound_to 7997
  140.2770  143.3306  152.0479 H   0  0  0  0  0  0  0  0  0  0  0  0  # atno 10167 bound_to 10162
  157.0694  131.0362  151.2617 H   0  0  0  0  0  0  0  0  0  0  0  0  # atno 10718 bound_to 10713
  154.0907  135.6578  153.4852 H   0  0  0  0  0  0  0  0  0  0  0  0  # atno 10763 bound_to 10752
  153.0323  135.5201  154.7383 H   0  0  0  0  0  0  0  0  0  0  0  0  # atno 10764 bound_to 10752
  154.6506  135.3001  154.9960 H   0  0  0  0  0  0  0  0  0  0  0  0  # atno 10765 bound_to 10752
  141.0337  133.9943  157.3104 H   0  0  0  0  0  0  0  0  0  0  0  0  # atno 11005 bound_to 11000
  146.2764  139.6763  142.9260 LP  0  0  0  0  0  0  0  0  0  0  0  0  # atno 17320 bound_to 7965
  145.4551  141.0430  143.2783 LP  0  0  0  0  0  0  0  0  0  0  0  0  # atno 17321 bound_to 7965
  139.4973  144.6618  151.6448 LP  0  0  0  0  0  0  0  0  0  0  0  0  # atno 17342 bound_to 10162
  140.5843  143.9892  150.6286 LP  0  0  0  0  0  0  0  0  0  0  0  0  # atno 17343 bound_to 10162
  157.4890  130.7811  149.7489 LP  0  0  0  0  0  0  0  0  0  0  0  0  # atno 17370 bound_to 10713
  155.9955  130.3911  150.2817 LP  0  0  0  0  0  0  0  0  0  0  0  0  # atno 17371 bound_to 10713
  139.9225  135.0201  156.8117 LP  0  0  0  0  0  0  0  0  0  0  0  0  # atno 17394 bound_to 11000
  140.6361  133.9861  155.7685 LP  0  0  0  0  0  0  0  0  0  0  0  0  # atno 17395 bound_to 11000

$$$$
