AV-unprocessed.smi:517|AV-procd|sdf|2788|dock5
  -GOLD-   2262023263D 1   1.00000     0.00000
 Structure written by MMmdl.
 35 36  0  0  0  0  0  0  0  0  1 V2000
  148.5557  141.7666  154.2770 C   0  0  0  0  0  0  0  0  0  0  0  0
  149.2671  140.4119  154.2558 C   0  0  0  0  0  0  0  0  0  0  0  0
  150.5858  140.5869  154.7421 O   0  0  0  0  0  0  0  0  0  0  0  0
  150.6434  140.7397  156.1507 C   0  0  0  0  0  0  0  0  0  0  0  0
  152.0460  140.3599  156.6468 C   0  0  0  0  0  0  0  0  0  0  0  0
  152.3351  140.9249  157.9577 N   0  0  0  0  0  0  0  0  0  0  0  0
  152.8499  140.3034  159.0499 C   0  0  0  0  0  0  0  0  0  0  0  0
  153.2010  138.8403  159.0496 C   0  0  2  0  0  0  0  0  0  0  0  0
  153.7571  138.3868  160.4062 C   0  0  0  0  0  0  0  0  0  0  0  0
  154.1505  138.5146  158.0544 O   0  0  0  0  0  0  0  0  0  0  0  0
  152.9922  141.0694  160.1343 N   0  0  0  0  0  0  0  0  0  0  0  0
  152.5514  142.3032  159.6994 C   0  0  0  0  0  0  0  0  0  0  0  0
  152.4631  143.5390  160.3793 C   0  0  0  0  0  0  0  0  0  0  0  0
  151.9767  144.6850  159.7169 C   0  0  0  0  0  0  0  0  0  0  0  0
  151.5711  144.6116  158.3687 C   0  0  0  0  0  0  0  0  0  0  0  0
  151.6473  143.3890  157.6742 C   0  0  0  0  0  0  0  0  0  0  0  0
  152.1346  142.2481  158.3398 C   0  0  0  0  0  0  0  0  0  0  0  0
  147.5372  141.6787  153.8990 H   0  0  0  0  0  0  0  0  0  0  0  0
  149.0819  142.4939  153.6582 H   0  0  0  0  0  0  0  0  0  0  0  0
  148.5039  142.1649  155.2905 H   0  0  0  0  0  0  0  0  0  0  0  0
  148.7263  139.6968  154.8774 H   0  0  0  0  0  0  0  0  0  0  0  0
  149.2905  140.0177  153.2389 H   0  0  0  0  0  0  0  0  0  0  0  0
  150.4227  141.7731  156.4214 H   0  0  0  0  0  0  0  0  0  0  0  0
  149.8910  140.1094  156.6271 H   0  0  0  0  0  0  0  0  0  0  0  0
  152.1347  139.2748  156.7105 H   0  0  0  0  0  0  0  0  0  0  0  0
  152.8064  140.6816  155.9356 H   0  0  0  0  0  0  0  0  0  0  0  0
  152.3112  138.2569  158.8157 H   0  0  0  0  0  0  0  0  0  0  0  0
  153.0377  138.5679  161.2051 H   0  0  0  0  0  0  0  0  0  0  0  0
  154.6736  138.9216  160.6582 H   0  0  0  0  0  0  0  0  0  0  0  0
  153.9834  137.3202  160.4029 H   0  0  0  0  0  0  0  0  0  0  0  0
  153.7817  137.8461  157.4975 H   0  0  0  0  0  0  0  0  0  0  0  0
  152.7717  143.6052  161.4120 H   0  0  0  0  0  0  0  0  0  0  0  0
  151.9156  145.6251  160.2453 H   0  0  0  0  0  0  0  0  0  0  0  0
  151.2019  145.4943  157.8674 H   0  0  0  0  0  0  0  0  0  0  0  0
  151.3403  143.3300  156.6406 H   0  0  0  0  0  0  0  0  0  0  0  0
  1  2  1  0  0  0  0
  1 18  1  0  0  0  0
  1 19  1  0  0  0  0
  1 20  1  0  0  0  0
  2  3  1  0  0  0  0
  2 21  1  0  0  0  0
  2 22  1  0  0  0  0
  3  4  1  0  0  0  0
  4  5  1  0  0  0  0
  4 23  1  0  0  0  0
  4 24  1  0  0  0  0
  5  6  1  0  0  0  0
  5 25  1  0  0  0  0
  5 26  1  0  0  0  0
  6 17  1  0  0  0  0
  6  7  1  0  0  0  0
  7  8  1  0  0  0  0
  7 11  2  0  0  0  0
  8  9  1  0  0  0  0
  8 10  1  0  0  0  0
  8 27  1  0  0  0  0
  9 28  1  0  0  0  0
  9 29  1  0  0  0  0
  9 30  1  0  0  0  0
 10 31  1  0  0  0  0
 11 12  1  0  0  0  0
 12 17  2  0  0  0  0
 12 13  1  0  0  0  0
 13 14  2  0  0  0  0
 13 32  1  0  0  0  0
 14 15  1  0  0  0  0
 14 33  1  0  0  0  0
 15 16  2  0  0  0  0
 15 34  1  0  0  0  0
 16 17  1  0  0  0  0
 16 35  1  0  0  0  0
M  END
> <s_m_source_file>
AV-unprocessed.smi

> <i_m_source_file_index>
517

> <i_lp_mmshare_version>
43012

> <i_f3d_flags>
0

> <s_epik_input>
W0NIM11bQ0gyXU9bQ0gyXVtDSDJdbihjKG4xKVtDQEhdKFtDSDNdKVtPSF0pYyhjMTIpW2NIXVtjSF1bY0hdW2NIXTI=

> <s_epik_cmdline>
J2VwaWtfcHl0aG9uJywgJy1waCcsICc3LjAnLCAnLXRuJywgJzgnLCAnLW1hJywgJzIwMCcsICctbWV0YWxfYmluZGluZycsICctaW1hZScsICc8aW5maWxlLm1hZT4nLCAnLW9tYWUnLCAnPG91dGZpbGUubWFlPic=

> <r_epik_Ionization_Penalty>
0.0517997

> <r_epik_Ionization_Penalty_Charging>
0

> <r_epik_Ionization_Penalty_Neutral>
0.0517997

> <r_epik_State_Penalty>
0.0443961

> <r_epik_Charging_Adjusted_Penalty>
0.0443961

> <i_epik_Tot_Q>
0

> <i_epik_Tot_abs_Q>
0

> <r_epik_Metal_State_Penalty>
4.60999e-05

> <b_epik_Metal_Only>
0

> <s_lp_Force_Field>
OPLS_2005

> <r_lp_Energy>
5.78947

> <b_lp_Chiralities_Consistent>
1

> <s_lp_Variant>
AV-unprocessed.smi:517-1

> <Gold.Version>
5.8.1

> <Gold.Id.Protein>
6NUR|6NUR_protein|mol2

> <Gold.PLP.Fitness>
44.9025

> <Gold.PLP.PLP>
-39.6933

> <Gold.PLP.part.hbond>
-2.0000

> <Gold.PLP.part.metal>
0.0000

> <Gold.PLP.part.buried>
-5.1534

> <Gold.PLP.part.nonpolar>
-32.7629

> <Gold.PLP.part.repulsive>
0.0840

> <Gold.PLP.ligand.clash>
0.0000

> <Gold.PLP.ligand.torsion>
0.4096

> <Gold.PLP.Chemscore.Hbond>
2.0000

> <Gold.PLP.Chemscore.CHOScore>
0.0000

> <Gold.PLP.Chemscore.Metal>
0.0000

> <Gold.Chemscore.Hbonds>
donor molecule, donor type, donor heavy atom, donor atom, acceptor molecule, acceptor atom, score
      P1  H  7989  7998       L1     3  0.98
      P1  H  7997  8008       L1    10  1.00

> <Gold.PLP.Chemscore.Internal.Correction>
0.0283

> <Gold.Rescore>
     Score         DG    S(hbond)    S(metal)    S(lipo)     H(rot)  DE(clash)    DE(int)     intcor
     17.59     -18.58       1.80        0.00     106.56       2.11       0.00       0.99       ----

> <Gold.Chemscore.Fitness>
17.5943

> <Gold.Chemscore.DG>
-18.5832

> <Gold.Chemscore.ZeroCoef>
-5.4800

> <Gold.Chemscore.Hbond>
1.8040

> <Gold.Chemscore.Metal>
0.0000

> <Gold.Chemscore.Lipo>
106.5582

> <Gold.Chemscore.Internal_Hbond>
0.0000

> <Gold.Chemscore.DEClash>
0.0025

> <Gold.Chemscore.DEInternal>
0.9864

> <Gold.Chemscore.Rot>
2.1052

> <Gold.Chemscore.Internal.Correction>
   9.000000E+99

> <Gold.Chemscore.Hbonds>
donor molecule, donor type, donor heavy atom, donor atom, acceptor molecule, acceptor atom, score
      P1  H  7989  7998       L1     3  0.69
      P1  H  7997  8008       L1    10  0.61

> <Gold.Chemscore.Hbond.Weighted>
-6.0254

> <Gold.Chemscore.Metal.Weighted>
-0.0000

> <Gold.Chemscore.Lipo.Weighted>
-12.4673

> <Gold.Chemscore.Internal_Hbond.Weighted>
0.0000

> <Gold.Chemscore.DEClash.Weighted>
0.0025

> <Gold.Chemscore.DEInternal.Weighted>
0.9864

> <Gold.Chemscore.Rot.Weighted>
5.3894

> <Gold.Chemscore.Internal.Correction.Weighted>
   9.000000E+99

> <Gold.Protein.RotatedTorsions>
[ 6907 6896 6895 6894 ] final   84.12 input  -60.11 | X-H torsion
[ 7974 7965 7964 7962 ] final   81.21 input  175.53 | X-H torsion
[ 8008 7997 7996 7995 ] final  -88.05 input   59.86 | X-H torsion
[ 10167 10162 10161 10158 ] final -119.75 input  -65.29 | X-H torsion
[ 10718 10713 10712 10709 ] final   87.24 input   66.30 | X-H torsion
[ 10763 10752 10751 10750 ] final  161.98 input  -60.55 | X-H torsion
[ 11005 11000 10999 10996 ] final  -49.29 input  -57.11 | X-H torsion

> <Gold.Protein.ActiveResidues>
 VAL166  LYS551  ARG553  GLY616  TRP617  ASP618  TYR619  PRO620  LYS621  CYS622 
 ASP623  PHE694  ASN695  SER759  ASP760  ASP761  ALA762  ILE779  LEU786  VAL792 
 PHE793  MET794  SER795  GLU796  ALA797  LYS798  CYS799  TRP800  GLU811  SER814 

> <Gold.Protein.RotatedAtoms>
  152.5344  134.2790  159.8999 H   0  0  0  0  0  0  0  0  0  0  0  0  # atno 6907 bound_to 6896
  151.2744  133.4233  159.2631 H   0  0  0  0  0  0  0  0  0  0  0  0  # atno 6908 bound_to 6896
  151.0339  134.9574  159.8182 H   0  0  0  0  0  0  0  0  0  0  0  0  # atno 6909 bound_to 6896
  145.6411  139.2426  143.2030 H   0  0  0  0  0  0  0  0  0  0  0  0  # atno 7974 bound_to 7965
  154.6703  140.0558  157.0158 H   0  0  0  0  0  0  0  0  0  0  0  0  # atno 8008 bound_to 7997
  155.1098  140.3237  155.4506 H   0  0  0  0  0  0  0  0  0  0  0  0  # atno 8009 bound_to 7997
  156.2655  140.2016  156.6223 H   0  0  0  0  0  0  0  0  0  0  0  0  # atno 8010 bound_to 7997
  140.0433  143.5132  152.2119 H   0  0  0  0  0  0  0  0  0  0  0  0  # atno 10167 bound_to 10162
  157.6938  131.0248  150.3094 H   0  0  0  0  0  0  0  0  0  0  0  0  # atno 10718 bound_to 10713
  154.2713  135.2765  155.2737 H   0  0  0  0  0  0  0  0  0  0  0  0  # atno 10763 bound_to 10752
  154.5299  135.5732  153.6754 H   0  0  0  0  0  0  0  0  0  0  0  0  # atno 10764 bound_to 10752
  152.9944  135.6225  154.2868 H   0  0  0  0  0  0  0  0  0  0  0  0  # atno 10765 bound_to 10752
  141.0750  133.6668  156.3563 H   0  0  0  0  0  0  0  0  0  0  0  0  # atno 11005 bound_to 11000
  146.1280  140.7223  142.9426 LP  0  0  0  0  0  0  0  0  0  0  0  0  # atno 17320 bound_to 7965
  144.7157  140.4200  143.7046 LP  0  0  0  0  0  0  0  0  0  0  0  0  # atno 17321 bound_to 7965
  139.6000  144.7579  151.3195 LP  0  0  0  0  0  0  0  0  0  0  0  0  # atno 17342 bound_to 10162
  140.7250  143.7028  150.7831 LP  0  0  0  0  0  0  0  0  0  0  0  0  # atno 17343 bound_to 10162
  156.3598  130.3845  149.7261 LP  0  0  0  0  0  0  0  0  0  0  0  0  # atno 17370 bound_to 10713
  156.4711  130.7997  151.3015 LP  0  0  0  0  0  0  0  0  0  0  0  0  # atno 17371 bound_to 10713
  140.5592  134.5951  157.5429 LP  0  0  0  0  0  0  0  0  0  0  0  0  # atno 17394 bound_to 11000
  139.9563  134.7530  156.0335 LP  0  0  0  0  0  0  0  0  0  0  0  0  # atno 17395 bound_to 11000

$$$$
