AV-unprocessed.smi:36|AV-procd|sdf|289|dock5
  -GOLD-   2262016 73D 1   1.00000     0.00000
 Structure written by MMmdl.
 64 67  0  0  0  0  0  0  0  0  1 V2000
  144.5993  131.5877  151.4951 C   0  0  0  0  0  0  0  0  0  0  0  0
  144.9268  132.8818  150.7316 C   0  0  0  0  0  0  0  0  0  0  0  0
  146.3793  132.8394  150.2272 C   0  0  0  0  0  0  0  0  0  0  0  0
  143.9696  133.0431  149.5391 C   0  0  0  0  0  0  0  0  0  0  0  0
  144.7237  134.3781  151.9013 Si  0  0  0  0  0  0  0  0  0  0  0  0
  145.1705  136.0029  151.0243 C   0  0  0  0  0  0  0  0  0  0  0  0
  142.9462  134.4826  152.5671 C   0  0  0  0  0  0  0  0  0  0  0  0
  145.7967  134.1674  153.1942 O   0  0  0  0  0  0  0  0  0  0  0  0
  147.1968  134.3373  153.1047 C   0  0  0  0  0  0  0  0  0  0  0  0
  147.8597  133.8656  154.4063 C   0  0  2  0  0  0  0  0  0  0  0  0
  147.9416  134.9671  155.3057 O   0  0  0  0  0  0  0  0  0  0  0  0
  149.0906  134.8060  156.0646 C   0  0  2  0  0  0  0  0  0  0  0  0
  149.4883  136.1308  156.6216 N   0  0  0  0  0  0  0  0  0  0  0  0
  149.7709  136.4277  157.9046 C   0  0  0  0  0  0  0  0  0  0  0  0
  150.0950  137.6972  158.1360 N   0  0  0  0  0  0  0  0  0  0  0  0
  150.0059  138.2691  156.8709 C   0  0  0  0  0  0  0  0  0  0  0  0
  150.2377  139.6621  156.4320 C   0  0  0  0  0  0  0  0  0  0  0  0
  150.5905  140.5266  157.3344 N   0  0  0  0  0  0  0  0  0  0  0  0
  150.8206  141.8496  156.9807 C   0  0  0  0  0  0  0  0  0  0  0  0
  150.6454  142.4017  155.8909 O   0  0  0  0  0  0  0  0  0  0  0  0
  151.3459  142.6769  158.1079 C   0  0  0  0  0  0  0  0  0  0  0  0
  151.7326  142.0612  159.3173 C   0  0  0  0  0  0  0  0  0  0  0  0
  152.2176  142.8432  160.3839 C   0  0  0  0  0  0  0  0  0  0  0  0
  152.3149  144.2414  160.2456 C   0  0  0  0  0  0  0  0  0  0  0  0
  151.9279  144.8584  159.0403 C   0  0  0  0  0  0  0  0  0  0  0  0
  151.4428  144.0780  157.9726 C   0  0  0  0  0  0  0  0  0  0  0  0
  150.0161  139.7695  155.0528 N   0  0  0  0  0  0  0  0  0  0  0  0
  149.6315  138.7254  154.1970 C   0  0  0  0  0  0  0  0  0  0  0  0
  149.4251  137.4905  154.5706 N   0  0  0  0  0  0  0  0  0  0  0  0
  149.6333  137.3303  155.9332 C   0  0  0  0  0  0  0  0  0  0  0  0
  150.1402  134.2878  155.0937 C   0  0  0  0  0  0  0  0  0  0  0  0
  149.3081  133.3622  154.2204 C   0  0  1  0  0  0  0  0  0  0  0  0
  149.4250  132.0273  154.6727 O   0  0  0  0  0  0  0  0  0  0  0  0
  144.7068  130.7117  150.8544 H   0  0  0  0  0  0  0  0  0  0  0  0
  143.5759  131.5964  151.8711 H   0  0  0  0  0  0  0  0  0  0  0  0
  145.2627  131.4521  152.3496 H   0  0  0  0  0  0  0  0  0  0  0  0
  147.0834  132.7129  151.0500 H   0  0  0  0  0  0  0  0  0  0  0  0
  146.6454  133.7605  149.7071 H   0  0  0  0  0  0  0  0  0  0  0  0
  146.5345  132.0126  149.5333 H   0  0  0  0  0  0  0  0  0  0  0  0
  144.0719  132.2173  148.8342 H   0  0  0  0  0  0  0  0  0  0  0  0
  144.1685  133.9670  148.9949 H   0  0  0  0  0  0  0  0  0  0  0  0
  142.9293  133.0699  149.8638 H   0  0  0  0  0  0  0  0  0  0  0  0
  144.5239  136.1862  150.1664 H   0  0  0  0  0  0  0  0  0  0  0  0
  146.1980  135.9939  150.6616 H   0  0  0  0  0  0  0  0  0  0  0  0
  145.0710  136.8574  151.6934 H   0  0  0  0  0  0  0  0  0  0  0  0
  142.2274  134.6397  151.7633 H   0  0  0  0  0  0  0  0  0  0  0  0
  142.8295  135.3075  153.2696 H   0  0  0  0  0  0  0  0  0  0  0  0
  142.6565  133.5696  153.0867 H   0  0  0  0  0  0  0  0  0  0  0  0
  147.5728  133.7698  152.2531 H   0  0  0  0  0  0  0  0  0  0  0  0
  147.4305  135.3862  152.9177 H   0  0  0  0  0  0  0  0  0  0  0  0
  147.2464  133.1007  154.8838 H   0  0  0  0  0  0  0  0  0  0  0  0
  148.9107  134.1508  156.9184 H   0  0  0  0  0  0  0  0  0  0  0  0
  149.7359  135.6905  158.6935 H   0  0  0  0  0  0  0  0  0  0  0  0
  151.6577  140.9894  159.4318 H   0  0  0  0  0  0  0  0  0  0  0  0
  152.5135  142.3700  161.3087 H   0  0  0  0  0  0  0  0  0  0  0  0
  152.6853  144.8405  161.0644 H   0  0  0  0  0  0  0  0  0  0  0  0
  152.0014  145.9307  158.9352 H   0  0  0  0  0  0  0  0  0  0  0  0
  151.1442  144.5587  157.0521 H   0  0  0  0  0  0  0  0  0  0  0  0
  149.5116  139.0272  153.1557 H   0  0  0  0  0  0  0  0  0  0  0  0
  150.5239  135.1190  154.4999 H   0  0  0  0  0  0  0  0  0  0  0  0
  150.9689  133.8080  155.6162 H   0  0  0  0  0  0  0  0  0  0  0  0
  149.6377  133.4093  153.1816 H   0  0  0  0  0  0  0  0  0  0  0  0
  150.3258  131.8693  154.9108 H   0  0  0  0  0  0  0  0  0  0  0  0
  150.1453  140.6811  154.6380 H   0  0  0  0  0  0  0  0  0  0  0  0
  1  2  1  0  0  0  0
  1 34  1  0  0  0  0
  1 35  1  0  0  0  0
  1 36  1  0  0  0  0
  2  3  1  0  0  0  0
  2  4  1  0  0  0  0
  2  5  1  0  0  0  0
  3 37  1  0  0  0  0
  3 38  1  0  0  0  0
  3 39  1  0  0  0  0
  4 40  1  0  0  0  0
  4 41  1  0  0  0  0
  4 42  1  0  0  0  0
  5  6  1  0  0  0  0
  5  7  1  0  0  0  0
  5  8  1  0  0  0  0
  6 43  1  0  0  0  0
  6 44  1  0  0  0  0
  6 45  1  0  0  0  0
  7 46  1  0  0  0  0
  7 47  1  0  0  0  0
  7 48  1  0  0  0  0
  8  9  1  0  0  0  0
  9 10  1  0  0  0  0
  9 49  1  0  0  0  0
  9 50  1  0  0  0  0
 10 32  1  0  0  0  0
 10 11  1  0  0  0  0
 10 51  1  0  0  0  0
 11 12  1  0  0  0  0
 12 13  1  0  0  0  0
 12 31  1  0  0  0  0
 12 52  1  0  0  0  0
 13 30  1  0  0  0  0
 13 14  1  0  0  0  0
 14 15  2  0  0  0  0
 14 53  1  0  0  0  0
 15 16  1  0  0  0  0
 16 30  2  0  0  0  0
 16 17  1  0  0  0  0
 17 18  2  0  0  0  0
 17 27  1  0  0  0  0
 18 19  1  0  0  0  0
 19 20  2  0  0  0  0
 19 21  1  0  0  0  0
 21 26  1  0  0  0  0
 21 22  2  0  0  0  0
 22 23  1  0  0  0  0
 22 54  1  0  0  0  0
 23 24  2  0  0  0  0
 23 55  1  0  0  0  0
 24 25  1  0  0  0  0
 24 56  1  0  0  0  0
 25 26  2  0  0  0  0
 25 57  1  0  0  0  0
 26 58  1  0  0  0  0
 27 28  1  0  0  0  0
 27 64  1  0  0  0  0
 28 29  2  0  0  0  0
 28 59  1  0  0  0  0
 29 30  1  0  0  0  0
 31 32  1  0  0  0  0
 31 60  1  0  0  0  0
 31 61  1  0  0  0  0
 32 33  1  0  0  0  0
 32 62  1  0  0  0  0
 33 63  1  0  0  0  0
M  END
> <s_m_source_file>
AV-unprocessed.smi

> <i_m_source_file_index>
36

> <i_lp_mmshare_version>
43012

> <i_f3d_flags>
0

> <s_epik_input>
W0NIM11DKFtDSDNdKShbQ0gzXSlbU2ldKFtDSDNdKShbQ0gzXSlPW0NIMl1bQ0BASF0xT1tDQEhdKFtDSDJdW0NASF0xW09IXSluKFtjSF1uMiljKGMyMyluW2NIXW5jM1tOSF1DKD1PKWM0W2NIXVtjSF1bY0hdW2NIXVtjSF00

> <s_epik_cmdline>
J2VwaWtfcHl0aG9uJywgJy1waCcsICc3LjAnLCAnLXRuJywgJzgnLCAnLW1hJywgJzIwMCcsICctbWV0YWxfYmluZGluZycsICctaW1hZScsICc8aW5maWxlLm1hZT4nLCAnLW9tYWUnLCAnPG91dGZpbGUubWFlPic=

> <r_epik_Ionization_Penalty>
0.0850405

> <r_epik_Ionization_Penalty_Charging>
0.0850403

> <r_epik_Ionization_Penalty_Neutral>
1.47497e-07

> <r_epik_State_Penalty>
2.6133

> <r_epik_Charging_Adjusted_Penalty>
2.69834

> <i_epik_Tot_Q>
0

> <i_epik_Tot_abs_Q>
0

> <r_epik_Metal_State_Penalty>
2.92945

> <b_epik_Metal_Only>
0

> <s_epik_Chemistry_Notes>
This compound contains an acetal/aminal-like group ( X-CH(R)-Y where X, Y are N, S, or O) that may be acid/base labile, releasing an aldehyde.

> <s_lp_Force_Field>
OPLS_2005

> <r_lp_Energy>
44.9546

> <b_lp_Chiralities_Consistent>
1

> <s_lp_Variant>
AV-unprocessed.smi:36-11

> <Gold.Version>
5.8.1

> <Gold.Id.Protein>
6NUR|6NUR_protein|mol2

> <Gold.PLP.Fitness>
52.1910

> <Gold.PLP.PLP>
-50.1745

> <Gold.PLP.part.hbond>
-0.1740

> <Gold.PLP.part.metal>
0.0000

> <Gold.PLP.part.buried>
-3.1549

> <Gold.PLP.part.nonpolar>
-48.2656

> <Gold.PLP.part.repulsive>
1.9695

> <Gold.PLP.ligand.clash>
0.0000

> <Gold.PLP.ligand.torsion>
0.6687

> <Gold.PLP.Chemscore.Hbond>
0.0000

> <Gold.PLP.Chemscore.CHOScore>
1.0000

> <Gold.PLP.Chemscore.Metal>
0.0000

> <Gold.Chemscore.Hbonds>
donor molecule, donor type, donor heavy atom, donor atom, acceptor molecule, acceptor atom, score
      L1  C    28    59       P1  7957  1.00

> <Gold.PLP.Chemscore.Internal.Correction>
0.3538

> <Gold.Rescore>
     Score         DG    S(hbond)    S(metal)    S(lipo)     H(rot)  DE(clash)    DE(int)     intcor
     12.37     -14.23       0.00        0.00     133.99       2.70       0.22       1.64       ----

> <Gold.Chemscore.Fitness>
12.3701

> <Gold.Chemscore.DG>
-14.2343

> <Gold.Chemscore.ZeroCoef>
-5.4800

> <Gold.Chemscore.Hbond>
0.0000

> <Gold.Chemscore.Metal>
0.0000

> <Gold.Chemscore.Lipo>
133.9896

> <Gold.Chemscore.Internal_Hbond>
0.0000

> <Gold.Chemscore.DEClash>
0.2214

> <Gold.Chemscore.DEInternal>
1.6428

> <Gold.Chemscore.Rot>
2.7041

> <Gold.Chemscore.Internal.Correction>
   9.000000E+99

> <Gold.Chemscore.Hbond.Weighted>
-0.0000

> <Gold.Chemscore.Metal.Weighted>
-0.0000

> <Gold.Chemscore.Lipo.Weighted>
-15.6768

> <Gold.Chemscore.Internal_Hbond.Weighted>
0.0000

> <Gold.Chemscore.DEClash.Weighted>
0.2214

> <Gold.Chemscore.DEInternal.Weighted>
1.6428

> <Gold.Chemscore.Rot.Weighted>
6.9225

> <Gold.Chemscore.Internal.Correction.Weighted>
   9.000000E+99

> <Gold.Protein.RotatedTorsions>
[ 6907 6896 6895 6894 ] final -166.75 input  -60.11 | X-H torsion
[ 7974 7965 7964 7962 ] final -175.33 input  175.53 | X-H torsion
[ 8008 7997 7996 7995 ] final -168.88 input   59.86 | X-H torsion
[ 10167 10162 10161 10158 ] final  130.10 input  -65.29 | X-H torsion
[ 10718 10713 10712 10709 ] final -103.62 input   66.30 | X-H torsion
[ 10763 10752 10751 10750 ] final   -5.83 input  -60.55 | X-H torsion
[ 11005 11000 10999 10996 ] final   38.48 input  -57.11 | X-H torsion

> <Gold.Protein.ActiveResidues>
 VAL166  LYS551  ARG553  GLY616  TRP617  ASP618  TYR619  PRO620  LYS621  CYS622 
 ASP623  PHE694  ASN695  SER759  ASP760  ASP761  ALA762  ILE779  LEU786  VAL792 
 PHE793  MET794  SER795  GLU796  ALA797  LYS798  CYS799  TRP800  GLU811  SER814 

> <Gold.Protein.RotatedAtoms>
  151.4485  133.3624  159.2791 H   0  0  0  0  0  0  0  0  0  0  0  0  # atno 6907 bound_to 6896
  150.9107  134.8525  159.7434 H   0  0  0  0  0  0  0  0  0  0  0  0  # atno 6908 bound_to 6896
  152.4931  134.4415  159.9597 H   0  0  0  0  0  0  0  0  0  0  0  0  # atno 6909 bound_to 6896
  144.7128  140.1337  143.6397 H   0  0  0  0  0  0  0  0  0  0  0  0  # atno 7974 bound_to 7965
  155.8974  140.1035  157.1375 H   0  0  0  0  0  0  0  0  0  0  0  0  # atno 8008 bound_to 7997
  154.4022  140.1299  156.4457 H   0  0  0  0  0  0  0  0  0  0  0  0  # atno 8009 bound_to 7997
  155.7463  140.3466  155.5130 H   0  0  0  0  0  0  0  0  0  0  0  0  # atno 8010 bound_to 7997
  139.5446  144.6761  151.4515 H   0  0  0  0  0  0  0  0  0  0  0  0  # atno 10167 bound_to 10162
  156.0272  130.5476  150.7279 H   0  0  0  0  0  0  0  0  0  0  0  0  # atno 10718 bound_to 10713
  153.4039  135.7006  153.6406 H   0  0  0  0  0  0  0  0  0  0  0  0  # atno 10763 bound_to 10752
  153.4928  135.3669  155.2501 H   0  0  0  0  0  0  0  0  0  0  0  0  # atno 10764 bound_to 10752
  154.8712  135.4093  154.3379 H   0  0  0  0  0  0  0  0  0  0  0  0  # atno 10765 bound_to 10752
  140.2122  134.3741  155.8043 H   0  0  0  0  0  0  0  0  0  0  0  0  # atno 11005 bound_to 11000
  145.9264  139.2578  143.1351 LP  0  0  0  0  0  0  0  0  0  0  0  0  # atno 17320 bound_to 7965
  145.9568  140.8866  143.0231 LP  0  0  0  0  0  0  0  0  0  0  0  0  # atno 17321 bound_to 7965
  140.6689  143.8337  150.6975 LP  0  0  0  0  0  0  0  0  0  0  0  0  # atno 17342 bound_to 10162
  140.1755  143.4158  152.1970 LP  0  0  0  0  0  0  0  0  0  0  0  0  # atno 17343 bound_to 10162
  157.4878  131.0908  151.0462 LP  0  0  0  0  0  0  0  0  0  0  0  0  # atno 17370 bound_to 10713
  157.0877  130.5929  149.5433 LP  0  0  0  0  0  0  0  0  0  0  0  0  # atno 17371 bound_to 10713
  141.2226  133.7149  156.8437 LP  0  0  0  0  0  0  0  0  0  0  0  0  # atno 17394 bound_to 11000
  140.1938  134.8946  157.3091 LP  0  0  0  0  0  0  0  0  0  0  0  0  # atno 17395 bound_to 11000

$$$$
