AV-unprocessed.smi:2449|AV-procd|sdf|9663|dock9
  -GOLD-   2272013303D 1   1.00000     0.00000
 Structure written by MMmdl.
 37 37  0  0  0  0  0  0  0  0  1 V2000
  153.2201  142.3539  161.7996 C   0  0  0  0  0  0  0  0  0  0  0  0
  152.9365  143.4187  160.7350 C   0  0  0  0  0  0  0  0  0  0  0  0
  152.2130  142.8371  159.5029 C   0  0  0  0  0  0  0  0  0  0  0  0
  151.7347  143.8713  158.4450 C   0  0  0  0  0  0  0  0  0  0  0  0
  150.6328  144.7709  159.0388 C   0  0  0  0  0  0  0  0  0  0  0  0
  152.9149  144.7757  158.0275 C   0  0  0  0  0  0  0  0  0  0  0  0
  151.1607  143.2131  157.2640 N   0  0  0  0  0  0  0  0  0  0  0  0
  150.4685  142.0614  157.2038 C   0  0  0  0  0  0  0  0  0  0  0  0
  150.2434  141.3452  158.1799 O   0  0  0  0  0  0  0  0  0  0  0  0
  149.9620  141.6550  155.8131 C   0  0  0  0  0  0  0  0  0  0  0  0
  150.3993  140.3061  155.4247 N   0  0  0  0  0  0  0  0  0  0  0  0
  151.7222  139.9213  155.5905 C   0  0  0  0  0  0  0  0  0  0  0  0
  152.1868  138.6912  155.2664 C   0  0  0  0  0  0  0  0  0  0  0  0
  151.2883  137.6842  154.7119 C   0  0  0  0  0  0  0  0  0  0  0  0
  151.6140  136.5449  154.3866 O   0  0  0  0  0  0  0  0  0  0  0  0
  149.9653  138.1088  154.5623 N   0  0  0  0  0  0  0  0  0  0  0  0
  149.4798  139.3744  154.8944 C   0  0  0  0  0  0  0  0  0  0  0  0
  148.2914  139.6452  154.7242 O   0  0  0  0  0  0  0  0  0  0  0  0
  149.3056  137.4440  154.1848 H   0  0  0  0  0  0  0  0  0  0  0  0
  153.7348  142.7900  162.6560 H   0  0  0  0  0  0  0  0  0  0  0  0
  153.8496  141.5572  161.4022 H   0  0  0  0  0  0  0  0  0  0  0  0
  152.2955  141.9032  162.1615 H   0  0  0  0  0  0  0  0  0  0  0  0
  152.3395  144.2108  161.1871 H   0  0  0  0  0  0  0  0  0  0  0  0
  153.8800  143.8748  160.4371 H   0  0  0  0  0  0  0  0  0  0  0  0
  152.8717  142.1146  159.0189 H   0  0  0  0  0  0  0  0  0  0  0  0
  151.3604  142.2531  159.8508 H   0  0  0  0  0  0  0  0  0  0  0  0
  150.9723  145.2673  159.9486 H   0  0  0  0  0  0  0  0  0  0  0  0
  149.7338  144.2070  159.2872 H   0  0  0  0  0  0  0  0  0  0  0  0
  150.3365  145.5493  158.3344 H   0  0  0  0  0  0  0  0  0  0  0  0
  153.2904  145.3470  158.8772 H   0  0  0  0  0  0  0  0  0  0  0  0
  152.6168  145.4906  157.2597 H   0  0  0  0  0  0  0  0  0  0  0  0
  153.7545  144.2026  157.6341 H   0  0  0  0  0  0  0  0  0  0  0  0
  151.2862  143.7062  156.3919 H   0  0  0  0  0  0  0  0  0  0  0  0
  148.8723  141.7167  155.7746 H   0  0  0  0  0  0  0  0  0  0  0  0
  150.3190  142.3948  155.0954 H   0  0  0  0  0  0  0  0  0  0  0  0
  152.4235  140.6329  156.0025 H   0  0  0  0  0  0  0  0  0  0  0  0
  153.2289  138.4505  155.4195 H   0  0  0  0  0  0  0  0  0  0  0  0
  1  2  1  0  0  0  0
  1 20  1  0  0  0  0
  1 21  1  0  0  0  0
  1 22  1  0  0  0  0
  2  3  1  0  0  0  0
  2 23  1  0  0  0  0
  2 24  1  0  0  0  0
  3  4  1  0  0  0  0
  3 25  1  0  0  0  0
  3 26  1  0  0  0  0
  4  5  1  0  0  0  0
  4  6  1  0  0  0  0
  4  7  1  0  0  0  0
  5 27  1  0  0  0  0
  5 28  1  0  0  0  0
  5 29  1  0  0  0  0
  6 30  1  0  0  0  0
  6 31  1  0  0  0  0
  6 32  1  0  0  0  0
  7  8  1  0  0  0  0
  7 33  1  0  0  0  0
  8  9  2  0  0  0  0
  8 10  1  0  0  0  0
 10 11  1  0  0  0  0
 10 34  1  0  0  0  0
 10 35  1  0  0  0  0
 11 17  1  0  0  0  0
 11 12  1  0  0  0  0
 12 13  2  0  0  0  0
 12 36  1  0  0  0  0
 13 14  1  0  0  0  0
 13 37  1  0  0  0  0
 14 15  2  0  0  0  0
 14 16  1  0  0  0  0
 16 19  1  0  0  0  0
 16 17  1  0  0  0  0
 17 18  2  0  0  0  0
M  END
> <s_m_source_file>
AV-unprocessed.smi

> <i_m_source_file_index>
2449

> <i_lp_mmshare_version>
43012

> <i_f3d_flags>
0

> <s_epik_input>
W0NIM11bQ0gyXVtDSDJdQyhbQ0gzXSkoW0NIM10pW05IXUMoPU8pW0NIMl1uMVtjSF1bY0hdYyg9TylbbkhdYzE9Tw==

> <s_epik_cmdline>
J2VwaWtfcHl0aG9uJywgJy1waCcsICc3LjAnLCAnLXRuJywgJzgnLCAnLW1hJywgJzIwMCcsICctbWV0YWxfYmluZGluZycsICctaW1hZScsICc8aW5maWxlLm1hZT4nLCAnLW9tYWUnLCAnPG91dGZpbGUubWFlPic=

> <r_lp_tautomer_probability>
0.999537

> <r_epik_Ionization_Penalty>
0.00292856

> <r_epik_Ionization_Penalty_Charging>
0.00292854

> <r_epik_Ionization_Penalty_Neutral>
1.95902e-08

> <r_epik_State_Penalty>
0.00205284

> <r_epik_Charging_Adjusted_Penalty>
0.00498138

> <i_epik_Tot_Q>
0

> <i_epik_Tot_abs_Q>
0

> <r_epik_Metal_State_Penalty>
0.360056

> <b_epik_Metal_Only>
0

> <s_lp_Force_Field>
OPLS_2005

> <r_lp_Energy>
5.67084

> <b_lp_Chiralities_Consistent>
1

> <s_lp_Variant>
AV-unprocessed.smi:2449-1

> <Gold.Version>
5.8.1

> <Gold.Id.Protein>
6NUR|6NUR_protein|mol2

> <Gold.PLP.Fitness>
43.3572

> <Gold.PLP.PLP>
-41.8150

> <Gold.PLP.part.hbond>
-1.6726

> <Gold.PLP.part.metal>
0.0000

> <Gold.PLP.part.buried>
-5.2182

> <Gold.PLP.part.nonpolar>
-37.0159

> <Gold.PLP.part.repulsive>
1.2735

> <Gold.PLP.ligand.clash>
0.0000

> <Gold.PLP.ligand.torsion>
0.7474

> <Gold.PLP.Chemscore.Hbond>
1.0000

> <Gold.PLP.Chemscore.CHOScore>
0.0000

> <Gold.PLP.Chemscore.Metal>
0.0000

> <Gold.Chemscore.Hbonds>
donor molecule, donor type, donor heavy atom, donor atom, acceptor molecule, acceptor atom, score
      P1  H 10752 10763       L1    15  1.00

> <Gold.PLP.Chemscore.Internal.Correction>
0.0370

> <Gold.Rescore>
     Score         DG    S(hbond)    S(metal)    S(lipo)     H(rot)  DE(clash)    DE(int)     intcor
     12.29     -14.20       1.22        0.00      86.44       2.14       0.02       1.90       ----

> <Gold.Chemscore.Fitness>
12.2866

> <Gold.Chemscore.DG>
-14.2015

> <Gold.Chemscore.ZeroCoef>
-5.4800

> <Gold.Chemscore.Hbond>
1.2233

> <Gold.Chemscore.Metal>
0.0000

> <Gold.Chemscore.Lipo>
86.4394

> <Gold.Chemscore.Internal_Hbond>
0.0000

> <Gold.Chemscore.DEClash>
0.0154

> <Gold.Chemscore.DEInternal>
1.8995

> <Gold.Chemscore.Rot>
2.1397

> <Gold.Chemscore.Internal.Correction>
   9.000000E+99

> <Gold.Chemscore.Hbonds>
donor molecule, donor type, donor heavy atom, donor atom, acceptor molecule, acceptor atom, score
      P1  H 10752 10763       L1    15  0.99

> <Gold.Chemscore.Hbond.Weighted>
-4.0858

> <Gold.Chemscore.Metal.Weighted>
-0.0000

> <Gold.Chemscore.Lipo.Weighted>
-10.1134

> <Gold.Chemscore.Internal_Hbond.Weighted>
0.0000

> <Gold.Chemscore.DEClash.Weighted>
0.0154

> <Gold.Chemscore.DEInternal.Weighted>
1.8995

> <Gold.Chemscore.Rot.Weighted>
5.4777

> <Gold.Chemscore.Internal.Correction.Weighted>
   9.000000E+99

> <Gold.Protein.RotatedTorsions>
[ 6907 6896 6895 6894 ] final   72.32 input  -60.11 | X-H torsion
[ 7974 7965 7964 7962 ] final  104.03 input  175.53 | X-H torsion
[ 8008 7997 7996 7995 ] final  -96.42 input   59.86 | X-H torsion
[ 10167 10162 10161 10158 ] final   67.92 input  -65.29 | X-H torsion
[ 10718 10713 10712 10709 ] final -107.04 input   66.30 | X-H torsion
[ 10763 10752 10751 10750 ] final   36.53 input  -60.55 | X-H torsion
[ 11005 11000 10999 10996 ] final   82.43 input  -57.11 | X-H torsion

> <Gold.Protein.ActiveResidues>
 VAL166  LYS551  ARG553  GLY616  TRP617  ASP618  TYR619  PRO620  LYS621  CYS622 
 ASP623  PHE694  ASN695  SER759  ASP760  ASP761  ALA762  ILE779  LEU786  VAL792 
 PHE793  MET794  SER795  GLU796  ALA797  LYS798  CYS799  TRP800  GLU811  SER814 

> <Gold.Protein.RotatedAtoms>
  152.4861  134.4589  159.9598 H   0  0  0  0  0  0  0  0  0  0  0  0  # atno 6907 bound_to 6896
  151.4585  133.3593  159.2813 H   0  0  0  0  0  0  0  0  0  0  0  0  # atno 6908 bound_to 6896
  150.8972  134.8407  159.7395 H   0  0  0  0  0  0  0  0  0  0  0  0  # atno 6909 bound_to 6896
  145.3382  139.2469  143.3624 H   0  0  0  0  0  0  0  0  0  0  0  0  # atno 7974 bound_to 7965
  154.7742  140.0471  157.1076 H   0  0  0  0  0  0  0  0  0  0  0  0  # atno 8008 bound_to 7997
  154.9783  140.3098  155.4938 H   0  0  0  0  0  0  0  0  0  0  0  0  # atno 8009 bound_to 7997
  156.2926  140.2240  156.4880 H   0  0  0  0  0  0  0  0  0  0  0  0  # atno 8010 bound_to 7997
  140.0843  144.5043  150.7141 H   0  0  0  0  0  0  0  0  0  0  0  0  # atno 10167 bound_to 10162
  156.0418  130.5643  150.7766 H   0  0  0  0  0  0  0  0  0  0  0  0  # atno 10718 bound_to 10713
  153.0073  135.6303  154.2001 H   0  0  0  0  0  0  0  0  0  0  0  0  # atno 10763 bound_to 10752
  154.1744  135.2816  155.3073 H   0  0  0  0  0  0  0  0  0  0  0  0  # atno 10764 bound_to 10752
  154.5883  135.5625  153.7313 H   0  0  0  0  0  0  0  0  0  0  0  0  # atno 10765 bound_to 10752
  139.9064  134.8071  156.2174 H   0  0  0  0  0  0  0  0  0  0  0  0  # atno 11005 bound_to 11000
  146.3018  140.3974  142.8701 LP  0  0  0  0  0  0  0  0  0  0  0  0  # atno 17320 bound_to 7965
  144.8811  140.7401  143.5986 LP  0  0  0  0  0  0  0  0  0  0  0  0  # atno 17321 bound_to 7965
  140.7061  143.2469  151.4721 LP  0  0  0  0  0  0  0  0  0  0  0  0  # atno 17342 bound_to 10162
  139.5761  144.1815  152.1905 LP  0  0  0  0  0  0  0  0  0  0  0  0  # atno 17343 bound_to 10162
  157.5245  131.0933  151.0036 LP  0  0  0  0  0  0  0  0  0  0  0  0  # atno 17370 bound_to 10713
  157.0358  130.5729  149.5349 LP  0  0  0  0  0  0  0  0  0  0  0  0  # atno 17371 bound_to 10713
  141.0427  133.6929  156.1627 LP  0  0  0  0  0  0  0  0  0  0  0  0  # atno 17394 bound_to 11000
  140.6931  134.4645  157.5588 LP  0  0  0  0  0  0  0  0  0  0  0  0  # atno 17395 bound_to 11000

$$$$
