AV-unprocessed.smi:2008|AV-procd|sdf|8142|dock2
  -GOLD-   2272010383D 1   1.00000     0.00000
 Structure written by MMmdl.
 46 47  0  0  0  0  0  0  0  0  2 V2000
  152.4369  141.7159  158.9209 C   0  0  0  0  0  0  0  0  0  0  0  0
  151.0505  141.8684  158.6357 O   0  0  0  0  0  0  0  0  0  0  0  0
  150.5657  141.3532  157.4509 C   0  0  0  0  0  0  0  0  0  0  0  0
  149.2144  141.5767  157.1208 C   0  0  0  0  0  0  0  0  0  0  0  0
  148.7157  141.0521  155.9137 C   0  0  0  0  0  0  0  0  0  0  0  0
  149.5752  140.3122  155.0765 C   0  0  0  0  0  0  0  0  0  0  0  0
  149.0456  139.8053  153.8587 N   0  0  0  0  0  0  0  0  0  0  0  0
  147.8151  139.3206  153.6181 C   0  0  0  0  0  0  0  0  0  0  0  0
  146.9103  139.2225  154.4468 O   0  0  0  0  0  0  0  0  0  0  0  0
  147.6762  138.9607  152.3339 N   0  0  0  0  0  0  0  0  0  0  0  0
  146.4516  138.4280  151.7475 C   0  0  0  0  0  0  0  0  0  0  0  0
  145.8051  137.3673  152.6602 C   0  0  0  0  0  0  0  0  0  0  0  0
  146.1741  135.9712  152.2991 N   0  3  1  0  0  0  0  0  0  0  0  0
  146.0458  135.0460  153.4577 C   0  0  0  0  0  0  0  0  0  0  0  0
  146.6281  133.6601  153.1389 C   0  0  0  0  0  0  0  0  0  0  0  0
  145.9693  133.0609  151.8924 C   0  0  0  0  0  0  0  0  0  0  0  0
  146.1018  134.0377  150.7164 C   0  0  0  0  0  0  0  0  0  0  0  0
  145.5407  135.4365  151.0513 C   0  0  1  0  0  0  0  0  0  0  0  0
  143.9970  135.4520  151.0824 C   0  0  0  0  0  0  0  0  0  0  0  0
  150.9205  140.1538  155.4907 C   0  0  0  0  0  0  0  0  0  0  0  0
  151.4053  140.6562  156.6462 N   0  0  0  0  0  0  0  0  0  0  0  0
  152.6625  142.1845  159.8787 H   0  0  0  0  0  0  0  0  0  0  0  0
  153.0563  142.1988  158.1636 H   0  0  0  0  0  0  0  0  0  0  0  0
  152.7149  140.6635  158.9934 H   0  0  0  0  0  0  0  0  0  0  0  0
  148.5727  142.1410  157.7812 H   0  0  0  0  0  0  0  0  0  0  0  0
  147.6834  141.2134  155.6391 H   0  0  0  0  0  0  0  0  0  0  0  0
  149.6555  139.8849  153.0581 H   0  0  0  0  0  0  0  0  0  0  0  0
  148.4672  139.0775  151.7169 H   0  0  0  0  0  0  0  0  0  0  0  0
  145.7722  139.2574  151.5502 H   0  0  0  0  0  0  0  0  0  0  0  0
  146.6987  137.9884  150.7808 H   0  0  0  0  0  0  0  0  0  0  0  0
  146.1404  137.5586  153.6806 H   0  0  0  0  0  0  0  0  0  0  0  0
  144.7205  137.4750  152.6818 H   0  0  0  0  0  0  0  0  0  0  0  0
  146.5774  135.4585  154.3161 H   0  0  0  0  0  0  0  0  0  0  0  0
  144.9999  134.9606  153.7542 H   0  0  0  0  0  0  0  0  0  0  0  0
  147.7042  133.7426  152.9804 H   0  0  0  0  0  0  0  0  0  0  0  0
  146.4912  132.9928  153.9904 H   0  0  0  0  0  0  0  0  0  0  0  0
  146.4353  132.1072  151.6432 H   0  0  0  0  0  0  0  0  0  0  0  0
  144.9181  132.8497  152.0912 H   0  0  0  0  0  0  0  0  0  0  0  0
  147.1561  134.1300  150.4511 H   0  0  0  0  0  0  0  0  0  0  0  0
  145.6048  133.6308  149.8351 H   0  0  0  0  0  0  0  0  0  0  0  0
  145.8447  136.0761  150.2238 H   0  0  0  0  0  0  0  0  0  0  0  0
  143.5908  135.0278  150.1640 H   0  0  0  0  0  0  0  0  0  0  0  0
  143.6026  136.4653  151.1565 H   0  0  0  0  0  0  0  0  0  0  0  0
  143.5917  134.8736  151.9121 H   0  0  0  0  0  0  0  0  0  0  0  0
  151.6481  139.6327  154.8888 H   0  0  0  0  0  0  0  0  0  0  0  0
  147.1641  136.0015  152.1011 H   0  0  0  0  0  0  0  0  0  0  0  0
  1  2  1  0  0  0  0
  1 22  1  0  0  0  0
  1 23  1  0  0  0  0
  1 24  1  0  0  0  0
  2  3  1  0  0  0  0
  3 21  1  0  0  0  0
  3  4  2  0  0  0  0
  4  5  1  0  0  0  0
  4 25  1  0  0  0  0
  5  6  2  0  0  0  0
  5 26  1  0  0  0  0
  6  7  1  0  0  0  0
  6 20  1  0  0  0  0
  7  8  1  0  0  0  0
  7 27  1  0  0  0  0
  8  9  2  0  0  0  0
  8 10  1  0  0  0  0
 10 11  1  0  0  0  0
 10 28  1  0  0  0  0
 11 12  1  0  0  0  0
 11 29  1  0  0  0  0
 11 30  1  0  0  0  0
 12 13  1  0  0  0  0
 12 31  1  0  0  0  0
 12 32  1  0  0  0  0
 13 18  1  0  0  0  0
 13 14  1  0  0  0  0
 13 46  1  0  0  0  0
 14 15  1  0  0  0  0
 14 33  1  0  0  0  0
 14 34  1  0  0  0  0
 15 16  1  0  0  0  0
 15 35  1  0  0  0  0
 15 36  1  0  0  0  0
 16 17  1  0  0  0  0
 16 37  1  0  0  0  0
 16 38  1  0  0  0  0
 17 18  1  0  0  0  0
 17 39  1  0  0  0  0
 17 40  1  0  0  0  0
 18 19  1  0  0  0  0
 18 41  1  0  0  0  0
 19 42  1  0  0  0  0
 19 43  1  0  0  0  0
 19 44  1  0  0  0  0
 20 21  2  0  0  0  0
 20 45  1  0  0  0  0
M  CHG  1  13   1
M  END
> <s_m_source_file>
AV-unprocessed.smi

> <i_m_source_file_index>
2008

> <i_lp_mmshare_version>
43012

> <i_f3d_flags>
0

> <s_epik_input>
W0NIM11PYzFbY0hdW2NIXWMoW2NIXW4xKVtOSF1DKD1PKVtOSF1bQ0gyXVtDSDJdTjJbQ0gyXVtDSDJdW0NIMl1bQ0gyXVtDQEhdMltDSDNd

> <s_epik_cmdline>
J2VwaWtfcHl0aG9uJywgJy1waCcsICc3LjAnLCAnLXRuJywgJzgnLCAnLW1hJywgJzIwMCcsICctbWV0YWxfYmluZGluZycsICctaW1hZScsICc8aW5maWxlLm1hZT4nLCAnLW9tYWUnLCAnPG91dGZpbGUubWFlPic=

> <r_lp_tautomer_probability>
1

> <r_epik_Ionization_Penalty>
0.00219526

> <r_epik_Ionization_Penalty_Charging>
0.00211816

> <r_epik_Ionization_Penalty_Neutral>
7.71003e-05

> <r_epik_State_Penalty>
0.00145254

> <r_epik_Charging_Adjusted_Penalty>
0.0035707

> <i_epik_Tot_Q>
1

> <i_epik_Tot_abs_Q>
1

> <r_epik_Metal_State_Penalty>
-0

> <b_epik_Metal_Only>
0

> <s_lp_Force_Field>
OPLS_2005

> <r_lp_Energy>
23.0137

> <b_lp_Chiralities_Consistent>
1

> <s_lp_Variant>
AV-unprocessed.smi:2008-2

> <Gold.Version>
5.8.1

> <Gold.Id.Protein>
6NUR|6NUR_protein|mol2

> <Gold.PLP.Fitness>
45.1618

> <Gold.PLP.PLP>
-35.1907

> <Gold.PLP.part.hbond>
-3.7437

> <Gold.PLP.part.metal>
0.0000

> <Gold.PLP.part.buried>
-4.8730

> <Gold.PLP.part.nonpolar>
-27.4819

> <Gold.PLP.part.repulsive>
0.3671

> <Gold.PLP.ligand.clash>
0.0000

> <Gold.PLP.ligand.torsion>
0.7900

> <Gold.PLP.Chemscore.Hbond>
3.8320

> <Gold.PLP.Chemscore.CHOScore>
0.0000

> <Gold.PLP.Chemscore.Metal>
0.0000

> <Gold.Chemscore.Hbonds>
donor molecule, donor type, donor heavy atom, donor atom, acceptor molecule, acceptor atom, score
      L1  H     7    27       P1  7957  0.83
      L1  H    10    28       P1  7957  0.98
      L1  H    13    46       P1  7948  2.00

> <Gold.PLP.Chemscore.Internal.Correction>
0.0551

> <Gold.Rescore>
     Score         DG    S(hbond)    S(metal)    S(lipo)     H(rot)  DE(clash)    DE(int)     intcor
     16.16     -19.39       2.87        0.00      74.36       1.71       0.03       3.20       ----

> <Gold.Chemscore.Fitness>
16.1626

> <Gold.Chemscore.DG>
-19.3911

> <Gold.Chemscore.ZeroCoef>
-5.4800

> <Gold.Chemscore.Hbond>
2.8716

> <Gold.Chemscore.Metal>
0.0000

> <Gold.Chemscore.Lipo>
74.3552

> <Gold.Chemscore.Internal_Hbond>
0.0000

> <Gold.Chemscore.DEClash>
0.0282

> <Gold.Chemscore.DEInternal>
3.2003

> <Gold.Chemscore.Rot>
1.7107

> <Gold.Chemscore.Internal.Correction>
   9.000000E+99

> <Gold.Chemscore.Hbonds>
donor molecule, donor type, donor heavy atom, donor atom, acceptor molecule, acceptor atom, score
      L1  H     7    27       P1  7957  0.83
      L1  H    10    28       P1  7957  0.81
      L1  H    13    46       P1  7948  1.00

> <Gold.Chemscore.Hbond.Weighted>
-9.5910

> <Gold.Chemscore.Metal.Weighted>
-0.0000

> <Gold.Chemscore.Lipo.Weighted>
-8.6996

> <Gold.Chemscore.Internal_Hbond.Weighted>
0.0000

> <Gold.Chemscore.DEClash.Weighted>
0.0282

> <Gold.Chemscore.DEInternal.Weighted>
3.2003

> <Gold.Chemscore.Rot.Weighted>
4.3794

> <Gold.Chemscore.Internal.Correction.Weighted>
   9.000000E+99

> <Gold.Protein.RotatedTorsions>
[ 6907 6896 6895 6894 ] final  146.34 input  -60.11 | X-H torsion
[ 7974 7965 7964 7962 ] final    7.72 input  175.53 | X-H torsion
[ 8008 7997 7996 7995 ] final  145.93 input   59.86 | X-H torsion
[ 10167 10162 10161 10158 ] final -113.26 input  -65.29 | X-H torsion
[ 10718 10713 10712 10709 ] final   83.94 input   66.30 | X-H torsion
[ 10763 10752 10751 10750 ] final   70.19 input  -60.55 | X-H torsion
[ 11005 11000 10999 10996 ] final    6.08 input  -57.11 | X-H torsion

> <Gold.Protein.ActiveResidues>
 VAL166  LYS551  ARG553  GLY616  TRP617  ASP618  TYR619  PRO620  LYS621  CYS622 
 ASP623  PHE694  ASN695  SER759  ASP760  ASP761  ALA762  ILE779  LEU786  VAL792 
 PHE793  MET794  SER795  GLU796  ALA797  LYS798  CYS799  TRP800  GLU811  SER814 

> <Gold.Protein.RotatedAtoms>
  152.1691  133.4632  159.4899 H   0  0  0  0  0  0  0  0  0  0  0  0  # atno 6907 bound_to 6896
  150.6917  134.1975  159.4318 H   0  0  0  0  0  0  0  0  0  0  0  0  # atno 6908 bound_to 6896
  151.9881  134.9993  160.0611 H   0  0  0  0  0  0  0  0  0  0  0  0  # atno 6909 bound_to 6896
  146.2424  140.0041  142.8413 H   0  0  0  0  0  0  0  0  0  0  0  0  # atno 7974 bound_to 7965
  156.2870  140.2196  156.5295 H   0  0  0  0  0  0  0  0  0  0  0  0  # atno 8008 bound_to 7997
  154.7461  140.0484  157.0875 H   0  0  0  0  0  0  0  0  0  0  0  0  # atno 8009 bound_to 7997
  155.0169  140.3119  155.4811 H   0  0  0  0  0  0  0  0  0  0  0  0  # atno 8010 bound_to 7997
  140.1138  143.4504  152.1735 H   0  0  0  0  0  0  0  0  0  0  0  0  # atno 10167 bound_to 10162
  157.6889  131.0112  150.2598 H   0  0  0  0  0  0  0  0  0  0  0  0  # atno 10718 bound_to 10713
  153.0328  135.5183  154.7404 H   0  0  0  0  0  0  0  0  0  0  0  0  # atno 10763 bound_to 10752
  154.6405  135.2911  155.0112 H   0  0  0  0  0  0  0  0  0  0  0  0  # atno 10764 bound_to 10752
  154.1031  135.6633  153.4924 H   0  0  0  0  0  0  0  0  0  0  0  0  # atno 10765 bound_to 10752
  140.5635  134.0170  155.7981 H   0  0  0  0  0  0  0  0  0  0  0  0  # atno 11005 bound_to 11000
  145.1388  140.9559  143.4501 LP  0  0  0  0  0  0  0  0  0  0  0  0  # atno 17320 bound_to 7965
  145.0316  139.3336  143.6021 LP  0  0  0  0  0  0  0  0  0  0  0  0  # atno 17321 bound_to 7965
  139.5605  144.7402  151.4169 LP  0  0  0  0  0  0  0  0  0  0  0  0  # atno 17342 bound_to 10162
  140.6911  143.7860  150.7256 LP  0  0  0  0  0  0  0  0  0  0  0  0  # atno 17343 bound_to 10162
  156.3180  130.3781  149.7601 LP  0  0  0  0  0  0  0  0  0  0  0  0  # atno 17370 bound_to 10713
  156.5180  130.8202  151.3193 LP  0  0  0  0  0  0  0  0  0  0  0  0  # atno 17371 bound_to 10713
  141.1100  133.9632  157.2928 LP  0  0  0  0  0  0  0  0  0  0  0  0  # atno 17394 bound_to 11000
  139.9396  135.0192  156.8666 LP  0  0  0  0  0  0  0  0  0  0  0  0  # atno 17395 bound_to 11000

$$$$
