AV-unprocessed.smi:840|AV-procd|sdf|3914|dock4
  -GOLD-   22720 1373D 1   1.00000     0.00000
 Structure written by MMmdl.
 36 37  0  0  0  0  0  0  0  0  2 V2000
  151.4523  137.5061  154.6537 C   0  0  0  0  0  0  0  0  0  0  0  0
  150.9191  138.4224  155.7680 C   0  0  1  0  0  0  0  0  0  0  0  0
  152.0358  138.7649  156.6480 N   0  0  0  0  0  0  0  0  0  0  0  0
  151.9735  139.5644  157.7240 C   0  0  0  0  0  0  0  0  0  0  0  0
  150.8982  140.0734  158.0502 O   0  0  0  0  0  0  0  0  0  0  0  0
  153.1597  139.7251  158.3539 N   0  5  0  0  0  0  0  0  0  0  0  0
  153.2545  140.5536  159.4065 C   0  0  0  0  0  0  0  0  0  0  0  0
  152.4460  141.6052  159.5802 N   0  0  0  0  0  0  0  0  0  0  0  0
  152.7160  142.3273  160.7439 C   0  0  0  0  0  0  0  0  0  0  0  0
  153.7489  141.8084  161.4783 C   0  0  0  0  0  0  0  0  0  0  0  0
  154.4163  140.3875  160.7262 S   0  0  0  0  0  0  0  0  0  0  0  0
  150.3451  139.6910  155.1177 C   0  0  0  0  0  0  0  0  0  0  0  0
  150.9342  140.7689  155.2155 O   0  0  0  0  0  0  0  0  0  0  0  0
  149.1937  139.5416  154.4461 N   0  0  0  0  0  0  0  0  0  0  0  0
  148.4736  140.6141  153.7656 C   0  0  0  0  0  0  0  0  0  0  0  0
  148.5007  141.9224  154.5822 C   0  0  0  0  0  0  0  0  0  0  0  0
  147.0770  142.1271  155.1007 C   0  0  0  0  0  0  0  0  0  0  0  0
  146.1951  141.4796  154.0381 C   0  0  0  0  0  0  0  0  0  0  0  0
  146.9870  140.2508  153.5882 C   0  0  0  0  0  0  0  0  0  0  0  0
  150.6571  137.2152  153.9663 H   0  0  0  0  0  0  0  0  0  0  0  0
  151.8703  136.5899  155.0719 H   0  0  0  0  0  0  0  0  0  0  0  0
  152.2379  137.9885  154.0699 H   0  0  0  0  0  0  0  0  0  0  0  0
  150.1457  137.8967  156.3316 H   0  0  0  0  0  0  0  0  0  0  0  0
  152.9363  138.3743  156.4136 H   0  0  0  0  0  0  0  0  0  0  0  0
  152.1211  143.1992  160.9717 H   0  0  0  0  0  0  0  0  0  0  0  0
  154.1547  142.1710  162.4105 H   0  0  0  0  0  0  0  0  0  0  0  0
  148.7771  138.6222  154.4217 H   0  0  0  0  0  0  0  0  0  0  0  0
  148.9222  140.7888  152.7858 H   0  0  0  0  0  0  0  0  0  0  0  0
  149.2308  141.9156  155.3932 H   0  0  0  0  0  0  0  0  0  0  0  0
  148.7661  142.7497  153.9229 H   0  0  0  0  0  0  0  0  0  0  0  0
  146.9532  141.6042  156.0499 H   0  0  0  0  0  0  0  0  0  0  0  0
  146.8368  143.1780  155.2645 H   0  0  0  0  0  0  0  0  0  0  0  0
  145.2028  141.2261  154.4120 H   0  0  0  0  0  0  0  0  0  0  0  0
  146.0712  142.1646  153.1984 H   0  0  0  0  0  0  0  0  0  0  0  0
  146.7516  139.9679  152.5617 H   0  0  0  0  0  0  0  0  0  0  0  0
  146.7187  139.4054  154.2240 H   0  0  0  0  0  0  0  0  0  0  0  0
  1  2  1  0  0  0  0
  1 20  1  0  0  0  0
  1 21  1  0  0  0  0
  1 22  1  0  0  0  0
  2  3  1  0  0  0  0
  2 12  1  0  0  0  0
  2 23  1  0  0  0  0
  3  4  1  0  0  0  0
  3 24  1  0  0  0  0
  4  5  2  0  0  0  0
  4  6  1  0  0  0  0
  6  7  1  0  0  0  0
  7 11  1  0  0  0  0
  7  8  2  0  0  0  0
  8  9  1  0  0  0  0
  9 10  2  0  0  0  0
  9 25  1  0  0  0  0
 10 11  1  0  0  0  0
 10 26  1  0  0  0  0
 12 13  2  0  0  0  0
 12 14  1  0  0  0  0
 14 15  1  0  0  0  0
 14 27  1  0  0  0  0
 15 19  1  0  0  0  0
 15 16  1  0  0  0  0
 15 28  1  0  0  0  0
 16 17  1  0  0  0  0
 16 29  1  0  0  0  0
 16 30  1  0  0  0  0
 17 18  1  0  0  0  0
 17 31  1  0  0  0  0
 17 32  1  0  0  0  0
 18 19  1  0  0  0  0
 18 33  1  0  0  0  0
 18 34  1  0  0  0  0
 19 35  1  0  0  0  0
 19 36  1  0  0  0  0
M  CHG  1   6  -1
M  END
> <s_m_source_file>
AV-unprocessed.smi

> <i_m_source_file_index>
840

> <i_lp_mmshare_version>
43012

> <i_f3d_flags>
0

> <s_epik_input>
W0NIMl0xW0NIMl1bQ0gyXVtDSDJdW0NIXTFbTkhdQyg9TylbQ0BIXShbQ0gzXSlbTkhdQyg9TylbTkhdYzJuW2NIXVtjSF1zMg==

> <s_epik_cmdline>
J2VwaWtfcHl0aG9uJywgJy1waCcsICc3LjAnLCAnLXRuJywgJzgnLCAnLW1hJywgJzIwMCcsICctbWV0YWxfYmluZGluZycsICctaW1hZScsICc8aW5maWxlLm1hZT4nLCAnLW9tYWUnLCAnPG91dGZpbGUubWFlPic=

> <r_lp_tautomer_probability>
1

> <r_epik_Ionization_Penalty>
6.35467

> <r_epik_Ionization_Penalty_Charging>
5.47395

> <r_epik_Ionization_Penalty_Neutral>
0.880717

> <r_epik_State_Penalty>
5.4739

> <r_epik_Charging_Adjusted_Penalty>
10.9479

> <i_epik_Tot_Q>
-1

> <i_epik_Tot_abs_Q>
1

> <r_epik_Metal_State_Penalty>
1.48639

> <b_epik_Metal_Only>
1

> <s_lp_Force_Field>
OPLS_2005

> <r_lp_Energy>
13.1034

> <b_lp_Chiralities_Consistent>
1

> <s_lp_Variant>
AV-unprocessed.smi:840-4

> <Gold.Version>
5.8.1

> <Gold.Id.Protein>
6NUR|6NUR_protein|mol2

> <Gold.PLP.Fitness>
38.0806

> <Gold.PLP.PLP>
-30.7752

> <Gold.PLP.part.hbond>
-2.2254

> <Gold.PLP.part.metal>
0.0000

> <Gold.PLP.part.buried>
3.0147

> <Gold.PLP.part.nonpolar>
-31.5457

> <Gold.PLP.part.repulsive>
0.2569

> <Gold.PLP.ligand.clash>
0.0000

> <Gold.PLP.ligand.torsion>
0.6790

> <Gold.PLP.Chemscore.Hbond>
2.8800

> <Gold.PLP.Chemscore.CHOScore>
0.0000

> <Gold.PLP.Chemscore.Metal>
0.0000

> <Gold.Chemscore.Hbonds>
donor molecule, donor type, donor heavy atom, donor atom, acceptor molecule, acceptor atom, score
      P1  H  7989  7998       L1    13  0.83
      P1  H  7997  8010       L1     6  2.00

> <Gold.PLP.Chemscore.Internal.Correction>
0.0235

> <Gold.Rescore>
     Score         DG    S(hbond)    S(metal)    S(lipo)     H(rot)  DE(clash)    DE(int)     intcor
     11.24     -15.40       1.78        0.00      69.51       1.62       0.06       4.11       ----

> <Gold.Chemscore.Fitness>
11.2388

> <Gold.Chemscore.DG>
-15.4044

> <Gold.Chemscore.ZeroCoef>
-5.4800

> <Gold.Chemscore.Hbond>
1.7784

> <Gold.Chemscore.Metal>
0.0000

> <Gold.Chemscore.Lipo>
69.5106

> <Gold.Chemscore.Internal_Hbond>
0.0000

> <Gold.Chemscore.DEClash>
0.0599

> <Gold.Chemscore.DEInternal>
4.1057

> <Gold.Chemscore.Rot>
1.6204

> <Gold.Chemscore.Internal.Correction>
   9.000000E+99

> <Gold.Chemscore.Hbonds>
donor molecule, donor type, donor heavy atom, donor atom, acceptor molecule, acceptor atom, score
      P1  H  7989  7998       L1    13  0.21
      P1  H  7997  8010       L1     6  0.61

> <Gold.Chemscore.Hbond.Weighted>
-5.9398

> <Gold.Chemscore.Metal.Weighted>
-0.0000

> <Gold.Chemscore.Lipo.Weighted>
-8.1327

> <Gold.Chemscore.Internal_Hbond.Weighted>
0.0000

> <Gold.Chemscore.DEClash.Weighted>
0.0599

> <Gold.Chemscore.DEInternal.Weighted>
4.1057

> <Gold.Chemscore.Rot.Weighted>
4.1481

> <Gold.Chemscore.Internal.Correction.Weighted>
   9.000000E+99

> <Gold.Protein.RotatedTorsions>
[ 6907 6896 6895 6894 ] final   97.49 input  -60.11 | X-H torsion
[ 7974 7965 7964 7962 ] final -179.13 input  175.53 | X-H torsion
[ 8008 7997 7996 7995 ] final   27.27 input   59.86 | X-H torsion
[ 10167 10162 10161 10158 ] final   31.32 input  -65.29 | X-H torsion
[ 10718 10713 10712 10709 ] final  108.11 input   66.30 | X-H torsion
[ 10763 10752 10751 10750 ] final   76.65 input  -60.55 | X-H torsion
[ 11005 11000 10999 10996 ] final  -41.86 input  -57.11 | X-H torsion

> <Gold.Protein.ActiveResidues>
 VAL166  LYS551  ARG553  GLY616  TRP617  ASP618  TYR619  PRO620  LYS621  CYS622 
 ASP623  PHE694  ASN695  SER759  ASP760  ASP761  ALA762  ILE779  LEU786  VAL792 
 PHE793  MET794  SER795  GLU796  ALA797  LYS798  CYS799  TRP800  GLU811  SER814 

> <Gold.Protein.RotatedAtoms>
  152.5423  134.0726  159.8200 H   0  0  0  0  0  0  0  0  0  0  0  0  # atno 6907 bound_to 6896
  151.0838  133.5361  159.2626 H   0  0  0  0  0  0  0  0  0  0  0  0  # atno 6908 bound_to 6896
  151.2178  135.0515  159.8992 H   0  0  0  0  0  0  0  0  0  0  0  0  # atno 6909 bound_to 6896
  144.7134  140.0765  143.6427 H   0  0  0  0  0  0  0  0  0  0  0  0  # atno 7974 bound_to 7965
  155.0403  140.3168  155.4727 H   0  0  0  0  0  0  0  0  0  0  0  0  # atno 8008 bound_to 7997
  156.2856  140.2164  156.5470 H   0  0  0  0  0  0  0  0  0  0  0  0  # atno 8009 bound_to 7997
  154.7295  140.0482  157.0701 H   0  0  0  0  0  0  0  0  0  0  0  0  # atno 8010 bound_to 7997
  140.4599  144.0923  150.6210 H   0  0  0  0  0  0  0  0  0  0  0  0  # atno 10167 bound_to 10162
  157.6600  131.0887  150.6256 H   0  0  0  0  0  0  0  0  0  0  0  0  # atno 10718 bound_to 10713
  153.0741  135.4943  154.8367 H   0  0  0  0  0  0  0  0  0  0  0  0  # atno 10763 bound_to 10752
  154.7063  135.3011  154.9268 H   0  0  0  0  0  0  0  0  0  0  0  0  # atno 10764 bound_to 10752
  153.9976  135.6770  153.4810 H   0  0  0  0  0  0  0  0  0  0  0  0  # atno 10765 bound_to 10752
  141.0275  133.6834  156.2515 H   0  0  0  0  0  0  0  0  0  0  0  0  # atno 11005 bound_to 11000
  145.9739  139.2890  143.1082 LP  0  0  0  0  0  0  0  0  0  0  0  0  # atno 17320 bound_to 7965
  145.9086  140.9195  143.0466 LP  0  0  0  0  0  0  0  0  0  0  0  0  # atno 17321 bound_to 7965
  140.4106  143.2658  151.9837 LP  0  0  0  0  0  0  0  0  0  0  0  0  # atno 17342 bound_to 10162
  139.4805  144.5918  151.7758 LP  0  0  0  0  0  0  0  0  0  0  0  0  # atno 17343 bound_to 10162
  156.6560  130.4498  149.5703 LP  0  0  0  0  0  0  0  0  0  0  0  0  # atno 17370 bound_to 10713
  156.2102  130.6674  151.1262 LP  0  0  0  0  0  0  0  0  0  0  0  0  # atno 17371 bound_to 10713
  140.6465  134.5112  157.5574 LP  0  0  0  0  0  0  0  0  0  0  0  0  # atno 17394 bound_to 11000
  139.9186  134.8195  156.1285 LP  0  0  0  0  0  0  0  0  0  0  0  0  # atno 17395 bound_to 11000

$$$$
