AV-unprocessed.smi:3280|AV-procd|sdf|12555|dock8
  -GOLD-   2272018473D 1   1.00000     0.00000
 Structure written by MMmdl.
 38 39  0  0  0  0  0  0  0  0  1 V2000
  146.7959  139.4410  152.4643 C   0  0  0  0  0  0  0  0  0  0  0  0
  147.1280  140.2824  153.7052 C   0  0  0  0  0  0  0  0  0  0  0  0
  146.7718  141.7667  153.5356 C   0  0  0  0  0  0  0  0  0  0  0  0
  148.5512  140.0983  154.1358 C   0  0  0  0  0  0  0  0  0  0  0  0
  149.4039  141.1165  154.1456 N   0  0  0  0  0  0  0  0  0  0  0  0
  150.5936  140.5404  154.6132 O   0  0  0  0  0  0  0  0  0  0  0  0
  150.3158  139.2301  154.8137 C   0  0  0  0  0  0  0  0  0  0  0  0
  151.3834  138.3428  155.3608 C   0  0  0  0  0  0  0  0  0  0  0  0
  152.2531  139.0546  156.4049 C   0  0  0  0  0  0  0  0  0  0  0  0
  151.4135  139.8947  157.2481 N   0  0  0  0  0  0  0  0  0  0  0  0
  152.1937  140.8728  157.9982 C   0  0  1  0  0  0  0  0  0  0  0  0
  151.3811  142.1821  158.0383 C   0  0  0  0  0  0  0  0  0  0  0  0
  152.1299  143.3210  158.7489 C   0  0  0  0  0  0  0  0  0  0  0  0
  152.4381  142.9908  160.2156 C   0  0  0  0  0  0  0  0  0  0  0  0
  153.5171  141.5400  160.3471 S   0  0  0  0  0  0  0  0  0  0  0  0
  152.5008  140.3570  159.4205 C   0  0  0  0  0  0  0  0  0  0  0  0
  149.0533  138.9015  154.5522 N   0  0  0  0  0  0  0  0  0  0  0  0
  146.9897  138.3831  152.6446 H   0  0  0  0  0  0  0  0  0  0  0  0
  147.3926  139.7479  151.6048 H   0  0  0  0  0  0  0  0  0  0  0  0
  145.7451  139.5420  152.1918 H   0  0  0  0  0  0  0  0  0  0  0  0
  146.4945  139.9056  154.5102 H   0  0  0  0  0  0  0  0  0  0  0  0
  146.9513  142.3209  154.4574 H   0  0  0  0  0  0  0  0  0  0  0  0
  145.7203  141.8908  153.2757 H   0  0  0  0  0  0  0  0  0  0  0  0
  147.3654  142.2299  152.7469 H   0  0  0  0  0  0  0  0  0  0  0  0
  150.9128  137.4607  155.7973 H   0  0  0  0  0  0  0  0  0  0  0  0
  151.9995  137.9924  154.5314 H   0  0  0  0  0  0  0  0  0  0  0  0
  152.7807  138.3152  157.0065 H   0  0  0  0  0  0  0  0  0  0  0  0
  153.0040  139.6677  155.9048 H   0  0  0  0  0  0  0  0  0  0  0  0
  150.7534  140.3839  156.6605 H   0  0  0  0  0  0  0  0  0  0  0  0
  153.1265  141.0648  157.4657 H   0  0  0  0  0  0  0  0  0  0  0  0
  151.1474  142.4997  157.0210 H   0  0  0  0  0  0  0  0  0  0  0  0
  150.4231  142.0138  158.5329 H   0  0  0  0  0  0  0  0  0  0  0  0
  153.0563  143.5434  158.2179 H   0  0  0  0  0  0  0  0  0  0  0  0
  151.5276  144.2289  158.7050 H   0  0  0  0  0  0  0  0  0  0  0  0
  152.9293  143.8359  160.6982 H   0  0  0  0  0  0  0  0  0  0  0  0
  151.5158  142.8001  160.7654 H   0  0  0  0  0  0  0  0  0  0  0  0
  151.5769  140.1781  159.9723 H   0  0  0  0  0  0  0  0  0  0  0  0
  153.0441  139.4131  159.3955 H   0  0  0  0  0  0  0  0  0  0  0  0
  1  2  1  0  0  0  0
  1 18  1  0  0  0  0
  1 19  1  0  0  0  0
  1 20  1  0  0  0  0
  2  3  1  0  0  0  0
  2  4  1  0  0  0  0
  2 21  1  0  0  0  0
  3 22  1  0  0  0  0
  3 23  1  0  0  0  0
  3 24  1  0  0  0  0
  4 17  1  0  0  0  0
  4  5  2  0  0  0  0
  5  6  1  0  0  0  0
  6  7  1  0  0  0  0
  7  8  1  0  0  0  0
  7 17  2  0  0  0  0
  8  9  1  0  0  0  0
  8 25  1  0  0  0  0
  8 26  1  0  0  0  0
  9 10  1  0  0  0  0
  9 27  1  0  0  0  0
  9 28  1  0  0  0  0
 10 11  1  0  0  0  0
 10 29  1  0  0  0  0
 11 16  1  0  0  0  0
 11 12  1  0  0  0  0
 11 30  1  0  0  0  0
 12 13  1  0  0  0  0
 12 31  1  0  0  0  0
 12 32  1  0  0  0  0
 13 14  1  0  0  0  0
 13 33  1  0  0  0  0
 13 34  1  0  0  0  0
 14 15  1  0  0  0  0
 14 35  1  0  0  0  0
 14 36  1  0  0  0  0
 15 16  1  0  0  0  0
 16 37  1  0  0  0  0
 16 38  1  0  0  0  0
M  END
> <s_m_source_file>
AV-unprocessed.smi

> <i_m_source_file_index>
3280

> <i_lp_mmshare_version>
43012

> <i_f3d_flags>
0

> <s_epik_input>
W0NIM11bQ0hdKFtDSDNdKWMxbm9jKG4xKVtDSDJdW0NIMl1bTkhdW0NAQEhdMltDSDJdW0NIMl1bQ0gyXVNbQ0gyXTI=

> <s_epik_cmdline>
J2VwaWtfcHl0aG9uJywgJy1waCcsICc3LjAnLCAnLXRuJywgJzgnLCAnLW1hJywgJzIwMCcsICctbWV0YWxfYmluZGluZycsICctaW1hZScsICc8aW5maWxlLm1hZT4nLCAnLW9tYWUnLCAnPG91dGZpbGUubWFlPic=

> <r_lp_tautomer_probability>
1

> <r_epik_Ionization_Penalty>
2.40576

> <r_epik_Ionization_Penalty_Charging>
0

> <r_epik_Ionization_Penalty_Neutral>
2.40576

> <r_epik_State_Penalty>
2.56401

> <r_epik_Charging_Adjusted_Penalty>
2.56401

> <i_epik_Tot_Q>
0

> <i_epik_Tot_abs_Q>
0

> <r_epik_Metal_State_Penalty>
2.56401

> <b_epik_Metal_Only>
0

> <s_lp_Force_Field>
OPLS_2005

> <r_lp_Energy>
1.02241

> <b_lp_Chiralities_Consistent>
1

> <s_lp_Variant>
AV-unprocessed.smi:3280-4

> <Gold.Version>
5.8.1

> <Gold.Id.Protein>
6NUR|6NUR_protein|mol2

> <Gold.PLP.Fitness>
37.2304

> <Gold.PLP.PLP>
-35.0465

> <Gold.PLP.part.hbond>
-2.5797

> <Gold.PLP.part.metal>
0.0000

> <Gold.PLP.part.buried>
-3.0421

> <Gold.PLP.part.nonpolar>
-29.8162

> <Gold.PLP.part.repulsive>
0.4568

> <Gold.PLP.ligand.clash>
0.0000

> <Gold.PLP.ligand.torsion>
1.0646

> <Gold.PLP.Chemscore.Hbond>
1.4104

> <Gold.PLP.Chemscore.CHOScore>
0.0000

> <Gold.PLP.Chemscore.Metal>
0.0000

> <Gold.Chemscore.Hbonds>
donor molecule, donor type, donor heavy atom, donor atom, acceptor molecule, acceptor atom, score
      P1  H  7989  7998       L1     6  1.00
      P1  H  8011  8017       L1     5  0.34

> <Gold.PLP.Chemscore.Internal.Correction>
0.0821

> <Gold.Rescore>
     Score         DG    S(hbond)    S(metal)    S(lipo)     H(rot)  DE(clash)    DE(int)     intcor
     13.59     -14.76       0.84        0.00      92.31       1.68       0.11       1.06       ----

> <Gold.Chemscore.Fitness>
13.5942

> <Gold.Chemscore.DG>
-14.7649

> <Gold.Chemscore.ZeroCoef>
-5.4800

> <Gold.Chemscore.Hbond>
0.8366

> <Gold.Chemscore.Metal>
0.0000

> <Gold.Chemscore.Lipo>
92.3053

> <Gold.Chemscore.Internal_Hbond>
0.0000

> <Gold.Chemscore.DEClash>
0.1102

> <Gold.Chemscore.DEInternal>
1.0605

> <Gold.Chemscore.Rot>
1.6833

> <Gold.Chemscore.Internal.Correction>
   9.000000E+99

> <Gold.Chemscore.Hbonds>
donor molecule, donor type, donor heavy atom, donor atom, acceptor molecule, acceptor atom, score
      P1  H  7989  7998       L1     6  0.34
      P1  H  8011  8017       L1     5  0.26

> <Gold.Chemscore.Hbond.Weighted>
-2.7943

> <Gold.Chemscore.Metal.Weighted>
-0.0000

> <Gold.Chemscore.Lipo.Weighted>
-10.7997

> <Gold.Chemscore.Internal_Hbond.Weighted>
0.0000

> <Gold.Chemscore.DEClash.Weighted>
0.1102

> <Gold.Chemscore.DEInternal.Weighted>
1.0605

> <Gold.Chemscore.Rot.Weighted>
4.3092

> <Gold.Chemscore.Internal.Correction.Weighted>
   9.000000E+99

> <Gold.Protein.RotatedTorsions>
[ 6907 6896 6895 6894 ] final   57.49 input  -60.11 | X-H torsion
[ 7974 7965 7964 7962 ] final  -95.97 input  175.53 | X-H torsion
[ 8008 7997 7996 7995 ] final  170.73 input   59.86 | X-H torsion
[ 10167 10162 10161 10158 ] final  -59.11 input  -65.29 | X-H torsion
[ 10718 10713 10712 10709 ] final  -99.45 input   66.30 | X-H torsion
[ 10763 10752 10751 10750 ] final -148.79 input  -60.55 | X-H torsion
[ 11005 11000 10999 10996 ] final -102.35 input  -57.11 | X-H torsion

> <Gold.Protein.ActiveResidues>
 VAL166  LYS551  ARG553  GLY616  TRP617  ASP618  TYR619  PRO620  LYS621  CYS622 
 ASP623  PHE694  ASN695  SER759  ASP760  ASP761  ALA762  ILE779  LEU786  VAL792 
 PHE793  MET794  SER795  GLU796  ALA797  LYS798  CYS799  TRP800  GLU811  SER814 

> <Gold.Protein.RotatedAtoms>
  152.3736  134.6697  160.0167 H   0  0  0  0  0  0  0  0  0  0  0  0  # atno 6907 bound_to 6896
  151.6982  133.3305  159.3268 H   0  0  0  0  0  0  0  0  0  0  0  0  # atno 6908 bound_to 6896
  150.7692  134.6574  159.6366 H   0  0  0  0  0  0  0  0  0  0  0  0  # atno 6909 bound_to 6896
  145.3531  140.9480  143.2543 H   0  0  0  0  0  0  0  0  0  0  0  0  # atno 7974 bound_to 7965
  156.1338  140.1530  156.9025 H   0  0  0  0  0  0  0  0  0  0  0  0  # atno 8008 bound_to 7997
  154.4930  140.0846  156.7676 H   0  0  0  0  0  0  0  0  0  0  0  0  # atno 8009 bound_to 7997
  155.4207  140.3423  155.4273 H   0  0  0  0  0  0  0  0  0  0  0  0  # atno 8010 bound_to 7997
  140.6156  143.2401  151.5606 H   0  0  0  0  0  0  0  0  0  0  0  0  # atno 10167 bound_to 10162
  156.0134  130.5283  150.6672 H   0  0  0  0  0  0  0  0  0  0  0  0  # atno 10718 bound_to 10713
  154.8213  135.3325  154.7028 H   0  0  0  0  0  0  0  0  0  0  0  0  # atno 10763 bound_to 10752
  153.7661  135.6929  153.4920 H   0  0  0  0  0  0  0  0  0  0  0  0  # atno 10764 bound_to 10752
  153.2077  135.4493  155.0291 H   0  0  0  0  0  0  0  0  0  0  0  0  # atno 10765 bound_to 10752
  141.1193  133.8551  157.1348 H   0  0  0  0  0  0  0  0  0  0  0  0  # atno 11005 bound_to 11000
  144.8703  139.5048  143.6771 LP  0  0  0  0  0  0  0  0  0  0  0  0  # atno 17320 bound_to 7965
  146.2960  139.7278  142.9126 LP  0  0  0  0  0  0  0  0  0  0  0  0  # atno 17321 bound_to 7965
  139.5396  144.2685  152.1322 LP  0  0  0  0  0  0  0  0  0  0  0  0  # atno 17342 bound_to 10162
  140.1894  144.4767  150.6487 LP  0  0  0  0  0  0  0  0  0  0  0  0  # atno 17343 bound_to 10162
  157.4402  131.0860  151.0951 LP  0  0  0  0  0  0  0  0  0  0  0  0  # atno 17370 bound_to 10713
  157.1497  130.6179  149.5579 LP  0  0  0  0  0  0  0  0  0  0  0  0  # atno 17371 bound_to 10713
  140.0138  134.9976  157.0450 LP  0  0  0  0  0  0  0  0  0  0  0  0  # atno 17394 bound_to 11000
  140.4555  134.1538  155.7186 LP  0  0  0  0  0  0  0  0  0  0  0  0  # atno 17395 bound_to 11000

$$$$
