AV-unprocessed.smi:3314|AV-procd|sdf|12742|dock10
  -GOLD-   2272019 83D 1   1.00000     0.00000
 Structure written by MMmdl.
 38 39  0  0  0  0  0  0  0  0  2 V2000
  153.7307  141.9350  162.3103 C   0  0  0  0  0  0  0  0  0  0  0  0
  152.9525  142.4216  161.1052 C   0  0  0  0  0  0  0  0  0  0  0  0
  152.4937  143.7534  161.0345 C   0  0  0  0  0  0  0  0  0  0  0  0
  151.7813  144.1722  159.8929 C   0  0  0  0  0  0  0  0  0  0  0  0
  151.2636  145.5863  159.7356 C   0  0  0  0  0  0  0  0  0  0  0  0
  151.5456  143.2947  158.8923 N   0  3  0  0  0  0  0  0  0  0  0  0
  151.9520  142.0040  158.9114 C   0  0  0  0  0  0  0  0  0  0  0  0
  151.6380  141.2158  157.7707 N   0  0  0  0  0  0  0  0  0  0  0  0
  152.2154  140.0798  157.3365 C   0  0  0  0  0  0  0  0  0  0  0  0
  153.1453  139.5066  157.9044 O   0  0  0  0  0  0  0  0  0  0  0  0
  151.6257  139.5066  156.0415 C   0  0  1  0  0  0  0  0  0  0  0  0
  151.2473  138.0116  156.1472 C   0  0  0  0  0  0  0  0  0  0  0  0
  150.6356  137.5249  154.9180 N   0  0  0  0  0  0  0  0  0  0  0  0
  150.2846  136.1161  155.0138 C   0  0  0  0  0  0  0  0  0  0  0  0
  149.4784  138.3460  154.5895 C   0  0  0  0  0  0  0  0  0  0  0  0
  149.8501  139.8353  154.4899 C   0  0  0  0  0  0  0  0  0  0  0  0
  150.4613  140.2605  155.7051 O   0  0  0  0  0  0  0  0  0  0  0  0
  152.6839  141.5418  160.0349 C   0  0  0  0  0  0  0  0  0  0  0  0
  153.8395  142.7207  163.0586 H   0  0  0  0  0  0  0  0  0  0  0  0
  154.7273  141.6101  162.0105 H   0  0  0  0  0  0  0  0  0  0  0  0
  153.2196  141.0914  162.7751 H   0  0  0  0  0  0  0  0  0  0  0  0
  152.6891  144.4453  161.8411 H   0  0  0  0  0  0  0  0  0  0  0  0
  151.4881  146.1872  160.6174 H   0  0  0  0  0  0  0  0  0  0  0  0
  150.1827  145.5827  159.5928 H   0  0  0  0  0  0  0  0  0  0  0  0
  151.7241  146.0654  158.8712 H   0  0  0  0  0  0  0  0  0  0  0  0
  150.8399  141.5269  157.2360 H   0  0  0  0  0  0  0  0  0  0  0  0
  152.3701  139.6368  155.2537 H   0  0  0  0  0  0  0  0  0  0  0  0
  152.1388  137.4227  156.3676 H   0  0  0  0  0  0  0  0  0  0  0  0
  150.5600  137.8630  156.9822 H   0  0  0  0  0  0  0  0  0  0  0  0
  149.8622  135.7590  154.0740 H   0  0  0  0  0  0  0  0  0  0  0  0
  149.5514  135.9451  155.8030 H   0  0  0  0  0  0  0  0  0  0  0  0
  151.1660  135.5122  155.2317 H   0  0  0  0  0  0  0  0  0  0  0  0
  149.0453  138.0152  153.6448 H   0  0  0  0  0  0  0  0  0  0  0  0
  148.7060  138.2174  155.3496 H   0  0  0  0  0  0  0  0  0  0  0  0
  150.5297  140.0083  153.6541 H   0  0  0  0  0  0  0  0  0  0  0  0
  148.9596  140.4371  154.3083 H   0  0  0  0  0  0  0  0  0  0  0  0
  153.0575  140.5314  160.0945 H   0  0  0  0  0  0  0  0  0  0  0  0
  151.0288  143.6275  158.0780 H   0  0  0  0  0  0  0  0  0  0  0  0
  1  2  1  0  0  0  0
  1 19  1  0  0  0  0
  1 20  1  0  0  0  0
  1 21  1  0  0  0  0
  2 18  1  0  0  0  0
  2  3  2  0  0  0  0
  3  4  1  0  0  0  0
  3 22  1  0  0  0  0
  4  5  1  0  0  0  0
  4  6  2  0  0  0  0
  5 23  1  0  0  0  0
  5 24  1  0  0  0  0
  5 25  1  0  0  0  0
  6  7  1  0  0  0  0
  6 38  1  0  0  0  0
  7  8  1  0  0  0  0
  7 18  2  0  0  0  0
  8  9  1  0  0  0  0
  8 26  1  0  0  0  0
  9 10  2  0  0  0  0
  9 11  1  0  0  0  0
 11 17  1  0  0  0  0
 11 12  1  0  0  0  0
 11 27  1  0  0  0  0
 12 13  1  0  0  0  0
 12 28  1  0  0  0  0
 12 29  1  0  0  0  0
 13 14  1  0  0  0  0
 13 15  1  0  0  0  0
 14 30  1  0  0  0  0
 14 31  1  0  0  0  0
 14 32  1  0  0  0  0
 15 16  1  0  0  0  0
 15 33  1  0  0  0  0
 15 34  1  0  0  0  0
 16 17  1  0  0  0  0
 16 35  1  0  0  0  0
 16 36  1  0  0  0  0
 18 37  1  0  0  0  0
M  CHG  1   6   1
M  END
> <s_m_source_file>
AV-unprocessed.smi

> <i_m_source_file_index>
3314

> <i_lp_mmshare_version>
43012

> <i_f3d_flags>
0

> <s_epik_input>
W0NIM11jMVtjSF1jKFtDSDNdKW5jKFtjSF0xKVtOSF1DKD1PKVtDQEBIXTJbQ0gyXU4oW0NIM10pW0NIMl1bQ0gyXU8y

> <s_epik_cmdline>
J2VwaWtfcHl0aG9uJywgJy1waCcsICc3LjAnLCAnLXRuJywgJzgnLCAnLW1hJywgJzIwMCcsICctbWV0YWxfYmluZGluZycsICctaW1hZScsICc8aW5maWxlLm1hZT4nLCAnLW9tYWUnLCAnPG91dGZpbGUubWFlPic=

> <r_epik_Ionization_Penalty>
2.57421

> <r_epik_Ionization_Penalty_Charging>
1.80498

> <r_epik_Ionization_Penalty_Neutral>
0.76923

> <r_epik_State_Penalty>
2.63884

> <r_epik_Charging_Adjusted_Penalty>
4.44382

> <i_epik_Tot_Q>
1

> <i_epik_Tot_abs_Q>
1

> <r_epik_Metal_State_Penalty>
6.15142

> <b_epik_Metal_Only>
0

> <s_lp_Force_Field>
OPLS_2005

> <r_lp_Energy>
30.3211

> <b_lp_Chiralities_Consistent>
1

> <s_lp_Variant>
AV-unprocessed.smi:3314-12

> <Gold.Version>
5.8.1

> <Gold.Id.Protein>
6NUR|6NUR_protein|mol2

> <Gold.PLP.Fitness>
38.9954

> <Gold.PLP.PLP>
-36.4454

> <Gold.PLP.part.hbond>
-1.0000

> <Gold.PLP.part.metal>
0.0000

> <Gold.PLP.part.buried>
-3.4741

> <Gold.PLP.part.nonpolar>
-31.4642

> <Gold.PLP.part.repulsive>
0.3032

> <Gold.PLP.ligand.clash>
0.0000

> <Gold.PLP.ligand.torsion>
0.2262

> <Gold.PLP.Chemscore.Hbond>
1.0000

> <Gold.PLP.Chemscore.CHOScore>
0.0000

> <Gold.PLP.Chemscore.Metal>
0.0000

> <Gold.Chemscore.Hbonds>
donor molecule, donor type, donor heavy atom, donor atom, acceptor molecule, acceptor atom, score
      P1  H  7997  8009       L1    10  1.00

> <Gold.PLP.Chemscore.Internal.Correction>
0.0023

> <Gold.Rescore>
     Score         DG    S(hbond)    S(metal)    S(lipo)     H(rot)  DE(clash)    DE(int)     intcor
     17.02     -17.36       0.94        0.00      96.58       1.00       0.02       0.32       ----

> <Gold.Chemscore.Fitness>
17.0197

> <Gold.Chemscore.DG>
-17.3611

> <Gold.Chemscore.ZeroCoef>
-5.4800

> <Gold.Chemscore.Hbond>
0.9404

> <Gold.Chemscore.Metal>
0.0000

> <Gold.Chemscore.Lipo>
96.5821

> <Gold.Chemscore.Internal_Hbond>
0.0000

> <Gold.Chemscore.DEClash>
0.0195

> <Gold.Chemscore.DEInternal>
0.3219

> <Gold.Chemscore.Rot>
1.0000

> <Gold.Chemscore.Internal.Correction>
   9.000000E+99

> <Gold.Chemscore.Hbonds>
donor molecule, donor type, donor heavy atom, donor atom, acceptor molecule, acceptor atom, score
      P1  H  7997  8009       L1    10  0.35

> <Gold.Chemscore.Hbond.Weighted>
-3.1410

> <Gold.Chemscore.Metal.Weighted>
-0.0000

> <Gold.Chemscore.Lipo.Weighted>
-11.3001

> <Gold.Chemscore.Internal_Hbond.Weighted>
0.0000

> <Gold.Chemscore.DEClash.Weighted>
0.0195

> <Gold.Chemscore.DEInternal.Weighted>
0.3219

> <Gold.Chemscore.Rot.Weighted>
2.5600

> <Gold.Chemscore.Internal.Correction.Weighted>
   9.000000E+99

> <Gold.Protein.RotatedTorsions>
[ 6907 6896 6895 6894 ] final  -14.70 input  -60.11 | X-H torsion
[ 7974 7965 7964 7962 ] final   47.51 input  175.53 | X-H torsion
[ 8008 7997 7996 7995 ] final  160.07 input   59.86 | X-H torsion
[ 10167 10162 10161 10158 ] final -155.14 input  -65.29 | X-H torsion
[ 10718 10713 10712 10709 ] final -127.11 input   66.30 | X-H torsion
[ 10763 10752 10751 10750 ] final   41.98 input  -60.55 | X-H torsion
[ 11005 11000 10999 10996 ] final  129.57 input  -57.11 | X-H torsion

> <Gold.Protein.ActiveResidues>
 VAL166  LYS551  ARG553  GLY616  TRP617  ASP618  TYR619  PRO620  LYS621  CYS622 
 ASP623  PHE694  ASN695  SER759  ASP760  ASP761  ALA762  ILE779  LEU786  VAL792 
 PHE793  MET794  SER795  GLU796  ALA797  LYS798  CYS799  TRP800  GLU811  SER814 

> <Gold.Protein.RotatedAtoms>
  151.3354  135.0851  159.9352 H   0  0  0  0  0  0  0  0  0  0  0  0  # atno 6907 bound_to 6896
  152.5224  133.9501  159.7678 H   0  0  0  0  0  0  0  0  0  0  0  0  # atno 6908 bound_to 6896
  150.9847  133.6156  159.2747 H   0  0  0  0  0  0  0  0  0  0  0  0  # atno 6909 bound_to 6896
  146.0291  139.4741  142.9849 H   0  0  0  0  0  0  0  0  0  0  0  0  # atno 7974 bound_to 7965
  156.2197  140.1814  156.7506 H   0  0  0  0  0  0  0  0  0  0  0  0  # atno 8008 bound_to 7997
  154.5846  140.0660  156.9182 H   0  0  0  0  0  0  0  0  0  0  0  0  # atno 8009 bound_to 7997
  155.2442  140.3324  155.4291 H   0  0  0  0  0  0  0  0  0  0  0  0  # atno 8010 bound_to 7997
  139.6956  143.9348  152.2405 H   0  0  0  0  0  0  0  0  0  0  0  0  # atno 10167 bound_to 10162
  156.1826  130.6742  151.0324 H   0  0  0  0  0  0  0  0  0  0  0  0  # atno 10718 bound_to 10713
  152.9894  135.6145  154.2874 H   0  0  0  0  0  0  0  0  0  0  0  0  # atno 10763 bound_to 10752
  154.2601  135.2782  155.2783 H   0  0  0  0  0  0  0  0  0  0  0  0  # atno 10764 bound_to 10752
  154.5213  135.5814  153.6740 H   0  0  0  0  0  0  0  0  0  0  0  0  # atno 10765 bound_to 10752
  139.9623  134.9599  156.9168 H   0  0  0  0  0  0  0  0  0  0  0  0  # atno 11005 bound_to 11000
  145.7070  141.0118  143.1474 LP  0  0  0  0  0  0  0  0  0  0  0  0  # atno 17320 bound_to 7965
  144.7022  139.8712  143.7441 LP  0  0  0  0  0  0  0  0  0  0  0  0  # atno 17321 bound_to 7965
  139.9176  144.6819  150.8495 LP  0  0  0  0  0  0  0  0  0  0  0  0  # atno 17342 bound_to 10162
  140.7695  143.3398  151.2233 LP  0  0  0  0  0  0  0  0  0  0  0  0  # atno 17343 bound_to 10162
  157.6878  131.0819  150.7193 LP  0  0  0  0  0  0  0  0  0  0  0  0  # atno 17370 bound_to 10713
  156.7250  130.4692  149.5513 LP  0  0  0  0  0  0  0  0  0  0  0  0  # atno 17371 bound_to 10713
  140.5473  134.0661  155.7359 LP  0  0  0  0  0  0  0  0  0  0  0  0  # atno 17394 bound_to 11000
  141.1301  133.9317  157.2554 LP  0  0  0  0  0  0  0  0  0  0  0  0  # atno 17395 bound_to 11000

$$$$
