AV-unprocessed.smi:1420|AV-procd|sdf|5788|dock7
  -GOLD-   22720 5433D 1   1.00000     0.00000
 Structure written by MMmdl.
 39 40  0  0  0  0  0  0  0  0  2 V2000
  146.6142  139.0726  151.4418 C   0  0  0  0  0  0  0  0  0  0  0  0
  146.5572  138.8265  152.9673 C   0  0  2  0  0  0  0  0  0  0  0  0
  145.6523  137.6008  153.2805 C   0  0  0  0  0  0  0  0  0  0  0  0
  146.1981  136.3415  152.7827 N   0  0  0  0  0  0  0  0  0  0  0  0
  145.4776  135.2429  152.5070 C   0  0  0  0  0  0  0  0  0  0  0  0
  144.2576  135.1788  152.6558 O   0  0  0  0  0  0  0  0  0  0  0  0
  146.2518  134.0286  151.9919 C   0  0  0  0  0  0  0  0  0  0  0  0
  145.5369  133.3657  150.9156 N   0  0  0  0  0  0  0  0  0  0  0  0
  145.9331  132.2765  150.1674 C   0  0  0  0  0  0  0  0  0  0  0  0
  144.9316  132.0079  149.2790 C   0  0  0  0  0  0  0  0  0  0  0  0
  143.9517  132.9999  149.5636 C   0  0  0  0  0  0  0  0  0  0  0  0
  144.3159  133.8104  150.5443 N   0  0  0  0  0  0  0  0  0  0  0  0
  146.1422  140.0803  153.6792 N   0  3  0  0  0  0  0  0  0  0  0  0
  145.9422  139.9497  155.1492 C   0  0  0  0  0  0  0  0  0  0  0  0
  145.4958  141.2843  155.7722 C   0  0  0  0  0  0  0  0  0  0  0  0
  146.4433  142.2989  155.4761 O   0  0  0  0  0  0  0  0  0  0  0  0
  146.5554  142.5111  154.0772 C   0  0  0  0  0  0  0  0  0  0  0  0
  147.0555  141.2235  153.4031 C   0  0  0  0  0  0  0  0  0  0  0  0
  146.9403  138.1853  150.8994 H   0  0  0  0  0  0  0  0  0  0  0  0
  147.3151  139.8589  151.1682 H   0  0  0  0  0  0  0  0  0  0  0  0
  145.6345  139.3523  151.0531 H   0  0  0  0  0  0  0  0  0  0  0  0
  147.5630  138.5787  153.3105 H   0  0  0  0  0  0  0  0  0  0  0  0
  145.4979  137.4813  154.3536 H   0  0  0  0  0  0  0  0  0  0  0  0
  144.6669  137.7381  152.8338 H   0  0  0  0  0  0  0  0  0  0  0  0
  147.1952  136.3038  152.6243 H   0  0  0  0  0  0  0  0  0  0  0  0
  147.2388  134.3359  151.6422 H   0  0  0  0  0  0  0  0  0  0  0  0
  146.4068  133.3131  152.8009 H   0  0  0  0  0  0  0  0  0  0  0  0
  146.8834  131.7887  150.3293 H   0  0  0  0  0  0  0  0  0  0  0  0
  144.9033  131.2225  148.5383 H   0  0  0  0  0  0  0  0  0  0  0  0
  142.9930  133.1535  149.0906 H   0  0  0  0  0  0  0  0  0  0  0  0
  145.1685  139.2161  155.3726 H   0  0  0  0  0  0  0  0  0  0  0  0
  146.8671  139.6075  155.6164 H   0  0  0  0  0  0  0  0  0  0  0  0
  144.5089  141.5733  155.4071 H   0  0  0  0  0  0  0  0  0  0  0  0
  145.4153  141.1835  156.8548 H   0  0  0  0  0  0  0  0  0  0  0  0
  145.5963  142.8244  153.6611 H   0  0  0  0  0  0  0  0  0  0  0  0
  147.2595  143.3244  153.9004 H   0  0  0  0  0  0  0  0  0  0  0  0
  148.0572  140.9853  153.7651 H   0  0  0  0  0  0  0  0  0  0  0  0
  147.1431  141.4097  152.3346 H   0  0  0  0  0  0  0  0  0  0  0  0
  145.2386  140.3301  153.3031 H   0  0  0  0  0  0  0  0  0  0  0  0
  1  2  1  0  0  0  0
  1 19  1  0  0  0  0
  1 20  1  0  0  0  0
  1 21  1  0  0  0  0
  2  3  1  0  0  0  0
  2 13  1  0  0  0  0
  2 22  1  0  0  0  0
  3  4  1  0  0  0  0
  3 23  1  0  0  0  0
  3 24  1  0  0  0  0
  4  5  1  0  0  0  0
  4 25  1  0  0  0  0
  5  6  2  0  0  0  0
  5  7  1  0  0  0  0
  7  8  1  0  0  0  0
  7 26  1  0  0  0  0
  7 27  1  0  0  0  0
  8 12  1  0  0  0  0
  8  9  1  0  0  0  0
  9 10  2  0  0  0  0
  9 28  1  0  0  0  0
 10 11  1  0  0  0  0
 10 29  1  0  0  0  0
 11 12  2  0  0  0  0
 11 30  1  0  0  0  0
 13 18  1  0  0  0  0
 13 14  1  0  0  0  0
 13 39  1  0  0  0  0
 14 15  1  0  0  0  0
 14 31  1  0  0  0  0
 14 32  1  0  0  0  0
 15 16  1  0  0  0  0
 15 33  1  0  0  0  0
 15 34  1  0  0  0  0
 16 17  1  0  0  0  0
 17 18  1  0  0  0  0
 17 35  1  0  0  0  0
 17 36  1  0  0  0  0
 18 37  1  0  0  0  0
 18 38  1  0  0  0  0
M  CHG  1  13   1
M  END
> <s_m_source_file>
AV-unprocessed.smi

> <i_m_source_file_index>
1420

> <i_lp_mmshare_version>
43012

> <i_f3d_flags>
0

> <s_epik_input>
W0NIMl0xW0NIMl1PW0NIMl1bQ0gyXU4xW0NASF0oW0NIM10pW0NIMl1bTkhdQyg9TylbQ0gyXW4yW2NIXVtjSF1bY0hdbjI=

> <s_epik_cmdline>
J2VwaWtfcHl0aG9uJywgJy1waCcsICc3LjAnLCAnLXRuJywgJzgnLCAnLW1hJywgJzIwMCcsICctbWV0YWxfYmluZGluZycsICctaW1hZScsICc8aW5maWxlLm1hZT4nLCAnLW9tYWUnLCAnPG91dGZpbGUubWFlPic=

> <r_lp_tautomer_probability>
1

> <r_epik_Ionization_Penalty>
0.748405

> <r_epik_Ionization_Penalty_Charging>
0.748396

> <r_epik_Ionization_Penalty_Neutral>
8.56978e-06

> <r_epik_State_Penalty>
0.775162

> <r_epik_Charging_Adjusted_Penalty>
1.52356

> <i_epik_Tot_Q>
1

> <i_epik_Tot_abs_Q>
1

> <r_epik_Metal_State_Penalty>
0.775167

> <b_epik_Metal_Only>
0

> <s_lp_Force_Field>
OPLS_2005

> <r_lp_Energy>
20.6517

> <b_lp_Chiralities_Consistent>
1

> <s_lp_Variant>
AV-unprocessed.smi:1420-3

> <Gold.Version>
5.8.1

> <Gold.Id.Protein>
6NUR|6NUR_protein|mol2

> <Gold.PLP.Fitness>
45.6335

> <Gold.PLP.PLP>
-31.5667

> <Gold.PLP.part.hbond>
-2.0000

> <Gold.PLP.part.metal>
0.0000

> <Gold.PLP.part.buried>
-2.7877

> <Gold.PLP.part.nonpolar>
-27.4351

> <Gold.PLP.part.repulsive>
0.4332

> <Gold.PLP.ligand.clash>
0.0000

> <Gold.PLP.ligand.torsion>
0.4995

> <Gold.PLP.Chemscore.Hbond>
3.0000

> <Gold.PLP.Chemscore.CHOScore>
1.9995

> <Gold.PLP.Chemscore.Metal>
0.0000

> <Gold.Chemscore.Hbonds>
donor molecule, donor type, donor heavy atom, donor atom, acceptor molecule, acceptor atom, score
      L1  H     4    25       P1  7948  1.00
      L1  H    13    39       P1 10175  2.00
      L1  C     9    28       P1 10747  1.00
      L1  C    11    30       P1 10186  1.00

> <Gold.PLP.Chemscore.Internal.Correction>
0.0673

> <Gold.Rescore>
     Score         DG    S(hbond)    S(metal)    S(lipo)     H(rot)  DE(clash)    DE(int)     intcor
     14.50     -16.91       2.00        0.00      83.11       1.94       0.16       2.24       ----

> <Gold.Chemscore.Fitness>
14.5000

> <Gold.Chemscore.DG>
-16.9058

> <Gold.Chemscore.ZeroCoef>
-5.4800

> <Gold.Chemscore.Hbond>
1.9993

> <Gold.Chemscore.Metal>
0.0000

> <Gold.Chemscore.Lipo>
83.1064

> <Gold.Chemscore.Internal_Hbond>
0.0000

> <Gold.Chemscore.DEClash>
0.1643

> <Gold.Chemscore.DEInternal>
2.2415

> <Gold.Chemscore.Rot>
1.9435

> <Gold.Chemscore.Internal.Correction>
   9.000000E+99

> <Gold.Chemscore.Hbonds>
donor molecule, donor type, donor heavy atom, donor atom, acceptor molecule, acceptor atom, score
      L1  H     4    25       P1  7948  1.00
      L1  H    13    39       P1 10175  1.00

> <Gold.Chemscore.Hbond.Weighted>
-6.6778

> <Gold.Chemscore.Metal.Weighted>
-0.0000

> <Gold.Chemscore.Lipo.Weighted>
-9.7235

> <Gold.Chemscore.Internal_Hbond.Weighted>
0.0000

> <Gold.Chemscore.DEClash.Weighted>
0.1643

> <Gold.Chemscore.DEInternal.Weighted>
2.2415

> <Gold.Chemscore.Rot.Weighted>
4.9754

> <Gold.Chemscore.Internal.Correction.Weighted>
   9.000000E+99

> <Gold.Protein.RotatedTorsions>
[ 6907 6896 6895 6894 ] final  -52.11 input  -60.11 | X-H torsion
[ 7974 7965 7964 7962 ] final   23.31 input  175.53 | X-H torsion
[ 8008 7997 7996 7995 ] final   62.78 input   59.86 | X-H torsion
[ 10167 10162 10161 10158 ] final   25.27 input  -65.29 | X-H torsion
[ 10718 10713 10712 10709 ] final   33.86 input   66.30 | X-H torsion
[ 10763 10752 10751 10750 ] final  133.13 input  -60.55 | X-H torsion
[ 11005 11000 10999 10996 ] final   34.97 input  -57.11 | X-H torsion

> <Gold.Protein.ActiveResidues>
 VAL166  LYS551  ARG553  GLY616  TRP617  ASP618  TYR619  PRO620  LYS621  CYS622 
 ASP623  PHE694  ASN695  SER759  ASP760  ASP761  ALA762  ILE779  LEU786  VAL792 
 PHE793  MET794  SER795  GLU796  ALA797  LYS798  CYS799  TRP800  GLU811  SER814 

> <Gold.Protein.RotatedAtoms>
  150.8548  134.7884  159.7036 H   0  0  0  0  0  0  0  0  0  0  0  0  # atno 6907 bound_to 6896
  152.4603  134.5196  159.9788 H   0  0  0  0  0  0  0  0  0  0  0  0  # atno 6908 bound_to 6896
  151.5311  133.3411  159.2954 H   0  0  0  0  0  0  0  0  0  0  0  0  # atno 6909 bound_to 6896
  146.1990  139.7762  142.8776 H   0  0  0  0  0  0  0  0  0  0  0  0  # atno 7974 bound_to 7965
  155.6199  140.3495  155.4648 H   0  0  0  0  0  0  0  0  0  0  0  0  # atno 8008 bound_to 7997
  156.0088  140.1229  157.0499 H   0  0  0  0  0  0  0  0  0  0  0  0  # atno 8009 bound_to 7997
  154.4273  140.1086  156.5786 H   0  0  0  0  0  0  0  0  0  0  0  0  # atno 8010 bound_to 7997
  140.5120  144.0145  150.6377 H   0  0  0  0  0  0  0  0  0  0  0  0  # atno 10167 bound_to 10162
  157.3032  130.7361  149.6679 H   0  0  0  0  0  0  0  0  0  0  0  0  # atno 10718 bound_to 10713
  153.8021  135.3140  155.3391 H   0  0  0  0  0  0  0  0  0  0  0  0  # atno 10763 bound_to 10752
  154.8085  135.4682  154.0456 H   0  0  0  0  0  0  0  0  0  0  0  0  # atno 10764 bound_to 10752
  153.1808  135.6893  153.8568 H   0  0  0  0  0  0  0  0  0  0  0  0  # atno 10765 bound_to 10752
  140.2474  134.3343  155.7903 H   0  0  0  0  0  0  0  0  0  0  0  0  # atno 11005 bound_to 11000
  145.3548  141.0314  143.3318 LP  0  0  0  0  0  0  0  0  0  0  0  0  # atno 17320 bound_to 7965
  144.8641  139.5133  143.6798 LP  0  0  0  0  0  0  0  0  0  0  0  0  # atno 17321 bound_to 7965
  140.3470  143.2986  152.0528 LP  0  0  0  0  0  0  0  0  0  0  0  0  # atno 17342 bound_to 10162
  139.4899  144.6402  151.6893 LP  0  0  0  0  0  0  0  0  0  0  0  0  # atno 17343 bound_to 10162
  155.9673  130.4274  150.4741 LP  0  0  0  0  0  0  0  0  0  0  0  0  # atno 17370 bound_to 10713
  157.2725  131.0590  151.2250 LP  0  0  0  0  0  0  0  0  0  0  0  0  # atno 17371 bound_to 10713
  141.2205  133.7333  156.8982 LP  0  0  0  0  0  0  0  0  0  0  0  0  # atno 17394 bound_to 11000
  140.1592  134.9177  157.2693 LP  0  0  0  0  0  0  0  0  0  0  0  0  # atno 17395 bound_to 11000

$$$$
