AV-unprocessed.smi:501|AV-procd|sdf|2743|dock7
  -GOLD-   2262023203D 1   1.00000     0.00000
 Structure written by MMmdl.
 46 48  0  0  0  0  0  0  0  0  2 V2000
  147.7622  132.4323  160.6932 C   0  0  0  0  0  0  0  0  0  0  0  0
  147.5897  133.8190  161.2787 C   0  0  0  0  0  0  0  0  0  0  0  0
  147.1158  133.9832  162.5956 C   0  0  0  0  0  0  0  0  0  0  0  0
  146.9575  135.2753  163.1289 C   0  0  0  0  0  0  0  0  0  0  0  0
  147.2729  136.4036  162.3482 C   0  0  0  0  0  0  0  0  0  0  0  0
  147.7494  136.2579  161.0292 C   0  0  0  0  0  0  0  0  0  0  0  0
  148.0338  137.4147  160.3353 O   0  0  0  0  0  0  0  0  0  0  0  0
  148.7359  137.2995  159.1069 C   0  0  0  0  0  0  0  0  0  0  0  0
  147.8788  137.8904  157.9831 C   0  0  0  0  0  0  0  0  0  0  0  0
  148.5920  137.8750  156.6983 N   0  0  0  0  0  0  0  0  0  0  0  0
  148.3116  137.2173  155.5349 C   0  0  0  0  0  0  0  0  0  0  0  0
  147.1457  136.3148  155.2628 C   0  0  0  0  0  0  0  0  0  0  0  0
  147.5326  134.8235  155.1895 C   0  0  0  0  0  0  0  0  0  0  0  0
  148.5254  134.5383  154.1565 N   0  0  0  0  0  0  0  0  0  0  0  0
  149.0445  133.3282  153.9043 C   0  0  0  0  0  0  0  0  0  0  0  0
  148.7676  132.3088  154.5341 O   0  0  0  0  0  0  0  0  0  0  0  0
  149.2850  137.5540  154.6406 N   0  3  0  0  0  0  0  0  0  0  0  0
  150.2110  138.4047  155.2446 C   0  0  0  0  0  0  0  0  0  0  0  0
  151.3692  138.9927  154.7456 C   0  0  0  0  0  0  0  0  0  0  0  0
  152.0969  139.8111  155.6343 C   0  0  0  0  0  0  0  0  0  0  0  0
  151.6666  140.0180  156.9612 C   0  0  0  0  0  0  0  0  0  0  0  0
  150.4899  139.4173  157.4552 C   0  0  0  0  0  0  0  0  0  0  0  0
  149.7748  138.6119  156.5689 C   0  0  0  0  0  0  0  0  0  0  0  0
  147.9055  134.9511  160.4999 C   0  0  0  0  0  0  0  0  0  0  0  0
  147.4688  131.6593  161.4041 H   0  0  0  0  0  0  0  0  0  0  0  0
  148.8042  132.2651  160.4198 H   0  0  0  0  0  0  0  0  0  0  0  0
  147.1497  132.3213  159.7982 H   0  0  0  0  0  0  0  0  0  0  0  0
  146.8718  133.1218  163.2000 H   0  0  0  0  0  0  0  0  0  0  0  0
  146.5933  135.4020  164.1377 H   0  0  0  0  0  0  0  0  0  0  0  0
  147.1469  137.3916  162.7661 H   0  0  0  0  0  0  0  0  0  0  0  0
  149.6888  137.8279  159.1673 H   0  0  0  0  0  0  0  0  0  0  0  0
  148.9402  136.2516  158.8894 H   0  0  0  0  0  0  0  0  0  0  0  0
  146.9587  137.3179  157.8659 H   0  0  0  0  0  0  0  0  0  0  0  0
  147.5736  138.9112  158.2140 H   0  0  0  0  0  0  0  0  0  0  0  0
  146.3898  136.4527  156.0355 H   0  0  0  0  0  0  0  0  0  0  0  0
  146.6817  136.6211  154.3252 H   0  0  0  0  0  0  0  0  0  0  0  0
  147.8979  134.4831  156.1597 H   0  0  0  0  0  0  0  0  0  0  0  0
  146.6476  134.2250  154.9717 H   0  0  0  0  0  0  0  0  0  0  0  0
  148.8187  135.3102  153.5751 H   0  0  0  0  0  0  0  0  0  0  0  0
  149.7522  133.3712  153.0621 H   0  0  0  0  0  0  0  0  0  0  0  0
  151.7016  138.8337  153.7301 H   0  0  0  0  0  0  0  0  0  0  0  0
  153.0040  140.2888  155.2927 H   0  0  0  0  0  0  0  0  0  0  0  0
  152.2509  140.6502  157.6142 H   0  0  0  0  0  0  0  0  0  0  0  0
  150.1718  139.5808  158.4742 H   0  0  0  0  0  0  0  0  0  0  0  0
  148.2665  134.7911  159.4954 H   0  0  0  0  0  0  0  0  0  0  0  0
  149.3146  137.2177  153.6868 H   0  0  0  0  0  0  0  0  0  0  0  0
  1  2  1  0  0  0  0
  1 25  1  0  0  0  0
  1 26  1  0  0  0  0
  1 27  1  0  0  0  0
  2 24  1  0  0  0  0
  2  3  2  0  0  0  0
  3  4  1  0  0  0  0
  3 28  1  0  0  0  0
  4  5  2  0  0  0  0
  4 29  1  0  0  0  0
  5  6  1  0  0  0  0
  5 30  1  0  0  0  0
  6  7  1  0  0  0  0
  6 24  2  0  0  0  0
  7  8  1  0  0  0  0
  8  9  1  0  0  0  0
  8 31  1  0  0  0  0
  8 32  1  0  0  0  0
  9 10  1  0  0  0  0
  9 33  1  0  0  0  0
  9 34  1  0  0  0  0
 10 23  1  0  0  0  0
 10 11  1  0  0  0  0
 11 12  1  0  0  0  0
 11 17  2  0  0  0  0
 12 13  1  0  0  0  0
 12 35  1  0  0  0  0
 12 36  1  0  0  0  0
 13 14  1  0  0  0  0
 13 37  1  0  0  0  0
 13 38  1  0  0  0  0
 14 15  1  0  0  0  0
 14 39  1  0  0  0  0
 15 16  2  0  0  0  0
 15 40  1  0  0  0  0
 17 18  1  0  0  0  0
 17 46  1  0  0  0  0
 18 23  2  0  0  0  0
 18 19  1  0  0  0  0
 19 20  2  0  0  0  0
 19 41  1  0  0  0  0
 20 21  1  0  0  0  0
 20 42  1  0  0  0  0
 21 22  2  0  0  0  0
 21 43  1  0  0  0  0
 22 23  1  0  0  0  0
 22 44  1  0  0  0  0
 24 45  1  0  0  0  0
M  CHG  1  17   1
M  END
> <s_m_source_file>
AV-unprocessed.smi

> <i_m_source_file_index>
501

> <i_lp_mmshare_version>
43012

> <i_f3d_flags>
0

> <s_epik_input>
W0NIM11jMVtjSF1bY0hdW2NIXWMoW2NIXTEpT1tDSDJdW0NIMl1uKGMobjIpW0NIMl1bQ0gyXVtOSF1bQ0hdPU8pYyhjMjMpW2NIXVtjSF1bY0hdW2NIXTM=

> <s_epik_cmdline>
J2VwaWtfcHl0aG9uJywgJy1waCcsICc3LjAnLCAnLXRuJywgJzgnLCAnLW1hJywgJzIwMCcsICctbWV0YWxfYmluZGluZycsICctaW1hZScsICc8aW5maWxlLm1hZT4nLCAnLW9tYWUnLCAnPG91dGZpbGUubWFlPic=

> <r_lp_tautomer_probability>
1

> <r_epik_Ionization_Penalty>
1.14747

> <r_epik_Ionization_Penalty_Charging>
1.14747

> <r_epik_Ionization_Penalty_Neutral>
1.55554e-08

> <r_epik_State_Penalty>
1.20856

> <r_epik_Charging_Adjusted_Penalty>
2.35603

> <i_epik_Tot_Q>
1

> <i_epik_Tot_abs_Q>
1

> <r_epik_Metal_State_Penalty>
1.28951

> <b_epik_Metal_Only>
0

> <s_lp_Force_Field>
OPLS_2005

> <r_lp_Energy>
21.7567

> <b_lp_Chiralities_Consistent>
1

> <s_lp_Variant>
AV-unprocessed.smi:501-2

> <Gold.Version>
5.8.1

> <Gold.Id.Protein>
6NUR|6NUR_protein|mol2

> <Gold.PLP.Fitness>
52.1101

> <Gold.PLP.PLP>
-40.9155

> <Gold.PLP.part.hbond>
-4.0000

> <Gold.PLP.part.metal>
0.0000

> <Gold.PLP.part.buried>
-4.4439

> <Gold.PLP.part.nonpolar>
-33.4029

> <Gold.PLP.part.repulsive>
0.0493

> <Gold.PLP.ligand.clash>
0.0000

> <Gold.PLP.ligand.torsion>
0.6590

> <Gold.PLP.Chemscore.Hbond>
4.0923

> <Gold.PLP.Chemscore.CHOScore>
0.0000

> <Gold.PLP.Chemscore.Metal>
0.0000

> <Gold.Chemscore.Hbonds>
donor molecule, donor type, donor heavy atom, donor atom, acceptor molecule, acceptor atom, score
      L1  H    14    39       P1  7948  1.00
      L1  H    17    46       P1  7948  1.76
      P1  H  6931  6943       L1     7  0.43
      P1  H  6934  6947       L1     7  0.69

> <Gold.PLP.Chemscore.Internal.Correction>
0.2357

> <Gold.Rescore>
     Score         DG    S(hbond)    S(metal)    S(lipo)     H(rot)  DE(clash)    DE(int)     intcor
     17.34     -18.00       2.40        0.00      97.07       2.68       0.04       0.62       ----

> <Gold.Chemscore.Fitness>
17.3436

> <Gold.Chemscore.DG>
-17.9968

> <Gold.Chemscore.ZeroCoef>
-5.4800

> <Gold.Chemscore.Hbond>
2.4047

> <Gold.Chemscore.Metal>
0.0000

> <Gold.Chemscore.Lipo>
97.0675

> <Gold.Chemscore.Internal_Hbond>
0.0000

> <Gold.Chemscore.DEClash>
0.0365

> <Gold.Chemscore.DEInternal>
0.6167

> <Gold.Chemscore.Rot>
2.6843

> <Gold.Chemscore.Internal.Correction>
   9.000000E+99

> <Gold.Chemscore.Hbonds>
donor molecule, donor type, donor heavy atom, donor atom, acceptor molecule, acceptor atom, score
      L1  H    14    39       P1  7948  0.75
      L1  H    17    46       P1  7948  0.82
      P1  H  6931  6943       L1     7  0.04
      P1  H  6934  6947       L1     7  0.64

> <Gold.Chemscore.Hbond.Weighted>
-8.0317

> <Gold.Chemscore.Metal.Weighted>
-0.0000

> <Gold.Chemscore.Lipo.Weighted>
-11.3569

> <Gold.Chemscore.Internal_Hbond.Weighted>
0.0000

> <Gold.Chemscore.DEClash.Weighted>
0.0365

> <Gold.Chemscore.DEInternal.Weighted>
0.6167

> <Gold.Chemscore.Rot.Weighted>
6.8718

> <Gold.Chemscore.Internal.Correction.Weighted>
   9.000000E+99

> <Gold.Protein.RotatedTorsions>
[ 6907 6896 6895 6894 ] final -112.27 input  -60.11 | X-H torsion
[ 7974 7965 7964 7962 ] final   90.86 input  175.53 | X-H torsion
[ 8008 7997 7996 7995 ] final   -7.02 input   59.86 | X-H torsion
[ 10167 10162 10161 10158 ] final   30.83 input  -65.29 | X-H torsion
[ 10718 10713 10712 10709 ] final  104.25 input   66.30 | X-H torsion
[ 10763 10752 10751 10750 ] final  106.08 input  -60.55 | X-H torsion
[ 11005 11000 10999 10996 ] final   72.82 input  -57.11 | X-H torsion

> <Gold.Protein.ActiveResidues>
 VAL166  LYS551  ARG553  GLY616  TRP617  ASP618  TYR619  PRO620  LYS621  CYS622 
 ASP623  PHE694  ASN695  SER759  ASP760  ASP761  ALA762  ILE779  LEU786  VAL792 
 PHE793  MET794  SER795  GLU796  ALA797  LYS798  CYS799  TRP800  GLU811  SER814 

> <Gold.Protein.RotatedAtoms>
  150.7747  133.9114  159.3370 H   0  0  0  0  0  0  0  0  0  0  0  0  # atno 6907 bound_to 6896
  151.6992  135.0931  160.0257 H   0  0  0  0  0  0  0  0  0  0  0  0  # atno 6908 bound_to 6896
  152.3778  133.6466  159.6173 H   0  0  0  0  0  0  0  0  0  0  0  0  # atno 6909 bound_to 6896
  145.5133  139.2277  143.2712 H   0  0  0  0  0  0  0  0  0  0  0  0  # atno 7974 bound_to 7965
  154.5879  140.2417  155.7961 H   0  0  0  0  0  0  0  0  0  0  0  0  # atno 8008 bound_to 7997
  156.2226  140.2992  155.9945 H   0  0  0  0  0  0  0  0  0  0  0  0  # atno 8009 bound_to 7997
  155.2425  140.0407  157.2967 H   0  0  0  0  0  0  0  0  0  0  0  0  # atno 8010 bound_to 7997
  140.4643  144.0859  150.6220 H   0  0  0  0  0  0  0  0  0  0  0  0  # atno 10167 bound_to 10162
  157.6746  131.0799  150.5678 H   0  0  0  0  0  0  0  0  0  0  0  0  # atno 10718 bound_to 10713
  153.3881  135.3889  155.1904 H   0  0  0  0  0  0  0  0  0  0  0  0  # atno 10763 bound_to 10752
  154.8716  135.3741  154.4773 H   0  0  0  0  0  0  0  0  0  0  0  0  # atno 10764 bound_to 10752
  153.5256  135.7086  153.5770 H   0  0  0  0  0  0  0  0  0  0  0  0  # atno 10765 bound_to 10752
  139.9471  134.7293  156.0953 H   0  0  0  0  0  0  0  0  0  0  0  0  # atno 11005 bound_to 11000
  146.2152  140.5942  142.9041 LP  0  0  0  0  0  0  0  0  0  0  0  0  # atno 17320 bound_to 7965
  144.7715  140.5648  143.6667 LP  0  0  0  0  0  0  0  0  0  0  0  0  # atno 17321 bound_to 7965
  140.4055  143.2682  151.9896 LP  0  0  0  0  0  0  0  0  0  0  0  0  # atno 17342 bound_to 10162
  139.4810  144.5960  151.7689 LP  0  0  0  0  0  0  0  0  0  0  0  0  # atno 17343 bound_to 10162
  156.5979  130.4347  149.5909 LP  0  0  0  0  0  0  0  0  0  0  0  0  # atno 17370 bound_to 10713
  156.2530  130.6918  151.1662 LP  0  0  0  0  0  0  0  0  0  0  0  0  # atno 17371 bound_to 10713
  141.1124  133.6639  156.3012 LP  0  0  0  0  0  0  0  0  0  0  0  0  # atno 17394 bound_to 11000
  140.5808  134.5747  157.5479 LP  0  0  0  0  0  0  0  0  0  0  0  0  # atno 17395 bound_to 11000

$$$$
