AV-unprocessed.smi:2329|AV-procd|sdf|9306|dock9
  -GOLD-   2272012523D 1   1.00000     0.00000
 Structure written by MMmdl.
 45 48  0  0  0  0  0  0  0  0  1 V2000
  141.7649  134.6766  153.2147 C   0  0  0  0  0  0  0  0  0  0  0  0
  143.1421  134.4723  152.6191 C   0  0  0  0  0  0  0  0  0  0  0  0
  143.3901  133.4213  151.7146 C   0  0  0  0  0  0  0  0  0  0  0  0
  144.6899  133.2873  151.1947 C   0  0  0  0  0  0  0  0  0  0  0  0
  145.6805  134.2039  151.5965 C   0  0  0  0  0  0  0  0  0  0  0  0
  145.3477  135.2315  152.5073 C   0  0  0  0  0  0  0  0  0  0  0  0
  146.4155  136.1040  152.8421 N   0  0  0  0  0  0  0  0  0  0  0  0
  146.3873  137.2073  153.6154 C   0  0  0  0  0  0  0  0  0  0  0  0
  145.3992  137.6146  154.2236 O   0  0  0  0  0  0  0  0  0  0  0  0
  147.5610  137.8616  153.6739 N   0  0  0  0  0  0  0  0  0  0  0  0
  147.8629  139.0851  154.4195 C   0  0  2  0  0  0  0  0  0  0  0  0
  147.8512  140.3286  153.5151 C   0  0  1  0  0  0  0  0  0  0  0  0
  146.8058  141.3914  153.7180 C   0  0  0  0  0  0  0  0  0  0  0  0
  147.5223  142.4084  154.6106 C   0  0  0  0  0  0  0  0  0  0  0  0
  148.5729  141.6686  155.2286 O   0  0  0  0  0  0  0  0  0  0  0  0
  149.1041  140.7768  154.2512 C   0  0  1  0  0  0  0  0  0  0  0  0
  149.3662  139.3252  154.7056 C   0  0  0  0  0  0  0  0  0  0  0  0
  149.8908  139.1294  156.1261 C   0  0  0  0  0  0  0  0  0  0  0  0
  151.4203  139.1435  156.0476 C   0  0  0  0  0  0  0  0  0  0  0  0
  151.7655  138.8097  154.5928 C   0  0  0  0  0  0  0  0  0  0  0  0
  150.4236  138.5661  153.8986 C   0  0  0  0  0  0  0  0  0  0  0  0
  144.0915  135.3527  153.0037 N   0  0  0  0  0  0  0  0  0  0  0  0
  141.1506  133.7834  153.0982 H   0  0  0  0  0  0  0  0  0  0  0  0
  141.2604  135.5067  152.7198 H   0  0  0  0  0  0  0  0  0  0  0  0
  141.8351  134.9022  154.2793 H   0  0  0  0  0  0  0  0  0  0  0  0
  142.6073  132.7355  151.4250 H   0  0  0  0  0  0  0  0  0  0  0  0
  144.9239  132.4954  150.4985 H   0  0  0  0  0  0  0  0  0  0  0  0
  146.6838  134.1161  151.2056 H   0  0  0  0  0  0  0  0  0  0  0  0
  147.3041  135.8849  152.4167 H   0  0  0  0  0  0  0  0  0  0  0  0
  148.3223  137.4733  153.1360 H   0  0  0  0  0  0  0  0  0  0  0  0
  147.2454  139.2311  155.3088 H   0  0  0  0  0  0  0  0  0  0  0  0
  148.0664  140.0927  152.4712 H   0  0  0  0  0  0  0  0  0  0  0  0
  146.4769  141.8412  152.7808 H   0  0  0  0  0  0  0  0  0  0  0  0
  145.9281  140.9836  154.2203 H   0  0  0  0  0  0  0  0  0  0  0  0
  147.9572  143.2074  154.0083 H   0  0  0  0  0  0  0  0  0  0  0  0
  146.8605  142.8598  155.3501 H   0  0  0  0  0  0  0  0  0  0  0  0
  149.8624  141.2291  153.6105 H   0  0  0  0  0  0  0  0  0  0  0  0
  149.5218  139.8835  156.8214 H   0  0  0  0  0  0  0  0  0  0  0  0
  149.5633  138.1649  156.5140 H   0  0  0  0  0  0  0  0  0  0  0  0
  151.8039  140.1318  156.3023 H   0  0  0  0  0  0  0  0  0  0  0  0
  151.8591  138.4303  156.7459 H   0  0  0  0  0  0  0  0  0  0  0  0
  152.2783  139.6546  154.1322 H   0  0  0  0  0  0  0  0  0  0  0  0
  152.4223  137.9428  154.5138 H   0  0  0  0  0  0  0  0  0  0  0  0
  150.2190  137.4951  153.9096 H   0  0  0  0  0  0  0  0  0  0  0  0
  150.4532  138.8715  152.8520 H   0  0  0  0  0  0  0  0  0  0  0  0
  1  2  1  0  0  0  0
  1 23  1  0  0  0  0
  1 24  1  0  0  0  0
  1 25  1  0  0  0  0
  2 22  1  0  0  0  0
  2  3  2  0  0  0  0
  3  4  1  0  0  0  0
  3 26  1  0  0  0  0
  4  5  2  0  0  0  0
  4 27  1  0  0  0  0
  5  6  1  0  0  0  0
  5 28  1  0  0  0  0
  6  7  1  0  0  0  0
  6 22  2  0  0  0  0
  7  8  1  0  0  0  0
  7 29  1  0  0  0  0
  8  9  2  0  0  0  0
  8 10  1  0  0  0  0
 10 11  1  0  0  0  0
 10 30  1  0  0  0  0
 11 17  1  0  0  0  0
 11 12  1  0  0  0  0
 11 31  1  0  0  0  0
 12 16  1  0  0  0  0
 12 13  1  0  0  0  0
 12 32  1  0  0  0  0
 13 14  1  0  0  0  0
 13 33  1  0  0  0  0
 13 34  1  0  0  0  0
 14 15  1  0  0  0  0
 14 35  1  0  0  0  0
 14 36  1  0  0  0  0
 15 16  1  0  0  0  0
 16 17  1  0  0  0  0
 16 37  1  0  0  0  0
 17 21  1  0  0  0  0
 17 18  1  0  0  0  0
 18 19  1  0  0  0  0
 18 38  1  0  0  0  0
 18 39  1  0  0  0  0
 19 20  1  0  0  0  0
 19 40  1  0  0  0  0
 19 41  1  0  0  0  0
 20 21  1  0  0  0  0
 20 42  1  0  0  0  0
 20 43  1  0  0  0  0
 21 44  1  0  0  0  0
 21 45  1  0  0  0  0
M  END
> <s_m_source_file>
AV-unprocessed.smi

> <i_m_source_file_index>
2329

> <i_lp_mmshare_version>
43012

> <i_f3d_flags>
0

> <s_epik_input>
W0NIM11jMVtjSF1bY0hdW2NIXWMobjEpW05IXUMoPU8pW05IXVtDQEBIXTJbQ0BASF0oW0NIMl1bQ0gyXU8zKVtDQEhdM0MyNFtDSDJdW0NIMl1bQ0gyXVtDSDJdNA==

> <s_epik_cmdline>
J2VwaWtfcHl0aG9uJywgJy1waCcsICc3LjAnLCAnLXRuJywgJzgnLCAnLW1hJywgJzIwMCcsICctbWV0YWxfYmluZGluZycsICctaW1hZScsICc8aW5maWxlLm1hZT4nLCAnLW9tYWUnLCAnPG91dGZpbGUubWFlPic=

> <r_lp_tautomer_probability>
1

> <r_epik_Ionization_Penalty>
8.97002e-05

> <r_epik_Ionization_Penalty_Charging>
0

> <r_epik_Ionization_Penalty_Neutral>
8.97002e-05

> <r_epik_State_Penalty>
-0

> <r_epik_Charging_Adjusted_Penalty>
0

> <i_epik_Tot_Q>
0

> <i_epik_Tot_abs_Q>
0

> <r_epik_Metal_State_Penalty>
-0

> <b_epik_Metal_Only>
0

> <s_lp_Force_Field>
OPLS_2005

> <r_lp_Energy>
64.3151

> <b_lp_Chiralities_Consistent>
1

> <s_lp_Variant>
AV-unprocessed.smi:2329-5

> <Gold.Version>
5.8.1

> <Gold.Id.Protein>
6NUR|6NUR_protein|mol2

> <Gold.PLP.Fitness>
39.6577

> <Gold.PLP.PLP>
-34.0478

> <Gold.PLP.part.hbond>
-2.0000

> <Gold.PLP.part.metal>
0.0000

> <Gold.PLP.part.buried>
-1.5233

> <Gold.PLP.part.nonpolar>
-32.0614

> <Gold.PLP.part.repulsive>
0.6857

> <Gold.PLP.ligand.clash>
0.0000

> <Gold.PLP.ligand.torsion>
0.2867

> <Gold.PLP.Chemscore.Hbond>
2.0000

> <Gold.PLP.Chemscore.CHOScore>
0.0000

> <Gold.PLP.Chemscore.Metal>
0.0000

> <Gold.Chemscore.Hbonds>
donor molecule, donor type, donor heavy atom, donor atom, acceptor molecule, acceptor atom, score
      L1  H     7    29       P1  7948  1.00
      L1  H    10    30       P1  7948  1.00

> <Gold.PLP.Chemscore.Internal.Correction>
0.1834

> <Gold.Rescore>
     Score         DG    S(hbond)    S(metal)    S(lipo)     H(rot)  DE(clash)    DE(int)     intcor
     18.53     -20.18       1.94        0.00      91.98       1.00       0.09       1.56       ----

> <Gold.Chemscore.Fitness>
18.5281

> <Gold.Chemscore.DG>
-20.1776

> <Gold.Chemscore.ZeroCoef>
-5.4800

> <Gold.Chemscore.Hbond>
1.9447

> <Gold.Chemscore.Metal>
0.0000

> <Gold.Chemscore.Lipo>
91.9842

> <Gold.Chemscore.Internal_Hbond>
0.0000

> <Gold.Chemscore.DEClash>
0.0860

> <Gold.Chemscore.DEInternal>
1.5635

> <Gold.Chemscore.Rot>
1.0000

> <Gold.Chemscore.Internal.Correction>
   9.000000E+99

> <Gold.Chemscore.Hbonds>
donor molecule, donor type, donor heavy atom, donor atom, acceptor molecule, acceptor atom, score
      L1  H     7    29       P1  7948  0.99
      L1  H    10    30       P1  7948  0.95

> <Gold.Chemscore.Hbond.Weighted>
-6.4954

> <Gold.Chemscore.Metal.Weighted>
-0.0000

> <Gold.Chemscore.Lipo.Weighted>
-10.7622

> <Gold.Chemscore.Internal_Hbond.Weighted>
0.0000

> <Gold.Chemscore.DEClash.Weighted>
0.0860

> <Gold.Chemscore.DEInternal.Weighted>
1.5635

> <Gold.Chemscore.Rot.Weighted>
2.5600

> <Gold.Chemscore.Internal.Correction.Weighted>
   9.000000E+99

> <Gold.Protein.RotatedTorsions>
[ 6907 6896 6895 6894 ] final   91.36 input  -60.11 | X-H torsion
[ 7974 7965 7964 7962 ] final  -18.45 input  175.53 | X-H torsion
[ 8008 7997 7996 7995 ] final   54.60 input   59.86 | X-H torsion
[ 10167 10162 10161 10158 ] final  -53.53 input  -65.29 | X-H torsion
[ 10718 10713 10712 10709 ] final  -38.02 input   66.30 | X-H torsion
[ 10763 10752 10751 10750 ] final  109.27 input  -60.55 | X-H torsion
[ 11005 11000 10999 10996 ] final -109.25 input  -57.11 | X-H torsion

> <Gold.Protein.ActiveResidues>
 VAL166  LYS551  ARG553  GLY616  TRP617  ASP618  TYR619  PRO620  LYS621  CYS622 
 ASP623  PHE694  ASN695  SER759  ASP760  ASP761  ALA762  ILE779  LEU786  VAL792 
 PHE793  MET794  SER795  GLU796  ALA797  LYS798  CYS799  TRP800  GLU811  SER814 

> <Gold.Protein.RotatedAtoms>
  152.5449  134.1668  159.8580 H   0  0  0  0  0  0  0  0  0  0  0  0  # atno 6907 bound_to 6896
  151.1682  133.4794  159.2601 H   0  0  0  0  0  0  0  0  0  0  0  0  # atno 6908 bound_to 6896
  151.1302  135.0137  159.8634 H   0  0  0  0  0  0  0  0  0  0  0  0  # atno 6909 bound_to 6896
  146.1891  140.3923  142.8465 H   0  0  0  0  0  0  0  0  0  0  0  0  # atno 7974 bound_to 7965
  155.4874  140.3470  155.4349 H   0  0  0  0  0  0  0  0  0  0  0  0  # atno 8008 bound_to 7997
  156.0999  140.1433  156.9509 H   0  0  0  0  0  0  0  0  0  0  0  0  # atno 8009 bound_to 7997
  154.4687  140.0908  156.7066 H   0  0  0  0  0  0  0  0  0  0  0  0  # atno 8010 bound_to 7997
  140.6479  143.2547  151.4806 H   0  0  0  0  0  0  0  0  0  0  0  0  # atno 10167 bound_to 10162
  156.3085  130.4249  149.8073 H   0  0  0  0  0  0  0  0  0  0  0  0  # atno 10718 bound_to 10713
  153.4324  135.3785  155.2178 H   0  0  0  0  0  0  0  0  0  0  0  0  # atno 10763 bound_to 10752
  154.8750  135.3843  154.4251 H   0  0  0  0  0  0  0  0  0  0  0  0  # atno 10764 bound_to 10752
  153.4786  135.7088  153.6014 H   0  0  0  0  0  0  0  0  0  0  0  0  # atno 10765 bound_to 10752
  141.0858  133.9142  157.2189 H   0  0  0  0  0  0  0  0  0  0  0  0  # atno 11005 bound_to 11000
  144.8453  140.6920  143.6203 LP  0  0  0  0  0  0  0  0  0  0  0  0  # atno 17320 bound_to 7965
  145.3847  139.1629  143.4261 LP  0  0  0  0  0  0  0  0  0  0  0  0  # atno 17321 bound_to 7965
  139.5692  144.1970  152.1810 LP  0  0  0  0  0  0  0  0  0  0  0  0  # atno 17342 bound_to 10162
  140.1261  144.5330  150.6832 LP  0  0  0  0  0  0  0  0  0  0  0  0  # atno 17343 bound_to 10162
  156.5425  130.8306  151.3273 LP  0  0  0  0  0  0  0  0  0  0  0  0  # atno 17370 bound_to 10713
  157.7385  130.9815  150.2258 LP  0  0  0  0  0  0  0  0  0  0  0  0  # atno 17371 bound_to 10713
  139.9676  135.0137  156.9427 LP  0  0  0  0  0  0  0  0  0  0  0  0  # atno 17394 bound_to 11000
  140.5367  134.0760  155.7330 LP  0  0  0  0  0  0  0  0  0  0  0  0  # atno 17395 bound_to 11000

$$$$
