AV-unprocessed.smi:2825|AV-procd|sdf|10891|dock10
  -GOLD-   2272015343D 1   1.00000     0.00000
 Structure written by MMmdl.
 49 50  0  0  0  0  0  0  0  0  2 V2000
  154.3763  135.9196  163.2304 C   0  0  0  0  0  0  0  0  0  0  0  0
  154.3359  137.2902  162.5469 C   0  0  0  0  0  0  0  0  0  0  0  0
  153.7161  137.2268  161.1436 C   0  0  0  0  0  0  0  0  0  0  0  0
  154.8547  136.4295  159.9287 S   0  0  0  0  0  0  0  0  0  0  0  0
  156.2433  136.7569  160.2864 O   0  0  0  0  0  0  0  0  0  0  0  0
  154.4491  135.0244  159.7683 O   0  0  0  0  0  0  0  0  0  0  0  0
  154.4887  137.2668  158.4524 N   0  0  0  0  0  0  0  0  0  0  0  0
  155.4654  137.2095  157.3595 C   0  0  0  0  0  0  0  0  0  0  0  0
  153.0861  137.3565  158.0196 C   0  0  0  0  0  0  0  0  0  0  0  0
  152.7401  138.7863  157.5455 C   0  0  1  0  0  0  0  0  0  0  0  0
  153.3037  138.9798  156.2648 O   0  0  0  0  0  0  0  0  0  0  0  0
  151.2267  139.0543  157.4221 C   0  0  0  0  0  0  0  0  0  0  0  0
  150.9147  140.4868  157.3167 N   0  0  0  0  0  0  0  0  0  0  0  0
  150.1797  141.1402  156.3762 C   0  0  0  0  0  0  0  0  0  0  0  0
  150.1874  142.4639  156.6937 N   0  3  0  0  0  0  0  0  0  0  0  0
  150.9335  142.6592  157.8573 C   0  0  0  0  0  0  0  0  0  0  0  0
  151.2288  143.8196  158.5627 C   0  0  0  0  0  0  0  0  0  0  0  0
  152.0267  143.6849  159.7210 C   0  0  0  0  0  0  0  0  0  0  0  0
  152.3701  144.9343  160.5145 C   0  0  0  0  0  0  0  0  0  0  0  0
  152.5006  142.4138  160.1370 C   0  0  0  0  0  0  0  0  0  0  0  0
  153.3616  142.2806  161.3815 C   0  0  0  0  0  0  0  0  0  0  0  0
  152.1867  141.2452  159.4071 C   0  0  0  0  0  0  0  0  0  0  0  0
  151.4001  141.3944  158.2667 C   0  0  0  0  0  0  0  0  0  0  0  0
  154.8207  135.9930  164.2232 H   0  0  0  0  0  0  0  0  0  0  0  0
  154.9690  135.2096  162.6528 H   0  0  0  0  0  0  0  0  0  0  0  0
  153.3738  135.5065  163.3447 H   0  0  0  0  0  0  0  0  0  0  0  0
  153.7727  137.9848  163.1704 H   0  0  0  0  0  0  0  0  0  0  0  0
  155.3500  137.6848  162.4801 H   0  0  0  0  0  0  0  0  0  0  0  0
  152.7699  136.6871  161.1488 H   0  0  0  0  0  0  0  0  0  0  0  0
  153.5105  138.2351  160.7839 H   0  0  0  0  0  0  0  0  0  0  0  0
  155.2933  138.0195  156.6499 H   0  0  0  0  0  0  0  0  0  0  0  0
  155.3858  136.2576  156.8336 H   0  0  0  0  0  0  0  0  0  0  0  0
  156.4804  137.3066  157.7423 H   0  0  0  0  0  0  0  0  0  0  0  0
  152.8669  136.6282  157.2367 H   0  0  0  0  0  0  0  0  0  0  0  0
  152.4712  137.0628  158.8683 H   0  0  0  0  0  0  0  0  0  0  0  0
  153.1685  139.5327  158.2145 H   0  0  0  0  0  0  0  0  0  0  0  0
  152.6511  138.7735  155.6132 H   0  0  0  0  0  0  0  0  0  0  0  0
  150.8412  138.5857  156.5153 H   0  0  0  0  0  0  0  0  0  0  0  0
  150.6736  138.6127  158.2506 H   0  0  0  0  0  0  0  0  0  0  0  0
  149.6902  140.6905  155.5243 H   0  0  0  0  0  0  0  0  0  0  0  0
  150.8660  144.7843  158.2385 H   0  0  0  0  0  0  0  0  0  0  0  0
  153.4492  145.0878  160.5383 H   0  0  0  0  0  0  0  0  0  0  0  0
  152.0086  144.8489  161.5396 H   0  0  0  0  0  0  0  0  0  0  0  0
  151.9165  145.8231  160.0751 H   0  0  0  0  0  0  0  0  0  0  0  0
  153.6594  141.2456  161.5525 H   0  0  0  0  0  0  0  0  0  0  0  0
  152.8160  142.6196  162.2623 H   0  0  0  0  0  0  0  0  0  0  0  0
  154.2699  142.8758  161.2853 H   0  0  0  0  0  0  0  0  0  0  0  0
  152.5541  140.2810  159.7249 H   0  0  0  0  0  0  0  0  0  0  0  0
  149.7209  143.1794  156.1512 H   0  0  0  0  0  0  0  0  0  0  0  0
  1  2  1  0  0  0  0
  1 24  1  0  0  0  0
  1 25  1  0  0  0  0
  1 26  1  0  0  0  0
  2  3  1  0  0  0  0
  2 27  1  0  0  0  0
  2 28  1  0  0  0  0
  3  4  1  0  0  0  0
  3 29  1  0  0  0  0
  3 30  1  0  0  0  0
  4  5  2  0  0  0  0
  4  6  2  0  0  0  0
  4  7  1  0  0  0  0
  7  8  1  0  0  0  0
  7  9  1  0  0  0  0
  8 31  1  0  0  0  0
  8 32  1  0  0  0  0
  8 33  1  0  0  0  0
  9 10  1  0  0  0  0
  9 34  1  0  0  0  0
  9 35  1  0  0  0  0
 10 11  1  0  0  0  0
 10 12  1  0  0  0  0
 10 36  1  0  0  0  0
 11 37  1  0  0  0  0
 12 13  1  0  0  0  0
 12 38  1  0  0  0  0
 12 39  1  0  0  0  0
 13 23  1  0  0  0  0
 13 14  1  0  0  0  0
 14 15  2  0  0  0  0
 14 40  1  0  0  0  0
 15 16  1  0  0  0  0
 15 49  1  0  0  0  0
 16 23  2  0  0  0  0
 16 17  1  0  0  0  0
 17 18  2  0  0  0  0
 17 41  1  0  0  0  0
 18 19  1  0  0  0  0
 18 20  1  0  0  0  0
 19 42  1  0  0  0  0
 19 43  1  0  0  0  0
 19 44  1  0  0  0  0
 20 21  1  0  0  0  0
 20 22  2  0  0  0  0
 21 45  1  0  0  0  0
 21 46  1  0  0  0  0
 21 47  1  0  0  0  0
 22 23  1  0  0  0  0
 22 48  1  0  0  0  0
M  CHG  1  15   1
M  END
> <s_m_source_file>
AV-unprocessed.smi

> <i_m_source_file_index>
2825

> <i_lp_mmshare_version>
43012

> <i_f3d_flags>
0

> <s_epik_input>
W0NIM11bQ0gyXVtDSDJdUyg9TykoPU8pTihbQ0gzXSlbQ0gyXVtDQEhdKFtPSF0pW0NIMl1uKFtjSF1uMSljKGMxMilbY0hdYyhbQ0gzXSljKFtjSF0yKVtDSDNd

> <s_epik_cmdline>
J2VwaWtfcHl0aG9uJywgJy1waCcsICc3LjAnLCAnLXRuJywgJzgnLCAnLW1hJywgJzIwMCcsICctbWV0YWxfYmluZGluZycsICctaW1hZScsICc8aW5maWxlLm1hZT4nLCAnLW9tYWUnLCAnPG91dGZpbGUubWFlPic=

> <r_epik_Ionization_Penalty>
1.0773

> <r_epik_Ionization_Penalty_Charging>
1.0773

> <r_epik_Ionization_Penalty_Neutral>
1.44651e-06

> <r_epik_State_Penalty>
1.13242

> <r_epik_Charging_Adjusted_Penalty>
2.20972

> <i_epik_Tot_Q>
1

> <i_epik_Tot_abs_Q>
1

> <r_epik_Metal_State_Penalty>
5.13045

> <b_epik_Metal_Only>
0

> <s_lp_Force_Field>
OPLS_2005

> <r_lp_Energy>
14.1853

> <b_lp_Chiralities_Consistent>
1

> <s_lp_Variant>
AV-unprocessed.smi:2825-4

> <Gold.Version>
5.8.1

> <Gold.Id.Protein>
6NUR|6NUR_protein|mol2

> <Gold.PLP.Fitness>
54.7687

> <Gold.PLP.PLP>
-44.5604

> <Gold.PLP.part.hbond>
-2.7761

> <Gold.PLP.part.metal>
0.0000

> <Gold.PLP.part.buried>
-6.7568

> <Gold.PLP.part.nonpolar>
-35.7074

> <Gold.PLP.part.repulsive>
0.0700

> <Gold.PLP.ligand.clash>
0.0000

> <Gold.PLP.ligand.torsion>
2.1872

> <Gold.PLP.Chemscore.Hbond>
4.0000

> <Gold.PLP.Chemscore.CHOScore>
0.0000

> <Gold.PLP.Chemscore.Metal>
0.0000

> <Gold.Chemscore.Hbonds>
donor molecule, donor type, donor heavy atom, donor atom, acceptor molecule, acceptor atom, score
      L1  H    15    49       P1  8028  2.00
      P1  H  6896  6909       L1     6  1.00
      P1  H  7997  8008       L1    11  1.00

> <Gold.PLP.Chemscore.Internal.Correction>
2.5827

> <Gold.Rescore>
     Score         DG    S(hbond)    S(metal)    S(lipo)     H(rot)  DE(clash)    DE(int)     intcor
     20.20     -22.40       2.88        0.00     117.20       2.51       0.00       2.19       ----

> <Gold.Chemscore.Fitness>
20.2013

> <Gold.Chemscore.DG>
-22.3958

> <Gold.Chemscore.ZeroCoef>
-5.4800

> <Gold.Chemscore.Hbond>
2.8833

> <Gold.Chemscore.Metal>
0.0000

> <Gold.Chemscore.Lipo>
117.2027

> <Gold.Chemscore.Internal_Hbond>
0.0000

> <Gold.Chemscore.DEClash>
0.0029

> <Gold.Chemscore.DEInternal>
2.1916

> <Gold.Chemscore.Rot>
2.5106

> <Gold.Chemscore.Internal.Correction>
   9.000000E+99

> <Gold.Chemscore.Hbonds>
donor molecule, donor type, donor heavy atom, donor atom, acceptor molecule, acceptor atom, score
      L1  H    15    49       P1  8028  1.00
      P1  H  6896  6909       L1     6  0.97
      P1  H  7997  8008       L1    11  0.68

> <Gold.Chemscore.Hbond.Weighted>
-9.6301

> <Gold.Chemscore.Metal.Weighted>
-0.0000

> <Gold.Chemscore.Lipo.Weighted>
-13.7127

> <Gold.Chemscore.Internal_Hbond.Weighted>
0.0000

> <Gold.Chemscore.DEClash.Weighted>
0.0029

> <Gold.Chemscore.DEInternal.Weighted>
2.1916

> <Gold.Chemscore.Rot.Weighted>
6.4271

> <Gold.Chemscore.Internal.Correction.Weighted>
   9.000000E+99

> <Gold.Protein.RotatedTorsions>
[ 6907 6896 6895 6894 ] final -162.68 input  -60.11 | X-H torsion
[ 7974 7965 7964 7962 ] final  113.21 input  175.53 | X-H torsion
[ 8008 7997 7996 7995 ] final  -41.55 input   59.86 | X-H torsion
[ 10167 10162 10161 10158 ] final  -70.02 input  -65.29 | X-H torsion
[ 10718 10713 10712 10709 ] final   45.32 input   66.30 | X-H torsion
[ 10763 10752 10751 10750 ] final  167.98 input  -60.55 | X-H torsion
[ 11005 11000 10999 10996 ] final  179.30 input  -57.11 | X-H torsion

> <Gold.Protein.ActiveResidues>
 VAL166  LYS551  ARG553  GLY616  TRP617  ASP618  TYR619  PRO620  LYS621  CYS622 
 ASP623  PHE694  ASN695  SER759  ASP760  ASP761  ALA762  ILE779  LEU786  VAL792 
 PHE793  MET794  SER795  GLU796  ALA797  LYS798  CYS799  TRP800  GLU811  SER814 

> <Gold.Protein.RotatedAtoms>
  151.3841  133.3811  159.2713 H   0  0  0  0  0  0  0  0  0  0  0  0  # atno 6907 bound_to 6896
  150.9555  134.8951  159.7709 H   0  0  0  0  0  0  0  0  0  0  0  0  # atno 6908 bound_to 6896
  152.5129  134.3798  159.9399 H   0  0  0  0  0  0  0  0  0  0  0  0  # atno 6909 bound_to 6896
  145.2198  139.2867  143.4224 H   0  0  0  0  0  0  0  0  0  0  0  0  # atno 7974 bound_to 7965
  154.4003  140.1496  156.3209 H   0  0  0  0  0  0  0  0  0  0  0  0  # atno 8008 bound_to 7997
  155.8530  140.3457  155.5684 H   0  0  0  0  0  0  0  0  0  0  0  0  # atno 8009 bound_to 7997
  155.7963  140.0864  157.1972 H   0  0  0  0  0  0  0  0  0  0  0  0  # atno 8010 bound_to 7997
  140.5385  143.2316  151.7133 H   0  0  0  0  0  0  0  0  0  0  0  0  # atno 10167 bound_to 10162
  157.4363  130.8054  149.7651 H   0  0  0  0  0  0  0  0  0  0  0  0  # atno 10718 bound_to 10713
  154.3618  135.2753  155.2315 H   0  0  0  0  0  0  0  0  0  0  0  0  # atno 10763 bound_to 10752
  154.4500  135.5933  153.6189 H   0  0  0  0  0  0  0  0  0  0  0  0  # atno 10764 bound_to 10752
  152.9843  135.6039  154.3840 H   0  0  0  0  0  0  0  0  0  0  0  0  # atno 10765 bound_to 10752
  140.4047  134.6746  157.4581 H   0  0  0  0  0  0  0  0  0  0  0  0  # atno 11005 bound_to 11000
  146.3378  140.2500  142.8598 LP  0  0  0  0  0  0  0  0  0  0  0  0  # atno 17320 bound_to 7965
  144.9776  140.8429  143.5417 LP  0  0  0  0  0  0  0  0  0  0  0  0  # atno 17321 bound_to 7965
  139.4980  144.4005  152.0186 LP  0  0  0  0  0  0  0  0  0  0  0  0  # atno 17342 bound_to 10162
  140.3113  144.3535  150.6033 LP  0  0  0  0  0  0  0  0  0  0  0  0  # atno 17343 bound_to 10162
  155.9932  130.3926  150.2911 LP  0  0  0  0  0  0  0  0  0  0  0  0  # atno 17370 bound_to 10713
  157.1072  131.0211  151.3062 LP  0  0  0  0  0  0  0  0  0  0  0  0  # atno 17371 bound_to 10713
  140.0311  134.6405  155.9105 LP  0  0  0  0  0  0  0  0  0  0  0  0  # atno 17394 bound_to 11000
  141.1844  133.6552  156.5154 LP  0  0  0  0  0  0  0  0  0  0  0  0  # atno 17395 bound_to 11000

$$$$
