AV-unprocessed.smi:1913|AV-procd|sdf|7753|dock4
  -GOLD-   22720 9493D 1   1.00000     0.00000
 Structure written by MMmdl.
 40 42  0  0  0  0  0  0  0  0  1 V2000
  153.5551  144.3969  163.9583 C   0  0  0  0  0  0  0  0  0  0  0  0
  153.7295  143.0704  163.4815 O   0  0  0  0  0  0  0  0  0  0  0  0
  153.2689  142.7694  162.2176 C   0  0  0  0  0  0  0  0  0  0  0  0
  152.4714  143.6359  161.4336 C   0  0  0  0  0  0  0  0  0  0  0  0
  152.0373  143.2436  160.1540 C   0  0  0  0  0  0  0  0  0  0  0  0
  152.3915  141.9785  159.6228 C   0  0  0  0  0  0  0  0  0  0  0  0
  151.9806  141.5341  158.3822 O   0  0  0  0  0  0  0  0  0  0  0  0
  151.1421  142.3752  157.6043 C   0  0  0  0  0  0  0  0  0  0  0  0
  153.2023  141.1149  160.3988 C   0  0  0  0  0  0  0  0  0  0  0  0
  153.5968  139.7446  159.8547 C   0  0  1  0  0  0  0  0  0  0  0  0
  153.7460  139.7283  158.4467 O   0  0  0  0  0  0  0  0  0  0  0  0
  154.8911  139.2355  160.5167 C   0  0  0  0  0  0  0  0  0  0  0  0
  154.8352  137.8166  160.8154 N   0  0  0  0  0  0  0  0  0  0  0  0
  154.7189  136.7990  159.9407 C   0  0  0  0  0  0  0  0  0  0  0  0
  154.6839  135.5669  160.4414 N   0  0  0  0  0  0  0  0  0  0  0  0
  154.7898  135.8142  161.7996 C   0  0  0  0  0  0  0  0  0  0  0  0
  154.8135  134.9231  162.8963 C   0  0  0  0  0  0  0  0  0  0  0  0
  154.9306  135.4142  164.2136 C   0  0  0  0  0  0  0  0  0  0  0  0
  155.0239  136.8005  164.4549 C   0  0  0  0  0  0  0  0  0  0  0  0
  155.0022  137.7078  163.3784 C   0  0  0  0  0  0  0  0  0  0  0  0
  154.8867  137.2131  162.0661 C   0  0  0  0  0  0  0  0  0  0  0  0
  153.6226  141.5140  161.6875 C   0  0  0  0  0  0  0  0  0  0  0  0
  153.9655  144.4744  164.9651 H   0  0  0  0  0  0  0  0  0  0  0  0
  152.4995  144.6663  164.0117 H   0  0  0  0  0  0  0  0  0  0  0  0
  154.0813  145.1181  163.3315 H   0  0  0  0  0  0  0  0  0  0  0  0
  152.1733  144.6089  161.7934 H   0  0  0  0  0  0  0  0  0  0  0  0
  151.4262  143.9381  159.5982 H   0  0  0  0  0  0  0  0  0  0  0  0
  150.9004  141.8721  156.6682 H   0  0  0  0  0  0  0  0  0  0  0  0
  151.6390  143.3138  157.3556 H   0  0  0  0  0  0  0  0  0  0  0  0
  150.2026  142.5863  158.1170 H   0  0  0  0  0  0  0  0  0  0  0  0
  152.7899  139.0435  160.0696 H   0  0  0  0  0  0  0  0  0  0  0  0
  153.1472  139.0898  158.0905 H   0  0  0  0  0  0  0  0  0  0  0  0
  155.7547  139.4328  159.8798 H   0  0  0  0  0  0  0  0  0  0  0  0
  155.0671  139.7652  161.4537 H   0  0  0  0  0  0  0  0  0  0  0  0
  154.6525  136.9732  158.8766 H   0  0  0  0  0  0  0  0  0  0  0  0
  154.7418  133.8594  162.7237 H   0  0  0  0  0  0  0  0  0  0  0  0
  154.9483  134.7234  165.0436 H   0  0  0  0  0  0  0  0  0  0  0  0
  155.1120  137.1672  165.4670 H   0  0  0  0  0  0  0  0  0  0  0  0
  155.0727  138.7706  163.5577 H   0  0  0  0  0  0  0  0  0  0  0  0
  154.2248  140.8488  162.2891 H   0  0  0  0  0  0  0  0  0  0  0  0
  1  2  1  0  0  0  0
  1 23  1  0  0  0  0
  1 24  1  0  0  0  0
  1 25  1  0  0  0  0
  2  3  1  0  0  0  0
  3 22  1  0  0  0  0
  3  4  2  0  0  0  0
  4  5  1  0  0  0  0
  4 26  1  0  0  0  0
  5  6  2  0  0  0  0
  5 27  1  0  0  0  0
  6  7  1  0  0  0  0
  6  9  1  0  0  0  0
  7  8  1  0  0  0  0
  8 28  1  0  0  0  0
  8 29  1  0  0  0  0
  8 30  1  0  0  0  0
  9 10  1  0  0  0  0
  9 22  2  0  0  0  0
 10 11  1  0  0  0  0
 10 12  1  0  0  0  0
 10 31  1  0  0  0  0
 11 32  1  0  0  0  0
 12 13  1  0  0  0  0
 12 33  1  0  0  0  0
 12 34  1  0  0  0  0
 13 21  1  0  0  0  0
 13 14  1  0  0  0  0
 14 15  2  0  0  0  0
 14 35  1  0  0  0  0
 15 16  1  0  0  0  0
 16 21  2  0  0  0  0
 16 17  1  0  0  0  0
 17 18  2  0  0  0  0
 17 36  1  0  0  0  0
 18 19  1  0  0  0  0
 18 37  1  0  0  0  0
 19 20  2  0  0  0  0
 19 38  1  0  0  0  0
 20 21  1  0  0  0  0
 20 39  1  0  0  0  0
 22 40  1  0  0  0  0
M  END
> <s_m_source_file>
AV-unprocessed.smi

> <i_m_source_file_index>
1913

> <i_lp_mmshare_version>
43012

> <i_f3d_flags>
0

> <s_epik_input>
W0NIM11PYzFbY0hdW2NIXWMoT1tDSDNdKWMoW2NIXTEpW0NASF0oW09IXSlbQ0gyXW4oW2NIXW4yKWMoYzIzKVtjSF1bY0hdW2NIXVtjSF0z

> <s_epik_cmdline>
J2VwaWtfcHl0aG9uJywgJy1waCcsICc3LjAnLCAnLXRuJywgJzgnLCAnLW1hJywgJzIwMCcsICctbWV0YWxfYmluZGluZycsICctaW1hZScsICc8aW5maWxlLm1hZT4nLCAnLW9tYWUnLCAnPG91dGZpbGUubWFlPic=

> <r_lp_tautomer_probability>
1

> <r_epik_Ionization_Penalty>
0.0696512

> <r_epik_Ionization_Penalty_Charging>
0

> <r_epik_Ionization_Penalty_Neutral>
0.0696512

> <r_epik_State_Penalty>
0.0610247

> <r_epik_Charging_Adjusted_Penalty>
0.0610247

> <i_epik_Tot_Q>
0

> <i_epik_Tot_abs_Q>
0

> <r_epik_Metal_State_Penalty>
6.42746e-05

> <b_epik_Metal_Only>
0

> <s_lp_Force_Field>
OPLS_2005

> <r_lp_Energy>
19.1382

> <b_lp_Chiralities_Consistent>
1

> <s_lp_Variant>
AV-unprocessed.smi:1913-2

> <Gold.Version>
5.8.1

> <Gold.Id.Protein>
6NUR|6NUR_protein|mol2

> <Gold.PLP.Fitness>
49.5806

> <Gold.PLP.PLP>
-46.2181

> <Gold.PLP.part.hbond>
-2.0000

> <Gold.PLP.part.metal>
0.0000

> <Gold.PLP.part.buried>
-5.3496

> <Gold.PLP.part.nonpolar>
-38.3439

> <Gold.PLP.part.repulsive>
0.0850

> <Gold.PLP.ligand.clash>
0.0000

> <Gold.PLP.ligand.torsion>
1.3244

> <Gold.PLP.Chemscore.Hbond>
1.9913

> <Gold.PLP.Chemscore.CHOScore>
0.0000

> <Gold.PLP.Chemscore.Metal>
0.0000

> <Gold.Chemscore.Hbonds>
donor molecule, donor type, donor heavy atom, donor atom, acceptor molecule, acceptor atom, score
      P1  H  7997  8010       L1    11  1.00

> <Gold.PLP.Chemscore.Internal.Correction>
0.0376

> <Gold.Rescore>
     Score         DG    S(hbond)    S(metal)    S(lipo)     H(rot)  DE(clash)    DE(int)     intcor
     20.30     -22.03       1.67        0.00     144.93       2.33       0.39       1.34       ----

> <Gold.Chemscore.Fitness>
20.3024

> <Gold.Chemscore.DG>
-22.0322

> <Gold.Chemscore.ZeroCoef>
-5.4800

> <Gold.Chemscore.Hbond>
1.6664

> <Gold.Chemscore.Metal>
0.0000

> <Gold.Chemscore.Lipo>
144.9327

> <Gold.Chemscore.Internal_Hbond>
0.0000

> <Gold.Chemscore.DEClash>
0.3894

> <Gold.Chemscore.DEInternal>
1.3403

> <Gold.Chemscore.Rot>
2.3323

> <Gold.Chemscore.Internal.Correction>
   9.000000E+99

> <Gold.Chemscore.Hbonds>
donor molecule, donor type, donor heavy atom, donor atom, acceptor molecule, acceptor atom, score
      P1  H  6896  6907       L1    15  0.02
      P1  H  7997  8010       L1    11  0.55

> <Gold.Chemscore.Hbond.Weighted>
-5.5658

> <Gold.Chemscore.Metal.Weighted>
-0.0000

> <Gold.Chemscore.Lipo.Weighted>
-16.9571

> <Gold.Chemscore.Internal_Hbond.Weighted>
0.0000

> <Gold.Chemscore.DEClash.Weighted>
0.3894

> <Gold.Chemscore.DEInternal.Weighted>
1.3403

> <Gold.Chemscore.Rot.Weighted>
5.9708

> <Gold.Chemscore.Internal.Correction.Weighted>
   9.000000E+99

> <Gold.Protein.RotatedTorsions>
[ 6907 6896 6895 6894 ] final   57.66 input  -60.11 | X-H torsion
[ 7974 7965 7964 7962 ] final -155.77 input  175.53 | X-H torsion
[ 8008 7997 7996 7995 ] final   13.76 input   59.86 | X-H torsion
[ 10167 10162 10161 10158 ] final  -94.40 input  -65.29 | X-H torsion
[ 10718 10713 10712 10709 ] final   33.68 input   66.30 | X-H torsion
[ 10763 10752 10751 10750 ] final  142.29 input  -60.55 | X-H torsion
[ 11005 11000 10999 10996 ] final  -92.19 input  -57.11 | X-H torsion

> <Gold.Protein.ActiveResidues>
 VAL166  LYS551  ARG553  GLY616  TRP617  ASP618  TYR619  PRO620  LYS621  CYS622 
 ASP623  PHE694  ASN695  SER759  ASP760  ASP761  ALA762  ILE779  LEU786  VAL792 
 PHE793  MET794  SER795  GLU796  ALA797  LYS798  CYS799  TRP800  GLU811  SER814 

> <Gold.Protein.RotatedAtoms>
  152.3752  134.6674  160.0162 H   0  0  0  0  0  0  0  0  0  0  0  0  # atno 6907 bound_to 6896
  151.6954  133.3305  159.3261 H   0  0  0  0  0  0  0  0  0  0  0  0  # atno 6908 bound_to 6896
  150.7704  134.6597  159.6377 H   0  0  0  0  0  0  0  0  0  0  0  0  # atno 6909 bound_to 6896
  144.7624  140.4203  143.5966 H   0  0  0  0  0  0  0  0  0  0  0  0  # atno 7974 bound_to 7965
  154.8389  140.2911  155.5672 H   0  0  0  0  0  0  0  0  0  0  0  0  # atno 8008 bound_to 7997
  156.3010  140.2517  156.3260 H   0  0  0  0  0  0  0  0  0  0  0  0  # atno 8009 bound_to 7997
  154.9147  140.0387  157.1955 H   0  0  0  0  0  0  0  0  0  0  0  0  # atno 8010 bound_to 7997
  140.3148  143.3084  152.0110 H   0  0  0  0  0  0  0  0  0  0  0  0  # atno 10167 bound_to 10162
  157.3008  130.7350  149.6666 H   0  0  0  0  0  0  0  0  0  0  0  0  # atno 10718 bound_to 10713
  153.9533  135.2968  155.3437 H   0  0  0  0  0  0  0  0  0  0  0  0  # atno 10763 bound_to 10752
  154.7415  135.5023  153.9133 H   0  0  0  0  0  0  0  0  0  0  0  0  # atno 10764 bound_to 10752
  153.0983  135.6727  153.9830 H   0  0  0  0  0  0  0  0  0  0  0  0  # atno 10765 bound_to 10752
  141.1528  133.7804  156.9985 H   0  0  0  0  0  0  0  0  0  0  0  0  # atno 11005 bound_to 11000
  145.6576  139.1575  143.2826 LP  0  0  0  0  0  0  0  0  0  0  0  0  # atno 17320 bound_to 7965
  146.1700  140.6659  142.9237 LP  0  0  0  0  0  0  0  0  0  0  0  0  # atno 17321 bound_to 7965
  139.4886  144.6357  151.6980 LP  0  0  0  0  0  0  0  0  0  0  0  0  # atno 17342 bound_to 10162
  140.5536  144.0384  150.6138 LP  0  0  0  0  0  0  0  0  0  0  0  0  # atno 17343 bound_to 10162
  155.9671  130.4280  150.4770 LP  0  0  0  0  0  0  0  0  0  0  0  0  # atno 17370 bound_to 10713
  157.2751  131.0595  151.2234 LP  0  0  0  0  0  0  0  0  0  0  0  0  # atno 17371 bound_to 10713
  140.0956  134.9566  157.1844 LP  0  0  0  0  0  0  0  0  0  0  0  0  # atno 17394 bound_to 11000
  140.3387  134.2728  155.7215 LP  0  0  0  0  0  0  0  0  0  0  0  0  # atno 17395 bound_to 11000

$$$$
