AV-unprocessed.smi:34|AV-procd|sdf|244|dock2
  -GOLD-   2262015593D 1   1.00000     0.00000
 Structure written by MMmdl.
 54 58  0  0  0  0  0  0  0  0  2 V2000
  144.7381  138.3248  159.9674 O   0  0  0  0  0  0  0  0  0  0  0  0
  145.4237  137.3740  159.5852 C   0  0  0  0  0  0  0  0  0  0  0  0
  145.7889  137.0705  158.3136 N   0  5  0  0  0  0  0  0  0  0  0  0
  147.0844  137.0913  157.9643 C   0  0  0  0  0  0  0  0  0  0  0  0
  148.0096  136.4698  158.7396 N   0  0  0  0  0  0  0  0  0  0  0  0
  149.3036  136.4906  158.3983 C   0  0  0  0  0  0  0  0  0  0  0  0
  149.8853  137.0665  157.3415 N   0  0  0  0  0  0  0  0  0  0  0  0
  148.9647  137.6999  156.5582 C   0  0  0  0  0  0  0  0  0  0  0  0
  147.5630  137.7619  156.8043 C   0  0  0  0  0  0  0  0  0  0  0  0
  146.9242  138.4904  155.8112 N   0  0  0  0  0  0  0  0  0  0  0  0
  147.9432  138.8193  155.0191 C   0  0  0  0  0  0  0  0  0  0  0  0
  149.1730  138.3995  155.3835 N   0  0  0  0  0  0  0  0  0  0  0  0
  150.4898  138.5947  154.7037 C   0  0  1  0  0  0  0  0  0  0  0  0
  151.0239  139.8215  155.1193 O   0  0  0  0  0  0  0  0  0  0  0  0
  152.2336  139.6291  155.8508 C   0  0  1  0  0  0  0  0  0  0  0  0
  151.9553  139.6581  157.3620 C   0  0  0  0  0  0  0  0  0  0  0  0
  151.9386  141.0062  157.8028 O   0  0  0  0  0  0  0  0  0  0  0  0
  152.3015  141.3116  159.0634 C   0  0  0  0  0  0  0  0  0  0  0  0
  152.7827  140.4953  159.8516 O   0  0  0  0  0  0  0  0  0  0  0  0
  152.0594  142.7433  159.4047 C   0  0  0  0  0  0  0  0  0  0  0  0
  151.8663  143.1108  160.7570 C   0  0  0  0  0  0  0  0  0  0  0  0
  151.6332  144.4546  161.1090 C   0  0  0  0  0  0  0  0  0  0  0  0
  151.5894  145.4475  160.1129 C   0  0  0  0  0  0  0  0  0  0  0  0
  151.7795  145.0948  158.7642 C   0  0  0  0  0  0  0  0  0  0  0  0
  152.0137  143.7516  158.4103 C   0  0  0  0  0  0  0  0  0  0  0  0
  152.7541  138.2863  155.3427 C   0  0  2  0  0  0  0  0  0  0  0  0
  153.3766  138.5100  154.1820 F   0  0  0  0  0  0  0  0  0  0  0  0
  151.4718  137.4961  155.1342 C   0  0  2  0  0  0  0  0  0  0  0  0
  151.6566  136.4869  154.1622 O   0  0  0  0  0  0  0  0  0  0  0  0
  145.8875  136.3611  160.5985 C   0  0  0  0  0  0  0  0  0  0  0  0
  146.4125  136.7990  161.8362 C   0  0  0  0  0  0  0  0  0  0  0  0
  146.8787  135.8701  162.7869 C   0  0  0  0  0  0  0  0  0  0  0  0
  146.8316  134.4917  162.5074 C   0  0  0  0  0  0  0  0  0  0  0  0
  146.3224  134.0434  161.2747 C   0  0  0  0  0  0  0  0  0  0  0  0
  145.8583  134.9720  160.3226 C   0  0  0  0  0  0  0  0  0  0  0  0
  149.9694  135.9690  159.0697 H   0  0  0  0  0  0  0  0  0  0  0  0
  147.7787  139.3941  154.1203 H   0  0  0  0  0  0  0  0  0  0  0  0
  150.2663  138.6145  153.6360 H   0  0  0  0  0  0  0  0  0  0  0  0
  152.9234  140.4378  155.6046 H   0  0  0  0  0  0  0  0  0  0  0  0
  150.9817  139.2101  157.5645 H   0  0  0  0  0  0  0  0  0  0  0  0
  152.7016  139.0832  157.9115 H   0  0  0  0  0  0  0  0  0  0  0  0
  151.8953  142.3659  161.5392 H   0  0  0  0  0  0  0  0  0  0  0  0
  151.4875  144.7234  162.1449 H   0  0  0  0  0  0  0  0  0  0  0  0
  151.4098  146.4777  160.3827 H   0  0  0  0  0  0  0  0  0  0  0  0
  151.7455  145.8557  157.9984 H   0  0  0  0  0  0  0  0  0  0  0  0
  152.1543  143.5160  157.3656 H   0  0  0  0  0  0  0  0  0  0  0  0
  153.4652  137.8019  156.0129 H   0  0  0  0  0  0  0  0  0  0  0  0
  151.1464  137.0546  156.0778 H   0  0  0  0  0  0  0  0  0  0  0  0
  151.4469  136.8479  153.3138 H   0  0  0  0  0  0  0  0  0  0  0  0
  146.4580  137.8536  162.0663 H   0  0  0  0  0  0  0  0  0  0  0  0
  147.2744  136.2165  163.7300 H   0  0  0  0  0  0  0  0  0  0  0  0
  147.1895  133.7795  163.2359 H   0  0  0  0  0  0  0  0  0  0  0  0
  146.2908  132.9864  161.0560 H   0  0  0  0  0  0  0  0  0  0  0  0
  145.4836  134.6057  159.3778 H   0  0  0  0  0  0  0  0  0  0  0  0
  1  2  2  0  0  0  0
  2  3  1  0  0  0  0
  2 30  1  0  0  0  0
  3  4  1  0  0  0  0
  4  9  1  0  0  0  0
  4  5  2  0  0  0  0
  5  6  1  0  0  0  0
  6  7  2  0  0  0  0
  6 36  1  0  0  0  0
  7  8  1  0  0  0  0
  8 12  1  0  0  0  0
  8  9  2  0  0  0  0
  9 10  1  0  0  0  0
 10 11  2  0  0  0  0
 11 12  1  0  0  0  0
 11 37  1  0  0  0  0
 12 13  1  0  0  0  0
 13 28  1  0  0  0  0
 13 14  1  0  0  0  0
 13 38  1  0  0  0  0
 14 15  1  0  0  0  0
 15 16  1  0  0  0  0
 15 26  1  0  0  0  0
 15 39  1  0  0  0  0
 16 17  1  0  0  0  0
 16 40  1  0  0  0  0
 16 41  1  0  0  0  0
 17 18  1  0  0  0  0
 18 19  2  0  0  0  0
 18 20  1  0  0  0  0
 20 25  1  0  0  0  0
 20 21  2  0  0  0  0
 21 22  1  0  0  0  0
 21 42  1  0  0  0  0
 22 23  2  0  0  0  0
 22 43  1  0  0  0  0
 23 24  1  0  0  0  0
 23 44  1  0  0  0  0
 24 25  2  0  0  0  0
 24 45  1  0  0  0  0
 25 46  1  0  0  0  0
 26 27  1  0  0  0  0
 26 28  1  0  0  0  0
 26 47  1  0  0  0  0
 28 29  1  0  0  0  0
 28 48  1  0  0  0  0
 29 49  1  0  0  0  0
 30 35  1  0  0  0  0
 30 31  2  0  0  0  0
 31 32  1  0  0  0  0
 31 50  1  0  0  0  0
 32 33  2  0  0  0  0
 32 51  1  0  0  0  0
 33 34  1  0  0  0  0
 33 52  1  0  0  0  0
 34 35  2  0  0  0  0
 34 53  1  0  0  0  0
 35 54  1  0  0  0  0
M  CHG  1   3  -1
M  END
> <s_m_source_file>
AV-unprocessed.smi

> <i_m_source_file_index>
34

> <i_lp_mmshare_version>
43012

> <i_f3d_flags>
0

> <s_epik_input>
W2NIXTFbY0hdW2NIXVtjSF1bY0hdYzFDKD1PKVtOSF1jKG5bY0hdbjIpYyhjMjMpbltjSF1uM1tDQEBIXTRPW0NASF0oW0NAQEhdKEYpW0NASF00W09IXSlbQ0gyXU9DKD1PKWM1W2NIXVtjSF1bY0hdW2NIXVtjSF01

> <s_epik_cmdline>
J2VwaWtfcHl0aG9uJywgJy1waCcsICc3LjAnLCAnLXRuJywgJzgnLCAnLW1hJywgJzIwMCcsICctbWV0YWxfYmluZGluZycsICctaW1hZScsICc8aW5maWxlLm1hZT4nLCAnLW9tYWUnLCAnPG91dGZpbGUubWFlPic=

> <r_lp_tautomer_probability>
1

> <r_epik_Ionization_Penalty>
4.33227

> <r_epik_Ionization_Penalty_Charging>
3.41027

> <r_epik_Ionization_Penalty_Neutral>
0.922001

> <r_epik_State_Penalty>
3.41358

> <r_epik_Charging_Adjusted_Penalty>
6.82385

> <i_epik_Tot_Q>
-1

> <i_epik_Tot_abs_Q>
1

> <r_epik_Metal_State_Penalty>
0.496292

> <b_epik_Metal_Only>
1

> <s_epik_Chemistry_Notes>
This compound has an ester and may undergo hydrolysis at high or low pH. This compound contains an acetal/aminal-like group ( X-CH(R)-Y where X, Y are N, S, or O) that may be acid/base labile, releasing an aldehyde.

> <s_lp_Force_Field>
OPLS_2005

> <r_lp_Energy>
49.0999

> <b_lp_Chiralities_Consistent>
1

> <s_lp_Variant>
AV-unprocessed.smi:34-30

> <Gold.Version>
5.8.1

> <Gold.Id.Protein>
6NUR|6NUR_protein|mol2

> <Gold.PLP.Fitness>
63.5718

> <Gold.PLP.PLP>
-61.4692

> <Gold.PLP.part.hbond>
-4.0000

> <Gold.PLP.part.metal>
0.0000

> <Gold.PLP.part.buried>
-7.0614

> <Gold.PLP.part.nonpolar>
-50.0214

> <Gold.PLP.part.repulsive>
0.0397

> <Gold.PLP.ligand.clash>
0.0000

> <Gold.PLP.ligand.torsion>
3.1340

> <Gold.PLP.Chemscore.Hbond>
2.5148

> <Gold.PLP.Chemscore.CHOScore>
0.0000

> <Gold.PLP.Chemscore.Metal>
0.0000

> <Gold.Chemscore.Hbonds>
donor molecule, donor type, donor heavy atom, donor atom, acceptor molecule, acceptor atom, score
      L1  H    29    49       P1  7949  0.63
      P1  H  7989  7998       L1    14  1.00
      P1  H 10752 10765       L1    29  1.00

> <Gold.PLP.Chemscore.Internal.Correction>
0.8261

> <Gold.Rescore>
     Score         DG    S(hbond)    S(metal)    S(lipo)     H(rot)  DE(clash)    DE(int)     intcor
     14.92     -20.12       1.68        0.00     136.02       2.69       0.70       4.50       ----

> <Gold.Chemscore.Fitness>
14.9203

> <Gold.Chemscore.DG>
-20.1201

> <Gold.Chemscore.ZeroCoef>
-5.4800

> <Gold.Chemscore.Hbond>
1.6837

> <Gold.Chemscore.Metal>
0.0000

> <Gold.Chemscore.Lipo>
136.0168

> <Gold.Chemscore.Internal_Hbond>
0.0000

> <Gold.Chemscore.DEClash>
0.7023

> <Gold.Chemscore.DEInternal>
4.4976

> <Gold.Chemscore.Rot>
2.6944

> <Gold.Chemscore.Internal.Correction>
   9.000000E+99

> <Gold.Chemscore.Hbonds>
donor molecule, donor type, donor heavy atom, donor atom, acceptor molecule, acceptor atom, score
      L1  H    29    49       P1  7949  0.50
      P1  H  7989  7998       L1    14  0.26
      P1  H 10752 10765       L1    29  0.75

> <Gold.Chemscore.Hbond.Weighted>
-5.6237

> <Gold.Chemscore.Metal.Weighted>
-0.0000

> <Gold.Chemscore.Lipo.Weighted>
-15.9140

> <Gold.Chemscore.Internal_Hbond.Weighted>
0.0000

> <Gold.Chemscore.DEClash.Weighted>
0.7023

> <Gold.Chemscore.DEInternal.Weighted>
4.4976

> <Gold.Chemscore.Rot.Weighted>
6.8975

> <Gold.Chemscore.Internal.Correction.Weighted>
   9.000000E+99

> <Gold.Protein.RotatedTorsions>
[ 6907 6896 6895 6894 ] final   54.27 input  -60.11 | X-H torsion
[ 7974 7965 7964 7962 ] final  -23.17 input  175.53 | X-H torsion
[ 8008 7997 7996 7995 ] final  161.88 input   59.86 | X-H torsion
[ 10167 10162 10161 10158 ] final  132.18 input  -65.29 | X-H torsion
[ 10718 10713 10712 10709 ] final  -26.80 input   66.30 | X-H torsion
[ 10763 10752 10751 10750 ] final  153.10 input  -60.55 | X-H torsion
[ 11005 11000 10999 10996 ] final  -98.92 input  -57.11 | X-H torsion

> <Gold.Protein.ActiveResidues>
 VAL166  LYS551  ARG553  GLY616  TRP617  ASP618  TYR619  PRO620  LYS621  CYS622 
 ASP623  PHE694  ASN695  SER759  ASP760  ASP761  ALA762  ILE779  LEU786  VAL792 
 PHE793  MET794  SER795  GLU796  ALA797  LYS798  CYS799  TRP800  GLU811  SER814 

> <Gold.Protein.RotatedAtoms>
  152.3422  134.7119  160.0260 H   0  0  0  0  0  0  0  0  0  0  0  0  # atno 6907 bound_to 6896
  151.7500  133.3321  159.3397 H   0  0  0  0  0  0  0  0  0  0  0  0  # atno 6908 bound_to 6896
  150.7487  134.6133  159.6142 H   0  0  0  0  0  0  0  0  0  0  0  0  # atno 6909 bound_to 6896
  146.1632  140.4579  142.8562 H   0  0  0  0  0  0  0  0  0  0  0  0  # atno 7974 bound_to 7965
  156.2071  140.1765  156.7775 H   0  0  0  0  0  0  0  0  0  0  0  0  # atno 8008 bound_to 7997
  154.5670  140.0689  156.8937 H   0  0  0  0  0  0  0  0  0  0  0  0  # atno 8009 bound_to 7997
  155.2742  140.3344  155.4265 H   0  0  0  0  0  0  0  0  0  0  0  0  # atno 8010 bound_to 7997
  139.5351  144.6673  151.4815 H   0  0  0  0  0  0  0  0  0  0  0  0  # atno 10167 bound_to 10162
  156.4464  130.4475  149.7018 H   0  0  0  0  0  0  0  0  0  0  0  0  # atno 10718 bound_to 10713
  154.1307  135.2827  155.3186 H   0  0  0  0  0  0  0  0  0  0  0  0  # atno 10763 bound_to 10752
  154.6357  135.5420  153.7735 H   0  0  0  0  0  0  0  0  0  0  0  0  # atno 10764 bound_to 10752
  153.0282  135.6474  154.1458 H   0  0  0  0  0  0  0  0  0  0  0  0  # atno 10765 bound_to 10752
  141.1327  133.8282  157.0904 H   0  0  0  0  0  0  0  0  0  0  0  0  # atno 11005 bound_to 11000
  144.8056  140.6294  143.6449 LP  0  0  0  0  0  0  0  0  0  0  0  0  # atno 17320 bound_to 7965
  145.4534  139.1521  143.3906 LP  0  0  0  0  0  0  0  0  0  0  0  0  # atno 17321 bound_to 7965
  140.6552  143.8614  150.6828 LP  0  0  0  0  0  0  0  0  0  0  0  0  # atno 17342 bound_to 10162
  140.1991  143.3974  152.1805 LP  0  0  0  0  0  0  0  0  0  0  0  0  # atno 17343 bound_to 10162
  156.3862  130.7604  151.2601 LP  0  0  0  0  0  0  0  0  0  0  0  0  # atno 17370 bound_to 10713
  157.7504  131.0281  150.4034 LP  0  0  0  0  0  0  0  0  0  0  0  0  # atno 17371 bound_to 10713
  140.0396  134.9861  157.0936 LP  0  0  0  0  0  0  0  0  0  0  0  0  # atno 17394 bound_to 11000
  140.4156  134.1934  155.7163 LP  0  0  0  0  0  0  0  0  0  0  0  0  # atno 17395 bound_to 11000

$$$$
