AV-unprocessed.smi:1795|AV-procd|sdf|7247|dock1
  -GOLD-   22720 8493D 1   1.00000     0.00000
 Structure written by MMmdl.
 48 49  0  0  0  0  0  0  0  0  2 V2000
  145.8918  131.9667  151.2649 C   0  0  0  0  0  0  0  0  0  0  0  0
  146.1527  133.4045  151.7285 C   0  0  2  0  0  0  0  0  0  0  0  0
  146.9124  133.4524  153.0682 C   0  0  0  0  0  0  0  0  0  0  0  0
  147.0812  134.8500  153.5567 N   0  3  2  0  0  0  0  0  0  0  0  0
  147.8181  134.9728  154.8594 C   0  0  2  0  0  0  0  0  0  0  0  0
  147.5234  136.3329  155.5381 C   0  0  0  0  0  0  0  0  0  0  0  0
  149.3544  134.7703  154.7133 C   0  0  0  0  0  0  0  0  0  0  0  0
  150.0606  135.9805  154.3007 N   0  0  0  0  0  0  0  0  0  0  0  0
  151.0372  136.5780  155.0005 C   0  0  0  0  0  0  0  0  0  0  0  0
  151.4326  136.1633  156.0908 O   0  0  0  0  0  0  0  0  0  0  0  0
  151.6347  137.8479  154.3780 C   0  0  0  0  0  0  0  0  0  0  0  0
  151.2232  139.0808  155.0697 N   0  0  0  0  0  0  0  0  0  0  0  0
  150.1157  139.7755  154.5429 C   0  0  0  0  0  0  0  0  0  0  0  0
  149.6575  140.9079  155.0997 C   0  0  0  0  0  0  0  0  0  0  0  0
  150.3323  141.4139  156.2716 C   0  0  0  0  0  0  0  0  0  0  0  0
  151.3907  140.7559  156.7853 C   0  0  0  0  0  0  0  0  0  0  0  0
  151.8934  139.5164  156.1814 C   0  0  0  0  0  0  0  0  0  0  0  0
  152.8570  138.9061  156.6460 O   0  0  0  0  0  0  0  0  0  0  0  0
  145.7572  135.5324  153.5724 C   0  0  0  0  0  0  0  0  0  0  0  0
  145.0465  135.4248  152.2107 C   0  0  2  0  0  0  0  0  0  0  0  0
  143.6521  136.0612  152.2354 C   0  0  0  0  0  0  0  0  0  0  0  0
  144.8984  134.0533  151.8749 O   0  0  0  0  0  0  0  0  0  0  0  0
  146.8263  131.4227  151.1252 H   0  0  0  0  0  0  0  0  0  0  0  0
  145.3560  131.9546  150.3155 H   0  0  0  0  0  0  0  0  0  0  0  0
  145.2914  131.4197  151.9923 H   0  0  0  0  0  0  0  0  0  0  0  0
  146.7345  133.9141  150.9582 H   0  0  0  0  0  0  0  0  0  0  0  0
  146.3885  132.8649  153.8242 H   0  0  0  0  0  0  0  0  0  0  0  0
  147.8803  132.9834  152.8985 H   0  0  0  0  0  0  0  0  0  0  0  0
  147.4454  134.1827  155.5136 H   0  0  0  0  0  0  0  0  0  0  0  0
  148.0877  136.4614  156.4613 H   0  0  0  0  0  0  0  0  0  0  0  0
  146.4797  136.4407  155.8272 H   0  0  0  0  0  0  0  0  0  0  0  0
  147.7794  137.1648  154.8811 H   0  0  0  0  0  0  0  0  0  0  0  0
  149.8104  134.4486  155.6496 H   0  0  0  0  0  0  0  0  0  0  0  0
  149.5614  133.9908  153.9791 H   0  0  0  0  0  0  0  0  0  0  0  0
  149.7936  136.3873  153.4156 H   0  0  0  0  0  0  0  0  0  0  0  0
  152.7238  137.7727  154.3676 H   0  0  0  0  0  0  0  0  0  0  0  0
  151.3411  137.8803  153.3278 H   0  0  0  0  0  0  0  0  0  0  0  0
  149.6631  139.3278  153.6700 H   0  0  0  0  0  0  0  0  0  0  0  0
  148.8044  141.4245  154.6847 H   0  0  0  0  0  0  0  0  0  0  0  0
  149.9857  142.3236  156.7397 H   0  0  0  0  0  0  0  0  0  0  0  0
  151.8822  141.1486  157.6636 H   0  0  0  0  0  0  0  0  0  0  0  0
  145.1343  135.0959  154.3551 H   0  0  0  0  0  0  0  0  0  0  0  0
  145.8654  136.5902  153.8026 H   0  0  0  0  0  0  0  0  0  0  0  0
  145.6405  135.9249  151.4436 H   0  0  0  0  0  0  0  0  0  0  0  0
  143.7088  137.1218  152.4810 H   0  0  0  0  0  0  0  0  0  0  0  0
  143.0106  135.5801  152.9745 H   0  0  0  0  0  0  0  0  0  0  0  0
  143.1652  135.9715  151.2640 H   0  0  0  0  0  0  0  0  0  0  0  0
  147.6437  135.3219  152.8631 H   0  0  0  0  0  0  0  0  0  0  0  0
  1  2  1  0  0  0  0
  1 23  1  0  0  0  0
  1 24  1  0  0  0  0
  1 25  1  0  0  0  0
  2 22  1  0  0  0  0
  2  3  1  0  0  0  0
  2 26  1  0  0  0  0
  3  4  1  0  0  0  0
  3 27  1  0  0  0  0
  3 28  1  0  0  0  0
  4  5  1  0  0  0  0
  4 19  1  0  0  0  0
  4 48  1  0  0  0  0
  5  6  1  0  0  0  0
  5  7  1  0  0  0  0
  5 29  1  0  0  0  0
  6 30  1  0  0  0  0
  6 31  1  0  0  0  0
  6 32  1  0  0  0  0
  7  8  1  0  0  0  0
  7 33  1  0  0  0  0
  7 34  1  0  0  0  0
  8  9  1  0  0  0  0
  8 35  1  0  0  0  0
  9 10  2  0  0  0  0
  9 11  1  0  0  0  0
 11 12  1  0  0  0  0
 11 36  1  0  0  0  0
 11 37  1  0  0  0  0
 12 17  1  0  0  0  0
 12 13  1  0  0  0  0
 13 14  2  0  0  0  0
 13 38  1  0  0  0  0
 14 15  1  0  0  0  0
 14 39  1  0  0  0  0
 15 16  2  0  0  0  0
 15 40  1  0  0  0  0
 16 17  1  0  0  0  0
 16 41  1  0  0  0  0
 17 18  2  0  0  0  0
 19 20  1  0  0  0  0
 19 42  1  0  0  0  0
 19 43  1  0  0  0  0
 20 21  1  0  0  0  0
 20 22  1  0  0  0  0
 20 44  1  0  0  0  0
 21 45  1  0  0  0  0
 21 46  1  0  0  0  0
 21 47  1  0  0  0  0
M  CHG  1   4   1
M  END
> <s_m_source_file>
AV-unprocessed.smi

> <i_m_source_file_index>
1795

> <i_lp_mmshare_version>
43012

> <i_f3d_flags>
0

> <s_epik_input>
W0NIM11bQ0BASF0xW0NIMl1OKFtDSDJdW0NASF0oTzEpW0NIM10pW0NASF0oW0NIM10pW0NIMl1bTkhdQyg9TylbQ0gyXW4yW2NIXVtjSF1bY0hdW2NIXWMyPU8=

> <s_epik_cmdline>
J2VwaWtfcHl0aG9uJywgJy1waCcsICc3LjAnLCAnLXRuJywgJzgnLCAnLW1hJywgJzIwMCcsICctbWV0YWxfYmluZGluZycsICctaW1hZScsICc8aW5maWxlLm1hZT4nLCAnLW9tYWUnLCAnPG91dGZpbGUubWFlPic=

> <r_lp_tautomer_probability>
1

> <r_epik_Ionization_Penalty>
0.656654

> <r_epik_Ionization_Penalty_Charging>
0.656654

> <r_epik_Ionization_Penalty_Neutral>
8.90321e-08

> <r_epik_State_Penalty>
0.675641

> <r_epik_Charging_Adjusted_Penalty>
1.33229

> <i_epik_Tot_Q>
1

> <i_epik_Tot_abs_Q>
1

> <r_epik_Metal_State_Penalty>
0.675691

> <b_epik_Metal_Only>
0

> <s_lp_Force_Field>
OPLS_2005

> <r_lp_Energy>
28.0815

> <b_lp_Chiralities_Consistent>
1

> <s_lp_Variant>
AV-unprocessed.smi:1795-11

> <Gold.Version>
5.8.1

> <Gold.Id.Protein>
6NUR|6NUR_protein|mol2

> <Gold.PLP.Fitness>
49.7343

> <Gold.PLP.PLP>
-35.5876

> <Gold.PLP.part.hbond>
-4.7703

> <Gold.PLP.part.metal>
0.0000

> <Gold.PLP.part.buried>
1.0473

> <Gold.PLP.part.nonpolar>
-31.0302

> <Gold.PLP.part.repulsive>
0.2044

> <Gold.PLP.ligand.clash>
0.0000

> <Gold.PLP.ligand.torsion>
1.1129

> <Gold.PLP.Chemscore.Hbond>
4.4200

> <Gold.PLP.Chemscore.CHOScore>
0.9989

> <Gold.PLP.Chemscore.Metal>
0.0000

> <Gold.Chemscore.Hbonds>
donor molecule, donor type, donor heavy atom, donor atom, acceptor molecule, acceptor atom, score
      L1  H     4    48       P1  7948  2.00
      L1  H     8    35       P1  7948  0.94
      P1  H  7997  8010       L1    18  1.00
      L1  C    13    38       P1  7957  0.81

> <Gold.PLP.Chemscore.Internal.Correction>
0.1157

> <Gold.Rescore>
     Score         DG    S(hbond)    S(metal)    S(lipo)     H(rot)  DE(clash)    DE(int)     intcor
     16.16     -17.09       2.52        0.00      68.62       1.89       0.05       0.88       ----

> <Gold.Chemscore.Fitness>
16.1588

> <Gold.Chemscore.DG>
-17.0886

> <Gold.Chemscore.ZeroCoef>
-5.4800

> <Gold.Chemscore.Hbond>
2.5183

> <Gold.Chemscore.Metal>
0.0000

> <Gold.Chemscore.Lipo>
68.6185

> <Gold.Chemscore.Internal_Hbond>
0.0000

> <Gold.Chemscore.DEClash>
0.0517

> <Gold.Chemscore.DEInternal>
0.8781

> <Gold.Chemscore.Rot>
1.8870

> <Gold.Chemscore.Internal.Correction>
   9.000000E+99

> <Gold.Chemscore.Hbonds>
donor molecule, donor type, donor heavy atom, donor atom, acceptor molecule, acceptor atom, score
      L1  H     4    48       P1  7948  1.00
      L1  H     8    35       P1  7948  0.20
      P1  H  7997  8010       L1    18  0.77

> <Gold.Chemscore.Hbond.Weighted>
-8.4110

> <Gold.Chemscore.Metal.Weighted>
-0.0000

> <Gold.Chemscore.Lipo.Weighted>
-8.0284

> <Gold.Chemscore.Internal_Hbond.Weighted>
0.0000

> <Gold.Chemscore.DEClash.Weighted>
0.0517

> <Gold.Chemscore.DEInternal.Weighted>
0.8781

> <Gold.Chemscore.Rot.Weighted>
4.8308

> <Gold.Chemscore.Internal.Correction.Weighted>
   9.000000E+99

> <Gold.Protein.RotatedTorsions>
[ 6907 6896 6895 6894 ] final -123.78 input  -60.11 | X-H torsion
[ 7974 7965 7964 7962 ] final -149.83 input  175.53 | X-H torsion
[ 8008 7997 7996 7995 ] final   52.21 input   59.86 | X-H torsion
[ 10167 10162 10161 10158 ] final   15.18 input  -65.29 | X-H torsion
[ 10718 10713 10712 10709 ] final -140.88 input   66.30 | X-H torsion
[ 10763 10752 10751 10750 ] final -163.45 input  -60.55 | X-H torsion
[ 11005 11000 10999 10996 ] final   99.28 input  -57.11 | X-H torsion

> <Gold.Protein.ActiveResidues>
 VAL166  LYS551  ARG553  GLY616  TRP617  ASP618  TYR619  PRO620  LYS621  CYS622 
 ASP623  PHE694  ASN695  SER759  ASP760  ASP761  ALA762  ILE779  LEU786  VAL792 
 PHE793  MET794  SER795  GLU796  ALA797  LYS798  CYS799  TRP800  GLU811  SER814 

> <Gold.Protein.RotatedAtoms>
  150.8704  133.7514  159.2963 H   0  0  0  0  0  0  0  0  0  0  0  0  # atno 6907 bound_to 6896
  151.5128  135.1064  159.9868 H   0  0  0  0  0  0  0  0  0  0  0  0  # atno 6908 bound_to 6896
  152.4691  133.7944  159.6975 H   0  0  0  0  0  0  0  0  0  0  0  0  # atno 6909 bound_to 6896
  144.7944  140.5012  143.5750 H   0  0  0  0  0  0  0  0  0  0  0  0  # atno 7974 bound_to 7965
  155.4481  140.3457  155.4297 H   0  0  0  0  0  0  0  0  0  0  0  0  # atno 8008 bound_to 7997
  156.1237  140.1494  156.9197 H   0  0  0  0  0  0  0  0  0  0  0  0  # atno 8009 bound_to 7997
  154.4842  140.0860  156.7428 H   0  0  0  0  0  0  0  0  0  0  0  0  # atno 8010 bound_to 7997
  140.5884  143.8843  150.6851 H   0  0  0  0  0  0  0  0  0  0  0  0  # atno 10167 bound_to 10162
  156.3275  130.7568  151.1678 H   0  0  0  0  0  0  0  0  0  0  0  0  # atno 10718 bound_to 10713
  154.7121  135.3008  154.9181 H   0  0  0  0  0  0  0  0  0  0  0  0  # atno 10763 bound_to 10752
  154.0079  135.6698  153.4767 H   0  0  0  0  0  0  0  0  0  0  0  0  # atno 10764 bound_to 10752
  153.0763  135.5033  154.8325 H   0  0  0  0  0  0  0  0  0  0  0  0  # atno 10765 bound_to 10752
  139.8771  134.9088  156.4582 H   0  0  0  0  0  0  0  0  0  0  0  0  # atno 11005 bound_to 11000
  145.5712  139.1483  143.3287 LP  0  0  0  0  0  0  0  0  0  0  0  0  # atno 17320 bound_to 7965
  146.2207  140.5845  142.9018 LP  0  0  0  0  0  0  0  0  0  0  0  0  # atno 17321 bound_to 7965
  140.2360  143.3700  152.1526 LP  0  0  0  0  0  0  0  0  0  0  0  0  # atno 17342 bound_to 10162
  139.5212  144.7043  151.5401 LP  0  0  0  0  0  0  0  0  0  0  0  0  # atno 17343 bound_to 10162
  157.7424  131.0490  150.5027 LP  0  0  0  0  0  0  0  0  0  0  0  0  # atno 17370 bound_to 10713
  156.5188  130.4157  149.6261 LP  0  0  0  0  0  0  0  0  0  0  0  0  # atno 17371 bound_to 10713
  140.8883  133.7867  155.9543 LP  0  0  0  0  0  0  0  0  0  0  0  0  # atno 17394 bound_to 11000
  140.8781  134.2645  157.5158 LP  0  0  0  0  0  0  0  0  0  0  0  0  # atno 17395 bound_to 11000

$$$$
