AV-unprocessed.smi:2270|AV-procd|sdf|9154|dock8
  -GOLD-   2272012363D 1   1.00000     0.00000
 Structure written by MMmdl.
 53 54  0  0  0  0  0  0  0  0  2 V2000
  146.5927  137.8312  162.9490 C   0  0  0  0  0  0  0  0  0  0  0  0
  147.1243  136.7331  162.0521 C   0  0  0  0  0  0  0  0  0  0  0  0
  147.1623  135.3953  162.4901 C   0  0  0  0  0  0  0  0  0  0  0  0
  147.6619  134.4229  161.6059 C   0  0  0  0  0  0  0  0  0  0  0  0
  148.1068  134.8255  160.3321 C   0  0  0  0  0  0  0  0  0  0  0  0
  148.0510  136.1978  159.9774 C   0  0  0  0  0  0  0  0  0  0  0  0
  148.4652  136.6277  158.6890 N   0  0  0  0  0  0  0  0  0  0  0  0
  148.0826  137.7276  158.0173 C   0  0  0  0  0  0  0  0  0  0  0  0
  147.2805  138.5671  158.4268 O   0  0  0  0  0  0  0  0  0  0  0  0
  148.6812  137.7973  156.8199 N   0  0  0  0  0  0  0  0  0  0  0  0
  148.5107  138.8779  155.8563 C   0  0  0  0  0  0  0  0  0  0  0  0
  149.8064  139.1673  155.0377 C   0  0  2  0  0  0  0  0  0  0  0  0
  151.0955  138.5410  155.6764 C   0  0  0  0  0  0  0  0  0  0  0  0
  152.3893  139.2860  155.2997 C   0  0  0  0  0  0  0  0  0  0  0  0
  151.2363  137.0257  155.4397 C   0  0  0  0  0  0  0  0  0  0  0  0
  150.0288  140.6170  154.8135 N   0  0  0  0  0  0  0  0  0  0  0  0
  148.9577  141.2999  154.0654 C   0  0  0  0  0  0  0  0  0  0  0  0
  147.6857  141.5170  154.9144 C   0  0  0  0  0  0  0  0  0  0  0  0
  148.0017  142.2936  156.1342 N   0  3  0  0  0  0  0  0  0  0  0  0
  146.8096  142.5688  156.9637 C   0  0  0  0  0  0  0  0  0  0  0  0
  149.0921  141.6399  156.8912 C   0  0  0  0  0  0  0  0  0  0  0  0
  150.3267  141.4572  155.9835 C   0  0  0  0  0  0  0  0  0  0  0  0
  147.5483  137.1209  160.8294 N   0  0  0  0  0  0  0  0  0  0  0  0
  146.2541  137.4317  163.9053 H   0  0  0  0  0  0  0  0  0  0  0  0
  145.7510  138.3357  162.4736 H   0  0  0  0  0  0  0  0  0  0  0  0
  147.3706  138.5695  163.1454 H   0  0  0  0  0  0  0  0  0  0  0  0
  146.8139  135.1174  163.4741 H   0  0  0  0  0  0  0  0  0  0  0  0
  147.6993  133.3837  161.8972 H   0  0  0  0  0  0  0  0  0  0  0  0
  148.4712  134.0767  159.6449 H   0  0  0  0  0  0  0  0  0  0  0  0
  149.0448  135.9747  158.1828 H   0  0  0  0  0  0  0  0  0  0  0  0
  149.3207  137.0586  156.5656 H   0  0  0  0  0  0  0  0  0  0  0  0
  147.6994  138.5486  155.2090 H   0  0  0  0  0  0  0  0  0  0  0  0
  148.1639  139.7891  156.3465 H   0  0  0  0  0  0  0  0  0  0  0  0
  149.6570  138.7085  154.0613 H   0  0  0  0  0  0  0  0  0  0  0  0
  151.0478  138.6484  156.7565 H   0  0  0  0  0  0  0  0  0  0  0  0
  152.6816  139.1256  154.2636 H   0  0  0  0  0  0  0  0  0  0  0  0
  153.2210  138.9452  155.9169 H   0  0  0  0  0  0  0  0  0  0  0  0
  152.2875  140.3597  155.4591 H   0  0  0  0  0  0  0  0  0  0  0  0
  151.4383  136.7903  154.3950 H   0  0  0  0  0  0  0  0  0  0  0  0
  150.3301  136.4954  155.7337 H   0  0  0  0  0  0  0  0  0  0  0  0
  152.0588  136.6157  156.0266 H   0  0  0  0  0  0  0  0  0  0  0  0
  149.3360  142.2692  153.7376 H   0  0  0  0  0  0  0  0  0  0  0  0
  148.6918  140.7749  153.1512 H   0  0  0  0  0  0  0  0  0  0  0  0
  146.9504  142.0664  154.3254 H   0  0  0  0  0  0  0  0  0  0  0  0
  147.2203  140.5681  155.1821 H   0  0  0  0  0  0  0  0  0  0  0  0
  146.3711  141.6435  157.3399 H   0  0  0  0  0  0  0  0  0  0  0  0
  146.0516  143.0955  156.3833 H   0  0  0  0  0  0  0  0  0  0  0  0
  147.0714  143.1958  157.8165 H   0  0  0  0  0  0  0  0  0  0  0  0
  149.3590  142.2627  157.7457 H   0  0  0  0  0  0  0  0  0  0  0  0
  148.7469  140.6856  157.2907 H   0  0  0  0  0  0  0  0  0  0  0  0
  151.1751  141.0695  156.5460 H   0  0  0  0  0  0  0  0  0  0  0  0
  150.6543  142.4356  155.6287 H   0  0  0  0  0  0  0  0  0  0  0  0
  148.3581  143.1873  155.8266 H   0  0  0  0  0  0  0  0  0  0  0  0
  1  2  1  0  0  0  0
  1 24  1  0  0  0  0
  1 25  1  0  0  0  0
  1 26  1  0  0  0  0
  2 23  1  0  0  0  0
  2  3  2  0  0  0  0
  3  4  1  0  0  0  0
  3 27  1  0  0  0  0
  4  5  2  0  0  0  0
  4 28  1  0  0  0  0
  5  6  1  0  0  0  0
  5 29  1  0  0  0  0
  6  7  1  0  0  0  0
  6 23  2  0  0  0  0
  7  8  1  0  0  0  0
  7 30  1  0  0  0  0
  8  9  2  0  0  0  0
  8 10  1  0  0  0  0
 10 11  1  0  0  0  0
 10 31  1  0  0  0  0
 11 12  1  0  0  0  0
 11 32  1  0  0  0  0
 11 33  1  0  0  0  0
 12 13  1  0  0  0  0
 12 16  1  0  0  0  0
 12 34  1  0  0  0  0
 13 14  1  0  0  0  0
 13 15  1  0  0  0  0
 13 35  1  0  0  0  0
 14 36  1  0  0  0  0
 14 37  1  0  0  0  0
 14 38  1  0  0  0  0
 15 39  1  0  0  0  0
 15 40  1  0  0  0  0
 15 41  1  0  0  0  0
 16 22  1  0  0  0  0
 16 17  1  0  0  0  0
 17 18  1  0  0  0  0
 17 42  1  0  0  0  0
 17 43  1  0  0  0  0
 18 19  1  0  0  0  0
 18 44  1  0  0  0  0
 18 45  1  0  0  0  0
 19 20  1  0  0  0  0
 19 21  1  0  0  0  0
 19 53  1  0  0  0  0
 20 46  1  0  0  0  0
 20 47  1  0  0  0  0
 20 48  1  0  0  0  0
 21 22  1  0  0  0  0
 21 49  1  0  0  0  0
 21 50  1  0  0  0  0
 22 51  1  0  0  0  0
 22 52  1  0  0  0  0
M  CHG  1  19   1
M  END
> <s_m_source_file>
AV-unprocessed.smi

> <i_m_source_file_index>
2270

> <i_lp_mmshare_version>
43012

> <i_f3d_flags>
0

> <s_epik_input>
W0NIM11jMVtjSF1bY0hdW2NIXWMobjEpW05IXUMoPU8pW05IXVtDSDJdW0NASF0oW0NIXShbQ0gzXSlbQ0gzXSlOMltDSDJdW0NIMl1OKFtDSDNdKVtDSDJdW0NIMl0y

> <s_epik_cmdline>
J2VwaWtfcHl0aG9uJywgJy1waCcsICc3LjAnLCAnLXRuJywgJzgnLCAnLW1hJywgJzIwMCcsICctbWV0YWxfYmluZGluZycsICctaW1hZScsICc8aW5maWxlLm1hZT4nLCAnLW9tYWUnLCAnPG91dGZpbGUubWFlPic=

> <r_epik_Ionization_Penalty>
0.0278292

> <r_epik_Ionization_Penalty_Charging>
0.0272987

> <r_epik_Ionization_Penalty_Neutral>
0.000530468

> <r_epik_State_Penalty>
0.0776825

> <r_epik_Charging_Adjusted_Penalty>
0.104981

> <i_epik_Tot_Q>
1

> <i_epik_Tot_abs_Q>
1

> <r_epik_Metal_State_Penalty>
0.0776809

> <b_epik_Metal_Only>
0

> <s_lp_Force_Field>
OPLS_2005

> <r_lp_Energy>
34.9975

> <b_lp_Chiralities_Consistent>
1

> <s_lp_Variant>
AV-unprocessed.smi:2270-1

> <Gold.Version>
5.8.1

> <Gold.Id.Protein>
6NUR|6NUR_protein|mol2

> <Gold.PLP.Fitness>
44.3391

> <Gold.PLP.PLP>
-37.8388

> <Gold.PLP.part.hbond>
-5.0000

> <Gold.PLP.part.metal>
0.0000

> <Gold.PLP.part.buried>
-0.9373

> <Gold.PLP.part.nonpolar>
-31.4977

> <Gold.PLP.part.repulsive>
0.2651

> <Gold.PLP.ligand.clash>
2.5951

> <Gold.PLP.ligand.torsion>
1.4619

> <Gold.PLP.Chemscore.Hbond>
3.9359

> <Gold.PLP.Chemscore.CHOScore>
0.0000

> <Gold.PLP.Chemscore.Metal>
0.0000

> <Gold.Chemscore.Hbonds>
donor molecule, donor type, donor heavy atom, donor atom, acceptor molecule, acceptor atom, score
      L1  H    19    53       P1  8028  2.00
      P1  H  6931  6943       L1    23  0.15
      P1  H  6934  6947       L1    23  1.00
      P1  H  7989  7998       L1    16  0.76

> <Gold.PLP.Chemscore.Internal.Correction>
0.2113

> <Gold.Rescore>
     Score         DG    S(hbond)    S(metal)    S(lipo)     H(rot)  DE(clash)    DE(int)     intcor
      9.56     -16.26       1.12        0.00      95.38       1.61       0.39       6.32       ----

> <Gold.Chemscore.Fitness>
9.5591

> <Gold.Chemscore.DG>
-16.2615

> <Gold.Chemscore.ZeroCoef>
-5.4800

> <Gold.Chemscore.Hbond>
1.1185

> <Gold.Chemscore.Metal>
0.0000

> <Gold.Chemscore.Lipo>
95.3801

> <Gold.Chemscore.Internal_Hbond>
0.0000

> <Gold.Chemscore.DEClash>
0.3851

> <Gold.Chemscore.DEInternal>
6.3174

> <Gold.Chemscore.Rot>
1.6070

> <Gold.Chemscore.Internal.Correction>
   9.000000E+99

> <Gold.Chemscore.Hbonds>
donor molecule, donor type, donor heavy atom, donor atom, acceptor molecule, acceptor atom, score
      L1  H    19    53       P1  8028  0.92
      P1  H  6934  6947       L1    23  0.24
      P1  H  7989  7998       L1    16  0.08

> <Gold.Chemscore.Hbond.Weighted>
-3.7360

> <Gold.Chemscore.Metal.Weighted>
-0.0000

> <Gold.Chemscore.Lipo.Weighted>
-11.1595

> <Gold.Chemscore.Internal_Hbond.Weighted>
0.0000

> <Gold.Chemscore.DEClash.Weighted>
0.3851

> <Gold.Chemscore.DEInternal.Weighted>
6.3174

> <Gold.Chemscore.Rot.Weighted>
4.1140

> <Gold.Chemscore.Internal.Correction.Weighted>
   9.000000E+99

> <Gold.Protein.RotatedTorsions>
[ 6907 6896 6895 6894 ] final -177.20 input  -60.11 | X-H torsion
[ 7974 7965 7964 7962 ] final  -50.28 input  175.53 | X-H torsion
[ 8008 7997 7996 7995 ] final   24.90 input   59.86 | X-H torsion
[ 10167 10162 10161 10158 ] final   48.48 input  -65.29 | X-H torsion
[ 10718 10713 10712 10709 ] final -151.52 input   66.30 | X-H torsion
[ 10763 10752 10751 10750 ] final  -59.39 input  -60.55 | X-H torsion
[ 11005 11000 10999 10996 ] final  118.83 input  -57.11 | X-H torsion

> <Gold.Protein.ActiveResidues>
 VAL166  LYS551  ARG553  GLY616  TRP617  ASP618  TYR619  PRO620  LYS621  CYS622 
 ASP623  PHE694  ASN695  SER759  ASP760  ASP761  ALA762  ILE779  LEU786  VAL792 
 PHE793  MET794  SER795  GLU796  ALA797  LYS798  CYS799  TRP800  GLU811  SER814 

> <Gold.Protein.RotatedAtoms>
  151.6171  133.3342  159.3079 H   0  0  0  0  0  0  0  0  0  0  0  0  # atno 6907 bound_to 6896
  150.8125  134.7292  159.6712 H   0  0  0  0  0  0  0  0  0  0  0  0  # atno 6908 bound_to 6896
  152.4222  134.5939  160.0033 H   0  0  0  0  0  0  0  0  0  0  0  0  # atno 6909 bound_to 6896
  145.9315  140.7745  142.9597 H   0  0  0  0  0  0  0  0  0  0  0  0  # atno 7974 bound_to 7965
  155.0035  140.3128  155.4858 H   0  0  0  0  0  0  0  0  0  0  0  0  # atno 8008 bound_to 7997
  156.2921  140.2227  156.5087 H   0  0  0  0  0  0  0  0  0  0  0  0  # atno 8009 bound_to 7997
  154.7597  140.0460  157.0951 H   0  0  0  0  0  0  0  0  0  0  0  0  # atno 8010 bound_to 7997
  140.2928  144.3025  150.6236 H   0  0  0  0  0  0  0  0  0  0  0  0  # atno 10167 bound_to 10162
  156.4604  130.8210  151.2441 H   0  0  0  0  0  0  0  0  0  0  0  0  # atno 10718 bound_to 10713
  154.2530  135.6322  153.5247 H   0  0  0  0  0  0  0  0  0  0  0  0  # atno 10763 bound_to 10752
  152.9909  135.5569  154.5787 H   0  0  0  0  0  0  0  0  0  0  0  0  # atno 10764 bound_to 10752
  154.5319  135.2889  155.1147 H   0  0  0  0  0  0  0  0  0  0  0  0  # atno 10765 bound_to 10752
  139.9124  134.9623  156.7562 H   0  0  0  0  0  0  0  0  0  0  0  0  # atno 11005 bound_to 11000
  144.6765  140.2135  143.7374 LP  0  0  0  0  0  0  0  0  0  0  0  0  # atno 17320 bound_to 7965
  145.8419  139.2134  143.1822 LP  0  0  0  0  0  0  0  0  0  0  0  0  # atno 17321 bound_to 7965
  140.5717  143.2180  151.7587 LP  0  0  0  0  0  0  0  0  0  0  0  0  # atno 17342 bound_to 10162
  139.4934  144.4207  151.9981 LP  0  0  0  0  0  0  0  0  0  0  0  0  # atno 17343 bound_to 10162
  157.7498  131.0109  150.3324 LP  0  0  0  0  0  0  0  0  0  0  0  0  # atno 17370 bound_to 10713
  156.3723  130.3865  149.7166 LP  0  0  0  0  0  0  0  0  0  0  0  0  # atno 17371 bound_to 10713
  140.6734  133.9539  155.7869 LP  0  0  0  0  0  0  0  0  0  0  0  0  # atno 17394 bound_to 11000
  141.0562  134.0413  157.3720 LP  0  0  0  0  0  0  0  0  0  0  0  0  # atno 17395 bound_to 11000

$$$$
