AV-unprocessed.smi:72|AV-procd|sdf|693|dock1
  -GOLD-   2262017 03D 1   1.00000     0.00000
 Structure written by MMmdl.
 29 30  0  0  0  0  0  0  0  0  1 V2000
  152.0664  136.9177  159.6810 N   0  0  0  0  0  0  0  0  0  0  0  0
  151.6635  137.5581  158.6428 C   0  0  0  0  0  0  0  0  0  0  0  0
  150.3295  137.8856  158.3579 N   0  0  0  0  0  0  0  0  0  0  0  0
  150.0682  138.5390  157.2676 C   0  0  0  0  0  0  0  0  0  0  0  0
  151.1127  138.9414  156.3349 N   0  0  0  0  0  0  0  0  0  0  0  0
  150.8137  139.7087  155.0590 C   0  0  2  0  0  0  0  0  0  0  0  0
  149.8423  140.6861  155.3051 O   0  0  0  0  0  0  0  0  0  0  0  0
  148.6084  140.3197  154.6927 C   0  0  1  0  0  0  0  0  0  0  0  0
  147.7639  141.5761  154.4325 C   0  0  0  0  0  0  0  0  0  0  0  0
  148.5777  142.6057  153.9126 O   0  0  0  0  0  0  0  0  0  0  0  0
  149.0910  139.6274  153.4191 C   0  0  2  0  0  0  0  0  0  0  0  0
  148.0896  138.8437  152.7971 O   0  0  0  0  0  0  0  0  0  0  0  0
  150.2836  138.8138  153.9128 C   0  0  2  0  0  0  0  0  0  0  0  0
  149.9057  137.5110  154.3332 O   0  0  0  0  0  0  0  0  0  0  0  0
  152.4629  138.6125  156.6075 C   0  0  0  0  0  0  0  0  0  0  0  0
  153.3802  138.9153  155.8445 O   0  0  0  0  0  0  0  0  0  0  0  0
  152.6794  137.9349  157.7553 N   0  0  0  0  0  0  0  0  0  0  0  0
  151.7405  140.2267  154.8061 H   0  0  0  0  0  0  0  0  0  0  0  0
  148.0720  139.6043  155.3191 H   0  0  0  0  0  0  0  0  0  0  0  0
  149.4425  140.3778  152.7091 H   0  0  0  0  0  0  0  0  0  0  0  0
  151.0477  138.7182  153.1406 H   0  0  0  0  0  0  0  0  0  0  0  0
  153.0701  136.8086  159.6514 H   0  0  0  0  0  0  0  0  0  0  0  0
  149.0537  138.8227  156.9883 H   0  0  0  0  0  0  0  0  0  0  0  0
  146.9365  141.3653  153.7543 H   0  0  0  0  0  0  0  0  0  0  0  0
  147.3335  141.9395  155.3659 H   0  0  0  0  0  0  0  0  0  0  0  0
  148.7662  143.2187  154.6067 H   0  0  0  0  0  0  0  0  0  0  0  0
  148.4226  137.9664  152.6846 H   0  0  0  0  0  0  0  0  0  0  0  0
  149.6424  137.0161  153.5725 H   0  0  0  0  0  0  0  0  0  0  0  0
  153.6312  137.6839  157.9794 H   0  0  0  0  0  0  0  0  0  0  0  0
  1  2  2  0  0  0  0
  1 22  1  0  0  0  0
  2 17  1  0  0  0  0
  2  3  1  0  0  0  0
  3  4  2  0  0  0  0
  4  5  1  0  0  0  0
  4 23  1  0  0  0  0
  5  6  1  0  0  0  0
  5 15  1  0  0  0  0
  6 18  1  0  0  0  0
  6 13  1  0  0  0  0
  6  7  1  0  0  0  0
  7  8  1  0  0  0  0
  8 19  1  0  0  0  0
  8  9  1  0  0  0  0
  8 11  1  0  0  0  0
  9 10  1  0  0  0  0
  9 24  1  0  0  0  0
  9 25  1  0  0  0  0
 10 26  1  0  0  0  0
 11 20  1  0  0  0  0
 11 12  1  0  0  0  0
 11 13  1  0  0  0  0
 12 27  1  0  0  0  0
 13 21  1  0  0  0  0
 13 14  1  0  0  0  0
 14 28  1  0  0  0  0
 15 16  2  0  0  0  0
 15 17  1  0  0  0  0
 17 29  1  0  0  0  0
M  END
> <s_m_source_file>
AV-unprocessed.smi

> <i_m_source_file_index>
72

> <i_lp_mmshare_version>
43012

> <i_f3d_flags>
0

> <s_epik_input>
W05IMl1jMW5bY0hdbihjKD1PKW4xKVtDQEBIXTJPW0NASF0oW0NIMl1bT0hdKVtDQEBIXShbT0hdKVtDQEhdMltPSF0=

> <s_epik_cmdline>
J2VwaWtfcHl0aG9uJywgJy1waCcsICc3LjAnLCAnLXRuJywgJzgnLCAnLW1hJywgJzIwMCcsICctbWV0YWxfYmluZGluZycsICctaW1hZScsICc8aW5maWxlLm1hZT4nLCAnLW9tYWUnLCAnPG91dGZpbGUubWFlPic=

> <r_lp_tautomer_probability>
7.17554e-07

> <r_epik_Ionization_Penalty>
0.0066451

> <r_epik_Ionization_Penalty_Charging>
0.00663793

> <r_epik_Ionization_Penalty_Neutral>
7.17052e-06

> <r_epik_State_Penalty>
0.419231

> <r_epik_Charging_Adjusted_Penalty>
0.425868

> <i_epik_Tot_Q>
0

> <i_epik_Tot_abs_Q>
0

> <r_epik_Metal_State_Penalty>
1.44144

> <b_epik_Metal_Only>
0

> <s_epik_Chemistry_Notes>
This compound contains an acetal/aminal-like group ( X-CH(R)-Y where X, Y are N, S, or O) that may be acid/base labile, releasing an aldehyde.

> <s_lp_Force_Field>
OPLS_2005

> <r_lp_Energy>
47.3952

> <b_lp_Chiralities_Consistent>
1

> <s_lp_Variant>
AV-unprocessed.smi:72-31

> <Gold.Version>
5.8.1

> <Gold.Id.Protein>
6NUR|6NUR_protein|mol2

> <Gold.PLP.Fitness>
36.1733

> <Gold.PLP.PLP>
-22.3438

> <Gold.PLP.part.hbond>
-7.1062

> <Gold.PLP.part.metal>
0.0000

> <Gold.PLP.part.buried>
1.7972

> <Gold.PLP.part.nonpolar>
-16.0793

> <Gold.PLP.part.repulsive>
0.1976

> <Gold.PLP.ligand.clash>
0.0000

> <Gold.PLP.ligand.torsion>
0.6269

> <Gold.PLP.Chemscore.Hbond>
5.0031

> <Gold.PLP.Chemscore.CHOScore>
0.0000

> <Gold.PLP.Chemscore.Metal>
0.0000

> <Gold.Chemscore.Hbonds>
donor molecule, donor type, donor heavy atom, donor atom, acceptor molecule, acceptor atom, score
      L1  H    10    26       P1  8028  1.00
      L1  H    12    27       P1  7948  1.00
      L1  H    14    28       P1  7948  1.00
      P1  H  6896  6909       L1     1  0.75
      P1  H  7997  8009       L1    16  1.00
      P1  H  8011  8017       L1    10  0.08

> <Gold.PLP.Chemscore.Internal.Correction>
0.0740

> <Gold.Rescore>
     Score         DG    S(hbond)    S(metal)    S(lipo)     H(rot)  DE(clash)    DE(int)     intcor
     10.71     -12.94       4.39        0.00      27.28       4.06       1.67       0.56       ----

> <Gold.Chemscore.Fitness>
10.7107

> <Gold.Chemscore.DG>
-12.9382

> <Gold.Chemscore.ZeroCoef>
-5.4800

> <Gold.Chemscore.Hbond>
4.3894

> <Gold.Chemscore.Metal>
0.0000

> <Gold.Chemscore.Lipo>
27.2760

> <Gold.Chemscore.Internal_Hbond>
0.0000

> <Gold.Chemscore.DEClash>
1.6688

> <Gold.Chemscore.DEInternal>
0.5586

> <Gold.Chemscore.Rot>
4.0600

> <Gold.Chemscore.Internal.Correction>
   9.000000E+99

> <Gold.Chemscore.Hbonds>
donor molecule, donor type, donor heavy atom, donor atom, acceptor molecule, acceptor atom, score
      L1  H    10    26       P1  8028  1.00
      L1  H    12    27       P1  7948  0.98
      L1  H    14    28       P1  7948  0.73
      P1  H  6896  6909       L1     1  0.09
      P1  H  7997  8009       L1    16  0.92
      P1  H  8011  8017       L1    10  0.10

> <Gold.Chemscore.Hbond.Weighted>
-14.6605

> <Gold.Chemscore.Metal.Weighted>
-0.0000

> <Gold.Chemscore.Lipo.Weighted>
-3.1913

> <Gold.Chemscore.Internal_Hbond.Weighted>
0.0000

> <Gold.Chemscore.DEClash.Weighted>
1.6688

> <Gold.Chemscore.DEInternal.Weighted>
0.5586

> <Gold.Chemscore.Rot.Weighted>
10.3936

> <Gold.Chemscore.Internal.Correction.Weighted>
   9.000000E+99

> <Gold.Protein.RotatedTorsions>
[ 6907 6896 6895 6894 ] final  129.08 input  -60.11 | X-H torsion
[ 7974 7965 7964 7962 ] final  -75.62 input  175.53 | X-H torsion
[ 8008 7997 7996 7995 ] final -154.03 input   59.86 | X-H torsion
[ 10167 10162 10161 10158 ] final  127.81 input  -65.29 | X-H torsion
[ 10718 10713 10712 10709 ] final  -91.71 input   66.30 | X-H torsion
[ 10763 10752 10751 10750 ] final   26.57 input  -60.55 | X-H torsion
[ 11005 11000 10999 10996 ] final  -20.27 input  -57.11 | X-H torsion

> <Gold.Protein.ActiveResidues>
 VAL166  LYS551  ARG553  GLY616  TRP617  ASP618  TYR619  PRO620  LYS621  CYS622 
 ASP623  PHE694  ASN695  SER759  ASP760  ASP761  ALA762  ILE779  LEU786  VAL792 
 PHE793  MET794  SER795  GLU796  ALA797  LYS798  CYS799  TRP800  GLU811  SER814 

> <Gold.Protein.RotatedAtoms>
  152.3658  133.6354  159.6048 H   0  0  0  0  0  0  0  0  0  0  0  0  # atno 6907 bound_to 6896
  150.7633  133.9351  159.3447 H   0  0  0  0  0  0  0  0  0  0  0  0  # atno 6908 bound_to 6896
  151.7182  135.0900  160.0330 H   0  0  0  0  0  0  0  0  0  0  0  0  # atno 6909 bound_to 6896
  145.6236  140.9356  143.1124 H   0  0  0  0  0  0  0  0  0  0  0  0  # atno 7974 bound_to 7965
  155.6801  140.0743  157.2488 H   0  0  0  0  0  0  0  0  0  0  0  0  # atno 8008 bound_to 7997
  154.4107  140.1683  156.2025 H   0  0  0  0  0  0  0  0  0  0  0  0  # atno 8009 bound_to 7997
  155.9542  140.3375  155.6437 H   0  0  0  0  0  0  0  0  0  0  0  0  # atno 8010 bound_to 7997
  139.5559  144.6848  151.4185 H   0  0  0  0  0  0  0  0  0  0  0  0  # atno 10167 bound_to 10162
  155.9996  130.4958  150.5515 H   0  0  0  0  0  0  0  0  0  0  0  0  # atno 10718 bound_to 10713
  153.0613  135.6557  154.0456 H   0  0  0  0  0  0  0  0  0  0  0  0  # atno 10763 bound_to 10752
  154.0123  135.2927  155.3392 H   0  0  0  0  0  0  0  0  0  0  0  0  # atno 10764 bound_to 10752
  154.6953  135.5266  153.8517 H   0  0  0  0  0  0  0  0  0  0  0  0  # atno 10765 bound_to 10752
  140.8448  133.7899  155.9901 H   0  0  0  0  0  0  0  0  0  0  0  0  # atno 11005 bound_to 11000
  144.7221  139.7995  143.7378 LP  0  0  0  0  0  0  0  0  0  0  0  0  # atno 17320 bound_to 7965
  146.1411  139.4469  143.0108 LP  0  0  0  0  0  0  0  0  0  0  0  0  # atno 17321 bound_to 7965
  140.6831  143.8035  150.7149 LP  0  0  0  0  0  0  0  0  0  0  0  0  # atno 17342 bound_to 10162
  140.1495  143.4370  152.2141 LP  0  0  0  0  0  0  0  0  0  0  0  0  # atno 17343 bound_to 10162
  157.3437  131.0721  151.1768 LP  0  0  0  0  0  0  0  0  0  0  0  0  # atno 17370 bound_to 10713
  157.2607  130.6657  149.5973 LP  0  0  0  0  0  0  0  0  0  0  0  0  # atno 17371 bound_to 10713
  140.8855  134.2559  157.5122 LP  0  0  0  0  0  0  0  0  0  0  0  0  # atno 17394 bound_to 11000
  139.8703  134.9636  156.4467 LP  0  0  0  0  0  0  0  0  0  0  0  0  # atno 17395 bound_to 11000

$$$$
