AV-unprocessed.smi:283|AV-procd|sdf|2153|dock9
  -GOLD-   2262021493D 1   1.00000     0.00000
 Structure written by MMmdl.
 48 51  0  0  0  0  0  0  0  0  1 V2000
  151.7617  140.5887  155.7471 C   0  0  0  0  0  0  0  0  0  0  0  0
  150.7117  141.2832  156.6244 C   0  0  2  0  0  0  0  0  0  0  0  0
  149.7503  141.9928  155.7815 N   0  0  0  0  0  0  0  0  0  0  0  0
  148.9888  141.3339  154.8791 C   0  0  0  0  0  0  0  0  0  0  0  0
  148.7649  141.8437  153.6397 N   0  0  0  0  0  0  0  0  0  0  0  0
  148.0105  141.1710  152.7667 C   0  0  0  0  0  0  0  0  0  0  0  0
  147.3924  139.9995  152.9289 N   0  0  0  0  0  0  0  0  0  0  0  0
  147.6061  139.4846  154.1745 C   0  0  0  0  0  0  0  0  0  0  0  0
  148.3871  140.0894  155.1991 C   0  0  0  0  0  0  0  0  0  0  0  0
  148.3814  139.2865  156.3318 N   0  0  0  0  0  0  0  0  0  0  0  0
  147.6360  138.2691  155.9934 C   0  0  0  0  0  0  0  0  0  0  0  0
  147.1251  138.3070  154.7148 N   0  0  0  0  0  0  0  0  0  0  0  0
  146.2426  137.2846  154.0627 C   0  0  2  0  0  0  0  0  0  0  0  0
  146.7262  137.0033  152.7817 O   0  0  0  0  0  0  0  0  0  0  0  0
  145.7298  137.2782  151.7984 C   0  0  1  0  0  0  0  0  0  0  0  0
  145.9012  136.3014  150.6245 C   0  0  0  0  0  0  0  0  0  0  0  0
  146.4338  136.9633  149.4972 O   0  0  0  0  0  0  0  0  0  0  0  0
  144.4156  137.1411  152.5721 C   0  0  2  0  0  0  0  0  0  0  0  0
  143.3220  137.7973  151.9593 O   0  0  0  0  0  0  0  0  0  0  0  0
  144.7760  137.7385  153.9252 C   0  0  2  0  0  0  0  0  0  0  0  0
  144.6100  139.1483  153.9629 O   0  0  0  0  0  0  0  0  0  0  0  0
  151.3900  142.1541  157.6848 C   0  0  0  0  0  0  0  0  0  0  0  0
  151.2237  143.5582  157.6515 C   0  0  0  0  0  0  0  0  0  0  0  0
  151.8354  144.3769  158.6194 C   0  0  0  0  0  0  0  0  0  0  0  0
  152.6276  143.8002  159.6283 C   0  0  0  0  0  0  0  0  0  0  0  0
  152.8096  142.4054  159.6645 C   0  0  0  0  0  0  0  0  0  0  0  0
  152.1987  141.5807  158.6985 C   0  0  0  0  0  0  0  0  0  0  0  0
  152.4666  139.8746  158.7863 Cl  0  0  0  0  0  0  0  0  0  0  0  0
  146.3502  136.3923  154.6806 H   0  0  0  0  0  0  0  0  0  0  0  0
  145.8634  138.3067  151.4602 H   0  0  0  0  0  0  0  0  0  0  0  0
  144.1716  136.0852  152.6980 H   0  0  0  0  0  0  0  0  0  0  0  0
  144.1825  137.3038  154.7301 H   0  0  0  0  0  0  0  0  0  0  0  0
  152.4379  139.9826  156.3512 H   0  0  0  0  0  0  0  0  0  0  0  0
  152.3643  141.3135  155.1987 H   0  0  0  0  0  0  0  0  0  0  0  0
  151.2907  139.9273  155.0193 H   0  0  0  0  0  0  0  0  0  0  0  0
  150.1438  140.4995  157.1247 H   0  0  0  0  0  0  0  0  0  0  0  0
  149.6299  142.9745  155.9852 H   0  0  0  0  0  0  0  0  0  0  0  0
  147.8837  141.6376  151.8010 H   0  0  0  0  0  0  0  0  0  0  0  0
  147.4344  137.4559  156.6754 H   0  0  0  0  0  0  0  0  0  0  0  0
  146.5903  135.5038  150.9030 H   0  0  0  0  0  0  0  0  0  0  0  0
  144.9533  135.8306  150.3627 H   0  0  0  0  0  0  0  0  0  0  0  0
  145.9312  137.7493  149.3450 H   0  0  0  0  0  0  0  0  0  0  0  0
  143.5021  138.7253  151.9505 H   0  0  0  0  0  0  0  0  0  0  0  0
  144.5261  139.4636  153.0760 H   0  0  0  0  0  0  0  0  0  0  0  0
  150.6215  144.0172  156.8814 H   0  0  0  0  0  0  0  0  0  0  0  0
  151.6963  145.4473  158.5871 H   0  0  0  0  0  0  0  0  0  0  0  0
  153.0975  144.4267  160.3721 H   0  0  0  0  0  0  0  0  0  0  0  0
  153.4226  141.9663  160.4378 H   0  0  0  0  0  0  0  0  0  0  0  0
  1  2  1  0  0  0  0
  1 33  1  0  0  0  0
  1 34  1  0  0  0  0
  1 35  1  0  0  0  0
  2  3  1  0  0  0  0
  2 22  1  0  0  0  0
  2 36  1  0  0  0  0
  3  4  1  0  0  0  0
  3 37  1  0  0  0  0
  4  9  1  0  0  0  0
  4  5  2  0  0  0  0
  5  6  1  0  0  0  0
  6  7  2  0  0  0  0
  6 38  1  0  0  0  0
  7  8  1  0  0  0  0
  8 12  1  0  0  0  0
  8  9  2  0  0  0  0
  9 10  1  0  0  0  0
 10 11  2  0  0  0  0
 11 12  1  0  0  0  0
 11 39  1  0  0  0  0
 12 13  1  0  0  0  0
 13 29  1  0  0  0  0
 13 20  1  0  0  0  0
 13 14  1  0  0  0  0
 14 15  1  0  0  0  0
 15 30  1  0  0  0  0
 15 16  1  0  0  0  0
 15 18  1  0  0  0  0
 16 17  1  0  0  0  0
 16 40  1  0  0  0  0
 16 41  1  0  0  0  0
 17 42  1  0  0  0  0
 18 31  1  0  0  0  0
 18 19  1  0  0  0  0
 18 20  1  0  0  0  0
 19 43  1  0  0  0  0
 20 32  1  0  0  0  0
 20 21  1  0  0  0  0
 21 44  1  0  0  0  0
 22 27  1  0  0  0  0
 22 23  2  0  0  0  0
 23 24  1  0  0  0  0
 23 45  1  0  0  0  0
 24 25  2  0  0  0  0
 24 46  1  0  0  0  0
 25 26  1  0  0  0  0
 25 47  1  0  0  0  0
 26 27  2  0  0  0  0
 26 48  1  0  0  0  0
 27 28  1  0  0  0  0
M  END
> <s_m_source_file>
AV-unprocessed.smi

> <i_m_source_file_index>
283

> <i_lp_mmshare_version>
43012

> <i_f3d_flags>
0

> <s_epik_input>
Q2xjMVtjSF1bY0hdW2NIXVtjSF1jMVtDQEhdKFtDSDNdKVtOSF1jKG5bY0hdbjIpYyhjMjMpbltjSF1uM1tDQEBIXTRPW0NASF0oW0NIMl1bT0hdKVtDQEBIXShbT0hdKVtDQEhdNFtPSF0=

> <s_epik_cmdline>
J2VwaWtfcHl0aG9uJywgJy1waCcsICc3LjAnLCAnLXRuJywgJzgnLCAnLW1hJywgJzIwMCcsICctbWV0YWxfYmluZGluZycsICctaW1hZScsICc8aW5maWxlLm1hZT4nLCAnLW9tYWUnLCAnPG91dGZpbGUubWFlPic=

> <r_lp_tautomer_probability>
1

> <r_epik_Ionization_Penalty>
0.000266407

> <r_epik_Ionization_Penalty_Charging>
0

> <r_epik_Ionization_Penalty_Neutral>
0.000266407

> <r_epik_State_Penalty>
-0

> <r_epik_Charging_Adjusted_Penalty>
0

> <i_epik_Tot_Q>
0

> <i_epik_Tot_abs_Q>
0

> <r_epik_Metal_State_Penalty>
-0

> <b_epik_Metal_Only>
0

> <s_epik_Chemistry_Notes>
This compound contains an acetal/aminal-like group ( X-CH(R)-Y where X, Y are N, S, or O) that may be acid/base labile, releasing an aldehyde.

> <s_lp_Force_Field>
OPLS_2005

> <r_lp_Energy>
51.2739

> <b_lp_Chiralities_Consistent>
1

> <s_lp_Variant>
AV-unprocessed.smi:283-29

> <Gold.Version>
5.8.1

> <Gold.Id.Protein>
6NUR|6NUR_protein|mol2

> <Gold.PLP.Fitness>
55.3372

> <Gold.PLP.PLP>
-43.4629

> <Gold.PLP.part.hbond>
-5.3986

> <Gold.PLP.part.metal>
0.0000

> <Gold.PLP.part.buried>
-4.9409

> <Gold.PLP.part.nonpolar>
-34.5093

> <Gold.PLP.part.repulsive>
0.6237

> <Gold.PLP.ligand.clash>
0.0000

> <Gold.PLP.ligand.torsion>
1.4254

> <Gold.PLP.Chemscore.Hbond>
4.5881

> <Gold.PLP.Chemscore.CHOScore>
0.2923

> <Gold.PLP.Chemscore.Metal>
0.0000

> <Gold.Chemscore.Hbonds>
donor molecule, donor type, donor heavy atom, donor atom, acceptor molecule, acceptor atom, score
      L1  H     3    37       P1  8028  1.00
      L1  H    17    42       P1 10171  0.39
      L1  H    19    43       P1 10175  1.00
      L1  H    21    44       P1 10175  0.51
      P1  H  7954  7966       L1    17  0.26
      P1  H  8011  8017       L1     5  0.31
      L1  C     6    38       P1  7957  0.08

> <Gold.PLP.Chemscore.Internal.Correction>
0.0836

> <Gold.Rescore>
     Score         DG    S(hbond)    S(metal)    S(lipo)     H(rot)  DE(clash)    DE(int)     intcor
     16.70     -20.84       4.10        0.00     103.78       4.10       1.03       3.11       ----

> <Gold.Chemscore.Fitness>
16.6976

> <Gold.Chemscore.DG>
-20.8426

> <Gold.Chemscore.ZeroCoef>
-5.4800

> <Gold.Chemscore.Hbond>
4.1043

> <Gold.Chemscore.Metal>
0.0000

> <Gold.Chemscore.Lipo>
103.7787

> <Gold.Chemscore.Internal_Hbond>
0.0000

> <Gold.Chemscore.DEClash>
1.0335

> <Gold.Chemscore.DEInternal>
3.1114

> <Gold.Chemscore.Rot>
4.0968

> <Gold.Chemscore.Internal.Correction>
   9.000000E+99

> <Gold.Chemscore.Hbonds>
donor molecule, donor type, donor heavy atom, donor atom, acceptor molecule, acceptor atom, score
      L1  H     3    37       P1  8028  0.96
      L1  H    17    42       P1 10171  0.38
      L1  H    19    43       P1 10175  1.00
      L1  H    21    44       P1 10175  0.49
      P1  H  7954  7966       L1    17  0.04
      P1  H  8011  8017       L1     5  0.02

> <Gold.Chemscore.Hbond.Weighted>
-13.7084

> <Gold.Chemscore.Metal.Weighted>
-0.0000

> <Gold.Chemscore.Lipo.Weighted>
-12.1421

> <Gold.Chemscore.Internal_Hbond.Weighted>
0.0000

> <Gold.Chemscore.DEClash.Weighted>
1.0335

> <Gold.Chemscore.DEInternal.Weighted>
3.1114

> <Gold.Chemscore.Rot.Weighted>
10.4879

> <Gold.Chemscore.Internal.Correction.Weighted>
   9.000000E+99

> <Gold.Protein.RotatedTorsions>
[ 6907 6896 6895 6894 ] final  153.07 input  -60.11 | X-H torsion
[ 7974 7965 7964 7962 ] final  -37.31 input  175.53 | X-H torsion
[ 8008 7997 7996 7995 ] final  -67.63 input   59.86 | X-H torsion
[ 10167 10162 10161 10158 ] final  117.15 input  -65.29 | X-H torsion
[ 10718 10713 10712 10709 ] final   94.14 input   66.30 | X-H torsion
[ 10763 10752 10751 10750 ] final -161.07 input  -60.55 | X-H torsion
[ 11005 11000 10999 10996 ] final   94.41 input  -57.11 | X-H torsion

> <Gold.Protein.ActiveResidues>
 VAL166  LYS551  ARG553  GLY616  TRP617  ASP618  TYR619  PRO620  LYS621  CYS622 
 ASP623  PHE694  ASN695  SER759  ASP760  ASP761  ALA762  ILE779  LEU786  VAL792 
 PHE793  MET794  SER795  GLU796  ALA797  LYS798  CYS799  TRP800  GLU811  SER814 

> <Gold.Protein.RotatedAtoms>
  152.0778  133.4138  159.4487 H   0  0  0  0  0  0  0  0  0  0  0  0  # atno 6907 bound_to 6896
  150.6862  134.3017  159.4718 H   0  0  0  0  0  0  0  0  0  0  0  0  # atno 6908 bound_to 6896
  152.0856  134.9442  160.0623 H   0  0  0  0  0  0  0  0  0  0  0  0  # atno 6909 bound_to 6896
  146.0586  140.6381  142.9008 H   0  0  0  0  0  0  0  0  0  0  0  0  # atno 7974 bound_to 7965
  154.4813  140.0889  156.7384 H   0  0  0  0  0  0  0  0  0  0  0  0  # atno 8008 bound_to 7997
  155.4463  140.3455  155.4277 H   0  0  0  0  0  0  0  0  0  0  0  0  # atno 8009 bound_to 7997
  156.1195  140.1470  156.9213 H   0  0  0  0  0  0  0  0  0  0  0  0  # atno 8010 bound_to 7997
  139.6198  144.7099  151.2659 H   0  0  0  0  0  0  0  0  0  0  0  0  # atno 10167 bound_to 10162
  157.6950  131.0502  150.4141 H   0  0  0  0  0  0  0  0  0  0  0  0  # atno 10718 bound_to 10713
  154.7336  135.3052  154.8850 H   0  0  0  0  0  0  0  0  0  0  0  0  # atno 10763 bound_to 10752
  153.9685  135.6744  153.4750 H   0  0  0  0  0  0  0  0  0  0  0  0  # atno 10764 bound_to 10752
  153.0941  135.4944  154.8667 H   0  0  0  0  0  0  0  0  0  0  0  0  # atno 10765 bound_to 10752
  139.8799  134.8844  156.3861 H   0  0  0  0  0  0  0  0  0  0  0  0  # atno 11005 bound_to 11000
  144.7162  140.4217  143.7043 LP  0  0  0  0  0  0  0  0  0  0  0  0  # atno 17320 bound_to 7965
  145.6600  139.1580  143.2813 LP  0  0  0  0  0  0  0  0  0  0  0  0  # atno 17321 bound_to 7965
  140.7374  143.6677  150.8108 LP  0  0  0  0  0  0  0  0  0  0  0  0  # atno 17342 bound_to 10162
  140.0286  143.5467  152.2770 LP  0  0  0  0  0  0  0  0  0  0  0  0  # atno 17343 bound_to 10162
  156.4522  130.4014  149.6629 LP  0  0  0  0  0  0  0  0  0  0  0  0  # atno 17370 bound_to 10713
  156.3774  130.7561  151.2551 LP  0  0  0  0  0  0  0  0  0  0  0  0  # atno 17371 bound_to 10713
  140.9365  133.7543  156.0092 LP  0  0  0  0  0  0  0  0  0  0  0  0  # atno 17394 bound_to 11000
  140.8269  134.3224  157.5362 LP  0  0  0  0  0  0  0  0  0  0  0  0  # atno 17395 bound_to 11000

$$$$
