AV-unprocessed.smi:1409|AV-procd|sdf|5727|dock10
  -GOLD-   22720 5363D 1   1.00000     0.00000
 Structure written by MMmdl.
 37 38  0  0  0  0  0  0  0  0  1 V2000
  151.2316  145.2287  159.3951 C   0  0  0  0  0  0  0  0  0  0  0  0
  151.1604  144.3220  158.3002 O   0  0  0  0  0  0  0  0  0  0  0  0
  151.7036  143.0604  158.4518 C   0  0  0  0  0  0  0  0  0  0  0  0
  152.6547  142.8767  159.4017 N   0  0  0  0  0  0  0  0  0  0  0  0
  153.1842  141.6451  159.5513 C   0  0  0  0  0  0  0  0  0  0  0  0
  152.7934  140.5390  158.7748 C   0  0  0  0  0  0  0  0  0  0  0  0
  151.8070  140.7267  157.7890 C   0  0  0  0  0  0  0  0  0  0  0  0
  151.2529  142.0173  157.6095 C   0  0  0  0  0  0  0  0  0  0  0  0
  150.2361  142.3093  156.6592 N   0  0  0  0  0  0  0  0  0  0  0  0
  149.6309  141.4712  155.8011 C   0  0  0  0  0  0  0  0  0  0  0  0
  149.8831  140.2726  155.6793 O   0  0  0  0  0  0  0  0  0  0  0  0
  148.7182  142.1141  155.0595 N   0  0  0  0  0  0  0  0  0  0  0  0
  147.9091  141.5035  154.0099 C   0  0  0  0  0  0  0  0  0  0  0  0
  146.4408  141.9713  154.0567 C   0  0  2  0  0  0  0  0  0  0  0  0
  146.2649  143.4763  153.7630 C   0  0  0  0  0  0  0  0  0  0  0  0
  144.8315  143.8787  154.1203 C   0  0  0  0  0  0  0  0  0  0  0  0
  144.3860  142.8618  155.5758 S   0  0  0  0  0  0  0  0  0  0  0  0
  144.5782  143.6516  156.8015 O   0  0  0  0  0  0  0  0  0  0  0  0
  143.1136  142.1739  155.3099 O   0  0  0  0  0  0  0  0  0  0  0  0
  145.7752  141.6756  155.4110 C   0  0  0  0  0  0  0  0  0  0  0  0
  150.7688  146.1736  159.1108 H   0  0  0  0  0  0  0  0  0  0  0  0
  152.2651  145.4388  159.6741 H   0  0  0  0  0  0  0  0  0  0  0  0
  150.6957  144.8461  160.2650 H   0  0  0  0  0  0  0  0  0  0  0  0
  153.9376  141.5368  160.3176 H   0  0  0  0  0  0  0  0  0  0  0  0
  153.2362  139.5671  158.9356 H   0  0  0  0  0  0  0  0  0  0  0  0
  151.4849  139.8795  157.2033 H   0  0  0  0  0  0  0  0  0  0  0  0
  149.9925  143.2855  156.5758 H   0  0  0  0  0  0  0  0  0  0  0  0
  148.5784  143.0999  155.2266 H   0  0  0  0  0  0  0  0  0  0  0  0
  148.3443  141.7207  153.0328 H   0  0  0  0  0  0  0  0  0  0  0  0
  147.9603  140.4214  154.1340 H   0  0  0  0  0  0  0  0  0  0  0  0
  145.8765  141.4268  153.2978 H   0  0  0  0  0  0  0  0  0  0  0  0
  146.9568  144.0462  154.3846 H   0  0  0  0  0  0  0  0  0  0  0  0
  146.4942  143.7194  152.7250 H   0  0  0  0  0  0  0  0  0  0  0  0
  144.7269  144.9388  154.3515 H   0  0  0  0  0  0  0  0  0  0  0  0
  144.1472  143.6265  153.3098 H   0  0  0  0  0  0  0  0  0  0  0  0
  145.4060  140.6526  155.4864 H   0  0  0  0  0  0  0  0  0  0  0  0
  146.4627  141.8562  156.2377 H   0  0  0  0  0  0  0  0  0  0  0  0
  1  2  1  0  0  0  0
  1 21  1  0  0  0  0
  1 22  1  0  0  0  0
  1 23  1  0  0  0  0
  2  3  1  0  0  0  0
  3  8  1  0  0  0  0
  3  4  2  0  0  0  0
  4  5  1  0  0  0  0
  5  6  2  0  0  0  0
  5 24  1  0  0  0  0
  6  7  1  0  0  0  0
  6 25  1  0  0  0  0
  7  8  2  0  0  0  0
  7 26  1  0  0  0  0
  8  9  1  0  0  0  0
  9 10  1  0  0  0  0
  9 27  1  0  0  0  0
 10 11  2  0  0  0  0
 10 12  1  0  0  0  0
 12 13  1  0  0  0  0
 12 28  1  0  0  0  0
 13 14  1  0  0  0  0
 13 29  1  0  0  0  0
 13 30  1  0  0  0  0
 14 20  1  0  0  0  0
 14 15  1  0  0  0  0
 14 31  1  0  0  0  0
 15 16  1  0  0  0  0
 15 32  1  0  0  0  0
 15 33  1  0  0  0  0
 16 17  1  0  0  0  0
 16 34  1  0  0  0  0
 16 35  1  0  0  0  0
 17 18  2  0  0  0  0
 17 19  2  0  0  0  0
 17 20  1  0  0  0  0
 20 36  1  0  0  0  0
 20 37  1  0  0  0  0
M  END
> <s_m_source_file>
AV-unprocessed.smi

> <i_m_source_file_index>
1409

> <i_lp_mmshare_version>
43012

> <i_f3d_flags>
0

> <s_epik_input>
W0NIM11PYzFuW2NIXVtjSF1bY0hdYzFbTkhdQyg9TylbTkhdW0NIMl1bQ0BASF0oW0NIMl0yKVtDSDJdW0NIMl1TMig9Tyk9Tw==

> <s_epik_cmdline>
J2VwaWtfcHl0aG9uJywgJy1waCcsICc3LjAnLCAnLXRuJywgJzgnLCAnLW1hJywgJzIwMCcsICctbWV0YWxfYmluZGluZycsICctaW1hZScsICc8aW5maWxlLm1hZT4nLCAnLW9tYWUnLCAnPG91dGZpbGUubWFlPic=

> <r_lp_tautomer_probability>
1

> <r_epik_Ionization_Penalty>
9.0549e-05

> <r_epik_Ionization_Penalty_Charging>
0

> <r_epik_Ionization_Penalty_Neutral>
9.0549e-05

> <r_epik_State_Penalty>
-0

> <r_epik_Charging_Adjusted_Penalty>
0

> <i_epik_Tot_Q>
0

> <i_epik_Tot_abs_Q>
0

> <r_epik_Metal_State_Penalty>
-0

> <b_epik_Metal_Only>
0

> <s_lp_Force_Field>
OPLS_2005

> <r_lp_Energy>
8.54576

> <b_lp_Chiralities_Consistent>
1

> <s_lp_Variant>
AV-unprocessed.smi:1409-1

> <Gold.Version>
5.8.1

> <Gold.Id.Protein>
6NUR|6NUR_protein|mol2

> <Gold.PLP.Fitness>
41.2747

> <Gold.PLP.PLP>
-36.1762

> <Gold.PLP.part.hbond>
-2.0000

> <Gold.PLP.part.metal>
0.0000

> <Gold.PLP.part.buried>
-7.1809

> <Gold.PLP.part.nonpolar>
-28.5563

> <Gold.PLP.part.repulsive>
0.6680

> <Gold.PLP.ligand.clash>
0.0000

> <Gold.PLP.ligand.torsion>
0.4421

> <Gold.PLP.Chemscore.Hbond>
1.9920

> <Gold.PLP.Chemscore.CHOScore>
0.0000

> <Gold.PLP.Chemscore.Metal>
0.0000

> <Gold.Chemscore.Hbonds>
donor molecule, donor type, donor heavy atom, donor atom, acceptor molecule, acceptor atom, score
      L1  H     9    27       P1  8028  0.98
      L1  H    12    28       P1  8028  1.00

> <Gold.PLP.Chemscore.Internal.Correction>
0.0068

> <Gold.Rescore>
     Score         DG    S(hbond)    S(metal)    S(lipo)     H(rot)  DE(clash)    DE(int)     intcor
     14.71     -16.36       1.92        0.00      72.99       1.59       0.08       1.57       ----

> <Gold.Chemscore.Fitness>
14.7094

> <Gold.Chemscore.DG>
-16.3562

> <Gold.Chemscore.ZeroCoef>
-5.4800

> <Gold.Chemscore.Hbond>
1.9195

> <Gold.Chemscore.Metal>
0.0000

> <Gold.Chemscore.Lipo>
72.9946

> <Gold.Chemscore.Internal_Hbond>
0.0000

> <Gold.Chemscore.DEClash>
0.0754

> <Gold.Chemscore.DEInternal>
1.5715

> <Gold.Chemscore.Rot>
1.5919

> <Gold.Chemscore.Internal.Correction>
   9.000000E+99

> <Gold.Chemscore.Hbonds>
donor molecule, donor type, donor heavy atom, donor atom, acceptor molecule, acceptor atom, score
      L1  H     9    27       P1  8028  0.87
      L1  H    12    28       P1  8028  1.00

> <Gold.Chemscore.Hbond.Weighted>
-6.4112

> <Gold.Chemscore.Metal.Weighted>
-0.0000

> <Gold.Chemscore.Lipo.Weighted>
-8.5404

> <Gold.Chemscore.Internal_Hbond.Weighted>
0.0000

> <Gold.Chemscore.DEClash.Weighted>
0.0754

> <Gold.Chemscore.DEInternal.Weighted>
1.5715

> <Gold.Chemscore.Rot.Weighted>
4.0754

> <Gold.Chemscore.Internal.Correction.Weighted>
   9.000000E+99

> <Gold.Protein.RotatedTorsions>
[ 6907 6896 6895 6894 ] final -179.07 input  -60.11 | X-H torsion
[ 7974 7965 7964 7962 ] final  -82.24 input  175.53 | X-H torsion
[ 8008 7997 7996 7995 ] final -173.23 input   59.86 | X-H torsion
[ 10167 10162 10161 10158 ] final    2.74 input  -65.29 | X-H torsion
[ 10718 10713 10712 10709 ] final  120.65 input   66.30 | X-H torsion
[ 10763 10752 10751 10750 ] final   89.03 input  -60.55 | X-H torsion
[ 11005 11000 10999 10996 ] final -159.12 input  -57.11 | X-H torsion

> <Gold.Protein.ActiveResidues>
 VAL166  LYS551  ARG553  GLY616  TRP617  ASP618  TYR619  PRO620  LYS621  CYS622 
 ASP623  PHE694  ASN695  SER759  ASP760  ASP761  ALA762  ILE779  LEU786  VAL792 
 PHE793  MET794  SER795  GLU796  ALA797  LYS798  CYS799  TRP800  GLU811  SER814 

> <Gold.Protein.RotatedAtoms>
  151.6474  133.3322  159.3143 H   0  0  0  0  0  0  0  0  0  0  0  0  # atno 6907 bound_to 6896
  150.7977  134.7053  159.6582 H   0  0  0  0  0  0  0  0  0  0  0  0  # atno 6908 bound_to 6896
  152.4066  134.6200  160.0100 H   0  0  0  0  0  0  0  0  0  0  0  0  # atno 6909 bound_to 6896
  145.5359  140.9515  143.1577 H   0  0  0  0  0  0  0  0  0  0  0  0  # atno 7974 bound_to 7965
  155.9547  140.1133  157.0947 H   0  0  0  0  0  0  0  0  0  0  0  0  # atno 8008 bound_to 7997
  154.4118  140.1193  156.5166 H   0  0  0  0  0  0  0  0  0  0  0  0  # atno 8009 bound_to 7997
  155.6797  140.3473  155.4852 H   0  0  0  0  0  0  0  0  0  0  0  0  # atno 8010 bound_to 7997
  140.6620  143.7279  150.7756 H   0  0  0  0  0  0  0  0  0  0  0  0  # atno 10167 bound_to 10162
  157.5875  131.1068  150.8065 H   0  0  0  0  0  0  0  0  0  0  0  0  # atno 10718 bound_to 10713
  153.1829  135.4485  155.0051 H   0  0  0  0  0  0  0  0  0  0  0  0  # atno 10763 bound_to 10752
  154.8042  135.3267  154.7477 H   0  0  0  0  0  0  0  0  0  0  0  0  # atno 10764 bound_to 10752
  153.7939  135.6968  153.4922 H   0  0  0  0  0  0  0  0  0  0  0  0  # atno 10765 bound_to 10752
  140.6461  134.4500  157.5234 H   0  0  0  0  0  0  0  0  0  0  0  0  # atno 11005 bound_to 11000
  144.7602  139.6976  143.7237 LP  0  0  0  0  0  0  0  0  0  0  0  0  # atno 17320 bound_to 7965
  146.2013  139.5310  142.9741 LP  0  0  0  0  0  0  0  0  0  0  0  0  # atno 17321 bound_to 7965
  140.0949  143.4842  152.2458 LP  0  0  0  0  0  0  0  0  0  0  0  0  # atno 17342 bound_to 10162
  139.5857  144.7530  151.3527 LP  0  0  0  0  0  0  0  0  0  0  0  0  # atno 17343 bound_to 10162
  156.8496  130.5076  149.5313 LP  0  0  0  0  0  0  0  0  0  0  0  0  # atno 17370 bound_to 10713
  156.0926  130.5907  150.9758 LP  0  0  0  0  0  0  0  0  0  0  0  0  # atno 17371 bound_to 10713
  139.9062  134.8443  156.1696 LP  0  0  0  0  0  0  0  0  0  0  0  0  # atno 17394 bound_to 11000
  141.0571  133.6860  156.1881 LP  0  0  0  0  0  0  0  0  0  0  0  0  # atno 17395 bound_to 11000

$$$$
