AV-unprocessed.smi:2061|AV-procd|sdf|8377|dock7
  -GOLD-   2272011 53D 1   1.00000     0.00000
 Structure written by MMmdl.
 44 45  0  0  0  0  0  0  0  0  2 V2000
  148.0711  133.1215  154.0828 C   0  0  0  0  0  0  0  0  0  0  0  0
  148.8281  134.3519  154.4497 C   0  0  0  0  0  0  0  0  0  0  0  0
  150.1544  134.5941  154.6693 C   0  0  0  0  0  0  0  0  0  0  0  0
  150.1844  135.9816  154.9785 C   0  0  0  0  0  0  0  0  0  0  0  0
  151.2749  136.6972  155.2935 N   0  5  0  0  0  0  0  0  0  0  0  0
  151.1817  138.0317  155.4959 C   0  0  0  0  0  0  0  0  0  0  0  0
  150.3757  138.7970  154.9620 O   0  0  0  0  0  0  0  0  0  0  0  0
  152.0881  138.5059  156.3636 N   0  0  0  0  0  0  0  0  0  0  0  0
  152.2546  139.8972  156.7805 C   0  0  0  0  0  0  0  0  0  0  0  0
  152.3293  140.0610  158.3254 C   0  0  1  0  0  0  0  0  0  0  0  0
  153.4649  139.1591  158.8738 C   0  0  0  0  0  0  0  0  0  0  0  0
  152.4584  141.4729  158.7607 N   0  0  0  0  0  0  0  0  0  0  0  0
  152.5924  141.6029  160.2147 C   0  0  0  0  0  0  0  0  0  0  0  0
  152.7433  143.0636  160.6767 C   0  0  2  0  0  0  0  0  0  0  0  0
  152.7934  143.1807  162.2038 C   0  0  0  0  0  0  0  0  0  0  0  0
  151.6353  143.8276  160.2138 O   0  0  0  0  0  0  0  0  0  0  0  0
  151.4186  143.7687  158.8062 C   0  0  1  0  0  0  0  0  0  0  0  0
  152.4607  144.5916  158.0292 C   0  0  0  0  0  0  0  0  0  0  0  0
  151.3247  142.3031  158.3368 C   0  0  0  0  0  0  0  0  0  0  0  0
  148.9810  136.5295  154.9621 N   0  0  0  0  0  0  0  0  0  0  0  0
  148.1059  135.4919  154.6190 O   0  0  0  0  0  0  0  0  0  0  0  0
  148.0351  132.4276  154.9226 H   0  0  0  0  0  0  0  0  0  0  0  0
  148.5448  132.6128  153.2433 H   0  0  0  0  0  0  0  0  0  0  0  0
  147.0465  133.3609  153.7970 H   0  0  0  0  0  0  0  0  0  0  0  0
  150.9734  133.8929  154.6155 H   0  0  0  0  0  0  0  0  0  0  0  0
  152.7236  137.8354  156.7704 H   0  0  0  0  0  0  0  0  0  0  0  0
  153.1238  140.3609  156.3113 H   0  0  0  0  0  0  0  0  0  0  0  0
  151.3823  140.4019  156.3708 H   0  0  0  0  0  0  0  0  0  0  0  0
  151.3937  139.6711  158.7295 H   0  0  0  0  0  0  0  0  0  0  0  0
  153.3822  138.1301  158.5271 H   0  0  0  0  0  0  0  0  0  0  0  0
  153.4533  139.0861  159.9598 H   0  0  0  0  0  0  0  0  0  0  0  0
  154.4439  139.5291  158.5680 H   0  0  0  0  0  0  0  0  0  0  0  0
  151.7298  141.1492  160.7056 H   0  0  0  0  0  0  0  0  0  0  0  0
  153.4734  141.0708  160.5679 H   0  0  0  0  0  0  0  0  0  0  0  0
  153.6668  143.4795  160.2727 H   0  0  0  0  0  0  0  0  0  0  0  0
  153.6390  142.6267  162.6125 H   0  0  0  0  0  0  0  0  0  0  0  0
  151.8841  142.7884  162.6599 H   0  0  0  0  0  0  0  0  0  0  0  0
  152.8984  144.2214  162.5117 H   0  0  0  0  0  0  0  0  0  0  0  0
  150.4503  144.2373  158.6284 H   0  0  0  0  0  0  0  0  0  0  0  0
  152.2077  144.6343  156.9697 H   0  0  0  0  0  0  0  0  0  0  0  0
  153.4608  144.1656  158.1060 H   0  0  0  0  0  0  0  0  0  0  0  0
  152.5029  145.6159  158.4001 H   0  0  0  0  0  0  0  0  0  0  0  0
  151.2393  142.3227  157.2524 H   0  0  0  0  0  0  0  0  0  0  0  0
  150.3984  141.8690  158.7162 H   0  0  0  0  0  0  0  0  0  0  0  0
  1  2  1  0  0  0  0
  1 22  1  0  0  0  0
  1 23  1  0  0  0  0
  1 24  1  0  0  0  0
  2 21  1  0  0  0  0
  2  3  2  0  0  0  0
  3  4  1  0  0  0  0
  3 25  1  0  0  0  0
  4  5  1  0  0  0  0
  4 20  2  0  0  0  0
  5  6  1  0  0  0  0
  6  7  2  0  0  0  0
  6  8  1  0  0  0  0
  8  9  1  0  0  0  0
  8 26  1  0  0  0  0
  9 10  1  0  0  0  0
  9 27  1  0  0  0  0
  9 28  1  0  0  0  0
 10 11  1  0  0  0  0
 10 12  1  0  0  0  0
 10 29  1  0  0  0  0
 11 30  1  0  0  0  0
 11 31  1  0  0  0  0
 11 32  1  0  0  0  0
 12 19  1  0  0  0  0
 12 13  1  0  0  0  0
 13 14  1  0  0  0  0
 13 33  1  0  0  0  0
 13 34  1  0  0  0  0
 14 15  1  0  0  0  0
 14 16  1  0  0  0  0
 14 35  1  0  0  0  0
 15 36  1  0  0  0  0
 15 37  1  0  0  0  0
 15 38  1  0  0  0  0
 16 17  1  0  0  0  0
 17 18  1  0  0  0  0
 17 19  1  0  0  0  0
 17 39  1  0  0  0  0
 18 40  1  0  0  0  0
 18 41  1  0  0  0  0
 18 42  1  0  0  0  0
 19 43  1  0  0  0  0
 19 44  1  0  0  0  0
 20 21  1  0  0  0  0
M  CHG  1   5  -1
M  END
> <s_m_source_file>
AV-unprocessed.smi

> <i_m_source_file_index>
2061

> <i_lp_mmshare_version>
43012

> <i_f3d_flags>
0

> <s_epik_input>
W0NIM11jMVtjSF1jKG5vMSlbTkhdQyg9TylbTkhdW0NIMl1bQ0BIXShbQ0gzXSlOMltDSDJdW0NAQEhdKFtDSDNdKU9bQ0BASF0oW0NIM10pW0NIMl0y

> <s_epik_cmdline>
J2VwaWtfcHl0aG9uJywgJy1waCcsICc3LjAnLCAnLXRuJywgJzgnLCAnLW1hJywgJzIwMCcsICctbWV0YWxfYmluZGluZycsICctaW1hZScsICc8aW5maWxlLm1hZT4nLCAnLW9tYWUnLCAnPG91dGZpbGUubWFlPic=

> <r_epik_Ionization_Penalty>
6.88367

> <r_epik_Ionization_Penalty_Charging>
6.57198

> <r_epik_Ionization_Penalty_Neutral>
0.311681

> <r_epik_State_Penalty>
6.77619

> <r_epik_Charging_Adjusted_Penalty>
13.3482

> <i_epik_Tot_Q>
-1

> <i_epik_Tot_abs_Q>
1

> <r_epik_Metal_State_Penalty>
2.70524

> <b_epik_Metal_Only>
1

> <s_lp_Force_Field>
OPLS_2005

> <r_lp_Energy>
24.2039

> <b_lp_Chiralities_Consistent>
1

> <s_lp_Variant>
AV-unprocessed.smi:2061-18

> <Gold.Version>
5.8.1

> <Gold.Id.Protein>
6NUR|6NUR_protein|mol2

> <Gold.PLP.Fitness>
41.8565

> <Gold.PLP.PLP>
-36.3283

> <Gold.PLP.part.hbond>
-1.0000

> <Gold.PLP.part.metal>
0.0000

> <Gold.PLP.part.buried>
-4.2513

> <Gold.PLP.part.nonpolar>
-30.8515

> <Gold.PLP.part.repulsive>
1.3200

> <Gold.PLP.ligand.clash>
0.0000

> <Gold.PLP.ligand.torsion>
0.2693

> <Gold.PLP.Chemscore.Hbond>
2.0000

> <Gold.PLP.Chemscore.CHOScore>
0.0000

> <Gold.PLP.Chemscore.Metal>
0.0000

> <Gold.Chemscore.Hbonds>
donor molecule, donor type, donor heavy atom, donor atom, acceptor molecule, acceptor atom, score
      P1  H 10752 10763       L1     5  1.30

> <Gold.PLP.Chemscore.Internal.Correction>
0.0668

> <Gold.Rescore>
     Score         DG    S(hbond)    S(metal)    S(lipo)     H(rot)  DE(clash)    DE(int)     intcor
     13.71     -16.05       0.88        0.00      98.59       1.52       0.52       1.82       ----

> <Gold.Chemscore.Fitness>
13.7110

> <Gold.Chemscore.DG>
-16.0519

> <Gold.Chemscore.ZeroCoef>
-5.4800

> <Gold.Chemscore.Hbond>
0.8758

> <Gold.Chemscore.Metal>
0.0000

> <Gold.Chemscore.Lipo>
98.5912

> <Gold.Chemscore.Internal_Hbond>
0.0000

> <Gold.Chemscore.DEClash>
0.5206

> <Gold.Chemscore.DEInternal>
1.8203

> <Gold.Chemscore.Rot>
1.5190

> <Gold.Chemscore.Internal.Correction>
   9.000000E+99

> <Gold.Chemscore.Hbonds>
donor molecule, donor type, donor heavy atom, donor atom, acceptor molecule, acceptor atom, score
      P1  H 10752 10763       L1     5  0.47

> <Gold.Chemscore.Hbond.Weighted>
-2.9253

> <Gold.Chemscore.Metal.Weighted>
-0.0000

> <Gold.Chemscore.Lipo.Weighted>
-11.5352

> <Gold.Chemscore.Internal_Hbond.Weighted>
0.0000

> <Gold.Chemscore.DEClash.Weighted>
0.5206

> <Gold.Chemscore.DEInternal.Weighted>
1.8203

> <Gold.Chemscore.Rot.Weighted>
3.8886

> <Gold.Chemscore.Internal.Correction.Weighted>
   9.000000E+99

> <Gold.Protein.RotatedTorsions>
[ 6907 6896 6895 6894 ] final -178.39 input  -60.11 | X-H torsion
[ 7974 7965 7964 7962 ] final   95.91 input  175.53 | X-H torsion
[ 8008 7997 7996 7995 ] final -107.84 input   59.86 | X-H torsion
[ 10167 10162 10161 10158 ] final -111.65 input  -65.29 | X-H torsion
[ 10718 10713 10712 10709 ] final  -48.50 input   66.30 | X-H torsion
[ 10763 10752 10751 10750 ] final   81.21 input  -60.55 | X-H torsion
[ 11005 11000 10999 10996 ] final  106.74 input  -57.11 | X-H torsion

> <Gold.Protein.ActiveResidues>
 VAL166  LYS551  ARG553  GLY616  TRP617  ASP618  TYR619  PRO620  LYS621  CYS622 
 ASP623  PHE694  ASN695  SER759  ASP760  ASP761  ALA762  ILE779  LEU786  VAL792 
 PHE793  MET794  SER795  GLU796  ALA797  LYS798  CYS799  TRP800  GLU811  SER814 

> <Gold.Protein.RotatedAtoms>
  151.6364  133.3328  159.3120 H   0  0  0  0  0  0  0  0  0  0  0  0  # atno 6907 bound_to 6896
  150.8030  134.7140  159.6629 H   0  0  0  0  0  0  0  0  0  0  0  0  # atno 6908 bound_to 6896
  152.4124  134.6106  160.0076 H   0  0  0  0  0  0  0  0  0  0  0  0  # atno 6909 bound_to 6896
  145.4459  139.2297  143.3066 H   0  0  0  0  0  0  0  0  0  0  0  0  # atno 7974 bound_to 7965
  154.9353  140.0404  157.2069 H   0  0  0  0  0  0  0  0  0  0  0  0  # atno 8008 bound_to 7997
  154.8121  140.2869  155.5824 H   0  0  0  0  0  0  0  0  0  0  0  0  # atno 8009 bound_to 7997
  156.2972  140.2535  156.3012 H   0  0  0  0  0  0  0  0  0  0  0  0  # atno 8010 bound_to 7997
  140.1313  143.4358  152.1625 H   0  0  0  0  0  0  0  0  0  0  0  0  # atno 10167 bound_to 10162
  156.1982  130.4155  149.9277 H   0  0  0  0  0  0  0  0  0  0  0  0  # atno 10718 bound_to 10713
  153.1097  135.4774  154.9014 H   0  0  0  0  0  0  0  0  0  0  0  0  # atno 10763 bound_to 10752
  154.7468  135.3096  154.8633 H   0  0  0  0  0  0  0  0  0  0  0  0  # atno 10764 bound_to 10752
  153.9225  135.6853  153.4801 H   0  0  0  0  0  0  0  0  0  0  0  0  # atno 10765 bound_to 10752
  139.8818  134.9379  156.5712 H   0  0  0  0  0  0  0  0  0  0  0  0  # atno 11005 bound_to 11000
  146.2531  140.5212  142.8885 LP  0  0  0  0  0  0  0  0  0  0  0  0  # atno 17320 bound_to 7965
  144.8092  140.6355  143.6426 LP  0  0  0  0  0  0  0  0  0  0  0  0  # atno 17321 bound_to 7965
  139.5518  144.7343  151.4412 LP  0  0  0  0  0  0  0  0  0  0  0  0  # atno 17342 bound_to 10162
  140.6815  143.8070  150.7128 LP  0  0  0  0  0  0  0  0  0  0  0  0  # atno 17343 bound_to 10162
  156.6995  130.8927  151.3598 LP  0  0  0  0  0  0  0  0  0  0  0  0  # atno 17370 bound_to 10713
  157.6970  130.9292  150.0674 LP  0  0  0  0  0  0  0  0  0  0  0  0  # atno 17371 bound_to 10713
  140.8097  133.8439  155.8798 LP  0  0  0  0  0  0  0  0  0  0  0  0  # atno 17394 bound_to 11000
  140.9518  134.1769  157.4722 LP  0  0  0  0  0  0  0  0  0  0  0  0  # atno 17395 bound_to 11000

$$$$
