AV-unprocessed.smi:383|AV-procd|sdf|2464|dock10
  -GOLD-   2262022403D 1   1.00000     0.00000
 Structure written by MMmdl.
 40 41  0  0  0  0  0  0  0  0  1 V2000
  155.4143  136.5842  160.9777 C   0  0  0  0  0  0  0  0  0  0  0  0
  154.3706  137.6123  161.4443 C   0  0  0  0  0  0  0  0  0  0  0  0
  153.7068  137.1760  162.7608 C   0  0  0  0  0  0  0  0  0  0  0  0
  153.3116  137.8449  160.3593 C   0  0  0  0  0  0  0  0  0  0  0  0
  152.6493  136.9004  159.9282 O   0  0  0  0  0  0  0  0  0  0  0  0
  153.1610  139.1077  159.9303 N   0  0  0  0  0  0  0  0  0  0  0  0
  152.1904  139.5426  158.9334 C   0  0  0  0  0  0  0  0  0  0  0  0
  152.1411  141.0605  158.7909 C   0  0  0  0  0  0  0  0  0  0  0  0
  152.6862  141.8591  159.8188 C   0  0  0  0  0  0  0  0  0  0  0  0
  152.6190  143.2598  159.7140 C   0  0  0  0  0  0  0  0  0  0  0  0
  152.0014  143.8125  158.5779 C   0  0  0  0  0  0  0  0  0  0  0  0
  151.4725  143.0646  157.5879 N   0  0  0  0  0  0  0  0  0  0  0  0
  151.5340  141.7137  157.6842 C   0  0  0  0  0  0  0  0  0  0  0  0
  150.9755  140.9689  156.6314 N   0  0  0  0  0  0  0  0  0  0  0  0
  151.9230  140.0730  155.9829 C   0  0  0  0  0  0  0  0  0  0  0  0
  151.1732  139.1229  155.0331 C   0  0  0  0  0  0  0  0  0  0  0  0
  150.4061  139.8810  154.1014 O   0  0  0  0  0  0  0  0  0  0  0  0
  149.4341  140.7006  154.7460 C   0  0  0  0  0  0  0  0  0  0  0  0
  150.1396  141.6956  155.6827 C   0  0  0  0  0  0  0  0  0  0  0  0
  155.8867  136.8939  160.0446 H   0  0  0  0  0  0  0  0  0  0  0  0
  154.9679  135.6022  160.8157 H   0  0  0  0  0  0  0  0  0  0  0  0
  156.2044  136.4678  161.7201 H   0  0  0  0  0  0  0  0  0  0  0  0
  154.8888  138.5553  161.6265 H   0  0  0  0  0  0  0  0  0  0  0  0
  152.9615  137.9023  163.0884 H   0  0  0  0  0  0  0  0  0  0  0  0
  154.4452  137.0843  163.5577 H   0  0  0  0  0  0  0  0  0  0  0  0
  153.2089  136.2106  162.6594 H   0  0  0  0  0  0  0  0  0  0  0  0
  153.7511  139.8202  160.3347 H   0  0  0  0  0  0  0  0  0  0  0  0
  152.4858  139.1197  157.9730 H   0  0  0  0  0  0  0  0  0  0  0  0
  151.2140  139.1114  159.1536 H   0  0  0  0  0  0  0  0  0  0  0  0
  153.1474  141.4026  160.6825 H   0  0  0  0  0  0  0  0  0  0  0  0
  153.0276  143.8944  160.4862 H   0  0  0  0  0  0  0  0  0  0  0  0
  151.9283  144.8836  158.4609 H   0  0  0  0  0  0  0  0  0  0  0  0
  152.6512  140.6635  155.4252 H   0  0  0  0  0  0  0  0  0  0  0  0
  152.4779  139.4988  156.7256 H   0  0  0  0  0  0  0  0  0  0  0  0
  151.8815  138.4997  154.4872 H   0  0  0  0  0  0  0  0  0  0  0  0
  150.5214  138.4502  155.5932 H   0  0  0  0  0  0  0  0  0  0  0  0
  148.8622  141.2372  153.9891 H   0  0  0  0  0  0  0  0  0  0  0  0
  148.7280  140.0797  155.3001 H   0  0  0  0  0  0  0  0  0  0  0  0
  149.4026  142.2937  156.2204 H   0  0  0  0  0  0  0  0  0  0  0  0
  150.7532  142.3812  155.0964 H   0  0  0  0  0  0  0  0  0  0  0  0
  1  2  1  0  0  0  0
  1 20  1  0  0  0  0
  1 21  1  0  0  0  0
  1 22  1  0  0  0  0
  2  3  1  0  0  0  0
  2  4  1  0  0  0  0
  2 23  1  0  0  0  0
  3 24  1  0  0  0  0
  3 25  1  0  0  0  0
  3 26  1  0  0  0  0
  4  5  2  0  0  0  0
  4  6  1  0  0  0  0
  6  7  1  0  0  0  0
  6 27  1  0  0  0  0
  7  8  1  0  0  0  0
  7 28  1  0  0  0  0
  7 29  1  0  0  0  0
  8 13  1  0  0  0  0
  8  9  2  0  0  0  0
  9 10  1  0  0  0  0
  9 30  1  0  0  0  0
 10 11  2  0  0  0  0
 10 31  1  0  0  0  0
 11 12  1  0  0  0  0
 11 32  1  0  0  0  0
 12 13  2  0  0  0  0
 13 14  1  0  0  0  0
 14 19  1  0  0  0  0
 14 15  1  0  0  0  0
 15 16  1  0  0  0  0
 15 33  1  0  0  0  0
 15 34  1  0  0  0  0
 16 17  1  0  0  0  0
 16 35  1  0  0  0  0
 16 36  1  0  0  0  0
 17 18  1  0  0  0  0
 18 19  1  0  0  0  0
 18 37  1  0  0  0  0
 18 38  1  0  0  0  0
 19 39  1  0  0  0  0
 19 40  1  0  0  0  0
M  END
> <s_m_source_file>
AV-unprocessed.smi

> <i_m_source_file_index>
383

> <i_lp_mmshare_version>
43012

> <i_f3d_flags>
0

> <s_epik_input>
W0NIM11bQ0hdKFtDSDNdKUMoPU8pW05IXVtDSDJdYzFbY0hdW2NIXVtjSF1uYzFOMltDSDJdW0NIMl1PW0NIMl1bQ0gyXTI=

> <s_epik_cmdline>
J2VwaWtfcHl0aG9uJywgJy1waCcsICc3LjAnLCAnLXRuJywgJzgnLCAnLW1hJywgJzIwMCcsICctbWV0YWxfYmluZGluZycsICctaW1hZScsICc8aW5maWxlLm1hZT4nLCAnLW9tYWUnLCAnPG91dGZpbGUubWFlPic=

> <r_lp_tautomer_probability>
1

> <r_epik_Ionization_Penalty>
0.00505534

> <r_epik_Ionization_Penalty_Charging>
0

> <r_epik_Ionization_Penalty_Neutral>
0.00505534

> <r_epik_State_Penalty>
0.00367784

> <r_epik_Charging_Adjusted_Penalty>
0.00367784

> <i_epik_Tot_Q>
0

> <i_epik_Tot_abs_Q>
0

> <r_epik_Metal_State_Penalty>
-0

> <b_epik_Metal_Only>
0

> <s_lp_Force_Field>
OPLS_2005

> <r_lp_Energy>
19.0793

> <b_lp_Chiralities_Consistent>
1

> <s_lp_Variant>
AV-unprocessed.smi:383-1

> <Gold.Version>
5.8.1

> <Gold.Id.Protein>
6NUR|6NUR_protein|mol2

> <Gold.PLP.Fitness>
44.4583

> <Gold.PLP.PLP>
-39.0970

> <Gold.PLP.part.hbond>
-2.0000

> <Gold.PLP.part.metal>
0.0000

> <Gold.PLP.part.buried>
-5.0745

> <Gold.PLP.part.nonpolar>
-32.7627

> <Gold.PLP.part.repulsive>
0.9066

> <Gold.PLP.ligand.clash>
0.0000

> <Gold.PLP.ligand.torsion>
0.4331

> <Gold.PLP.Chemscore.Hbond>
2.0000

> <Gold.PLP.Chemscore.CHOScore>
0.0000

> <Gold.PLP.Chemscore.Metal>
0.0000

> <Gold.Chemscore.Hbonds>
donor molecule, donor type, donor heavy atom, donor atom, acceptor molecule, acceptor atom, score
      P1  H  6896  6909       L1     5  1.00
      P1  H  7989  7998       L1    17  1.00

> <Gold.PLP.Chemscore.Internal.Correction>
0.2275

> <Gold.Rescore>
     Score         DG    S(hbond)    S(metal)    S(lipo)     H(rot)  DE(clash)    DE(int)     intcor
     17.05     -18.53       1.85        0.00      92.96       1.56       0.01       1.48       ----

> <Gold.Chemscore.Fitness>
17.0475

> <Gold.Chemscore.DG>
-18.5319

> <Gold.Chemscore.ZeroCoef>
-5.4800

> <Gold.Chemscore.Hbond>
1.8458

> <Gold.Chemscore.Metal>
0.0000

> <Gold.Chemscore.Lipo>
92.9608

> <Gold.Chemscore.Internal_Hbond>
0.0000

> <Gold.Chemscore.DEClash>
0.0077

> <Gold.Chemscore.DEInternal>
1.4767

> <Gold.Chemscore.Rot>
1.5584

> <Gold.Chemscore.Internal.Correction>
   9.000000E+99

> <Gold.Chemscore.Hbonds>
donor molecule, donor type, donor heavy atom, donor atom, acceptor molecule, acceptor atom, score
      P1  H  6896  6909       L1     5  0.92
      P1  H  7989  7998       L1    17  0.18

> <Gold.Chemscore.Hbond.Weighted>
-6.1649

> <Gold.Chemscore.Metal.Weighted>
-0.0000

> <Gold.Chemscore.Lipo.Weighted>
-10.8764

> <Gold.Chemscore.Internal_Hbond.Weighted>
0.0000

> <Gold.Chemscore.DEClash.Weighted>
0.0077

> <Gold.Chemscore.DEInternal.Weighted>
1.4767

> <Gold.Chemscore.Rot.Weighted>
3.9895

> <Gold.Chemscore.Internal.Correction.Weighted>
   9.000000E+99

> <Gold.Protein.RotatedTorsions>
[ 6907 6896 6895 6894 ] final  121.59 input  -60.11 | X-H torsion
[ 7974 7965 7964 7962 ] final   29.49 input  175.53 | X-H torsion
[ 8008 7997 7996 7995 ] final   67.53 input   59.86 | X-H torsion
[ 10167 10162 10161 10158 ] final  105.78 input  -65.29 | X-H torsion
[ 10718 10713 10712 10709 ] final  -20.96 input   66.30 | X-H torsion
[ 10763 10752 10751 10750 ] final  -33.57 input  -60.55 | X-H torsion
[ 11005 11000 10999 10996 ] final -135.09 input  -57.11 | X-H torsion

> <Gold.Protein.ActiveResidues>
 VAL166  LYS551  ARG553  GLY616  TRP617  ASP618  TYR619  PRO620  LYS621  CYS622 
 ASP623  PHE694  ASN695  SER759  ASP760  ASP761  ALA762  ILE779  LEU786  VAL792 
 PHE793  MET794  SER795  GLU796  ALA797  LYS798  CYS799  TRP800  GLU811  SER814 

> <Gold.Protein.RotatedAtoms>
  152.4310  133.7277  159.6569 H   0  0  0  0  0  0  0  0  0  0  0  0  # atno 6907 bound_to 6896
  150.8189  133.8277  159.3154 H   0  0  0  0  0  0  0  0  0  0  0  0  # atno 6908 bound_to 6896
  151.5965  135.1052  160.0102 H   0  0  0  0  0  0  0  0  0  0  0  0  # atno 6909 bound_to 6896
  146.1668  139.6914  142.8995 H   0  0  0  0  0  0  0  0  0  0  0  0  # atno 7974 bound_to 7965
  155.6943  140.3496  155.4906 H   0  0  0  0  0  0  0  0  0  0  0  0  # atno 8008 bound_to 7997
  155.9496  140.1117  157.1010 H   0  0  0  0  0  0  0  0  0  0  0  0  # atno 8009 bound_to 7997
  154.4119  140.1197  156.5021 H   0  0  0  0  0  0  0  0  0  0  0  0  # atno 8010 bound_to 7997
  139.7063  144.7085  151.1100 H   0  0  0  0  0  0  0  0  0  0  0  0  # atno 10167 bound_to 10162
  156.5247  130.4641  149.6578 H   0  0  0  0  0  0  0  0  0  0  0  0  # atno 10718 bound_to 10713
  153.8323  135.6865  153.4813 H   0  0  0  0  0  0  0  0  0  0  0  0  # atno 10763 bound_to 10752
  153.1503  135.4621  154.9625 H   0  0  0  0  0  0  0  0  0  0  0  0  # atno 10764 bound_to 10752
  154.7881  135.3292  154.7785 H   0  0  0  0  0  0  0  0  0  0  0  0  # atno 10765 bound_to 10752
  140.8930  134.1788  157.4514 H   0  0  0  0  0  0  0  0  0  0  0  0  # atno 11005 bound_to 11000
  145.4446  141.0424  143.2838 LP  0  0  0  0  0  0  0  0  0  0  0  0  # atno 17320 bound_to 7965
  144.8104  139.5972  143.7032 LP  0  0  0  0  0  0  0  0  0  0  0  0  # atno 17321 bound_to 7965
  140.7722  143.5353  150.9375 LP  0  0  0  0  0  0  0  0  0  0  0  0  # atno 17342 bound_to 10162
  139.9037  143.6805  152.3127 LP  0  0  0  0  0  0  0  0  0  0  0  0  # atno 17343 bound_to 10162
  156.3116  130.7232  151.2126 LP  0  0  0  0  0  0  0  0  0  0  0  0  # atno 17370 bound_to 10713
  157.7431  131.0480  150.4971 LP  0  0  0  0  0  0  0  0  0  0  0  0  # atno 17371 bound_to 10713
  139.8732  134.9866  156.5333 LP  0  0  0  0  0  0  0  0  0  0  0  0  # atno 17394 bound_to 11000
  140.8324  133.8269  155.8996 LP  0  0  0  0  0  0  0  0  0  0  0  0  # atno 17395 bound_to 11000

$$$$
