AV-unprocessed.smi:737|AV-procd|sdf|3537|dock5
  -GOLD-   22720 0533D 1   1.00000     0.00000
 Structure written by MMmdl.
 45 47  0  0  0  0  0  0  0  0  1 V2000
  146.2334  143.4641  153.5140 C   0  0  0  0  0  0  0  0  0  0  0  0
  145.4221  142.4468  154.1628 N   0  0  0  0  0  0  0  0  0  0  0  0
  145.1767  142.4992  155.5419 C   0  0  0  0  0  0  0  0  0  0  0  0
  143.9531  142.8565  155.9963 N   0  0  0  0  0  0  0  0  0  0  0  0
  143.7616  142.8884  157.3215 C   0  0  0  0  0  0  0  0  0  0  0  0
  144.6273  142.6083  158.3083 N   0  0  0  0  0  0  0  0  0  0  0  0
  145.8427  142.2550  157.8688 C   0  0  0  0  0  0  0  0  0  0  0  0
  146.9252  141.9128  158.6611 N   0  0  0  0  0  0  0  0  0  0  0  0
  147.8586  141.6561  157.7482 C   0  0  0  0  0  0  0  0  0  0  0  0
  147.5143  141.7889  156.4524 N   0  0  0  0  0  0  0  0  0  0  0  0
  148.3744  141.5617  155.3038 C   0  0  0  0  0  0  0  0  0  0  0  0
  149.7260  140.9280  155.6925 C   0  0  1  0  0  0  0  0  0  0  0  0
  150.2533  140.1218  154.6573 O   0  0  0  0  0  0  0  0  0  0  0  0
  150.7868  141.9584  156.1082 C   0  0  0  0  0  0  0  0  0  0  0  0
  150.4428  142.5179  157.3684 O   0  0  0  0  0  0  0  0  0  0  0  0
  151.4224  142.3878  158.3179 C   0  0  0  0  0  0  0  0  0  0  0  0
  151.7398  141.1050  158.8214 C   0  0  0  0  0  0  0  0  0  0  0  0
  151.0057  139.8771  158.3162 C   0  0  0  0  0  0  0  0  0  0  0  0
  152.7461  140.9647  159.7990 C   0  0  0  0  0  0  0  0  0  0  0  0
  153.4265  142.0973  160.2828 C   0  0  0  0  0  0  0  0  0  0  0  0
  153.0986  143.3764  159.7961 C   0  0  0  0  0  0  0  0  0  0  0  0
  152.0933  143.5292  158.8191 C   0  0  0  0  0  0  0  0  0  0  0  0
  151.7429  144.9208  158.3247 C   0  0  0  0  0  0  0  0  0  0  0  0
  146.1779  142.1845  156.4830 C   0  0  0  0  0  0  0  0  0  0  0  0
  146.3003  143.2596  152.4454 H   0  0  0  0  0  0  0  0  0  0  0  0
  147.2439  143.4716  153.9238 H   0  0  0  0  0  0  0  0  0  0  0  0
  145.7931  144.4530  153.6451 H   0  0  0  0  0  0  0  0  0  0  0  0
  144.9837  141.7337  153.5974 H   0  0  0  0  0  0  0  0  0  0  0  0
  142.7718  143.1796  157.6406 H   0  0  0  0  0  0  0  0  0  0  0  0
  148.8541  141.3531  158.0385 H   0  0  0  0  0  0  0  0  0  0  0  0
  147.8391  140.9425  154.5851 H   0  0  0  0  0  0  0  0  0  0  0  0
  148.5440  142.5181  154.8075 H   0  0  0  0  0  0  0  0  0  0  0  0
  149.5607  140.2594  156.5383 H   0  0  0  0  0  0  0  0  0  0  0  0
  149.9181  139.2440  154.7591 H   0  0  0  0  0  0  0  0  0  0  0  0
  151.7552  141.4627  156.1908 H   0  0  0  0  0  0  0  0  0  0  0  0
  150.8919  142.7316  155.3458 H   0  0  0  0  0  0  0  0  0  0  0  0
  151.1582  139.0253  158.9794 H   0  0  0  0  0  0  0  0  0  0  0  0
  151.3637  139.6048  157.3235 H   0  0  0  0  0  0  0  0  0  0  0  0
  149.9335  140.0665  158.2557 H   0  0  0  0  0  0  0  0  0  0  0  0
  152.9988  139.9873  160.1836 H   0  0  0  0  0  0  0  0  0  0  0  0
  154.1960  141.9858  161.0324 H   0  0  0  0  0  0  0  0  0  0  0  0
  153.6195  144.2417  160.1792 H   0  0  0  0  0  0  0  0  0  0  0  0
  151.9522  145.6690  159.0897 H   0  0  0  0  0  0  0  0  0  0  0  0
  150.6856  144.9949  158.0691 H   0  0  0  0  0  0  0  0  0  0  0  0
  152.3297  145.1661  157.4398 H   0  0  0  0  0  0  0  0  0  0  0  0
  1  2  1  0  0  0  0
  1 25  1  0  0  0  0
  1 26  1  0  0  0  0
  1 27  1  0  0  0  0
  2  3  1  0  0  0  0
  2 28  1  0  0  0  0
  3 24  1  0  0  0  0
  3  4  2  0  0  0  0
  4  5  1  0  0  0  0
  5  6  2  0  0  0  0
  5 29  1  0  0  0  0
  6  7  1  0  0  0  0
  7 24  2  0  0  0  0
  7  8  1  0  0  0  0
  8  9  2  0  0  0  0
  9 10  1  0  0  0  0
  9 30  1  0  0  0  0
 10 11  1  0  0  0  0
 10 24  1  0  0  0  0
 11 12  1  0  0  0  0
 11 31  1  0  0  0  0
 11 32  1  0  0  0  0
 12 13  1  0  0  0  0
 12 14  1  0  0  0  0
 12 33  1  0  0  0  0
 13 34  1  0  0  0  0
 14 15  1  0  0  0  0
 14 35  1  0  0  0  0
 14 36  1  0  0  0  0
 15 16  1  0  0  0  0
 16 22  1  0  0  0  0
 16 17  2  0  0  0  0
 17 18  1  0  0  0  0
 17 19  1  0  0  0  0
 18 37  1  0  0  0  0
 18 38  1  0  0  0  0
 18 39  1  0  0  0  0
 19 20  2  0  0  0  0
 19 40  1  0  0  0  0
 20 21  1  0  0  0  0
 20 41  1  0  0  0  0
 21 22  2  0  0  0  0
 21 42  1  0  0  0  0
 22 23  1  0  0  0  0
 23 43  1  0  0  0  0
 23 44  1  0  0  0  0
 23 45  1  0  0  0  0
M  END
> <s_m_source_file>
AV-unprocessed.smi

> <i_m_source_file_index>
737

> <i_lp_mmshare_version>
43012

> <i_f3d_flags>
0

> <s_epik_input>
bjFbY0hdbmMoW05IXVtDSDNdKWMoYzEyKW4oW2NIXW4yKVtDSDJdW0NASF0oW09IXSlbQ0gyXU9jM2MoW0NIM10pW2NIXVtjSF1bY0hdYzNbQ0gzXQ==

> <s_epik_cmdline>
J2VwaWtfcHl0aG9uJywgJy1waCcsICc3LjAnLCAnLXRuJywgJzgnLCAnLW1hJywgJzIwMCcsICctbWV0YWxfYmluZGluZycsICctaW1hZScsICc8aW5maWxlLm1hZT4nLCAnLW9tYWUnLCAnPG91dGZpbGUubWFlPic=

> <r_lp_tautomer_probability>
1

> <r_epik_Ionization_Penalty>
0.0070961

> <r_epik_Ionization_Penalty_Charging>
0

> <r_epik_Ionization_Penalty_Neutral>
0.0070961

> <r_epik_State_Penalty>
-0

> <r_epik_Charging_Adjusted_Penalty>
0

> <i_epik_Tot_Q>
0

> <i_epik_Tot_abs_Q>
0

> <r_epik_Metal_State_Penalty>
-0

> <b_epik_Metal_Only>
0

> <s_lp_Force_Field>
OPLS_2005

> <r_lp_Energy>
18.2804

> <b_lp_Chiralities_Consistent>
1

> <s_lp_Variant>
AV-unprocessed.smi:737-2

> <Gold.Version>
5.8.1

> <Gold.Id.Protein>
6NUR|6NUR_protein|mol2

> <Gold.PLP.Fitness>
46.4811

> <Gold.PLP.PLP>
-42.0397

> <Gold.PLP.part.hbond>
-3.0000

> <Gold.PLP.part.metal>
0.0000

> <Gold.PLP.part.buried>
-7.9328

> <Gold.PLP.part.nonpolar>
-32.7891

> <Gold.PLP.part.repulsive>
0.2295

> <Gold.PLP.ligand.clash>
0.0000

> <Gold.PLP.ligand.torsion>
1.6089

> <Gold.PLP.Chemscore.Hbond>
2.4800

> <Gold.PLP.Chemscore.CHOScore>
0.0000

> <Gold.PLP.Chemscore.Metal>
0.0000

> <Gold.Chemscore.Hbonds>
donor molecule, donor type, donor heavy atom, donor atom, acceptor molecule, acceptor atom, score
      L1  H     2    28       P1 10175  0.46
      P1  H  6934  6946       L1     8  0.22
      P1  H  7989  7998       L1    13  1.00

> <Gold.PLP.Chemscore.Internal.Correction>
0.2191

> <Gold.Rescore>
     Score         DG    S(hbond)    S(metal)    S(lipo)     H(rot)  DE(clash)    DE(int)     intcor
     14.40     -17.65       2.11        0.00     107.41       2.91       0.26       2.99       ----

> <Gold.Chemscore.Fitness>
14.4045

> <Gold.Chemscore.DG>
-17.6479

> <Gold.Chemscore.ZeroCoef>
-5.4800

> <Gold.Chemscore.Hbond>
2.1084

> <Gold.Chemscore.Metal>
0.0000

> <Gold.Chemscore.Lipo>
107.4113

> <Gold.Chemscore.Internal_Hbond>
0.0000

> <Gold.Chemscore.DEClash>
0.2566

> <Gold.Chemscore.DEInternal>
2.9867

> <Gold.Chemscore.Rot>
2.9067

> <Gold.Chemscore.Internal.Correction>
   9.000000E+99

> <Gold.Chemscore.Hbonds>
donor molecule, donor type, donor heavy atom, donor atom, acceptor molecule, acceptor atom, score
      L1  H     2    28       P1 10175  0.03
      P1  H  6934  6946       L1     8  0.21
      P1  H  7989  7998       L1    13  0.95

> <Gold.Chemscore.Hbond.Weighted>
-7.0419

> <Gold.Chemscore.Metal.Weighted>
-0.0000

> <Gold.Chemscore.Lipo.Weighted>
-12.5671

> <Gold.Chemscore.Internal_Hbond.Weighted>
0.0000

> <Gold.Chemscore.DEClash.Weighted>
0.2566

> <Gold.Chemscore.DEInternal.Weighted>
2.9867

> <Gold.Chemscore.Rot.Weighted>
7.4412

> <Gold.Chemscore.Internal.Correction.Weighted>
   9.000000E+99

> <Gold.Protein.RotatedTorsions>
[ 6907 6896 6895 6894 ] final  100.97 input  -60.11 | X-H torsion
[ 7974 7965 7964 7962 ] final -122.65 input  175.53 | X-H torsion
[ 8008 7997 7996 7995 ] final -178.08 input   59.86 | X-H torsion
[ 10167 10162 10161 10158 ] final   11.92 input  -65.29 | X-H torsion
[ 10718 10713 10712 10709 ] final    1.28 input   66.30 | X-H torsion
[ 10763 10752 10751 10750 ] final  106.35 input  -60.55 | X-H torsion
[ 11005 11000 10999 10996 ] final  147.97 input  -57.11 | X-H torsion

> <Gold.Protein.ActiveResidues>
 VAL166  LYS551  ARG553  GLY616  TRP617  ASP618  TYR619  PRO620  LYS621  CYS622 
 ASP623  PHE694  ASN695  SER759  ASP760  ASP761  ALA762  ILE779  LEU786  VAL792 
 PHE793  MET794  SER795  GLU796  ALA797  LYS798  CYS799  TRP800  GLU811  SER814 

> <Gold.Protein.RotatedAtoms>
  152.5360  134.0196  159.7975 H   0  0  0  0  0  0  0  0  0  0  0  0  # atno 6907 bound_to 6896
  151.0384  133.5720  159.2660 H   0  0  0  0  0  0  0  0  0  0  0  0  # atno 6908 bound_to 6896
  151.2698  135.0688  159.9183 H   0  0  0  0  0  0  0  0  0  0  0  0  # atno 6909 bound_to 6896
  145.0271  140.8037  143.4346 H   0  0  0  0  0  0  0  0  0  0  0  0  # atno 7974 bound_to 7965
  156.0146  140.1248  157.0419 H   0  0  0  0  0  0  0  0  0  0  0  0  # atno 8008 bound_to 7997
  154.4288  140.1081  156.5947 H   0  0  0  0  0  0  0  0  0  0  0  0  # atno 8009 bound_to 7997
  155.6031  140.3470  155.4602 H   0  0  0  0  0  0  0  0  0  0  0  0  # atno 8010 bound_to 7997
  140.6101  143.8425  150.7056 H   0  0  0  0  0  0  0  0  0  0  0  0  # atno 10167 bound_to 10162
  156.8459  130.5537  149.5673 H   0  0  0  0  0  0  0  0  0  0  0  0  # atno 10718 bound_to 10713
  153.3917  135.3880  155.1928 H   0  0  0  0  0  0  0  0  0  0  0  0  # atno 10763 bound_to 10752
  154.8720  135.3750  154.4729 H   0  0  0  0  0  0  0  0  0  0  0  0  # atno 10764 bound_to 10752
  153.5216  135.7086  153.5790 H   0  0  0  0  0  0  0  0  0  0  0  0  # atno 10765 bound_to 10752
  140.0920  134.9035  157.1665 H   0  0  0  0  0  0  0  0  0  0  0  0  # atno 11005 bound_to 11000
  145.1819  139.2347  143.5288 LP  0  0  0  0  0  0  0  0  0  0  0  0  # atno 17320 bound_to 7965
  146.3493  140.1595  142.8591 LP  0  0  0  0  0  0  0  0  0  0  0  0  # atno 17321 bound_to 7965
  140.1992  143.3973  152.1805 LP  0  0  0  0  0  0  0  0  0  0  0  0  # atno 17342 bound_to 10162
  139.5355  144.7204  151.4909 LP  0  0  0  0  0  0  0  0  0  0  0  0  # atno 17343 bound_to 10162
  156.0855  130.5854  150.9640 LP  0  0  0  0  0  0  0  0  0  0  0  0  # atno 17370 bound_to 10713
  157.6330  131.0919  150.8403 LP  0  0  0  0  0  0  0  0  0  0  0  0  # atno 17371 bound_to 10713
  140.3339  134.2779  155.7223 LP  0  0  0  0  0  0  0  0  0  0  0  0  # atno 17394 bound_to 11000
  141.2081  133.7788  157.0081 LP  0  0  0  0  0  0  0  0  0  0  0  0  # atno 17395 bound_to 11000

$$$$
