AV-unprocessed.smi:1197|AV-procd|sdf|5009|dock2
  -GOLD-   22720 4 23D 1   1.00000     0.00000
 Structure written by MMmdl.
 41 42  0  0  0  0  0  0  0  0  2 V2000
  151.7833  141.2378  158.0811 C   0  0  0  0  0  0  0  0  0  0  0  0
  151.6665  141.1387  156.6660 O   0  0  0  0  0  0  0  0  0  0  0  0
  151.2568  139.9374  156.1250 C   0  0  0  0  0  0  0  0  0  0  0  0
  151.2932  138.7856  156.9359 C   0  0  0  0  0  0  0  0  0  0  0  0
  150.8775  137.5555  156.3915 C   0  0  0  0  0  0  0  0  0  0  0  0
  150.4440  137.5151  155.0449 C   0  0  0  0  0  0  0  0  0  0  0  0
  149.9811  136.3415  154.3910 N   0  0  0  0  0  0  0  0  0  0  0  0
  149.9646  135.0810  154.8568 C   0  0  0  0  0  0  0  0  0  0  0  0
  150.4014  134.7230  155.9504 O   0  0  0  0  0  0  0  0  0  0  0  0
  149.4247  134.2406  153.9623 N   0  0  0  0  0  0  0  0  0  0  0  0
  149.2684  132.8008  154.1408 C   0  0  0  0  0  0  0  0  0  0  0  0
  147.9427  132.3226  153.5261 C   0  0  0  0  0  0  0  0  0  0  0  0
  148.0237  130.9243  153.0338 N   0  3  0  0  0  0  0  0  0  0  0  0
  148.8056  130.0469  153.9375 C   0  0  0  0  0  0  0  0  0  0  0  0
  148.9046  128.6258  153.3566 C   0  0  0  0  0  0  0  0  0  0  0  0
  147.5992  128.1073  153.1357 O   0  0  0  0  0  0  0  0  0  0  0  0
  146.8654  128.8914  152.2035 C   0  0  0  0  0  0  0  0  0  0  0  0
  146.6986  130.3198  152.7485 C   0  0  0  0  0  0  0  0  0  0  0  0
  150.4307  138.7266  154.3231 C   0  0  0  0  0  0  0  0  0  0  0  0
  150.8294  139.9086  154.8383 N   0  0  0  0  0  0  0  0  0  0  0  0
  152.1244  142.2386  158.3452 H   0  0  0  0  0  0  0  0  0  0  0  0
  152.5117  140.5265  158.4729 H   0  0  0  0  0  0  0  0  0  0  0  0
  150.8230  141.0754  158.5725 H   0  0  0  0  0  0  0  0  0  0  0  0
  151.6292  138.8451  157.9605 H   0  0  0  0  0  0  0  0  0  0  0  0
  150.8849  136.6772  157.0182 H   0  0  0  0  0  0  0  0  0  0  0  0
  149.6748  136.4701  153.4376 H   0  0  0  0  0  0  0  0  0  0  0  0
  149.0939  134.6286  153.0909 H   0  0  0  0  0  0  0  0  0  0  0  0
  150.1077  132.2622  153.7008 H   0  0  0  0  0  0  0  0  0  0  0  0
  149.2852  132.5847  155.2094 H   0  0  0  0  0  0  0  0  0  0  0  0
  147.1706  132.3877  154.2944 H   0  0  0  0  0  0  0  0  0  0  0  0
  147.6275  132.9828  152.7163 H   0  0  0  0  0  0  0  0  0  0  0  0
  149.8076  130.4547  154.0754 H   0  0  0  0  0  0  0  0  0  0  0  0
  148.3323  130.0177  154.9202 H   0  0  0  0  0  0  0  0  0  0  0  0
  149.4732  128.6233  152.4252 H   0  0  0  0  0  0  0  0  0  0  0  0
  149.4309  127.9716  154.0521 H   0  0  0  0  0  0  0  0  0  0  0  0
  147.3712  128.8997  151.2366 H   0  0  0  0  0  0  0  0  0  0  0  0
  145.8887  128.4328  152.0476 H   0  0  0  0  0  0  0  0  0  0  0  0
  146.1002  130.3001  153.6608 H   0  0  0  0  0  0  0  0  0  0  0  0
  146.1511  130.9192  152.0221 H   0  0  0  0  0  0  0  0  0  0  0  0
  150.0935  138.7492  153.2971 H   0  0  0  0  0  0  0  0  0  0  0  0
  148.5315  130.9534  152.1610 H   0  0  0  0  0  0  0  0  0  0  0  0
  1  2  1  0  0  0  0
  1 21  1  0  0  0  0
  1 22  1  0  0  0  0
  1 23  1  0  0  0  0
  2  3  1  0  0  0  0
  3 20  1  0  0  0  0
  3  4  2  0  0  0  0
  4  5  1  0  0  0  0
  4 24  1  0  0  0  0
  5  6  2  0  0  0  0
  5 25  1  0  0  0  0
  6  7  1  0  0  0  0
  6 19  1  0  0  0  0
  7  8  1  0  0  0  0
  7 26  1  0  0  0  0
  8  9  2  0  0  0  0
  8 10  1  0  0  0  0
 10 11  1  0  0  0  0
 10 27  1  0  0  0  0
 11 12  1  0  0  0  0
 11 28  1  0  0  0  0
 11 29  1  0  0  0  0
 12 13  1  0  0  0  0
 12 30  1  0  0  0  0
 12 31  1  0  0  0  0
 13 18  1  0  0  0  0
 13 14  1  0  0  0  0
 13 41  1  0  0  0  0
 14 15  1  0  0  0  0
 14 32  1  0  0  0  0
 14 33  1  0  0  0  0
 15 16  1  0  0  0  0
 15 34  1  0  0  0  0
 15 35  1  0  0  0  0
 16 17  1  0  0  0  0
 17 18  1  0  0  0  0
 17 36  1  0  0  0  0
 17 37  1  0  0  0  0
 18 38  1  0  0  0  0
 18 39  1  0  0  0  0
 19 20  2  0  0  0  0
 19 40  1  0  0  0  0
M  CHG  1  13   1
M  END
> <s_m_source_file>
AV-unprocessed.smi

> <i_m_source_file_index>
1197

> <i_lp_mmshare_version>
43012

> <i_f3d_flags>
0

> <s_epik_input>
W0NIM11PYzFbY0hdW2NIXWMoW2NIXW4xKVtOSF1DKD1PKVtOSF1bQ0gyXVtDSDJdTjJbQ0gyXVtDSDJdT1tDSDJdW0NIMl0y

> <s_epik_cmdline>
J2VwaWtfcHl0aG9uJywgJy1waCcsICc3LjAnLCAnLXRuJywgJzgnLCAnLW1hJywgJzIwMCcsICctbWV0YWxfYmluZGluZycsICctaW1hZScsICc8aW5maWxlLm1hZT4nLCAnLW9tYWUnLCAnPG91dGZpbGUubWFlPic=

> <r_lp_tautomer_probability>
1

> <r_epik_Ionization_Penalty>
0.602607

> <r_epik_Ionization_Penalty_Charging>
0.602531

> <r_epik_Ionization_Penalty_Neutral>
7.65795e-05

> <r_epik_State_Penalty>
0.617039

> <r_epik_Charging_Adjusted_Penalty>
1.21957

> <i_epik_Tot_Q>
1

> <i_epik_Tot_abs_Q>
1

> <r_epik_Metal_State_Penalty>
0.617043

> <b_epik_Metal_Only>
0

> <s_lp_Force_Field>
OPLS_2005

> <r_lp_Energy>
19.492

> <b_lp_Chiralities_Consistent>
1

> <s_lp_Variant>
AV-unprocessed.smi:1197-2

> <Gold.Version>
5.8.1

> <Gold.Id.Protein>
6NUR|6NUR_protein|mol2

> <Gold.PLP.Fitness>
42.8526

> <Gold.PLP.PLP>
-30.8278

> <Gold.PLP.part.hbond>
-4.6937

> <Gold.PLP.part.metal>
0.0000

> <Gold.PLP.part.buried>
-2.7309

> <Gold.PLP.part.nonpolar>
-23.6206

> <Gold.PLP.part.repulsive>
0.2849

> <Gold.PLP.ligand.clash>
0.0000

> <Gold.PLP.ligand.torsion>
0.7043

> <Gold.PLP.Chemscore.Hbond>
3.4464

> <Gold.PLP.Chemscore.CHOScore>
1.0000

> <Gold.PLP.Chemscore.Metal>
0.0000

> <Gold.Chemscore.Hbonds>
donor molecule, donor type, donor heavy atom, donor atom, acceptor molecule, acceptor atom, score
      L1  H     7    26       P1  7948  1.00
      L1  H    10    27       P1  7948  0.49
      L1  H    13    41       P1 10747  1.00
      P1  H  7989  7998       L1    20  1.00
      L1  C    19    40       P1  7957  1.00

> <Gold.PLP.Chemscore.Internal.Correction>
0.0942

> <Gold.Rescore>
     Score         DG    S(hbond)    S(metal)    S(lipo)     H(rot)  DE(clash)    DE(int)     intcor
     14.44     -16.20       2.39        0.00      63.45       1.83       0.02       1.74       ----

> <Gold.Chemscore.Fitness>
14.4435

> <Gold.Chemscore.DG>
-16.2019

> <Gold.Chemscore.ZeroCoef>
-5.4800

> <Gold.Chemscore.Hbond>
2.3870

> <Gold.Chemscore.Metal>
0.0000

> <Gold.Chemscore.Lipo>
63.4510

> <Gold.Chemscore.Internal_Hbond>
0.0000

> <Gold.Chemscore.DEClash>
0.0174

> <Gold.Chemscore.DEInternal>
1.7410

> <Gold.Chemscore.Rot>
1.8260

> <Gold.Chemscore.Internal.Correction>
   9.000000E+99

> <Gold.Chemscore.Hbonds>
donor molecule, donor type, donor heavy atom, donor atom, acceptor molecule, acceptor atom, score
      L1  H     7    26       P1  7948  0.40
      L1  H    10    27       P1  7948  0.02
      L1  H    13    41       P1 10747  0.94
      P1  H  7989  7998       L1    20  0.65

> <Gold.Chemscore.Hbond.Weighted>
-7.9726

> <Gold.Chemscore.Metal.Weighted>
-0.0000

> <Gold.Chemscore.Lipo.Weighted>
-7.4238

> <Gold.Chemscore.Internal_Hbond.Weighted>
0.0000

> <Gold.Chemscore.DEClash.Weighted>
0.0174

> <Gold.Chemscore.DEInternal.Weighted>
1.7410

> <Gold.Chemscore.Rot.Weighted>
4.6744

> <Gold.Chemscore.Internal.Correction.Weighted>
   9.000000E+99

> <Gold.Protein.RotatedTorsions>
[ 6907 6896 6895 6894 ] final  -12.17 input  -60.11 | X-H torsion
[ 7974 7965 7964 7962 ] final  161.60 input  175.53 | X-H torsion
[ 8008 7997 7996 7995 ] final   63.48 input   59.86 | X-H torsion
[ 10167 10162 10161 10158 ] final   76.83 input  -65.29 | X-H torsion
[ 10718 10713 10712 10709 ] final   17.99 input   66.30 | X-H torsion
[ 10763 10752 10751 10750 ] final -121.18 input  -60.55 | X-H torsion
[ 11005 11000 10999 10996 ] final   87.93 input  -57.11 | X-H torsion

> <Gold.Protein.ActiveResidues>
 VAL166  LYS551  ARG553  GLY616  TRP617  ASP618  TYR619  PRO620  LYS621  CYS622 
 ASP623  PHE694  ASN695  SER759  ASP760  ASP761  ALA762  ILE779  LEU786  VAL792 
 PHE793  MET794  SER795  GLU796  ALA797  LYS798  CYS799  TRP800  GLU811  SER814 

> <Gold.Protein.RotatedAtoms>
  151.3748  135.0929  159.9476 H   0  0  0  0  0  0  0  0  0  0  0  0  # atno 6907 bound_to 6896
  152.5125  133.9130  159.7507 H   0  0  0  0  0  0  0  0  0  0  0  0  # atno 6908 bound_to 6896
  150.9551  133.6451  159.2793 H   0  0  0  0  0  0  0  0  0  0  0  0  # atno 6909 bound_to 6896
  144.7678  139.7921  143.6308 H   0  0  0  0  0  0  0  0  0  0  0  0  # atno 7974 bound_to 7965
  155.6309  140.3496  155.4682 H   0  0  0  0  0  0  0  0  0  0  0  0  # atno 8008 bound_to 7997
  156.0004  140.1212  157.0576 H   0  0  0  0  0  0  0  0  0  0  0  0  # atno 8009 bound_to 7997
  154.4247  140.1101  156.5675 H   0  0  0  0  0  0  0  0  0  0  0  0  # atno 8010 bound_to 7997
  139.9880  144.5778  150.7842 H   0  0  0  0  0  0  0  0  0  0  0  0  # atno 10167 bound_to 10162
  157.0900  130.6424  149.5846 H   0  0  0  0  0  0  0  0  0  0  0  0  # atno 10718 bound_to 10713
  154.8662  135.4177  154.2578 H   0  0  0  0  0  0  0  0  0  0  0  0  # atno 10763 bound_to 10752
  153.3512  135.6999  153.6793 H   0  0  0  0  0  0  0  0  0  0  0  0  # atno 10764 bound_to 10752
  153.5732  135.3587  155.2818 H   0  0  0  0  0  0  0  0  0  0  0  0  # atno 10765 bound_to 10752
  139.8908  134.8454  156.2929 H   0  0  0  0  0  0  0  0  0  0  0  0  # atno 11005 bound_to 11000
  146.1800  139.4987  142.9873 LP  0  0  0  0  0  0  0  0  0  0  0  0  # atno 17320 bound_to 7965
  145.6417  141.0283  143.1808 LP  0  0  0  0  0  0  0  0  0  0  0  0  # atno 17321 bound_to 7965
  140.7465  143.2892  151.3379 LP  0  0  0  0  0  0  0  0  0  0  0  0  # atno 17342 bound_to 10162
  139.6360  144.0629  152.2516 LP  0  0  0  0  0  0  0  0  0  0  0  0  # atno 17343 bound_to 10162
  155.9900  130.4950  150.7240 LP  0  0  0  0  0  0  0  0  0  0  0  0  # atno 17370 bound_to 10713
  157.4729  131.0895  151.0622 LP  0  0  0  0  0  0  0  0  0  0  0  0  # atno 17371 bound_to 10713
  140.9964  133.7177  156.0893 LP  0  0  0  0  0  0  0  0  0  0  0  0  # atno 17394 bound_to 11000
  140.7556  134.3996  157.5534 LP  0  0  0  0  0  0  0  0  0  0  0  0  # atno 17395 bound_to 11000

$$$$
