AV-unprocessed.smi:2221|AV-procd|sdf|8984|dock8
  -GOLD-   2272012193D 1   1.00000     0.00000
 Structure written by MMmdl.
 53 54  0  0  0  0  0  0  0  0  2 V2000
  151.7208  145.8247  160.1750 C   0  0  0  0  0  0  0  0  0  0  0  0
  151.7738  144.4631  159.5148 C   0  0  0  0  0  0  0  0  0  0  0  0
  152.6845  143.4842  159.9557 C   0  0  0  0  0  0  0  0  0  0  0  0
  152.6844  142.2348  159.3052 C   0  0  0  0  0  0  0  0  0  0  0  0
  153.6377  141.1377  159.7295 C   0  0  0  0  0  0  0  0  0  0  0  0
  151.8500  141.9346  158.2868 N   0  0  0  0  0  0  0  0  0  0  0  0
  150.9688  142.8698  157.8537 C   0  0  0  0  0  0  0  0  0  0  0  0
  150.0513  142.6538  156.7914 N   0  0  0  0  0  0  0  0  0  0  0  0
  149.9904  141.6077  155.9489 C   0  0  0  0  0  0  0  0  0  0  0  0
  150.7577  140.6451  155.9488 O   0  0  0  0  0  0  0  0  0  0  0  0
  148.9606  141.7269  155.0984 N   0  0  0  0  0  0  0  0  0  0  0  0
  148.6016  140.7513  154.0709 C   0  0  0  0  0  0  0  0  0  0  0  0
  147.3596  141.1585  153.2465 C   0  0  0  0  0  0  0  0  0  0  0  0
  146.1439  141.3572  154.0766 N   0  3  2  0  0  0  0  0  0  0  0  0
  145.9410  142.7772  154.4572 C   0  0  0  0  0  0  0  0  0  0  0  0
  144.6056  142.9683  155.1987 C   0  0  0  0  0  0  0  0  0  0  0  0
  144.5052  142.0732  156.4581 C   0  0  2  0  0  0  0  0  0  0  0  0
  145.3991  142.5134  157.5480 N   0  0  0  0  0  0  0  0  0  0  0  0
  145.0285  143.8336  158.0544 C   0  0  0  0  0  0  0  0  0  0  0  0
  145.3665  141.6073  158.6939 C   0  0  0  0  0  0  0  0  0  0  0  0
  144.7527  140.6126  156.0072 C   0  0  0  0  0  0  0  0  0  0  0  0
  146.0859  140.4561  155.2557 C   0  0  0  0  0  0  0  0  0  0  0  0
  150.9058  144.1495  158.4494 C   0  0  0  0  0  0  0  0  0  0  0  0
  152.6501  146.0410  160.7027 H   0  0  0  0  0  0  0  0  0  0  0  0
  150.9012  145.8622  160.8929 H   0  0  0  0  0  0  0  0  0  0  0  0
  151.5640  146.6066  159.4314 H   0  0  0  0  0  0  0  0  0  0  0  0
  153.3645  143.6851  160.7708 H   0  0  0  0  0  0  0  0  0  0  0  0
  154.4564  141.5389  160.3278 H   0  0  0  0  0  0  0  0  0  0  0  0
  154.0675  140.6422  158.8582 H   0  0  0  0  0  0  0  0  0  0  0  0
  153.1116  140.3914  160.3251 H   0  0  0  0  0  0  0  0  0  0  0  0
  149.3513  143.3709  156.6717 H   0  0  0  0  0  0  0  0  0  0  0  0
  148.3868  142.5558  155.1598 H   0  0  0  0  0  0  0  0  0  0  0  0
  149.4624  140.6366  153.4123 H   0  0  0  0  0  0  0  0  0  0  0  0
  148.4434  139.7741  154.5296 H   0  0  0  0  0  0  0  0  0  0  0  0
  147.5658  142.0548  152.6599 H   0  0  0  0  0  0  0  0  0  0  0  0
  147.1627  140.3662  152.5232 H   0  0  0  0  0  0  0  0  0  0  0  0
  146.7726  143.1152  155.0776 H   0  0  0  0  0  0  0  0  0  0  0  0
  145.9409  143.3986  153.5609 H   0  0  0  0  0  0  0  0  0  0  0  0
  144.4368  144.0211  155.4163 H   0  0  0  0  0  0  0  0  0  0  0  0
  143.7962  142.6972  154.5192 H   0  0  0  0  0  0  0  0  0  0  0  0
  143.4840  142.1355  156.8379 H   0  0  0  0  0  0  0  0  0  0  0  0
  145.6412  144.1047  158.9153 H   0  0  0  0  0  0  0  0  0  0  0  0
  143.9827  143.8609  158.3641 H   0  0  0  0  0  0  0  0  0  0  0  0
  145.1917  144.6138  157.3132 H   0  0  0  0  0  0  0  0  0  0  0  0
  145.9524  142.0079  159.5223 H   0  0  0  0  0  0  0  0  0  0  0  0
  145.8080  140.6413  158.4542 H   0  0  0  0  0  0  0  0  0  0  0  0
  144.3466  141.4487  159.0471 H   0  0  0  0  0  0  0  0  0  0  0  0
  144.6885  139.9025  156.8299 H   0  0  0  0  0  0  0  0  0  0  0  0
  143.9461  140.3204  155.3334 H   0  0  0  0  0  0  0  0  0  0  0  0
  146.1897  139.4192  154.9370 H   0  0  0  0  0  0  0  0  0  0  0  0
  146.9238  140.6669  155.9222 H   0  0  0  0  0  0  0  0  0  0  0  0
  150.1981  144.8859  158.0963 H   0  0  0  0  0  0  0  0  0  0  0  0
  145.3614  141.1157  153.4855 H   0  0  0  0  0  0  0  0  0  0  0  0
  1  2  1  0  0  0  0
  1 24  1  0  0  0  0
  1 25  1  0  0  0  0
  1 26  1  0  0  0  0
  2 23  1  0  0  0  0
  2  3  2  0  0  0  0
  3  4  1  0  0  0  0
  3 27  1  0  0  0  0
  4  5  1  0  0  0  0
  4  6  2  0  0  0  0
  5 28  1  0  0  0  0
  5 29  1  0  0  0  0
  5 30  1  0  0  0  0
  6  7  1  0  0  0  0
  7  8  1  0  0  0  0
  7 23  2  0  0  0  0
  8  9  1  0  0  0  0
  8 31  1  0  0  0  0
  9 10  2  0  0  0  0
  9 11  1  0  0  0  0
 11 12  1  0  0  0  0
 11 32  1  0  0  0  0
 12 13  1  0  0  0  0
 12 33  1  0  0  0  0
 12 34  1  0  0  0  0
 13 14  1  0  0  0  0
 13 35  1  0  0  0  0
 13 36  1  0  0  0  0
 14 22  1  0  0  0  0
 14 15  1  0  0  0  0
 14 53  1  0  0  0  0
 15 16  1  0  0  0  0
 15 37  1  0  0  0  0
 15 38  1  0  0  0  0
 16 17  1  0  0  0  0
 16 39  1  0  0  0  0
 16 40  1  0  0  0  0
 17 18  1  0  0  0  0
 17 21  1  0  0  0  0
 17 41  1  0  0  0  0
 18 19  1  0  0  0  0
 18 20  1  0  0  0  0
 19 42  1  0  0  0  0
 19 43  1  0  0  0  0
 19 44  1  0  0  0  0
 20 45  1  0  0  0  0
 20 46  1  0  0  0  0
 20 47  1  0  0  0  0
 21 22  1  0  0  0  0
 21 48  1  0  0  0  0
 21 49  1  0  0  0  0
 22 50  1  0  0  0  0
 22 51  1  0  0  0  0
 23 52  1  0  0  0  0
M  CHG  1  14   1
M  END
> <s_m_source_file>
AV-unprocessed.smi

> <i_m_source_file_index>
2221

> <i_lp_mmshare_version>
43012

> <i_f3d_flags>
0

> <s_epik_input>
W0NIM11jMVtjSF1jKFtDSDNdKW5jKFtjSF0xKVtOSF1DKD1PKVtOSF1bQ0gyXVtDSDJdTjJbQ0gyXVtDSDJdW0NIXShOKFtDSDNdKVtDSDNdKVtDSDJdW0NIMl0y

> <s_epik_cmdline>
J2VwaWtfcHl0aG9uJywgJy1waCcsICc3LjAnLCAnLXRuJywgJzgnLCAnLW1hJywgJzIwMCcsICctbWV0YWxfYmluZGluZycsICctaW1hZScsICc8aW5maWxlLm1hZT4nLCAnLW9tYWUnLCAnPG91dGZpbGUubWFlPic=

> <r_epik_Ionization_Penalty>
1.32168

> <r_epik_Ionization_Penalty_Charging>
0.00219175

> <r_epik_Ionization_Penalty_Neutral>
1.31949

> <r_epik_State_Penalty>
1.51166

> <r_epik_Charging_Adjusted_Penalty>
1.51385

> <i_epik_Tot_Q>
1

> <i_epik_Tot_abs_Q>
1

> <r_epik_Metal_State_Penalty>
1.51167

> <b_epik_Metal_Only>
0

> <s_lp_Force_Field>
OPLS_2005

> <r_lp_Energy>
32.286

> <b_lp_Chiralities_Consistent>
1

> <s_lp_Variant>
AV-unprocessed.smi:2221-5

> <Gold.Version>
5.8.1

> <Gold.Id.Protein>
6NUR|6NUR_protein|mol2

> <Gold.PLP.Fitness>
53.7128

> <Gold.PLP.PLP>
-45.0003

> <Gold.PLP.part.hbond>
-2.8403

> <Gold.PLP.part.metal>
0.0000

> <Gold.PLP.part.buried>
-5.7539

> <Gold.PLP.part.nonpolar>
-37.0054

> <Gold.PLP.part.repulsive>
0.3705

> <Gold.PLP.ligand.clash>
0.0000

> <Gold.PLP.ligand.torsion>
0.4409

> <Gold.PLP.Chemscore.Hbond>
3.1879

> <Gold.PLP.Chemscore.CHOScore>
0.0000

> <Gold.PLP.Chemscore.Metal>
0.0000

> <Gold.Chemscore.Hbonds>
donor molecule, donor type, donor heavy atom, donor atom, acceptor molecule, acceptor atom, score
      L1  H     8    31       P1  8028  0.88
      L1  H    11    32       P1  8028  0.28
      L1  H    14    53       P1 10175  1.92

> <Gold.PLP.Chemscore.Internal.Correction>
0.0306

> <Gold.Rescore>
     Score         DG    S(hbond)    S(metal)    S(lipo)     H(rot)  DE(clash)    DE(int)     intcor
     17.74     -19.63       1.95        0.00     100.71       1.61       0.11       1.79       ----

> <Gold.Chemscore.Fitness>
17.7370

> <Gold.Chemscore.DG>
-19.6349

> <Gold.Chemscore.ZeroCoef>
-5.4800

> <Gold.Chemscore.Hbond>
1.9455

> <Gold.Chemscore.Metal>
0.0000

> <Gold.Chemscore.Lipo>
100.7109

> <Gold.Chemscore.Internal_Hbond>
0.0000

> <Gold.Chemscore.DEClash>
0.1074

> <Gold.Chemscore.DEInternal>
1.7905

> <Gold.Chemscore.Rot>
1.6119

> <Gold.Chemscore.Internal.Correction>
   9.000000E+99

> <Gold.Chemscore.Hbonds>
donor molecule, donor type, donor heavy atom, donor atom, acceptor molecule, acceptor atom, score
      L1  H     8    31       P1  8028  0.86
      L1  H    11    32       P1  8028  0.29
      L1  H    14    53       P1 10175  0.46

> <Gold.Chemscore.Hbond.Weighted>
-6.4981

> <Gold.Chemscore.Metal.Weighted>
-0.0000

> <Gold.Chemscore.Lipo.Weighted>
-11.7832

> <Gold.Chemscore.Internal_Hbond.Weighted>
0.0000

> <Gold.Chemscore.DEClash.Weighted>
0.1074

> <Gold.Chemscore.DEInternal.Weighted>
1.7905

> <Gold.Chemscore.Rot.Weighted>
4.1264

> <Gold.Chemscore.Internal.Correction.Weighted>
   9.000000E+99

> <Gold.Protein.RotatedTorsions>
[ 6907 6896 6895 6894 ] final  141.81 input  -60.11 | X-H torsion
[ 7974 7965 7964 7962 ] final   36.30 input  175.53 | X-H torsion
[ 8008 7997 7996 7995 ] final -158.05 input   59.86 | X-H torsion
[ 10167 10162 10161 10158 ] final  120.19 input  -65.29 | X-H torsion
[ 10718 10713 10712 10709 ] final -142.75 input   66.30 | X-H torsion
[ 10763 10752 10751 10750 ] final  -79.10 input  -60.55 | X-H torsion
[ 11005 11000 10999 10996 ] final -102.79 input  -57.11 | X-H torsion

> <Gold.Protein.ActiveResidues>
 VAL166  LYS551  ARG553  GLY616  TRP617  ASP618  TYR619  PRO620  LYS621  CYS622 
 ASP623  PHE694  ASN695  SER759  ASP760  ASP761  ALA762  ILE779  LEU786  VAL792 
 PHE793  MET794  SER795  GLU796  ALA797  LYS798  CYS799  TRP800  GLU811  SER814 

> <Gold.Protein.RotatedAtoms>
  152.2265  133.5024  159.5191 H   0  0  0  0  0  0  0  0  0  0  0  0  # atno 6907 bound_to 6896
  150.7026  134.1273  159.4066 H   0  0  0  0  0  0  0  0  0  0  0  0  # atno 6908 bound_to 6896
  151.9194  135.0304  160.0571 H   0  0  0  0  0  0  0  0  0  0  0  0  # atno 6909 bound_to 6896
  146.1221  139.6035  142.9282 H   0  0  0  0  0  0  0  0  0  0  0  0  # atno 7974 bound_to 7965
  155.7416  140.0815  157.2243 H   0  0  0  0  0  0  0  0  0  0  0  0  # atno 8008 bound_to 7997
  154.4021  140.1577  156.2678 H   0  0  0  0  0  0  0  0  0  0  0  0  # atno 8009 bound_to 7997
  155.9015  140.3409  155.6032 H   0  0  0  0  0  0  0  0  0  0  0  0  # atno 8010 bound_to 7997
  139.5998  144.7053  151.3090 H   0  0  0  0  0  0  0  0  0  0  0  0  # atno 10167 bound_to 10162
  156.3497  130.7681  151.1832 H   0  0  0  0  0  0  0  0  0  0  0  0  # atno 10718 bound_to 10713
  154.5343  135.5707  153.6785 H   0  0  0  0  0  0  0  0  0  0  0  0  # atno 10763 bound_to 10752
  152.9947  135.6212  154.2587 H   0  0  0  0  0  0  0  0  0  0  0  0  # atno 10764 bound_to 10752
  154.2515  135.2859  155.2794 H   0  0  0  0  0  0  0  0  0  0  0  0  # atno 10765 bound_to 10752
  141.1174  133.8587  157.1405 H   0  0  0  0  0  0  0  0  0  0  0  0  # atno 11005 bound_to 11000
  145.5443  141.0418  143.2313 LP  0  0  0  0  0  0  0  0  0  0  0  0  # atno 17320 bound_to 7965
  144.7607  139.6963  143.7235 LP  0  0  0  0  0  0  0  0  0  0  0  0  # atno 17321 bound_to 7965
  140.7240  143.7055  150.7811 LP  0  0  0  0  0  0  0  0  0  0  0  0  # atno 17342 bound_to 10162
  140.0629  143.5137  152.2619 LP  0  0  0  0  0  0  0  0  0  0  0  0  # atno 17343 bound_to 10162
  157.7459  131.0431  150.4727 LP  0  0  0  0  0  0  0  0  0  0  0  0  # atno 17370 bound_to 10713
  156.4920  130.4097  149.6401 LP  0  0  0  0  0  0  0  0  0  0  0  0  # atno 17371 bound_to 10713
  140.0105  134.9990  157.0386 LP  0  0  0  0  0  0  0  0  0  0  0  0  # atno 17394 bound_to 11000
  140.4607  134.1487  155.7191 LP  0  0  0  0  0  0  0  0  0  0  0  0  # atno 17395 bound_to 11000

$$$$
