AV-unprocessed.smi:2091|AV-procd|sdf|8540|dock5
  -GOLD-   2272011263D 1   1.00000     0.00000
 Structure written by MMmdl.
 35 36  0  0  0  0  0  0  0  0  2 V2000
  150.8877  140.4131  154.9007 O   0  0  0  0  0  0  0  0  0  0  0  0
  151.1959  139.5664  155.7407 C   0  0  0  0  0  0  0  0  0  0  0  0
  151.0036  138.0711  155.4547 C   0  0  0  0  0  0  0  0  0  0  0  0
  150.4520  137.3319  156.6016 N   0  0  0  0  0  0  0  0  0  0  0  0
  149.3234  137.8699  157.2450 C   0  0  0  0  0  0  0  0  0  0  0  0
  148.7526  137.2635  158.3035 C   0  0  0  0  0  0  0  0  0  0  0  0
  149.3350  136.0154  158.7812 C   0  0  0  0  0  0  0  0  0  0  0  0
  148.8305  135.4512  159.7502 O   0  0  0  0  0  0  0  0  0  0  0  0
  150.4262  135.5302  158.1194 N   0  5  0  0  0  0  0  0  0  0  0  0
  150.9944  136.1566  157.0423 C   0  0  0  0  0  0  0  0  0  0  0  0
  151.9781  135.7003  156.4577 O   0  0  0  0  0  0  0  0  0  0  0  0
  151.6835  139.8767  156.9526 N   0  0  0  0  0  0  0  0  0  0  0  0
  151.9282  141.2330  157.4484 C   0  0  2  0  0  0  0  0  0  0  0  0
  152.2494  141.1280  158.9571 C   0  0  0  0  0  0  0  0  0  0  0  0
  153.0387  142.3284  159.5085 C   0  0  0  0  0  0  0  0  0  0  0  0
  152.2896  143.6696  159.4762 C   0  0  0  0  0  0  0  0  0  0  0  0
  151.9219  144.1401  158.0585 C   0  0  0  0  0  0  0  0  0  0  0  0
  150.7632  143.4322  157.5304 N   0  0  0  0  0  0  0  0  0  0  0  0
  150.6765  142.1215  157.2570 C   0  0  0  0  0  0  0  0  0  0  0  0
  149.6142  141.6374  156.8660 O   0  0  0  0  0  0  0  0  0  0  0  0
  150.3610  137.9405  154.5818 H   0  0  0  0  0  0  0  0  0  0  0  0
  151.9694  137.6568  155.1631 H   0  0  0  0  0  0  0  0  0  0  0  0
  148.9505  138.7925  156.8250 H   0  0  0  0  0  0  0  0  0  0  0  0
  147.8843  137.6884  158.7849 H   0  0  0  0  0  0  0  0  0  0  0  0
  151.8969  139.1175  157.5827 H   0  0  0  0  0  0  0  0  0  0  0  0
  152.7780  141.6596  156.9126 H   0  0  0  0  0  0  0  0  0  0  0  0
  151.3406  140.9723  159.5415 H   0  0  0  0  0  0  0  0  0  0  0  0
  152.8605  140.2404  159.1284 H   0  0  0  0  0  0  0  0  0  0  0  0
  153.3181  142.1143  160.5406 H   0  0  0  0  0  0  0  0  0  0  0  0
  153.9779  142.4248  158.9623 H   0  0  0  0  0  0  0  0  0  0  0  0
  151.3956  143.6176  160.0993 H   0  0  0  0  0  0  0  0  0  0  0  0
  152.9294  144.4246  159.9343 H   0  0  0  0  0  0  0  0  0  0  0  0
  151.6641  145.1990  158.0881 H   0  0  0  0  0  0  0  0  0  0  0  0
  152.7702  144.0501  157.3782 H   0  0  0  0  0  0  0  0  0  0  0  0
  149.9313  143.9859  157.3853 H   0  0  0  0  0  0  0  0  0  0  0  0
  1  2  2  0  0  0  0
  2  3  1  0  0  0  0
  2 12  1  0  0  0  0
  3  4  1  0  0  0  0
  3 21  1  0  0  0  0
  3 22  1  0  0  0  0
  4 10  1  0  0  0  0
  4  5  1  0  0  0  0
  5  6  2  0  0  0  0
  5 23  1  0  0  0  0
  6  7  1  0  0  0  0
  6 24  1  0  0  0  0
  7  8  2  0  0  0  0
  7  9  1  0  0  0  0
  9 10  1  0  0  0  0
 10 11  2  0  0  0  0
 12 13  1  0  0  0  0
 12 25  1  0  0  0  0
 13 19  1  0  0  0  0
 13 14  1  0  0  0  0
 13 26  1  0  0  0  0
 14 15  1  0  0  0  0
 14 27  1  0  0  0  0
 14 28  1  0  0  0  0
 15 16  1  0  0  0  0
 15 29  1  0  0  0  0
 15 30  1  0  0  0  0
 16 17  1  0  0  0  0
 16 31  1  0  0  0  0
 16 32  1  0  0  0  0
 17 18  1  0  0  0  0
 17 33  1  0  0  0  0
 17 34  1  0  0  0  0
 18 19  1  0  0  0  0
 18 35  1  0  0  0  0
 19 20  2  0  0  0  0
M  CHG  1   9  -1
M  END
> <s_m_source_file>
AV-unprocessed.smi

> <i_m_source_file_index>
2091

> <i_lp_mmshare_version>
43012

> <i_f3d_flags>
0

> <s_epik_input>
Tz1jMVtuSF1jKD1PKVtjSF1bY0hdbjFbQ0gyXUMoPU8pW05IXVtDQEBIXTJbQ0gyXVtDSDJdW0NIMl1bQ0gyXVtOSF1DMj1P

> <s_epik_cmdline>
J2VwaWtfcHl0aG9uJywgJy1waCcsICc3LjAnLCAnLXRuJywgJzgnLCAnLW1hJywgJzIwMCcsICctbWV0YWxfYmluZGluZycsICctaW1hZScsICc8aW5maWxlLm1hZT4nLCAnLW9tYWUnLCAnPG91dGZpbGUubWFlPic=

> <r_lp_tautomer_probability>
0.999537

> <r_epik_Ionization_Penalty>
3.03155

> <r_epik_Ionization_Penalty_Charging>
2.38195e-08

> <r_epik_Ionization_Penalty_Neutral>
3.03155

> <r_epik_State_Penalty>
3.03052

> <r_epik_Charging_Adjusted_Penalty>
3.03052

> <i_epik_Tot_Q>
-1

> <i_epik_Tot_abs_Q>
1

> <r_epik_Metal_State_Penalty>
0.455936

> <b_epik_Metal_Only>
1

> <s_lp_Force_Field>
OPLS_2005

> <r_lp_Energy>
21.0708

> <b_lp_Chiralities_Consistent>
1

> <s_lp_Variant>
AV-unprocessed.smi:2091-3

> <Gold.Version>
5.8.1

> <Gold.Id.Protein>
6NUR|6NUR_protein|mol2

> <Gold.PLP.Fitness>
43.6781

> <Gold.PLP.PLP>
-30.6485

> <Gold.PLP.part.hbond>
-3.8085

> <Gold.PLP.part.metal>
0.0000

> <Gold.PLP.part.buried>
-5.5333

> <Gold.PLP.part.nonpolar>
-21.5775

> <Gold.PLP.part.repulsive>
0.2740

> <Gold.PLP.ligand.clash>
0.0000

> <Gold.PLP.ligand.torsion>
0.4562

> <Gold.PLP.Chemscore.Hbond>
4.6467

> <Gold.PLP.Chemscore.CHOScore>
0.0000

> <Gold.PLP.Chemscore.Metal>
0.0000

> <Gold.Chemscore.Hbonds>
donor molecule, donor type, donor heavy atom, donor atom, acceptor molecule, acceptor atom, score
      L1  H    18    35       P1  8028  0.55
      P1  H  6896  6907       L1     9  0.34
      P1  H  7989  7998       L1     1  1.00
      P1  H 10752 10765       L1    11  1.00

> <Gold.PLP.Chemscore.Internal.Correction>
0.0018

> <Gold.Rescore>
     Score         DG    S(hbond)    S(metal)    S(lipo)     H(rot)  DE(clash)    DE(int)     intcor
     15.54     -16.92       2.73        0.00      60.42       1.85       0.30       1.08       ----

> <Gold.Chemscore.Fitness>
15.5353

> <Gold.Chemscore.DG>
-16.9158

> <Gold.Chemscore.ZeroCoef>
-5.4800

> <Gold.Chemscore.Hbond>
2.7266

> <Gold.Chemscore.Metal>
0.0000

> <Gold.Chemscore.Lipo>
60.4243

> <Gold.Chemscore.Internal_Hbond>
0.0000

> <Gold.Chemscore.DEClash>
0.2967

> <Gold.Chemscore.DEInternal>
1.0838

> <Gold.Chemscore.Rot>
1.8519

> <Gold.Chemscore.Internal.Correction>
   9.000000E+99

> <Gold.Chemscore.Hbonds>
donor molecule, donor type, donor heavy atom, donor atom, acceptor molecule, acceptor atom, score
      L1  H    18    35       P1  8028  0.39
      P1  H  7989  7998       L1     1  0.98
      P1  H 10752 10765       L1    11  1.00

> <Gold.Chemscore.Hbond.Weighted>
-9.1070

> <Gold.Chemscore.Metal.Weighted>
-0.0000

> <Gold.Chemscore.Lipo.Weighted>
-7.0696

> <Gold.Chemscore.Internal_Hbond.Weighted>
0.0000

> <Gold.Chemscore.DEClash.Weighted>
0.2967

> <Gold.Chemscore.DEInternal.Weighted>
1.0838

> <Gold.Chemscore.Rot.Weighted>
4.7408

> <Gold.Chemscore.Internal.Correction.Weighted>
   9.000000E+99

> <Gold.Protein.RotatedTorsions>
[ 6907 6896 6895 6894 ] final  -61.00 input  -60.11 | X-H torsion
[ 7974 7965 7964 7962 ] final  -93.19 input  175.53 | X-H torsion
[ 8008 7997 7996 7995 ] final   59.53 input   59.86 | X-H torsion
[ 10167 10162 10161 10158 ] final  154.92 input  -65.29 | X-H torsion
[ 10718 10713 10712 10709 ] final  -27.26 input   66.30 | X-H torsion
[ 10763 10752 10751 10750 ] final -147.05 input  -60.55 | X-H torsion
[ 11005 11000 10999 10996 ] final   11.08 input  -57.11 | X-H torsion

> <Gold.Protein.ActiveResidues>
 VAL166  LYS551  ARG553  GLY616  TRP617  ASP618  TYR619  PRO620  LYS621  CYS622 
 ASP623  PHE694  ASN695  SER759  ASP760  ASP761  ALA762  ILE779  LEU786  VAL792 
 PHE793  MET794  SER795  GLU796  ALA797  LYS798  CYS799  TRP800  GLU811  SER814 

> <Gold.Protein.RotatedAtoms>
  150.7816  134.6763  159.6418 H   0  0  0  0  0  0  0  0  0  0  0  0  # atno 6907 bound_to 6896
  152.3901  134.6451  160.0119 H   0  0  0  0  0  0  0  0  0  0  0  0  # atno 6908 bound_to 6896
  151.6754  133.3276  159.3243 H   0  0  0  0  0  0  0  0  0  0  0  0  # atno 6909 bound_to 6896
  145.3898  140.9527  143.2347 H   0  0  0  0  0  0  0  0  0  0  0  0  # atno 7974 bound_to 7965
  155.5677  140.3489  155.4507 H   0  0  0  0  0  0  0  0  0  0  0  0  # atno 8008 bound_to 7997
  156.0467  140.1308  157.0121 H   0  0  0  0  0  0  0  0  0  0  0  0  # atno 8009 bound_to 7997
  154.4416  140.1013  156.6302 H   0  0  0  0  0  0  0  0  0  0  0  0  # atno 8010 bound_to 7997
  139.4822  144.5144  151.7974 H   0  0  0  0  0  0  0  0  0  0  0  0  # atno 10167 bound_to 10162
  156.4405  130.4463  149.7056 H   0  0  0  0  0  0  0  0  0  0  0  0  # atno 10718 bound_to 10713
  154.8305  135.3370  154.6757 H   0  0  0  0  0  0  0  0  0  0  0  0  # atno 10763 bound_to 10752
  153.7378  135.6948  153.4978 H   0  0  0  0  0  0  0  0  0  0  0  0  # atno 10764 bound_to 10752
  153.2266  135.4431  155.0500 H   0  0  0  0  0  0  0  0  0  0  0  0  # atno 10765 bound_to 10752
  140.5072  134.0688  155.7808 H   0  0  0  0  0  0  0  0  0  0  0  0  # atno 11005 bound_to 11000
  144.8448  139.5414  143.6883 LP  0  0  0  0  0  0  0  0  0  0  0  0  # atno 17320 bound_to 7965
  146.2803  139.6859  142.9234 LP  0  0  0  0  0  0  0  0  0  0  0  0  # atno 17321 bound_to 7965
  140.4651  144.1667  150.5911 LP  0  0  0  0  0  0  0  0  0  0  0  0  # atno 17342 bound_to 10162
  140.4443  143.2513  151.9432 LP  0  0  0  0  0  0  0  0  0  0  0  0  # atno 17343 bound_to 10162
  156.3922  130.7633  151.2635 LP  0  0  0  0  0  0  0  0  0  0  0  0  # atno 17370 bound_to 10713
  157.7506  131.0264  150.3962 LP  0  0  0  0  0  0  0  0  0  0  0  0  # atno 17371 bound_to 10713
  141.1405  133.9147  157.2337 LP  0  0  0  0  0  0  0  0  0  0  0  0  # atno 17394 bound_to 11000
  139.9679  135.0136  156.9436 LP  0  0  0  0  0  0  0  0  0  0  0  0  # atno 17395 bound_to 11000

$$$$
