AV-unprocessed.smi:1606|AV-procd|sdf|6461|dock9
  -GOLD-   22720 7113D 1   1.00000     0.00000
 Structure written by MMmdl.
 35 36  0  0  0  0  0  0  0  0  1 V2000
  154.1058  139.2486  158.1336 O   0  0  0  0  0  0  0  0  0  0  0  0
  152.9089  139.4874  158.2968 C   0  0  0  0  0  0  0  0  0  0  0  0
  152.4040  139.9578  159.4474 N   0  0  0  0  0  0  0  0  0  0  0  0
  153.1891  140.3043  160.6279 C   0  0  0  0  0  0  0  0  0  0  0  0
  153.9819  141.6175  160.4627 C   0  0  0  0  0  0  0  0  0  0  0  0
  153.1138  142.8228  160.1379 C   0  0  0  0  0  0  0  0  0  0  0  0
  152.5137  143.5720  161.1722 C   0  0  0  0  0  0  0  0  0  0  0  0
  151.7061  144.6718  160.8232 C   0  0  0  0  0  0  0  0  0  0  0  0
  151.5281  144.9775  159.4603 C   0  0  0  0  0  0  0  0  0  0  0  0
  152.1696  144.1673  158.5025 C   0  0  0  0  0  0  0  0  0  0  0  0
  152.9467  143.1119  158.8268 N   0  0  0  0  0  0  0  0  0  0  0  0
  151.9098  139.2676  157.1538 C   0  0  0  0  0  0  0  0  0  0  0  0
  152.5969  138.6949  155.9012 C   0  0  0  0  0  0  0  0  0  0  0  0
  151.5925  138.5778  154.7432 C   0  0  0  0  0  0  0  0  0  0  0  0
  151.0101  139.8486  154.4729 O   0  0  0  0  0  0  0  0  0  0  0  0
  150.2716  140.3681  155.5738 C   0  0  0  0  0  0  0  0  0  0  0  0
  151.2029  140.5818  156.7780 C   0  0  0  0  0  0  0  0  0  0  0  0
  151.4095  140.1264  159.4950 H   0  0  0  0  0  0  0  0  0  0  0  0
  152.4969  140.4030  161.4643 H   0  0  0  0  0  0  0  0  0  0  0  0
  153.8630  139.4851  160.8828 H   0  0  0  0  0  0  0  0  0  0  0  0
  154.5419  141.8209  161.3761 H   0  0  0  0  0  0  0  0  0  0  0  0
  154.7299  141.5006  159.6768 H   0  0  0  0  0  0  0  0  0  0  0  0
  152.6653  143.3095  162.2089 H   0  0  0  0  0  0  0  0  0  0  0  0
  151.2301  145.2686  161.5871 H   0  0  0  0  0  0  0  0  0  0  0  0
  150.9147  145.8128  159.1559 H   0  0  0  0  0  0  0  0  0  0  0  0
  152.0552  144.3709  157.4481 H   0  0  0  0  0  0  0  0  0  0  0  0
  151.1532  138.5535  157.4844 H   0  0  0  0  0  0  0  0  0  0  0  0
  153.4227  139.3374  155.5912 H   0  0  0  0  0  0  0  0  0  0  0  0
  153.0271  137.7165  156.1182 H   0  0  0  0  0  0  0  0  0  0  0  0
  152.0979  138.2248  153.8443 H   0  0  0  0  0  0  0  0  0  0  0  0
  150.8126  137.8510  154.9762 H   0  0  0  0  0  0  0  0  0  0  0  0
  149.8190  141.3148  155.2786 H   0  0  0  0  0  0  0  0  0  0  0  0
  149.4546  139.6913  155.8285 H   0  0  0  0  0  0  0  0  0  0  0  0
  150.6293  140.9595  157.6256 H   0  0  0  0  0  0  0  0  0  0  0  0
  151.9364  141.3505  156.5306 H   0  0  0  0  0  0  0  0  0  0  0  0
  1  2  2  0  0  0  0
  2  3  1  0  0  0  0
  2 12  1  0  0  0  0
  3  4  1  0  0  0  0
  3 18  1  0  0  0  0
  4  5  1  0  0  0  0
  4 19  1  0  0  0  0
  4 20  1  0  0  0  0
  5  6  1  0  0  0  0
  5 21  1  0  0  0  0
  5 22  1  0  0  0  0
  6 11  1  0  0  0  0
  6  7  2  0  0  0  0
  7  8  1  0  0  0  0
  7 23  1  0  0  0  0
  8  9  2  0  0  0  0
  8 24  1  0  0  0  0
  9 10  1  0  0  0  0
  9 25  1  0  0  0  0
 10 11  2  0  0  0  0
 10 26  1  0  0  0  0
 12 17  1  0  0  0  0
 12 13  1  0  0  0  0
 12 27  1  0  0  0  0
 13 14  1  0  0  0  0
 13 28  1  0  0  0  0
 13 29  1  0  0  0  0
 14 15  1  0  0  0  0
 14 30  1  0  0  0  0
 14 31  1  0  0  0  0
 15 16  1  0  0  0  0
 16 17  1  0  0  0  0
 16 32  1  0  0  0  0
 16 33  1  0  0  0  0
 17 34  1  0  0  0  0
 17 35  1  0  0  0  0
M  END
> <s_m_source_file>
AV-unprocessed.smi

> <i_m_source_file_index>
1606

> <i_lp_mmshare_version>
43012

> <i_f3d_flags>
0

> <s_epik_input>
W0NIMl0xW0NIMl1PW0NIMl1bQ0gyXVtDSF0xQyg9TylbTkhdW0NIMl1bQ0gyXWMyW2NIXVtjSF1bY0hdW2NIXW4y

> <s_epik_cmdline>
J2VwaWtfcHl0aG9uJywgJy1waCcsICc3LjAnLCAnLXRuJywgJzgnLCAnLW1hJywgJzIwMCcsICctbWV0YWxfYmluZGluZycsICctaW1hZScsICc8aW5maWxlLm1hZT4nLCAnLW9tYWUnLCAnPG91dGZpbGUubWFlPic=

> <r_epik_Ionization_Penalty>
0.0277532

> <r_epik_Ionization_Penalty_Charging>
0

> <r_epik_Ionization_Penalty_Neutral>
0.0277532

> <r_epik_State_Penalty>
0.022734

> <r_epik_Charging_Adjusted_Penalty>
0.022734

> <i_epik_Tot_Q>
0

> <i_epik_Tot_abs_Q>
0

> <r_epik_Metal_State_Penalty>
0.0217131

> <b_epik_Metal_Only>
0

> <s_lp_Force_Field>
OPLS_2005

> <r_lp_Energy>
8.37046

> <b_lp_Chiralities_Consistent>
1

> <s_lp_Variant>
AV-unprocessed.smi:1606-1

> <Gold.Version>
5.8.1

> <Gold.Id.Protein>
6NUR|6NUR_protein|mol2

> <Gold.PLP.Fitness>
44.1763

> <Gold.PLP.PLP>
-39.0884

> <Gold.PLP.part.hbond>
-1.8211

> <Gold.PLP.part.metal>
0.0000

> <Gold.PLP.part.buried>
-4.3240

> <Gold.PLP.part.nonpolar>
-34.2675

> <Gold.PLP.part.repulsive>
0.2514

> <Gold.PLP.ligand.clash>
0.0000

> <Gold.PLP.ligand.torsion>
0.4481

> <Gold.PLP.Chemscore.Hbond>
1.9913

> <Gold.PLP.Chemscore.CHOScore>
0.0000

> <Gold.PLP.Chemscore.Metal>
0.0000

> <Gold.Chemscore.Hbonds>
donor molecule, donor type, donor heavy atom, donor atom, acceptor molecule, acceptor atom, score
      P1  H  7989  7998       L1    15  1.00
      P1  H  7997  8010       L1     1  0.83

> <Gold.PLP.Chemscore.Internal.Correction>
0.0102

> <Gold.Rescore>
     Score         DG    S(hbond)    S(metal)    S(lipo)     H(rot)  DE(clash)    DE(int)     intcor
     20.17     -20.66       1.86        0.00     108.66       1.47       0.02       0.47       ----

> <Gold.Chemscore.Fitness>
20.1684

> <Gold.Chemscore.DG>
-20.6581

> <Gold.Chemscore.ZeroCoef>
-5.4800

> <Gold.Chemscore.Hbond>
1.8626

> <Gold.Chemscore.Metal>
0.0000

> <Gold.Chemscore.Lipo>
108.6648

> <Gold.Chemscore.Internal_Hbond>
0.0000

> <Gold.Chemscore.DEClash>
0.0202

> <Gold.Chemscore.DEInternal>
0.4694

> <Gold.Chemscore.Rot>
1.4674

> <Gold.Chemscore.Internal.Correction>
   9.000000E+99

> <Gold.Chemscore.Hbonds>
donor molecule, donor type, donor heavy atom, donor atom, acceptor molecule, acceptor atom, score
      P1  H  7989  7998       L1    15  0.90
      P1  H  7997  8010       L1     1  0.51

> <Gold.Chemscore.Hbond.Weighted>
-6.2209

> <Gold.Chemscore.Metal.Weighted>
-0.0000

> <Gold.Chemscore.Lipo.Weighted>
-12.7138

> <Gold.Chemscore.Internal_Hbond.Weighted>
0.0000

> <Gold.Chemscore.DEClash.Weighted>
0.0202

> <Gold.Chemscore.DEInternal.Weighted>
0.4694

> <Gold.Chemscore.Rot.Weighted>
3.7567

> <Gold.Chemscore.Internal.Correction.Weighted>
   9.000000E+99

> <Gold.Protein.RotatedTorsions>
[ 6907 6896 6895 6894 ] final   48.89 input  -60.11 | X-H torsion
[ 7974 7965 7964 7962 ] final   79.53 input  175.53 | X-H torsion
[ 8008 7997 7996 7995 ] final   38.93 input   59.86 | X-H torsion
[ 10167 10162 10161 10158 ] final -120.64 input  -65.29 | X-H torsion
[ 10718 10713 10712 10709 ] final  -85.23 input   66.30 | X-H torsion
[ 10763 10752 10751 10750 ] final   62.47 input  -60.55 | X-H torsion
[ 11005 11000 10999 10996 ] final   -2.29 input  -57.11 | X-H torsion

> <Gold.Protein.ActiveResidues>
 VAL166  LYS551  ARG553  GLY616  TRP617  ASP618  TYR619  PRO620  LYS621  CYS622 
 ASP623  PHE694  ASN695  SER759  ASP760  ASP761  ALA762  ILE779  LEU786  VAL792 
 PHE793  MET794  SER795  GLU796  ALA797  LYS798  CYS799  TRP800  GLU811  SER814 

> <Gold.Protein.RotatedAtoms>
  152.2846  134.7790  160.0389 H   0  0  0  0  0  0  0  0  0  0  0  0  # atno 6907 bound_to 6896
  151.8357  133.3410  159.3635 H   0  0  0  0  0  0  0  0  0  0  0  0  # atno 6908 bound_to 6896
  150.7204  134.5368  159.5772 H   0  0  0  0  0  0  0  0  0  0  0  0  # atno 6909 bound_to 6896
  145.6630  139.2476  143.1912 H   0  0  0  0  0  0  0  0  0  0  0  0  # atno 7974 bound_to 7965
  155.2282  140.3336  155.4307 H   0  0  0  0  0  0  0  0  0  0  0  0  # atno 8008 bound_to 7997
  156.2306  140.1849  156.7299 H   0  0  0  0  0  0  0  0  0  0  0  0  # atno 8009 bound_to 7997
  154.5971  140.0629  156.9303 H   0  0  0  0  0  0  0  0  0  0  0  0  # atno 8010 bound_to 7997
  140.0336  143.5223  152.2164 H   0  0  0  0  0  0  0  0  0  0  0  0  # atno 10167 bound_to 10162
  155.9998  130.4724  150.4530 H   0  0  0  0  0  0  0  0  0  0  0  0  # atno 10718 bound_to 10713
  152.9984  135.5464  154.6198 H   0  0  0  0  0  0  0  0  0  0  0  0  # atno 10763 bound_to 10752
  154.5500  135.2826  155.1020 H   0  0  0  0  0  0  0  0  0  0  0  0  # atno 10764 bound_to 10752
  154.2263  135.6441  153.5213 H   0  0  0  0  0  0  0  0  0  0  0  0  # atno 10765 bound_to 10752
  140.6567  133.9356  155.8412 H   0  0  0  0  0  0  0  0  0  0  0  0  # atno 11005 bound_to 11000
  146.1109  140.7429  142.9503 LP  0  0  0  0  0  0  0  0  0  0  0  0  # atno 17320 bound_to 7965
  144.7082  140.3938  143.7101 LP  0  0  0  0  0  0  0  0  0  0  0  0  # atno 17321 bound_to 7965
  139.6060  144.7596  151.3062 LP  0  0  0  0  0  0  0  0  0  0  0  0  # atno 17342 bound_to 10162
  140.7291  143.6917  150.7917 LP  0  0  0  0  0  0  0  0  0  0  0  0  # atno 17343 bound_to 10162
  157.2561  131.0557  151.2349 LP  0  0  0  0  0  0  0  0  0  0  0  0  # atno 17370 bound_to 10713
  157.3481  130.7067  149.6423 LP  0  0  0  0  0  0  0  0  0  0  0  0  # atno 17371 bound_to 10713
  141.0496  134.0504  157.3800 LP  0  0  0  0  0  0  0  0  0  0  0  0  # atno 17394 bound_to 11000
  139.9027  135.0170  156.7344 LP  0  0  0  0  0  0  0  0  0  0  0  0  # atno 17395 bound_to 11000

$$$$
