AV-unprocessed.smi:3207|AV-procd|sdf|12259|dock7
  -GOLD-   2272018 93D 1   1.00000     0.00000
 Structure written by MMmdl.
 32 33  0  0  0  0  0  0  0  0  1 V2000
  149.7983  139.7906  154.3660 C   0  0  0  0  0  0  0  0  0  0  0  0
  149.7904  141.2605  154.8106 C   0  0  1  0  0  0  0  0  0  0  0  0
  148.4321  141.6386  155.0178 O   0  0  0  0  0  0  0  0  0  0  0  0
  147.6747  141.8640  153.8353 C   0  0  0  0  0  0  0  0  0  0  0  0
  146.2399  142.1471  154.2237 C   0  0  0  0  0  0  0  0  0  0  0  0
  145.5889  143.4563  153.8389 C   0  0  0  0  0  0  0  0  0  0  0  0
  145.9185  143.1767  155.2832 C   0  0  0  0  0  0  0  0  0  0  0  0
  150.6035  141.4589  156.1004 C   0  0  0  0  0  0  0  0  0  0  0  0
  151.1023  140.4830  156.6605 O   0  0  0  0  0  0  0  0  0  0  0  0
  150.6784  142.7258  156.5492 N   0  0  0  0  0  0  0  0  0  0  0  0
  151.3347  143.2353  157.7025 C   0  0  0  0  0  0  0  0  0  0  0  0
  151.7279  142.3078  158.6894 C   0  0  0  0  0  0  0  0  0  0  0  0
  152.3679  142.7816  159.8518 C   0  0  0  0  0  0  0  0  0  0  0  0
  152.6212  144.0874  160.0787 N   0  0  0  0  0  0  0  0  0  0  0  0
  152.2339  144.9756  159.1391 C   0  0  0  0  0  0  0  0  0  0  0  0
  151.5873  144.6080  157.9420 C   0  0  0  0  0  0  0  0  0  0  0  0
  150.8149  139.4334  154.1981 H   0  0  0  0  0  0  0  0  0  0  0  0
  149.2482  139.6670  153.4329 H   0  0  0  0  0  0  0  0  0  0  0  0
  149.3329  139.1427  155.1098 H   0  0  0  0  0  0  0  0  0  0  0  0
  150.2143  141.8639  154.0053 H   0  0  0  0  0  0  0  0  0  0  0  0
  148.0663  142.7039  153.2602 H   0  0  0  0  0  0  0  0  0  0  0  0
  147.6989  140.9801  153.1967 H   0  0  0  0  0  0  0  0  0  0  0  0
  145.5944  141.2716  154.1927 H   0  0  0  0  0  0  0  0  0  0  0  0
  146.1984  144.1930  153.3191 H   0  0  0  0  0  0  0  0  0  0  0  0
  144.5407  143.4292  153.5480 H   0  0  0  0  0  0  0  0  0  0  0  0
  145.0913  142.9614  155.9565 H   0  0  0  0  0  0  0  0  0  0  0  0
  146.7485  143.7246  155.7253 H   0  0  0  0  0  0  0  0  0  0  0  0
  150.1553  143.4067  156.0182 H   0  0  0  0  0  0  0  0  0  0  0  0
  151.5483  141.2503  158.5611 H   0  0  0  0  0  0  0  0  0  0  0  0
  152.6826  142.0918  160.6208 H   0  0  0  0  0  0  0  0  0  0  0  0
  152.4399  146.0144  159.3504 H   0  0  0  0  0  0  0  0  0  0  0  0
  151.2930  145.3812  157.2501 H   0  0  0  0  0  0  0  0  0  0  0  0
  1  2  1  0  0  0  0
  1 17  1  0  0  0  0
  1 18  1  0  0  0  0
  1 19  1  0  0  0  0
  2  3  1  0  0  0  0
  2  8  1  0  0  0  0
  2 20  1  0  0  0  0
  3  4  1  0  0  0  0
  4  5  1  0  0  0  0
  4 21  1  0  0  0  0
  4 22  1  0  0  0  0
  5  7  1  0  0  0  0
  5  6  1  0  0  0  0
  5 23  1  0  0  0  0
  6  7  1  0  0  0  0
  6 24  1  0  0  0  0
  6 25  1  0  0  0  0
  7 26  1  0  0  0  0
  7 27  1  0  0  0  0
  8  9  2  0  0  0  0
  8 10  1  0  0  0  0
 10 11  1  0  0  0  0
 10 28  1  0  0  0  0
 11 16  1  0  0  0  0
 11 12  2  0  0  0  0
 12 13  1  0  0  0  0
 12 29  1  0  0  0  0
 13 14  2  0  0  0  0
 13 30  1  0  0  0  0
 14 15  1  0  0  0  0
 15 16  2  0  0  0  0
 15 31  1  0  0  0  0
 16 32  1  0  0  0  0
M  END
> <s_m_source_file>
AV-unprocessed.smi

> <i_m_source_file_index>
3207

> <i_lp_mmshare_version>
43012

> <i_f3d_flags>
0

> <s_epik_input>
W0NIMl0xW0NIMl1bQ0hdMVtDSDJdT1tDQEBIXShbQ0gzXSlDKD1PKVtOSF1jMltjSF1bY0hdbltjSF1bY0hdMg==

> <s_epik_cmdline>
J2VwaWtfcHl0aG9uJywgJy1waCcsICc3LjAnLCAnLXRuJywgJzgnLCAnLW1hJywgJzIwMCcsICctbWV0YWxfYmluZGluZycsICctaW1hZScsICc8aW5maWxlLm1hZT4nLCAnLW9tYWUnLCAnPG91dGZpbGUubWFlPic=

> <r_epik_Ionization_Penalty>
0.00446435

> <r_epik_Ionization_Penalty_Charging>
0

> <r_epik_Ionization_Penalty_Neutral>
0.00446435

> <r_epik_State_Penalty>
0.00321941

> <r_epik_Charging_Adjusted_Penalty>
0.00321941

> <i_epik_Tot_Q>
0

> <i_epik_Tot_abs_Q>
0

> <r_epik_Metal_State_Penalty>
-0

> <b_epik_Metal_Only>
0

> <s_lp_Force_Field>
OPLS_2005

> <r_lp_Energy>
19.7696

> <b_lp_Chiralities_Consistent>
1

> <s_lp_Variant>
AV-unprocessed.smi:3207-2

> <Gold.Version>
5.8.1

> <Gold.Id.Protein>
6NUR|6NUR_protein|mol2

> <Gold.PLP.Fitness>
43.0881

> <Gold.PLP.PLP>
-40.7310

> <Gold.PLP.part.hbond>
-1.0000

> <Gold.PLP.part.metal>
0.0000

> <Gold.PLP.part.buried>
-3.9738

> <Gold.PLP.part.nonpolar>
-33.9547

> <Gold.PLP.part.repulsive>
0.2332

> <Gold.PLP.ligand.clash>
0.0000

> <Gold.PLP.ligand.torsion>
0.5997

> <Gold.PLP.Chemscore.Hbond>
1.0000

> <Gold.PLP.Chemscore.CHOScore>
0.0000

> <Gold.PLP.Chemscore.Metal>
0.0000

> <Gold.Chemscore.Hbonds>
donor molecule, donor type, donor heavy atom, donor atom, acceptor molecule, acceptor atom, score
      L1  H    10    28       P1  8028  1.00

> <Gold.PLP.Chemscore.Internal.Correction>
0.5564

> <Gold.Rescore>
     Score         DG    S(hbond)    S(metal)    S(lipo)     H(rot)  DE(clash)    DE(int)     intcor
     14.10     -16.19       1.00        0.00      95.41       1.48       0.19       1.90       ----

> <Gold.Chemscore.Fitness>
14.1021

> <Gold.Chemscore.DG>
-16.1924

> <Gold.Chemscore.ZeroCoef>
-5.4800

> <Gold.Chemscore.Hbond>
1.0000

> <Gold.Chemscore.Metal>
0.0000

> <Gold.Chemscore.Lipo>
95.4093

> <Gold.Chemscore.Internal_Hbond>
0.0000

> <Gold.Chemscore.DEClash>
0.1892

> <Gold.Chemscore.DEInternal>
1.9012

> <Gold.Chemscore.Rot>
1.4807

> <Gold.Chemscore.Internal.Correction>
   9.000000E+99

> <Gold.Chemscore.Hbonds>
donor molecule, donor type, donor heavy atom, donor atom, acceptor molecule, acceptor atom, score
      L1  H    10    28       P1  8028  0.99

> <Gold.Chemscore.Hbond.Weighted>
-3.3400

> <Gold.Chemscore.Metal.Weighted>
-0.0000

> <Gold.Chemscore.Lipo.Weighted>
-11.1629

> <Gold.Chemscore.Internal_Hbond.Weighted>
0.0000

> <Gold.Chemscore.DEClash.Weighted>
0.1892

> <Gold.Chemscore.DEInternal.Weighted>
1.9012

> <Gold.Chemscore.Rot.Weighted>
3.7905

> <Gold.Chemscore.Internal.Correction.Weighted>
   9.000000E+99

> <Gold.Protein.RotatedTorsions>
[ 6907 6896 6895 6894 ] final -143.82 input  -60.11 | X-H torsion
[ 7974 7965 7964 7962 ] final  117.66 input  175.53 | X-H torsion
[ 8008 7997 7996 7995 ] final  156.25 input   59.86 | X-H torsion
[ 10167 10162 10161 10158 ] final  -41.35 input  -65.29 | X-H torsion
[ 10718 10713 10712 10709 ] final  112.91 input   66.30 | X-H torsion
[ 10763 10752 10751 10750 ] final   55.85 input  -60.55 | X-H torsion
[ 11005 11000 10999 10996 ] final  -30.90 input  -57.11 | X-H torsion

> <Gold.Protein.ActiveResidues>
 VAL166  LYS551  ARG553  GLY616  TRP617  ASP618  TYR619  PRO620  LYS621  CYS622 
 ASP623  PHE694  ASN695  SER759  ASP760  ASP761  ALA762  ILE779  LEU786  VAL792 
 PHE793  MET794  SER795  GLU796  ALA797  LYS798  CYS799  TRP800  GLU811  SER814 

> <Gold.Protein.RotatedAtoms>
  151.1057  133.5210  159.2607 H   0  0  0  0  0  0  0  0  0  0  0  0  # atno 6907 bound_to 6896
  151.2024  135.0447  159.8887 H   0  0  0  0  0  0  0  0  0  0  0  0  # atno 6908 bound_to 6896
  152.5446  134.0883  159.8319 H   0  0  0  0  0  0  0  0  0  0  0  0  # atno 6909 bound_to 6896
  145.1646  139.3135  143.4499 H   0  0  0  0  0  0  0  0  0  0  0  0  # atno 7974 bound_to 7965
  156.2433  140.1917  156.6927 H   0  0  0  0  0  0  0  0  0  0  0  0  # atno 8008 bound_to 7997
  154.6240  140.0605  156.9676 H   0  0  0  0  0  0  0  0  0  0  0  0  # atno 8009 bound_to 7997
  155.1816  140.3277  155.4376 H   0  0  0  0  0  0  0  0  0  0  0  0  # atno 8010 bound_to 7997
  140.7005  143.3100  151.3053 H   0  0  0  0  0  0  0  0  0  0  0  0  # atno 10167 bound_to 10162
  157.6367  131.0975  150.6964 H   0  0  0  0  0  0  0  0  0  0  0  0  # atno 10718 bound_to 10713
  152.9823  135.5696  154.5134 H   0  0  0  0  0  0  0  0  0  0  0  0  # atno 10763 bound_to 10752
  154.4634  135.2782  155.1698 H   0  0  0  0  0  0  0  0  0  0  0  0  # atno 10764 bound_to 10752
  154.3276  135.6256  153.5590 H   0  0  0  0  0  0  0  0  0  0  0  0  # atno 10765 bound_to 10752
  140.9422  133.7272  156.1093 H   0  0  0  0  0  0  0  0  0  0  0  0  # atno 11005 bound_to 11000
  146.3477  140.1769  142.8589 LP  0  0  0  0  0  0  0  0  0  0  0  0  # atno 17320 bound_to 7965
  145.0295  140.8859  143.5118 LP  0  0  0  0  0  0  0  0  0  0  0  0  # atno 17321 bound_to 7965
  139.6519  144.0346  152.2632 LP  0  0  0  0  0  0  0  0  0  0  0  0  # atno 17342 bound_to 10162
  139.9885  144.6378  150.7835 LP  0  0  0  0  0  0  0  0  0  0  0  0  # atno 17343 bound_to 10162
  156.7294  130.4705  149.5503 LP  0  0  0  0  0  0  0  0  0  0  0  0  # atno 17370 bound_to 10713
  156.1612  130.6375  151.0721 LP  0  0  0  0  0  0  0  0  0  0  0  0  # atno 17371 bound_to 10713
  140.7718  134.3824  157.5506 LP  0  0  0  0  0  0  0  0  0  0  0  0  # atno 17394 bound_to 11000
  139.8823  134.9027  156.2838 LP  0  0  0  0  0  0  0  0  0  0  0  0  # atno 17395 bound_to 11000

$$$$
