AV-unprocessed.smi:1579|AV-procd|sdf|6357|dock9
  -GOLD-   22720 6583D 1   1.00000     0.00000
 Structure written by MMmdl.
 47 48  0  0  0  0  0  0  0  0  2 V2000
  150.7519  144.1132  159.3737 C   0  0  0  0  0  0  0  0  0  0  0  0
  151.6843  142.9319  159.3484 C   0  0  0  0  0  0  0  0  0  0  0  0
  151.5857  142.1356  158.3346 N   0  0  0  0  0  0  0  0  0  0  0  0
  152.3959  141.0249  158.2120 N   0  0  0  0  0  0  0  0  0  0  0  0
  152.1506  140.2394  156.9965 C   0  0  0  0  0  0  0  0  0  0  0  0
  151.0554  140.8696  156.1077 C   0  0  1  0  0  0  0  0  0  0  0  0
  150.9656  140.1155  154.9146 O   0  0  0  0  0  0  0  0  0  0  0  0
  149.6743  140.8174  156.7925 C   0  0  0  0  0  0  0  0  0  0  0  0
  148.5505  140.8631  155.8217 N   0  3  2  0  0  0  0  0  0  0  0  0
  148.6366  142.0068  154.8745 C   0  0  0  0  0  0  0  0  0  0  0  0
  147.5257  141.9333  153.8117 C   0  0  0  0  0  0  0  0  0  0  0  0
  146.1221  141.8584  154.4397 C   0  0  2  0  0  0  0  0  0  0  0  0
  145.6610  143.2024  155.0304 C   0  0  0  0  0  0  0  0  0  0  0  0
  146.0826  140.7114  155.4656 C   0  0  0  0  0  0  0  0  0  0  0  0
  147.2260  140.8078  156.4922 C   0  0  0  0  0  0  0  0  0  0  0  0
  153.3489  140.6542  159.1144 C   0  0  0  0  0  0  0  0  0  0  0  0
  154.0409  139.6451  158.9680 O   0  0  0  0  0  0  0  0  0  0  0  0
  153.4561  141.5602  160.2601 C   0  0  0  0  0  0  0  0  0  0  0  0
  154.4453  141.2112  161.2281 C   0  0  0  0  0  0  0  0  0  0  0  0
  155.2566  140.9458  162.0099 N   0  0  0  0  0  0  0  0  0  0  0  0
  152.6669  142.6557  160.3917 C   0  0  0  0  0  0  0  0  0  0  0  0
  152.7371  143.6271  161.5620 C   0  0  0  0  0  0  0  0  0  0  0  0
  151.3105  145.0472  159.4371 H   0  0  0  0  0  0  0  0  0  0  0  0
  150.0831  144.0591  160.2330 H   0  0  0  0  0  0  0  0  0  0  0  0
  150.1319  144.1619  158.4773 H   0  0  0  0  0  0  0  0  0  0  0  0
  153.0721  140.0951  156.4283 H   0  0  0  0  0  0  0  0  0  0  0  0
  151.8510  139.2329  157.2950 H   0  0  0  0  0  0  0  0  0  0  0  0
  151.3180  141.8975  155.8611 H   0  0  0  0  0  0  0  0  0  0  0  0
  150.0517  139.9904  154.7061 H   0  0  0  0  0  0  0  0  0  0  0  0
  149.6178  139.9026  157.3851 H   0  0  0  0  0  0  0  0  0  0  0  0
  149.5646  141.6415  157.4993 H   0  0  0  0  0  0  0  0  0  0  0  0
  148.5743  142.9458  155.4262 H   0  0  0  0  0  0  0  0  0  0  0  0
  149.6013  142.0101  154.3691 H   0  0  0  0  0  0  0  0  0  0  0  0
  147.5936  142.7885  153.1383 H   0  0  0  0  0  0  0  0  0  0  0  0
  147.6875  141.0494  153.1931 H   0  0  0  0  0  0  0  0  0  0  0  0
  145.4171  141.6140  153.6438 H   0  0  0  0  0  0  0  0  0  0  0  0
  146.3048  143.5394  155.8425 H   0  0  0  0  0  0  0  0  0  0  0  0
  144.6473  143.1277  155.4246 H   0  0  0  0  0  0  0  0  0  0  0  0
  145.6574  143.9824  154.2687 H   0  0  0  0  0  0  0  0  0  0  0  0
  145.1197  140.6943  155.9773 H   0  0  0  0  0  0  0  0  0  0  0  0
  146.1607  139.7590  154.9390 H   0  0  0  0  0  0  0  0  0  0  0  0
  147.1840  139.9374  157.1482 H   0  0  0  0  0  0  0  0  0  0  0  0
  147.0994  141.6855  157.1275 H   0  0  0  0  0  0  0  0  0  0  0  0
  153.4595  143.3146  162.3154 H   0  0  0  0  0  0  0  0  0  0  0  0
  151.7677  143.7073  162.0542 H   0  0  0  0  0  0  0  0  0  0  0  0
  153.0308  144.6188  161.2168 H   0  0  0  0  0  0  0  0  0  0  0  0
  148.6212  140.0175  155.2732 H   0  0  0  0  0  0  0  0  0  0  0  0
  1  2  1  0  0  0  0
  1 23  1  0  0  0  0
  1 24  1  0  0  0  0
  1 25  1  0  0  0  0
  2 21  1  0  0  0  0
  2  3  2  0  0  0  0
  3  4  1  0  0  0  0
  4  5  1  0  0  0  0
  4 16  1  0  0  0  0
  5  6  1  0  0  0  0
  5 26  1  0  0  0  0
  5 27  1  0  0  0  0
  6  7  1  0  0  0  0
  6  8  1  0  0  0  0
  6 28  1  0  0  0  0
  7 29  1  0  0  0  0
  8  9  1  0  0  0  0
  8 30  1  0  0  0  0
  8 31  1  0  0  0  0
  9 15  1  0  0  0  0
  9 10  1  0  0  0  0
  9 47  1  0  0  0  0
 10 11  1  0  0  0  0
 10 32  1  0  0  0  0
 10 33  1  0  0  0  0
 11 12  1  0  0  0  0
 11 34  1  0  0  0  0
 11 35  1  0  0  0  0
 12 13  1  0  0  0  0
 12 14  1  0  0  0  0
 12 36  1  0  0  0  0
 13 37  1  0  0  0  0
 13 38  1  0  0  0  0
 13 39  1  0  0  0  0
 14 15  1  0  0  0  0
 14 40  1  0  0  0  0
 14 41  1  0  0  0  0
 15 42  1  0  0  0  0
 15 43  1  0  0  0  0
 16 17  2  0  0  0  0
 16 18  1  0  0  0  0
 18 19  1  0  0  0  0
 18 21  2  0  0  0  0
 19 20  3  0  0  0  0
 21 22  1  0  0  0  0
 22 44  1  0  0  0  0
 22 45  1  0  0  0  0
 22 46  1  0  0  0  0
M  CHG  1   9   1
M  END
> <s_m_source_file>
AV-unprocessed.smi

> <i_m_source_file_index>
1579

> <i_lp_mmshare_version>
43012

> <i_f3d_flags>
0

> <s_epik_input>
TiNDYyhjMVtDSDNdKWMoPU8pbihuYzFbQ0gzXSlbQ0gyXVtDQEhdKFtPSF0pW0NIMl1OMltDSDJdW0NIMl1bQ0hdKFtDSDNdKVtDSDJdW0NIMl0y

> <s_epik_cmdline>
J2VwaWtfcHl0aG9uJywgJy1waCcsICc3LjAnLCAnLXRuJywgJzgnLCAnLW1hJywgJzIwMCcsICctbWV0YWxfYmluZGluZycsICctaW1hZScsICc8aW5maWxlLm1hZT4nLCAnLW9tYWUnLCAnPG91dGZpbGUubWFlPic=

> <r_epik_Ionization_Penalty>
0.00136816

> <r_epik_Ionization_Penalty_Charging>
0.00136813

> <r_epik_Ionization_Penalty_Neutral>
3.19884e-08

> <r_epik_State_Penalty>
0.000910892

> <r_epik_Charging_Adjusted_Penalty>
0.00227902

> <i_epik_Tot_Q>
1

> <i_epik_Tot_abs_Q>
1

> <r_epik_Metal_State_Penalty>
-0

> <b_epik_Metal_Only>
0

> <s_lp_Force_Field>
OPLS_2005

> <r_lp_Energy>
39.3397

> <b_lp_Chiralities_Consistent>
1

> <s_lp_Variant>
AV-unprocessed.smi:1579-4

> <Gold.Version>
5.8.1

> <Gold.Id.Protein>
6NUR|6NUR_protein|mol2

> <Gold.PLP.Fitness>
46.8923

> <Gold.PLP.PLP>
-41.4306

> <Gold.PLP.part.hbond>
-3.0000

> <Gold.PLP.part.metal>
0.0000

> <Gold.PLP.part.buried>
-3.8145

> <Gold.PLP.part.nonpolar>
-34.6855

> <Gold.PLP.part.repulsive>
0.0510

> <Gold.PLP.ligand.clash>
0.0000

> <Gold.PLP.ligand.torsion>
0.2804

> <Gold.PLP.Chemscore.Hbond>
2.0000

> <Gold.PLP.Chemscore.CHOScore>
0.0000

> <Gold.PLP.Chemscore.Metal>
0.0000

> <Gold.Chemscore.Hbonds>
donor molecule, donor type, donor heavy atom, donor atom, acceptor molecule, acceptor atom, score
      P1  H  7989  7998       L1     7  1.00
      P1  H  7997  8009       L1    17  0.95

> <Gold.PLP.Chemscore.Internal.Correction>
0.0225

> <Gold.Rescore>
     Score         DG    S(hbond)    S(metal)    S(lipo)     H(rot)  DE(clash)    DE(int)     intcor
     11.80     -16.07       1.76        0.00      87.86       2.17       1.37       2.89       ----

> <Gold.Chemscore.Fitness>
11.8029

> <Gold.Chemscore.DG>
-16.0664

> <Gold.Chemscore.ZeroCoef>
-5.4800

> <Gold.Chemscore.Hbond>
1.7561

> <Gold.Chemscore.Metal>
0.0000

> <Gold.Chemscore.Lipo>
87.8642

> <Gold.Chemscore.Internal_Hbond>
0.0000

> <Gold.Chemscore.DEClash>
1.3731

> <Gold.Chemscore.DEInternal>
2.8905

> <Gold.Chemscore.Rot>
2.1715

> <Gold.Chemscore.Internal.Correction>
   9.000000E+99

> <Gold.Chemscore.Hbonds>
donor molecule, donor type, donor heavy atom, donor atom, acceptor molecule, acceptor atom, score
      P1  H  7989  7998       L1     7  0.45
      P1  H  7997  8009       L1    17  0.21

> <Gold.Chemscore.Hbond.Weighted>
-5.8654

> <Gold.Chemscore.Metal.Weighted>
-0.0000

> <Gold.Chemscore.Lipo.Weighted>
-10.2801

> <Gold.Chemscore.Internal_Hbond.Weighted>
0.0000

> <Gold.Chemscore.DEClash.Weighted>
1.3731

> <Gold.Chemscore.DEInternal.Weighted>
2.8905

> <Gold.Chemscore.Rot.Weighted>
5.5591

> <Gold.Chemscore.Internal.Correction.Weighted>
   9.000000E+99

> <Gold.Protein.RotatedTorsions>
[ 6907 6896 6895 6894 ] final  -39.36 input  -60.11 | X-H torsion
[ 7974 7965 7964 7962 ] final  -21.32 input  175.53 | X-H torsion
[ 8008 7997 7996 7995 ] final  140.46 input   59.86 | X-H torsion
[ 10167 10162 10161 10158 ] final  132.24 input  -65.29 | X-H torsion
[ 10718 10713 10712 10709 ] final  -33.50 input   66.30 | X-H torsion
[ 10763 10752 10751 10750 ] final -171.86 input  -60.55 | X-H torsion
[ 11005 11000 10999 10996 ] final   58.52 input  -57.11 | X-H torsion

> <Gold.Protein.ActiveResidues>
 VAL166  LYS551  ARG553  GLY616  TRP617  ASP618  TYR619  PRO620  LYS621  CYS622 
 ASP623  PHE694  ASN695  SER759  ASP760  ASP761  ALA762  ILE779  LEU786  VAL792 
 PHE793  MET794  SER795  GLU796  ALA797  LYS798  CYS799  TRP800  GLU811  SER814 

> <Gold.Protein.RotatedAtoms>
  150.9912  134.9247  159.7900 H   0  0  0  0  0  0  0  0  0  0  0  0  # atno 6907 bound_to 6896
  152.5251  134.3278  159.9182 H   0  0  0  0  0  0  0  0  0  0  0  0  # atno 6908 bound_to 6896
  151.3284  133.3969  159.2695 H   0  0  0  0  0  0  0  0  0  0  0  0  # atno 6909 bound_to 6896
  146.1739  140.4325  142.8521 H   0  0  0  0  0  0  0  0  0  0  0  0  # atno 7974 bound_to 7965
  156.2979  140.2341  156.4404 H   0  0  0  0  0  0  0  0  0  0  0  0  # atno 8008 bound_to 7997
  154.8191  140.0439  157.1418 H   0  0  0  0  0  0  0  0  0  0  0  0  # atno 8009 bound_to 7997
  154.9336  140.3020  155.5159 H   0  0  0  0  0  0  0  0  0  0  0  0  # atno 8010 bound_to 7997
  139.5348  144.6670  151.4824 H   0  0  0  0  0  0  0  0  0  0  0  0  # atno 10167 bound_to 10162
  156.3619  130.4325  149.7616 H   0  0  0  0  0  0  0  0  0  0  0  0  # atno 10718 bound_to 10713
  154.6258  135.2880  155.0274 H   0  0  0  0  0  0  0  0  0  0  0  0  # atno 10763 bound_to 10752
  154.1452  135.6512  153.4955 H   0  0  0  0  0  0  0  0  0  0  0  0  # atno 10764 bound_to 10752
  153.0256  135.5342  154.7065 H   0  0  0  0  0  0  0  0  0  0  0  0  # atno 10765 bound_to 10752
  140.0371  134.5927  155.9429 H   0  0  0  0  0  0  0  0  0  0  0  0  # atno 11005 bound_to 11000
  144.8206  140.6543  143.6355 LP  0  0  0  0  0  0  0  0  0  0  0  0  # atno 17320 bound_to 7965
  145.4264  139.1556  143.4046 LP  0  0  0  0  0  0  0  0  0  0  0  0  # atno 17321 bound_to 7965
  140.6548  143.8622  150.6823 LP  0  0  0  0  0  0  0  0  0  0  0  0  # atno 17342 bound_to 10162
  140.1998  143.3969  152.1800 LP  0  0  0  0  0  0  0  0  0  0  0  0  # atno 17343 bound_to 10162
  156.4777  130.8026  151.3042 LP  0  0  0  0  0  0  0  0  0  0  0  0  # atno 17370 bound_to 10713
  157.7474  131.0016  150.2968 LP  0  0  0  0  0  0  0  0  0  0  0  0  # atno 17371 bound_to 10713
  141.1863  133.6557  156.5235 LP  0  0  0  0  0  0  0  0  0  0  0  0  # atno 17394 bound_to 11000
  140.4129  134.7256  157.4846 LP  0  0  0  0  0  0  0  0  0  0  0  0  # atno 17395 bound_to 11000

$$$$
