AV-unprocessed.smi:1701|AV-procd|sdf|6842|dock3
  -GOLD-   22720 8 23D 1   1.00000     0.00000
 Structure written by MMmdl.
 54 56  0  0  0  0  0  0  0  0  4 V2000
  152.7420  142.7677  161.5697 C   0  0  0  0  0  0  0  0  0  0  0  0
  153.3249  142.4139  160.1951 C   0  0  0  0  0  0  0  0  0  0  0  0
  152.5346  142.9724  159.0990 N   0  0  0  0  0  0  0  0  0  0  0  0
  152.4836  144.4222  158.9299 C   0  0  0  0  0  0  0  0  0  0  0  0
  151.0895  144.9895  159.2271 C   0  0  0  0  0  0  0  0  0  0  0  0
  151.7936  142.1226  158.2451 C   0  0  0  0  0  0  0  0  0  0  0  0
  151.7201  140.7176  158.4158 C   0  0  0  0  0  0  0  0  0  0  0  0
  150.9637  139.9383  157.5168 C   0  0  0  0  0  0  0  0  0  0  0  0
  150.2732  140.5617  156.4581 C   0  0  0  0  0  0  0  0  0  0  0  0
  149.5474  139.7347  155.5592 N   0  0  0  0  0  0  0  0  0  0  0  0
  148.5274  140.0598  154.7267 C   0  0  0  0  0  0  0  0  0  0  0  0
  148.0603  141.1963  154.7730 O   0  0  0  0  0  0  0  0  0  0  0  0
  148.0162  139.1183  153.8769 N   0  5  0  0  0  0  0  0  0  0  0  0
  146.7803  139.1588  153.0824 C   0  0  1  0  0  0  0  0  0  0  0  0
  147.0631  138.9746  151.5798 C   0  0  0  0  0  0  0  0  0  0  0  0
  145.8824  138.1460  151.0365 C   0  0  0  0  0  0  0  0  0  0  0  0
  145.0174  137.8784  152.2019 N   0  3  1  0  0  0  0  0  0  0  0  0
  144.1937  136.6498  152.1684 C   0  0  0  0  0  0  0  0  0  0  0  0
  143.2844  136.6142  153.4135 C   0  0  0  0  0  0  0  0  0  0  0  0
  144.0903  136.7815  154.7186 C   0  0  0  0  0  0  0  0  0  0  0  0
  144.9933  138.0297  154.6612 C   0  0  0  0  0  0  0  0  0  0  0  0
  145.8737  137.9629  153.3959 C   0  0  2  0  0  0  0  0  0  0  0  0
  150.3843  141.9647  156.3209 C   0  0  0  0  0  0  0  0  0  0  0  0
  151.1210  142.6720  157.2040 N   0  3  0  0  0  0  0  0  0  0  0  0
  153.3596  142.3547  162.3672 H   0  0  0  0  0  0  0  0  0  0  0  0
  151.7351  142.3671  161.6903 H   0  0  0  0  0  0  0  0  0  0  0  0
  152.6926  143.8472  161.7144 H   0  0  0  0  0  0  0  0  0  0  0  0
  154.3393  142.8078  160.1259 H   0  0  0  0  0  0  0  0  0  0  0  0
  153.4235  141.3332  160.0899 H   0  0  0  0  0  0  0  0  0  0  0  0
  153.2397  144.9125  159.5425 H   0  0  0  0  0  0  0  0  0  0  0  0
  152.7491  144.6595  157.8991 H   0  0  0  0  0  0  0  0  0  0  0  0
  151.0725  146.0696  159.0808 H   0  0  0  0  0  0  0  0  0  0  0  0
  150.7882  144.7901  160.2557 H   0  0  0  0  0  0  0  0  0  0  0  0
  150.3372  144.5548  158.5684 H   0  0  0  0  0  0  0  0  0  0  0  0
  152.2274  140.2183  159.2270 H   0  0  0  0  0  0  0  0  0  0  0  0
  150.9111  138.8671  157.6463 H   0  0  0  0  0  0  0  0  0  0  0  0
  149.8093  138.7598  155.5603 H   0  0  0  0  0  0  0  0  0  0  0  0
  146.2056  140.0758  153.2247 H   0  0  0  0  0  0  0  0  0  0  0  0
  147.1565  139.9357  151.0733 H   0  0  0  0  0  0  0  0  0  0  0  0
  147.9926  138.4276  151.4127 H   0  0  0  0  0  0  0  0  0  0  0  0
  145.3240  138.6758  150.2638 H   0  0  0  0  0  0  0  0  0  0  0  0
  146.2454  137.2103  150.6070 H   0  0  0  0  0  0  0  0  0  0  0  0
  143.5900  136.6379  151.2604 H   0  0  0  0  0  0  0  0  0  0  0  0
  144.8392  135.7706  152.1398 H   0  0  0  0  0  0  0  0  0  0  0  0
  142.5478  137.4155  153.3428 H   0  0  0  0  0  0  0  0  0  0  0  0
  142.7214  135.6808  153.4386 H   0  0  0  0  0  0  0  0  0  0  0  0
  143.4149  136.8460  155.5721 H   0  0  0  0  0  0  0  0  0  0  0  0
  144.7071  135.8964  154.8788 H   0  0  0  0  0  0  0  0  0  0  0  0
  144.3709  138.9271  154.6588 H   0  0  0  0  0  0  0  0  0  0  0  0
  145.6097  138.0776  155.5608 H   0  0  0  0  0  0  0  0  0  0  0  0
  146.4854  137.0580  153.4368 H   0  0  0  0  0  0  0  0  0  0  0  0
  149.9288  142.5491  155.5352 H   0  0  0  0  0  0  0  0  0  0  0  0
  144.3841  138.6624  152.2653 H   0  0  0  0  0  0  0  0  0  0  0  0
  151.1788  143.6820  157.0740 H   0  0  0  0  0  0  0  0  0  0  0  0
  1  2  1  0  0  0  0
  1 25  1  0  0  0  0
  1 26  1  0  0  0  0
  1 27  1  0  0  0  0
  2  3  1  0  0  0  0
  2 28  1  0  0  0  0
  2 29  1  0  0  0  0
  3  4  1  0  0  0  0
  3  6  1  0  0  0  0
  4  5  1  0  0  0  0
  4 30  1  0  0  0  0
  4 31  1  0  0  0  0
  5 32  1  0  0  0  0
  5 33  1  0  0  0  0
  5 34  1  0  0  0  0
  6 24  1  0  0  0  0
  6  7  2  0  0  0  0
  7  8  1  0  0  0  0
  7 35  1  0  0  0  0
  8  9  2  0  0  0  0
  8 36  1  0  0  0  0
  9 10  1  0  0  0  0
  9 23  1  0  0  0  0
 10 11  1  0  0  0  0
 10 37  1  0  0  0  0
 11 12  2  0  0  0  0
 11 13  1  0  0  0  0
 13 14  1  0  0  0  0
 14 22  1  0  0  0  0
 14 15  1  0  0  0  0
 14 38  1  0  0  0  0
 15 16  1  0  0  0  0
 15 39  1  0  0  0  0
 15 40  1  0  0  0  0
 16 17  1  0  0  0  0
 16 41  1  0  0  0  0
 16 42  1  0  0  0  0
 17 22  1  0  0  0  0
 17 18  1  0  0  0  0
 17 53  1  0  0  0  0
 18 19  1  0  0  0  0
 18 43  1  0  0  0  0
 18 44  1  0  0  0  0
 19 20  1  0  0  0  0
 19 45  1  0  0  0  0
 19 46  1  0  0  0  0
 20 21  1  0  0  0  0
 20 47  1  0  0  0  0
 20 48  1  0  0  0  0
 21 22  1  0  0  0  0
 21 49  1  0  0  0  0
 21 50  1  0  0  0  0
 22 51  1  0  0  0  0
 23 24  2  0  0  0  0
 23 52  1  0  0  0  0
 24 54  1  0  0  0  0
M  CHG  1  13  -1
M  CHG  1  17   1
M  CHG  1  24   1
M  END
> <s_m_source_file>
AV-unprocessed.smi

> <i_m_source_file_index>
1701

> <i_lp_mmshare_version>
43012

> <i_f3d_flags>
0

> <s_epik_input>
W0NIM11bQ0gyXU4oW0NIMl1bQ0gzXSljMVtjSF1bY0hdYyhbY0hdbjEpW05IXUMoPU8pW05IXVtDQEhdKFtDSDJdW0NIMl0yKVtDQEBIXShOMjMpW0NIMl1bQ0gyXVtDSDJdW0NIMl0z

> <s_epik_cmdline>
J2VwaWtfcHl0aG9uJywgJy1waCcsICc3LjAnLCAnLXRuJywgJzgnLCAnLW1hJywgJzIwMCcsICctbWV0YWxfYmluZGluZycsICctaW1hZScsICc8aW5maWxlLm1hZT4nLCAnLW9tYWUnLCAnPG91dGZpbGUubWFlPic=

> <r_lp_tautomer_probability>
0.999994

> <r_epik_Ionization_Penalty>
7.37095

> <r_epik_Ionization_Penalty_Charging>
7.37095

> <r_epik_Ionization_Penalty_Neutral>
3.78969e-06

> <r_epik_State_Penalty>
6.83842

> <r_epik_Charging_Adjusted_Penalty>
14.2094

> <i_epik_Tot_Q>
1

> <i_epik_Tot_abs_Q>
3

> <r_epik_Metal_State_Penalty>
2.78552

> <b_epik_Metal_Only>
1

> <s_lp_Force_Field>
OPLS_2005

> <r_lp_Energy>
47.735

> <b_lp_Chiralities_Consistent>
1

> <s_lp_Variant>
AV-unprocessed.smi:1701-22

> <Gold.Version>
5.8.1

> <Gold.Id.Protein>
6NUR|6NUR_protein|mol2

> <Gold.PLP.Fitness>
48.7207

> <Gold.PLP.PLP>
-43.0811

> <Gold.PLP.part.hbond>
-2.0000

> <Gold.PLP.part.metal>
0.0000

> <Gold.PLP.part.buried>
2.7232

> <Gold.PLP.part.nonpolar>
-44.2049

> <Gold.PLP.part.repulsive>
0.3669

> <Gold.PLP.ligand.clash>
0.0000

> <Gold.PLP.ligand.torsion>
0.2602

> <Gold.PLP.Chemscore.Hbond>
2.0000

> <Gold.PLP.Chemscore.CHOScore>
0.0000

> <Gold.PLP.Chemscore.Metal>
0.0000

> <Gold.Chemscore.Hbonds>
donor molecule, donor type, donor heavy atom, donor atom, acceptor molecule, acceptor atom, score
      L1  H    17    53       P1 10175  2.00

> <Gold.PLP.Chemscore.Internal.Correction>
0.1600

> <Gold.Rescore>
     Score         DG    S(hbond)    S(metal)    S(lipo)     H(rot)  DE(clash)    DE(int)     intcor
     14.79     -18.66       1.00        0.00     112.24       1.28       2.03       1.84       ----

> <Gold.Chemscore.Fitness>
14.7883

> <Gold.Chemscore.DG>
-18.6566

> <Gold.Chemscore.ZeroCoef>
-5.4800

> <Gold.Chemscore.Hbond>
0.9974

> <Gold.Chemscore.Metal>
0.0000

> <Gold.Chemscore.Lipo>
112.2379

> <Gold.Chemscore.Internal_Hbond>
0.0000

> <Gold.Chemscore.DEClash>
2.0301

> <Gold.Chemscore.DEInternal>
1.8382

> <Gold.Chemscore.Rot>
1.2838

> <Gold.Chemscore.Internal.Correction>
   9.000000E+99

> <Gold.Chemscore.Hbonds>
donor molecule, donor type, donor heavy atom, donor atom, acceptor molecule, acceptor atom, score
      L1  H    17    53       P1 10175  0.99

> <Gold.Chemscore.Hbond.Weighted>
-3.3313

> <Gold.Chemscore.Metal.Weighted>
-0.0000

> <Gold.Chemscore.Lipo.Weighted>
-13.1318

> <Gold.Chemscore.Internal_Hbond.Weighted>
0.0000

> <Gold.Chemscore.DEClash.Weighted>
2.0301

> <Gold.Chemscore.DEInternal.Weighted>
1.8382

> <Gold.Chemscore.Rot.Weighted>
3.2865

> <Gold.Chemscore.Internal.Correction.Weighted>
   9.000000E+99

> <Gold.Protein.RotatedTorsions>
[ 6907 6896 6895 6894 ] final   43.55 input  -60.11 | X-H torsion
[ 7974 7965 7964 7962 ] final  -99.34 input  175.53 | X-H torsion
[ 8008 7997 7996 7995 ] final  -68.29 input   59.86 | X-H torsion
[ 10167 10162 10161 10158 ] final    5.56 input  -65.29 | X-H torsion
[ 10718 10713 10712 10709 ] final  159.42 input   66.30 | X-H torsion
[ 10763 10752 10751 10750 ] final  -55.75 input  -60.55 | X-H torsion
[ 11005 11000 10999 10996 ] final    1.74 input  -57.11 | X-H torsion

> <Gold.Protein.ActiveResidues>
 VAL166  LYS551  ARG553  GLY616  TRP617  ASP618  TYR619  PRO620  LYS621  CYS622 
 ASP623  PHE694  ASN695  SER759  ASP760  ASP761  ALA762  ILE779  LEU786  VAL792 
 PHE793  MET794  SER795  GLU796  ALA797  LYS798  CYS799  TRP800  GLU811  SER814 

> <Gold.Protein.RotatedAtoms>
  152.2217  134.8407  160.0484 H   0  0  0  0  0  0  0  0  0  0  0  0  # atno 6907 bound_to 6896
  151.9188  133.3575  159.3898 H   0  0  0  0  0  0  0  0  0  0  0  0  # atno 6908 bound_to 6896
  150.7001  134.4582  159.5412 H   0  0  0  0  0  0  0  0  0  0  0  0  # atno 6909 bound_to 6896
  145.3089  140.9395  143.2781 H   0  0  0  0  0  0  0  0  0  0  0  0  # atno 7974 bound_to 7965
  154.4858  140.0876  156.7483 H   0  0  0  0  0  0  0  0  0  0  0  0  # atno 8008 bound_to 7997
  155.4354  140.3451  155.4266 H   0  0  0  0  0  0  0  0  0  0  0  0  # atno 8009 bound_to 7997
  156.1259  140.1487  156.9125 H   0  0  0  0  0  0  0  0  0  0  0  0  # atno 8010 bound_to 7997
  140.6476  143.7625  150.7523 H   0  0  0  0  0  0  0  0  0  0  0  0  # atno 10167 bound_to 10162
  157.1645  131.0595  151.2215 H   0  0  0  0  0  0  0  0  0  0  0  0  # atno 10718 bound_to 10713
  154.1958  135.6419  153.5073 H   0  0  0  0  0  0  0  0  0  0  0  0  # atno 10763 bound_to 10752
  153.0024  135.5439  154.6367 H   0  0  0  0  0  0  0  0  0  0  0  0  # atno 10764 bound_to 10752
  154.5768  135.2921  155.0746 H   0  0  0  0  0  0  0  0  0  0  0  0  # atno 10765 bound_to 10752
  140.6121  133.9739  155.8182 H   0  0  0  0  0  0  0  0  0  0  0  0  # atno 11005 bound_to 11000
  144.9032  139.4622  143.6622 LP  0  0  0  0  0  0  0  0  0  0  0  0  # atno 17320 bound_to 7965
  146.3125  139.7798  142.9009 LP  0  0  0  0  0  0  0  0  0  0  0  0  # atno 17321 bound_to 7965
  140.1269  143.4561  152.2278 LP  0  0  0  0  0  0  0  0  0  0  0  0  # atno 17342 bound_to 10162
  139.5687  144.7450  151.3949 LP  0  0  0  0  0  0  0  0  0  0  0  0  # atno 17343 bound_to 10162
  157.4101  130.7381  149.6833 LP  0  0  0  0  0  0  0  0  0  0  0  0  # atno 17370 bound_to 10713
  155.9748  130.4097  150.3894 LP  0  0  0  0  0  0  0  0  0  0  0  0  # atno 17371 bound_to 10713
  141.0801  134.0076  157.3399 LP  0  0  0  0  0  0  0  0  0  0  0  0  # atno 17394 bound_to 11000
  139.9188  135.0199  156.7984 LP  0  0  0  0  0  0  0  0  0  0  0  0  # atno 17395 bound_to 11000

$$$$
