AV-unprocessed.smi:2607|AV-procd|sdf|10202|dock3
  -GOLD-   2272014213D 1   1.00000     0.00000
 Structure written by MMmdl.
 21 22  0  0  0  0  0  0  0  0  2 V2000
  150.4672  142.0202  156.3916 C   0  0  0  0  0  0  0  0  0  0  0  0
  150.4175  140.6030  155.7843 C   0  0  1  0  0  0  0  0  0  0  0  0
  149.1917  140.4443  154.8624 C   0  0  0  0  0  0  0  0  0  0  0  0
  148.2761  141.5001  154.6112 C   0  0  0  0  0  0  0  0  0  0  0  0
  147.1985  141.3449  153.8094 N   0  0  0  0  0  0  0  0  0  0  0  0
  147.0272  140.1265  153.2537 C   0  0  0  0  0  0  0  0  0  0  0  0
  147.9247  139.0681  153.4996 C   0  0  0  0  0  0  0  0  0  0  0  0
  149.0003  139.2226  154.3012 N   0  0  0  0  0  0  0  0  0  0  0  0
  151.6870  140.3314  155.1182 N   0  5  0  0  0  0  0  0  0  0  0  0
  152.2702  139.2533  155.6913 C   0  0  0  0  0  0  0  0  0  0  0  0
  153.3317  138.7177  155.3808 O   0  0  0  0  0  0  0  0  0  0  0  0
  151.5273  138.8008  156.7040 N   0  0  0  0  0  0  0  0  0  0  0  0
  150.4305  139.5319  156.8747 C   0  0  0  0  0  0  0  0  0  0  0  0
  149.5842  139.3926  157.7579 O   0  0  0  0  0  0  0  0  0  0  0  0
  149.5661  142.2426  156.9643 H   0  0  0  0  0  0  0  0  0  0  0  0
  150.5528  142.7775  155.6117 H   0  0  0  0  0  0  0  0  0  0  0  0
  151.3174  142.1435  157.0645 H   0  0  0  0  0  0  0  0  0  0  0  0
  148.3912  142.4797  155.0502 H   0  0  0  0  0  0  0  0  0  0  0  0
  146.1690  139.9941  152.6118 H   0  0  0  0  0  0  0  0  0  0  0  0
  147.7791  138.0957  153.0532 H   0  0  0  0  0  0  0  0  0  0  0  0
  151.7812  138.0151  157.2838 H   0  0  0  0  0  0  0  0  0  0  0  0
  1  2  1  0  0  0  0
  1 15  1  0  0  0  0
  1 16  1  0  0  0  0
  1 17  1  0  0  0  0
  2 13  1  0  0  0  0
  2  3  1  0  0  0  0
  2  9  1  0  0  0  0
  3  8  1  0  0  0  0
  3  4  2  0  0  0  0
  4  5  1  0  0  0  0
  4 18  1  0  0  0  0
  5  6  2  0  0  0  0
  6  7  1  0  0  0  0
  6 19  1  0  0  0  0
  7  8  2  0  0  0  0
  7 20  1  0  0  0  0
  9 10  1  0  0  0  0
 10 11  2  0  0  0  0
 10 12  1  0  0  0  0
 12 13  1  0  0  0  0
 12 21  1  0  0  0  0
 13 14  2  0  0  0  0
M  CHG  1   9  -1
M  END
> <s_m_source_file>
AV-unprocessed.smi

> <i_m_source_file_index>
2607

> <i_lp_mmshare_version>
43012

> <i_f3d_flags>
0

> <s_epik_input>
Tz1DMVtOSF1DKD1PKVtOSF1bQ0BAXTEoW0NIM10pYzJbY0hdbltjSF1bY0hdbjI=

> <s_epik_cmdline>
J2VwaWtfcHl0aG9uJywgJy1waCcsICc3LjAnLCAnLXRuJywgJzgnLCAnLW1hJywgJzIwMCcsICctbWV0YWxfYmluZGluZycsICctaW1hZScsICc8aW5maWxlLm1hZT4nLCAnLW9tYWUnLCAnPG91dGZpbGUubWFlPic=

> <r_lp_tautomer_probability>
1

> <r_epik_Ionization_Penalty>
4.70687

> <r_epik_Ionization_Penalty_Charging>
4.70687

> <r_epik_Ionization_Penalty_Neutral>
2.29475e-06

> <r_epik_State_Penalty>
4.73416

> <r_epik_Charging_Adjusted_Penalty>
9.44103

> <i_epik_Tot_Q>
-1

> <i_epik_Tot_abs_Q>
1

> <r_epik_Metal_State_Penalty>
1.2389

> <b_epik_Metal_Only>
1

> <s_lp_Force_Field>
OPLS_2005

> <r_lp_Energy>
21.97

> <b_lp_Chiralities_Consistent>
1

> <s_lp_Variant>
AV-unprocessed.smi:2607-5

> <Gold.Version>
5.8.1

> <Gold.Id.Protein>
6NUR|6NUR_protein|mol2

> <Gold.PLP.Fitness>
34.3989

> <Gold.PLP.PLP>
-20.2884

> <Gold.PLP.part.hbond>
-2.0000

> <Gold.PLP.part.metal>
0.0000

> <Gold.PLP.part.buried>
-2.1977

> <Gold.PLP.part.nonpolar>
-17.3802

> <Gold.PLP.part.repulsive>
0.4191

> <Gold.PLP.ligand.clash>
0.0000

> <Gold.PLP.ligand.torsion>
0.0433

> <Gold.PLP.Chemscore.Hbond>
1.7152

> <Gold.PLP.Chemscore.CHOScore>
2.9991

> <Gold.PLP.Chemscore.Metal>
0.0000

> <Gold.Chemscore.Hbonds>
donor molecule, donor type, donor heavy atom, donor atom, acceptor molecule, acceptor atom, score
      P1  H  7989  7998       L1     9  0.88
      P1  H  7997  8010       L1    11  0.84
      L1  C     4    18       P1  8028  1.00
      L1  C     6    19       P1 10175  1.00
      L1  C     7    20       P1  7948  1.00

> <Gold.PLP.Chemscore.Internal.Correction>
0.0541

> <Gold.Rescore>
     Score         DG    S(hbond)    S(metal)    S(lipo)     H(rot)  DE(clash)    DE(int)     intcor
     10.37     -10.45       0.95        0.00      37.28       1.00       0.00       0.07       ----

> <Gold.Chemscore.Fitness>
10.3749

> <Gold.Chemscore.DG>
-10.4499

> <Gold.Chemscore.ZeroCoef>
-5.4800

> <Gold.Chemscore.Hbond>
0.9486

> <Gold.Chemscore.Metal>
0.0000

> <Gold.Chemscore.Lipo>
37.2768

> <Gold.Chemscore.Internal_Hbond>
0.0000

> <Gold.Chemscore.DEClash>
0.0048

> <Gold.Chemscore.DEInternal>
0.0702

> <Gold.Chemscore.Rot>
1.0000

> <Gold.Chemscore.Internal.Correction>
   9.000000E+99

> <Gold.Chemscore.Hbonds>
donor molecule, donor type, donor heavy atom, donor atom, acceptor molecule, acceptor atom, score
      P1  H  7989  7998       L1     9  0.68
      P1  H  7997  8010       L1    11  0.16

> <Gold.Chemscore.Hbond.Weighted>
-3.1685

> <Gold.Chemscore.Metal.Weighted>
-0.0000

> <Gold.Chemscore.Lipo.Weighted>
-4.3614

> <Gold.Chemscore.Internal_Hbond.Weighted>
0.0000

> <Gold.Chemscore.DEClash.Weighted>
0.0048

> <Gold.Chemscore.DEInternal.Weighted>
0.0702

> <Gold.Chemscore.Rot.Weighted>
2.5600

> <Gold.Chemscore.Internal.Correction.Weighted>
   9.000000E+99

> <Gold.Protein.RotatedTorsions>
[ 6907 6896 6895 6894 ] final  112.88 input  -60.11 | X-H torsion
[ 7974 7965 7964 7962 ] final    4.74 input  175.53 | X-H torsion
[ 8008 7997 7996 7995 ] final  107.89 input   59.86 | X-H torsion
[ 10167 10162 10161 10158 ] final  -38.50 input  -65.29 | X-H torsion
[ 10718 10713 10712 10709 ] final  173.00 input   66.30 | X-H torsion
[ 10763 10752 10751 10750 ] final  -13.48 input  -60.55 | X-H torsion
[ 11005 11000 10999 10996 ] final -171.13 input  -57.11 | X-H torsion

> <Gold.Protein.ActiveResidues>
 VAL166  LYS551  ARG553  GLY616  TRP617  ASP618  TYR619  PRO620  LYS621  CYS622 
 ASP623  PHE694  ASN695  SER759  ASP760  ASP761  ALA762  ILE779  LEU786  VAL792 
 PHE793  MET794  SER795  GLU796  ALA797  LYS798  CYS799  TRP800  GLU811  SER814 

> <Gold.Protein.RotatedAtoms>
  152.4892  133.8454  159.7173 H   0  0  0  0  0  0  0  0  0  0  0  0  # atno 6907 bound_to 6896
  150.9005  133.7115  159.2887 H   0  0  0  0  0  0  0  0  0  0  0  0  # atno 6908 bound_to 6896
  151.4558  135.1038  159.9763 H   0  0  0  0  0  0  0  0  0  0  0  0  # atno 6909 bound_to 6896
  146.2443  140.0489  142.8376 H   0  0  0  0  0  0  0  0  0  0  0  0  # atno 7974 bound_to 7965
  156.1860  140.3086  155.9239 H   0  0  0  0  0  0  0  0  0  0  0  0  # atno 8008 bound_to 7997
  155.3280  140.0459  157.3058 H   0  0  0  0  0  0  0  0  0  0  0  0  # atno 8009 bound_to 7997
  154.5396  140.2257  155.8673 H   0  0  0  0  0  0  0  0  0  0  0  0  # atno 8010 bound_to 7997
  140.7090  143.3273  151.2649 H   0  0  0  0  0  0  0  0  0  0  0  0  # atno 10167 bound_to 10162
  156.9707  131.0089  151.2906 H   0  0  0  0  0  0  0  0  0  0  0  0  # atno 10718 bound_to 10713
  153.5139  135.7016  153.5766 H   0  0  0  0  0  0  0  0  0  0  0  0  # atno 10763 bound_to 10752
  153.3845  135.3911  155.1880 H   0  0  0  0  0  0  0  0  0  0  0  0  # atno 10764 bound_to 10752
  154.8701  135.3843  154.4621 H   0  0  0  0  0  0  0  0  0  0  0  0  # atno 10765 bound_to 10752
  140.5117  134.5795  157.5021 H   0  0  0  0  0  0  0  0  0  0  0  0  # atno 11005 bound_to 11000
  145.1002  140.9341  143.4717 LP  0  0  0  0  0  0  0  0  0  0  0  0  # atno 17320 bound_to 7965
  145.0681  139.3053  143.5846 LP  0  0  0  0  0  0  0  0  0  0  0  0  # atno 17321 bound_to 7965
  139.6745  143.9961  152.2773 LP  0  0  0  0  0  0  0  0  0  0  0  0  # atno 17342 bound_to 10162
  139.9571  144.6582  150.8116 LP  0  0  0  0  0  0  0  0  0  0  0  0  # atno 17343 bound_to 10162
  157.5595  130.8236  149.8247 LP  0  0  0  0  0  0  0  0  0  0  0  0  # atno 17370 bound_to 10713
  156.0284  130.3772  150.1757 LP  0  0  0  0  0  0  0  0  0  0  0  0  # atno 17371 bound_to 10713
  139.9655  134.7380  156.0147 LP  0  0  0  0  0  0  0  0  0  0  0  0  # atno 17394 bound_to 11000
  141.1382  133.6570  156.3653 LP  0  0  0  0  0  0  0  0  0  0  0  0  # atno 17395 bound_to 11000

$$$$
