AV-unprocessed.smi:2636|AV-procd|sdf|10258|dock4
  -GOLD-   2272014263D 1   1.00000     0.00000
 Structure written by MMmdl.
 36 37  0  0  0  0  0  0  0  0  1 V2000
  148.3409  140.5725  154.9959 C   0  0  0  0  0  0  0  0  0  0  0  0
  149.2773  139.3813  155.1089 C   0  0  0  0  0  0  0  0  0  0  0  0
  150.4992  139.4697  155.6937 C   0  0  0  0  0  0  0  0  0  0  0  0
  151.3667  138.3964  155.8176 N   0  0  0  0  0  0  0  0  0  0  0  0
  152.6308  138.4848  156.5374 C   0  0  0  0  0  0  0  0  0  0  0  0
  152.7509  139.7085  157.2026 O   0  0  0  0  0  0  0  0  0  0  0  0
  152.0164  139.8198  158.4157 C   0  0  0  0  0  0  0  0  0  0  0  0
  152.9332  140.2414  159.5474 C   0  0  0  0  0  0  0  0  0  0  0  0
  153.0914  141.4783  160.0595 C   0  0  0  0  0  0  0  0  0  0  0  0
  152.4772  142.7383  159.6062 C   0  0  0  0  0  0  0  0  0  0  0  0
  152.1299  142.9671  158.2551 C   0  0  0  0  0  0  0  0  0  0  0  0
  151.5210  144.1762  157.8668 C   0  0  0  0  0  0  0  0  0  0  0  0
  151.2584  145.1719  158.8259 C   0  0  0  0  0  0  0  0  0  0  0  0
  151.6092  144.9577  160.1721 C   0  0  0  0  0  0  0  0  0  0  0  0
  152.2162  143.7467  160.5583 C   0  0  0  0  0  0  0  0  0  0  0  0
  150.9880  137.1280  155.3314 C   0  0  0  0  0  0  0  0  0  0  0  0
  151.7021  136.1299  155.4267 O   0  0  0  0  0  0  0  0  0  0  0  0
  149.7353  137.0390  154.7267 N   0  0  0  0  0  0  0  0  0  0  0  0
  148.8289  138.0920  154.5733 C   0  0  0  0  0  0  0  0  0  0  0  0
  147.7484  137.8872  154.0226 O   0  0  0  0  0  0  0  0  0  0  0  0
  149.4559  136.1347  154.3755 H   0  0  0  0  0  0  0  0  0  0  0  0
  148.7748  141.4713  155.4353 H   0  0  0  0  0  0  0  0  0  0  0  0
  147.4023  140.3683  155.5125 H   0  0  0  0  0  0  0  0  0  0  0  0
  148.1183  140.7851  153.9497 H   0  0  0  0  0  0  0  0  0  0  0  0
  150.8123  140.4237  156.0934 H   0  0  0  0  0  0  0  0  0  0  0  0
  152.6838  137.6707  157.2629 H   0  0  0  0  0  0  0  0  0  0  0  0
  153.4599  138.3546  155.8397 H   0  0  0  0  0  0  0  0  0  0  0  0
  151.2245  140.5613  158.3050 H   0  0  0  0  0  0  0  0  0  0  0  0
  151.5481  138.8683  158.6506 H   0  0  0  0  0  0  0  0  0  0  0  0
  153.5023  139.4371  159.9900 H   0  0  0  0  0  0  0  0  0  0  0  0
  153.7723  141.5804  160.8920 H   0  0  0  0  0  0  0  0  0  0  0  0
  152.3378  142.2205  157.5031 H   0  0  0  0  0  0  0  0  0  0  0  0
  151.2582  144.3404  156.8323 H   0  0  0  0  0  0  0  0  0  0  0  0
  150.7920  146.0997  158.5290 H   0  0  0  0  0  0  0  0  0  0  0  0
  151.4106  145.7213  160.9096 H   0  0  0  0  0  0  0  0  0  0  0  0
  152.4748  143.5902  161.5956 H   0  0  0  0  0  0  0  0  0  0  0  0
  1  2  1  0  0  0  0
  1 22  1  0  0  0  0
  1 23  1  0  0  0  0
  1 24  1  0  0  0  0
  2 19  1  0  0  0  0
  2  3  2  0  0  0  0
  3  4  1  0  0  0  0
  3 25  1  0  0  0  0
  4  5  1  0  0  0  0
  4 16  1  0  0  0  0
  5  6  1  0  0  0  0
  5 26  1  0  0  0  0
  5 27  1  0  0  0  0
  6  7  1  0  0  0  0
  7  8  1  0  0  0  0
  7 28  1  0  0  0  0
  7 29  1  0  0  0  0
  8  9  2  0  0  0  0
  8 30  1  0  0  0  0
  9 10  1  0  0  0  0
  9 31  1  0  0  0  0
 10 15  1  0  0  0  0
 10 11  2  0  0  0  0
 11 12  1  0  0  0  0
 11 32  1  0  0  0  0
 12 13  2  0  0  0  0
 12 33  1  0  0  0  0
 13 14  1  0  0  0  0
 13 34  1  0  0  0  0
 14 15  2  0  0  0  0
 14 35  1  0  0  0  0
 15 36  1  0  0  0  0
 16 17  2  0  0  0  0
 16 18  1  0  0  0  0
 18 21  1  0  0  0  0
 18 19  1  0  0  0  0
 19 20  2  0  0  0  0
M  END
> <s_m_source_file>
AV-unprocessed.smi

> <i_m_source_file_index>
2636

> <i_lp_mmshare_version>
43012

> <i_f3d_flags>
0

> <s_epik_input>
Tz1jMVtuSF1jKD1PKW4oW2NIXWMxW0NIM10pW0NIMl1PW0NIMl0vW0NIXT1bQ0hdL2MyW2NIXVtjSF1bY0hdW2NIXVtjSF0y

> <s_epik_cmdline>
J2VwaWtfcHl0aG9uJywgJy1waCcsICc3LjAnLCAnLXRuJywgJzgnLCAnLW1hJywgJzIwMCcsICctbWV0YWxfYmluZGluZycsICctaW1hZScsICc8aW5maWxlLm1hZT4nLCAnLW9tYWUnLCAnPG91dGZpbGUubWFlPic=

> <r_lp_tautomer_probability>
0.999537

> <r_epik_Ionization_Penalty>
0.00179702

> <r_epik_Ionization_Penalty_Charging>
0.00179702

> <r_epik_Ionization_Penalty_Neutral>
9.83266e-13

> <r_epik_State_Penalty>
0.00121868

> <r_epik_Charging_Adjusted_Penalty>
0.0030157

> <i_epik_Tot_Q>
0

> <i_epik_Tot_abs_Q>
0

> <r_epik_Metal_State_Penalty>
0.826903

> <b_epik_Metal_Only>
0

> <s_epik_Chemistry_Notes>
This compound contains an acetal/aminal-like group ( X-CH(R)-Y where X, Y are N, S, or O) that may be acid/base labile, releasing an aldehyde.

> <s_lp_Force_Field>
OPLS_2005

> <r_lp_Energy>
2.54145

> <b_lp_Chiralities_Consistent>
1

> <s_lp_Variant>
AV-unprocessed.smi:2636-2

> <Gold.Version>
5.8.1

> <Gold.Id.Protein>
6NUR|6NUR_protein|mol2

> <Gold.PLP.Fitness>
57.2895

> <Gold.PLP.PLP>
-50.1137

> <Gold.PLP.part.hbond>
-3.0000

> <Gold.PLP.part.metal>
0.0000

> <Gold.PLP.part.buried>
-3.2321

> <Gold.PLP.part.nonpolar>
-44.6686

> <Gold.PLP.part.repulsive>
1.5713

> <Gold.PLP.ligand.clash>
0.0000

> <Gold.PLP.ligand.torsion>
0.8748

> <Gold.PLP.Chemscore.Hbond>
2.9500

> <Gold.PLP.Chemscore.CHOScore>
0.0000

> <Gold.PLP.Chemscore.Metal>
0.0000

> <Gold.Chemscore.Hbonds>
donor molecule, donor type, donor heavy atom, donor atom, acceptor molecule, acceptor atom, score
      P1  H  7997  8010       L1     6  0.80
      P1  H 10752 10764       L1    17  1.00

> <Gold.PLP.Chemscore.Internal.Correction>
0.0754

> <Gold.Rescore>
     Score         DG    S(hbond)    S(metal)    S(lipo)     H(rot)  DE(clash)    DE(int)     intcor
     19.88     -21.06       2.10        0.00     115.30       1.92       0.29       0.89       ----

> <Gold.Chemscore.Fitness>
19.8805

> <Gold.Chemscore.DG>
-21.0567

> <Gold.Chemscore.ZeroCoef>
-5.4800

> <Gold.Chemscore.Hbond>
2.0975

> <Gold.Chemscore.Metal>
0.0000

> <Gold.Chemscore.Lipo>
115.3022

> <Gold.Chemscore.Internal_Hbond>
0.0000

> <Gold.Chemscore.DEClash>
0.2886

> <Gold.Chemscore.DEInternal>
0.8875

> <Gold.Chemscore.Rot>
1.9216

> <Gold.Chemscore.Internal.Correction>
   9.000000E+99

> <Gold.Chemscore.Hbonds>
donor molecule, donor type, donor heavy atom, donor atom, acceptor molecule, acceptor atom, score
      P1  H  7997  8010       L1     6  0.12
      P1  H 10752 10764       L1    17  0.96

> <Gold.Chemscore.Hbond.Weighted>
-7.0056

> <Gold.Chemscore.Metal.Weighted>
-0.0000

> <Gold.Chemscore.Lipo.Weighted>
-13.4904

> <Gold.Chemscore.Internal_Hbond.Weighted>
0.0000

> <Gold.Chemscore.DEClash.Weighted>
0.2886

> <Gold.Chemscore.DEInternal.Weighted>
0.8875

> <Gold.Chemscore.Rot.Weighted>
4.9193

> <Gold.Chemscore.Internal.Correction.Weighted>
   9.000000E+99

> <Gold.Protein.RotatedTorsions>
[ 6907 6896 6895 6894 ] final -164.45 input  -60.11 | X-H torsion
[ 7974 7965 7964 7962 ] final  -58.16 input  175.53 | X-H torsion
[ 8008 7997 7996 7995 ] final   63.25 input   59.86 | X-H torsion
[ 10167 10162 10161 10158 ] final  124.29 input  -65.29 | X-H torsion
[ 10718 10713 10712 10709 ] final    9.66 input   66.30 | X-H torsion
[ 10763 10752 10751 10750 ] final  -54.54 input  -60.55 | X-H torsion
[ 11005 11000 10999 10996 ] final  -95.50 input  -57.11 | X-H torsion

> <Gold.Protein.ActiveResidues>
 VAL166  LYS551  ARG553  GLY616  TRP617  ASP618  TYR619  PRO620  LYS621  CYS622 
 ASP623  PHE694  ASN695  SER759  ASP760  ASP761  ALA762  ILE779  LEU786  VAL792 
 PHE793  MET794  SER795  GLU796  ALA797  LYS798  CYS799  TRP800  GLU811  SER814 

> <Gold.Protein.RotatedAtoms>
  151.4120  133.3724  159.2744 H   0  0  0  0  0  0  0  0  0  0  0  0  # atno 6907 bound_to 6896
  150.9356  134.8770  159.7590 H   0  0  0  0  0  0  0  0  0  0  0  0  # atno 6908 bound_to 6896
  152.5048  134.4067  159.9487 H   0  0  0  0  0  0  0  0  0  0  0  0  # atno 6909 bound_to 6896
  145.8425  140.8407  143.0027 H   0  0  0  0  0  0  0  0  0  0  0  0  # atno 7974 bound_to 7965
  155.6272  140.3496  155.4671 H   0  0  0  0  0  0  0  0  0  0  0  0  # atno 8008 bound_to 7997
  156.0032  140.1217  157.0551 H   0  0  0  0  0  0  0  0  0  0  0  0  # atno 8009 bound_to 7997
  154.4255  140.1096  156.5712 H   0  0  0  0  0  0  0  0  0  0  0  0  # atno 8010 bound_to 7997
  139.5750  144.6959  151.3677 H   0  0  0  0  0  0  0  0  0  0  0  0  # atno 10167 bound_to 10162
  156.9696  130.5964  149.5668 H   0  0  0  0  0  0  0  0  0  0  0  0  # atno 10718 bound_to 10713
  154.1764  135.6450  153.5023 H   0  0  0  0  0  0  0  0  0  0  0  0  # atno 10763 bound_to 10752
  153.0070  135.5395  154.6559 H   0  0  0  0  0  0  0  0  0  0  0  0  # atno 10764 bound_to 10752
  154.5912  135.2934  155.0606 H   0  0  0  0  0  0  0  0  0  0  0  0  # atno 10765 bound_to 10752
  141.1440  133.8031  157.0444 H   0  0  0  0  0  0  0  0  0  0  0  0  # atno 11005 bound_to 11000
  144.6733  140.0834  143.7468 LP  0  0  0  0  0  0  0  0  0  0  0  0  # atno 17320 bound_to 7965
  145.9449  139.2694  143.1247 LP  0  0  0  0  0  0  0  0  0  0  0  0  # atno 17321 bound_to 7965
  140.7033  143.7577  150.7439 LP  0  0  0  0  0  0  0  0  0  0  0  0  # atno 17342 bound_to 10162
  140.1094  143.4713  152.2379 LP  0  0  0  0  0  0  0  0  0  0  0  0  # atno 17343 bound_to 10162
  156.0288  130.5380  150.8479 LP  0  0  0  0  0  0  0  0  0  0  0  0  # atno 17370 bound_to 10713
  157.5601  131.0945  150.9571 LP  0  0  0  0  0  0  0  0  0  0  0  0  # atno 17371 bound_to 10713
  140.0672  134.9722  157.1406 LP  0  0  0  0  0  0  0  0  0  0  0  0  # atno 17394 bound_to 11000
  140.3763  134.2336  155.7174 LP  0  0  0  0  0  0  0  0  0  0  0  0  # atno 17395 bound_to 11000

$$$$
