AV-unprocessed.smi:2671|AV-procd|sdf|10347|dock7
  -GOLD-   2272014373D 1   1.00000     0.00000
 Structure written by MMmdl.
 28 29  0  0  0  0  0  0  0  0  2 V2000
  151.2866  138.0816  154.6119 O   0  0  0  0  0  0  0  0  0  0  0  0
  150.6660  139.1336  154.7506 C   0  0  0  0  0  0  0  0  0  0  0  0
  149.3302  139.2632  154.1707 C   0  0  0  0  0  0  0  0  0  0  0  0
  148.6497  140.4250  154.3363 C   0  0  0  0  0  0  0  0  0  0  0  0
  147.2663  140.6250  153.7403 C   0  0  0  0  0  0  0  0  0  0  0  0
  146.8621  141.8835  153.9138 F   0  0  0  0  0  0  0  0  0  0  0  0
  147.2899  140.3745  152.4316 F   0  0  0  0  0  0  0  0  0  0  0  0
  146.3666  139.8168  154.3038 F   0  0  0  0  0  0  0  0  0  0  0  0
  149.2289  141.4938  155.0458 N   0  0  0  0  0  0  0  0  0  0  0  0
  150.4019  141.3582  155.5425 C   0  0  0  0  0  0  0  0  0  0  0  0
  151.1468  142.7221  156.4545 S   0  0  0  0  0  0  0  0  0  0  0  0
  151.2872  142.0858  158.1516 C   0  0  0  0  0  0  0  0  0  0  0  0
  152.0767  143.0425  159.0553 C   0  0  1  0  0  0  0  0  0  0  0  0
  151.9776  144.5207  158.6628 C   0  0  0  0  0  0  0  0  0  0  0  0
  152.0268  145.2666  159.9902 C   0  0  0  0  0  0  0  0  0  0  0  0
  152.0795  144.1583  161.0411 C   0  0  0  0  0  0  0  0  0  0  0  0
  151.5503  143.0245  160.3731 O   0  0  0  0  0  0  0  0  0  0  0  0
  151.1585  140.2115  155.4272 N   0  5  0  0  0  0  0  0  0  0  0  0
  148.8945  138.4438  153.6178 H   0  0  0  0  0  0  0  0  0  0  0  0
  151.7897  141.1186  158.1178 H   0  0  0  0  0  0  0  0  0  0  0  0
  150.2906  141.9160  158.5605 H   0  0  0  0  0  0  0  0  0  0  0  0
  153.1240  142.7380  159.1017 H   0  0  0  0  0  0  0  0  0  0  0  0
  152.7816  144.8149  157.9873 H   0  0  0  0  0  0  0  0  0  0  0  0
  151.0309  144.7277  158.1619 H   0  0  0  0  0  0  0  0  0  0  0  0
  152.8883  145.9307  160.0645 H   0  0  0  0  0  0  0  0  0  0  0  0
  151.1265  145.8696  160.1138 H   0  0  0  0  0  0  0  0  0  0  0  0
  153.1103  143.9542  161.3359 H   0  0  0  0  0  0  0  0  0  0  0  0
  151.5088  144.3995  161.9383 H   0  0  0  0  0  0  0  0  0  0  0  0
  1  2  2  0  0  0  0
  2 18  1  0  0  0  0
  2  3  1  0  0  0  0
  3 19  1  0  0  0  0
  3  4  2  0  0  0  0
  4  5  1  0  0  0  0
  4  9  1  0  0  0  0
  5  6  1  0  0  0  0
  5  7  1  0  0  0  0
  5  8  1  0  0  0  0
  9 10  2  0  0  0  0
 10 11  1  0  0  0  0
 10 18  1  0  0  0  0
 11 12  1  0  0  0  0
 12 13  1  0  0  0  0
 12 20  1  0  0  0  0
 12 21  1  0  0  0  0
 13 17  1  0  0  0  0
 13 14  1  0  0  0  0
 13 22  1  0  0  0  0
 14 15  1  0  0  0  0
 14 23  1  0  0  0  0
 14 24  1  0  0  0  0
 15 16  1  0  0  0  0
 15 25  1  0  0  0  0
 15 26  1  0  0  0  0
 16 17  1  0  0  0  0
 16 27  1  0  0  0  0
 16 28  1  0  0  0  0
M  CHG  1  18  -1
M  END
> <s_m_source_file>
AV-unprocessed.smi

> <i_m_source_file_index>
2671

> <i_lp_mmshare_version>
43012

> <i_f3d_flags>
0

> <s_epik_input>
W09IXWMxW2NIXWMoQyhGKShGKUYpbmMobjEpU1tDSDJdW0NAQEhdMltDSDJdW0NIMl1bQ0gyXU8y

> <s_epik_cmdline>
J2VwaWtfcHl0aG9uJywgJy1waCcsICc3LjAnLCAnLXRuJywgJzgnLCAnLW1hJywgJzIwMCcsICctbWV0YWxfYmluZGluZycsICctaW1hZScsICc8aW5maWxlLm1hZT4nLCAnLW9tYWUnLCAnPG91dGZpbGUubWFlPic=

> <r_lp_tautomer_probability>
1

> <r_epik_Ionization_Penalty>
0.972901

> <r_epik_Ionization_Penalty_Charging>
0.00136034

> <r_epik_Ionization_Penalty_Neutral>
0.971541

> <r_epik_State_Penalty>
0.242243

> <r_epik_Charging_Adjusted_Penalty>
0.243604

> <i_epik_Tot_Q>
-1

> <i_epik_Tot_abs_Q>
1

> <r_epik_Metal_State_Penalty>
0.0617458

> <b_epik_Metal_Only>
0

> <s_lp_Force_Field>
OPLS_2005

> <r_lp_Energy>
24.5089

> <b_lp_Chiralities_Consistent>
1

> <s_lp_Variant>
AV-unprocessed.smi:2671-2

> <Gold.Version>
5.8.1

> <Gold.Id.Protein>
6NUR|6NUR_protein|mol2

> <Gold.PLP.Fitness>
38.7773

> <Gold.PLP.PLP>
-39.7082

> <Gold.PLP.part.hbond>
-1.7639

> <Gold.PLP.part.metal>
0.0000

> <Gold.PLP.part.buried>
-2.3323

> <Gold.PLP.part.nonpolar>
-35.6192

> <Gold.PLP.part.repulsive>
0.3590

> <Gold.PLP.ligand.clash>
0.0000

> <Gold.PLP.ligand.torsion>
0.5653

> <Gold.PLP.Chemscore.Hbond>
0.0634

> <Gold.PLP.Chemscore.CHOScore>
0.0000

> <Gold.PLP.Chemscore.Metal>
0.0000

> <Gold.Chemscore.Hbonds>
donor molecule, donor type, donor heavy atom, donor atom, acceptor molecule, acceptor atom, score
      P1  H  7989  7998       L1    18  0.04

> <Gold.PLP.Chemscore.Internal.Correction>
0.0096

> <Gold.Rescore>
     Score         DG    S(hbond)    S(metal)    S(lipo)     H(rot)  DE(clash)    DE(int)     intcor
     10.31     -11.28       0.00        0.00      85.99       1.66       0.35       0.62       ----

> <Gold.Chemscore.Fitness>
10.3059

> <Gold.Chemscore.DG>
-11.2800

> <Gold.Chemscore.ZeroCoef>
-5.4800

> <Gold.Chemscore.Hbond>
0.0004

> <Gold.Chemscore.Metal>
0.0000

> <Gold.Chemscore.Lipo>
85.9883

> <Gold.Chemscore.Internal_Hbond>
0.0000

> <Gold.Chemscore.DEClash>
0.3544

> <Gold.Chemscore.DEInternal>
0.6197

> <Gold.Chemscore.Rot>
1.6649

> <Gold.Chemscore.Internal.Correction>
   9.000000E+99

> <Gold.Chemscore.Hbond.Weighted>
-0.0014

> <Gold.Chemscore.Metal.Weighted>
-0.0000

> <Gold.Chemscore.Lipo.Weighted>
-10.0606

> <Gold.Chemscore.Internal_Hbond.Weighted>
0.0000

> <Gold.Chemscore.DEClash.Weighted>
0.3544

> <Gold.Chemscore.DEInternal.Weighted>
0.6197

> <Gold.Chemscore.Rot.Weighted>
4.2620

> <Gold.Chemscore.Internal.Correction.Weighted>
   9.000000E+99

> <Gold.Protein.RotatedTorsions>
[ 6907 6896 6895 6894 ] final  -97.17 input  -60.11 | X-H torsion
[ 7974 7965 7964 7962 ] final -100.13 input  175.53 | X-H torsion
[ 8008 7997 7996 7995 ] final   37.57 input   59.86 | X-H torsion
[ 10167 10162 10161 10158 ] final  -76.10 input  -65.29 | X-H torsion
[ 10718 10713 10712 10709 ] final   12.31 input   66.30 | X-H torsion
[ 10763 10752 10751 10750 ] final   26.82 input  -60.55 | X-H torsion
[ 11005 11000 10999 10996 ] final   61.08 input  -57.11 | X-H torsion

> <Gold.Protein.ActiveResidues>
 VAL166  LYS551  ARG553  GLY616  TRP617  ASP618  TYR619  PRO620  LYS621  CYS622 
 ASP623  PHE694  ASN695  SER759  ASP760  ASP761  ALA762  ILE779  LEU786  VAL792 
 PHE793  MET794  SER795  GLU796  ALA797  LYS798  CYS799  TRP800  GLU811  SER814 

> <Gold.Protein.RotatedAtoms>
  150.7009  134.1389  159.4097 H   0  0  0  0  0  0  0  0  0  0  0  0  # atno 6907 bound_to 6896
  151.9374  135.0226  160.0543 H   0  0  0  0  0  0  0  0  0  0  0  0  # atno 6908 bound_to 6896
  152.2123  133.4885  159.5153 H   0  0  0  0  0  0  0  0  0  0  0  0  # atno 6909 bound_to 6896
  145.2986  140.9371  143.2837 H   0  0  0  0  0  0  0  0  0  0  0  0  # atno 7974 bound_to 7965
  155.2060  140.3319  155.4336 H   0  0  0  0  0  0  0  0  0  0  0  0  # atno 8008 bound_to 7997
  156.2389  140.1885  156.7093 H   0  0  0  0  0  0  0  0  0  0  0  0  # atno 8009 bound_to 7997
  154.6110  140.0609  156.9479 H   0  0  0  0  0  0  0  0  0  0  0  0  # atno 8010 bound_to 7997
  140.4886  143.2385  151.7944 H   0  0  0  0  0  0  0  0  0  0  0  0  # atno 10167 bound_to 10162
  157.0083  130.6107  149.5705 H   0  0  0  0  0  0  0  0  0  0  0  0  # atno 10718 bound_to 10713
  153.0597  135.6551  154.0493 H   0  0  0  0  0  0  0  0  0  0  0  0  # atno 10763 bound_to 10752
  154.0163  135.2924  155.3388 H   0  0  0  0  0  0  0  0  0  0  0  0  # atno 10764 bound_to 10752
  154.6929  135.5275  153.8485 H   0  0  0  0  0  0  0  0  0  0  0  0  # atno 10765 bound_to 10752
  140.0186  134.6186  155.9672 H   0  0  0  0  0  0  0  0  0  0  0  0  # atno 11005 bound_to 11000
  144.9113  139.4525  143.6586 LP  0  0  0  0  0  0  0  0  0  0  0  0  # atno 17320 bound_to 7965
  146.3160  139.7922  142.8983 LP  0  0  0  0  0  0  0  0  0  0  0  0  # atno 17321 bound_to 7965
  139.4847  144.4679  151.9461 LP  0  0  0  0  0  0  0  0  0  0  0  0  # atno 17342 bound_to 10162
  140.3766  144.2789  150.5913 LP  0  0  0  0  0  0  0  0  0  0  0  0  # atno 17343 bound_to 10162
  156.0145  130.5239  150.8093 LP  0  0  0  0  0  0  0  0  0  0  0  0  # atno 17370 bound_to 10713
  157.5339  131.0938  150.9918 LP  0  0  0  0  0  0  0  0  0  0  0  0  # atno 17371 bound_to 10713
  141.1759  133.6540  156.4828 LP  0  0  0  0  0  0  0  0  0  0  0  0  # atno 17394 bound_to 11000
  140.4426  134.7001  157.4999 LP  0  0  0  0  0  0  0  0  0  0  0  0  # atno 17395 bound_to 11000

$$$$
