AV-unprocessed.smi:1699|AV-procd|sdf|6815|dock1
  -GOLD-   22720 7593D 1   1.00000     0.00000
 Structure written by MMmdl.
 37 38  0  0  0  0  0  0  0  0  1 V2000
  146.6070  138.5580  152.7679 C   0  0  0  0  0  0  0  0  0  0  0  0
  147.3938  139.6563  153.4648 C   0  0  0  0  0  0  0  0  0  0  0  0
  146.8447  140.9537  153.5452 C   0  0  0  0  0  0  0  0  0  0  0  0
  147.5725  141.9676  154.1910 C   0  0  0  0  0  0  0  0  0  0  0  0
  148.8275  141.6390  154.7314 C   0  0  0  0  0  0  0  0  0  0  0  0
  149.3604  140.4026  154.6581 N   0  0  0  0  0  0  0  0  0  0  0  0
  148.6704  139.4118  154.0390 C   0  0  0  0  0  0  0  0  0  0  0  0
  149.1680  138.0826  153.9274 N   0  0  0  0  0  0  0  0  0  0  0  0
  149.7372  137.3179  154.8758 C   0  0  0  0  0  0  0  0  0  0  0  0
  149.9548  137.6658  156.0365 O   0  0  0  0  0  0  0  0  0  0  0  0
  150.0440  136.1046  154.3936 N   0  0  0  0  0  0  0  0  0  0  0  0
  150.6585  135.0126  155.1467 C   0  0  2  0  0  0  0  0  0  0  0  0
  152.0547  135.4464  155.6176 C   0  0  0  0  0  0  0  0  0  0  0  0
  150.7092  133.7410  154.2774 C   0  0  2  0  0  0  0  0  0  0  0  0
  149.3399  133.1394  153.9498 C   0  0  0  0  0  0  0  0  0  0  0  0
  149.6921  131.6925  153.6951 C   0  0  0  0  0  0  0  0  0  0  0  0
  150.7616  131.4461  154.7537 C   0  0  0  0  0  0  0  0  0  0  0  0
  151.4129  132.6985  154.9508 O   0  0  0  0  0  0  0  0  0  0  0  0
  145.6437  138.9243  152.4114 H   0  0  0  0  0  0  0  0  0  0  0  0
  146.4173  137.7302  153.4517 H   0  0  0  0  0  0  0  0  0  0  0  0
  147.1612  138.1796  151.9085 H   0  0  0  0  0  0  0  0  0  0  0  0
  145.8769  141.1727  153.1184 H   0  0  0  0  0  0  0  0  0  0  0  0
  147.1792  142.9703  154.2702 H   0  0  0  0  0  0  0  0  0  0  0  0
  149.4198  142.3878  155.2361 H   0  0  0  0  0  0  0  0  0  0  0  0
  149.0666  137.6604  153.0166 H   0  0  0  0  0  0  0  0  0  0  0  0
  149.8282  135.9149  153.4260 H   0  0  0  0  0  0  0  0  0  0  0  0
  150.0608  134.7857  156.0312 H   0  0  0  0  0  0  0  0  0  0  0  0
  152.5351  134.6608  156.2013 H   0  0  0  0  0  0  0  0  0  0  0  0
  151.9980  136.3337  156.2490 H   0  0  0  0  0  0  0  0  0  0  0  0
  152.7053  135.6778  154.7735 H   0  0  0  0  0  0  0  0  0  0  0  0
  151.2369  133.9440  153.3439 H   0  0  0  0  0  0  0  0  0  0  0  0
  148.6708  133.2138  154.8084 H   0  0  0  0  0  0  0  0  0  0  0  0
  148.8565  133.6174  153.0973 H   0  0  0  0  0  0  0  0  0  0  0  0
  148.8393  131.0191  153.7847 H   0  0  0  0  0  0  0  0  0  0  0  0
  150.1159  131.5803  152.6962 H   0  0  0  0  0  0  0  0  0  0  0  0
  150.3024  131.1444  155.6958 H   0  0  0  0  0  0  0  0  0  0  0  0
  151.4680  130.6704  154.4575 H   0  0  0  0  0  0  0  0  0  0  0  0
  1  2  1  0  0  0  0
  1 19  1  0  0  0  0
  1 20  1  0  0  0  0
  1 21  1  0  0  0  0
  2  7  1  0  0  0  0
  2  3  2  0  0  0  0
  3  4  1  0  0  0  0
  3 22  1  0  0  0  0
  4  5  2  0  0  0  0
  4 23  1  0  0  0  0
  5  6  1  0  0  0  0
  5 24  1  0  0  0  0
  6  7  2  0  0  0  0
  7  8  1  0  0  0  0
  8  9  1  0  0  0  0
  8 25  1  0  0  0  0
  9 10  2  0  0  0  0
  9 11  1  0  0  0  0
 11 12  1  0  0  0  0
 11 26  1  0  0  0  0
 12 13  1  0  0  0  0
 12 14  1  0  0  0  0
 12 27  1  0  0  0  0
 13 28  1  0  0  0  0
 13 29  1  0  0  0  0
 13 30  1  0  0  0  0
 14 18  1  0  0  0  0
 14 15  1  0  0  0  0
 14 31  1  0  0  0  0
 15 16  1  0  0  0  0
 15 32  1  0  0  0  0
 15 33  1  0  0  0  0
 16 17  1  0  0  0  0
 16 34  1  0  0  0  0
 16 35  1  0  0  0  0
 17 18  1  0  0  0  0
 17 36  1  0  0  0  0
 17 37  1  0  0  0  0
M  END
> <s_m_source_file>
AV-unprocessed.smi

> <i_m_source_file_index>
1699

> <i_lp_mmshare_version>
43012

> <i_f3d_flags>
0

> <s_epik_input>
W0NIM11jMVtjSF1bY0hdW2NIXW5jMVtOSF1DKD1PKVtOSF1bQ0BIXShbQ0gzXSlbQ0BASF0yW0NIMl1bQ0gyXVtDSDJdTzI=

> <s_epik_cmdline>
J2VwaWtfcHl0aG9uJywgJy1waCcsICc3LjAnLCAnLXRuJywgJzgnLCAnLW1hJywgJzIwMCcsICctbWV0YWxfYmluZGluZycsICctaW1hZScsICc8aW5maWxlLm1hZT4nLCAnLW9tYWUnLCAnPG91dGZpbGUubWFlPic=

> <r_lp_tautomer_probability>
1

> <r_epik_Ionization_Penalty>
5.52788e-05

> <r_epik_Ionization_Penalty_Charging>
0

> <r_epik_Ionization_Penalty_Neutral>
5.52788e-05

> <r_epik_State_Penalty>
-0

> <r_epik_Charging_Adjusted_Penalty>
0

> <i_epik_Tot_Q>
0

> <i_epik_Tot_abs_Q>
0

> <r_epik_Metal_State_Penalty>
-0

> <b_epik_Metal_Only>
0

> <s_lp_Force_Field>
OPLS_2005

> <r_lp_Energy>
20.4349

> <b_lp_Chiralities_Consistent>
1

> <s_lp_Variant>
AV-unprocessed.smi:1699-1

> <Gold.Version>
5.8.1

> <Gold.Id.Protein>
6NUR|6NUR_protein|mol2

> <Gold.PLP.Fitness>
39.3281

> <Gold.PLP.PLP>
-31.8474

> <Gold.PLP.part.hbond>
-2.0000

> <Gold.PLP.part.metal>
0.0000

> <Gold.PLP.part.buried>
-1.4172

> <Gold.PLP.part.nonpolar>
-27.5367

> <Gold.PLP.part.repulsive>
0.1395

> <Gold.PLP.ligand.clash>
0.0000

> <Gold.PLP.ligand.torsion>
0.4613

> <Gold.PLP.Chemscore.Hbond>
2.0000

> <Gold.PLP.Chemscore.CHOScore>
0.7967

> <Gold.PLP.Chemscore.Metal>
0.0000

> <Gold.Chemscore.Hbonds>
donor molecule, donor type, donor heavy atom, donor atom, acceptor molecule, acceptor atom, score
      L1  H     8    25       P1  7948  1.00
      L1  H    11    26       P1  7948  0.65
      L1  C     5    24       P1  8028  0.97

> <Gold.PLP.Chemscore.Internal.Correction>
0.0132

> <Gold.Rescore>
     Score         DG    S(hbond)    S(metal)    S(lipo)     H(rot)  DE(clash)    DE(int)     intcor
     14.36     -15.66       1.62        0.00      67.46       1.22       0.04       1.26       ----

> <Gold.Chemscore.Fitness>
14.3576

> <Gold.Chemscore.DG>
-15.6562

> <Gold.Chemscore.ZeroCoef>
-5.4800

> <Gold.Chemscore.Hbond>
1.6188

> <Gold.Chemscore.Metal>
0.0000

> <Gold.Chemscore.Lipo>
67.4583

> <Gold.Chemscore.Internal_Hbond>
0.0000

> <Gold.Chemscore.DEClash>
0.0359

> <Gold.Chemscore.DEInternal>
1.2627

> <Gold.Chemscore.Rot>
1.2200

> <Gold.Chemscore.Internal.Correction>
   9.000000E+99

> <Gold.Chemscore.Hbonds>
donor molecule, donor type, donor heavy atom, donor atom, acceptor molecule, acceptor atom, score
      L1  H     8    25       P1  7948  0.98
      L1  H    11    26       P1  7948  0.06

> <Gold.Chemscore.Hbond.Weighted>
-5.4068

> <Gold.Chemscore.Metal.Weighted>
-0.0000

> <Gold.Chemscore.Lipo.Weighted>
-7.8926

> <Gold.Chemscore.Internal_Hbond.Weighted>
0.0000

> <Gold.Chemscore.DEClash.Weighted>
0.0359

> <Gold.Chemscore.DEInternal.Weighted>
1.2627

> <Gold.Chemscore.Rot.Weighted>
3.1232

> <Gold.Chemscore.Internal.Correction.Weighted>
   9.000000E+99

> <Gold.Protein.RotatedTorsions>
[ 6907 6896 6895 6894 ] final  176.10 input  -60.11 | X-H torsion
[ 7974 7965 7964 7962 ] final -105.27 input  175.53 | X-H torsion
[ 8008 7997 7996 7995 ] final -100.08 input   59.86 | X-H torsion
[ 10167 10162 10161 10158 ] final  -32.69 input  -65.29 | X-H torsion
[ 10718 10713 10712 10709 ] final   -2.49 input   66.30 | X-H torsion
[ 10763 10752 10751 10750 ] final  -84.48 input  -60.55 | X-H torsion
[ 11005 11000 10999 10996 ] final -125.89 input  -57.11 | X-H torsion

> <Gold.Protein.ActiveResidues>
 VAL166  LYS551  ARG553  GLY616  TRP617  ASP618  TYR619  PRO620  LYS621  CYS622 
 ASP623  PHE694  ASN695  SER759  ASP760  ASP761  ALA762  ILE779  LEU786  VAL792 
 PHE793  MET794  SER795  GLU796  ALA797  LYS798  CYS799  TRP800  GLU811  SER814 

> <Gold.Protein.RotatedAtoms>
  151.7256  133.3316  159.3326 H   0  0  0  0  0  0  0  0  0  0  0  0  # atno 6907 bound_to 6896
  150.7634  134.6409  159.6246 H   0  0  0  0  0  0  0  0  0  0  0  0  # atno 6908 bound_to 6896
  152.3625  134.6855  160.0254 H   0  0  0  0  0  0  0  0  0  0  0  0  # atno 6909 bound_to 6896
  145.2325  140.9176  143.3196 H   0  0  0  0  0  0  0  0  0  0  0  0  # atno 7974 bound_to 7965
  154.8236  140.0443  157.1428 H   0  0  0  0  0  0  0  0  0  0  0  0  # atno 8008 bound_to 7997
  154.9231  140.3029  155.5186 H   0  0  0  0  0  0  0  0  0  0  0  0  # atno 8009 bound_to 7997
  156.2982  140.2337  156.4283 H   0  0  0  0  0  0  0  0  0  0  0  0  # atno 8010 bound_to 7997
  140.7217  143.3675  151.1841 H   0  0  0  0  0  0  0  0  0  0  0  0  # atno 10167 bound_to 10162
  156.7900  130.5358  149.5737 H   0  0  0  0  0  0  0  0  0  0  0  0  # atno 10718 bound_to 10713
  154.6000  135.5519  153.7365 H   0  0  0  0  0  0  0  0  0  0  0  0  # atno 10763 bound_to 10752
  153.0151  135.6364  154.1728 H   0  0  0  0  0  0  0  0  0  0  0  0  # atno 10764 bound_to 10752
  154.1668  135.2894  155.3073 H   0  0  0  0  0  0  0  0  0  0  0  0  # atno 10765 bound_to 10752
  140.9726  134.0785  157.3853 H   0  0  0  0  0  0  0  0  0  0  0  0  # atno 11005 bound_to 11000
  144.9663  139.3927  143.6331 LP  0  0  0  0  0  0  0  0  0  0  0  0  # atno 17320 bound_to 7965
  146.3349  139.8740  142.8835 LP  0  0  0  0  0  0  0  0  0  0  0  0  # atno 17321 bound_to 7965
  139.7240  143.9178  152.2996 LP  0  0  0  0  0  0  0  0  0  0  0  0  # atno 17342 bound_to 10162
  139.8944  144.6947  150.8734 LP  0  0  0  0  0  0  0  0  0  0  0  0  # atno 17343 bound_to 10162
  156.1165  130.6078  151.0128 LP  0  0  0  0  0  0  0  0  0  0  0  0  # atno 17370 bound_to 10713
  157.6605  131.0881  150.7849 LP  0  0  0  0  0  0  0  0  0  0  0  0  # atno 17371 bound_to 10713
  139.8918  135.0121  156.6811 LP  0  0  0  0  0  0  0  0  0  0  0  0  # atno 17394 bound_to 11000
  140.7307  133.9062  155.8209 LP  0  0  0  0  0  0  0  0  0  0  0  0  # atno 17395 bound_to 11000

$$$$
