AV-unprocessed.smi:1797|AV-procd|sdf|7256|dock3
  -GOLD-   22720 8503D 1   1.00000     0.00000
 Structure written by MMmdl.
 30 31  0  0  0  0  0  0  0  0  1 V2000
  150.3257  136.9582  158.9788 C   0  0  0  0  0  0  0  0  0  0  0  0
  149.8066  136.1714  157.8243 C   0  0  0  0  0  0  0  0  0  0  0  0
  149.7416  134.8351  157.8332 N   0  0  0  0  0  0  0  0  0  0  0  0
  149.2274  134.3259  156.6495 N   0  0  0  0  0  0  0  0  0  0  0  0
  148.9151  135.2952  155.7771 C   0  0  0  0  0  0  0  0  0  0  0  0
  148.3753  135.0744  154.4762 N   0  0  0  0  0  0  0  0  0  0  0  0
  147.4906  134.1666  154.0108 C   0  0  0  0  0  0  0  0  0  0  0  0
  147.0002  133.3218  154.7580 O   0  0  0  0  0  0  0  0  0  0  0  0
  147.1921  134.2371  152.7031 N   0  0  0  0  0  0  0  0  0  0  0  0
  146.2712  133.3548  151.9942 C   0  0  1  0  0  0  0  0  0  0  0  0
  144.8311  133.8452  152.1889 C   0  0  0  0  0  0  0  0  0  0  0  0
  143.8321  132.9227  151.4726 C   0  0  0  0  0  0  0  0  0  0  0  0
  144.2528  132.5627  150.0399 C   0  0  0  0  0  0  0  0  0  0  0  0
  143.4152  132.1187  149.2579 O   0  0  0  0  0  0  0  0  0  0  0  0
  145.5406  132.7085  149.6819 N   0  0  0  0  0  0  0  0  0  0  0  0
  146.6054  133.3025  150.4897 C   0  0  0  0  0  0  0  0  0  0  0  0
  149.2397  136.9267  156.3400 S   0  0  0  0  0  0  0  0  0  0  0  0
  149.9133  136.5749  159.9126 H   0  0  0  0  0  0  0  0  0  0  0  0
  150.0459  138.0071  158.8797 H   0  0  0  0  0  0  0  0  0  0  0  0
  151.4128  136.8880  159.0187 H   0  0  0  0  0  0  0  0  0  0  0  0
  148.7190  135.7133  153.7741 H   0  0  0  0  0  0  0  0  0  0  0  0
  147.6386  134.9609  152.1579 H   0  0  0  0  0  0  0  0  0  0  0  0
  146.3477  132.3496  152.4141 H   0  0  0  0  0  0  0  0  0  0  0  0
  144.5894  133.8883  153.2515 H   0  0  0  0  0  0  0  0  0  0  0  0
  144.7283  134.8626  151.8077 H   0  0  0  0  0  0  0  0  0  0  0  0
  143.7339  131.9908  152.0304 H   0  0  0  0  0  0  0  0  0  0  0  0
  142.8433  133.3823  151.4576 H   0  0  0  0  0  0  0  0  0  0  0  0
  145.7924  132.4320  148.7438 H   0  0  0  0  0  0  0  0  0  0  0  0
  146.7759  134.3109  150.1101 H   0  0  0  0  0  0  0  0  0  0  0  0
  147.5280  132.7456  150.3234 H   0  0  0  0  0  0  0  0  0  0  0  0
  1  2  1  0  0  0  0
  1 18  1  0  0  0  0
  1 19  1  0  0  0  0
  1 20  1  0  0  0  0
  2 17  1  0  0  0  0
  2  3  2  0  0  0  0
  3  4  1  0  0  0  0
  4  5  2  0  0  0  0
  5  6  1  0  0  0  0
  5 17  1  0  0  0  0
  6  7  1  0  0  0  0
  6 21  1  0  0  0  0
  7  8  2  0  0  0  0
  7  9  1  0  0  0  0
  9 10  1  0  0  0  0
  9 22  1  0  0  0  0
 10 16  1  0  0  0  0
 10 11  1  0  0  0  0
 10 23  1  0  0  0  0
 11 12  1  0  0  0  0
 11 24  1  0  0  0  0
 11 25  1  0  0  0  0
 12 13  1  0  0  0  0
 12 26  1  0  0  0  0
 12 27  1  0  0  0  0
 13 14  2  0  0  0  0
 13 15  1  0  0  0  0
 15 16  1  0  0  0  0
 15 28  1  0  0  0  0
 16 29  1  0  0  0  0
 16 30  1  0  0  0  0
M  END
> <s_m_source_file>
AV-unprocessed.smi

> <i_m_source_file_index>
1797

> <i_lp_mmshare_version>
43012

> <i_f3d_flags>
0

> <s_epik_input>
W0NIM11jMW5uYyhzMSlbTkhdQyg9TylbTkhdW0NAQEhdMltDSDJdW0NIMl1DKD1PKVtOSF1bQ0gyXTI=

> <s_epik_cmdline>
J2VwaWtfcHl0aG9uJywgJy1waCcsICc3LjAnLCAnLXRuJywgJzgnLCAnLW1hJywgJzIwMCcsICctbWV0YWxfYmluZGluZycsICctaW1hZScsICc8aW5maWxlLm1hZT4nLCAnLW9tYWUnLCAnPG91dGZpbGUubWFlPic=

> <r_lp_tautomer_probability>
1

> <r_epik_Ionization_Penalty>
0.00282347

> <r_epik_Ionization_Penalty_Charging>
0

> <r_epik_Ionization_Penalty_Neutral>
0.00282347

> <r_epik_State_Penalty>
-0

> <r_epik_Charging_Adjusted_Penalty>
0

> <i_epik_Tot_Q>
0

> <i_epik_Tot_abs_Q>
0

> <r_epik_Metal_State_Penalty>
0.357935

> <b_epik_Metal_Only>
0

> <s_lp_Force_Field>
OPLS_2005

> <r_lp_Energy>
10.7191

> <b_lp_Chiralities_Consistent>
1

> <s_lp_Variant>
AV-unprocessed.smi:1797-2

> <Gold.Version>
5.8.1

> <Gold.Id.Protein>
6NUR|6NUR_protein|mol2

> <Gold.PLP.Fitness>
32.7600

> <Gold.PLP.PLP>
-22.1047

> <Gold.PLP.part.hbond>
-5.0000

> <Gold.PLP.part.metal>
0.0000

> <Gold.PLP.part.buried>
-4.4685

> <Gold.PLP.part.nonpolar>
-12.2224

> <Gold.PLP.part.repulsive>
0.4858

> <Gold.PLP.ligand.clash>
0.0000

> <Gold.PLP.ligand.torsion>
0.6009

> <Gold.PLP.Chemscore.Hbond>
3.9520

> <Gold.PLP.Chemscore.CHOScore>
0.0000

> <Gold.PLP.Chemscore.Metal>
0.0000

> <Gold.Chemscore.Hbonds>
donor molecule, donor type, donor heavy atom, donor atom, acceptor molecule, acceptor atom, score
      L1  H     6    21       P1  7948  1.00
      L1  H     9    22       P1  7948  1.00
      P1  H  6896  6907       L1     3  1.00
      P1  H 10785 10796       L1    14  0.94

> <Gold.PLP.Chemscore.Internal.Correction>
0.0012

> <Gold.Rescore>
     Score         DG    S(hbond)    S(metal)    S(lipo)     H(rot)  DE(clash)    DE(int)     intcor
     18.00     -18.70       3.64        0.00      30.86       1.00       0.00       0.70       ----

> <Gold.Chemscore.Fitness>
17.9967

> <Gold.Chemscore.DG>
-18.7009

> <Gold.Chemscore.ZeroCoef>
-5.4800

> <Gold.Chemscore.Hbond>
3.6438

> <Gold.Chemscore.Metal>
0.0000

> <Gold.Chemscore.Lipo>
30.8603

> <Gold.Chemscore.Internal_Hbond>
0.0000

> <Gold.Chemscore.DEClash>
0.0000

> <Gold.Chemscore.DEInternal>
0.7042

> <Gold.Chemscore.Rot>
1.0000

> <Gold.Chemscore.Internal.Correction>
   9.000000E+99

> <Gold.Chemscore.Hbonds>
donor molecule, donor type, donor heavy atom, donor atom, acceptor molecule, acceptor atom, score
      L1  H     6    21       P1  7948  0.91
      L1  H     9    22       P1  7948  0.86
      P1  H  6896  6907       L1     3  0.48
      P1  H 10785 10796       L1    14  0.85

> <Gold.Chemscore.Hbond.Weighted>
-12.1703

> <Gold.Chemscore.Metal.Weighted>
-0.0000

> <Gold.Chemscore.Lipo.Weighted>
-3.6107

> <Gold.Chemscore.Internal_Hbond.Weighted>
0.0000

> <Gold.Chemscore.DEClash.Weighted>
0.0000

> <Gold.Chemscore.DEInternal.Weighted>
0.7042

> <Gold.Chemscore.Rot.Weighted>
2.5600

> <Gold.Chemscore.Internal.Correction.Weighted>
   9.000000E+99

> <Gold.Protein.RotatedTorsions>
[ 6907 6896 6895 6894 ] final  -88.39 input  -60.11 | X-H torsion
[ 7974 7965 7964 7962 ] final  -40.92 input  175.53 | X-H torsion
[ 8008 7997 7996 7995 ] final   -3.23 input   59.86 | X-H torsion
[ 10167 10162 10161 10158 ] final  -25.86 input  -65.29 | X-H torsion
[ 10718 10713 10712 10709 ] final    4.19 input   66.30 | X-H torsion
[ 10763 10752 10751 10750 ] final  179.37 input  -60.55 | X-H torsion
[ 11005 11000 10999 10996 ] final  -13.40 input  -57.11 | X-H torsion

> <Gold.Protein.ActiveResidues>
 VAL166  LYS551  ARG553  GLY616  TRP617  ASP618  TYR619  PRO620  LYS621  CYS622 
 ASP623  PHE694  ASN695  SER759  ASP760  ASP761  ALA762  ILE779  LEU786  VAL792 
 PHE793  MET794  SER795  GLU796  ALA797  LYS798  CYS799  TRP800  GLU811  SER814 

> <Gold.Protein.RotatedAtoms>
  150.6868  134.2749  159.4602 H   0  0  0  0  0  0  0  0  0  0  0  0  # atno 6907 bound_to 6896
  152.0668  134.9557  160.0584 H   0  0  0  0  0  0  0  0  0  0  0  0  # atno 6908 bound_to 6896
  152.0962  133.4191  159.4603 H   0  0  0  0  0  0  0  0  0  0  0  0  # atno 6909 bound_to 6896
  146.0260  140.6791  142.9155 H   0  0  0  0  0  0  0  0  0  0  0  0  # atno 7974 bound_to 7965
  154.6271  140.2514  155.7478 H   0  0  0  0  0  0  0  0  0  0  0  0  # atno 8008 bound_to 7997
  156.2459  140.2914  156.0526 H   0  0  0  0  0  0  0  0  0  0  0  0  # atno 8009 bound_to 7997
  155.1803  140.0389  157.2871 H   0  0  0  0  0  0  0  0  0  0  0  0  # atno 8010 bound_to 7997
  140.7285  143.4228  151.0924 H   0  0  0  0  0  0  0  0  0  0  0  0  # atno 10167 bound_to 10162
  156.8889  130.5680  149.5650 H   0  0  0  0  0  0  0  0  0  0  0  0  # atno 10718 bound_to 10713
  154.5198  135.2793  155.1272 H   0  0  0  0  0  0  0  0  0  0  0  0  # atno 10763 bound_to 10752
  154.2834  135.6281  153.5360 H   0  0  0  0  0  0  0  0  0  0  0  0  # atno 10764 bound_to 10752
  152.9934  135.5657  154.5684 H   0  0  0  0  0  0  0  0  0  0  0  0  # atno 10765 bound_to 10752
  140.7757  133.8402  155.9247 H   0  0  0  0  0  0  0  0  0  0  0  0  # atno 11005 bound_to 11000
  144.7010  140.3650  143.7156 LP  0  0  0  0  0  0  0  0  0  0  0  0  # atno 17320 bound_to 7965
  145.7117  139.1686  143.2535 LP  0  0  0  0  0  0  0  0  0  0  0  0  # atno 17321 bound_to 7965
  139.7875  143.8265  152.3147 LP  0  0  0  0  0  0  0  0  0  0  0  0  # atno 17342 bound_to 10162
  139.8238  144.7284  150.9538 LP  0  0  0  0  0  0  0  0  0  0  0  0  # atno 17343 bound_to 10162
  156.0639  130.5686  150.9249 LP  0  0  0  0  0  0  0  0  0  0  0  0  # atno 17370 bound_to 10713
  157.6095  131.0937  150.8819 LP  0  0  0  0  0  0  0  0  0  0  0  0  # atno 17371 bound_to 10713
  140.9531  134.1753  157.4713 LP  0  0  0  0  0  0  0  0  0  0  0  0  # atno 17394 bound_to 11000
  139.8749  134.9916  156.5559 LP  0  0  0  0  0  0  0  0  0  0  0  0  # atno 17395 bound_to 11000

$$$$
