AV-unprocessed.smi:128|AV-procd|sdf|1155|dock7
  -GOLD-   2262018293D 1   1.00000     0.00000
 Structure written by MMmdl.
 41 44  0  0  0  0  0  0  0  0  1 V2000
  154.2649  138.0786  158.8605 O   0  0  0  0  0  0  0  0  0  0  0  0
  153.5646  139.0925  158.8613 C   0  0  0  0  0  0  0  0  0  0  0  0
  153.5375  140.0471  159.9642 C   0  0  0  0  0  0  0  0  0  0  0  0
  154.2909  139.8251  161.0546 F   0  0  0  0  0  0  0  0  0  0  0  0
  152.7666  141.1544  159.9084 C   0  0  0  0  0  0  0  0  0  0  0  0
  151.9631  141.4624  158.8249 N   0  0  0  0  0  0  0  0  0  0  0  0
  151.1367  142.7261  158.8228 C   0  0  2  0  0  0  0  0  0  0  0  0
  151.6449  143.7006  157.7518 C   0  0  0  0  0  0  0  0  0  0  0  0
  152.3799  144.7376  158.5766 C   0  0  0  0  0  0  0  0  0  0  0  0
  151.5911  144.7152  159.8797 C   0  0  0  0  0  0  0  0  0  0  0  0
  151.2689  143.3435  160.0695 O   0  0  0  0  0  0  0  0  0  0  0  0
  151.9343  140.6023  157.7052 C   0  0  0  0  0  0  0  0  0  0  0  0
  151.2605  140.8746  156.7088 O   0  0  0  0  0  0  0  0  0  0  0  0
  152.7253  139.4306  157.7706 N   0  0  0  0  0  0  0  0  0  0  0  0
  152.7064  138.5381  156.6219 C   0  0  0  0  0  0  0  0  0  0  0  0
  151.8708  137.3157  156.8675 C   0  0  0  0  0  0  0  0  0  0  0  0
  151.1339  137.0085  157.9391 N   0  0  0  0  0  0  0  0  0  0  0  0
  150.5620  135.7879  157.6646 N   0  0  0  0  0  0  0  0  0  0  0  0
  150.9885  135.4419  156.4452 C   0  0  0  0  0  0  0  0  0  0  0  0
  150.6706  134.2376  155.6788 C   0  0  0  0  0  0  0  0  0  0  0  0
  150.1597  134.3286  154.3633 C   0  0  0  0  0  0  0  0  0  0  0  0
  149.8537  133.1624  153.6351 C   0  0  0  0  0  0  0  0  0  0  0  0
  150.0556  131.8955  154.2146 C   0  0  0  0  0  0  0  0  0  0  0  0
  149.6392  130.3201  153.2317 Br  0  0  0  0  0  0  0  0  0  0  0  0
  150.5655  131.7957  155.5229 C   0  0  0  0  0  0  0  0  0  0  0  0
  150.8716  132.9615  156.2516 C   0  0  0  0  0  0  0  0  0  0  0  0
  151.8182  136.3697  155.8954 O   0  0  0  0  0  0  0  0  0  0  0  0
  152.7868  141.8278  160.7523 H   0  0  0  0  0  0  0  0  0  0  0  0
  150.0950  142.4360  158.6819 H   0  0  0  0  0  0  0  0  0  0  0  0
  152.2686  143.2080  157.0046 H   0  0  0  0  0  0  0  0  0  0  0  0
  150.7840  144.1473  157.2531 H   0  0  0  0  0  0  0  0  0  0  0  0
  153.4090  144.4224  158.7518 H   0  0  0  0  0  0  0  0  0  0  0  0
  152.4002  145.7215  158.1073 H   0  0  0  0  0  0  0  0  0  0  0  0
  152.1544  145.1152  160.7229 H   0  0  0  0  0  0  0  0  0  0  0  0
  150.6691  145.2898  159.7791 H   0  0  0  0  0  0  0  0  0  0  0  0
  152.3387  139.0856  155.7535 H   0  0  0  0  0  0  0  0  0  0  0  0
  153.7361  138.2625  156.3880 H   0  0  0  0  0  0  0  0  0  0  0  0
  149.9960  135.2901  153.8992 H   0  0  0  0  0  0  0  0  0  0  0  0
  149.4626  133.2417  152.6315 H   0  0  0  0  0  0  0  0  0  0  0  0
  150.7212  130.8247  155.9694 H   0  0  0  0  0  0  0  0  0  0  0  0
  151.2613  132.8666  157.2546 H   0  0  0  0  0  0  0  0  0  0  0  0
  1  2  2  0  0  0  0
  2 14  1  0  0  0  0
  2  3  1  0  0  0  0
  3  4  1  0  0  0  0
  3  5  2  0  0  0  0
  5  6  1  0  0  0  0
  5 28  1  0  0  0  0
  6  7  1  0  0  0  0
  6 12  1  0  0  0  0
  7 11  1  0  0  0  0
  7  8  1  0  0  0  0
  7 29  1  0  0  0  0
  8  9  1  0  0  0  0
  8 30  1  0  0  0  0
  8 31  1  0  0  0  0
  9 10  1  0  0  0  0
  9 32  1  0  0  0  0
  9 33  1  0  0  0  0
 10 11  1  0  0  0  0
 10 34  1  0  0  0  0
 10 35  1  0  0  0  0
 12 13  2  0  0  0  0
 12 14  1  0  0  0  0
 14 15  1  0  0  0  0
 15 16  1  0  0  0  0
 15 36  1  0  0  0  0
 15 37  1  0  0  0  0
 16 27  1  0  0  0  0
 16 17  2  0  0  0  0
 17 18  1  0  0  0  0
 18 19  2  0  0  0  0
 19 20  1  0  0  0  0
 19 27  1  0  0  0  0
 20 26  1  0  0  0  0
 20 21  2  0  0  0  0
 21 22  1  0  0  0  0
 21 38  1  0  0  0  0
 22 23  2  0  0  0  0
 22 39  1  0  0  0  0
 23 24  1  0  0  0  0
 23 25  1  0  0  0  0
 25 26  2  0  0  0  0
 25 40  1  0  0  0  0
 26 41  1  0  0  0  0
M  END
> <s_m_source_file>
AV-unprocessed.smi

> <i_m_source_file_index>
128

> <i_lp_mmshare_version>
43012

> <i_f3d_flags>
0

> <s_epik_input>
TzFbQ0gyXVtDSDJdW0NIMl1bQ0BIXTFuKFtjSF1jKEYpYzI9TyljKD1PKW4yW0NIMl1jM25uYyhvMyktYzRbY0hdW2NIXWMoQnIpW2NIXVtjSF00

> <s_epik_cmdline>
J2VwaWtfcHl0aG9uJywgJy1waCcsICc3LjAnLCAnLXRuJywgJzgnLCAnLW1hJywgJzIwMCcsICctbWV0YWxfYmluZGluZycsICctaW1hZScsICc8aW5maWxlLm1hZT4nLCAnLW9tYWUnLCAnPG91dGZpbGUubWFlPic=

> <r_lp_tautomer_probability>
1

> <r_epik_Ionization_Penalty>
2.55537e-09

> <r_epik_Ionization_Penalty_Charging>
2.54231e-09

> <r_epik_Ionization_Penalty_Neutral>
1.30653e-11

> <r_epik_State_Penalty>
-0

> <r_epik_Charging_Adjusted_Penalty>
2.54231e-09

> <i_epik_Tot_Q>
0

> <i_epik_Tot_abs_Q>
0

> <r_epik_Metal_State_Penalty>
-0

> <b_epik_Metal_Only>
0

> <s_epik_Chemistry_Notes>
This compound contains an acetal/aminal-like group ( X-CH(R)-Y where X, Y are N, S, or O) that may be acid/base labile, releasing an aldehyde.

> <s_lp_Force_Field>
OPLS_2005

> <r_lp_Energy>
32.4944

> <b_lp_Chiralities_Consistent>
1

> <s_lp_Variant>
AV-unprocessed.smi:128-1

> <Gold.Version>
5.8.1

> <Gold.Id.Protein>
6NUR|6NUR_protein|mol2

> <Gold.PLP.Fitness>
51.0093

> <Gold.PLP.PLP>
-48.4359

> <Gold.PLP.part.hbond>
-2.1012

> <Gold.PLP.part.metal>
0.0000

> <Gold.PLP.part.buried>
-6.5334

> <Gold.PLP.part.nonpolar>
-40.4468

> <Gold.PLP.part.repulsive>
0.0750

> <Gold.PLP.ligand.clash>
0.0000

> <Gold.PLP.ligand.torsion>
1.2738

> <Gold.PLP.Chemscore.Hbond>
1.7040

> <Gold.PLP.Chemscore.CHOScore>
0.0000

> <Gold.PLP.Chemscore.Metal>
0.0000

> <Gold.Chemscore.Hbonds>
donor molecule, donor type, donor heavy atom, donor atom, acceptor molecule, acceptor atom, score
      P1  H  6896  6908       L1    18  0.32
      P1  H 10752 10764       L1    27  1.00

> <Gold.PLP.Chemscore.Internal.Correction>
0.0089

> <Gold.Rescore>
     Score         DG    S(hbond)    S(metal)    S(lipo)     H(rot)  DE(clash)    DE(int)     intcor
     16.39     -17.69       1.51        0.00      98.41       1.70       0.05       1.26       ----

> <Gold.Chemscore.Fitness>
16.3895

> <Gold.Chemscore.DG>
-17.6926

> <Gold.Chemscore.ZeroCoef>
-5.4800

> <Gold.Chemscore.Hbond>
1.5105

> <Gold.Chemscore.Metal>
0.0000

> <Gold.Chemscore.Lipo>
98.4136

> <Gold.Chemscore.Internal_Hbond>
0.0000

> <Gold.Chemscore.DEClash>
0.0469

> <Gold.Chemscore.DEInternal>
1.2561

> <Gold.Chemscore.Rot>
1.6980

> <Gold.Chemscore.Internal.Correction>
   9.000000E+99

> <Gold.Chemscore.Hbonds>
donor molecule, donor type, donor heavy atom, donor atom, acceptor molecule, acceptor atom, score
      P1  H  6896  6908       L1    18  0.14
      P1  H 10752 10764       L1    27  0.65

> <Gold.Chemscore.Hbond.Weighted>
-5.0451

> <Gold.Chemscore.Metal.Weighted>
-0.0000

> <Gold.Chemscore.Lipo.Weighted>
-11.5144

> <Gold.Chemscore.Internal_Hbond.Weighted>
0.0000

> <Gold.Chemscore.DEClash.Weighted>
0.0469

> <Gold.Chemscore.DEInternal.Weighted>
1.2561

> <Gold.Chemscore.Rot.Weighted>
4.3469

> <Gold.Chemscore.Internal.Correction.Weighted>
   9.000000E+99

> <Gold.Protein.RotatedTorsions>
[ 6907 6896 6895 6894 ] final  174.35 input  -60.11 | X-H torsion
[ 7974 7965 7964 7962 ] final -121.42 input  175.53 | X-H torsion
[ 8008 7997 7996 7995 ] final  144.22 input   59.86 | X-H torsion
[ 10167 10162 10161 10158 ] final   40.11 input  -65.29 | X-H torsion
[ 10718 10713 10712 10709 ] final    8.47 input   66.30 | X-H torsion
[ 10763 10752 10751 10750 ] final  -37.89 input  -60.55 | X-H torsion
[ 11005 11000 10999 10996 ] final  152.32 input  -57.11 | X-H torsion

> <Gold.Protein.ActiveResidues>
 VAL166  LYS551  ARG553  GLY616  TRP617  ASP618  TYR619  PRO620  LYS621  CYS622 
 ASP623  PHE694  ASN695  SER759  ASP760  ASP761  ALA762  ILE779  LEU786  VAL792 
 PHE793  MET794  SER795  GLU796  ALA797  LYS798  CYS799  TRP800  GLU811  SER814 

> <Gold.Protein.RotatedAtoms>
  151.7536  133.3329  159.3398 H   0  0  0  0  0  0  0  0  0  0  0  0  # atno 6907 bound_to 6896
  150.7525  134.6170  159.6125 H   0  0  0  0  0  0  0  0  0  0  0  0  # atno 6908 bound_to 6896
  152.3452  134.7083  160.0304 H   0  0  0  0  0  0  0  0  0  0  0  0  # atno 6909 bound_to 6896
  145.0405  140.8141  143.4269 H   0  0  0  0  0  0  0  0  0  0  0  0  # atno 7974 bound_to 7965
  156.2913  140.2241  156.5017 H   0  0  0  0  0  0  0  0  0  0  0  0  # atno 8008 bound_to 7997
  154.7684  140.0468  157.1052 H   0  0  0  0  0  0  0  0  0  0  0  0  # atno 8009 bound_to 7997
  154.9904  140.3089  155.4912 H   0  0  0  0  0  0  0  0  0  0  0  0  # atno 8010 bound_to 7997
  140.3774  144.2025  150.6131 H   0  0  0  0  0  0  0  0  0  0  0  0  # atno 10167 bound_to 10162
  156.9521  130.5901  149.5657 H   0  0  0  0  0  0  0  0  0  0  0  0  # atno 10718 bound_to 10713
  153.9038  135.6799  153.4754 H   0  0  0  0  0  0  0  0  0  0  0  0  # atno 10763 bound_to 10752
  153.1115  135.4781  154.9041 H   0  0  0  0  0  0  0  0  0  0  0  0  # atno 10764 bound_to 10752
  154.7562  135.3198  154.8420 H   0  0  0  0  0  0  0  0  0  0  0  0  # atno 10765 bound_to 10752
  140.1297  134.8810  157.2186 H   0  0  0  0  0  0  0  0  0  0  0  0  # atno 11005 bound_to 11000
  145.1653  139.2435  143.5370 LP  0  0  0  0  0  0  0  0  0  0  0  0  # atno 17320 bound_to 7965
  146.3509  140.1391  142.8595 LP  0  0  0  0  0  0  0  0  0  0  0  0  # atno 17321 bound_to 7965
  140.4972  143.2329  151.8731 LP  0  0  0  0  0  0  0  0  0  0  0  0  # atno 17342 bound_to 10162
  139.4798  144.5100  151.8946 LP  0  0  0  0  0  0  0  0  0  0  0  0  # atno 17343 bound_to 10162
  156.0358  130.5446  150.8650 LP  0  0  0  0  0  0  0  0  0  0  0  0  # atno 17370 bound_to 10713
  157.5714  131.0946  150.9411 LP  0  0  0  0  0  0  0  0  0  0  0  0  # atno 17371 bound_to 10713
  140.2858  134.3297  155.7329 LP  0  0  0  0  0  0  0  0  0  0  0  0  # atno 17394 bound_to 11000
  141.2168  133.7505  156.9431 LP  0  0  0  0  0  0  0  0  0  0  0  0  # atno 17395 bound_to 11000

$$$$
