AV-unprocessed.smi:519|AV-procd|sdf|2796|dock2
  -GOLD-   2262023273D 1   1.00000     0.00000
 Structure written by MMmdl.
 37 39  0  0  0  0  0  0  0  0  2 V2000
  151.2688  136.3440  154.1648 O   0  0  0  0  0  0  0  0  0  0  0  0
  151.4729  137.6083  154.7606 C   0  0  0  0  0  0  0  0  0  0  0  0
  150.3218  138.5442  154.5709 C   0  0  0  0  0  0  0  0  0  0  0  0
  149.3196  138.4203  153.6543 N   0  3  0  0  0  0  0  0  0  0  0  0
  148.4322  139.4900  153.7741 C   0  0  0  0  0  0  0  0  0  0  0  0
  147.2765  139.7989  153.0632 C   0  0  0  0  0  0  0  0  0  0  0  0
  146.6006  140.9791  153.4364 C   0  0  0  0  0  0  0  0  0  0  0  0
  147.0764  141.7985  154.4804 C   0  0  0  0  0  0  0  0  0  0  0  0
  148.2472  141.4726  155.1959 C   0  0  0  0  0  0  0  0  0  0  0  0
  148.9121  140.3059  154.8187 C   0  0  0  0  0  0  0  0  0  0  0  0
  150.0798  139.6847  155.2788 N   0  0  0  0  0  0  0  0  0  0  0  0
  150.8475  140.2990  156.3723 C   0  0  0  0  0  0  0  0  0  0  0  0
  150.3578  139.8431  157.7549 C   0  0  0  0  0  0  0  0  0  0  0  0
  151.2940  140.2449  158.7461 O   0  0  0  0  0  0  0  0  0  0  0  0
  151.3595  141.5782  159.0912 C   0  0  0  0  0  0  0  0  0  0  0  0
  150.8099  142.6250  158.3076 C   0  0  0  0  0  0  0  0  0  0  0  0
  150.9192  143.9648  158.7272 C   0  0  0  0  0  0  0  0  0  0  0  0
  151.5781  144.2772  159.9299 C   0  0  0  0  0  0  0  0  0  0  0  0
  152.1270  143.2469  160.7146 C   0  0  0  0  0  0  0  0  0  0  0  0
  152.0168  141.9055  160.2988 C   0  0  0  0  0  0  0  0  0  0  0  0
  152.6957  140.6601  161.2849 Cl  0  0  0  0  0  0  0  0  0  0  0  0
  151.0412  136.4728  153.2565 H   0  0  0  0  0  0  0  0  0  0  0  0
  151.6500  137.4710  155.8275 H   0  0  0  0  0  0  0  0  0  0  0  0
  152.3714  138.0574  154.3367 H   0  0  0  0  0  0  0  0  0  0  0  0
  146.9121  139.1733  152.2617 H   0  0  0  0  0  0  0  0  0  0  0  0
  145.7009  141.2627  152.9098 H   0  0  0  0  0  0  0  0  0  0  0  0
  146.5354  142.6981  154.7358 H   0  0  0  0  0  0  0  0  0  0  0  0
  148.6070  142.1133  155.9872 H   0  0  0  0  0  0  0  0  0  0  0  0
  151.9060  140.0757  156.2384 H   0  0  0  0  0  0  0  0  0  0  0  0
  150.7490  141.3809  156.2800 H   0  0  0  0  0  0  0  0  0  0  0  0
  149.3813  140.2849  157.9575 H   0  0  0  0  0  0  0  0  0  0  0  0
  150.2452  138.7579  157.7610 H   0  0  0  0  0  0  0  0  0  0  0  0
  150.2986  142.4271  157.3779 H   0  0  0  0  0  0  0  0  0  0  0  0
  150.4966  144.7548  158.1239 H   0  0  0  0  0  0  0  0  0  0  0  0
  151.6626  145.3051  160.2503 H   0  0  0  0  0  0  0  0  0  0  0  0
  152.6334  143.4872  161.6380 H   0  0  0  0  0  0  0  0  0  0  0  0
  149.2577  137.6571  152.9925 H   0  0  0  0  0  0  0  0  0  0  0  0
  1  2  1  0  0  0  0
  1 22  1  0  0  0  0
  2  3  1  0  0  0  0
  2 23  1  0  0  0  0
  2 24  1  0  0  0  0
  3 11  1  0  0  0  0
  3  4  2  0  0  0  0
  4  5  1  0  0  0  0
  4 37  1  0  0  0  0
  5 10  2  0  0  0  0
  5  6  1  0  0  0  0
  6  7  2  0  0  0  0
  6 25  1  0  0  0  0
  7  8  1  0  0  0  0
  7 26  1  0  0  0  0
  8  9  2  0  0  0  0
  8 27  1  0  0  0  0
  9 10  1  0  0  0  0
  9 28  1  0  0  0  0
 10 11  1  0  0  0  0
 11 12  1  0  0  0  0
 12 13  1  0  0  0  0
 12 29  1  0  0  0  0
 12 30  1  0  0  0  0
 13 14  1  0  0  0  0
 13 31  1  0  0  0  0
 13 32  1  0  0  0  0
 14 15  1  0  0  0  0
 15 20  1  0  0  0  0
 15 16  2  0  0  0  0
 16 17  1  0  0  0  0
 16 33  1  0  0  0  0
 17 18  2  0  0  0  0
 17 34  1  0  0  0  0
 18 19  1  0  0  0  0
 18 35  1  0  0  0  0
 19 20  2  0  0  0  0
 19 36  1  0  0  0  0
 20 21  1  0  0  0  0
M  CHG  1   4   1
M  END
> <s_m_source_file>
AV-unprocessed.smi

> <i_m_source_file_index>
519

> <i_lp_mmshare_version>
43012

> <i_f3d_flags>
0

> <s_epik_input>
W2NIXTFbY0hdW2NIXVtjSF1jKGMxMiluKGMobjIpW0NIMl1bT0hdKVtDSDJdW0NIMl1PYzNbY0hdW2NIXVtjSF1bY0hdYzNDbA==

> <s_epik_cmdline>
J2VwaWtfcHl0aG9uJywgJy1waCcsICc3LjAnLCAnLXRuJywgJzgnLCAnLW1hJywgJzIwMCcsICctbWV0YWxfYmluZGluZycsICctaW1hZScsICc8aW5maWxlLm1hZT4nLCAnLW9tYWUnLCAnPG91dGZpbGUubWFlPic=

> <r_lp_tautomer_probability>
1

> <r_epik_Ionization_Penalty>
1.54869

> <r_epik_Ionization_Penalty_Charging>
1.54784

> <r_epik_Ionization_Penalty_Neutral>
0.000855784

> <r_epik_State_Penalty>
1.6418

> <r_epik_Charging_Adjusted_Penalty>
3.18963

> <i_epik_Tot_Q>
1

> <i_epik_Tot_abs_Q>
1

> <r_epik_Metal_State_Penalty>
5.69628

> <b_epik_Metal_Only>
0

> <s_lp_Force_Field>
OPLS_2005

> <r_lp_Energy>
16.8459

> <b_lp_Chiralities_Consistent>
1

> <s_lp_Variant>
AV-unprocessed.smi:519-2

> <Gold.Version>
5.8.1

> <Gold.Id.Protein>
6NUR|6NUR_protein|mol2

> <Gold.PLP.Fitness>
64.5119

> <Gold.PLP.PLP>
-54.1898

> <Gold.PLP.part.hbond>
-4.2858

> <Gold.PLP.part.metal>
0.0000

> <Gold.PLP.part.buried>
0.9102

> <Gold.PLP.part.nonpolar>
-51.3129

> <Gold.PLP.part.repulsive>
0.0735

> <Gold.PLP.ligand.clash>
0.0000

> <Gold.PLP.ligand.torsion>
0.8935

> <Gold.PLP.Chemscore.Hbond>
4.0000

> <Gold.PLP.Chemscore.CHOScore>
0.0000

> <Gold.PLP.Chemscore.Metal>
0.0000

> <Gold.Chemscore.Hbonds>
donor molecule, donor type, donor heavy atom, donor atom, acceptor molecule, acceptor atom, score
      L1  H     1    22       P1  7949  1.00
      L1  H     4    37       P1  7948  2.00
      P1  H 10752 10763       L1     1  1.00

> <Gold.PLP.Chemscore.Internal.Correction>
0.1091

> <Gold.Rescore>
     Score         DG    S(hbond)    S(metal)    S(lipo)     H(rot)  DE(clash)    DE(int)     intcor
     22.70     -23.96       2.72        0.00     129.50       2.25       0.61       0.66       ----

> <Gold.Chemscore.Fitness>
22.7031

> <Gold.Chemscore.DG>
-23.9644

> <Gold.Chemscore.ZeroCoef>
-5.4800

> <Gold.Chemscore.Hbond>
2.7233

> <Gold.Chemscore.Metal>
0.0000

> <Gold.Chemscore.Lipo>
129.4970

> <Gold.Chemscore.Internal_Hbond>
0.0000

> <Gold.Chemscore.DEClash>
0.6062

> <Gold.Chemscore.DEInternal>
0.6551

> <Gold.Chemscore.Rot>
2.2510

> <Gold.Chemscore.Internal.Correction>
   9.000000E+99

> <Gold.Chemscore.Hbonds>
donor molecule, donor type, donor heavy atom, donor atom, acceptor molecule, acceptor atom, score
      L1  H     1    22       P1  7949  0.28
      L1  H     4    37       P1  7948  0.98
      P1  H 10752 10763       L1     1  0.21

> <Gold.Chemscore.Hbond.Weighted>
-9.0959

> <Gold.Chemscore.Metal.Weighted>
-0.0000

> <Gold.Chemscore.Lipo.Weighted>
-15.1511

> <Gold.Chemscore.Internal_Hbond.Weighted>
0.0000

> <Gold.Chemscore.DEClash.Weighted>
0.6062

> <Gold.Chemscore.DEInternal.Weighted>
0.6551

> <Gold.Chemscore.Rot.Weighted>
5.7626

> <Gold.Chemscore.Internal.Correction.Weighted>
   9.000000E+99

> <Gold.Protein.RotatedTorsions>
[ 6907 6896 6895 6894 ] final  132.32 input  -60.11 | X-H torsion
[ 7974 7965 7964 7962 ] final   20.58 input  175.53 | X-H torsion
[ 8008 7997 7996 7995 ] final   21.11 input   59.86 | X-H torsion
[ 10167 10162 10161 10158 ] final  -84.87 input  -65.29 | X-H torsion
[ 10718 10713 10712 10709 ] final  -56.89 input   66.30 | X-H torsion
[ 10763 10752 10751 10750 ] final   41.27 input  -60.55 | X-H torsion
[ 11005 11000 10999 10996 ] final  141.96 input  -57.11 | X-H torsion

> <Gold.Protein.ActiveResidues>
 VAL166  LYS551  ARG553  GLY616  TRP617  ASP618  TYR619  PRO620  LYS621  CYS622 
 ASP623  PHE694  ASN695  SER759  ASP760  ASP761  ALA762  ILE779  LEU786  VAL792 
 PHE793  MET794  SER795  GLU796  ALA797  LYS798  CYS799  TRP800  GLU811  SER814 

> <Gold.Protein.RotatedAtoms>
  152.3336  133.5986  159.5826 H   0  0  0  0  0  0  0  0  0  0  0  0  # atno 6907 bound_to 6896
  150.7437  133.9830  159.3591 H   0  0  0  0  0  0  0  0  0  0  0  0  # atno 6908 bound_to 6896
  151.7702  135.0789  160.0410 H   0  0  0  0  0  0  0  0  0  0  0  0  # atno 6909 bound_to 6896
  146.2106  139.8149  142.8692 H   0  0  0  0  0  0  0  0  0  0  0  0  # atno 7974 bound_to 7965
  154.9456  140.3059  155.5099 H   0  0  0  0  0  0  0  0  0  0  0  0  # atno 8008 bound_to 7997
  156.2992  140.2328  156.4467 H   0  0  0  0  0  0  0  0  0  0  0  0  # atno 8009 bound_to 7997
  154.8103  140.0429  157.1326 H   0  0  0  0  0  0  0  0  0  0  0  0  # atno 8010 bound_to 7997
  140.4091  143.2630  151.9041 H   0  0  0  0  0  0  0  0  0  0  0  0  # atno 10167 bound_to 10162
  156.1253  130.4163  150.0366 H   0  0  0  0  0  0  0  0  0  0  0  0  # atno 10718 bound_to 10713
  152.9913  135.6167  154.2760 H   0  0  0  0  0  0  0  0  0  0  0  0  # atno 10763 bound_to 10752
  154.2491  135.2786  155.2825 H   0  0  0  0  0  0  0  0  0  0  0  0  # atno 10764 bound_to 10752
  154.5303  135.5790  153.6811 H   0  0  0  0  0  0  0  0  0  0  0  0  # atno 10765 bound_to 10752
  140.0440  134.9290  157.0896 H   0  0  0  0  0  0  0  0  0  0  0  0  # atno 11005 bound_to 11000
  145.3157  141.0231  143.3529 LP  0  0  0  0  0  0  0  0  0  0  0  0  # atno 17320 bound_to 7965
  144.8903  139.4783  143.6681 LP  0  0  0  0  0  0  0  0  0  0  0  0  # atno 17321 bound_to 7965
  139.4783  144.5555  151.8320 LP  0  0  0  0  0  0  0  0  0  0  0  0  # atno 17342 bound_to 10162
  140.4657  144.1659  150.5911 LP  0  0  0  0  0  0  0  0  0  0  0  0  # atno 17343 bound_to 10162
  156.8293  130.9387  151.3638 LP  0  0  0  0  0  0  0  0  0  0  0  0  # atno 17370 bound_to 10713
  157.6435  130.8825  149.9493 LP  0  0  0  0  0  0  0  0  0  0  0  0  # atno 17371 bound_to 10713
  140.4022  134.2070  155.7163 LP  0  0  0  0  0  0  0  0  0  0  0  0  # atno 17394 bound_to 11000
  141.1898  133.8231  157.0944 LP  0  0  0  0  0  0  0  0  0  0  0  0  # atno 17395 bound_to 11000

$$$$
