AV-unprocessed.smi:1762|AV-procd|sdf|7104|dock1
  -GOLD-   22720 8323D 1   1.00000     0.00000
 Structure written by MMmdl.
 52 53  0  0  0  0  0  0  0  0  1 V2000
  146.1481  129.6667  151.2544 C   0  0  0  0  0  0  0  0  0  0  0  0
  145.1029  130.6802  151.7534 C   0  0  1  0  0  0  0  0  0  0  0  0
  145.7105  131.8147  152.6016 C   0  0  0  0  0  0  0  0  0  0  0  0
  146.4569  132.8056  151.8059 N   0  0  0  0  0  0  0  0  0  0  0  0
  147.0685  133.9006  152.6104 C   0  0  1  0  0  0  0  0  0  0  0  0
  146.0758  135.0405  152.9411 C   0  0  0  0  0  0  0  0  0  0  0  0
  145.0317  134.8015  153.5494 O   0  0  0  0  0  0  0  0  0  0  0  0
  146.4099  136.2705  152.5193 N   0  0  0  0  0  0  0  0  0  0  0  0
  145.6160  137.4739  152.7344 C   0  0  0  0  0  0  0  0  0  0  0  0
  146.2668  138.7041  152.0800 C   0  0  0  0  0  0  0  0  0  0  0  0
  147.1008  139.5036  153.0631 C   0  0  0  0  0  0  0  0  0  0  0  0
  146.8151  140.8632  153.3109 C   0  0  0  0  0  0  0  0  0  0  0  0
  147.6247  141.5630  154.2263 C   0  0  0  0  0  0  0  0  0  0  0  0
  148.6841  140.8801  154.8545 C   0  0  0  0  0  0  0  0  0  0  0  0
  148.8877  139.5222  154.5378 C   0  0  0  0  0  0  0  0  0  0  0  0
  148.1176  138.8420  153.6609 N   0  0  0  0  0  0  0  0  0  0  0  0
  147.8185  133.4342  153.9039 C   0  0  0  0  0  0  0  0  0  0  0  0
  148.4119  134.5913  154.7315 C   0  0  0  0  0  0  0  0  0  0  0  0
  148.8925  132.3589  153.6405 C   0  0  0  0  0  0  0  0  0  0  0  0
  145.5792  133.2955  150.7374 C   0  0  0  0  0  0  0  0  0  0  0  0
  145.0149  132.1591  149.8649 C   0  0  2  0  0  0  0  0  0  0  0  0
  144.0286  132.6730  148.8102 C   0  0  0  0  0  0  0  0  0  0  0  0
  144.3287  131.2194  150.6849 O   0  0  0  0  0  0  0  0  0  0  0  0
  146.6406  129.1746  152.0934 H   0  0  0  0  0  0  0  0  0  0  0  0
  146.9263  130.1396  150.6557 H   0  0  0  0  0  0  0  0  0  0  0  0
  145.6805  128.8924  150.6463 H   0  0  0  0  0  0  0  0  0  0  0  0
  144.4052  130.1284  152.3841 H   0  0  0  0  0  0  0  0  0  0  0  0
  144.9075  132.3191  153.1420 H   0  0  0  0  0  0  0  0  0  0  0  0
  146.3375  131.3446  153.3583 H   0  0  0  0  0  0  0  0  0  0  0  0
  147.8336  134.3563  151.9780 H   0  0  0  0  0  0  0  0  0  0  0  0
  147.2808  136.3802  152.0203 H   0  0  0  0  0  0  0  0  0  0  0  0
  144.6267  137.3045  152.3092 H   0  0  0  0  0  0  0  0  0  0  0  0
  145.4708  137.6411  153.8031 H   0  0  0  0  0  0  0  0  0  0  0  0
  146.8992  138.3978  151.2457 H   0  0  0  0  0  0  0  0  0  0  0  0
  145.4980  139.3529  151.6575 H   0  0  0  0  0  0  0  0  0  0  0  0
  145.9967  141.3604  152.8108 H   0  0  0  0  0  0  0  0  0  0  0  0
  147.4367  142.6044  154.4419 H   0  0  0  0  0  0  0  0  0  0  0  0
  149.3252  141.3847  155.5620 H   0  0  0  0  0  0  0  0  0  0  0  0
  149.6903  138.9675  155.0007 H   0  0  0  0  0  0  0  0  0  0  0  0
  147.0963  132.9266  154.5410 H   0  0  0  0  0  0  0  0  0  0  0  0
  149.2177  135.0992  154.2024 H   0  0  0  0  0  0  0  0  0  0  0  0
  148.8229  134.2234  155.6720 H   0  0  0  0  0  0  0  0  0  0  0  0
  147.6557  135.3358  154.9804 H   0  0  0  0  0  0  0  0  0  0  0  0
  149.7527  132.7583  153.1025 H   0  0  0  0  0  0  0  0  0  0  0  0
  148.4868  131.5311  153.0581 H   0  0  0  0  0  0  0  0  0  0  0  0
  149.2642  131.9455  154.5784 H   0  0  0  0  0  0  0  0  0  0  0  0
  144.7598  133.8751  151.1662 H   0  0  0  0  0  0  0  0  0  0  0  0
  146.1181  133.9619  150.0675 H   0  0  0  0  0  0  0  0  0  0  0  0
  145.8344  131.6591  149.3478 H   0  0  0  0  0  0  0  0  0  0  0  0
  144.5064  133.3893  148.1414 H   0  0  0  0  0  0  0  0  0  0  0  0
  143.1744  133.1660  149.2749 H   0  0  0  0  0  0  0  0  0  0  0  0
  143.6488  131.8522  148.2011 H   0  0  0  0  0  0  0  0  0  0  0  0
  1  2  1  0  0  0  0
  1 24  1  0  0  0  0
  1 25  1  0  0  0  0
  1 26  1  0  0  0  0
  2 23  1  0  0  0  0
  2  3  1  0  0  0  0
  2 27  1  0  0  0  0
  3  4  1  0  0  0  0
  3 28  1  0  0  0  0
  3 29  1  0  0  0  0
  4  5  1  0  0  0  0
  4 20  1  0  0  0  0
  5  6  1  0  0  0  0
  5 17  1  0  0  0  0
  5 30  1  0  0  0  0
  6  7  2  0  0  0  0
  6  8  1  0  0  0  0
  8  9  1  0  0  0  0
  8 31  1  0  0  0  0
  9 10  1  0  0  0  0
  9 32  1  0  0  0  0
  9 33  1  0  0  0  0
 10 11  1  0  0  0  0
 10 34  1  0  0  0  0
 10 35  1  0  0  0  0
 11 16  1  0  0  0  0
 11 12  2  0  0  0  0
 12 13  1  0  0  0  0
 12 36  1  0  0  0  0
 13 14  2  0  0  0  0
 13 37  1  0  0  0  0
 14 15  1  0  0  0  0
 14 38  1  0  0  0  0
 15 16  2  0  0  0  0
 15 39  1  0  0  0  0
 17 18  1  0  0  0  0
 17 19  1  0  0  0  0
 17 40  1  0  0  0  0
 18 41  1  0  0  0  0
 18 42  1  0  0  0  0
 18 43  1  0  0  0  0
 19 44  1  0  0  0  0
 19 45  1  0  0  0  0
 19 46  1  0  0  0  0
 20 21  1  0  0  0  0
 20 47  1  0  0  0  0
 20 48  1  0  0  0  0
 21 22  1  0  0  0  0
 21 23  1  0  0  0  0
 21 49  1  0  0  0  0
 22 50  1  0  0  0  0
 22 51  1  0  0  0  0
 22 52  1  0  0  0  0
M  END
> <s_m_source_file>
AV-unprocessed.smi

> <i_m_source_file_index>
1762

> <i_lp_mmshare_version>
43012

> <i_f3d_flags>
0

> <s_epik_input>
W0NIM11bQ0BASF0xW0NIMl1OKFtDSDJdW0NASF0oTzEpW0NIM10pW0NAQEhdKFtDSF0oW0NIM10pW0NIM10pQyg9TylbTkhdW0NIMl1bQ0gyXWMyW2NIXVtjSF1bY0hdW2NIXW4y

> <s_epik_cmdline>
J2VwaWtfcHl0aG9uJywgJy1waCcsICc3LjAnLCAnLXRuJywgJzgnLCAnLW1hJywgJzIwMCcsICctbWV0YWxfYmluZGluZycsICctaW1hZScsICc8aW5maWxlLm1hZT4nLCAnLW9tYWUnLCAnPG91dGZpbGUubWFlPic=

> <r_epik_Ionization_Penalty>
0.0399736

> <r_epik_Ionization_Penalty_Charging>
0

> <r_epik_Ionization_Penalty_Neutral>
0.0399736

> <r_epik_State_Penalty>
0.0317634

> <r_epik_Charging_Adjusted_Penalty>
0.0317634

> <i_epik_Tot_Q>
0

> <i_epik_Tot_abs_Q>
0

> <r_epik_Metal_State_Penalty>
0.0307795

> <b_epik_Metal_Only>
0

> <s_lp_Force_Field>
OPLS_2005

> <r_lp_Energy>
30.2117

> <b_lp_Chiralities_Consistent>
1

> <s_lp_Variant>
AV-unprocessed.smi:1762-6

> <Gold.Version>
5.8.1

> <Gold.Id.Protein>
6NUR|6NUR_protein|mol2

> <Gold.PLP.Fitness>
43.8394

> <Gold.PLP.PLP>
-41.7881

> <Gold.PLP.part.hbond>
-1.5981

> <Gold.PLP.part.metal>
0.0000

> <Gold.PLP.part.buried>
-2.2645

> <Gold.PLP.part.nonpolar>
-39.4480

> <Gold.PLP.part.repulsive>
1.7237

> <Gold.PLP.ligand.clash>
0.0000

> <Gold.PLP.ligand.torsion>
0.7059

> <Gold.PLP.Chemscore.Hbond>
1.0312

> <Gold.PLP.Chemscore.CHOScore>
0.0000

> <Gold.PLP.Chemscore.Metal>
0.0000

> <Gold.Chemscore.Hbonds>
donor molecule, donor type, donor heavy atom, donor atom, acceptor molecule, acceptor atom, score
      L1  H     8    31       P1  7948  1.00

> <Gold.PLP.Chemscore.Internal.Correction>
0.3695

> <Gold.Rescore>
     Score         DG    S(hbond)    S(metal)    S(lipo)     H(rot)  DE(clash)    DE(int)     intcor
     17.56     -20.41       1.09        0.00     131.46       1.60       1.90       0.95       ----

> <Gold.Chemscore.Fitness>
17.5597

> <Gold.Chemscore.DG>
-20.4131

> <Gold.Chemscore.ZeroCoef>
-5.4800

> <Gold.Chemscore.Hbond>
1.0917

> <Gold.Chemscore.Metal>
0.0000

> <Gold.Chemscore.Lipo>
131.4623

> <Gold.Chemscore.Internal_Hbond>
0.0000

> <Gold.Chemscore.DEClash>
1.9042

> <Gold.Chemscore.DEInternal>
0.9493

> <Gold.Chemscore.Rot>
1.5993

> <Gold.Chemscore.Internal.Correction>
   9.000000E+99

> <Gold.Chemscore.Hbonds>
donor molecule, donor type, donor heavy atom, donor atom, acceptor molecule, acceptor atom, score
      L1  H     8    31       P1  7948  0.97

> <Gold.Chemscore.Hbond.Weighted>
-3.6461

> <Gold.Chemscore.Metal.Weighted>
-0.0000

> <Gold.Chemscore.Lipo.Weighted>
-15.3811

> <Gold.Chemscore.Internal_Hbond.Weighted>
0.0000

> <Gold.Chemscore.DEClash.Weighted>
1.9042

> <Gold.Chemscore.DEInternal.Weighted>
0.9493

> <Gold.Chemscore.Rot.Weighted>
4.0941

> <Gold.Chemscore.Internal.Correction.Weighted>
   9.000000E+99

> <Gold.Protein.RotatedTorsions>
[ 6907 6896 6895 6894 ] final -115.50 input  -60.11 | X-H torsion
[ 7974 7965 7964 7962 ] final   99.87 input  175.53 | X-H torsion
[ 8008 7997 7996 7995 ] final    6.26 input   59.86 | X-H torsion
[ 10167 10162 10161 10158 ] final -160.29 input  -65.29 | X-H torsion
[ 10718 10713 10712 10709 ] final  -73.44 input   66.30 | X-H torsion
[ 10763 10752 10751 10750 ] final -105.37 input  -60.55 | X-H torsion
[ 11005 11000 10999 10996 ] final  178.83 input  -57.11 | X-H torsion

> <Gold.Protein.ActiveResidues>
 VAL166  LYS551  ARG553  GLY616  TRP617  ASP618  TYR619  PRO620  LYS621  CYS622 
 ASP623  PHE694  ASN695  SER759  ASP760  ASP761  ALA762  ILE779  LEU786  VAL792 
 PHE793  MET794  SER795  GLU796  ALA797  LYS798  CYS799  TRP800  GLU811  SER814 

> <Gold.Protein.RotatedAtoms>
  150.7982  133.8650  159.3242 H   0  0  0  0  0  0  0  0  0  0  0  0  # atno 6907 bound_to 6896
  151.6469  135.1004  160.0162 H   0  0  0  0  0  0  0  0  0  0  0  0  # atno 6908 bound_to 6896
  152.4067  133.6860  159.6397 H   0  0  0  0  0  0  0  0  0  0  0  0  # atno 6909 bound_to 6896
  145.3931  139.2359  143.3341 H   0  0  0  0  0  0  0  0  0  0  0  0  # atno 7974 bound_to 7965
  154.7387  140.2744  155.6392 H   0  0  0  0  0  0  0  0  0  0  0  0  # atno 8008 bound_to 7997
  156.2868  140.2701  156.2034 H   0  0  0  0  0  0  0  0  0  0  0  0  # atno 8009 bound_to 7997
  155.0286  140.0371  157.2455 H   0  0  0  0  0  0  0  0  0  0  0  0  # atno 8010 bound_to 7997
  139.6551  144.0014  152.2188 H   0  0  0  0  0  0  0  0  0  0  0  0  # atno 10167 bound_to 10162
  156.0280  130.4394  150.2743 H   0  0  0  0  0  0  0  0  0  0  0  0  # atno 10718 bound_to 10713
  154.7942  135.4751  154.0122 H   0  0  0  0  0  0  0  0  0  0  0  0  # atno 10763 bound_to 10752
  153.1677  135.6820  153.8658 H   0  0  0  0  0  0  0  0  0  0  0  0  # atno 10764 bound_to 10752
  153.8251  135.3199  155.3391 H   0  0  0  0  0  0  0  0  0  0  0  0  # atno 10765 bound_to 10752
  140.3995  134.6790  157.4553 H   0  0  0  0  0  0  0  0  0  0  0  0  # atno 11005 bound_to 11000
  146.2788  140.4617  142.8785 LP  0  0  0  0  0  0  0  0  0  0  0  0  # atno 17320 bound_to 7965
  144.8426  140.6880  143.6220 LP  0  0  0  0  0  0  0  0  0  0  0  0  # atno 17321 bound_to 7965
  139.9738  144.6475  150.7964 LP  0  0  0  0  0  0  0  0  0  0  0  0  # atno 17342 bound_to 10162
  140.7555  143.3048  151.2990 LP  0  0  0  0  0  0  0  0  0  0  0  0  # atno 17343 bound_to 10162
  157.0846  131.0153  151.3144 LP  0  0  0  0  0  0  0  0  0  0  0  0  # atno 17370 bound_to 10713
  157.4901  130.7817  149.7499 LP  0  0  0  0  0  0  0  0  0  0  0  0  # atno 17371 bound_to 10713
  140.0347  134.6355  155.9059 LP  0  0  0  0  0  0  0  0  0  0  0  0  # atno 17394 bound_to 11000
  141.1862  133.6557  156.5229 LP  0  0  0  0  0  0  0  0  0  0  0  0  # atno 17395 bound_to 11000

$$$$
