AV-unprocessed.smi:1620|AV-procd|sdf|6492|dock6
  -GOLD-   22720 7153D 1   1.00000     0.00000
 Structure written by MMmdl.
 40 40  0  0  0  0  0  0  0  0  1 V2000
  151.2208  129.4100  154.3261 C   0  0  0  0  0  0  0  0  0  0  0  0
  151.0366  129.7481  155.8181 C   0  0  0  0  0  0  0  0  0  0  0  0
  150.8019  128.4504  156.6122 C   0  0  0  0  0  0  0  0  0  0  0  0
  149.9142  130.7979  156.0642 C   0  0  1  0  0  0  0  0  0  0  0  0
  149.5754  131.0326  157.5521 C   0  0  0  0  0  0  0  0  0  0  0  0
  150.1931  132.0895  155.3835 N   0  0  0  0  0  0  0  0  0  0  0  0
  151.2735  132.8965  155.9666 C   0  0  0  0  0  0  0  0  0  0  0  0
  149.4756  132.6175  154.3555 C   0  0  0  0  0  0  0  0  0  0  0  0
  149.7716  133.6894  153.8247 O   0  0  0  0  0  0  0  0  0  0  0  0
  148.4681  131.8383  153.9165 N   0  0  0  0  0  0  0  0  0  0  0  0
  147.5560  132.1014  152.8637 C   0  0  0  0  0  0  0  0  0  0  0  0
  147.6066  133.2409  152.0197 C   0  0  0  0  0  0  0  0  0  0  0  0
  146.6266  133.2221  151.1294 N   0  0  0  0  0  0  0  0  0  0  0  0
  145.9382  132.0814  151.3877 N   0  0  0  0  0  0  0  0  0  0  0  0
  144.7741  131.7465  150.5864 C   0  0  0  0  0  0  0  0  0  0  0  0
  143.7822  132.9102  150.5335 C   0  0  0  0  0  0  0  0  0  0  0  0
  142.5426  132.6371  150.1170 N   0  0  0  0  0  0  0  0  0  0  0  0
  144.1292  134.0406  150.8685 O   0  0  0  0  0  0  0  0  0  0  0  0
  146.4809  131.3717  152.4413 C   0  0  0  0  0  0  0  0  0  0  0  0
  150.3009  129.0162  153.8926 H   0  0  0  0  0  0  0  0  0  0  0  0
  151.9994  128.6594  154.1869 H   0  0  0  0  0  0  0  0  0  0  0  0
  151.5173  130.2835  153.7454 H   0  0  0  0  0  0  0  0  0  0  0  0
  151.9811  130.1650  156.1683 H   0  0  0  0  0  0  0  0  0  0  0  0
  149.8446  127.9954  156.3559 H   0  0  0  0  0  0  0  0  0  0  0  0
  150.8135  128.6260  157.6875 H   0  0  0  0  0  0  0  0  0  0  0  0
  151.5816  127.7171  156.4048 H   0  0  0  0  0  0  0  0  0  0  0  0
  149.0018  130.3547  155.6657 H   0  0  0  0  0  0  0  0  0  0  0  0
  149.1395  130.1433  158.0066 H   0  0  0  0  0  0  0  0  0  0  0  0
  148.8434  131.8334  157.6635 H   0  0  0  0  0  0  0  0  0  0  0  0
  150.4542  131.2998  158.1388 H   0  0  0  0  0  0  0  0  0  0  0  0
  151.9029  133.3345  155.1900 H   0  0  0  0  0  0  0  0  0  0  0  0
  151.9349  132.3142  156.6070 H   0  0  0  0  0  0  0  0  0  0  0  0
  150.8590  133.7077  156.5663 H   0  0  0  0  0  0  0  0  0  0  0  0
  148.3362  130.9633  154.4027 H   0  0  0  0  0  0  0  0  0  0  0  0
  148.3063  134.0637  152.0229 H   0  0  0  0  0  0  0  0  0  0  0  0
  145.0876  131.4759  149.5767 H   0  0  0  0  0  0  0  0  0  0  0  0
  144.2944  130.8676  151.0193 H   0  0  0  0  0  0  0  0  0  0  0  0
  141.8523  133.3732  150.0765 H   0  0  0  0  0  0  0  0  0  0  0  0
  142.2978  131.6934  149.8544 H   0  0  0  0  0  0  0  0  0  0  0  0
  146.0559  130.4391  152.7819 H   0  0  0  0  0  0  0  0  0  0  0  0
  1  2  1  0  0  0  0
  1 20  1  0  0  0  0
  1 21  1  0  0  0  0
  1 22  1  0  0  0  0
  2  3  1  0  0  0  0
  2  4  1  0  0  0  0
  2 23  1  0  0  0  0
  3 24  1  0  0  0  0
  3 25  1  0  0  0  0
  3 26  1  0  0  0  0
  4  5  1  0  0  0  0
  4  6  1  0  0  0  0
  4 27  1  0  0  0  0
  5 28  1  0  0  0  0
  5 29  1  0  0  0  0
  5 30  1  0  0  0  0
  6  7  1  0  0  0  0
  6  8  1  0  0  0  0
  7 31  1  0  0  0  0
  7 32  1  0  0  0  0
  7 33  1  0  0  0  0
  8  9  2  0  0  0  0
  8 10  1  0  0  0  0
 10 11  1  0  0  0  0
 10 34  1  0  0  0  0
 11 19  2  0  0  0  0
 11 12  1  0  0  0  0
 12 13  2  0  0  0  0
 12 35  1  0  0  0  0
 13 14  1  0  0  0  0
 14 15  1  0  0  0  0
 14 19  1  0  0  0  0
 15 16  1  0  0  0  0
 15 36  1  0  0  0  0
 15 37  1  0  0  0  0
 16 17  1  0  0  0  0
 16 18  2  0  0  0  0
 17 38  1  0  0  0  0
 17 39  1  0  0  0  0
 19 40  1  0  0  0  0
M  END
> <s_m_source_file>
AV-unprocessed.smi

> <i_m_source_file_index>
1620

> <i_lp_mmshare_version>
43012

> <i_f3d_flags>
0

> <s_epik_input>
W0NIM11bQ0hdKFtDSDNdKVtDQEhdKFtDSDNdKU4oW0NIM10pQyg9TylbTkhdYzFbY0hdbm4oW2NIXTEpW0NIMl1DKD1PKVtOSDJd

> <s_epik_cmdline>
J2VwaWtfcHl0aG9uJywgJy1waCcsICc3LjAnLCAnLXRuJywgJzgnLCAnLW1hJywgJzIwMCcsICctbWV0YWxfYmluZGluZycsICctaW1hZScsICc8aW5maWxlLm1hZT4nLCAnLW9tYWUnLCAnPG91dGZpbGUubWFlPic=

> <r_lp_tautomer_probability>
1

> <r_epik_Ionization_Penalty>
4.85642e-05

> <r_epik_Ionization_Penalty_Charging>
0

> <r_epik_Ionization_Penalty_Neutral>
4.85642e-05

> <r_epik_State_Penalty>
-0

> <r_epik_Charging_Adjusted_Penalty>
0

> <i_epik_Tot_Q>
0

> <i_epik_Tot_abs_Q>
0

> <r_epik_Metal_State_Penalty>
-0

> <b_epik_Metal_Only>
0

> <s_lp_Force_Field>
OPLS_2005

> <r_lp_Energy>
32.9866

> <b_lp_Chiralities_Consistent>
1

> <s_lp_Variant>
AV-unprocessed.smi:1620-2

> <Gold.Version>
5.8.1

> <Gold.Id.Protein>
6NUR|6NUR_protein|mol2

> <Gold.PLP.Fitness>
35.9887

> <Gold.PLP.PLP>
-29.7555

> <Gold.PLP.part.hbond>
-2.0000

> <Gold.PLP.part.metal>
0.0000

> <Gold.PLP.part.buried>
-4.9128

> <Gold.PLP.part.nonpolar>
-23.4672

> <Gold.PLP.part.repulsive>
0.6538

> <Gold.PLP.ligand.clash>
0.0000

> <Gold.PLP.ligand.torsion>
0.4107

> <Gold.PLP.Chemscore.Hbond>
1.6400

> <Gold.PLP.Chemscore.CHOScore>
0.6462

> <Gold.PLP.Chemscore.Metal>
0.0000

> <Gold.Chemscore.Hbonds>
donor molecule, donor type, donor heavy atom, donor atom, acceptor molecule, acceptor atom, score
      L1  H    17    38       P1 10186  0.76
      L1  H    17    39       P1 10952  0.93
      L1  C    12    35       P1  7948  0.32

> <Gold.PLP.Chemscore.Internal.Correction>
0.1961

> <Gold.Rescore>
     Score         DG    S(hbond)    S(metal)    S(lipo)     H(rot)  DE(clash)    DE(int)     intcor
      8.73     -11.98       1.76        0.00      51.37       2.10       0.02       3.23       ----

> <Gold.Chemscore.Fitness>
8.7266

> <Gold.Chemscore.DG>
-11.9827

> <Gold.Chemscore.ZeroCoef>
-5.4800

> <Gold.Chemscore.Hbond>
1.7598

> <Gold.Chemscore.Metal>
0.0000

> <Gold.Chemscore.Lipo>
51.3748

> <Gold.Chemscore.Internal_Hbond>
0.0000

> <Gold.Chemscore.DEClash>
0.0228

> <Gold.Chemscore.DEInternal>
3.2333

> <Gold.Chemscore.Rot>
2.1039

> <Gold.Chemscore.Internal.Correction>
   9.000000E+99

> <Gold.Chemscore.Hbonds>
donor molecule, donor type, donor heavy atom, donor atom, acceptor molecule, acceptor atom, score
      L1  H    17    38       P1 10186  0.76
      L1  H    17    39       P1 10952  0.83

> <Gold.Chemscore.Hbond.Weighted>
-5.8779

> <Gold.Chemscore.Metal.Weighted>
-0.0000

> <Gold.Chemscore.Lipo.Weighted>
-6.0108

> <Gold.Chemscore.Internal_Hbond.Weighted>
0.0000

> <Gold.Chemscore.DEClash.Weighted>
0.0228

> <Gold.Chemscore.DEInternal.Weighted>
3.2333

> <Gold.Chemscore.Rot.Weighted>
5.3860

> <Gold.Chemscore.Internal.Correction.Weighted>
   9.000000E+99

> <Gold.Protein.RotatedTorsions>
[ 6907 6896 6895 6894 ] final -103.18 input  -60.11 | X-H torsion
[ 7974 7965 7964 7962 ] final  -22.06 input  175.53 | X-H torsion
[ 8008 7997 7996 7995 ] final  -43.76 input   59.86 | X-H torsion
[ 10167 10162 10161 10158 ] final  -20.88 input  -65.29 | X-H torsion
[ 10718 10713 10712 10709 ] final  110.95 input   66.30 | X-H torsion
[ 10763 10752 10751 10750 ] final  -83.12 input  -60.55 | X-H torsion
[ 11005 11000 10999 10996 ] final  -53.11 input  -57.11 | X-H torsion

> <Gold.Protein.ActiveResidues>
 VAL166  LYS551  ARG553  GLY616  TRP617  ASP618  TYR619  PRO620  LYS621  CYS622 
 ASP623  PHE694  ASN695  SER759  ASP760  ASP761  ALA762  ILE779  LEU786  VAL792 
 PHE793  MET794  SER795  GLU796  ALA797  LYS798  CYS799  TRP800  GLU811  SER814 

> <Gold.Protein.RotatedAtoms>
  150.7229  134.0468  159.3784 H   0  0  0  0  0  0  0  0  0  0  0  0  # atno 6907 bound_to 6896
  151.8444  135.0577  160.0461 H   0  0  0  0  0  0  0  0  0  0  0  0  # atno 6908 bound_to 6896
  152.2838  133.5460  159.5551 H   0  0  0  0  0  0  0  0  0  0  0  0  # atno 6909 bound_to 6896
  146.1698  140.4426  142.8537 H   0  0  0  0  0  0  0  0  0  0  0  0  # atno 7974 bound_to 7965
  154.3997  140.1439  156.3572 H   0  0  0  0  0  0  0  0  0  0  0  0  # atno 8008 bound_to 7997
  155.8214  140.3469  155.5496 H   0  0  0  0  0  0  0  0  0  0  0  0  # atno 8009 bound_to 7997
  155.8284  140.0908  157.1798 H   0  0  0  0  0  0  0  0  0  0  0  0  # atno 8010 bound_to 7997
  140.7279  143.4680  151.0286 H   0  0  0  0  0  0  0  0  0  0  0  0  # atno 10167 bound_to 10162
  157.6469  131.0942  150.6677 H   0  0  0  0  0  0  0  0  0  0  0  0  # atno 10718 bound_to 10713
  154.5839  135.5567  153.7212 H   0  0  0  0  0  0  0  0  0  0  0  0  # atno 10763 bound_to 10752
  153.0091  135.6327  154.1944 H   0  0  0  0  0  0  0  0  0  0  0  0  # atno 10764 bound_to 10752
  154.1884  135.2883  155.3010 H   0  0  0  0  0  0  0  0  0  0  0  0  # atno 10765 bound_to 10752
  141.0959  133.6625  156.4124 H   0  0  0  0  0  0  0  0  0  0  0  0  # atno 11005 bound_to 11000
  144.8145  140.6444  143.6393 LP  0  0  0  0  0  0  0  0  0  0  0  0  # atno 17320 bound_to 7965
  145.4372  139.1541  143.3990 LP  0  0  0  0  0  0  0  0  0  0  0  0  # atno 17321 bound_to 7965
  139.8370  143.7614  152.3180 LP  0  0  0  0  0  0  0  0  0  0  0  0  # atno 17342 bound_to 10162
  139.7750  144.7464  151.0170 LP  0  0  0  0  0  0  0  0  0  0  0  0  # atno 17343 bound_to 10162
  156.6993  130.4618  149.5577 LP  0  0  0  0  0  0  0  0  0  0  0  0  # atno 17370 bound_to 10713
  156.1807  130.6497  151.0947 LP  0  0  0  0  0  0  0  0  0  0  0  0  # atno 17371 bound_to 10713
  140.5140  134.6367  157.5295 LP  0  0  0  0  0  0  0  0  0  0  0  0  # atno 17394 bound_to 11000
  139.9796  134.7159  155.9884 LP  0  0  0  0  0  0  0  0  0  0  0  0  # atno 17395 bound_to 11000

$$$$
