AV-unprocessed.smi:1100|AV-procd|sdf|4759|dock1
  -GOLD-   22720 3293D 1   1.00000     0.00000
 Structure written by MMmdl.
 43 44  0  0  0  0  0  0  0  0  1 V2000
  148.4446  140.8321  154.2121 C   0  0  0  0  0  0  0  0  0  0  0  0
  149.3318  139.5616  154.1679 C   0  0  2  0  0  0  0  0  0  0  0  0
  148.5890  138.4053  154.8992 C   0  0  0  0  0  0  0  0  0  0  0  0
  148.9031  137.0816  154.3675 N   0  0  0  0  0  0  0  0  0  0  0  0
  149.3919  136.0594  155.0842 C   0  0  0  0  0  0  0  0  0  0  0  0
  149.6194  136.1331  156.2912 O   0  0  0  0  0  0  0  0  0  0  0  0
  149.5838  134.9775  154.3075 N   0  0  0  0  0  0  0  0  0  0  0  0
  150.1069  133.7232  154.6515 C   0  0  0  0  0  0  0  0  0  0  0  0
  151.1201  133.4817  155.6690 C   0  0  0  0  0  0  0  0  0  0  0  0
  151.5589  132.2329  155.9241 C   0  0  0  0  0  0  0  0  0  0  0  0
  151.0428  131.0709  155.1964 C   0  0  0  0  0  0  0  0  0  0  0  0
  151.4291  129.9249  155.4277 O   0  0  0  0  0  0  0  0  0  0  0  0
  150.1063  131.3423  154.2425 N   0  0  0  0  0  0  0  0  0  0  0  0
  149.5310  130.2498  153.4542 C   0  0  0  0  0  0  0  0  0  0  0  0
  149.6521  132.6486  153.9817 C   0  0  0  0  0  0  0  0  0  0  0  0
  150.6994  139.7980  154.6867 N   0  0  0  0  0  0  0  0  0  0  0  0
  150.7046  140.2690  156.0770 C   0  0  0  0  0  0  0  0  0  0  0  0
  152.1237  140.4844  156.6306 C   0  0  0  0  0  0  0  0  0  0  0  0
  152.8702  139.2806  156.5206 O   0  0  0  0  0  0  0  0  0  0  0  0
  152.9572  138.8292  155.1763 C   0  0  0  0  0  0  0  0  0  0  0  0
  151.5435  138.5995  154.6145 C   0  0  0  0  0  0  0  0  0  0  0  0
  147.4262  140.6410  153.8758 H   0  0  0  0  0  0  0  0  0  0  0  0
  148.8145  141.6177  153.5550 H   0  0  0  0  0  0  0  0  0  0  0  0
  148.3852  141.2364  155.2229 H   0  0  0  0  0  0  0  0  0  0  0  0
  149.4209  139.2748  153.1191 H   0  0  0  0  0  0  0  0  0  0  0  0
  148.8221  138.3760  155.9625 H   0  0  0  0  0  0  0  0  0  0  0  0
  147.5112  138.5527  154.8248 H   0  0  0  0  0  0  0  0  0  0  0  0
  148.7412  136.9388  153.3813 H   0  0  0  0  0  0  0  0  0  0  0  0
  149.3168  135.0716  153.3386 H   0  0  0  0  0  0  0  0  0  0  0  0
  151.5578  134.2862  156.2367 H   0  0  0  0  0  0  0  0  0  0  0  0
  152.3151  132.0832  156.6807 H   0  0  0  0  0  0  0  0  0  0  0  0
  148.8430  130.6016  152.6850 H   0  0  0  0  0  0  0  0  0  0  0  0
  148.9782  129.5660  154.0997 H   0  0  0  0  0  0  0  0  0  0  0  0
  150.3154  129.6827  152.9505 H   0  0  0  0  0  0  0  0  0  0  0  0
  148.9041  132.7210  153.2051 H   0  0  0  0  0  0  0  0  0  0  0  0
  150.1870  141.2218  156.1649 H   0  0  0  0  0  0  0  0  0  0  0  0
  150.1725  139.5579  156.7108 H   0  0  0  0  0  0  0  0  0  0  0  0
  152.6305  141.2868  156.0925 H   0  0  0  0  0  0  0  0  0  0  0  0
  152.0797  140.7808  157.6787 H   0  0  0  0  0  0  0  0  0  0  0  0
  153.4997  139.5587  154.5727 H   0  0  0  0  0  0  0  0  0  0  0  0
  153.5301  137.9022  155.1494 H   0  0  0  0  0  0  0  0  0  0  0  0
  151.0685  137.7792  155.1550 H   0  0  0  0  0  0  0  0  0  0  0  0
  151.6607  138.2735  153.5828 H   0  0  0  0  0  0  0  0  0  0  0  0
  1  2  1  0  0  0  0
  1 22  1  0  0  0  0
  1 23  1  0  0  0  0
  1 24  1  0  0  0  0
  2  3  1  0  0  0  0
  2 16  1  0  0  0  0
  2 25  1  0  0  0  0
  3  4  1  0  0  0  0
  3 26  1  0  0  0  0
  3 27  1  0  0  0  0
  4  5  1  0  0  0  0
  4 28  1  0  0  0  0
  5  6  2  0  0  0  0
  5  7  1  0  0  0  0
  7  8  1  0  0  0  0
  7 29  1  0  0  0  0
  8 15  2  0  0  0  0
  8  9  1  0  0  0  0
  9 10  2  0  0  0  0
  9 30  1  0  0  0  0
 10 11  1  0  0  0  0
 10 31  1  0  0  0  0
 11 12  2  0  0  0  0
 11 13  1  0  0  0  0
 13 14  1  0  0  0  0
 13 15  1  0  0  0  0
 14 32  1  0  0  0  0
 14 33  1  0  0  0  0
 14 34  1  0  0  0  0
 15 35  1  0  0  0  0
 16 21  1  0  0  0  0
 16 17  1  0  0  0  0
 17 18  1  0  0  0  0
 17 36  1  0  0  0  0
 17 37  1  0  0  0  0
 18 19  1  0  0  0  0
 18 38  1  0  0  0  0
 18 39  1  0  0  0  0
 19 20  1  0  0  0  0
 20 21  1  0  0  0  0
 20 40  1  0  0  0  0
 20 41  1  0  0  0  0
 21 42  1  0  0  0  0
 21 43  1  0  0  0  0
M  END
> <s_m_source_file>
AV-unprocessed.smi

> <i_m_source_file_index>
1100

> <i_lp_mmshare_version>
43012

> <i_f3d_flags>
0

> <s_epik_input>
W0NIMl0xW0NIMl1PW0NIMl1bQ0gyXU4xW0NASF0oW0NIM10pW0NIMl1bTkhdQyg9TylbTkhdYzJbY0hdW2NIXWMoPU8pbihbQ0gzXSlbY0hdMg==

> <s_epik_cmdline>
J2VwaWtfcHl0aG9uJywgJy1waCcsICc3LjAnLCAnLXRuJywgJzgnLCAnLW1hJywgJzIwMCcsICctbWV0YWxfYmluZGluZycsICctaW1hZScsICc8aW5maWxlLm1hZT4nLCAnLW9tYWUnLCAnPG91dGZpbGUubWFlPic=

> <r_lp_tautomer_probability>
1

> <r_epik_Ionization_Penalty>
0.266016

> <r_epik_Ionization_Penalty_Charging>
5.79683e-06

> <r_epik_Ionization_Penalty_Neutral>
0.26601

> <r_epik_State_Penalty>
0.257924

> <r_epik_Charging_Adjusted_Penalty>
0.25793

> <i_epik_Tot_Q>
0

> <i_epik_Tot_abs_Q>
0

> <r_epik_Metal_State_Penalty>
0.260326

> <b_epik_Metal_Only>
0

> <s_lp_Force_Field>
OPLS_2005

> <r_lp_Energy>
41.8129

> <b_lp_Chiralities_Consistent>
1

> <s_lp_Variant>
AV-unprocessed.smi:1100-1

> <Gold.Version>
5.8.1

> <Gold.Id.Protein>
6NUR|6NUR_protein|mol2

> <Gold.PLP.Fitness>
45.9614

> <Gold.PLP.PLP>
-35.5194

> <Gold.PLP.part.hbond>
-4.0000

> <Gold.PLP.part.metal>
0.0000

> <Gold.PLP.part.buried>
-3.2715

> <Gold.PLP.part.nonpolar>
-28.6125

> <Gold.PLP.part.repulsive>
0.1339

> <Gold.PLP.ligand.clash>
0.0000

> <Gold.PLP.ligand.torsion>
0.5453

> <Gold.PLP.Chemscore.Hbond>
3.8188

> <Gold.PLP.Chemscore.CHOScore>
0.0000

> <Gold.PLP.Chemscore.Metal>
0.0000

> <Gold.Chemscore.Hbonds>
donor molecule, donor type, donor heavy atom, donor atom, acceptor molecule, acceptor atom, score
      L1  H     4    28       P1  7948  1.00
      L1  H     7    29       P1  7948  0.68
      P1  H  7989  7998       L1    16  0.95
      P1  H  7997  8008       L1    19  0.71

> <Gold.PLP.Chemscore.Internal.Correction>
0.0761

> <Gold.Rescore>
     Score         DG    S(hbond)    S(metal)    S(lipo)     H(rot)  DE(clash)    DE(int)     intcor
     15.61     -16.44       1.93        0.00      71.43       1.49       0.11       0.72       ----

> <Gold.Chemscore.Fitness>
15.6077

> <Gold.Chemscore.DG>
-16.4445

> <Gold.Chemscore.ZeroCoef>
-5.4800

> <Gold.Chemscore.Hbond>
1.9256

> <Gold.Chemscore.Metal>
0.0000

> <Gold.Chemscore.Lipo>
71.4287

> <Gold.Chemscore.Internal_Hbond>
0.0000

> <Gold.Chemscore.DEClash>
0.1142

> <Gold.Chemscore.DEInternal>
0.7225

> <Gold.Chemscore.Rot>
1.4938

> <Gold.Chemscore.Internal.Correction>
   9.000000E+99

> <Gold.Chemscore.Hbonds>
donor molecule, donor type, donor heavy atom, donor atom, acceptor molecule, acceptor atom, score
      L1  H     4    28       P1  7948  0.98
      L1  H     7    29       P1  7948  0.07
      P1  H  7989  7998       L1    16  0.14
      P1  H  7997  8008       L1    19  0.03

> <Gold.Chemscore.Hbond.Weighted>
-6.4315

> <Gold.Chemscore.Metal.Weighted>
-0.0000

> <Gold.Chemscore.Lipo.Weighted>
-8.3572

> <Gold.Chemscore.Internal_Hbond.Weighted>
0.0000

> <Gold.Chemscore.DEClash.Weighted>
0.1142

> <Gold.Chemscore.DEInternal.Weighted>
0.7225

> <Gold.Chemscore.Rot.Weighted>
3.8242

> <Gold.Chemscore.Internal.Correction.Weighted>
   9.000000E+99

> <Gold.Protein.RotatedTorsions>
[ 6907 6896 6895 6894 ] final   35.79 input  -60.11 | X-H torsion
[ 7974 7965 7964 7962 ] final   42.41 input  175.53 | X-H torsion
[ 8008 7997 7996 7995 ] final  -73.02 input   59.86 | X-H torsion
[ 10167 10162 10161 10158 ] final  -84.12 input  -65.29 | X-H torsion
[ 10718 10713 10712 10709 ] final   40.46 input   66.30 | X-H torsion
[ 10763 10752 10751 10750 ] final  -41.69 input  -60.55 | X-H torsion
[ 11005 11000 10999 10996 ] final  -97.23 input  -57.11 | X-H torsion

> <Gold.Protein.ActiveResidues>
 VAL166  LYS551  ARG553  GLY616  TRP617  ASP618  TYR619  PRO620  LYS621  CYS622 
 ASP623  PHE694  ASN695  SER759  ASP760  ASP761  ALA762  ILE779  LEU786  VAL792 
 PHE793  MET794  SER795  GLU796  ALA797  LYS798  CYS799  TRP800  GLU811  SER814 

> <Gold.Protein.RotatedAtoms>
  152.1210  134.9205  160.0562 H   0  0  0  0  0  0  0  0  0  0  0  0  # atno 6907 bound_to 6896
  152.0346  133.3947  159.4320 H   0  0  0  0  0  0  0  0  0  0  0  0  # atno 6908 bound_to 6896
  150.6849  134.3403  159.4909 H   0  0  0  0  0  0  0  0  0  0  0  0  # atno 6909 bound_to 6896
  146.0742  139.5303  142.9578 H   0  0  0  0  0  0  0  0  0  0  0  0  # atno 7974 bound_to 7965
  154.5213  140.0786  156.8177 H   0  0  0  0  0  0  0  0  0  0  0  0  # atno 8008 bound_to 7997
  155.3570  140.3416  155.4222 H   0  0  0  0  0  0  0  0  0  0  0  0  # atno 8009 bound_to 7997
  156.1684  140.1611  156.8478 H   0  0  0  0  0  0  0  0  0  0  0  0  # atno 8010 bound_to 7997
  140.4162  143.2602  151.8951 H   0  0  0  0  0  0  0  0  0  0  0  0  # atno 10167 bound_to 10162
  157.3824  130.7761  149.7203 H   0  0  0  0  0  0  0  0  0  0  0  0  # atno 10718 bound_to 10713
  153.9667  135.6733  153.4746 H   0  0  0  0  0  0  0  0  0  0  0  0  # atno 10763 bound_to 10752
  153.0812  135.4922  154.8503 H   0  0  0  0  0  0  0  0  0  0  0  0  # atno 10764 bound_to 10752
  154.7242  135.3123  154.8959 H   0  0  0  0  0  0  0  0  0  0  0  0  # atno 10765 bound_to 10752
  141.1386  133.8155  157.0678 H   0  0  0  0  0  0  0  0  0  0  0  0  # atno 11005 bound_to 11000
  145.6335  141.0299  143.1850 LP  0  0  0  0  0  0  0  0  0  0  0  0  # atno 17320 bound_to 7965
  144.7251  139.7902  143.7368 LP  0  0  0  0  0  0  0  0  0  0  0  0  # atno 17321 bound_to 7965
  139.4782  144.5485  151.8421 LP  0  0  0  0  0  0  0  0  0  0  0  0  # atno 17342 bound_to 10162
  140.4584  144.1757  150.5904 LP  0  0  0  0  0  0  0  0  0  0  0  0  # atno 17343 bound_to 10162
  155.9779  130.4058  150.3684 LP  0  0  0  0  0  0  0  0  0  0  0  0  # atno 17370 bound_to 10713
  157.1790  131.0387  151.2758 LP  0  0  0  0  0  0  0  0  0  0  0  0  # atno 17371 bound_to 10713
  140.0530  134.9795  157.1171 LP  0  0  0  0  0  0  0  0  0  0  0  0  # atno 17394 bound_to 11000
  140.3961  134.2133  155.7164 LP  0  0  0  0  0  0  0  0  0  0  0  0  # atno 17395 bound_to 11000

$$$$
