AV-unprocessed.smi:2331|AV-procd|sdf|9315|dock9
  -GOLD-   2272012533D 1   1.00000     0.00000
 Structure written by MMmdl.
 49 50  0  0  0  0  0  0  0  0  1 V2000
  144.3712  135.7177  154.5763 C   0  0  0  0  0  0  0  0  0  0  0  0
  144.0636  136.1987  153.1428 C   0  0  0  0  0  0  0  0  0  0  0  0
  142.6846  136.9008  153.1815 C   0  0  0  0  0  0  0  0  0  0  0  0
  145.1305  137.2424  152.7224 C   0  0  0  0  0  0  0  0  0  0  0  0
  145.2738  138.3023  153.7161 N   0  0  0  0  0  0  0  0  0  0  0  0
  146.3688  138.5486  154.4525 C   0  0  0  0  0  0  0  0  0  0  0  0
  147.4108  137.9036  154.3326 O   0  0  0  0  0  0  0  0  0  0  0  0
  146.2406  139.6158  155.2777 N   0  0  0  0  0  0  0  0  0  0  0  0
  144.9590  140.0362  155.8624 C   0  0  0  0  0  0  0  0  0  0  0  0
  145.2850  140.9944  157.0061 C   0  0  0  0  0  0  0  0  0  0  0  0
  146.7445  140.7126  157.3335 C   0  0  0  0  0  0  0  0  0  0  0  0
  147.3629  140.2318  156.0081 C   0  0  2  0  0  0  0  0  0  0  0  0
  148.1307  141.3364  155.2015 C   0  0  0  0  0  0  0  0  0  0  0  0
  149.0956  140.6889  154.1883 C   0  0  0  0  0  0  0  0  0  0  0  0
  147.2247  142.3343  154.4528 C   0  0  0  0  0  0  0  0  0  0  0  0
  148.9363  142.1028  156.0767 O   0  0  0  0  0  0  0  0  0  0  0  0
  144.0855  134.9952  152.1799 C   0  0  0  0  0  0  0  0  0  0  0  0
  143.1840  133.9076  152.2883 C   0  0  0  0  0  0  0  0  0  0  0  0
  143.2629  132.8574  151.3521 C   0  0  0  0  0  0  0  0  0  0  0  0
  144.1583  132.8248  150.3442 N   0  0  0  0  0  0  0  0  0  0  0  0
  145.0179  133.8582  150.2378 C   0  0  0  0  0  0  0  0  0  0  0  0
  145.0212  134.9565  151.1198 C   0  0  0  0  0  0  0  0  0  0  0  0
  144.3408  136.5443  155.2871 H   0  0  0  0  0  0  0  0  0  0  0  0
  145.3606  135.2667  154.6548 H   0  0  0  0  0  0  0  0  0  0  0  0
  143.6457  134.9739  154.9075 H   0  0  0  0  0  0  0  0  0  0  0  0
  142.6909  137.7440  153.8732 H   0  0  0  0  0  0  0  0  0  0  0  0
  141.8983  136.2222  153.5141 H   0  0  0  0  0  0  0  0  0  0  0  0
  142.3967  137.2948  152.2063 H   0  0  0  0  0  0  0  0  0  0  0  0
  146.0861  136.7464  152.5431 H   0  0  0  0  0  0  0  0  0  0  0  0
  144.8530  137.7147  151.7794 H   0  0  0  0  0  0  0  0  0  0  0  0
  144.4717  138.8992  153.8572 H   0  0  0  0  0  0  0  0  0  0  0  0
  144.3212  140.5155  155.1182 H   0  0  0  0  0  0  0  0  0  0  0  0
  144.4266  139.1664  156.2520 H   0  0  0  0  0  0  0  0  0  0  0  0
  145.1714  142.0248  156.6678 H   0  0  0  0  0  0  0  0  0  0  0  0
  144.6302  140.8584  157.8671 H   0  0  0  0  0  0  0  0  0  0  0  0
  147.2420  141.5747  157.7761 H   0  0  0  0  0  0  0  0  0  0  0  0
  146.7934  139.9047  158.0649 H   0  0  0  0  0  0  0  0  0  0  0  0
  148.0848  139.4502  156.2536 H   0  0  0  0  0  0  0  0  0  0  0  0
  148.5530  140.0753  153.4684 H   0  0  0  0  0  0  0  0  0  0  0  0
  149.8347  140.0499  154.6705 H   0  0  0  0  0  0  0  0  0  0  0  0
  149.6450  141.4428  153.6230 H   0  0  0  0  0  0  0  0  0  0  0  0
  146.5678  141.8209  153.7506 H   0  0  0  0  0  0  0  0  0  0  0  0
  147.8137  143.0496  153.8777 H   0  0  0  0  0  0  0  0  0  0  0  0
  146.6036  142.9154  155.1348 H   0  0  0  0  0  0  0  0  0  0  0  0
  148.6780  143.0091  156.0066 H   0  0  0  0  0  0  0  0  0  0  0  0
  142.4333  133.8538  153.0612 H   0  0  0  0  0  0  0  0  0  0  0  0
  142.5840  132.0199  151.4148 H   0  0  0  0  0  0  0  0  0  0  0  0
  145.7246  133.8110  149.4225 H   0  0  0  0  0  0  0  0  0  0  0  0
  145.7321  135.7560  150.9735 H   0  0  0  0  0  0  0  0  0  0  0  0
  1  2  1  0  0  0  0
  1 23  1  0  0  0  0
  1 24  1  0  0  0  0
  1 25  1  0  0  0  0
  2  3  1  0  0  0  0
  2  4  1  0  0  0  0
  2 17  1  0  0  0  0
  3 26  1  0  0  0  0
  3 27  1  0  0  0  0
  3 28  1  0  0  0  0
  4  5  1  0  0  0  0
  4 29  1  0  0  0  0
  4 30  1  0  0  0  0
  5  6  1  0  0  0  0
  5 31  1  0  0  0  0
  6  7  2  0  0  0  0
  6  8  1  0  0  0  0
  8 12  1  0  0  0  0
  8  9  1  0  0  0  0
  9 10  1  0  0  0  0
  9 32  1  0  0  0  0
  9 33  1  0  0  0  0
 10 11  1  0  0  0  0
 10 34  1  0  0  0  0
 10 35  1  0  0  0  0
 11 12  1  0  0  0  0
 11 36  1  0  0  0  0
 11 37  1  0  0  0  0
 12 13  1  0  0  0  0
 12 38  1  0  0  0  0
 13 14  1  0  0  0  0
 13 15  1  0  0  0  0
 13 16  1  0  0  0  0
 14 39  1  0  0  0  0
 14 40  1  0  0  0  0
 14 41  1  0  0  0  0
 15 42  1  0  0  0  0
 15 43  1  0  0  0  0
 15 44  1  0  0  0  0
 16 45  1  0  0  0  0
 17 22  1  0  0  0  0
 17 18  2  0  0  0  0
 18 19  1  0  0  0  0
 18 46  1  0  0  0  0
 19 20  2  0  0  0  0
 19 47  1  0  0  0  0
 20 21  1  0  0  0  0
 21 22  2  0  0  0  0
 21 48  1  0  0  0  0
 22 49  1  0  0  0  0
M  END
> <s_m_source_file>
AV-unprocessed.smi

> <i_m_source_file_index>
2331

> <i_lp_mmshare_version>
43012

> <i_f3d_flags>
0

> <s_epik_input>
W2NIXTFbY0hdbltjSF1bY0hdYzFDKFtDSDNdKShbQ0gzXSlbQ0gyXVtOSF1DKD1PKU4yW0NIMl1bQ0gyXVtDSDJdW0NASF0yQyhbQ0gzXSkoW0NIM10pW09IXQ==

> <s_epik_cmdline>
J2VwaWtfcHl0aG9uJywgJy1waCcsICc3LjAnLCAnLXRuJywgJzgnLCAnLW1hJywgJzIwMCcsICctbWV0YWxfYmluZGluZycsICctaW1hZScsICc8aW5maWxlLm1hZT4nLCAnLW9tYWUnLCAnPG91dGZpbGUubWFlPic=

> <r_epik_Ionization_Penalty>
0.0581496

> <r_epik_Ionization_Penalty_Charging>
0

> <r_epik_Ionization_Penalty_Neutral>
0.0581496

> <r_epik_State_Penalty>
0.0501956

> <r_epik_Charging_Adjusted_Penalty>
0.0501956

> <i_epik_Tot_Q>
0

> <i_epik_Tot_abs_Q>
0

> <r_epik_Metal_State_Penalty>
0.0456895

> <b_epik_Metal_Only>
0

> <s_lp_Force_Field>
OPLS_2005

> <r_lp_Energy>
50.0165

> <b_lp_Chiralities_Consistent>
1

> <s_lp_Variant>
AV-unprocessed.smi:2331-2

> <Gold.Version>
5.8.1

> <Gold.Id.Protein>
6NUR|6NUR_protein|mol2

> <Gold.PLP.Fitness>
35.4808

> <Gold.PLP.PLP>
-28.6183

> <Gold.PLP.part.hbond>
-1.6791

> <Gold.PLP.part.metal>
0.0000

> <Gold.PLP.part.buried>
-2.4284

> <Gold.PLP.part.nonpolar>
-24.9946

> <Gold.PLP.part.repulsive>
0.3031

> <Gold.PLP.ligand.clash>
0.0000

> <Gold.PLP.ligand.torsion>
0.6787

> <Gold.PLP.Chemscore.Hbond>
1.6560

> <Gold.PLP.Chemscore.CHOScore>
1.0000

> <Gold.PLP.Chemscore.Metal>
0.0000

> <Gold.Chemscore.Hbonds>
donor molecule, donor type, donor heavy atom, donor atom, acceptor molecule, acceptor atom, score
      L1  H     5    31       P1 10175  0.28
      L1  H    16    45       P1  8028  1.00
      L1  C    21    48       P1  7921  1.00

> <Gold.PLP.Chemscore.Internal.Correction>
0.2519

> <Gold.Rescore>
     Score         DG    S(hbond)    S(metal)    S(lipo)     H(rot)  DE(clash)    DE(int)     intcor
     13.54     -14.11       1.66        0.00      68.86       1.94       0.09       0.48       ----

> <Gold.Chemscore.Fitness>
13.5441

> <Gold.Chemscore.DG>
-14.1116

> <Gold.Chemscore.ZeroCoef>
-5.4800

> <Gold.Chemscore.Hbond>
1.6554

> <Gold.Chemscore.Metal>
0.0000

> <Gold.Chemscore.Lipo>
68.8551

> <Gold.Chemscore.Internal_Hbond>
0.0000

> <Gold.Chemscore.DEClash>
0.0886

> <Gold.Chemscore.DEInternal>
0.4788

> <Gold.Chemscore.Rot>
1.9350

> <Gold.Chemscore.Internal.Correction>
   9.000000E+99

> <Gold.Chemscore.Hbonds>
donor molecule, donor type, donor heavy atom, donor atom, acceptor molecule, acceptor atom, score
      L1  H     5    31       P1 10175  0.28
      L1  H    16    45       P1  8028  0.98

> <Gold.Chemscore.Hbond.Weighted>
-5.5291

> <Gold.Chemscore.Metal.Weighted>
-0.0000

> <Gold.Chemscore.Lipo.Weighted>
-8.0560

> <Gold.Chemscore.Internal_Hbond.Weighted>
0.0000

> <Gold.Chemscore.DEClash.Weighted>
0.0886

> <Gold.Chemscore.DEInternal.Weighted>
0.4788

> <Gold.Chemscore.Rot.Weighted>
4.9536

> <Gold.Chemscore.Internal.Correction.Weighted>
   9.000000E+99

> <Gold.Protein.RotatedTorsions>
[ 6907 6896 6895 6894 ] final   -2.71 input  -60.11 | X-H torsion
[ 7974 7965 7964 7962 ] final   62.14 input  175.53 | X-H torsion
[ 8008 7997 7996 7995 ] final  152.06 input   59.86 | X-H torsion
[ 10167 10162 10161 10158 ] final  -19.80 input  -65.29 | X-H torsion
[ 10718 10713 10712 10709 ] final   82.98 input   66.30 | X-H torsion
[ 10763 10752 10751 10750 ] final -113.68 input  -60.55 | X-H torsion
[ 11005 11000 10999 10996 ] final   76.20 input  -57.11 | X-H torsion

> <Gold.Protein.ActiveResidues>
 VAL166  LYS551  ARG553  GLY616  TRP617  ASP618  TYR619  PRO620  LYS621  CYS622 
 ASP623  PHE694  ASN695  SER759  ASP760  ASP761  ALA762  ILE779  LEU786  VAL792 
 PHE793  MET794  SER795  GLU796  ALA797  LYS798  CYS799  TRP800  GLU811  SER814 

> <Gold.Protein.RotatedAtoms>
  151.5255  135.1068  159.9889 H   0  0  0  0  0  0  0  0  0  0  0  0  # atno 6907 bound_to 6896
  152.4601  133.7801  159.6856 H   0  0  0  0  0  0  0  0  0  0  0  0  # atno 6908 bound_to 6896
  150.8560  133.7649  159.3033 H   0  0  0  0  0  0  0  0  0  0  0  0  # atno 6909 bound_to 6896
  145.8768  139.3415  143.0730 H   0  0  0  0  0  0  0  0  0  0  0  0  # atno 7974 bound_to 7965
  156.2646  140.2031  156.6274 H   0  0  0  0  0  0  0  0  0  0  0  0  # atno 8008 bound_to 7997
  154.6709  140.0550  157.0189 H   0  0  0  0  0  0  0  0  0  0  0  0  # atno 8009 bound_to 7997
  155.1138  140.3218  155.4517 H   0  0  0  0  0  0  0  0  0  0  0  0  # atno 8010 bound_to 7997
  140.7271  143.4784  151.0151 H   0  0  0  0  0  0  0  0  0  0  0  0  # atno 10167 bound_to 10162
  157.6869  131.0071  150.2455 H   0  0  0  0  0  0  0  0  0  0  0  0  # atno 10718 bound_to 10713
  154.8407  135.4445  154.1387 H   0  0  0  0  0  0  0  0  0  0  0  0  # atno 10763 bound_to 10752
  153.2578  135.6933  153.7616 H   0  0  0  0  0  0  0  0  0  0  0  0  # atno 10764 bound_to 10752
  153.6904  135.3388  155.3176 H   0  0  0  0  0  0  0  0  0  0  0  0  # atno 10765 bound_to 10752
  139.9309  134.7581  156.1366 H   0  0  0  0  0  0  0  0  0  0  0  0  # atno 11005 bound_to 11000
  145.9072  140.9204  143.0473 LP  0  0  0  0  0  0  0  0  0  0  0  0  # atno 17320 bound_to 7965
  144.6726  140.1111  143.7455 LP  0  0  0  0  0  0  0  0  0  0  0  0  # atno 17321 bound_to 7965
  139.8481  143.7475  152.3179 LP  0  0  0  0  0  0  0  0  0  0  0  0  # atno 17342 bound_to 10162
  139.7647  144.7495  151.0312 LP  0  0  0  0  0  0  0  0  0  0  0  0  # atno 17343 bound_to 10162
  156.3062  130.3765  149.7704 LP  0  0  0  0  0  0  0  0  0  0  0  0  # atno 17370 bound_to 10713
  156.5319  130.8261  151.3240 LP  0  0  0  0  0  0  0  0  0  0  0  0  # atno 17371 bound_to 10713
  141.0897  133.6719  156.2513 LP  0  0  0  0  0  0  0  0  0  0  0  0  # atno 17394 bound_to 11000
  140.6205  134.5366  157.5547 LP  0  0  0  0  0  0  0  0  0  0  0  0  # atno 17395 bound_to 11000

$$$$
