AV-unprocessed.smi:1795|AV-procd|sdf|7245|dock6
  -GOLD-   22720 8493D 1   1.00000     0.00000
 Structure written by MMmdl.
 48 49  0  0  0  0  0  0  0  0  2 V2000
  144.6769  134.3167  150.5680 C   0  0  0  0  0  0  0  0  0  0  0  0
  145.5283  135.2147  151.4725 C   0  0  2  0  0  0  0  0  0  0  0  0
  146.1755  134.4261  152.6237 C   0  0  0  0  0  0  0  0  0  0  0  0
  146.9411  135.3289  153.5232 N   0  3  2  0  0  0  0  0  0  0  0  0
  147.7279  134.5780  154.5562 C   0  0  1  0  0  0  0  0  0  0  0  0
  148.5837  133.4896  153.8686 C   0  0  0  0  0  0  0  0  0  0  0  0
  148.6091  135.4862  155.4588 C   0  0  0  0  0  0  0  0  0  0  0  0
  147.9030  135.9484  156.6513 N   0  0  0  0  0  0  0  0  0  0  0  0
  148.3356  135.8143  157.9147 C   0  0  0  0  0  0  0  0  0  0  0  0
  149.4194  135.3088  158.2087 O   0  0  0  0  0  0  0  0  0  0  0  0
  147.3932  136.3356  159.0082 C   0  0  0  0  0  0  0  0  0  0  0  0
  147.4204  135.5172  160.2322 N   0  0  0  0  0  0  0  0  0  0  0  0
  147.3076  134.1212  160.0763 C   0  0  0  0  0  0  0  0  0  0  0  0
  147.3273  133.2857  161.1269 C   0  0  0  0  0  0  0  0  0  0  0  0
  147.4679  133.8519  162.4475 C   0  0  0  0  0  0  0  0  0  0  0  0
  147.5739  135.1859  162.6085 C   0  0  0  0  0  0  0  0  0  0  0  0
  147.5532  136.1030  161.4631 C   0  0  0  0  0  0  0  0  0  0  0  0
  147.6492  137.3234  161.6006 O   0  0  0  0  0  0  0  0  0  0  0  0
  146.0362  136.3947  154.0345 C   0  0  0  0  0  0  0  0  0  0  0  0
  145.3306  137.1414  152.8843 C   0  0  1  0  0  0  0  0  0  0  0  0
  146.2556  138.1078  152.1224 C   0  0  0  0  0  0  0  0  0  0  0  0
  144.6783  136.2198  152.0140 O   0  0  0  0  0  0  0  0  0  0  0  0
  145.2811  133.5321  150.1119 H   0  0  0  0  0  0  0  0  0  0  0  0
  144.2218  134.8943  149.7630 H   0  0  0  0  0  0  0  0  0  0  0  0
  143.8735  133.8375  151.1282 H   0  0  0  0  0  0  0  0  0  0  0  0
  146.3035  135.6728  150.8581 H   0  0  0  0  0  0  0  0  0  0  0  0
  145.4074  133.9071  153.1997 H   0  0  0  0  0  0  0  0  0  0  0  0
  146.8190  133.6572  152.1997 H   0  0  0  0  0  0  0  0  0  0  0  0
  147.0135  134.0821  155.2157 H   0  0  0  0  0  0  0  0  0  0  0  0
  149.0881  132.8527  154.5946 H   0  0  0  0  0  0  0  0  0  0  0  0
  149.3499  133.9366  153.2344 H   0  0  0  0  0  0  0  0  0  0  0  0
  147.9944  132.8186  153.2467 H   0  0  0  0  0  0  0  0  0  0  0  0
  149.5340  134.9732  155.7276 H   0  0  0  0  0  0  0  0  0  0  0  0
  148.8984  136.3912  154.9245 H   0  0  0  0  0  0  0  0  0  0  0  0
  147.0037  136.3843  156.5063 H   0  0  0  0  0  0  0  0  0  0  0  0
  147.6662  137.3695  159.2238 H   0  0  0  0  0  0  0  0  0  0  0  0
  146.3723  136.3822  158.6235 H   0  0  0  0  0  0  0  0  0  0  0  0
  147.2004  133.7769  159.0579 H   0  0  0  0  0  0  0  0  0  0  0  0
  147.2379  132.2182  160.9884 H   0  0  0  0  0  0  0  0  0  0  0  0
  147.4872  133.2029  163.3106 H   0  0  0  0  0  0  0  0  0  0  0  0
  147.6778  135.5918  163.6041 H   0  0  0  0  0  0  0  0  0  0  0  0
  145.2918  135.9438  154.6931 H   0  0  0  0  0  0  0  0  0  0  0  0
  146.5816  137.1329  154.6217 H   0  0  0  0  0  0  0  0  0  0  0  0
  144.5389  137.7493  153.3231 H   0  0  0  0  0  0  0  0  0  0  0  0
  146.6346  138.8846  152.7873 H   0  0  0  0  0  0  0  0  0  0  0  0
  145.7185  138.6029  151.3130 H   0  0  0  0  0  0  0  0  0  0  0  0
  147.1198  137.6031  151.6917 H   0  0  0  0  0  0  0  0  0  0  0  0
  147.6232  135.8050  152.9501 H   0  0  0  0  0  0  0  0  0  0  0  0
  1  2  1  0  0  0  0
  1 23  1  0  0  0  0
  1 24  1  0  0  0  0
  1 25  1  0  0  0  0
  2 22  1  0  0  0  0
  2  3  1  0  0  0  0
  2 26  1  0  0  0  0
  3  4  1  0  0  0  0
  3 27  1  0  0  0  0
  3 28  1  0  0  0  0
  4  5  1  0  0  0  0
  4 19  1  0  0  0  0
  4 48  1  0  0  0  0
  5  6  1  0  0  0  0
  5  7  1  0  0  0  0
  5 29  1  0  0  0  0
  6 30  1  0  0  0  0
  6 31  1  0  0  0  0
  6 32  1  0  0  0  0
  7  8  1  0  0  0  0
  7 33  1  0  0  0  0
  7 34  1  0  0  0  0
  8  9  1  0  0  0  0
  8 35  1  0  0  0  0
  9 10  2  0  0  0  0
  9 11  1  0  0  0  0
 11 12  1  0  0  0  0
 11 36  1  0  0  0  0
 11 37  1  0  0  0  0
 12 17  1  0  0  0  0
 12 13  1  0  0  0  0
 13 14  2  0  0  0  0
 13 38  1  0  0  0  0
 14 15  1  0  0  0  0
 14 39  1  0  0  0  0
 15 16  2  0  0  0  0
 15 40  1  0  0  0  0
 16 17  1  0  0  0  0
 16 41  1  0  0  0  0
 17 18  2  0  0  0  0
 19 20  1  0  0  0  0
 19 42  1  0  0  0  0
 19 43  1  0  0  0  0
 20 21  1  0  0  0  0
 20 22  1  0  0  0  0
 20 44  1  0  0  0  0
 21 45  1  0  0  0  0
 21 46  1  0  0  0  0
 21 47  1  0  0  0  0
M  CHG  1   4   1
M  END
> <s_m_source_file>
AV-unprocessed.smi

> <i_m_source_file_index>
1795

> <i_lp_mmshare_version>
43012

> <i_f3d_flags>
0

> <s_epik_input>
W0NIM11bQ0BASF0xW0NIMl1OKFtDSDJdW0NASF0oTzEpW0NIM10pW0NASF0oW0NIM10pW0NIMl1bTkhdQyg9TylbQ0gyXW4yW2NIXVtjSF1bY0hdW2NIXWMyPU8=

> <s_epik_cmdline>
J2VwaWtfcHl0aG9uJywgJy1waCcsICc3LjAnLCAnLXRuJywgJzgnLCAnLW1hJywgJzIwMCcsICctbWV0YWxfYmluZGluZycsICctaW1hZScsICc8aW5maWxlLm1hZT4nLCAnLW9tYWUnLCAnPG91dGZpbGUubWFlPic=

> <r_lp_tautomer_probability>
1

> <r_epik_Ionization_Penalty>
0.656654

> <r_epik_Ionization_Penalty_Charging>
0.656654

> <r_epik_Ionization_Penalty_Neutral>
8.90321e-08

> <r_epik_State_Penalty>
0.675641

> <r_epik_Charging_Adjusted_Penalty>
1.33229

> <i_epik_Tot_Q>
1

> <i_epik_Tot_abs_Q>
1

> <r_epik_Metal_State_Penalty>
0.675691

> <b_epik_Metal_Only>
0

> <s_lp_Force_Field>
OPLS_2005

> <r_lp_Energy>
30.7176

> <b_lp_Chiralities_Consistent>
1

> <s_lp_Variant>
AV-unprocessed.smi:1795-9

> <Gold.Version>
5.8.1

> <Gold.Id.Protein>
6NUR|6NUR_protein|mol2

> <Gold.PLP.Fitness>
48.1798

> <Gold.PLP.PLP>
-35.6527

> <Gold.PLP.part.hbond>
-4.0000

> <Gold.PLP.part.metal>
0.0000

> <Gold.PLP.part.buried>
-4.5111

> <Gold.PLP.part.nonpolar>
-28.4927

> <Gold.PLP.part.repulsive>
0.1757

> <Gold.PLP.ligand.clash>
0.0000

> <Gold.PLP.ligand.torsion>
0.9184

> <Gold.PLP.Chemscore.Hbond>
4.7600

> <Gold.PLP.Chemscore.CHOScore>
0.0000

> <Gold.PLP.Chemscore.Metal>
0.0000

> <Gold.Chemscore.Hbonds>
donor molecule, donor type, donor heavy atom, donor atom, acceptor molecule, acceptor atom, score
      L1  H     4    48       P1  7948  2.00
      P1  H  6896  6908       L1    10  1.00
      P1  H  6931  6943       L1    18  0.93
      P1  H  6934  6947       L1    18  0.74

> <Gold.PLP.Chemscore.Internal.Correction>
0.0839

> <Gold.Rescore>
     Score         DG    S(hbond)    S(metal)    S(lipo)     H(rot)  DE(clash)    DE(int)     intcor
     20.43     -21.27       3.69        0.00      70.98       1.89       0.02       0.81       ----

> <Gold.Chemscore.Fitness>
20.4336

> <Gold.Chemscore.DG>
-21.2722

> <Gold.Chemscore.ZeroCoef>
-5.4800

> <Gold.Chemscore.Hbond>
3.6882

> <Gold.Chemscore.Metal>
0.0000

> <Gold.Chemscore.Lipo>
70.9778

> <Gold.Chemscore.Internal_Hbond>
0.0000

> <Gold.Chemscore.DEClash>
0.0247

> <Gold.Chemscore.DEInternal>
0.8138

> <Gold.Chemscore.Rot>
1.8870

> <Gold.Chemscore.Internal.Correction>
   9.000000E+99

> <Gold.Chemscore.Hbonds>
donor molecule, donor type, donor heavy atom, donor atom, acceptor molecule, acceptor atom, score
      L1  H     4    48       P1  7948  1.00
      P1  H  6896  6908       L1    10  0.97
      P1  H  6931  6943       L1    18  0.91
      P1  H  6934  6947       L1    18  0.74

> <Gold.Chemscore.Hbond.Weighted>
-12.3185

> <Gold.Chemscore.Metal.Weighted>
-0.0000

> <Gold.Chemscore.Lipo.Weighted>
-8.3044

> <Gold.Chemscore.Internal_Hbond.Weighted>
0.0000

> <Gold.Chemscore.DEClash.Weighted>
0.0247

> <Gold.Chemscore.DEInternal.Weighted>
0.8138

> <Gold.Chemscore.Rot.Weighted>
4.8308

> <Gold.Chemscore.Internal.Correction.Weighted>
   9.000000E+99

> <Gold.Protein.RotatedTorsions>
[ 6907 6896 6895 6894 ] final  173.57 input  -60.11 | X-H torsion
[ 7974 7965 7964 7962 ] final   87.67 input  175.53 | X-H torsion
[ 8008 7997 7996 7995 ] final   77.54 input   59.86 | X-H torsion
[ 10167 10162 10161 10158 ] final -166.19 input  -65.29 | X-H torsion
[ 10718 10713 10712 10709 ] final -169.15 input   66.30 | X-H torsion
[ 10763 10752 10751 10750 ] final   93.76 input  -60.55 | X-H torsion
[ 11005 11000 10999 10996 ] final  109.39 input  -57.11 | X-H torsion

> <Gold.Protein.ActiveResidues>
 VAL166  LYS551  ARG553  GLY616  TRP617  ASP618  TYR619  PRO620  LYS621  CYS622 
 ASP623  PHE694  ASN695  SER759  ASP760  ASP761  ALA762  ILE779  LEU786  VAL792 
 PHE793  MET794  SER795  GLU796  ALA797  LYS798  CYS799  TRP800  GLU811  SER814 

> <Gold.Protein.RotatedAtoms>
  151.7662  133.3337  159.3431 H   0  0  0  0  0  0  0  0  0  0  0  0  # atno 6907 bound_to 6896
  150.7479  134.6060  159.6071 H   0  0  0  0  0  0  0  0  0  0  0  0  # atno 6908 bound_to 6896
  152.3372  134.7184  160.0325 H   0  0  0  0  0  0  0  0  0  0  0  0  # atno 6909 bound_to 6896
  145.5559  139.2299  143.2486 H   0  0  0  0  0  0  0  0  0  0  0  0  # atno 7974 bound_to 7965
  155.8431  140.3461  155.5644 H   0  0  0  0  0  0  0  0  0  0  0  0  # atno 8008 bound_to 7997
  155.8119  140.0900  157.1918 H   0  0  0  0  0  0  0  0  0  0  0  0  # atno 8009 bound_to 7997
  154.4005  140.1446  156.3384 H   0  0  0  0  0  0  0  0  0  0  0  0  # atno 8010 bound_to 7997
  139.6131  144.0774  152.1862 H   0  0  0  0  0  0  0  0  0  0  0  0  # atno 10167 bound_to 10162
  156.7073  130.9220  151.3086 H   0  0  0  0  0  0  0  0  0  0  0  0  # atno 10718 bound_to 10713
  153.2339  135.4314  155.0625 H   0  0  0  0  0  0  0  0  0  0  0  0  # atno 10763 bound_to 10752
  154.8310  135.3386  154.6747 H   0  0  0  0  0  0  0  0  0  0  0  0  # atno 10764 bound_to 10752
  153.7173  135.7019  153.5078 H   0  0  0  0  0  0  0  0  0  0  0  0  # atno 10765 bound_to 10752
  139.8861  134.9457  156.6118 H   0  0  0  0  0  0  0  0  0  0  0  0  # atno 11005 bound_to 11000
  146.1884  140.6383  142.9157 LP  0  0  0  0  0  0  0  0  0  0  0  0  # atno 17320 bound_to 7965
  144.7506  140.5181  143.6804 LP  0  0  0  0  0  0  0  0  0  0  0  0  # atno 17321 bound_to 7965
  140.0397  144.6017  150.7421 LP  0  0  0  0  0  0  0  0  0  0  0  0  # atno 17342 bound_to 10162
  140.7333  143.2715  151.3873 LP  0  0  0  0  0  0  0  0  0  0  0  0  # atno 17343 bound_to 10162
  157.6950  130.9272  150.0618 LP  0  0  0  0  0  0  0  0  0  0  0  0  # atno 17370 bound_to 10713
  156.1686  130.3646  149.9197 LP  0  0  0  0  0  0  0  0  0  0  0  0  # atno 17371 bound_to 10713
  140.7805  133.8663  155.8564 LP  0  0  0  0  0  0  0  0  0  0  0  0  # atno 17394 bound_to 11000
  140.9764  134.1463  157.4532 LP  0  0  0  0  0  0  0  0  0  0  0  0  # atno 17395 bound_to 11000

$$$$
