AV-unprocessed.smi:3263|AV-procd|sdf|12492|dock5
  -GOLD-   2272018393D 1   1.00000     0.00000
 Structure written by MMmdl.
 42 44  0  0  0  0  0  0  0  0  2 V2000
  152.8729  139.6299  157.6568 O   0  0  0  0  0  0  0  0  0  0  0  0
  151.7833  140.0794  157.3016 C   0  0  0  0  0  0  0  0  0  0  0  0
  151.0106  141.0469  158.2046 C   0  0  0  0  0  0  0  0  0  0  0  0
  151.5896  142.4798  158.2078 C   0  0  2  0  0  0  0  0  0  0  0  0
  152.9362  142.6197  158.9592 C   0  0  0  0  0  0  0  0  0  0  0  0
  152.6519  143.7352  159.9810 C   0  0  1  0  0  0  0  0  0  0  0  0
  152.4843  145.0783  159.2464 C   0  0  0  0  0  0  0  0  0  0  0  0
  151.1121  144.9224  158.5639 C   0  0  0  0  0  0  0  0  0  0  0  0
  150.6966  143.4929  158.9611 C   0  0  2  0  0  0  0  0  0  0  0  0
  151.2208  143.4158  160.3922 C   0  0  0  0  0  0  0  0  0  0  0  0
  151.2079  139.7697  156.1298 N   0  0  0  0  0  0  0  0  0  0  0  0
  151.7704  138.8638  155.1357 C   0  0  0  0  0  0  0  0  0  0  0  0
  150.6814  138.0057  154.4706 C   0  0  0  0  0  0  0  0  0  0  0  0
  150.4921  136.6752  155.1726 C   0  0  0  0  0  0  0  0  0  0  0  0
  151.1848  136.3474  156.3582 C   0  0  0  0  0  0  0  0  0  0  0  0
  150.9567  135.0949  156.9656 C   0  0  0  0  0  0  0  0  0  0  0  0
  150.0419  134.1979  156.3759 C   0  0  0  0  0  0  0  0  0  0  0  0
  149.3773  134.5769  155.1916 C   0  0  0  0  0  0  0  0  0  0  0  0
  149.6227  135.7859  154.6400 N   0  3  0  0  0  0  0  0  0  0  0  0
  149.9780  141.0729  157.8548 H   0  0  0  0  0  0  0  0  0  0  0  0
  150.9786  140.6514  159.2208 H   0  0  0  0  0  0  0  0  0  0  0  0
  151.7061  142.8061  157.1730 H   0  0  0  0  0  0  0  0  0  0  0  0
  153.2010  141.6981  159.4792 H   0  0  0  0  0  0  0  0  0  0  0  0
  153.7604  142.8688  158.2898 H   0  0  0  0  0  0  0  0  0  0  0  0
  153.3703  143.7705  160.8003 H   0  0  0  0  0  0  0  0  0  0  0  0
  152.4694  145.9103  159.9517 H   0  0  0  0  0  0  0  0  0  0  0  0
  153.2869  145.2586  158.5303 H   0  0  0  0  0  0  0  0  0  0  0  0
  150.4047  145.6526  158.9586 H   0  0  0  0  0  0  0  0  0  0  0  0
  151.1637  145.0602  157.4834 H   0  0  0  0  0  0  0  0  0  0  0  0
  149.6274  143.3095  158.8512 H   0  0  0  0  0  0  0  0  0  0  0  0
  151.1105  142.4308  160.8485 H   0  0  0  0  0  0  0  0  0  0  0  0
  150.7832  144.1652  161.0544 H   0  0  0  0  0  0  0  0  0  0  0  0
  150.3115  140.1838  155.9177 H   0  0  0  0  0  0  0  0  0  0  0  0
  152.3221  139.4313  154.3841 H   0  0  0  0  0  0  0  0  0  0  0  0
  152.4976  138.2239  155.6362 H   0  0  0  0  0  0  0  0  0  0  0  0
  149.7316  138.5422  154.4653 H   0  0  0  0  0  0  0  0  0  0  0  0
  150.9339  137.8197  153.4258 H   0  0  0  0  0  0  0  0  0  0  0  0
  151.8807  137.0462  156.7997 H   0  0  0  0  0  0  0  0  0  0  0  0
  151.4764  134.8261  157.8736 H   0  0  0  0  0  0  0  0  0  0  0  0
  149.8521  133.2344  156.8261 H   0  0  0  0  0  0  0  0  0  0  0  0
  148.6620  133.9550  154.6734 H   0  0  0  0  0  0  0  0  0  0  0  0
  149.1292  136.0395  153.7838 H   0  0  0  0  0  0  0  0  0  0  0  0
  1  2  2  0  0  0  0
  2  3  1  0  0  0  0
  2 11  1  0  0  0  0
  3  4  1  0  0  0  0
  3 20  1  0  0  0  0
  3 21  1  0  0  0  0
  4  9  1  0  0  0  0
  4  5  1  0  0  0  0
  4 22  1  0  0  0  0
  5  6  1  0  0  0  0
  5 23  1  0  0  0  0
  5 24  1  0  0  0  0
  6 10  1  0  0  0  0
  6  7  1  0  0  0  0
  6 25  1  0  0  0  0
  7  8  1  0  0  0  0
  7 26  1  0  0  0  0
  7 27  1  0  0  0  0
  8  9  1  0  0  0  0
  8 28  1  0  0  0  0
  8 29  1  0  0  0  0
  9 10  1  0  0  0  0
  9 30  1  0  0  0  0
 10 31  1  0  0  0  0
 10 32  1  0  0  0  0
 11 12  1  0  0  0  0
 11 33  1  0  0  0  0
 12 13  1  0  0  0  0
 12 34  1  0  0  0  0
 12 35  1  0  0  0  0
 13 14  1  0  0  0  0
 13 36  1  0  0  0  0
 13 37  1  0  0  0  0
 14 19  1  0  0  0  0
 14 15  2  0  0  0  0
 15 16  1  0  0  0  0
 15 38  1  0  0  0  0
 16 17  2  0  0  0  0
 16 39  1  0  0  0  0
 17 18  1  0  0  0  0
 17 40  1  0  0  0  0
 18 19  2  0  0  0  0
 18 41  1  0  0  0  0
 19 42  1  0  0  0  0
M  CHG  1  19   1
M  END
> <s_m_source_file>
AV-unprocessed.smi

> <i_m_source_file_index>
3263

> <i_lp_mmshare_version>
43012

> <i_f3d_flags>
0

> <s_epik_input>
W0NIMl0xW0NIMl1bQ0BASF0oW0NIMl0yKVtDQEBIXShbQ0gyXVtDQEhdMTIpW0NIMl1DKD1PKVtOSF1bQ0gyXVtDSDJdYzNbY0hdW2NIXVtjSF1bY0hdbjM=

> <s_epik_cmdline>
J2VwaWtfcHl0aG9uJywgJy1waCcsICc3LjAnLCAnLXRuJywgJzgnLCAnLW1hJywgJzIwMCcsICctbWV0YWxfYmluZGluZycsICctaW1hZScsICc8aW5maWxlLm1hZT4nLCAnLW9tYWUnLCAnPG91dGZpbGUubWFlPic=

> <r_epik_Ionization_Penalty>
1.83579

> <r_epik_Ionization_Penalty_Charging>
1.83579

> <r_epik_Ionization_Penalty_Neutral>
2.47288e-08

> <r_epik_State_Penalty>
1.95213

> <r_epik_Charging_Adjusted_Penalty>
3.78793

> <i_epik_Tot_Q>
1

> <i_epik_Tot_abs_Q>
1

> <r_epik_Metal_State_Penalty>
1.97847

> <b_epik_Metal_Only>
0

> <s_lp_Force_Field>
OPLS_2005

> <r_lp_Energy>
51.8999

> <b_lp_Chiralities_Consistent>
1

> <s_lp_Variant>
AV-unprocessed.smi:3263-7

> <Gold.Version>
5.8.1

> <Gold.Id.Protein>
6NUR|6NUR_protein|mol2

> <Gold.PLP.Fitness>
45.1925

> <Gold.PLP.PLP>
-37.4499

> <Gold.PLP.part.hbond>
-2.7976

> <Gold.PLP.part.metal>
0.0000

> <Gold.PLP.part.buried>
-3.8161

> <Gold.PLP.part.nonpolar>
-32.7121

> <Gold.PLP.part.repulsive>
0.1803

> <Gold.PLP.ligand.clash>
0.0000

> <Gold.PLP.ligand.torsion>
0.6445

> <Gold.PLP.Chemscore.Hbond>
3.0000

> <Gold.PLP.Chemscore.CHOScore>
0.0000

> <Gold.PLP.Chemscore.Metal>
0.0000

> <Gold.Chemscore.Hbonds>
donor molecule, donor type, donor heavy atom, donor atom, acceptor molecule, acceptor atom, score
      L1  H    19    42       P1  7948  2.00
      P1  H  7997  8009       L1     1  1.00

> <Gold.PLP.Chemscore.Internal.Correction>
0.0317

> <Gold.Rescore>
     Score         DG    S(hbond)    S(metal)    S(lipo)     H(rot)  DE(clash)    DE(int)     intcor
     21.27     -21.97       1.93        0.00     119.99       1.56       0.17       0.53       ----

> <Gold.Chemscore.Fitness>
21.2690

> <Gold.Chemscore.DG>
-21.9672

> <Gold.Chemscore.ZeroCoef>
-5.4800

> <Gold.Chemscore.Hbond>
1.9317

> <Gold.Chemscore.Metal>
0.0000

> <Gold.Chemscore.Lipo>
119.9913

> <Gold.Chemscore.Internal_Hbond>
0.0000

> <Gold.Chemscore.DEClash>
0.1678

> <Gold.Chemscore.DEInternal>
0.5304

> <Gold.Chemscore.Rot>
1.5640

> <Gold.Chemscore.Internal.Correction>
   9.000000E+99

> <Gold.Chemscore.Hbonds>
donor molecule, donor type, donor heavy atom, donor atom, acceptor molecule, acceptor atom, score
      L1  H    19    42       P1  7948  0.90
      P1  H  7997  8009       L1     1  0.95

> <Gold.Chemscore.Hbond.Weighted>
-6.4519

> <Gold.Chemscore.Metal.Weighted>
-0.0000

> <Gold.Chemscore.Lipo.Weighted>
-14.0390

> <Gold.Chemscore.Internal_Hbond.Weighted>
0.0000

> <Gold.Chemscore.DEClash.Weighted>
0.1678

> <Gold.Chemscore.DEInternal.Weighted>
0.5304

> <Gold.Chemscore.Rot.Weighted>
4.0038

> <Gold.Chemscore.Internal.Correction.Weighted>
   9.000000E+99

> <Gold.Protein.RotatedTorsions>
[ 6907 6896 6895 6894 ] final  -35.97 input  -60.11 | X-H torsion
[ 7974 7965 7964 7962 ] final -124.71 input  175.53 | X-H torsion
[ 8008 7997 7996 7995 ] final  179.41 input   59.86 | X-H torsion
[ 10167 10162 10161 10158 ] final  179.85 input  -65.29 | X-H torsion
[ 10718 10713 10712 10709 ] final  173.75 input   66.30 | X-H torsion
[ 10763 10752 10751 10750 ] final   36.94 input  -60.55 | X-H torsion
[ 11005 11000 10999 10996 ] final  157.49 input  -57.11 | X-H torsion

> <Gold.Protein.ActiveResidues>
 VAL166  LYS551  ARG553  GLY616  TRP617  ASP618  TYR619  PRO620  LYS621  CYS622 
 ASP623  PHE694  ASN695  SER759  ASP760  ASP761  ALA762  ILE779  LEU786  VAL792 
 PHE793  MET794  SER795  GLU796  ALA797  LYS798  CYS799  TRP800  GLU811  SER814 

> <Gold.Protein.RotatedAtoms>
  151.0330  134.9553  159.8120 H   0  0  0  0  0  0  0  0  0  0  0  0  # atno 6907 bound_to 6896
  152.5349  134.2756  159.8998 H   0  0  0  0  0  0  0  0  0  0  0  0  # atno 6908 bound_to 6896
  151.2766  133.4187  159.2658 H   0  0  0  0  0  0  0  0  0  0  0  0  # atno 6909 bound_to 6896
  145.0052  140.7857  143.4472 H   0  0  0  0  0  0  0  0  0  0  0  0  # atno 7974 bound_to 7965
  156.0437  140.1309  157.0127 H   0  0  0  0  0  0  0  0  0  0  0  0  # atno 8008 bound_to 7997
  154.4403  140.1025  156.6345 H   0  0  0  0  0  0  0  0  0  0  0  0  # atno 8009 bound_to 7997
  155.5627  140.3465  155.4497 H   0  0  0  0  0  0  0  0  0  0  0  0  # atno 8010 bound_to 7997
  139.5354  144.2511  152.0783 H   0  0  0  0  0  0  0  0  0  0  0  0  # atno 10167 bound_to 10162
  156.9597  131.0057  151.2930 H   0  0  0  0  0  0  0  0  0  0  0  0  # atno 10718 bound_to 10713
  153.0057  135.6291  154.2066 H   0  0  0  0  0  0  0  0  0  0  0  0  # atno 10763 bound_to 10752
  154.1809  135.2813  155.3054 H   0  0  0  0  0  0  0  0  0  0  0  0  # atno 10764 bound_to 10752
  154.5835  135.5640  153.7268 H   0  0  0  0  0  0  0  0  0  0  0  0  # atno 10765 bound_to 10752
  140.1775  134.8500  157.2763 H   0  0  0  0  0  0  0  0  0  0  0  0  # atno 11005 bound_to 11000
  145.2098  139.2210  143.5149 LP  0  0  0  0  0  0  0  0  0  0  0  0  # atno 17320 bound_to 7965
  146.3460  140.1933  142.8589 LP  0  0  0  0  0  0  0  0  0  0  0  0  # atno 17321 bound_to 7965
  140.1981  144.4685  150.6445 LP  0  0  0  0  0  0  0  0  0  0  0  0  # atno 17342 bound_to 10162
  140.6558  143.2237  151.5972 LP  0  0  0  0  0  0  0  0  0  0  0  0  # atno 17343 bound_to 10162
  157.5666  130.8282  149.8335 LP  0  0  0  0  0  0  0  0  0  0  0  0  # atno 17370 bound_to 10713
  156.0327  130.3760  150.1643 LP  0  0  0  0  0  0  0  0  0  0  0  0  # atno 17371 bound_to 10713
  140.2306  134.3913  155.7523 LP  0  0  0  0  0  0  0  0  0  0  0  0  # atno 17394 bound_to 11000
  141.2221  133.7213  156.8635 LP  0  0  0  0  0  0  0  0  0  0  0  0  # atno 17395 bound_to 11000

$$$$
