AV-unprocessed.smi:1277|AV-procd|sdf|5345|dock1
  -GOLD-   22720 4473D 1   1.00000     0.00000
 Structure written by MMmdl.
 43 44  0  0  0  0  0  0  0  0  1 V2000
  144.7302  138.4251  161.2355 C   0  0  0  0  0  0  0  0  0  0  0  0
  146.0339  138.1984  161.7415 O   0  0  0  0  0  0  0  0  0  0  0  0
  146.2888  136.8259  161.9917 C   0  0  0  0  0  0  0  0  0  0  0  0
  147.7893  136.6276  162.2263 C   0  0  0  0  0  0  0  0  0  0  0  0
  148.5046  137.3042  161.1972 O   0  0  0  0  0  0  0  0  0  0  0  0
  148.7684  136.6298  160.0230 C   0  0  0  0  0  0  0  0  0  0  0  0
  149.5572  137.2669  159.0452 C   0  0  0  0  0  0  0  0  0  0  0  0
  149.8327  136.5839  157.8459 C   0  0  0  0  0  0  0  0  0  0  0  0
  149.3201  135.2844  157.6601 C   0  0  0  0  0  0  0  0  0  0  0  0
  149.6044  134.6290  156.4315 N   0  0  0  0  0  0  0  0  0  0  0  0
  149.0039  133.5531  155.8905 C   0  0  0  0  0  0  0  0  0  0  0  0
  148.0633  132.9463  156.4042 O   0  0  0  0  0  0  0  0  0  0  0  0
  149.5762  133.0933  154.5350 C   0  0  2  0  0  0  0  0  0  0  0  0
  148.5837  133.3765  153.3975 C   0  0  0  0  0  0  0  0  0  0  0  0
  147.7590  132.1029  153.2844 C   0  0  0  0  0  0  0  0  0  0  0  0
  148.7337  130.9915  153.6784 C   0  0  0  0  0  0  0  0  0  0  0  0
  149.7762  131.6380  154.4800 N   0  0  0  0  0  0  0  0  0  0  0  0
  150.8155  130.9945  155.0561 C   0  0  0  0  0  0  0  0  0  0  0  0
  150.9070  129.4748  154.9057 C   0  0  0  0  0  0  0  0  0  0  0  0
  151.6882  131.5826  155.6950 O   0  0  0  0  0  0  0  0  0  0  0  0
  148.5253  134.7358  158.6965 C   0  0  0  0  0  0  0  0  0  0  0  0
  148.2571  135.3861  159.8491 N   0  0  0  0  0  0  0  0  0  0  0  0
  150.5164  133.6141  154.3415 H   0  0  0  0  0  0  0  0  0  0  0  0
  144.5868  139.4909  161.0573 H   0  0  0  0  0  0  0  0  0  0  0  0
  143.9689  138.0965  161.9440 H   0  0  0  0  0  0  0  0  0  0  0  0
  144.5779  137.9031  160.2901 H   0  0  0  0  0  0  0  0  0  0  0  0
  145.7373  136.5151  162.8802 H   0  0  0  0  0  0  0  0  0  0  0  0
  145.9485  136.2062  161.1605 H   0  0  0  0  0  0  0  0  0  0  0  0
  148.0688  136.9978  163.2143 H   0  0  0  0  0  0  0  0  0  0  0  0
  148.0192  135.5617  162.1890 H   0  0  0  0  0  0  0  0  0  0  0  0
  149.9449  138.2608  159.2131 H   0  0  0  0  0  0  0  0  0  0  0  0
  150.4346  137.0533  157.0816 H   0  0  0  0  0  0  0  0  0  0  0  0
  150.4076  134.9806  155.9309 H   0  0  0  0  0  0  0  0  0  0  0  0
  147.9666  134.2614  153.5607 H   0  0  0  0  0  0  0  0  0  0  0  0
  149.1347  133.5338  152.4693 H   0  0  0  0  0  0  0  0  0  0  0  0
  146.9353  132.1381  153.9987 H   0  0  0  0  0  0  0  0  0  0  0  0
  147.3318  131.9594  152.2915 H   0  0  0  0  0  0  0  0  0  0  0  0
  148.2246  130.2007  154.2309 H   0  0  0  0  0  0  0  0  0  0  0  0
  149.1842  130.5521  152.7870 H   0  0  0  0  0  0  0  0  0  0  0  0
  150.9781  129.1937  153.8548 H   0  0  0  0  0  0  0  0  0  0  0  0
  150.0320  128.9912  155.3407 H   0  0  0  0  0  0  0  0  0  0  0  0
  151.7904  129.0902  155.4165 H   0  0  0  0  0  0  0  0  0  0  0  0
  148.0661  133.7633  158.6132 H   0  0  0  0  0  0  0  0  0  0  0  0
  1  2  1  0  0  0  0
  1 24  1  0  0  0  0
  1 25  1  0  0  0  0
  1 26  1  0  0  0  0
  2  3  1  0  0  0  0
  3  4  1  0  0  0  0
  3 27  1  0  0  0  0
  3 28  1  0  0  0  0
  4  5  1  0  0  0  0
  4 29  1  0  0  0  0
  4 30  1  0  0  0  0
  5  6  1  0  0  0  0
  6 22  1  0  0  0  0
  6  7  2  0  0  0  0
  7  8  1  0  0  0  0
  7 31  1  0  0  0  0
  8  9  2  0  0  0  0
  8 32  1  0  0  0  0
  9 10  1  0  0  0  0
  9 21  1  0  0  0  0
 10 11  1  0  0  0  0
 10 33  1  0  0  0  0
 11 12  2  0  0  0  0
 11 13  1  0  0  0  0
 13 23  1  0  0  0  0
 13 17  1  0  0  0  0
 13 14  1  0  0  0  0
 14 15  1  0  0  0  0
 14 34  1  0  0  0  0
 14 35  1  0  0  0  0
 15 16  1  0  0  0  0
 15 36  1  0  0  0  0
 15 37  1  0  0  0  0
 16 17  1  0  0  0  0
 16 38  1  0  0  0  0
 16 39  1  0  0  0  0
 17 18  1  0  0  0  0
 18 19  1  0  0  0  0
 18 20  2  0  0  0  0
 19 40  1  0  0  0  0
 19 41  1  0  0  0  0
 19 42  1  0  0  0  0
 21 22  2  0  0  0  0
 21 43  1  0  0  0  0
M  END
> <s_m_source_file>
AV-unprocessed.smi

> <i_m_source_file_index>
1277

> <i_lp_mmshare_version>
43012

> <i_f3d_flags>
0

> <s_epik_input>
W0NIM11PW0NIMl1bQ0gyXU9jMVtjSF1bY0hdYyhbY0hdbjEpW05IXUMoPU8pW0NAQEhdMltDSDJdW0NIMl1bQ0gyXU4yQyg9TylbQ0gzXQ==

> <s_epik_cmdline>
J2VwaWtfcHl0aG9uJywgJy1waCcsICc3LjAnLCAnLXRuJywgJzgnLCAnLW1hJywgJzIwMCcsICctbWV0YWxfYmluZGluZycsICctaW1hZScsICc8aW5maWxlLm1hZT4nLCAnLW9tYWUnLCAnPG91dGZpbGUubWFlPic=

> <r_lp_tautomer_probability>
1

> <r_epik_Ionization_Penalty>
1.62854e-05

> <r_epik_Ionization_Penalty_Charging>
0

> <r_epik_Ionization_Penalty_Neutral>
1.62854e-05

> <r_epik_State_Penalty>
-0

> <r_epik_Charging_Adjusted_Penalty>
0

> <i_epik_Tot_Q>
0

> <i_epik_Tot_abs_Q>
0

> <r_epik_Metal_State_Penalty>
-0

> <b_epik_Metal_Only>
0

> <s_lp_Force_Field>
OPLS_2005

> <r_lp_Energy>
18.7182

> <b_lp_Chiralities_Consistent>
1

> <s_lp_Variant>
AV-unprocessed.smi:1277-1

> <Gold.Version>
5.8.1

> <Gold.Id.Protein>
6NUR|6NUR_protein|mol2

> <Gold.PLP.Fitness>
38.8286

> <Gold.PLP.PLP>
-34.5214

> <Gold.PLP.part.hbond>
-2.5095

> <Gold.PLP.part.metal>
0.0000

> <Gold.PLP.part.buried>
-3.9625

> <Gold.PLP.part.nonpolar>
-27.6042

> <Gold.PLP.part.repulsive>
0.0543

> <Gold.PLP.ligand.clash>
0.0000

> <Gold.PLP.ligand.torsion>
0.5875

> <Gold.PLP.Chemscore.Hbond>
1.7520

> <Gold.PLP.Chemscore.CHOScore>
0.0000

> <Gold.PLP.Chemscore.Metal>
0.0000

> <Gold.Chemscore.Hbonds>
donor molecule, donor type, donor heavy atom, donor atom, acceptor molecule, acceptor atom, score
      P1  H  6931  6943       L1     5  0.41
      P1  H  6934  6947       L1     2  0.62

> <Gold.PLP.Chemscore.Internal.Correction>
0.2261

> <Gold.Rescore>
     Score         DG    S(hbond)    S(metal)    S(lipo)     H(rot)  DE(clash)    DE(int)     intcor
     10.85     -12.55       1.48        0.00      59.40       1.89       0.01       1.69       ----

> <Gold.Chemscore.Fitness>
10.8473

> <Gold.Chemscore.DG>
-12.5464

> <Gold.Chemscore.ZeroCoef>
-5.4800

> <Gold.Chemscore.Hbond>
1.4825

> <Gold.Chemscore.Metal>
0.0000

> <Gold.Chemscore.Lipo>
59.3953

> <Gold.Chemscore.Internal_Hbond>
0.0000

> <Gold.Chemscore.DEClash>
0.0118

> <Gold.Chemscore.DEInternal>
1.6873

> <Gold.Chemscore.Rot>
1.8884

> <Gold.Chemscore.Internal.Correction>
   9.000000E+99

> <Gold.Chemscore.Hbonds>
donor molecule, donor type, donor heavy atom, donor atom, acceptor molecule, acceptor atom, score
      P1  H  6931  6943       L1     5  0.10
      P1  H  6934  6947       L1     2  0.48

> <Gold.Chemscore.Hbond.Weighted>
-4.9514

> <Gold.Chemscore.Metal.Weighted>
-0.0000

> <Gold.Chemscore.Lipo.Weighted>
-6.9492

> <Gold.Chemscore.Internal_Hbond.Weighted>
0.0000

> <Gold.Chemscore.DEClash.Weighted>
0.0118

> <Gold.Chemscore.DEInternal.Weighted>
1.6873

> <Gold.Chemscore.Rot.Weighted>
4.8342

> <Gold.Chemscore.Internal.Correction.Weighted>
   9.000000E+99

> <Gold.Protein.RotatedTorsions>
[ 6907 6896 6895 6894 ] final  131.73 input  -60.11 | X-H torsion
[ 7974 7965 7964 7962 ] final   83.90 input  175.53 | X-H torsion
[ 8008 7997 7996 7995 ] final  -75.19 input   59.86 | X-H torsion
[ 10167 10162 10161 10158 ] final -168.04 input  -65.29 | X-H torsion
[ 10718 10713 10712 10709 ] final -167.42 input   66.30 | X-H torsion
[ 10763 10752 10751 10750 ] final  -21.63 input  -60.55 | X-H torsion
[ 11005 11000 10999 10996 ] final   49.40 input  -57.11 | X-H torsion

> <Gold.Protein.ActiveResidues>
 VAL166  LYS551  ARG553  GLY616  TRP617  ASP618  TYR619  PRO620  LYS621  CYS622 
 ASP623  PHE694  ASN695  SER759  ASP760  ASP761  ALA762  ILE779  LEU786  VAL792 
 PHE793  MET794  SER795  GLU796  ALA797  LYS798  CYS799  TRP800  GLU811  SER814 

> <Gold.Protein.RotatedAtoms>
  152.3396  133.6051  159.5866 H   0  0  0  0  0  0  0  0  0  0  0  0  # atno 6907 bound_to 6896
  150.7471  133.9742  159.3564 H   0  0  0  0  0  0  0  0  0  0  0  0  # atno 6908 bound_to 6896
  151.7608  135.0811  160.0396 H   0  0  0  0  0  0  0  0  0  0  0  0  # atno 6909 bound_to 6896
  145.6059  139.2360  143.2220 H   0  0  0  0  0  0  0  0  0  0  0  0  # atno 7974 bound_to 7965
  154.5395  140.0748  156.8486 H   0  0  0  0  0  0  0  0  0  0  0  0  # atno 8008 bound_to 7997
  155.3209  140.3396  155.4223 H   0  0  0  0  0  0  0  0  0  0  0  0  # atno 8009 bound_to 7997
  156.1861  140.1669  156.8169 H   0  0  0  0  0  0  0  0  0  0  0  0  # atno 8010 bound_to 7997
  139.6011  144.1009  152.1743 H   0  0  0  0  0  0  0  0  0  0  0  0  # atno 10167 bound_to 10162
  156.6821  130.9126  151.3058 H   0  0  0  0  0  0  0  0  0  0  0  0  # atno 10718 bound_to 10713
  153.6391  135.6986  153.5248 H   0  0  0  0  0  0  0  0  0  0  0  0  # atno 10763 bound_to 10752
  153.2797  135.4189  155.1066 H   0  0  0  0  0  0  0  0  0  0  0  0  # atno 10764 bound_to 10752
  154.8504  135.3599  154.5935 H   0  0  0  0  0  0  0  0  0  0  0  0  # atno 10765 bound_to 10752
  140.1107  134.4958  155.8680 H   0  0  0  0  0  0  0  0  0  0  0  0  # atno 11005 bound_to 11000
  146.1541  140.6883  142.9308 LP  0  0  0  0  0  0  0  0  0  0  0  0  # atno 17320 bound_to 7965
  144.7290  140.4614  143.6952 LP  0  0  0  0  0  0  0  0  0  0  0  0  # atno 17321 bound_to 7965
  140.0606  144.5860  150.7266 LP  0  0  0  0  0  0  0  0  0  0  0  0  # atno 17342 bound_to 10162
  140.7250  143.2627  151.4151 LP  0  0  0  0  0  0  0  0  0  0  0  0  # atno 17343 bound_to 10162
  157.7040  130.9364  150.0872 LP  0  0  0  0  0  0  0  0  0  0  0  0  # atno 17370 bound_to 10713
  156.1860  130.3652  149.8973 LP  0  0  0  0  0  0  0  0  0  0  0  0  # atno 17371 bound_to 10713
  141.2129  133.6726  156.6699 LP  0  0  0  0  0  0  0  0  0  0  0  0  # atno 17394 bound_to 11000
  140.3095  134.8098  157.4164 LP  0  0  0  0  0  0  0  0  0  0  0  0  # atno 17395 bound_to 11000

$$$$
