AV-unprocessed.smi:526|AV-procd|sdf|2811|dock8
  -GOLD-   2262023293D 1   1.00000     0.00000
 Structure written by MMmdl.
 30 30  0  0  0  0  0  0  0  0  2 V2000
  152.7756  142.6646  161.3789 C   0  0  0  0  0  0  0  0  0  0  0  0
  152.5336  143.3689  160.2609 C   0  0  0  0  0  0  0  0  0  0  0  0
  153.5311  143.4332  159.1198 C   0  0  0  0  0  0  0  0  0  0  0  0
  151.2461  144.1474  160.0630 C   0  0  0  0  0  0  0  0  0  0  0  0
  150.7913  144.3067  158.3125 S   0  0  0  0  0  0  0  0  0  0  0  0
  151.0048  142.5987  157.7336 C   0  0  0  0  0  0  0  0  0  0  0  0
  151.5756  141.5991  158.3256 N   0  0  0  0  0  0  0  0  0  0  0  0
  151.6284  140.3487  157.6970 C   0  0  0  0  0  0  0  0  0  0  0  0
  152.3146  139.2455  158.4834 C   0  0  0  0  0  0  0  0  0  0  0  0
  151.0918  140.1515  156.4598 C   0  0  0  0  0  0  0  0  0  0  0  0
  151.1253  138.8003  155.7430 C   0  0  0  0  0  0  0  0  0  0  0  0
  152.5198  138.1751  155.6159 C   0  0  0  0  0  0  0  0  0  0  0  0
  152.6838  137.0641  156.1652 O   0  0  0  0  0  0  0  0  0  0  0  0
  153.3985  138.8036  154.9843 O   0  5  0  0  0  0  0  0  0  0  0  0
  150.4456  141.2833  155.7738 C   0  0  0  0  0  0  0  0  0  0  0  0
  149.9321  141.2254  154.6575 O   0  0  0  0  0  0  0  0  0  0  0  0
  150.4436  142.4445  156.4654 N   0  0  0  0  0  0  0  0  0  0  0  0
  150.0067  143.2443  156.0314 H   0  0  0  0  0  0  0  0  0  0  0  0
  153.6964  142.1146  161.5070 H   0  0  0  0  0  0  0  0  0  0  0  0
  152.0564  142.6261  162.1839 H   0  0  0  0  0  0  0  0  0  0  0  0
  153.8239  144.4663  158.9313 H   0  0  0  0  0  0  0  0  0  0  0  0
  153.0971  143.0271  158.2060 H   0  0  0  0  0  0  0  0  0  0  0  0
  154.4322  142.8623  159.3472 H   0  0  0  0  0  0  0  0  0  0  0  0
  150.4292  143.6520  160.5895 H   0  0  0  0  0  0  0  0  0  0  0  0
  151.3544  145.1390  160.5036 H   0  0  0  0  0  0  0  0  0  0  0  0
  153.2050  138.8992  157.9584 H   0  0  0  0  0  0  0  0  0  0  0  0
  151.6423  138.3988  158.6238 H   0  0  0  0  0  0  0  0  0  0  0  0
  152.6219  139.5939  159.4702 H   0  0  0  0  0  0  0  0  0  0  0  0
  150.4685  138.0843  156.2380 H   0  0  0  0  0  0  0  0  0  0  0  0
  150.7123  138.9187  154.7413 H   0  0  0  0  0  0  0  0  0  0  0  0
  1  2  2  0  0  0  0
  1 19  1  0  0  0  0
  1 20  1  0  0  0  0
  2  3  1  0  0  0  0
  2  4  1  0  0  0  0
  3 21  1  0  0  0  0
  3 22  1  0  0  0  0
  3 23  1  0  0  0  0
  4  5  1  0  0  0  0
  4 24  1  0  0  0  0
  4 25  1  0  0  0  0
  5  6  1  0  0  0  0
  6 17  1  0  0  0  0
  6  7  2  0  0  0  0
  7  8  1  0  0  0  0
  8  9  1  0  0  0  0
  8 10  2  0  0  0  0
  9 26  1  0  0  0  0
  9 27  1  0  0  0  0
  9 28  1  0  0  0  0
 10 11  1  0  0  0  0
 10 15  1  0  0  0  0
 11 12  1  0  0  0  0
 11 29  1  0  0  0  0
 11 30  1  0  0  0  0
 12 13  2  0  0  0  0
 12 14  1  0  0  0  0
 15 16  2  0  0  0  0
 15 17  1  0  0  0  0
 17 18  1  0  0  0  0
M  CHG  1  14  -1
M  END
> <s_m_source_file>
AV-unprocessed.smi

> <i_m_source_file_index>
526

> <i_lp_mmshare_version>
43012

> <i_f3d_flags>
0

> <s_epik_input>
W0NIMl09QyhbQ0gzXSlbQ0gyXVNjMW5jKFtDSDNdKWMoYyg9TylbbkhdMSlbQ0gyXUMoPU8pW09IXQ==

> <s_epik_cmdline>
J2VwaWtfcHl0aG9uJywgJy1waCcsICc3LjAnLCAnLXRuJywgJzgnLCAnLW1hJywgJzIwMCcsICctbWV0YWxfYmluZGluZycsICctaW1hZScsICc8aW5maWxlLm1hZT4nLCAnLW9tYWUnLCAnPG91dGZpbGUubWFlPic=

> <r_lp_tautomer_probability>
0.660323

> <r_epik_Ionization_Penalty>
0.000759783

> <r_epik_Ionization_Penalty_Charging>
0.000714454

> <r_epik_Ionization_Penalty_Neutral>
4.53284e-05

> <r_epik_State_Penalty>
0.230805

> <r_epik_Charging_Adjusted_Penalty>
0.231519

> <i_epik_Tot_Q>
-1

> <i_epik_Tot_abs_Q>
1

> <r_epik_Metal_State_Penalty>
0.34438

> <b_epik_Metal_Only>
0

> <s_lp_Force_Field>
OPLS_2005

> <r_lp_Energy>
1.72321

> <b_lp_Chiralities_Consistent>
1

> <s_lp_Variant>
AV-unprocessed.smi:526-1

> <Gold.Version>
5.8.1

> <Gold.Id.Protein>
6NUR|6NUR_protein|mol2

> <Gold.PLP.Fitness>
49.3909

> <Gold.PLP.PLP>
-34.9016

> <Gold.PLP.part.hbond>
-4.0093

> <Gold.PLP.part.metal>
0.0000

> <Gold.PLP.part.buried>
-4.9947

> <Gold.PLP.part.nonpolar>
-27.0135

> <Gold.PLP.part.repulsive>
0.2214

> <Gold.PLP.ligand.clash>
0.0000

> <Gold.PLP.ligand.torsion>
0.5837

> <Gold.PLP.Chemscore.Hbond>
5.2108

> <Gold.PLP.Chemscore.CHOScore>
0.0000

> <Gold.PLP.Chemscore.Metal>
0.0000

> <Gold.Chemscore.Hbonds>
donor molecule, donor type, donor heavy atom, donor atom, acceptor molecule, acceptor atom, score
      L1  H    17    18       P1  8028  1.00
      P1  H  7989  7998       L1    16  0.48
      P1  H  7997  8008       L1    14  2.00
      P1  H 10752 10765       L1    13  1.63

> <Gold.PLP.Chemscore.Internal.Correction>
0.0243

> <Gold.Rescore>
     Score         DG    S(hbond)    S(metal)    S(lipo)     H(rot)  DE(clash)    DE(int)     intcor
     16.77     -18.62       2.98        0.00      78.42       2.34       0.11       1.75       ----

> <Gold.Chemscore.Fitness>
16.7652

> <Gold.Chemscore.DG>
-18.6249

> <Gold.Chemscore.ZeroCoef>
-5.4800

> <Gold.Chemscore.Hbond>
2.9835

> <Gold.Chemscore.Metal>
0.0000

> <Gold.Chemscore.Lipo>
78.4250

> <Gold.Chemscore.Internal_Hbond>
0.0000

> <Gold.Chemscore.DEClash>
0.1142

> <Gold.Chemscore.DEInternal>
1.7456

> <Gold.Chemscore.Rot>
2.3420

> <Gold.Chemscore.Internal.Correction>
   9.000000E+99

> <Gold.Chemscore.Hbonds>
donor molecule, donor type, donor heavy atom, donor atom, acceptor molecule, acceptor atom, score
      L1  H    17    18       P1  8028  1.00
      P1  H  7989  7998       L1    16  0.14
      P1  H  7997  8008       L1    14  0.94
      P1  H 10752 10765       L1    13  0.78

> <Gold.Chemscore.Hbond.Weighted>
-9.9647

> <Gold.Chemscore.Metal.Weighted>
-0.0000

> <Gold.Chemscore.Lipo.Weighted>
-9.1757

> <Gold.Chemscore.Internal_Hbond.Weighted>
0.0000

> <Gold.Chemscore.DEClash.Weighted>
0.1142

> <Gold.Chemscore.DEInternal.Weighted>
1.7456

> <Gold.Chemscore.Rot.Weighted>
5.9955

> <Gold.Chemscore.Internal.Correction.Weighted>
   9.000000E+99

> <Gold.Protein.RotatedTorsions>
[ 6907 6896 6895 6894 ] final  126.71 input  -60.11 | X-H torsion
[ 7974 7965 7964 7962 ] final   46.32 input  175.53 | X-H torsion
[ 8008 7997 7996 7995 ] final  -12.25 input   59.86 | X-H torsion
[ 10167 10162 10161 10158 ] final   31.77 input  -65.29 | X-H torsion
[ 10718 10713 10712 10709 ] final  139.36 input   66.30 | X-H torsion
[ 10763 10752 10751 10750 ] final -146.27 input  -60.55 | X-H torsion
[ 11005 11000 10999 10996 ] final   21.76 input  -57.11 | X-H torsion

> <Gold.Protein.ActiveResidues>
 VAL166  LYS551  ARG553  GLY616  TRP617  ASP618  TYR619  PRO620  LYS621  CYS622 
 ASP623  PHE694  ASN695  SER759  ASP760  ASP761  ALA762  ILE779  LEU786  VAL792 
 PHE793  MET794  SER795  GLU796  ALA797  LYS798  CYS799  TRP800  GLU811  SER814 

> <Gold.Protein.RotatedAtoms>
  152.3879  133.6637  159.6213 H   0  0  0  0  0  0  0  0  0  0  0  0  # atno 6907 bound_to 6896
  150.7793  133.9005  159.3348 H   0  0  0  0  0  0  0  0  0  0  0  0  # atno 6908 bound_to 6896
  151.6797  135.0965  160.0265 H   0  0  0  0  0  0  0  0  0  0  0  0  # atno 6909 bound_to 6896
  146.0400  139.4868  142.9784 H   0  0  0  0  0  0  0  0  0  0  0  0  # atno 7974 bound_to 7965
  154.5394  140.2281  155.8667 H   0  0  0  0  0  0  0  0  0  0  0  0  # atno 8008 bound_to 7997
  156.1843  140.3092  155.9171 H   0  0  0  0  0  0  0  0  0  0  0  0  # atno 8009 bound_to 7997
  155.3289  140.0444  157.3032 H   0  0  0  0  0  0  0  0  0  0  0  0  # atno 8010 bound_to 7997
  140.4558  144.0980  150.6201 H   0  0  0  0  0  0  0  0  0  0  0  0  # atno 10167 bound_to 10162
  157.4153  131.1032  151.0411 H   0  0  0  0  0  0  0  0  0  0  0  0  # atno 10718 bound_to 10713
  154.8344  135.3391  154.6636 H   0  0  0  0  0  0  0  0  0  0  0  0  # atno 10763 bound_to 10752
  153.7252  135.6955  153.5007 H   0  0  0  0  0  0  0  0  0  0  0  0  # atno 10764 bound_to 10752
  153.2352  135.4403  155.0591 H   0  0  0  0  0  0  0  0  0  0  0  0  # atno 10765 bound_to 10752
  140.3880  134.1850  155.7663 H   0  0  0  0  0  0  0  0  0  0  0  0  # atno 11005 bound_to 11000
  145.6900  141.0167  143.1560 LP  0  0  0  0  0  0  0  0  0  0  0  0  # atno 17320 bound_to 7965
  144.7070  139.8521  143.7427 LP  0  0  0  0  0  0  0  0  0  0  0  0  # atno 17321 bound_to 7965
  140.4152  143.2637  151.9783 LP  0  0  0  0  0  0  0  0  0  0  0  0  # atno 17342 bound_to 10162
  139.4801  144.5880  151.7821 LP  0  0  0  0  0  0  0  0  0  0  0  0  # atno 17343 bound_to 10162
  157.1361  130.6123  149.5542 LP  0  0  0  0  0  0  0  0  0  0  0  0  # atno 17370 bound_to 10713
  155.9863  130.4897  150.7073 LP  0  0  0  0  0  0  0  0  0  0  0  0  # atno 17371 bound_to 10713
  141.1901  133.8225  157.0932 LP  0  0  0  0  0  0  0  0  0  0  0  0  # atno 17394 bound_to 11000
  140.0428  134.9845  157.0994 LP  0  0  0  0  0  0  0  0  0  0  0  0  # atno 17395 bound_to 11000

$$$$
