AV-unprocessed.smi:187|AV-procd|sdf|1470|dock6
  -GOLD-   2262019283D 1   1.00000     0.00000
 Structure written by MMmdl.
 53 56  0  0  0  0  0  0  0  0  1 V2000
  150.0551  138.2488  154.7719 C   0  0  0  0  0  0  0  0  0  0  0  0
  148.9454  139.2960  154.5402 C   0  0  2  0  0  0  0  0  0  0  0  0
  149.4427  140.6862  154.9884 C   0  0  0  0  0  0  0  0  0  0  0  0
  148.3529  141.7617  154.8387 C   0  0  0  0  0  0  0  0  0  0  0  0
  147.0349  141.3596  155.5339 C   0  0  2  0  0  0  0  0  0  0  0  0
  147.1116  141.4824  157.0682 C   0  0  0  0  0  0  0  0  0  0  0  0
  147.6623  142.5965  157.5577 N   0  0  0  0  0  0  0  0  0  0  0  0
  146.6760  140.5998  157.8054 O   0  0  0  0  0  0  0  0  0  0  0  0
  146.6157  139.9472  155.0723 C   0  0  0  0  0  0  0  0  0  0  0  0
  147.6896  138.9636  155.2283 N   0  0  0  0  0  0  0  0  0  0  0  0
  147.2412  137.7037  155.0323 C   0  0  0  0  0  0  0  0  0  0  0  0
  147.4633  136.7484  155.9732 N   0  0  0  0  0  0  0  0  0  0  0  0
  147.0035  135.5086  155.7804 C   0  0  0  0  0  0  0  0  0  0  0  0
  146.3118  135.0261  154.7457 N   0  0  0  0  0  0  0  0  0  0  0  0
  146.0870  135.9861  153.8017 C   0  0  0  0  0  0  0  0  0  0  0  0
  146.5184  137.3399  153.8670 C   0  0  0  0  0  0  0  0  0  0  0  0
  146.1111  138.0294  152.7332 N   0  0  0  0  0  0  0  0  0  0  0  0
  145.4707  137.1324  152.0340 C   0  0  0  0  0  0  0  0  0  0  0  0
  145.4050  135.8775  152.5996 N   0  0  0  0  0  0  0  0  0  0  0  0
  144.7579  134.7231  152.0413 C   0  0  0  0  0  0  0  0  0  0  0  0
  145.1769  133.3057  152.4407 C   0  0  0  0  0  0  0  0  0  0  0  0
  144.8521  132.8173  151.0090 C   0  0  0  0  0  0  0  0  0  0  0  0
  145.8376  131.8228  150.3638 C   0  0  0  0  0  0  0  0  0  0  0  0
  147.1743  132.2816  150.4032 O   0  0  0  0  0  0  0  0  0  0  0  0
  143.4347  132.2475  150.8144 C   0  0  0  0  0  0  0  0  0  0  0  0
  143.1190  132.0897  149.4457 O   0  0  0  0  0  0  0  0  0  0  0  0
  144.9967  134.2995  150.5895 C   0  0  0  0  0  0  0  0  0  0  0  0
  150.9874  138.5568  154.2980 H   0  0  0  0  0  0  0  0  0  0  0  0
  149.7939  137.2763  154.3538 H   0  0  0  0  0  0  0  0  0  0  0  0
  150.2535  138.1130  155.8357 H   0  0  0  0  0  0  0  0  0  0  0  0
  148.7355  139.3401  153.4703 H   0  0  0  0  0  0  0  0  0  0  0  0
  149.7778  140.6418  156.0251 H   0  0  0  0  0  0  0  0  0  0  0  0
  150.3173  140.9739  154.4039 H   0  0  0  0  0  0  0  0  0  0  0  0
  148.7152  142.7147  155.2267 H   0  0  0  0  0  0  0  0  0  0  0  0
  148.1585  141.9235  153.7778 H   0  0  0  0  0  0  0  0  0  0  0  0
  146.2603  142.0511  155.1985 H   0  0  0  0  0  0  0  0  0  0  0  0
  147.7362  142.7268  158.5561 H   0  0  0  0  0  0  0  0  0  0  0  0
  148.0027  143.3059  156.9249 H   0  0  0  0  0  0  0  0  0  0  0  0
  145.7375  139.6222  155.6331 H   0  0  0  0  0  0  0  0  0  0  0  0
  146.3159  139.9869  154.0238 H   0  0  0  0  0  0  0  0  0  0  0  0
  147.2177  134.8021  156.5687 H   0  0  0  0  0  0  0  0  0  0  0  0
  145.0239  137.3671  151.0788 H   0  0  0  0  0  0  0  0  0  0  0  0
  143.6882  134.8533  152.2164 H   0  0  0  0  0  0  0  0  0  0  0  0
  146.2345  133.2322  152.6962 H   0  0  0  0  0  0  0  0  0  0  0  0
  144.5632  132.8654  153.2270 H   0  0  0  0  0  0  0  0  0  0  0  0
  145.8083  130.8570  150.8690 H   0  0  0  0  0  0  0  0  0  0  0  0
  145.5776  131.6403  149.3207 H   0  0  0  0  0  0  0  0  0  0  0  0
  147.7425  131.5416  150.5525 H   0  0  0  0  0  0  0  0  0  0  0  0
  143.3317  131.2736  151.2936 H   0  0  0  0  0  0  0  0  0  0  0  0
  142.6859  132.8938  151.2740 H   0  0  0  0  0  0  0  0  0  0  0  0
  142.4756  132.7403  149.2085 H   0  0  0  0  0  0  0  0  0  0  0  0
  144.2369  134.6521  149.8916 H   0  0  0  0  0  0  0  0  0  0  0  0
  145.9931  134.5625  150.2327 H   0  0  0  0  0  0  0  0  0  0  0  0
  1  2  1  0  0  0  0
  1 28  1  0  0  0  0
  1 29  1  0  0  0  0
  1 30  1  0  0  0  0
  2 10  1  0  0  0  0
  2  3  1  0  0  0  0
  2 31  1  0  0  0  0
  3  4  1  0  0  0  0
  3 32  1  0  0  0  0
  3 33  1  0  0  0  0
  4  5  1  0  0  0  0
  4 34  1  0  0  0  0
  4 35  1  0  0  0  0
  5  6  1  0  0  0  0
  5  9  1  0  0  0  0
  5 36  1  0  0  0  0
  6  7  1  0  0  0  0
  6  8  2  0  0  0  0
  7 37  1  0  0  0  0
  7 38  1  0  0  0  0
  9 10  1  0  0  0  0
  9 39  1  0  0  0  0
  9 40  1  0  0  0  0
 10 11  1  0  0  0  0
 11 16  1  0  0  0  0
 11 12  2  0  0  0  0
 12 13  1  0  0  0  0
 13 14  2  0  0  0  0
 13 41  1  0  0  0  0
 14 15  1  0  0  0  0
 15 19  1  0  0  0  0
 15 16  2  0  0  0  0
 16 17  1  0  0  0  0
 17 18  2  0  0  0  0
 18 19  1  0  0  0  0
 18 42  1  0  0  0  0
 19 20  1  0  0  0  0
 20 27  1  0  0  0  0
 20 21  1  0  0  0  0
 20 43  1  0  0  0  0
 21 22  1  0  0  0  0
 21 44  1  0  0  0  0
 21 45  1  0  0  0  0
 22 23  1  0  0  0  0
 22 25  1  0  0  0  0
 22 27  1  0  0  0  0
 23 24  1  0  0  0  0
 23 46  1  0  0  0  0
 23 47  1  0  0  0  0
 24 48  1  0  0  0  0
 25 26  1  0  0  0  0
 25 49  1  0  0  0  0
 25 50  1  0  0  0  0
 26 51  1  0  0  0  0
 27 52  1  0  0  0  0
 27 53  1  0  0  0  0
M  END
> <s_m_source_file>
AV-unprocessed.smi

> <i_m_source_file_index>
187

> <i_lp_mmshare_version>
43012

> <i_f3d_flags>
0

> <s_epik_input>
W0NIM11bQ0BASF0xW0NIMl1bQ0gyXVtDQEBIXShDKD1PKVtOSDJdKVtDSDJdTjFjKG5bY0hdbjIpYyhjMjMpbltjSF1uM1tDSF0oW0NIMl00KVtDSDJdQzQoW0NIMl1bT0hdKVtDSDJdW09IXQ==

> <s_epik_cmdline>
J2VwaWtfcHl0aG9uJywgJy1waCcsICc3LjAnLCAnLXRuJywgJzgnLCAnLW1hJywgJzIwMCcsICctbWV0YWxfYmluZGluZycsICctaW1hZScsICc8aW5maWxlLm1hZT4nLCAnLW9tYWUnLCAnPG91dGZpbGUubWFlPic=

> <r_lp_tautomer_probability>
1

> <r_epik_Ionization_Penalty>
0.0017711

> <r_epik_Ionization_Penalty_Charging>
0

> <r_epik_Ionization_Penalty_Neutral>
0.0017711

> <r_epik_State_Penalty>
0.00107211

> <r_epik_Charging_Adjusted_Penalty>
0.00107211

> <i_epik_Tot_Q>
0

> <i_epik_Tot_abs_Q>
0

> <r_epik_Metal_State_Penalty>
-0

> <b_epik_Metal_Only>
0

> <s_lp_Force_Field>
OPLS_2005

> <r_lp_Energy>
40.7321

> <b_lp_Chiralities_Consistent>
1

> <s_lp_Variant>
AV-unprocessed.smi:187-3

> <Gold.Version>
5.8.1

> <Gold.Id.Protein>
6NUR|6NUR_protein|mol2

> <Gold.PLP.Fitness>
47.4292

> <Gold.PLP.PLP>
-35.4851

> <Gold.PLP.part.hbond>
-5.6755

> <Gold.PLP.part.metal>
0.0000

> <Gold.PLP.part.buried>
-0.2667

> <Gold.PLP.part.nonpolar>
-29.9284

> <Gold.PLP.part.repulsive>
0.5341

> <Gold.PLP.ligand.clash>
0.0000

> <Gold.PLP.ligand.torsion>
1.2166

> <Gold.PLP.Chemscore.Hbond>
3.6250

> <Gold.PLP.Chemscore.CHOScore>
0.9598

> <Gold.PLP.Chemscore.Metal>
0.0000

> <Gold.Chemscore.Hbonds>
donor molecule, donor type, donor heavy atom, donor atom, acceptor molecule, acceptor atom, score
      L1  H     7    38       P1  8028  0.55
      L1  H    24    48       P1 10747  0.75
      L1  H    26    51       P1 10186  0.46
      P1  H 10785 10796       L1    26  0.89
      L1  C    18    42       P1 10171  1.00

> <Gold.PLP.Chemscore.Internal.Correction>
0.6230

> <Gold.Rescore>
     Score         DG    S(hbond)    S(metal)    S(lipo)     H(rot)  DE(clash)    DE(int)     intcor
     12.02     -14.75       3.14        0.00      77.04       3.99       0.62       2.12       ----

> <Gold.Chemscore.Fitness>
12.0161

> <Gold.Chemscore.DG>
-14.7500

> <Gold.Chemscore.ZeroCoef>
-5.4800

> <Gold.Chemscore.Hbond>
3.1352

> <Gold.Chemscore.Metal>
0.0000

> <Gold.Chemscore.Lipo>
77.0362

> <Gold.Chemscore.Internal_Hbond>
0.0000

> <Gold.Chemscore.DEClash>
0.6162

> <Gold.Chemscore.DEInternal>
2.1177

> <Gold.Chemscore.Rot>
3.9902

> <Gold.Chemscore.Internal.Correction>
   9.000000E+99

> <Gold.Chemscore.Hbonds>
donor molecule, donor type, donor heavy atom, donor atom, acceptor molecule, acceptor atom, score
      L1  H     7    38       P1  8028  0.04
      L1  H    24    48       P1 10747  0.69
      L1  H    26    51       P1 10186  0.45
      P1  H 10785 10796       L1    26  0.78

> <Gold.Chemscore.Hbond.Weighted>
-10.4715

> <Gold.Chemscore.Metal.Weighted>
-0.0000

> <Gold.Chemscore.Lipo.Weighted>
-9.0132

> <Gold.Chemscore.Internal_Hbond.Weighted>
0.0000

> <Gold.Chemscore.DEClash.Weighted>
0.6162

> <Gold.Chemscore.DEInternal.Weighted>
2.1177

> <Gold.Chemscore.Rot.Weighted>
10.2148

> <Gold.Chemscore.Internal.Correction.Weighted>
   9.000000E+99

> <Gold.Protein.RotatedTorsions>
[ 6907 6896 6895 6894 ] final   91.36 input  -60.11 | X-H torsion
[ 7974 7965 7964 7962 ] final -145.22 input  175.53 | X-H torsion
[ 8008 7997 7996 7995 ] final  -28.99 input   59.86 | X-H torsion
[ 10167 10162 10161 10158 ] final  -52.90 input  -65.29 | X-H torsion
[ 10718 10713 10712 10709 ] final  105.26 input   66.30 | X-H torsion
[ 10763 10752 10751 10750 ] final  160.14 input  -60.55 | X-H torsion
[ 11005 11000 10999 10996 ] final   81.27 input  -57.11 | X-H torsion

> <Gold.Protein.ActiveResidues>
 VAL166  LYS551  ARG553  GLY616  TRP617  ASP618  TYR619  PRO620  LYS621  CYS622 
 ASP623  PHE694  ASN695  SER759  ASP760  ASP761  ALA762  ILE779  LEU786  VAL792 
 PHE793  MET794  SER795  GLU796  ALA797  LYS798  CYS799  TRP800  GLU811  SER814 

> <Gold.Protein.RotatedAtoms>
  152.5449  134.1668  159.8580 H   0  0  0  0  0  0  0  0  0  0  0  0  # atno 6907 bound_to 6896
  151.1682  133.4794  159.2601 H   0  0  0  0  0  0  0  0  0  0  0  0  # atno 6908 bound_to 6896
  151.1303  135.0138  159.8634 H   0  0  0  0  0  0  0  0  0  0  0  0  # atno 6909 bound_to 6896
  144.8242  140.5611  143.5558 H   0  0  0  0  0  0  0  0  0  0  0  0  # atno 7974 bound_to 7965
  154.4308  140.1830  156.1177 H   0  0  0  0  0  0  0  0  0  0  0  0  # atno 8008 bound_to 7997
  156.0168  140.3345  155.6972 H   0  0  0  0  0  0  0  0  0  0  0  0  # atno 8009 bound_to 7997
  155.6033  140.0642  157.2717 H   0  0  0  0  0  0  0  0  0  0  0  0  # atno 8010 bound_to 7997
  140.6513  143.2568  151.4714 H   0  0  0  0  0  0  0  0  0  0  0  0  # atno 10167 bound_to 10162
  157.6712  131.0823  150.5829 H   0  0  0  0  0  0  0  0  0  0  0  0  # atno 10718 bound_to 10713
  154.2428  135.2774  155.2847 H   0  0  0  0  0  0  0  0  0  0  0  0  # atno 10763 bound_to 10752
  154.5531  135.5669  153.6943 H   0  0  0  0  0  0  0  0  0  0  0  0  # atno 10764 bound_to 10752
  152.9996  135.6279  154.2572 H   0  0  0  0  0  0  0  0  0  0  0  0  # atno 10765 bound_to 10752
  139.9104  134.7984  156.2019 H   0  0  0  0  0  0  0  0  0  0  0  0  # atno 11005 bound_to 11000
  145.5036  139.1482  143.3643 LP  0  0  0  0  0  0  0  0  0  0  0  0  # atno 17320 bound_to 7965
  146.2548  140.5176  142.8878 LP  0  0  0  0  0  0  0  0  0  0  0  0  # atno 17321 bound_to 7965
  139.5729  144.1887  152.1862 LP  0  0  0  0  0  0  0  0  0  0  0  0  # atno 17342 bound_to 10162
  140.1188  144.5391  150.6876 LP  0  0  0  0  0  0  0  0  0  0  0  0  # atno 17343 bound_to 10162
  156.6130  130.4385  149.5851 LP  0  0  0  0  0  0  0  0  0  0  0  0  # atno 17370 bound_to 10713
  156.2415  130.6854  151.1560 LP  0  0  0  0  0  0  0  0  0  0  0  0  # atno 17371 bound_to 10713
  141.0519  133.6884  156.1788 LP  0  0  0  0  0  0  0  0  0  0  0  0  # atno 17394 bound_to 11000
  140.6796  134.4781  157.5589 LP  0  0  0  0  0  0  0  0  0  0  0  0  # atno 17395 bound_to 11000

$$$$
