AV-unprocessed.smi:1874|AV-procd|sdf|7611|dock2
  -GOLD-   22720 9333D 1   1.00000     0.00000
 Structure written by MMmdl.
 45 46  0  0  0  0  0  0  0  0  1 V2000
  144.7919  138.5404  155.4689 C   0  0  0  0  0  0  0  0  0  0  0  0
  145.1602  140.0249  155.4153 C   0  0  0  0  0  0  0  0  0  0  0  0
  144.5342  140.8021  156.1361 O   0  0  0  0  0  0  0  0  0  0  0  0
  146.1494  140.4327  154.5843 N   0  0  0  0  0  0  0  0  0  0  0  0
  146.6642  141.8041  154.4838 C   0  0  0  0  0  0  0  0  0  0  0  0
  148.0725  141.8515  155.1024 C   0  0  0  0  0  0  0  0  0  0  0  0
  149.0160  140.8243  154.4343 C   0  0  0  0  0  0  0  0  0  0  0  0
  150.2780  140.7388  155.1622 N   0  0  0  0  0  0  0  0  0  0  0  0
  150.4015  140.4772  156.4720 C   0  0  0  0  0  0  0  0  0  0  0  0
  149.4369  140.2938  157.2165 O   0  0  0  0  0  0  0  0  0  0  0  0
  151.8385  140.4306  157.0134 C   0  0  0  0  0  0  0  0  0  0  0  0
  152.0606  141.3220  158.1616 N   0  0  0  0  0  0  0  0  0  0  0  0
  151.3669  142.5146  158.0902 N   0  0  0  0  0  0  0  0  0  0  0  0
  151.4331  143.3895  159.0392 C   0  0  0  0  0  0  0  0  0  0  0  0
  150.6303  144.6490  158.8542 C   0  0  0  0  0  0  0  0  0  0  0  0
  152.2579  143.1221  160.2132 C   0  0  0  0  0  0  0  0  0  0  0  0
  152.2928  144.1861  161.3016 C   0  0  0  0  0  0  0  0  0  0  0  0
  152.9456  141.9540  160.2653 C   0  0  0  0  0  0  0  0  0  0  0  0
  153.7808  141.6088  161.3700 C   0  0  0  0  0  0  0  0  0  0  0  0
  154.4627  141.3498  162.2690 N   0  0  0  0  0  0  0  0  0  0  0  0
  152.8776  140.9592  159.1924 C   0  0  0  0  0  0  0  0  0  0  0  0
  153.4893  139.8897  159.2075 O   0  0  0  0  0  0  0  0  0  0  0  0
  148.3659  139.4259  154.3597 C   0  0  0  0  0  0  0  0  0  0  0  0
  146.9429  139.4987  153.7776 C   0  0  0  0  0  0  0  0  0  0  0  0
  144.4771  138.1837  154.4878 H   0  0  0  0  0  0  0  0  0  0  0  0
  143.9672  138.3747  156.1631 H   0  0  0  0  0  0  0  0  0  0  0  0
  145.6385  137.9444  155.8101 H   0  0  0  0  0  0  0  0  0  0  0  0
  146.7109  142.0929  153.4328 H   0  0  0  0  0  0  0  0  0  0  0  0
  146.0255  142.5468  154.9592 H   0  0  0  0  0  0  0  0  0  0  0  0
  148.4832  142.8575  155.0085 H   0  0  0  0  0  0  0  0  0  0  0  0
  147.9996  141.6469  156.1718 H   0  0  0  0  0  0  0  0  0  0  0  0
  149.2120  141.1510  153.4111 H   0  0  0  0  0  0  0  0  0  0  0  0
  151.1219  140.8825  154.6268 H   0  0  0  0  0  0  0  0  0  0  0  0
  152.0897  139.4034  157.2847 H   0  0  0  0  0  0  0  0  0  0  0  0
  152.5157  140.6909  156.1978 H   0  0  0  0  0  0  0  0  0  0  0  0
  151.2621  145.5320  158.9547 H   0  0  0  0  0  0  0  0  0  0  0  0
  149.8370  144.7131  159.5992 H   0  0  0  0  0  0  0  0  0  0  0  0
  150.1619  144.6911  157.8695 H   0  0  0  0  0  0  0  0  0  0  0  0
  152.8482  143.8593  162.1800 H   0  0  0  0  0  0  0  0  0  0  0  0
  151.2835  144.4349  161.6313 H   0  0  0  0  0  0  0  0  0  0  0  0
  152.7671  145.0946  160.9297 H   0  0  0  0  0  0  0  0  0  0  0  0
  148.9812  138.7584  153.7554 H   0  0  0  0  0  0  0  0  0  0  0  0
  148.3194  138.9852  155.3570 H   0  0  0  0  0  0  0  0  0  0  0  0
  146.5068  138.4997  153.7367 H   0  0  0  0  0  0  0  0  0  0  0  0
  146.9767  139.8494  152.7451 H   0  0  0  0  0  0  0  0  0  0  0  0
  1  2  1  0  0  0  0
  1 25  1  0  0  0  0
  1 26  1  0  0  0  0
  1 27  1  0  0  0  0
  2  3  2  0  0  0  0
  2  4  1  0  0  0  0
  4 24  1  0  0  0  0
  4  5  1  0  0  0  0
  5  6  1  0  0  0  0
  5 28  1  0  0  0  0
  5 29  1  0  0  0  0
  6  7  1  0  0  0  0
  6 30  1  0  0  0  0
  6 31  1  0  0  0  0
  7  8  1  0  0  0  0
  7 23  1  0  0  0  0
  7 32  1  0  0  0  0
  8  9  1  0  0  0  0
  8 33  1  0  0  0  0
  9 10  2  0  0  0  0
  9 11  1  0  0  0  0
 11 12  1  0  0  0  0
 11 34  1  0  0  0  0
 11 35  1  0  0  0  0
 12 21  1  0  0  0  0
 12 13  1  0  0  0  0
 13 14  2  0  0  0  0
 14 15  1  0  0  0  0
 14 16  1  0  0  0  0
 15 36  1  0  0  0  0
 15 37  1  0  0  0  0
 15 38  1  0  0  0  0
 16 17  1  0  0  0  0
 16 18  2  0  0  0  0
 17 39  1  0  0  0  0
 17 40  1  0  0  0  0
 17 41  1  0  0  0  0
 18 19  1  0  0  0  0
 18 21  1  0  0  0  0
 19 20  3  0  0  0  0
 21 22  2  0  0  0  0
 23 24  1  0  0  0  0
 23 42  1  0  0  0  0
 23 43  1  0  0  0  0
 24 44  1  0  0  0  0
 24 45  1  0  0  0  0
M  END
> <s_m_source_file>
AV-unprocessed.smi

> <i_m_source_file_index>
1874

> <i_lp_mmshare_version>
43012

> <i_f3d_flags>
0

> <s_epik_input>
W0NIM11DKD1PKU4xW0NIMl1bQ0gyXVtDSF0oW0NIMl1bQ0gyXTEpW05IXUMoPU8pW0NIMl1uMm5jKFtDSDNdKWMoW0NIM10pYyhDI04pYzI9Tw==

> <s_epik_cmdline>
J2VwaWtfcHl0aG9uJywgJy1waCcsICc3LjAnLCAnLXRuJywgJzgnLCAnLW1hJywgJzIwMCcsICctbWV0YWxfYmluZGluZycsICctaW1hZScsICc8aW5maWxlLm1hZT4nLCAnLW9tYWUnLCAnPG91dGZpbGUubWFlPic=

> <r_lp_tautomer_probability>
1

> <r_epik_Ionization_Penalty>
1.12408e-06

> <r_epik_Ionization_Penalty_Charging>
2.25008e-11

> <r_epik_Ionization_Penalty_Neutral>
1.12405e-06

> <r_epik_State_Penalty>
-0

> <r_epik_Charging_Adjusted_Penalty>
2.25008e-11

> <i_epik_Tot_Q>
0

> <i_epik_Tot_abs_Q>
0

> <r_epik_Metal_State_Penalty>
-0

> <b_epik_Metal_Only>
0

> <s_lp_Force_Field>
OPLS_2005

> <r_lp_Energy>
36.4073

> <b_lp_Chiralities_Consistent>
1

> <s_lp_Variant>
AV-unprocessed.smi:1874-1

> <Gold.Version>
5.8.1

> <Gold.Id.Protein>
6NUR|6NUR_protein|mol2

> <Gold.PLP.Fitness>
42.2287

> <Gold.PLP.PLP>
-40.0530

> <Gold.PLP.part.hbond>
-2.0000

> <Gold.PLP.part.metal>
0.0000

> <Gold.PLP.part.buried>
-5.8235

> <Gold.PLP.part.nonpolar>
-33.8819

> <Gold.PLP.part.repulsive>
1.7051

> <Gold.PLP.ligand.clash>
0.0000

> <Gold.PLP.ligand.torsion>
0.4214

> <Gold.PLP.Chemscore.Hbond>
1.0000

> <Gold.PLP.Chemscore.CHOScore>
0.0000

> <Gold.PLP.Chemscore.Metal>
0.0000

> <Gold.Chemscore.Hbonds>
donor molecule, donor type, donor heavy atom, donor atom, acceptor molecule, acceptor atom, score
      P1  H  7997  8010       L1    22  0.05

> <Gold.PLP.Chemscore.Internal.Correction>
0.0186

> <Gold.Rescore>
     Score         DG    S(hbond)    S(metal)    S(lipo)     H(rot)  DE(clash)    DE(int)     intcor
     11.83     -14.46       0.90        0.00      85.70       1.58       1.31       1.32       ----

> <Gold.Chemscore.Fitness>
11.8326

> <Gold.Chemscore.DG>
-14.4609

> <Gold.Chemscore.ZeroCoef>
-5.4800

> <Gold.Chemscore.Hbond>
0.8987

> <Gold.Chemscore.Metal>
0.0000

> <Gold.Chemscore.Lipo>
85.6952

> <Gold.Chemscore.Internal_Hbond>
0.0000

> <Gold.Chemscore.DEClash>
1.3105

> <Gold.Chemscore.DEInternal>
1.3178

> <Gold.Chemscore.Rot>
1.5808

> <Gold.Chemscore.Internal.Correction>
   9.000000E+99

> <Gold.Chemscore.Hbonds>
donor molecule, donor type, donor heavy atom, donor atom, acceptor molecule, acceptor atom, score
      P1  H  7997  8010       L1    22  0.04

> <Gold.Chemscore.Hbond.Weighted>
-3.0015

> <Gold.Chemscore.Metal.Weighted>
-0.0000

> <Gold.Chemscore.Lipo.Weighted>
-10.0263

> <Gold.Chemscore.Internal_Hbond.Weighted>
0.0000

> <Gold.Chemscore.DEClash.Weighted>
1.3105

> <Gold.Chemscore.DEInternal.Weighted>
1.3178

> <Gold.Chemscore.Rot.Weighted>
4.0469

> <Gold.Chemscore.Internal.Correction.Weighted>
   9.000000E+99

> <Gold.Protein.RotatedTorsions>
[ 6907 6896 6895 6894 ] final   11.18 input  -60.11 | X-H torsion
[ 7974 7965 7964 7962 ] final  149.03 input  175.53 | X-H torsion
[ 8008 7997 7996 7995 ] final    9.76 input   59.86 | X-H torsion
[ 10167 10162 10161 10158 ] final -142.53 input  -65.29 | X-H torsion
[ 10718 10713 10712 10709 ] final  -35.85 input   66.30 | X-H torsion
[ 10763 10752 10751 10750 ] final   39.33 input  -60.55 | X-H torsion
[ 11005 11000 10999 10996 ] final  158.38 input  -57.11 | X-H torsion

> <Gold.Protein.ActiveResidues>
 VAL166  LYS551  ARG553  GLY616  TRP617  ASP618  TYR619  PRO620  LYS621  CYS622 
 ASP623  PHE694  ASN695  SER759  ASP760  ASP761  ALA762  ILE779  LEU786  VAL792 
 PHE793  MET794  SER795  GLU796  ALA797  LYS798  CYS799  TRP800  GLU811  SER814 

> <Gold.Protein.RotatedAtoms>
  151.7501  135.0834  160.0329 H   0  0  0  0  0  0  0  0  0  0  0  0  # atno 6907 bound_to 6896
  152.3422  133.6076  159.5893 H   0  0  0  0  0  0  0  0  0  0  0  0  # atno 6908 bound_to 6896
  150.7486  133.9620  159.3560 H   0  0  0  0  0  0  0  0  0  0  0  0  # atno 6909 bound_to 6896
  144.8468  139.6229  143.5991 H   0  0  0  0  0  0  0  0  0  0  0  0  # atno 7974 bound_to 7965
  154.7843  140.2824  155.6040 H   0  0  0  0  0  0  0  0  0  0  0  0  # atno 8008 bound_to 7997
  156.2955  140.2617  156.2604 H   0  0  0  0  0  0  0  0  0  0  0  0  # atno 8009 bound_to 7997
  154.9747  140.0375  157.2240 H   0  0  0  0  0  0  0  0  0  0  0  0  # atno 8010 bound_to 7997
  139.8079  143.7742  152.2662 H   0  0  0  0  0  0  0  0  0  0  0  0  # atno 10167 bound_to 10162
  156.3338  130.4283  149.7848 H   0  0  0  0  0  0  0  0  0  0  0  0  # atno 10718 bound_to 10713
  152.9971  135.6223  154.2448 H   0  0  0  0  0  0  0  0  0  0  0  0  # atno 10763 bound_to 10752
  154.2188  135.2797  155.2934 H   0  0  0  0  0  0  0  0  0  0  0  0  # atno 10764 bound_to 10752
  154.5546  135.5723  153.7011 H   0  0  0  0  0  0  0  0  0  0  0  0  # atno 10765 bound_to 10752
  140.1859  134.8442  157.2857 H   0  0  0  0  0  0  0  0  0  0  0  0  # atno 11005 bound_to 11000
  146.2751  139.6733  142.9268 LP  0  0  0  0  0  0  0  0  0  0  0  0  # atno 17320 bound_to 7965
  145.4580  141.0431  143.2767 LP  0  0  0  0  0  0  0  0  0  0  0  0  # atno 17321 bound_to 7965
  139.7883  144.7420  150.9991 LP  0  0  0  0  0  0  0  0  0  0  0  0  # atno 17342 bound_to 10162
  140.7818  143.4469  151.0469 LP  0  0  0  0  0  0  0  0  0  0  0  0  # atno 17343 bound_to 10162
  156.5111  130.8172  151.3169 LP  0  0  0  0  0  0  0  0  0  0  0  0  # atno 17370 bound_to 10713
  157.7435  130.9913  150.2598 LP  0  0  0  0  0  0  0  0  0  0  0  0  # atno 17371 bound_to 10713
  140.2214  134.4019  155.7564 LP  0  0  0  0  0  0  0  0  0  0  0  0  # atno 17394 bound_to 11000
  141.2225  133.7168  156.8496 LP  0  0  0  0  0  0  0  0  0  0  0  0  # atno 17395 bound_to 11000

$$$$
