AV-unprocessed.smi:2453|AV-procd|sdf|9688|dock3
  -GOLD-   2272013323D 1   1.00000     0.00000
 Structure written by MMmdl.
 40 41  0  0  0  0  0  0  0  0  1 V2000
  151.4475  144.9446  158.6154 C   0  0  0  0  0  0  0  0  0  0  0  0
  151.9185  143.5957  159.1308 C   0  0  0  0  0  0  0  0  0  0  0  0
  153.0083  143.5258  160.0251 C   0  0  0  0  0  0  0  0  0  0  0  0
  153.4892  142.3696  160.5267 N   0  0  0  0  0  0  0  0  0  0  0  0
  152.8927  141.2225  160.1435 C   0  0  0  0  0  0  0  0  0  0  0  0
  151.7997  141.1750  159.2568 C   0  0  0  0  0  0  0  0  0  0  0  0
  151.2854  142.3899  158.7422 C   0  0  0  0  0  0  0  0  0  0  0  0
  150.1999  142.4520  157.8231 N   0  0  0  0  0  0  0  0  0  0  0  0
  149.2584  141.5282  157.5645 C   0  0  0  0  0  0  0  0  0  0  0  0
  149.1477  140.4440  158.1364 O   0  0  0  0  0  0  0  0  0  0  0  0
  148.4295  141.9493  156.5982 N   0  0  0  0  0  0  0  0  0  0  0  0
  147.2971  141.2054  156.0418 C   0  0  1  0  0  0  0  0  0  0  0  0
  146.0031  142.0322  156.1818 C   0  0  0  0  0  0  0  0  0  0  0  0
  145.9947  143.2616  155.2573 C   0  0  0  0  0  0  0  0  0  0  0  0
  146.2428  142.8593  153.7961 C   0  0  0  0  0  0  0  0  0  0  0  0
  147.5443  142.0541  153.6504 C   0  0  0  0  0  0  0  0  0  0  0  0
  147.5507  140.8082  154.5624 C   0  0  1  0  0  0  0  0  0  0  0  0
  148.8337  139.9751  154.3569 C   0  0  0  0  0  0  0  0  0  0  0  0
  149.9775  140.7179  154.7236 O   0  0  0  0  0  0  0  0  0  0  0  0
  152.0480  145.7574  159.0251 H   0  0  0  0  0  0  0  0  0  0  0  0
  150.4088  145.1177  158.8981 H   0  0  0  0  0  0  0  0  0  0  0  0
  151.5225  144.9850  157.5285 H   0  0  0  0  0  0  0  0  0  0  0  0
  153.5136  144.4239  160.3485 H   0  0  0  0  0  0  0  0  0  0  0  0
  153.3043  140.3109  160.5510 H   0  0  0  0  0  0  0  0  0  0  0  0
  151.3918  140.2146  158.9825 H   0  0  0  0  0  0  0  0  0  0  0  0
  150.1024  143.3295  157.3340 H   0  0  0  0  0  0  0  0  0  0  0  0
  148.6013  142.8602  156.1989 H   0  0  0  0  0  0  0  0  0  0  0  0
  147.1505  140.2874  156.6134 H   0  0  0  0  0  0  0  0  0  0  0  0
  145.1487  141.3994  155.9387 H   0  0  0  0  0  0  0  0  0  0  0  0
  145.8632  142.3420  157.2182 H   0  0  0  0  0  0  0  0  0  0  0  0
  145.0399  143.7814  155.3416 H   0  0  0  0  0  0  0  0  0  0  0  0
  146.7588  143.9712  155.5767 H   0  0  0  0  0  0  0  0  0  0  0  0
  145.4034  142.2645  153.4338 H   0  0  0  0  0  0  0  0  0  0  0  0
  146.2840  143.7496  153.1679 H   0  0  0  0  0  0  0  0  0  0  0  0
  147.6655  141.7534  152.6092 H   0  0  0  0  0  0  0  0  0  0  0  0
  148.3970  142.6927  153.8841 H   0  0  0  0  0  0  0  0  0  0  0  0
  146.7129  140.1839  154.2465 H   0  0  0  0  0  0  0  0  0  0  0  0
  148.8040  139.0774  154.9752 H   0  0  0  0  0  0  0  0  0  0  0  0
  148.9338  139.6430  153.3233 H   0  0  0  0  0  0  0  0  0  0  0  0
  150.2694  140.4231  155.5729 H   0  0  0  0  0  0  0  0  0  0  0  0
  1  2  1  0  0  0  0
  1 20  1  0  0  0  0
  1 21  1  0  0  0  0
  1 22  1  0  0  0  0
  2  7  1  0  0  0  0
  2  3  2  0  0  0  0
  3  4  1  0  0  0  0
  3 23  1  0  0  0  0
  4  5  2  0  0  0  0
  5  6  1  0  0  0  0
  5 24  1  0  0  0  0
  6  7  2  0  0  0  0
  6 25  1  0  0  0  0
  7  8  1  0  0  0  0
  8  9  1  0  0  0  0
  8 26  1  0  0  0  0
  9 10  2  0  0  0  0
  9 11  1  0  0  0  0
 11 12  1  0  0  0  0
 11 27  1  0  0  0  0
 12 17  1  0  0  0  0
 12 13  1  0  0  0  0
 12 28  1  0  0  0  0
 13 14  1  0  0  0  0
 13 29  1  0  0  0  0
 13 30  1  0  0  0  0
 14 15  1  0  0  0  0
 14 31  1  0  0  0  0
 14 32  1  0  0  0  0
 15 16  1  0  0  0  0
 15 33  1  0  0  0  0
 15 34  1  0  0  0  0
 16 17  1  0  0  0  0
 16 35  1  0  0  0  0
 16 36  1  0  0  0  0
 17 18  1  0  0  0  0
 17 37  1  0  0  0  0
 18 19  1  0  0  0  0
 18 38  1  0  0  0  0
 18 39  1  0  0  0  0
 19 40  1  0  0  0  0
M  END
> <s_m_source_file>
AV-unprocessed.smi

> <i_m_source_file_index>
2453

> <i_lp_mmshare_version>
43012

> <i_f3d_flags>
0

> <s_epik_input>
W0NIM11jMVtjSF1uW2NIXVtjSF1jMVtOSF1DKD1PKVtOSF1bQ0BASF0yW0NIMl1bQ0gyXVtDSDJdW0NIMl1bQ0BIXTJbQ0gyXVtPSF0=

> <s_epik_cmdline>
J2VwaWtfcHl0aG9uJywgJy1waCcsICc3LjAnLCAnLXRuJywgJzgnLCAnLW1hJywgJzIwMCcsICctbWV0YWxfYmluZGluZycsICctaW1hZScsICc8aW5maWxlLm1hZT4nLCAnLW9tYWUnLCAnPG91dGZpbGUubWFlPic=

> <r_epik_Ionization_Penalty>
0.210691

> <r_epik_Ionization_Penalty_Charging>
0

> <r_epik_Ionization_Penalty_Neutral>
0.210691

> <r_epik_State_Penalty>
0.200732

> <r_epik_Charging_Adjusted_Penalty>
0.200732

> <i_epik_Tot_Q>
0

> <i_epik_Tot_abs_Q>
0

> <r_epik_Metal_State_Penalty>
0.147519

> <b_epik_Metal_Only>
0

> <s_lp_Force_Field>
OPLS_2005

> <r_lp_Energy>
17.3761

> <b_lp_Chiralities_Consistent>
1

> <s_lp_Variant>
AV-unprocessed.smi:2453-2

> <Gold.Version>
5.8.1

> <Gold.Id.Protein>
6NUR|6NUR_protein|mol2

> <Gold.PLP.Fitness>
40.9508

> <Gold.PLP.PLP>
-35.8671

> <Gold.PLP.part.hbond>
-2.0000

> <Gold.PLP.part.metal>
0.0000

> <Gold.PLP.part.buried>
-6.4322

> <Gold.PLP.part.nonpolar>
-27.1088

> <Gold.PLP.part.repulsive>
0.0566

> <Gold.PLP.ligand.clash>
0.0000

> <Gold.PLP.ligand.torsion>
0.1188

> <Gold.PLP.Chemscore.Hbond>
1.7680

> <Gold.PLP.Chemscore.CHOScore>
0.0000

> <Gold.PLP.Chemscore.Metal>
0.0000

> <Gold.Chemscore.Hbonds>
donor molecule, donor type, donor heavy atom, donor atom, acceptor molecule, acceptor atom, score
      L1  H    11    27       P1  8028  1.00
      P1  H  7989  7998       L1    19  0.75

> <Gold.PLP.Chemscore.Internal.Correction>
0.0174

> <Gold.Rescore>
     Score         DG    S(hbond)    S(metal)    S(lipo)     H(rot)  DE(clash)    DE(int)     intcor
     13.00     -15.75       0.93        0.00      99.38       1.75       0.09       2.66       ----

> <Gold.Chemscore.Fitness>
13.0028

> <Gold.Chemscore.DG>
-15.7512

> <Gold.Chemscore.ZeroCoef>
-5.4800

> <Gold.Chemscore.Hbond>
0.9346

> <Gold.Chemscore.Metal>
0.0000

> <Gold.Chemscore.Lipo>
99.3836

> <Gold.Chemscore.Internal_Hbond>
0.0000

> <Gold.Chemscore.DEClash>
0.0901

> <Gold.Chemscore.DEInternal>
2.6582

> <Gold.Chemscore.Rot>
1.7493

> <Gold.Chemscore.Internal.Correction>
   9.000000E+99

> <Gold.Chemscore.Hbonds>
donor molecule, donor type, donor heavy atom, donor atom, acceptor molecule, acceptor atom, score
      L1  H     8    26       P1  8028  0.02
      L1  H    11    27       P1  8028  0.97
      P1  H  7989  7998       L1    19  0.50

> <Gold.Chemscore.Hbond.Weighted>
-3.1215

> <Gold.Chemscore.Metal.Weighted>
-0.0000

> <Gold.Chemscore.Lipo.Weighted>
-11.6279

> <Gold.Chemscore.Internal_Hbond.Weighted>
0.0000

> <Gold.Chemscore.DEClash.Weighted>
0.0901

> <Gold.Chemscore.DEInternal.Weighted>
2.6582

> <Gold.Chemscore.Rot.Weighted>
4.4782

> <Gold.Chemscore.Internal.Correction.Weighted>
   9.000000E+99

> <Gold.Protein.RotatedTorsions>
[ 6907 6896 6895 6894 ] final  -90.39 input  -60.11 | X-H torsion
[ 7974 7965 7964 7962 ] final   34.68 input  175.53 | X-H torsion
[ 8008 7997 7996 7995 ] final  -70.65 input   59.86 | X-H torsion
[ 10167 10162 10161 10158 ] final -172.83 input  -65.29 | X-H torsion
[ 10718 10713 10712 10709 ] final    0.39 input   66.30 | X-H torsion
[ 10763 10752 10751 10750 ] final   92.95 input  -60.55 | X-H torsion
[ 11005 11000 10999 10996 ] final  -75.99 input  -57.11 | X-H torsion

> <Gold.Protein.ActiveResidues>
 VAL166  LYS551  ARG553  GLY616  TRP617  ASP618  TYR619  PRO620  LYS621  CYS622 
 ASP623  PHE694  ASN695  SER759  ASP760  ASP761  ALA762  ILE779  LEU786  VAL792 
 PHE793  MET794  SER795  GLU796  ALA797  LYS798  CYS799  TRP800  GLU811  SER814 

> <Gold.Protein.RotatedAtoms>
  150.6881  134.2439  159.4483 H   0  0  0  0  0  0  0  0  0  0  0  0  # atno 6907 bound_to 6896
  152.0382  134.9725  160.0583 H   0  0  0  0  0  0  0  0  0  0  0  0  # atno 6908 bound_to 6896
  152.1237  133.4333  159.4725 H   0  0  0  0  0  0  0  0  0  0  0  0  # atno 6909 bound_to 6896
  146.1336  139.6239  142.9210 H   0  0  0  0  0  0  0  0  0  0  0  0  # atno 7974 bound_to 7965
  154.5028  140.0830  156.7832 H   0  0  0  0  0  0  0  0  0  0  0  0  # atno 8008 bound_to 7997
  155.3964  140.3435  155.4236 H   0  0  0  0  0  0  0  0  0  0  0  0  # atno 8009 bound_to 7997
  156.1477  140.1549  156.8807 H   0  0  0  0  0  0  0  0  0  0  0  0  # atno 8010 bound_to 7997
  139.5722  144.1614  152.1400 H   0  0  0  0  0  0  0  0  0  0  0  0  # atno 10167 bound_to 10162
  156.8327  130.5494  149.5685 H   0  0  0  0  0  0  0  0  0  0  0  0  # atno 10718 bound_to 10713
  153.2249  135.4343  155.0530 H   0  0  0  0  0  0  0  0  0  0  0  0  # atno 10763 bound_to 10752
  154.8268  135.3365  154.6873 H   0  0  0  0  0  0  0  0  0  0  0  0  # atno 10764 bound_to 10752
  153.7303  135.7011  153.5047 H   0  0  0  0  0  0  0  0  0  0  0  0  # atno 10765 bound_to 10752
  141.1650  133.6967  156.7600 H   0  0  0  0  0  0  0  0  0  0  0  0  # atno 11005 bound_to 11000
  145.5206  141.0432  143.2438 LP  0  0  0  0  0  0  0  0  0  0  0  0  # atno 17320 bound_to 7965
  144.7716  139.6722  143.7192 LP  0  0  0  0  0  0  0  0  0  0  0  0  # atno 17321 bound_to 7965
  140.1150  144.5424  150.6900 LP  0  0  0  0  0  0  0  0  0  0  0  0  # atno 17342 bound_to 10162
  140.7006  143.2432  151.4874 LP  0  0  0  0  0  0  0  0  0  0  0  0  # atno 17343 bound_to 10162
  156.0925  130.5907  150.9757 LP  0  0  0  0  0  0  0  0  0  0  0  0  # atno 17370 bound_to 10713
  157.6398  131.0911  150.8274 LP  0  0  0  0  0  0  0  0  0  0  0  0  # atno 17371 bound_to 10713
  140.2540  134.8518  157.3695 LP  0  0  0  0  0  0  0  0  0  0  0  0  # atno 17394 bound_to 11000
  140.1675  134.4651  155.7854 LP  0  0  0  0  0  0  0  0  0  0  0  0  # atno 17395 bound_to 11000

$$$$
