AV-unprocessed.smi:169|AV-procd|sdf|1400|dock10
  -GOLD-   2262019153D 1   1.00000     0.00000
 Structure written by MMmdl.
 56 60  0  0  0  0  0  0  0  0  2 V2000
  150.0293  138.0404  154.4836 C   0  0  0  0  0  0  0  0  0  0  0  0
  148.8680  138.8494  153.8787 C   0  0  0  0  0  0  0  0  0  0  0  0
  147.7431  138.0151  153.3821 N   0  3  2  0  0  0  0  0  0  0  0  0
  146.7318  138.7846  152.5750 C   0  0  0  0  0  0  0  0  0  0  0  0
  146.0514  137.9669  151.4244 C   0  0  0  0  0  0  0  0  0  0  0  0
  145.3819  136.5845  151.7251 C   0  0  2  0  0  0  0  0  0  0  0  0
  144.0784  136.5843  152.5889 C   0  0  0  0  0  0  0  0  0  0  0  0
  144.5362  136.1249  154.0129 C   0  0  0  0  0  0  0  0  0  0  0  0
  146.0620  136.1991  153.8608 C   0  0  3  0  0  0  0  0  0  0  0  0
  147.1786  137.0993  154.4397 C   0  0  0  0  0  0  0  0  0  0  0  0
  146.3185  135.7749  152.4924 N   0  0  0  0  0  0  0  0  0  0  0  0
  146.4071  134.4286  152.3024 C   0  0  0  0  0  0  0  0  0  0  0  0
  145.4841  133.7867  151.5376 N   0  0  0  0  0  0  0  0  0  0  0  0
  145.5499  132.4653  151.3559 C   0  0  0  0  0  0  0  0  0  0  0  0
  146.4473  131.6031  151.8339 N   0  0  0  0  0  0  0  0  0  0  0  0
  147.3896  132.2364  152.5877 C   0  0  0  0  0  0  0  0  0  0  0  0
  147.4430  133.6313  152.8718 C   0  0  0  0  0  0  0  0  0  0  0  0
  148.5470  133.9030  153.6712 N   0  0  0  0  0  0  0  0  0  0  0  0
  149.1067  132.7387  153.8549 C   0  0  0  0  0  0  0  0  0  0  0  0
  148.4859  131.6824  153.2280 N   0  0  0  0  0  0  0  0  0  0  0  0
  148.8905  130.2837  153.2675 C   0  0  0  0  0  0  0  0  0  0  0  0
  147.7830  129.3090  153.7249 C   0  0  0  0  0  0  0  0  0  0  0  0
  147.2444  129.7122  155.1073 C   0  0  0  0  0  0  0  0  0  0  0  0
  146.2813  128.7869  155.5686 O   0  0  0  0  0  0  0  0  0  0  0  0
  146.7076  128.9857  152.6764 C   0  0  0  0  0  0  0  0  0  0  0  0
  147.2681  127.6836  152.4086 O   0  0  0  0  0  0  0  0  0  0  0  0
  148.1265  127.8220  153.5602 C   0  0  0  0  0  0  0  0  0  0  0  0
  150.8098  138.7104  154.8448 H   0  0  0  0  0  0  0  0  0  0  0  0
  150.4900  137.3762  153.7531 H   0  0  0  0  0  0  0  0  0  0  0  0
  149.7052  137.4364  155.3310 H   0  0  0  0  0  0  0  0  0  0  0  0
  148.4826  139.5428  154.6270 H   0  0  0  0  0  0  0  0  0  0  0  0
  149.2389  139.4691  153.0613 H   0  0  0  0  0  0  0  0  0  0  0  0
  145.9840  139.2275  153.2350 H   0  0  0  0  0  0  0  0  0  0  0  0
  147.2315  139.6320  152.1034 H   0  0  0  0  0  0  0  0  0  0  0  0
  145.3173  138.6061  150.9332 H   0  0  0  0  0  0  0  0  0  0  0  0
  146.8178  137.7880  150.6692 H   0  0  0  0  0  0  0  0  0  0  0  0
  145.1522  136.1427  150.7555 H   0  0  0  0  0  0  0  0  0  0  0  0
  143.6189  137.5732  152.6081 H   0  0  0  0  0  0  0  0  0  0  0  0
  143.3422  135.8863  152.1887 H   0  0  0  0  0  0  0  0  0  0  0  0
  144.1121  136.7208  154.8272 H   0  0  0  0  0  0  0  0  0  0  0  0
  144.2356  135.0901  154.1822 H   0  0  0  0  0  0  0  0  0  0  0  0
  145.6949  137.2119  153.8479 H   0  0  0  0  0  0  0  0  0  0  0  0
  147.9931  136.4652  154.7892 H   0  0  0  0  0  0  0  0  0  0  0  0
  146.8428  137.6529  155.3215 H   0  0  0  0  0  0  0  0  0  0  0  0
  144.7729  132.0374  150.7393 H   0  0  0  0  0  0  0  0  0  0  0  0
  149.9933  132.6204  154.4605 H   0  0  0  0  0  0  0  0  0  0  0  0
  149.2371  130.0154  152.2685 H   0  0  0  0  0  0  0  0  0  0  0  0
  149.7692  130.1989  153.9078 H   0  0  0  0  0  0  0  0  0  0  0  0
  148.0431  129.8003  155.8434 H   0  0  0  0  0  0  0  0  0  0  0  0
  146.7664  130.6912  155.0641 H   0  0  0  0  0  0  0  0  0  0  0  0
  145.4319  129.0512  155.2494 H   0  0  0  0  0  0  0  0  0  0  0  0
  145.6976  128.9140  153.0833 H   0  0  0  0  0  0  0  0  0  0  0  0
  146.7215  129.6272  151.7965 H   0  0  0  0  0  0  0  0  0  0  0  0
  149.1747  127.6322  153.3258 H   0  0  0  0  0  0  0  0  0  0  0  0
  147.7953  127.1946  154.3892 H   0  0  0  0  0  0  0  0  0  0  0  0
  148.1727  137.3937  152.7114 H   0  0  0  0  0  0  0  0  0  0  0  0
  1  2  1  0  0  0  0
  1 28  1  0  0  0  0
  1 29  1  0  0  0  0
  1 30  1  0  0  0  0
  2  3  1  0  0  0  0
  2 31  1  0  0  0  0
  2 32  1  0  0  0  0
  3 10  1  0  0  0  0
  3  4  1  0  0  0  0
  3 56  1  0  0  0  0
  4  5  1  0  0  0  0
  4 33  1  0  0  0  0
  4 34  1  0  0  0  0
  5  6  1  0  0  0  0
  5 35  1  0  0  0  0
  5 36  1  0  0  0  0
  6 11  1  0  0  0  0
  6  7  1  0  0  0  0
  6 37  1  0  0  0  0
  7  8  1  0  0  0  0
  7 38  1  0  0  0  0
  7 39  1  0  0  0  0
  8  9  1  0  0  0  0
  8 40  1  0  0  0  0
  8 41  1  0  0  0  0
  9 10  1  0  0  0  0
  9 11  1  0  0  0  0
  9 42  1  0  0  0  0
 10 43  1  0  0  0  0
 10 44  1  0  0  0  0
 11 12  1  0  0  0  0
 12 17  1  0  0  0  0
 12 13  2  0  0  0  0
 13 14  1  0  0  0  0
 14 15  2  0  0  0  0
 14 45  1  0  0  0  0
 15 16  1  0  0  0  0
 16 20  1  0  0  0  0
 16 17  2  0  0  0  0
 17 18  1  0  0  0  0
 18 19  2  0  0  0  0
 19 20  1  0  0  0  0
 19 46  1  0  0  0  0
 20 21  1  0  0  0  0
 21 22  1  0  0  0  0
 21 47  1  0  0  0  0
 21 48  1  0  0  0  0
 22 27  1  0  0  0  0
 22 23  1  0  0  0  0
 22 25  1  0  0  0  0
 23 24  1  0  0  0  0
 23 49  1  0  0  0  0
 23 50  1  0  0  0  0
 24 51  1  0  0  0  0
 25 26  1  0  0  0  0
 25 52  1  0  0  0  0
 25 53  1  0  0  0  0
 26 27  1  0  0  0  0
 27 54  1  0  0  0  0
 27 55  1  0  0  0  0
M  CHG  1   3   1
M  END
> <s_m_source_file>
AV-unprocessed.smi

> <i_m_source_file_index>
169

> <i_lp_mmshare_version>
43012

> <i_f3d_flags>
0

> <s_epik_input>
W0NASF0xMltDSDJdW0NIMl1OKFtDSDJdW0NIM10pW0NIMl1bQ0BIXShbQ0gyXVtDSDJdMSlOMmMobltjSF1uMyljKGMzNCluW2NIXW40W0NIMl1DNShbQ0gyXVtPSF0pW0NIMl1PW0NIMl01

> <s_epik_cmdline>
J2VwaWtfcHl0aG9uJywgJy1waCcsICc3LjAnLCAnLXRuJywgJzgnLCAnLW1hJywgJzIwMCcsICctbWV0YWxfYmluZGluZycsICctaW1hZScsICc8aW5maWxlLm1hZT4nLCAnLW9tYWUnLCAnPG91dGZpbGUubWFlPic=

> <r_lp_tautomer_probability>
1

> <r_epik_Ionization_Penalty>
0.00274162

> <r_epik_Ionization_Penalty_Charging>
0.00243722

> <r_epik_Ionization_Penalty_Neutral>
0.000304399

> <r_epik_State_Penalty>
-0

> <r_epik_Charging_Adjusted_Penalty>
0.00243722

> <i_epik_Tot_Q>
1

> <i_epik_Tot_abs_Q>
1

> <r_epik_Metal_State_Penalty>
-0

> <b_epik_Metal_Only>
0

> <s_lp_Force_Field>
OPLS_2005

> <r_lp_Energy>
131.332

> <b_lp_Chiralities_Consistent>
1

> <s_lp_Variant>
AV-unprocessed.smi:169-3

> <Gold.Version>
5.8.1

> <Gold.Id.Protein>
6NUR|6NUR_protein|mol2

> <Gold.PLP.Fitness>
42.0529

> <Gold.PLP.PLP>
-33.3780

> <Gold.PLP.part.hbond>
-2.0000

> <Gold.PLP.part.metal>
0.0000

> <Gold.PLP.part.buried>
-0.3992

> <Gold.PLP.part.nonpolar>
-33.5320

> <Gold.PLP.part.repulsive>
3.3562

> <Gold.PLP.ligand.clash>
0.0000

> <Gold.PLP.ligand.torsion>
0.3686

> <Gold.PLP.Chemscore.Hbond>
3.0000

> <Gold.PLP.Chemscore.CHOScore>
0.0000

> <Gold.PLP.Chemscore.Metal>
0.0000

> <Gold.Chemscore.Hbonds>
donor molecule, donor type, donor heavy atom, donor atom, acceptor molecule, acceptor atom, score
      L1  H     3    56       P1  7948  2.00
      L1  H    24    51       P1 10956  0.44

> <Gold.PLP.Chemscore.Internal.Correction>
0.4120

> <Gold.Rescore>
     Score         DG    S(hbond)    S(metal)    S(lipo)     H(rot)  DE(clash)    DE(int)     intcor
     10.57     -13.51       2.00        0.00      68.95       2.62       1.36       1.58       ----

> <Gold.Chemscore.Fitness>
10.5670

> <Gold.Chemscore.DG>
-13.5058

> <Gold.Chemscore.ZeroCoef>
-5.4800

> <Gold.Chemscore.Hbond>
1.9966

> <Gold.Chemscore.Metal>
0.0000

> <Gold.Chemscore.Lipo>
68.9508

> <Gold.Chemscore.Internal_Hbond>
0.0000

> <Gold.Chemscore.DEClash>
1.3595

> <Gold.Chemscore.DEInternal>
1.5793

> <Gold.Chemscore.Rot>
2.6212

> <Gold.Chemscore.Internal.Correction>
   9.000000E+99

> <Gold.Chemscore.Hbonds>
donor molecule, donor type, donor heavy atom, donor atom, acceptor molecule, acceptor atom, score
      L1  H     3    56       P1  7948  0.99
      L1  H    24    51       P1 10956  0.44

> <Gold.Chemscore.Hbond.Weighted>
-6.6687

> <Gold.Chemscore.Metal.Weighted>
-0.0000

> <Gold.Chemscore.Lipo.Weighted>
-8.0672

> <Gold.Chemscore.Internal_Hbond.Weighted>
0.0000

> <Gold.Chemscore.DEClash.Weighted>
1.3595

> <Gold.Chemscore.DEInternal.Weighted>
1.5793

> <Gold.Chemscore.Rot.Weighted>
6.7102

> <Gold.Chemscore.Internal.Correction.Weighted>
   9.000000E+99

> <Gold.Protein.RotatedTorsions>
[ 6907 6896 6895 6894 ] final -111.23 input  -60.11 | X-H torsion
[ 7974 7965 7964 7962 ] final  -73.23 input  175.53 | X-H torsion
[ 8008 7997 7996 7995 ] final  -98.38 input   59.86 | X-H torsion
[ 10167 10162 10161 10158 ] final -172.73 input  -65.29 | X-H torsion
[ 10718 10713 10712 10709 ] final  -18.31 input   66.30 | X-H torsion
[ 10763 10752 10751 10750 ] final  122.24 input  -60.55 | X-H torsion
[ 11005 11000 10999 10996 ] final  -90.26 input  -57.11 | X-H torsion

> <Gold.Protein.ActiveResidues>
 VAL166  LYS551  ARG553  GLY616  TRP617  ASP618  TYR619  PRO620  LYS621  CYS622 
 ASP623  PHE694  ASN695  SER759  ASP760  ASP761  ALA762  ILE779  LEU786  VAL792 
 PHE793  MET794  SER795  GLU796  ALA797  LYS798  CYS799  TRP800  GLU811  SER814 

> <Gold.Protein.RotatedAtoms>
  150.7676  133.9266  159.3413 H   0  0  0  0  0  0  0  0  0  0  0  0  # atno 6907 bound_to 6896
  151.7160  135.0901  160.0285 H   0  0  0  0  0  0  0  0  0  0  0  0  # atno 6908 bound_to 6896
  152.3680  133.6344  159.6101 H   0  0  0  0  0  0  0  0  0  0  0  0  # atno 6909 bound_to 6896
  145.6549  140.9271  143.0965 H   0  0  0  0  0  0  0  0  0  0  0  0  # atno 7974 bound_to 7965
  154.8004  140.0455  157.1268 H   0  0  0  0  0  0  0  0  0  0  0  0  # atno 8008 bound_to 7997
  154.9485  140.3062  155.5066 H   0  0  0  0  0  0  0  0  0  0  0  0  # atno 8009 bound_to 7997
  156.2961  140.2292  156.4561 H   0  0  0  0  0  0  0  0  0  0  0  0  # atno 8010 bound_to 7997
  139.5728  144.1602  152.1408 H   0  0  0  0  0  0  0  0  0  0  0  0  # atno 10167 bound_to 10162
  156.5614  130.4726  149.6405 H   0  0  0  0  0  0  0  0  0  0  0  0  # atno 10718 bound_to 10713
  153.6267  135.3403  155.3028 H   0  0  0  0  0  0  0  0  0  0  0  0  # atno 10763 bound_to 10752
  154.8589  135.4286  154.2149 H   0  0  0  0  0  0  0  0  0  0  0  0  # atno 10764 bound_to 10752
  153.3035  135.7026  153.7254 H   0  0  0  0  0  0  0  0  0  0  0  0  # atno 10765 bound_to 10752
  141.1569  133.7681  156.9712 H   0  0  0  0  0  0  0  0  0  0  0  0  # atno 11005 bound_to 11000
  144.7109  139.8374  143.7415 LP  0  0  0  0  0  0  0  0  0  0  0  0  # atno 17320 bound_to 7965
  146.1173  139.4186  143.0250 LP  0  0  0  0  0  0  0  0  0  0  0  0  # atno 17321 bound_to 7965
  140.1138  144.5433  150.6907 LP  0  0  0  0  0  0  0  0  0  0  0  0  # atno 17342 bound_to 10162
  140.7012  143.2436  151.4859 LP  0  0  0  0  0  0  0  0  0  0  0  0  # atno 17343 bound_to 10162
  156.2796  130.7063  151.1883 LP  0  0  0  0  0  0  0  0  0  0  0  0  # atno 17370 bound_to 10713
  157.7368  131.0559  150.5394 LP  0  0  0  0  0  0  0  0  0  0  0  0  # atno 17371 bound_to 10713
  140.1128  134.9466  157.2090 LP  0  0  0  0  0  0  0  0  0  0  0  0  # atno 17394 bound_to 11000
  140.3172  134.2957  155.7254 LP  0  0  0  0  0  0  0  0  0  0  0  0  # atno 17395 bound_to 11000

$$$$
