AV-unprocessed.smi:513|AV-procd|sdf|2772|dock2
  -GOLD-   2262023243D 1   1.00000     0.00000
 Structure written by MMmdl.
 43 45  0  0  0  0  0  0  0  0  2 V2000
  152.4545  138.4156  154.5296 C   0  0  0  0  0  0  0  0  0  0  0  0
  152.0035  137.3631  155.3636 O   0  0  0  0  0  0  0  0  0  0  0  0
  151.7357  137.7958  156.6858 C   0  0  0  0  0  0  0  0  0  0  0  0
  150.4156  138.5748  156.6912 C   0  0  0  0  0  0  0  0  0  0  0  0
  150.6440  140.0123  156.8111 N   0  0  0  0  0  0  0  0  0  0  0  0
  150.2585  141.0078  155.9651 C   0  0  0  0  0  0  0  0  0  0  0  0
  149.5247  140.7604  154.8031 N   0  0  0  0  0  0  0  0  0  0  0  0
  149.7310  139.5905  153.9528 C   0  0  0  0  0  0  0  0  0  0  0  0
  148.3991  138.8837  153.6385 C   0  0  0  0  0  0  0  0  0  0  0  0
  147.4391  139.8248  153.0245 N   0  3  0  0  0  0  0  0  0  0  0  0
  147.2681  141.0610  153.8159 C   0  0  0  0  0  0  0  0  0  0  0  0
  148.6371  141.6984  154.1169 C   0  0  0  0  0  0  0  0  0  0  0  0
  150.6887  142.2252  156.3066 N   0  0  0  0  0  0  0  0  0  0  0  0
  151.3878  141.9945  157.4812 C   0  0  0  0  0  0  0  0  0  0  0  0
  151.3870  140.6732  157.7922 C   0  0  0  0  0  0  0  0  0  0  0  0
  152.1048  140.1415  158.9599 C   0  0  0  0  0  0  0  0  0  0  0  0
  152.1407  138.9480  159.2504 O   0  0  0  0  0  0  0  0  0  0  0  0
  152.7372  141.1010  159.6783 N   0  0  0  0  0  0  0  0  0  0  0  0
  152.7719  142.4444  159.4234 C   0  0  0  0  0  0  0  0  0  0  0  0
  153.4052  143.1944  160.1660 O   0  0  0  0  0  0  0  0  0  0  0  0
  152.0884  142.9019  158.3257 N   0  0  0  0  0  0  0  0  0  0  0  0
  152.0917  144.3285  157.9957 C   0  0  0  0  0  0  0  0  0  0  0  0
  153.2479  140.7879  160.4910 H   0  0  0  0  0  0  0  0  0  0  0  0
  152.6582  138.0293  153.5310 H   0  0  0  0  0  0  0  0  0  0  0  0
  153.3749  138.8574  154.9138 H   0  0  0  0  0  0  0  0  0  0  0  0
  151.7006  139.1989  154.4406 H   0  0  0  0  0  0  0  0  0  0  0  0
  151.6701  136.9392  157.3587 H   0  0  0  0  0  0  0  0  0  0  0  0
  152.5495  138.4319  157.0376 H   0  0  0  0  0  0  0  0  0  0  0  0
  149.8539  138.3609  155.7876 H   0  0  0  0  0  0  0  0  0  0  0  0
  149.7736  138.2330  157.5005 H   0  0  0  0  0  0  0  0  0  0  0  0
  150.2256  139.8988  153.0305 H   0  0  0  0  0  0  0  0  0  0  0  0
  150.4057  138.8909  154.4477 H   0  0  0  0  0  0  0  0  0  0  0  0
  148.5613  138.0435  152.9635 H   0  0  0  0  0  0  0  0  0  0  0  0
  147.9640  138.4799  154.5538 H   0  0  0  0  0  0  0  0  0  0  0  0
  147.7918  140.0814  152.1135 H   0  0  0  0  0  0  0  0  0  0  0  0
  146.6354  141.7563  153.2644 H   0  0  0  0  0  0  0  0  0  0  0  0
  146.7470  140.8198  154.7432 H   0  0  0  0  0  0  0  0  0  0  0  0
  148.5239  142.6149  154.6947 H   0  0  0  0  0  0  0  0  0  0  0  0
  149.1120  142.0025  153.1829 H   0  0  0  0  0  0  0  0  0  0  0  0
  151.9211  144.9423  158.8817 H   0  0  0  0  0  0  0  0  0  0  0  0
  151.3136  144.5874  157.2775 H   0  0  0  0  0  0  0  0  0  0  0  0
  153.0525  144.6116  157.5641 H   0  0  0  0  0  0  0  0  0  0  0  0
  146.5448  139.3690  152.9130 H   0  0  0  0  0  0  0  0  0  0  0  0
  1  2  1  0  0  0  0
  1 24  1  0  0  0  0
  1 25  1  0  0  0  0
  1 26  1  0  0  0  0
  2  3  1  0  0  0  0
  3  4  1  0  0  0  0
  3 27  1  0  0  0  0
  3 28  1  0  0  0  0
  4  5  1  0  0  0  0
  4 29  1  0  0  0  0
  4 30  1  0  0  0  0
  5 15  1  0  0  0  0
  5  6  1  0  0  0  0
  6  7  1  0  0  0  0
  6 13  2  0  0  0  0
  7 12  1  0  0  0  0
  7  8  1  0  0  0  0
  8  9  1  0  0  0  0
  8 31  1  0  0  0  0
  8 32  1  0  0  0  0
  9 10  1  0  0  0  0
  9 33  1  0  0  0  0
  9 34  1  0  0  0  0
 10 11  1  0  0  0  0
 10 35  1  0  0  0  0
 10 43  1  0  0  0  0
 11 12  1  0  0  0  0
 11 36  1  0  0  0  0
 11 37  1  0  0  0  0
 12 38  1  0  0  0  0
 12 39  1  0  0  0  0
 13 14  1  0  0  0  0
 14 21  1  0  0  0  0
 14 15  2  0  0  0  0
 15 16  1  0  0  0  0
 16 17  2  0  0  0  0
 16 18  1  0  0  0  0
 18 23  1  0  0  0  0
 18 19  1  0  0  0  0
 19 20  2  0  0  0  0
 19 21  1  0  0  0  0
 21 22  1  0  0  0  0
 22 40  1  0  0  0  0
 22 41  1  0  0  0  0
 22 42  1  0  0  0  0
M  CHG  1  10   1
M  END
> <s_m_source_file>
AV-unprocessed.smi

> <i_m_source_file_index>
513

> <i_lp_mmshare_version>
43012

> <i_f3d_flags>
0

> <s_epik_input>
W0NIM11uMWMoPU8pW25IXWMoPU8pYyhjMTIpbihbQ0gyXVtDSDJdT1tDSDNdKWMobjIpTjNbQ0gyXVtDSDJdW05IXVtDSDJdW0NIMl0z

> <s_epik_cmdline>
J2VwaWtfcHl0aG9uJywgJy1waCcsICc3LjAnLCAnLXRuJywgJzgnLCAnLW1hJywgJzIwMCcsICctbWV0YWxfYmluZGluZycsICctaW1hZScsICc8aW5maWxlLm1hZT4nLCAnLW9tYWUnLCAnPG91dGZpbGUubWFlPic=

> <r_epik_Ionization_Penalty>
0.00860422

> <r_epik_Ionization_Penalty_Charging>
0.00860232

> <r_epik_Ionization_Penalty_Neutral>
1.90009e-06

> <r_epik_State_Penalty>
0.00646614

> <r_epik_Charging_Adjusted_Penalty>
0.0150685

> <i_epik_Tot_Q>
1

> <i_epik_Tot_abs_Q>
1

> <r_epik_Metal_State_Penalty>
0.0348233

> <b_epik_Metal_Only>
0

> <s_lp_Force_Field>
OPLS_2005

> <r_lp_Energy>
48.3968

> <b_lp_Chiralities_Consistent>
1

> <s_lp_Variant>
AV-unprocessed.smi:513-1

> <Gold.Version>
5.8.1

> <Gold.Id.Protein>
6NUR|6NUR_protein|mol2

> <Gold.PLP.Fitness>
40.1861

> <Gold.PLP.PLP>
-37.3182

> <Gold.PLP.part.hbond>
-2.0000

> <Gold.PLP.part.metal>
0.0000

> <Gold.PLP.part.buried>
1.5270

> <Gold.PLP.part.nonpolar>
-35.7414

> <Gold.PLP.part.repulsive>
0.3302

> <Gold.PLP.ligand.clash>
0.0045

> <Gold.PLP.ligand.torsion>
0.8491

> <Gold.PLP.Chemscore.Hbond>
1.3487

> <Gold.PLP.Chemscore.CHOScore>
0.0000

> <Gold.PLP.Chemscore.Metal>
0.0000

> <Gold.Chemscore.Hbonds>
donor molecule, donor type, donor heavy atom, donor atom, acceptor molecule, acceptor atom, score
      L1  H    10    35       P1  7957  0.75
      P1  H 10752 10763       L1     2  0.58

> <Gold.PLP.Chemscore.Internal.Correction>
0.5245

> <Gold.Rescore>
     Score         DG    S(hbond)    S(metal)    S(lipo)     H(rot)  DE(clash)    DE(int)     intcor
      9.72     -13.31       1.26        0.00      65.31       1.57       0.49       3.10       ----

> <Gold.Chemscore.Fitness>
9.7152

> <Gold.Chemscore.DG>
-13.3093

> <Gold.Chemscore.ZeroCoef>
-5.4800

> <Gold.Chemscore.Hbond>
1.2592

> <Gold.Chemscore.Metal>
0.0000

> <Gold.Chemscore.Lipo>
65.3084

> <Gold.Chemscore.Internal_Hbond>
0.0000

> <Gold.Chemscore.DEClash>
0.4934

> <Gold.Chemscore.DEInternal>
3.1007

> <Gold.Chemscore.Rot>
1.5693

> <Gold.Chemscore.Internal.Correction>
   9.000000E+99

> <Gold.Chemscore.Hbonds>
donor molecule, donor type, donor heavy atom, donor atom, acceptor molecule, acceptor atom, score
      L1  H    10    35       P1  7957  0.71
      P1  H 10752 10763       L1     2  0.23

> <Gold.Chemscore.Hbond.Weighted>
-4.2057

> <Gold.Chemscore.Metal.Weighted>
-0.0000

> <Gold.Chemscore.Lipo.Weighted>
-7.6411

> <Gold.Chemscore.Internal_Hbond.Weighted>
0.0000

> <Gold.Chemscore.DEClash.Weighted>
0.4934

> <Gold.Chemscore.DEInternal.Weighted>
3.1007

> <Gold.Chemscore.Rot.Weighted>
4.0175

> <Gold.Chemscore.Internal.Correction.Weighted>
   9.000000E+99

> <Gold.Protein.RotatedTorsions>
[ 6907 6896 6895 6894 ] final  157.87 input  -60.11 | X-H torsion
[ 7974 7965 7964 7962 ] final   35.16 input  175.53 | X-H torsion
[ 8008 7997 7996 7995 ] final -144.90 input   59.86 | X-H torsion
[ 10167 10162 10161 10158 ] final -136.85 input  -65.29 | X-H torsion
[ 10718 10713 10712 10709 ] final -126.83 input   66.30 | X-H torsion
[ 10763 10752 10751 10750 ] final   53.86 input  -60.55 | X-H torsion
[ 11005 11000 10999 10996 ] final -146.96 input  -57.11 | X-H torsion

> <Gold.Protein.ActiveResidues>
 VAL166  LYS551  ARG553  GLY616  TRP617  ASP618  TYR619  PRO620  LYS621  CYS622 
 ASP623  PHE694  ASN695  SER759  ASP760  ASP761  ALA762  ILE779  LEU786  VAL792 
 PHE793  MET794  SER795  GLU796  ALA797  LYS798  CYS799  TRP800  GLU811  SER814 

> <Gold.Protein.RotatedAtoms>
  152.0087  133.3853  159.4210 H   0  0  0  0  0  0  0  0  0  0  0  0  # atno 6907 bound_to 6896
  150.6902  134.3754  159.5020 H   0  0  0  0  0  0  0  0  0  0  0  0  # atno 6908 bound_to 6896
  152.1512  134.8986  160.0598 H   0  0  0  0  0  0  0  0  0  0  0  0  # atno 6909 bound_to 6896
  146.1302  139.6177  142.9232 H   0  0  0  0  0  0  0  0  0  0  0  0  # atno 7974 bound_to 7965
  155.5345  140.0602  157.2882 H   0  0  0  0  0  0  0  0  0  0  0  0  # atno 8008 bound_to 7997
  154.4473  140.1930  156.0572 H   0  0  0  0  0  0  0  0  0  0  0  0  # atno 8009 bound_to 7997
  156.0629  140.3270  155.7487 H   0  0  0  0  0  0  0  0  0  0  0  0  # atno 8010 bound_to 7997
  139.8636  143.7046  152.2647 H   0  0  0  0  0  0  0  0  0  0  0  0  # atno 10167 bound_to 10162
  156.1801  130.6726  151.0294 H   0  0  0  0  0  0  0  0  0  0  0  0  # atno 10718 bound_to 10713
  152.9799  135.5764  154.4811 H   0  0  0  0  0  0  0  0  0  0  0  0  # atno 10763 bound_to 10752
  154.4359  135.2774  155.1882 H   0  0  0  0  0  0  0  0  0  0  0  0  # atno 10764 bound_to 10752
  154.3571  135.6196  153.5725 H   0  0  0  0  0  0  0  0  0  0  0  0  # atno 10765 bound_to 10752
  140.7766  134.3127  157.5058 H   0  0  0  0  0  0  0  0  0  0  0  0  # atno 11005 bound_to 11000
  145.5277  141.0429  143.2400 LP  0  0  0  0  0  0  0  0  0  0  0  0  # atno 17320 bound_to 7965
  144.7683  139.6794  143.7205 LP  0  0  0  0  0  0  0  0  0  0  0  0  # atno 17321 bound_to 7965
  139.7350  144.7573  151.0742 LP  0  0  0  0  0  0  0  0  0  0  0  0  # atno 17342 bound_to 10162
  140.7771  143.5041  150.9734 LP  0  0  0  0  0  0  0  0  0  0  0  0  # atno 17343 bound_to 10162
  157.6862  131.0824  150.7235 LP  0  0  0  0  0  0  0  0  0  0  0  0  # atno 17370 bound_to 10713
  156.7292  130.4704  149.5504 LP  0  0  0  0  0  0  0  0  0  0  0  0  # atno 17371 bound_to 10713
  139.8748  134.9293  156.3473 LP  0  0  0  0  0  0  0  0  0  0  0  0  # atno 17394 bound_to 11000
  140.9523  133.7443  156.0288 LP  0  0  0  0  0  0  0  0  0  0  0  0  # atno 17395 bound_to 11000

$$$$
