AV-unprocessed.smi:1554|AV-procd|sdf|6257|dock5
  -GOLD-   22720 6443D 1   1.00000     0.00000
 Structure written by MMmdl.
 49 51  0  0  0  0  0  0  0  0  3 V2000
  152.3994  143.4109  161.4293 C   0  0  0  0  0  0  0  0  0  0  0  0
  152.1667  142.6425  160.1395 C   0  0  0  0  0  0  0  0  0  0  0  0
  151.4060  143.2540  159.1178 C   0  0  0  0  0  0  0  0  0  0  0  0
  151.2131  142.5270  157.9490 C   0  0  0  0  0  0  0  0  0  0  0  0
  150.5236  142.8471  156.7780 N   0  3  0  0  0  0  0  0  0  0  0  0
  150.6142  141.8107  155.8995 C   0  0  0  0  0  0  0  0  0  0  0  0
  151.3518  140.8321  156.4919 N   0  0  0  0  0  0  0  0  0  0  0  0
  151.7432  139.5118  155.9759 C   0  0  0  0  0  0  0  0  0  0  0  0
  150.5991  138.7956  155.2306 C   0  0  1  0  0  0  0  0  0  0  0  0
  150.3861  139.4141  153.9759 O   0  0  0  0  0  0  0  0  0  0  0  0
  150.9127  137.3036  154.9998 C   0  0  0  0  0  0  0  0  0  0  0  0
  149.7088  136.5148  154.6313 N   0  3  1  0  0  0  0  0  0  0  0  0
  149.9057  135.0581  154.8208 C   0  0  0  0  0  0  0  0  0  0  0  0
  148.6573  134.2836  154.3677 C   0  0  0  0  0  0  0  0  0  0  0  0
  147.5212  134.7517  155.0836 O   0  0  0  0  0  0  0  0  0  0  0  0
  147.2613  136.1301  154.8420 C   0  0  1  0  0  0  0  0  0  0  0  0
  145.9732  136.5116  155.5798 C   0  0  0  0  0  0  0  0  0  0  0  0
  148.4698  136.9613  155.3156 C   0  0  0  0  0  0  0  0  0  0  0  0
  151.7455  141.2345  157.7746 C   0  0  0  0  0  0  0  0  0  0  0  0
  152.4959  140.6172  158.7730 C   0  0  0  0  0  0  0  0  0  0  0  0
  152.7038  141.3401  159.9694 C   0  0  0  0  0  0  0  0  0  0  0  0
  153.5199  140.6918  161.0749 C   0  0  0  0  0  0  0  0  0  0  0  0
  151.9374  144.3980  161.3947 H   0  0  0  0  0  0  0  0  0  0  0  0
  153.4664  143.5492  161.6060 H   0  0  0  0  0  0  0  0  0  0  0  0
  151.9740  142.8735  162.2770 H   0  0  0  0  0  0  0  0  0  0  0  0
  150.9934  144.2449  159.2406 H   0  0  0  0  0  0  0  0  0  0  0  0
  150.1785  141.7729  154.9115 H   0  0  0  0  0  0  0  0  0  0  0  0
  152.6268  139.6163  155.3457 H   0  0  0  0  0  0  0  0  0  0  0  0
  152.0529  138.9154  156.8350 H   0  0  0  0  0  0  0  0  0  0  0  0
  149.6881  138.9049  155.8183 H   0  0  0  0  0  0  0  0  0  0  0  0
  149.7282  138.9260  153.5047 H   0  0  0  0  0  0  0  0  0  0  0  0
  151.6593  137.2261  154.2075 H   0  0  0  0  0  0  0  0  0  0  0  0
  151.3693  136.8653  155.8886 H   0  0  0  0  0  0  0  0  0  0  0  0
  150.7710  134.7219  154.2481 H   0  0  0  0  0  0  0  0  0  0  0  0
  150.1143  134.8505  155.8715 H   0  0  0  0  0  0  0  0  0  0  0  0
  148.4978  134.3931  153.2938 H   0  0  0  0  0  0  0  0  0  0  0  0
  148.7843  133.2188  154.5633 H   0  0  0  0  0  0  0  0  0  0  0  0
  147.1062  136.2835  153.7725 H   0  0  0  0  0  0  0  0  0  0  0  0
  145.7205  137.5592  155.4137 H   0  0  0  0  0  0  0  0  0  0  0  0
  146.0722  136.3572  156.6547 H   0  0  0  0  0  0  0  0  0  0  0  0
  145.1330  135.9092  155.2334 H   0  0  0  0  0  0  0  0  0  0  0  0
  148.5937  136.8612  156.3953 H   0  0  0  0  0  0  0  0  0  0  0  0
  148.2830  138.0152  155.1131 H   0  0  0  0  0  0  0  0  0  0  0  0
  152.9092  139.6281  158.6461 H   0  0  0  0  0  0  0  0  0  0  0  0
  153.8294  139.6822  160.8031 H   0  0  0  0  0  0  0  0  0  0  0  0
  152.9369  140.6239  161.9936 H   0  0  0  0  0  0  0  0  0  0  0  0
  154.4197  141.2734  161.2769 H   0  0  0  0  0  0  0  0  0  0  0  0
  149.5678  136.6544  153.6406 H   0  0  0  0  0  0  0  0  0  0  0  0
  150.0266  143.7085  156.5899 H   0  0  0  0  0  0  0  0  0  0  0  0
  1  2  1  0  0  0  0
  1 23  1  0  0  0  0
  1 24  1  0  0  0  0
  1 25  1  0  0  0  0
  2 21  1  0  0  0  0
  2  3  2  0  0  0  0
  3  4  1  0  0  0  0
  3 26  1  0  0  0  0
  4 19  2  0  0  0  0
  4  5  1  0  0  0  0
  5  6  2  0  0  0  0
  5 49  1  0  0  0  0
  6  7  1  0  0  0  0
  6 27  1  0  0  0  0
  7  8  1  0  0  0  0
  7 19  1  0  0  0  0
  8  9  1  0  0  0  0
  8 28  1  0  0  0  0
  8 29  1  0  0  0  0
  9 10  1  0  0  0  0
  9 11  1  0  0  0  0
  9 30  1  0  0  0  0
 10 31  1  0  0  0  0
 11 12  1  0  0  0  0
 11 32  1  0  0  0  0
 11 33  1  0  0  0  0
 12 18  1  0  0  0  0
 12 13  1  0  0  0  0
 12 48  1  0  0  0  0
 13 14  1  0  0  0  0
 13 34  1  0  0  0  0
 13 35  1  0  0  0  0
 14 15  1  0  0  0  0
 14 36  1  0  0  0  0
 14 37  1  0  0  0  0
 15 16  1  0  0  0  0
 16 17  1  0  0  0  0
 16 18  1  0  0  0  0
 16 38  1  0  0  0  0
 17 39  1  0  0  0  0
 17 40  1  0  0  0  0
 17 41  1  0  0  0  0
 18 42  1  0  0  0  0
 18 43  1  0  0  0  0
 19 20  1  0  0  0  0
 20 21  2  0  0  0  0
 20 44  1  0  0  0  0
 21 22  1  0  0  0  0
 22 45  1  0  0  0  0
 22 46  1  0  0  0  0
 22 47  1  0  0  0  0
M  CHG  1   5   1
M  CHG  1  12   1
M  END
> <s_m_source_file>
AV-unprocessed.smi

> <i_m_source_file_index>
1554

> <i_lp_mmshare_version>
43012

> <i_f3d_flags>
0

> <s_epik_input>
W0NIM11jKFtjSF0xKWMoW0NIM10pW2NIXWMoYzEyKW4oW2NIXW4yKVtDSDJdW0NASF0oW09IXSlbQ0gyXU4zW0NIMl1bQ0gyXU9bQ0BASF0oW0NIM10pW0NIMl0z

> <s_epik_cmdline>
J2VwaWtfcHl0aG9uJywgJy1waCcsICc3LjAnLCAnLXRuJywgJzgnLCAnLW1hJywgJzIwMCcsICctbWV0YWxfYmluZGluZycsICctaW1hZScsICc8aW5maWxlLm1hZT4nLCAnLW9tYWUnLCAnPG91dGZpbGUubWFlPic=

> <r_epik_Ionization_Penalty>
1.8848

> <r_epik_Ionization_Penalty_Charging>
1.88479

> <r_epik_Ionization_Penalty_Neutral>
1.42224e-05

> <r_epik_State_Penalty>
1.94551

> <r_epik_Charging_Adjusted_Penalty>
3.8303

> <i_epik_Tot_Q>
2

> <i_epik_Tot_abs_Q>
2

> <r_epik_Metal_State_Penalty>
5.95849

> <b_epik_Metal_Only>
0

> <s_lp_Force_Field>
OPLS_2005

> <r_lp_Energy>
30.3036

> <b_lp_Chiralities_Consistent>
1

> <s_lp_Variant>
AV-unprocessed.smi:1554-18

> <Gold.Version>
5.8.1

> <Gold.Id.Protein>
6NUR|6NUR_protein|mol2

> <Gold.PLP.Fitness>
57.7132

> <Gold.PLP.PLP>
-43.9716

> <Gold.PLP.part.hbond>
-4.0000

> <Gold.PLP.part.metal>
0.0000

> <Gold.PLP.part.buried>
-5.7126

> <Gold.PLP.part.nonpolar>
-34.9621

> <Gold.PLP.part.repulsive>
0.1494

> <Gold.PLP.ligand.clash>
0.0000

> <Gold.PLP.ligand.torsion>
0.6515

> <Gold.PLP.Chemscore.Hbond>
5.0000

> <Gold.PLP.Chemscore.CHOScore>
0.0000

> <Gold.PLP.Chemscore.Metal>
0.0000

> <Gold.Chemscore.Hbonds>
donor molecule, donor type, donor heavy atom, donor atom, acceptor molecule, acceptor atom, score
      L1  H     5    49       P1  8028  2.00
      L1  H    12    48       P1  7948  2.00
      P1  H  7989  7998       L1    10  1.00

> <Gold.PLP.Chemscore.Internal.Correction>
0.0445

> <Gold.Rescore>
     Score         DG    S(hbond)    S(metal)    S(lipo)     H(rot)  DE(clash)    DE(int)     intcor
     20.56     -21.03       2.55        0.00     106.41       2.11       0.03       0.44       ----

> <Gold.Chemscore.Fitness>
20.5577

> <Gold.Chemscore.DG>
-21.0309

> <Gold.Chemscore.ZeroCoef>
-5.4800

> <Gold.Chemscore.Hbond>
2.5474

> <Gold.Chemscore.Metal>
0.0000

> <Gold.Chemscore.Lipo>
106.4091

> <Gold.Chemscore.Internal_Hbond>
0.0000

> <Gold.Chemscore.DEClash>
0.0344

> <Gold.Chemscore.DEInternal>
0.4388

> <Gold.Chemscore.Rot>
2.1122

> <Gold.Chemscore.Internal.Correction>
   9.000000E+99

> <Gold.Chemscore.Hbonds>
donor molecule, donor type, donor heavy atom, donor atom, acceptor molecule, acceptor atom, score
      L1  H     5    49       P1  8028  0.98
      L1  H    12    48       P1  7948  0.73
      P1  H  7989  7998       L1    10  0.91

> <Gold.Chemscore.Hbond.Weighted>
-8.5084

> <Gold.Chemscore.Metal.Weighted>
-0.0000

> <Gold.Chemscore.Lipo.Weighted>
-12.4499

> <Gold.Chemscore.Internal_Hbond.Weighted>
0.0000

> <Gold.Chemscore.DEClash.Weighted>
0.0344

> <Gold.Chemscore.DEInternal.Weighted>
0.4388

> <Gold.Chemscore.Rot.Weighted>
5.4073

> <Gold.Chemscore.Internal.Correction.Weighted>
   9.000000E+99

> <Gold.Protein.RotatedTorsions>
[ 6907 6896 6895 6894 ] final    5.95 input  -60.11 | X-H torsion
[ 7974 7965 7964 7962 ] final  -27.65 input  175.53 | X-H torsion
[ 8008 7997 7996 7995 ] final -138.74 input   59.86 | X-H torsion
[ 10167 10162 10161 10158 ] final  -83.17 input  -65.29 | X-H torsion
[ 10718 10713 10712 10709 ] final   -8.21 input   66.30 | X-H torsion
[ 10763 10752 10751 10750 ] final  -75.52 input  -60.55 | X-H torsion
[ 11005 11000 10999 10996 ] final  -67.22 input  -57.11 | X-H torsion

> <Gold.Protein.ActiveResidues>
 VAL166  LYS551  ARG553  GLY616  TRP617  ASP618  TYR619  PRO620  LYS621  CYS622 
 ASP623  PHE694  ASN695  SER759  ASP760  ASP761  ALA762  ILE779  LEU786  VAL792 
 PHE793  MET794  SER795  GLU796  ALA797  LYS798  CYS799  TRP800  GLU811  SER814 

> <Gold.Protein.RotatedAtoms>
  151.6658  135.0983  160.0188 H   0  0  0  0  0  0  0  0  0  0  0  0  # atno 6907 bound_to 6896
  152.3920  133.6688  159.6254 H   0  0  0  0  0  0  0  0  0  0  0  0  # atno 6908 bound_to 6896
  150.7834  133.8855  159.3339 H   0  0  0  0  0  0  0  0  0  0  0  0  # atno 6909 bound_to 6896
  146.1343  140.5179  142.8679 H   0  0  0  0  0  0  0  0  0  0  0  0  # atno 7974 bound_to 7965
  155.4334  140.0526  157.3016 H   0  0  0  0  0  0  0  0  0  0  0  0  # atno 8008 bound_to 7997
  154.4850  140.2097  155.9634 H   0  0  0  0  0  0  0  0  0  0  0  0  # atno 8009 bound_to 7997
  156.1261  140.3180  155.8284 H   0  0  0  0  0  0  0  0  0  0  0  0  # atno 8010 bound_to 7997
  140.4251  143.2569  151.8836 H   0  0  0  0  0  0  0  0  0  0  0  0  # atno 10167 bound_to 10162
  156.7059  130.5107  149.5905 H   0  0  0  0  0  0  0  0  0  0  0  0  # atno 10718 bound_to 10713
  154.4876  135.5828  153.6435 H   0  0  0  0  0  0  0  0  0  0  0  0  # atno 10763 bound_to 10752
  152.9857  135.6105  154.3166 H   0  0  0  0  0  0  0  0  0  0  0  0  # atno 10764 bound_to 10752
  154.3063  135.2846  155.2567 H   0  0  0  0  0  0  0  0  0  0  0  0  # atno 10765 bound_to 10752
  141.1502  133.6714  156.6259 H   0  0  0  0  0  0  0  0  0  0  0  0  # atno 11005 bound_to 11000
  144.7723  140.5665  143.6661 LP  0  0  0  0  0  0  0  0  0  0  0  0  # atno 17320 bound_to 7965
  145.5191  139.1477  143.3562 LP  0  0  0  0  0  0  0  0  0  0  0  0  # atno 17321 bound_to 7965
  139.4783  144.5395  151.8549 LP  0  0  0  0  0  0  0  0  0  0  0  0  # atno 17342 bound_to 10162
  140.4490  144.1882  150.5896 LP  0  0  0  0  0  0  0  0  0  0  0  0  # atno 17343 bound_to 10162
  156.1695  130.6428  151.0820 LP  0  0  0  0  0  0  0  0  0  0  0  0  # atno 17370 bound_to 10713
  157.6955  131.0795  150.6982 LP  0  0  0  0  0  0  0  0  0  0  0  0  # atno 17371 bound_to 10713
  140.3505  134.7773  157.4463 LP  0  0  0  0  0  0  0  0  0  0  0  0  # atno 17394 bound_to 11000
  140.0865  134.5659  155.8487 LP  0  0  0  0  0  0  0  0  0  0  0  0  # atno 17395 bound_to 11000

$$$$
