AV-unprocessed.smi:1907|AV-procd|sdf|7731|dock10
  -GOLD-   22720 9473D 1   1.00000     0.00000
 Structure written by MMmdl.
 32 33  0  0  0  0  0  0  0  0  1 V2000
  145.1632  141.2092  154.9344 N   0  0  0  0  0  0  0  0  0  0  0  0
  146.3767  141.7330  155.1298 C   0  0  0  0  0  0  0  0  0  0  0  0
  146.6881  142.2982  156.1757 O   0  0  0  0  0  0  0  0  0  0  0  0
  147.3849  141.6082  153.9859 C   0  0  0  0  0  0  0  0  0  0  0  0
  148.6909  141.0742  154.4978 C   0  0  0  0  0  0  0  0  0  0  0  0
  149.3015  139.8966  154.1390 C   0  0  0  0  0  0  0  0  0  0  0  0
  150.8079  139.6560  154.9836 S   0  0  0  0  0  0  0  0  0  0  0  0
  150.5621  141.2012  155.7815 C   0  0  0  0  0  0  0  0  0  0  0  0
  151.4695  141.7077  156.7471 N   0  0  0  0  0  0  0  0  0  0  0  0
  151.2766  142.6293  157.7122 C   0  0  0  0  0  0  0  0  0  0  0  0
  150.1658  143.1400  157.8518 O   0  0  0  0  0  0  0  0  0  0  0  0
  152.4244  143.0353  158.6668 C   0  0  0  0  0  0  0  0  0  0  0  0
  152.0678  142.8364  160.1515 C   0  0  0  0  0  0  0  0  0  0  0  0
  151.4755  144.1634  160.6512 C   0  0  0  0  0  0  0  0  0  0  0  0
  151.7774  145.2117  159.5724 C   0  0  0  0  0  0  0  0  0  0  0  0
  152.7351  144.5371  158.5866 C   0  0  0  0  0  0  0  0  0  0  0  0
  149.4108  141.7964  155.4548 N   0  0  0  0  0  0  0  0  0  0  0  0
  144.4700  141.2632  155.6664 H   0  0  0  0  0  0  0  0  0  0  0  0
  144.9456  140.7551  154.0593 H   0  0  0  0  0  0  0  0  0  0  0  0
  146.9771  140.9591  153.2097 H   0  0  0  0  0  0  0  0  0  0  0  0
  147.5247  142.5865  153.5243 H   0  0  0  0  0  0  0  0  0  0  0  0
  148.9552  139.1574  153.4319 H   0  0  0  0  0  0  0  0  0  0  0  0
  152.3984  141.3143  156.7057 H   0  0  0  0  0  0  0  0  0  0  0  0
  153.3066  142.4341  158.4492 H   0  0  0  0  0  0  0  0  0  0  0  0
  151.3898  141.9986  160.3217 H   0  0  0  0  0  0  0  0  0  0  0  0
  152.9783  142.6161  160.7103 H   0  0  0  0  0  0  0  0  0  0  0  0
  150.3989  144.0768  160.8024 H   0  0  0  0  0  0  0  0  0  0  0  0
  151.9165  144.4427  161.6086 H   0  0  0  0  0  0  0  0  0  0  0  0
  150.8538  145.4831  159.0596 H   0  0  0  0  0  0  0  0  0  0  0  0
  152.1984  146.1268  159.9900 H   0  0  0  0  0  0  0  0  0  0  0  0
  153.7664  144.7076  158.8986 H   0  0  0  0  0  0  0  0  0  0  0  0
  152.6335  144.9451  157.5800 H   0  0  0  0  0  0  0  0  0  0  0  0
  1  2  1  0  0  0  0
  1 18  1  0  0  0  0
  1 19  1  0  0  0  0
  2  3  2  0  0  0  0
  2  4  1  0  0  0  0
  4  5  1  0  0  0  0
  4 20  1  0  0  0  0
  4 21  1  0  0  0  0
  5 17  1  0  0  0  0
  5  6  2  0  0  0  0
  6  7  1  0  0  0  0
  6 22  1  0  0  0  0
  7  8  1  0  0  0  0
  8  9  1  0  0  0  0
  8 17  2  0  0  0  0
  9 10  1  0  0  0  0
  9 23  1  0  0  0  0
 10 11  2  0  0  0  0
 10 12  1  0  0  0  0
 12 16  1  0  0  0  0
 12 13  1  0  0  0  0
 12 24  1  0  0  0  0
 13 14  1  0  0  0  0
 13 25  1  0  0  0  0
 13 26  1  0  0  0  0
 14 15  1  0  0  0  0
 14 27  1  0  0  0  0
 14 28  1  0  0  0  0
 15 16  1  0  0  0  0
 15 29  1  0  0  0  0
 15 30  1  0  0  0  0
 16 31  1  0  0  0  0
 16 32  1  0  0  0  0
M  END
> <s_m_source_file>
AV-unprocessed.smi

> <i_m_source_file_index>
1907

> <i_lp_mmshare_version>
43012

> <i_f3d_flags>
0

> <s_epik_input>
W05IMl1DKD1PKVtDSDJdYzFbY0hdc2MobjEpW05IXUMoPU8pW0NIXTJbQ0gyXVtDSDJdW0NIMl1bQ0gyXTI=

> <s_epik_cmdline>
J2VwaWtfcHl0aG9uJywgJy1waCcsICc3LjAnLCAnLXRuJywgJzgnLCAnLW1hJywgJzIwMCcsICctbWV0YWxfYmluZGluZycsICctaW1hZScsICc8aW5maWxlLm1hZT4nLCAnLW9tYWUnLCAnPG91dGZpbGUubWFlPic=

> <r_lp_tautomer_probability>
1

> <r_epik_Ionization_Penalty>
0.00017492

> <r_epik_Ionization_Penalty_Charging>
0

> <r_epik_Ionization_Penalty_Neutral>
0.00017492

> <r_epik_State_Penalty>
-0

> <r_epik_Charging_Adjusted_Penalty>
0

> <i_epik_Tot_Q>
0

> <i_epik_Tot_abs_Q>
0

> <r_epik_Metal_State_Penalty>
0.109333

> <b_epik_Metal_Only>
0

> <s_lp_Force_Field>
OPLS_2005

> <r_lp_Energy>
23.3326

> <b_lp_Chiralities_Consistent>
1

> <s_lp_Variant>
AV-unprocessed.smi:1907-1

> <Gold.Version>
5.8.1

> <Gold.Id.Protein>
6NUR|6NUR_protein|mol2

> <Gold.PLP.Fitness>
40.5208

> <Gold.PLP.PLP>
-36.5111

> <Gold.PLP.part.hbond>
-1.0000

> <Gold.PLP.part.metal>
0.0000

> <Gold.PLP.part.buried>
-1.9792

> <Gold.PLP.part.nonpolar>
-35.6859

> <Gold.PLP.part.repulsive>
2.7459

> <Gold.PLP.ligand.clash>
0.0000

> <Gold.PLP.ligand.torsion>
0.2035

> <Gold.PLP.Chemscore.Hbond>
1.0000

> <Gold.PLP.Chemscore.CHOScore>
0.4633

> <Gold.PLP.Chemscore.Metal>
0.0000

> <Gold.Chemscore.Hbonds>
donor molecule, donor type, donor heavy atom, donor atom, acceptor molecule, acceptor atom, score
      L1  H     1    19       P1 10175  0.97
      L1  C     6    22       P1  7957  0.52

> <Gold.PLP.Chemscore.Internal.Correction>
0.0269

> <Gold.Rescore>
     Score         DG    S(hbond)    S(metal)    S(lipo)     H(rot)  DE(clash)    DE(int)     intcor
     10.74     -14.52       0.97        0.00      91.20       1.90       0.81       2.96       ----

> <Gold.Chemscore.Fitness>
10.7447

> <Gold.Chemscore.DG>
-14.5197

> <Gold.Chemscore.ZeroCoef>
-5.4800

> <Gold.Chemscore.Hbond>
0.9701

> <Gold.Chemscore.Metal>
0.0000

> <Gold.Chemscore.Lipo>
91.2028

> <Gold.Chemscore.Internal_Hbond>
0.0000

> <Gold.Chemscore.DEClash>
0.8138

> <Gold.Chemscore.DEInternal>
2.9612

> <Gold.Chemscore.Rot>
1.9028

> <Gold.Chemscore.Internal.Correction>
   9.000000E+99

> <Gold.Chemscore.Hbonds>
donor molecule, donor type, donor heavy atom, donor atom, acceptor molecule, acceptor atom, score
      L1  H     1    19       P1 10175  0.84

> <Gold.Chemscore.Hbond.Weighted>
-3.2401

> <Gold.Chemscore.Metal.Weighted>
-0.0000

> <Gold.Chemscore.Lipo.Weighted>
-10.6707

> <Gold.Chemscore.Internal_Hbond.Weighted>
0.0000

> <Gold.Chemscore.DEClash.Weighted>
0.8138

> <Gold.Chemscore.DEInternal.Weighted>
2.9612

> <Gold.Chemscore.Rot.Weighted>
4.8711

> <Gold.Chemscore.Internal.Correction.Weighted>
   9.000000E+99

> <Gold.Protein.RotatedTorsions>
[ 6907 6896 6895 6894 ] final  -45.73 input  -60.11 | X-H torsion
[ 7974 7965 7964 7962 ] final  -81.45 input  175.53 | X-H torsion
[ 8008 7997 7996 7995 ] final    7.02 input   59.86 | X-H torsion
[ 10167 10162 10161 10158 ] final -104.86 input  -65.29 | X-H torsion
[ 10718 10713 10712 10709 ] final  153.74 input   66.30 | X-H torsion
[ 10763 10752 10751 10750 ] final   65.02 input  -60.55 | X-H torsion
[ 11005 11000 10999 10996 ] final -123.17 input  -57.11 | X-H torsion

> <Gold.Protein.ActiveResidues>
 VAL166  LYS551  ARG553  GLY616  TRP617  ASP618  TYR619  PRO620  LYS621  CYS622 
 ASP623  PHE694  ASN695  SER759  ASP760  ASP761  ALA762  ILE779  LEU786  VAL792 
 PHE793  MET794  SER795  GLU796  ALA797  LYS798  CYS799  TRP800  GLU811  SER814 

> <Gold.Protein.RotatedAtoms>
  150.9188  134.8605  159.7474 H   0  0  0  0  0  0  0  0  0  0  0  0  # atno 6907 bound_to 6896
  152.4982  134.4249  159.9503 H   0  0  0  0  0  0  0  0  0  0  0  0  # atno 6908 bound_to 6896
  151.4285  133.3637  159.2800 H   0  0  0  0  0  0  0  0  0  0  0  0  # atno 6909 bound_to 6896
  145.5464  140.9503  143.1523 H   0  0  0  0  0  0  0  0  0  0  0  0  # atno 7974 bound_to 7965
  154.7484  140.2762  155.6313 H   0  0  0  0  0  0  0  0  0  0  0  0  # atno 8008 bound_to 7997
  156.2890  140.2683  156.2157 H   0  0  0  0  0  0  0  0  0  0  0  0  # atno 8009 bound_to 7997
  155.0168  140.0372  157.2411 H   0  0  0  0  0  0  0  0  0  0  0  0  # atno 8010 bound_to 7997
  140.2048  143.3791  152.1100 H   0  0  0  0  0  0  0  0  0  0  0  0  # atno 10167 bound_to 10162
  157.2408  131.0758  151.1794 H   0  0  0  0  0  0  0  0  0  0  0  0  # atno 10718 bound_to 10713
  153.0079  135.5372  154.6601 H   0  0  0  0  0  0  0  0  0  0  0  0  # atno 10763 bound_to 10752
  154.5812  135.2850  155.0733 H   0  0  0  0  0  0  0  0  0  0  0  0  # atno 10764 bound_to 10752
  154.1861  135.6508  153.5100 H   0  0  0  0  0  0  0  0  0  0  0  0  # atno 10765 bound_to 10752
  140.9939  134.0499  157.3620 H   0  0  0  0  0  0  0  0  0  0  0  0  # atno 11005 bound_to 11000
  144.7551  139.7095  143.7257 LP  0  0  0  0  0  0  0  0  0  0  0  0  # atno 17320 bound_to 7965
  146.1946  139.5206  142.9783 LP  0  0  0  0  0  0  0  0  0  0  0  0  # atno 17321 bound_to 7965
  139.5203  144.7031  151.5435 LP  0  0  0  0  0  0  0  0  0  0  0  0  # atno 17342 bound_to 10162
  140.6365  143.8973  150.6652 LP  0  0  0  0  0  0  0  0  0  0  0  0  # atno 17343 bound_to 10162
  157.3381  130.7019  149.6365 LP  0  0  0  0  0  0  0  0  0  0  0  0  # atno 17370 bound_to 10713
  155.9670  130.4288  150.4804 LP  0  0  0  0  0  0  0  0  0  0  0  0  # atno 17371 bound_to 10713
  139.9005  135.0163  156.7247 LP  0  0  0  0  0  0  0  0  0  0  0  0  # atno 17394 bound_to 11000
  140.6996  133.9318  155.8016 LP  0  0  0  0  0  0  0  0  0  0  0  0  # atno 17395 bound_to 11000

$$$$
