AV-unprocessed.smi:845|AV-procd|sdf|3927|dock3
  -GOLD-   22720 1383D 1   1.00000     0.00000
 Structure written by MMmdl.
 43 44  0  0  0  0  0  0  0  0  2 V2000
  147.3436  140.1359  155.8417 C   0  0  0  0  0  0  0  0  0  0  0  0
  147.8150  140.5599  154.4398 C   0  0  0  0  0  0  0  0  0  0  0  0
  146.9565  141.7180  153.9020 C   0  0  0  0  0  0  0  0  0  0  0  0
  147.9448  139.3423  153.4800 C   0  0  2  0  0  0  0  0  0  0  0  0
  146.6028  138.6301  153.1522 C   0  0  0  0  0  0  0  0  0  0  0  0
  146.7896  137.3220  152.5320 N   0  0  0  0  0  0  0  0  0  0  0  0
  145.7952  136.5067  152.1521 C   0  0  0  0  0  0  0  0  0  0  0  0
  144.6035  136.7868  152.2868 O   0  0  0  0  0  0  0  0  0  0  0  0
  146.2726  135.3677  151.6213 N   0  0  0  0  0  0  0  0  0  0  0  0
  145.5404  134.2549  151.1303 C   0  0  0  0  0  0  0  0  0  0  0  0
  144.2057  134.2075  151.0468 N   0  0  0  0  0  0  0  0  0  0  0  0
  143.7558  132.9909  150.5271 C   0  0  0  0  0  0  0  0  0  0  0  0
  144.7690  132.1175  150.2188 C   0  0  0  0  0  0  0  0  0  0  0  0
  146.3376  132.7913  150.5726 S   0  0  0  0  0  0  0  0  0  0  0  0
  149.0278  138.4078  153.9208 N   0  3  0  0  0  0  0  0  0  0  0  0
  150.3631  139.0094  154.1765 C   0  0  0  0  0  0  0  0  0  0  0  0
  151.3944  137.9034  154.4513 C   0  0  0  0  0  0  0  0  0  0  0  0
  150.9697  137.1327  155.5688 O   0  0  0  0  0  0  0  0  0  0  0  0
  149.7235  136.4893  155.3315 C   0  0  0  0  0  0  0  0  0  0  0  0
  148.6335  137.5408  155.0584 C   0  0  0  0  0  0  0  0  0  0  0  0
  146.3252  139.7469  155.8241 H   0  0  0  0  0  0  0  0  0  0  0  0
  147.3608  140.9801  156.5315 H   0  0  0  0  0  0  0  0  0  0  0  0
  147.9890  139.3622  156.2587 H   0  0  0  0  0  0  0  0  0  0  0  0
  148.8174  140.9651  154.5817 H   0  0  0  0  0  0  0  0  0  0  0  0
  145.9030  141.4455  153.8443 H   0  0  0  0  0  0  0  0  0  0  0  0
  147.2810  142.0390  152.9126 H   0  0  0  0  0  0  0  0  0  0  0  0
  147.0266  142.5855  154.5592 H   0  0  0  0  0  0  0  0  0  0  0  0
  148.2813  139.7771  152.5376 H   0  0  0  0  0  0  0  0  0  0  0  0
  146.0067  138.5110  154.0586 H   0  0  0  0  0  0  0  0  0  0  0  0
  146.0001  139.2238  152.4658 H   0  0  0  0  0  0  0  0  0  0  0  0
  147.7409  137.0176  152.3830 H   0  0  0  0  0  0  0  0  0  0  0  0
  147.2769  135.2819  151.5681 H   0  0  0  0  0  0  0  0  0  0  0  0
  142.6941  132.8309  150.4096 H   0  0  0  0  0  0  0  0  0  0  0  0
  144.6877  131.1226  149.8069 H   0  0  0  0  0  0  0  0  0  0  0  0
  150.6888  139.6101  153.3291 H   0  0  0  0  0  0  0  0  0  0  0  0
  150.3194  139.6734  155.0408 H   0  0  0  0  0  0  0  0  0  0  0  0
  151.5258  137.2639  153.5768 H   0  0  0  0  0  0  0  0  0  0  0  0
  152.3666  138.3431  154.6749 H   0  0  0  0  0  0  0  0  0  0  0  0
  149.8140  135.7978  154.4921 H   0  0  0  0  0  0  0  0  0  0  0  0
  149.4610  135.8938  156.2061 H   0  0  0  0  0  0  0  0  0  0  0  0
  148.4659  138.1528  155.9459 H   0  0  0  0  0  0  0  0  0  0  0  0
  147.6950  137.0314  154.8359 H   0  0  0  0  0  0  0  0  0  0  0  0
  149.1526  137.7743  153.1440 H   0  0  0  0  0  0  0  0  0  0  0  0
  1  2  1  0  0  0  0
  1 21  1  0  0  0  0
  1 22  1  0  0  0  0
  1 23  1  0  0  0  0
  2  3  1  0  0  0  0
  2  4  1  0  0  0  0
  2 24  1  0  0  0  0
  3 25  1  0  0  0  0
  3 26  1  0  0  0  0
  3 27  1  0  0  0  0
  4  5  1  0  0  0  0
  4 15  1  0  0  0  0
  4 28  1  0  0  0  0
  5  6  1  0  0  0  0
  5 29  1  0  0  0  0
  5 30  1  0  0  0  0
  6  7  1  0  0  0  0
  6 31  1  0  0  0  0
  7  8  2  0  0  0  0
  7  9  1  0  0  0  0
  9 10  1  0  0  0  0
  9 32  1  0  0  0  0
 10 14  1  0  0  0  0
 10 11  2  0  0  0  0
 11 12  1  0  0  0  0
 12 13  2  0  0  0  0
 12 33  1  0  0  0  0
 13 14  1  0  0  0  0
 13 34  1  0  0  0  0
 15 20  1  0  0  0  0
 15 16  1  0  0  0  0
 15 43  1  0  0  0  0
 16 17  1  0  0  0  0
 16 35  1  0  0  0  0
 16 36  1  0  0  0  0
 17 18  1  0  0  0  0
 17 37  1  0  0  0  0
 17 38  1  0  0  0  0
 18 19  1  0  0  0  0
 19 20  1  0  0  0  0
 19 39  1  0  0  0  0
 19 40  1  0  0  0  0
 20 41  1  0  0  0  0
 20 42  1  0  0  0  0
M  CHG  1  15   1
M  END
> <s_m_source_file>
AV-unprocessed.smi

> <i_m_source_file_index>
845

> <i_lp_mmshare_version>
43012

> <i_f3d_flags>
0

> <s_epik_input>
W0NIMl0xW0NIMl1PW0NIMl1bQ0gyXU4xW0NASF0oW0NIXShbQ0gzXSlbQ0gzXSlbQ0gyXVtOSF1DKD1PKVtOSF1jMm5bY0hdW2NIXXMy

> <s_epik_cmdline>
J2VwaWtfcHl0aG9uJywgJy1waCcsICc3LjAnLCAnLXRuJywgJzgnLCAnLW1hJywgJzIwMCcsICctbWV0YWxfYmluZGluZycsICctaW1hZScsICc8aW5maWxlLm1hZT4nLCAnLW9tYWUnLCAnPG91dGZpbGUubWFlPic=

> <r_lp_tautomer_probability>
0.999

> <r_epik_Ionization_Penalty>
0.398341

> <r_epik_Ionization_Penalty_Charging>
0.398119

> <r_epik_Ionization_Penalty_Neutral>
0.000222117

> <r_epik_State_Penalty>
0.397286

> <r_epik_Charging_Adjusted_Penalty>
0.795404

> <i_epik_Tot_Q>
1

> <i_epik_Tot_abs_Q>
1

> <r_epik_Metal_State_Penalty>
0.407542

> <b_epik_Metal_Only>
0

> <s_lp_Force_Field>
OPLS_2005

> <r_lp_Energy>
23.5248

> <b_lp_Chiralities_Consistent>
1

> <s_lp_Variant>
AV-unprocessed.smi:845-1

> <Gold.Version>
5.8.1

> <Gold.Id.Protein>
6NUR|6NUR_protein|mol2

> <Gold.PLP.Fitness>
46.2677

> <Gold.PLP.PLP>
-32.0280

> <Gold.PLP.part.hbond>
-3.2924

> <Gold.PLP.part.metal>
0.0000

> <Gold.PLP.part.buried>
-3.7015

> <Gold.PLP.part.nonpolar>
-26.2148

> <Gold.PLP.part.repulsive>
0.5978

> <Gold.PLP.ligand.clash>
0.0000

> <Gold.PLP.ligand.torsion>
0.3418

> <Gold.PLP.Chemscore.Hbond>
3.9120

> <Gold.PLP.Chemscore.CHOScore>
0.9631

> <Gold.PLP.Chemscore.Metal>
0.0000

> <Gold.Chemscore.Hbonds>
donor molecule, donor type, donor heavy atom, donor atom, acceptor molecule, acceptor atom, score
      L1  H     6    31       P1  7948  0.99
      L1  H     9    32       P1  7948  0.90
      L1  H    15    43       P1  7948  2.00
      L1  C    12    33       P1 10186  0.97

> <Gold.PLP.Chemscore.Internal.Correction>
0.2981

> <Gold.Rescore>
     Score         DG    S(hbond)    S(metal)    S(lipo)     H(rot)  DE(clash)    DE(int)     intcor
     17.33     -19.28       2.75        0.00      78.93       1.80       0.25       1.70       ----

> <Gold.Chemscore.Fitness>
17.3284

> <Gold.Chemscore.DG>
-19.2788

> <Gold.Chemscore.ZeroCoef>
-5.4800

> <Gold.Chemscore.Hbond>
2.7495

> <Gold.Chemscore.Metal>
0.0000

> <Gold.Chemscore.Lipo>
78.9325

> <Gold.Chemscore.Internal_Hbond>
0.0000

> <Gold.Chemscore.DEClash>
0.2489

> <Gold.Chemscore.DEInternal>
1.7015

> <Gold.Chemscore.Rot>
1.8046

> <Gold.Chemscore.Internal.Correction>
   9.000000E+99

> <Gold.Chemscore.Hbonds>
donor molecule, donor type, donor heavy atom, donor atom, acceptor molecule, acceptor atom, score
      L1  H     6    31       P1  7948  0.92
      L1  H     9    32       P1  7948  0.81
      L1  H    15    43       P1  7948  0.97

> <Gold.Chemscore.Hbond.Weighted>
-9.1834

> <Gold.Chemscore.Metal.Weighted>
-0.0000

> <Gold.Chemscore.Lipo.Weighted>
-9.2351

> <Gold.Chemscore.Internal_Hbond.Weighted>
0.0000

> <Gold.Chemscore.DEClash.Weighted>
0.2489

> <Gold.Chemscore.DEInternal.Weighted>
1.7015

> <Gold.Chemscore.Rot.Weighted>
4.6197

> <Gold.Chemscore.Internal.Correction.Weighted>
   9.000000E+99

> <Gold.Protein.RotatedTorsions>
[ 6907 6896 6895 6894 ] final  121.12 input  -60.11 | X-H torsion
[ 7974 7965 7964 7962 ] final   19.56 input  175.53 | X-H torsion
[ 8008 7997 7996 7995 ] final   38.19 input   59.86 | X-H torsion
[ 10167 10162 10161 10158 ] final  -62.37 input  -65.29 | X-H torsion
[ 10718 10713 10712 10709 ] final -177.46 input   66.30 | X-H torsion
[ 10763 10752 10751 10750 ] final  -29.71 input  -60.55 | X-H torsion
[ 11005 11000 10999 10996 ] final  -13.64 input  -57.11 | X-H torsion

> <Gold.Protein.ActiveResidues>
 VAL166  LYS551  ARG553  GLY616  TRP617  ASP618  TYR619  PRO620  LYS621  CYS622 
 ASP623  PHE694  ASN695  SER759  ASP760  ASP761  ALA762  ILE779  LEU786  VAL792 
 PHE793  MET794  SER795  GLU796  ALA797  LYS798  CYS799  TRP800  GLU811  SER814 

> <Gold.Protein.RotatedAtoms>
  152.4346  133.7337  159.6601 H   0  0  0  0  0  0  0  0  0  0  0  0  # atno 6907 bound_to 6896
  150.8228  133.8213  159.3137 H   0  0  0  0  0  0  0  0  0  0  0  0  # atno 6908 bound_to 6896
  151.5890  135.1057  160.0086 H   0  0  0  0  0  0  0  0  0  0  0  0  # atno 6909 bound_to 6896
  146.2145  139.8296  142.8663 H   0  0  0  0  0  0  0  0  0  0  0  0  # atno 7974 bound_to 7965
  155.2161  140.3327  155.4322 H   0  0  0  0  0  0  0  0  0  0  0  0  # atno 8008 bound_to 7997
  156.2351  140.1868  156.7188 H   0  0  0  0  0  0  0  0  0  0  0  0  # atno 8009 bound_to 7997
  154.6046  140.0618  156.9399 H   0  0  0  0  0  0  0  0  0  0  0  0  # atno 8010 bound_to 7997
  140.5944  143.2348  151.6069 H   0  0  0  0  0  0  0  0  0  0  0  0  # atno 10167 bound_to 10162
  156.8298  130.9649  151.3107 H   0  0  0  0  0  0  0  0  0  0  0  0  # atno 10718 bound_to 10713
  153.7691  135.6913  153.4910 H   0  0  0  0  0  0  0  0  0  0  0  0  # atno 10763 bound_to 10752
  153.1887  135.4479  155.0120 H   0  0  0  0  0  0  0  0  0  0  0  0  # atno 10764 bound_to 10752
  154.8125  135.3383  154.7201 H   0  0  0  0  0  0  0  0  0  0  0  0  # atno 10765 bound_to 10752
  140.7782  133.8384  155.9267 H   0  0  0  0  0  0  0  0  0  0  0  0  # atno 11005 bound_to 11000
  145.3011  141.0194  143.3608 LP  0  0  0  0  0  0  0  0  0  0  0  0  # atno 17320 bound_to 7965
  144.9005  139.4656  143.6635 LP  0  0  0  0  0  0  0  0  0  0  0  0  # atno 17321 bound_to 7965
  139.5248  144.3092  152.1007 LP  0  0  0  0  0  0  0  0  0  0  0  0  # atno 17342 bound_to 10162
  140.2262  144.4415  150.6320 LP  0  0  0  0  0  0  0  0  0  0  0  0  # atno 17343 bound_to 10162
  157.6413  130.8808  149.9453 LP  0  0  0  0  0  0  0  0  0  0  0  0  # atno 17370 bound_to 10713
  156.0941  130.3661  150.0340 LP  0  0  0  0  0  0  0  0  0  0  0  0  # atno 17371 bound_to 10713
  140.9509  134.1780  157.4729 LP  0  0  0  0  0  0  0  0  0  0  0  0  # atno 17394 bound_to 11000
  139.8746  134.9908  156.5522 LP  0  0  0  0  0  0  0  0  0  0  0  0  # atno 17395 bound_to 11000

$$$$
