AV-unprocessed.smi:2779|AV-procd|sdf|10712|dock3
  -GOLD-   2272015153D 1   1.00000     0.00000
 Structure written by MMmdl.
 38 39  0  0  0  0  0  0  0  0  1 V2000
  147.2409  137.3863  161.7761 O   0  0  0  0  0  0  0  0  0  0  0  0
  147.3004  136.1799  161.5400 C   0  0  0  0  0  0  0  0  0  0  0  0
  147.0011  135.1542  162.5363 C   0  0  0  0  0  0  0  0  0  0  0  0
  147.0707  133.8379  162.2439 C   0  0  0  0  0  0  0  0  0  0  0  0
  147.4550  133.4212  160.9056 C   0  0  0  0  0  0  0  0  0  0  0  0
  147.5601  131.9774  160.4801 C   0  0  0  0  0  0  0  0  0  0  0  0
  148.4158  131.3097  161.2546 F   0  0  0  0  0  0  0  0  0  0  0  0
  146.3671  131.3875  160.5611 F   0  0  0  0  0  0  0  0  0  0  0  0
  147.9839  131.9018  159.2181 F   0  0  0  0  0  0  0  0  0  0  0  0
  147.7237  134.3250  160.0193 N   0  0  0  0  0  0  0  0  0  0  0  0
  147.6498  135.6744  160.3215 N   0  0  0  0  0  0  0  0  0  0  0  0
  147.9578  136.5576  159.1908 C   0  0  0  0  0  0  0  0  0  0  0  0
  149.1826  137.4529  159.4819 C   0  0  1  0  0  0  0  0  0  0  0  0
  150.3546  136.7887  159.0534 O   0  0  0  0  0  0  0  0  0  0  0  0
  149.1240  138.7892  158.7258 C   0  0  0  0  0  0  0  0  0  0  0  0
  150.2581  139.5686  159.0693 O   0  0  0  0  0  0  0  0  0  0  0  0
  150.6516  140.4541  158.0353 C   0  0  0  0  0  0  0  0  0  0  0  0
  151.2159  141.7414  158.6002 C   0  0  0  0  0  0  0  0  0  0  0  0
  150.6525  142.9796  158.2278 C   0  0  0  0  0  0  0  0  0  0  0  0
  151.1734  144.1796  158.7499 C   0  0  0  0  0  0  0  0  0  0  0  0
  152.2575  144.1450  159.6484 C   0  0  0  0  0  0  0  0  0  0  0  0
  152.8201  142.9100  160.0249 C   0  0  0  0  0  0  0  0  0  0  0  0
  152.3005  141.7096  159.5018 C   0  0  0  0  0  0  0  0  0  0  0  0
  149.2690  137.6564  160.5502 H   0  0  0  0  0  0  0  0  0  0  0  0
  146.7153  135.4594  163.5323 H   0  0  0  0  0  0  0  0  0  0  0  0
  146.8436  133.0977  162.9967 H   0  0  0  0  0  0  0  0  0  0  0  0
  148.0851  136.0049  158.2579 H   0  0  0  0  0  0  0  0  0  0  0  0
  147.0824  137.1865  159.0186 H   0  0  0  0  0  0  0  0  0  0  0  0
  150.2745  136.6021  158.1305 H   0  0  0  0  0  0  0  0  0  0  0  0
  149.1277  138.6086  157.6493 H   0  0  0  0  0  0  0  0  0  0  0  0
  148.2046  139.3262  158.9658 H   0  0  0  0  0  0  0  0  0  0  0  0
  151.3975  139.9756  157.3984 H   0  0  0  0  0  0  0  0  0  0  0  0
  149.7963  140.6944  157.4016 H   0  0  0  0  0  0  0  0  0  0  0  0
  149.8196  143.0111  157.5407 H   0  0  0  0  0  0  0  0  0  0  0  0
  150.7413  145.1266  158.4614 H   0  0  0  0  0  0  0  0  0  0  0  0
  152.6567  145.0652  160.0489 H   0  0  0  0  0  0  0  0  0  0  0  0
  153.6503  142.8832  160.7152 H   0  0  0  0  0  0  0  0  0  0  0  0
  152.7361  140.7659  159.7958 H   0  0  0  0  0  0  0  0  0  0  0  0
  1  2  2  0  0  0  0
  2 11  1  0  0  0  0
  2  3  1  0  0  0  0
  3  4  2  0  0  0  0
  3 25  1  0  0  0  0
  4  5  1  0  0  0  0
  4 26  1  0  0  0  0
  5  6  1  0  0  0  0
  5 10  2  0  0  0  0
  6  7  1  0  0  0  0
  6  8  1  0  0  0  0
  6  9  1  0  0  0  0
 10 11  1  0  0  0  0
 11 12  1  0  0  0  0
 12 13  1  0  0  0  0
 12 27  1  0  0  0  0
 12 28  1  0  0  0  0
 13 24  1  0  0  0  0
 13 14  1  0  0  0  0
 13 15  1  0  0  0  0
 14 29  1  0  0  0  0
 15 16  1  0  0  0  0
 15 30  1  0  0  0  0
 15 31  1  0  0  0  0
 16 17  1  0  0  0  0
 17 18  1  0  0  0  0
 17 32  1  0  0  0  0
 17 33  1  0  0  0  0
 18 23  1  0  0  0  0
 18 19  2  0  0  0  0
 19 20  1  0  0  0  0
 19 34  1  0  0  0  0
 20 21  2  0  0  0  0
 20 35  1  0  0  0  0
 21 22  1  0  0  0  0
 21 36  1  0  0  0  0
 22 23  2  0  0  0  0
 22 37  1  0  0  0  0
 23 38  1  0  0  0  0
M  END
> <s_m_source_file>
AV-unprocessed.smi

> <i_m_source_file_index>
2779

> <i_lp_mmshare_version>
43012

> <i_f3d_flags>
0

> <s_epik_input>
Tz1jMVtjSF1bY0hdYyhDKEYpKEYpRilubjFbQ0gyXVtDQEhdKFtPSF0pW0NIMl1PW0NIMl1jMltjSF1bY0hdW2NIXVtjSF1bY0hdMg==

> <s_epik_cmdline>
J2VwaWtfcHl0aG9uJywgJy1waCcsICc3LjAnLCAnLXRuJywgJzgnLCAnLW1hJywgJzIwMCcsICctbWV0YWxfYmluZGluZycsICctaW1hZScsICc8aW5maWxlLm1hZT4nLCAnLW9tYWUnLCAnPG91dGZpbGUubWFlPic=

> <r_lp_tautomer_probability>
1

> <r_epik_Ionization_Penalty>
6.7226e-08

> <r_epik_Ionization_Penalty_Charging>
6.11342e-09

> <r_epik_Ionization_Penalty_Neutral>
6.11126e-08

> <r_epik_State_Penalty>
-0

> <r_epik_Charging_Adjusted_Penalty>
6.11342e-09

> <i_epik_Tot_Q>
0

> <i_epik_Tot_abs_Q>
0

> <r_epik_Metal_State_Penalty>
-0

> <b_epik_Metal_Only>
0

> <s_lp_Force_Field>
OPLS_2005

> <r_lp_Energy>
32.3095

> <b_lp_Chiralities_Consistent>
1

> <s_lp_Variant>
AV-unprocessed.smi:2779-2

> <Gold.Version>
5.8.1

> <Gold.Id.Protein>
6NUR|6NUR_protein|mol2

> <Gold.PLP.Fitness>
55.0793

> <Gold.PLP.PLP>
-48.6468

> <Gold.PLP.part.hbond>
-2.9882

> <Gold.PLP.part.metal>
0.0000

> <Gold.PLP.part.buried>
-3.4152

> <Gold.PLP.part.nonpolar>
-42.4400

> <Gold.PLP.part.repulsive>
0.0000

> <Gold.PLP.ligand.clash>
0.0000

> <Gold.PLP.ligand.torsion>
0.8060

> <Gold.PLP.Chemscore.Hbond>
2.5520

> <Gold.PLP.Chemscore.CHOScore>
0.0000

> <Gold.PLP.Chemscore.Metal>
0.0000

> <Gold.Chemscore.Hbonds>
donor molecule, donor type, donor heavy atom, donor atom, acceptor molecule, acceptor atom, score
      P1  H  6896  6908       L1    14  0.86
      P1  H  6931  6943       L1     1  0.78
      P1  H  6934  6947       L1     1  0.80

> <Gold.PLP.Chemscore.Internal.Correction>
0.3885

> <Gold.Rescore>
     Score         DG    S(hbond)    S(metal)    S(lipo)     H(rot)  DE(clash)    DE(int)     intcor
     17.16     -18.78       2.59        0.00     100.95       2.80       0.00       1.62       ----

> <Gold.Chemscore.Fitness>
17.1558

> <Gold.Chemscore.DG>
-18.7815

> <Gold.Chemscore.ZeroCoef>
-5.4800

> <Gold.Chemscore.Hbond>
2.5939

> <Gold.Chemscore.Metal>
0.0000

> <Gold.Chemscore.Lipo>
100.9541

> <Gold.Chemscore.Internal_Hbond>
0.0000

> <Gold.Chemscore.DEClash>
0.0048

> <Gold.Chemscore.DEInternal>
1.6209

> <Gold.Chemscore.Rot>
2.8022

> <Gold.Chemscore.Internal.Correction>
   9.000000E+99

> <Gold.Chemscore.Hbonds>
donor molecule, donor type, donor heavy atom, donor atom, acceptor molecule, acceptor atom, score
      P1  H  6896  6908       L1    14  0.44
      P1  H  6931  6943       L1     1  0.67
      P1  H  6934  6947       L1     1  0.80

> <Gold.Chemscore.Hbond.Weighted>
-8.6635

> <Gold.Chemscore.Metal.Weighted>
-0.0000

> <Gold.Chemscore.Lipo.Weighted>
-11.8116

> <Gold.Chemscore.Internal_Hbond.Weighted>
0.0000

> <Gold.Chemscore.DEClash.Weighted>
0.0048

> <Gold.Chemscore.DEInternal.Weighted>
1.6209

> <Gold.Chemscore.Rot.Weighted>
7.1736

> <Gold.Chemscore.Internal.Correction.Weighted>
   9.000000E+99

> <Gold.Protein.RotatedTorsions>
[ 6907 6896 6895 6894 ] final -134.49 input  -60.11 | X-H torsion
[ 7974 7965 7964 7962 ] final  110.55 input  175.53 | X-H torsion
[ 8008 7997 7996 7995 ] final  -54.50 input   59.86 | X-H torsion
[ 10167 10162 10161 10158 ] final  163.31 input  -65.29 | X-H torsion
[ 10718 10713 10712 10709 ] final -105.50 input   66.30 | X-H torsion
[ 10763 10752 10751 10750 ] final  -58.71 input  -60.55 | X-H torsion
[ 11005 11000 10999 10996 ] final  107.16 input  -57.11 | X-H torsion

> <Gold.Protein.ActiveResidues>
 VAL166  LYS551  ARG553  GLY616  TRP617  ASP618  TYR619  PRO620  LYS621  CYS622 
 ASP623  PHE694  ASN695  SER759  ASP760  ASP761  ALA762  ILE779  LEU786  VAL792 
 PHE793  MET794  SER795  GLU796  ALA797  LYS798  CYS799  TRP800  GLU811  SER814 

> <Gold.Protein.RotatedAtoms>
  150.9865  133.6193  159.2714 H   0  0  0  0  0  0  0  0  0  0  0  0  # atno 6907 bound_to 6896
  151.3429  135.0866  159.9387 H   0  0  0  0  0  0  0  0  0  0  0  0  # atno 6908 bound_to 6896
  152.5232  133.9472  159.7709 H   0  0  0  0  0  0  0  0  0  0  0  0  # atno 6909 bound_to 6896
  145.2536  139.2730  143.4054 H   0  0  0  0  0  0  0  0  0  0  0  0  # atno 7974 bound_to 7965
  154.4164  140.1175  156.5325 H   0  0  0  0  0  0  0  0  0  0  0  0  # atno 8008 bound_to 7997
  155.6591  140.3496  155.4757 H   0  0  0  0  0  0  0  0  0  0  0  0  # atno 8009 bound_to 7997
  155.9728  140.1145  157.0786 H   0  0  0  0  0  0  0  0  0  0  0  0  # atno 8010 bound_to 7997
  139.4872  144.4350  151.9023 H   0  0  0  0  0  0  0  0  0  0  0  0  # atno 10167 bound_to 10162
  156.0349  130.5567  150.7548 H   0  0  0  0  0  0  0  0  0  0  0  0  # atno 10718 bound_to 10713
  154.2423  135.6341  153.5211 H   0  0  0  0  0  0  0  0  0  0  0  0  # atno 10763 bound_to 10752
  152.9928  135.5545  154.5897 H   0  0  0  0  0  0  0  0  0  0  0  0  # atno 10764 bound_to 10752
  154.5405  135.2894  155.1074 H   0  0  0  0  0  0  0  0  0  0  0  0  # atno 10765 bound_to 10752
  139.8824  134.9392  156.5778 H   0  0  0  0  0  0  0  0  0  0  0  0  # atno 11005 bound_to 11000
  146.3295  140.2933  142.8616 LP  0  0  0  0  0  0  0  0  0  0  0  0  # atno 17320 bound_to 7965
  144.9481  140.8149  143.5589 LP  0  0  0  0  0  0  0  0  0  0  0  0  # atno 17321 bound_to 7965
  140.3799  144.2749  150.5910 LP  0  0  0  0  0  0  0  0  0  0  0  0  # atno 17342 bound_to 10162
  140.5243  143.2258  151.8340 LP  0  0  0  0  0  0  0  0  0  0  0  0  # atno 17343 bound_to 10162
  157.5083  131.0923  151.0230 LP  0  0  0  0  0  0  0  0  0  0  0  0  # atno 17370 bound_to 10713
  157.0592  130.5818  149.5383 LP  0  0  0  0  0  0  0  0  0  0  0  0  # atno 17371 bound_to 10713
  140.8050  133.8475  155.8760 LP  0  0  0  0  0  0  0  0  0  0  0  0  # atno 17394 bound_to 11000
  140.9558  134.1720  157.4693 LP  0  0  0  0  0  0  0  0  0  0  0  0  # atno 17395 bound_to 11000

$$$$
