AV-unprocessed.smi:3169|AV-procd|sdf|12105|dock3
  -GOLD-   2272017543D 1   1.00000     0.00000
 Structure written by MMmdl.
 35 36  0  0  0  0  0  0  0  0  1 V2000
  144.8733  137.4459  152.9460 O   0  0  0  0  0  0  0  0  0  0  0  0
  146.0592  137.1932  152.7334 C   0  0  0  0  0  0  0  0  0  0  0  0
  146.5525  135.9533  152.6160 N   0  0  0  0  0  0  0  0  0  0  0  0
  145.7637  134.7273  152.6867 C   0  0  0  0  0  0  0  0  0  0  0  0
  146.3688  133.5936  151.8379 C   0  0  0  0  0  0  0  0  0  0  0  0
  145.3790  132.9542  150.9914 N   0  0  0  0  0  0  0  0  0  0  0  0
  144.0285  133.2639  150.9003 C   0  0  0  0  0  0  0  0  0  0  0  0
  143.4872  132.3937  149.9811 C   0  0  0  0  0  0  0  0  0  0  0  0
  144.4802  131.5459  149.4963 N   0  0  0  0  0  0  0  0  0  0  0  0
  145.5727  131.9387  150.1385 C   0  0  0  0  0  0  0  0  0  0  0  0
  147.0141  138.1218  152.5878 N   0  0  0  0  0  0  0  0  0  0  0  0
  146.8093  139.5641  152.6682 C   0  0  0  0  0  0  0  0  0  0  0  0
  147.3787  140.1450  153.9730 C   0  0  2  0  0  0  0  0  0  0  0  0
  147.3054  141.6673  154.0926 C   0  0  0  0  0  0  0  0  0  0  0  0
  148.3947  141.9397  155.1041 C   0  0  0  0  0  0  0  0  0  0  0  0
  149.4611  140.9256  154.6974 C   0  0  0  0  0  0  0  0  0  0  0  0
  148.7657  139.8404  154.0867 O   0  0  0  0  0  0  0  0  0  0  0  0
  147.5422  135.8484  152.4463 H   0  0  0  0  0  0  0  0  0  0  0  0
  145.7006  134.4189  153.7306 H   0  0  0  0  0  0  0  0  0  0  0  0
  144.7409  134.9294  152.3647 H   0  0  0  0  0  0  0  0  0  0  0  0
  147.1576  133.9908  151.1982 H   0  0  0  0  0  0  0  0  0  0  0  0
  146.8345  132.8378  152.4720 H   0  0  0  0  0  0  0  0  0  0  0  0
  143.5772  134.0538  151.4824 H   0  0  0  0  0  0  0  0  0  0  0  0
  142.4674  132.3128  149.6350 H   0  0  0  0  0  0  0  0  0  0  0  0
  146.5359  131.4722  149.9905 H   0  0  0  0  0  0  0  0  0  0  0  0
  147.9577  137.8085  152.4136 H   0  0  0  0  0  0  0  0  0  0  0  0
  147.3187  140.0174  151.8175 H   0  0  0  0  0  0  0  0  0  0  0  0
  145.7538  139.8208  152.5625 H   0  0  0  0  0  0  0  0  0  0  0  0
  146.8761  139.6941  154.8303 H   0  0  0  0  0  0  0  0  0  0  0  0
  147.5517  142.1412  153.1412 H   0  0  0  0  0  0  0  0  0  0  0  0
  146.3260  142.0247  154.4112 H   0  0  0  0  0  0  0  0  0  0  0  0
  148.7538  142.9689  155.0849 H   0  0  0  0  0  0  0  0  0  0  0  0
  148.0322  141.7218  156.1096 H   0  0  0  0  0  0  0  0  0  0  0  0
  150.1390  141.3582  153.9607 H   0  0  0  0  0  0  0  0  0  0  0  0
  150.0557  140.5888  155.5469 H   0  0  0  0  0  0  0  0  0  0  0  0
  1  2  2  0  0  0  0
  2  3  1  0  0  0  0
  2 11  1  0  0  0  0
  3  4  1  0  0  0  0
  3 18  1  0  0  0  0
  4  5  1  0  0  0  0
  4 19  1  0  0  0  0
  4 20  1  0  0  0  0
  5  6  1  0  0  0  0
  5 21  1  0  0  0  0
  5 22  1  0  0  0  0
  6 10  1  0  0  0  0
  6  7  1  0  0  0  0
  7  8  2  0  0  0  0
  7 23  1  0  0  0  0
  8  9  1  0  0  0  0
  8 24  1  0  0  0  0
  9 10  2  0  0  0  0
 10 25  1  0  0  0  0
 11 12  1  0  0  0  0
 11 26  1  0  0  0  0
 12 13  1  0  0  0  0
 12 27  1  0  0  0  0
 12 28  1  0  0  0  0
 13 17  1  0  0  0  0
 13 14  1  0  0  0  0
 13 29  1  0  0  0  0
 14 15  1  0  0  0  0
 14 30  1  0  0  0  0
 14 31  1  0  0  0  0
 15 16  1  0  0  0  0
 15 32  1  0  0  0  0
 15 33  1  0  0  0  0
 16 17  1  0  0  0  0
 16 34  1  0  0  0  0
 16 35  1  0  0  0  0
M  END
> <s_m_source_file>
AV-unprocessed.smi

> <i_m_source_file_index>
3169

> <i_lp_mmshare_version>
43012

> <i_f3d_flags>
0

> <s_epik_input>
TzFbQ0gyXVtDSDJdW0NIMl1bQ0BIXTFbQ0gyXVtOSF1DKD1PKVtOSF1bQ0gyXVtDSDJdbjJbY0hdW2NIXW5bY0hdMg==

> <s_epik_cmdline>
J2VwaWtfcHl0aG9uJywgJy1waCcsICc3LjAnLCAnLXRuJywgJzgnLCAnLW1hJywgJzIwMCcsICctbWV0YWxfYmluZGluZycsICctaW1hZScsICc8aW5maWxlLm1hZT4nLCAnLW9tYWUnLCAnPG91dGZpbGUubWFlPic=

> <r_lp_tautomer_probability>
1

> <r_epik_Ionization_Penalty>
0.620462

> <r_epik_Ionization_Penalty_Charging>
0.620414

> <r_epik_Ionization_Penalty_Neutral>
4.72016e-05

> <r_epik_State_Penalty>
0.636391

> <r_epik_Charging_Adjusted_Penalty>
1.25681

> <i_epik_Tot_Q>
0

> <i_epik_Tot_abs_Q>
0

> <r_epik_Metal_State_Penalty>
0.306539

> <b_epik_Metal_Only>
0

> <s_lp_Force_Field>
OPLS_2005

> <r_lp_Energy>
16.7898

> <b_lp_Chiralities_Consistent>
1

> <s_lp_Variant>
AV-unprocessed.smi:3169-3

> <Gold.Version>
5.8.1

> <Gold.Id.Protein>
6NUR|6NUR_protein|mol2

> <Gold.PLP.Fitness>
42.1143

> <Gold.PLP.PLP>
-28.5097

> <Gold.PLP.part.hbond>
-2.9853

> <Gold.PLP.part.metal>
0.0000

> <Gold.PLP.part.buried>
-0.3054

> <Gold.PLP.part.nonpolar>
-27.0568

> <Gold.PLP.part.repulsive>
0.9541

> <Gold.PLP.ligand.clash>
0.0000

> <Gold.PLP.ligand.torsion>
0.6124

> <Gold.PLP.Chemscore.Hbond>
2.2288

> <Gold.PLP.Chemscore.CHOScore>
2.6994

> <Gold.PLP.Chemscore.Metal>
0.0000

> <Gold.Chemscore.Hbonds>
donor molecule, donor type, donor heavy atom, donor atom, acceptor molecule, acceptor atom, score
      L1  H     3    18       P1  7948  1.00
      L1  H    11    26       P1  7948  0.83
      P1  H 10785 10796       L1     9  0.37
      L1  C     8    24       P1 10186  0.75
      L1  C     8    24       P1 10952  0.94
      L1  C    10    25       P1 10747  1.00

> <Gold.PLP.Chemscore.Internal.Correction>
0.0447

> <Gold.Rescore>
     Score         DG    S(hbond)    S(metal)    S(lipo)     H(rot)  DE(clash)    DE(int)     intcor
     13.72     -15.89       2.73        0.00      60.11       2.25       1.57       0.60       ----

> <Gold.Chemscore.Fitness>
13.7170

> <Gold.Chemscore.DG>
-15.8891

> <Gold.Chemscore.ZeroCoef>
-5.4800

> <Gold.Chemscore.Hbond>
2.7334

> <Gold.Chemscore.Metal>
0.0000

> <Gold.Chemscore.Lipo>
60.1090

> <Gold.Chemscore.Internal_Hbond>
0.0000

> <Gold.Chemscore.DEClash>
1.5688

> <Gold.Chemscore.DEInternal>
0.6034

> <Gold.Chemscore.Rot>
2.2474

> <Gold.Chemscore.Internal.Correction>
   9.000000E+99

> <Gold.Chemscore.Hbonds>
donor molecule, donor type, donor heavy atom, donor atom, acceptor molecule, acceptor atom, score
      L1  H     3    18       P1  7948  0.95
      L1  H    11    26       P1  7948  0.83
      P1  H 10785 10796       L1     9  0.06

> <Gold.Chemscore.Hbond.Weighted>
-9.1296

> <Gold.Chemscore.Metal.Weighted>
-0.0000

> <Gold.Chemscore.Lipo.Weighted>
-7.0328

> <Gold.Chemscore.Internal_Hbond.Weighted>
0.0000

> <Gold.Chemscore.DEClash.Weighted>
1.5688

> <Gold.Chemscore.DEInternal.Weighted>
0.6034

> <Gold.Chemscore.Rot.Weighted>
5.7532

> <Gold.Chemscore.Internal.Correction.Weighted>
   9.000000E+99

> <Gold.Protein.RotatedTorsions>
[ 6907 6896 6895 6894 ] final   19.03 input  -60.11 | X-H torsion
[ 7974 7965 7964 7962 ] final  -32.06 input  175.53 | X-H torsion
[ 8008 7997 7996 7995 ] final -178.81 input   59.86 | X-H torsion
[ 10167 10162 10161 10158 ] final  -57.26 input  -65.29 | X-H torsion
[ 10718 10713 10712 10709 ] final  162.75 input   66.30 | X-H torsion
[ 10763 10752 10751 10750 ] final   88.06 input  -60.55 | X-H torsion
[ 11005 11000 10999 10996 ] final  -76.13 input  -57.11 | X-H torsion

> <Gold.Protein.ActiveResidues>
 VAL166  LYS551  ARG553  GLY616  TRP617  ASP618  TYR619  PRO620  LYS621  CYS622 
 ASP623  PHE694  ASN695  SER759  ASP760  ASP761  ALA762  ILE779  LEU786  VAL792 
 PHE793  MET794  SER795  GLU796  ALA797  LYS798  CYS799  TRP800  GLU811  SER814 

> <Gold.Protein.RotatedAtoms>
  151.8745  135.0477  160.0482 H   0  0  0  0  0  0  0  0  0  0  0  0  # atno 6907 bound_to 6896
  152.2562  133.5253  159.5363 H   0  0  0  0  0  0  0  0  0  0  0  0  # atno 6908 bound_to 6896
  150.7100  134.0809  159.3940 H   0  0  0  0  0  0  0  0  0  0  0  0  # atno 6909 bound_to 6896
  146.1019  140.5745  142.8817 H   0  0  0  0  0  0  0  0  0  0  0  0  # atno 7974 bound_to 7965
  156.0232  140.1265  157.0336 H   0  0  0  0  0  0  0  0  0  0  0  0  # atno 8008 bound_to 7997
  154.4320  140.1064  156.6063 H   0  0  0  0  0  0  0  0  0  0  0  0  # atno 8009 bound_to 7997
  155.5915  140.3469  155.4570 H   0  0  0  0  0  0  0  0  0  0  0  0  # atno 8010 bound_to 7997
  140.6268  143.2442  151.5342 H   0  0  0  0  0  0  0  0  0  0  0  0  # atno 10167 bound_to 10162
  157.1181  131.0485  151.2427 H   0  0  0  0  0  0  0  0  0  0  0  0  # atno 10718 bound_to 10713
  153.1731  135.4520  154.9929 H   0  0  0  0  0  0  0  0  0  0  0  0  # atno 10763 bound_to 10752
  154.7979  135.3244  154.7624 H   0  0  0  0  0  0  0  0  0  0  0  0  # atno 10764 bound_to 10752
  153.8097  135.6956  153.4897 H   0  0  0  0  0  0  0  0  0  0  0  0  # atno 10765 bound_to 10752
  141.1651  133.6972  156.7622 H   0  0  0  0  0  0  0  0  0  0  0  0  # atno 11005 bound_to 11000
  144.7440  140.5017  143.6849 LP  0  0  0  0  0  0  0  0  0  0  0  0  # atno 17320 bound_to 7965
  145.5837  139.1490  143.3221 LP  0  0  0  0  0  0  0  0  0  0  0  0  # atno 17321 bound_to 7965
  139.5487  144.2451  152.1491 LP  0  0  0  0  0  0  0  0  0  0  0  0  # atno 17342 bound_to 10162
  140.1685  144.4958  150.6593 LP  0  0  0  0  0  0  0  0  0  0  0  0  # atno 17343 bound_to 10162
  157.4500  130.7593  149.7143 LP  0  0  0  0  0  0  0  0  0  0  0  0  # atno 17370 bound_to 10713
  155.9835  130.4000  150.3362 LP  0  0  0  0  0  0  0  0  0  0  0  0  # atno 17371 bound_to 10713
  140.2525  134.8529  157.3681 LP  0  0  0  0  0  0  0  0  0  0  0  0  # atno 17394 bound_to 11000
  140.1688  134.4634  155.7845 LP  0  0  0  0  0  0  0  0  0  0  0  0  # atno 17395 bound_to 11000

$$$$
