AV-unprocessed.smi:2122|AV-procd|sdf|8646|dock4
  -GOLD-   2272011393D 1   1.00000     0.00000
 Structure written by MMmdl.
 41 41  0  0  0  0  0  0  0  0  1 V2000
  152.0064  145.1710  159.3882 C   0  0  0  0  0  0  0  0  0  0  0  0
  151.8909  144.1765  158.2279 C   0  0  0  0  0  0  0  0  0  0  0  0
  151.6563  142.7377  158.7067 C   0  0  0  0  0  0  0  0  0  0  0  0
  151.1148  141.8303  157.5888 C   0  0  0  0  0  0  0  0  0  0  0  0
  150.9361  140.4588  158.0214 N   0  0  0  0  0  0  0  0  0  0  0  0
  149.7302  139.7605  157.9116 C   0  0  0  0  0  0  0  0  0  0  0  0
  148.6423  140.4089  157.3476 N   0  0  0  0  0  0  0  0  0  0  0  0
  149.6067  138.4640  158.3180 C   0  0  0  0  0  0  0  0  0  0  0  0
  148.4109  137.7541  158.2215 N   0  0  0  0  0  0  0  0  0  0  0  0
  147.2254  138.3936  157.6686 C   0  0  0  0  0  0  0  0  0  0  0  0
  148.1602  136.4853  158.9051 C   0  0  0  0  0  0  0  0  0  0  0  0
  147.1777  136.6000  160.0827 C   0  0  0  0  0  0  0  0  0  0  0  0
  147.9113  136.8688  161.2654 O   0  0  0  0  0  0  0  0  0  0  0  0
  147.2213  136.4636  162.4346 C   0  0  0  0  0  0  0  0  0  0  0  0
  150.7539  137.7559  158.9008 C   0  0  0  0  0  0  0  0  0  0  0  0
  150.7472  136.5994  159.3210 O   0  0  0  0  0  0  0  0  0  0  0  0
  151.9322  138.4960  158.9609 N   0  0  0  0  0  0  0  0  0  0  0  0
  152.0840  139.8116  158.5376 C   0  0  0  0  0  0  0  0  0  0  0  0
  153.1877  140.3512  158.6248 O   0  0  0  0  0  0  0  0  0  0  0  0
  152.7467  138.0361  159.3410 H   0  0  0  0  0  0  0  0  0  0  0  0
  152.1756  146.1823  159.0183 H   0  0  0  0  0  0  0  0  0  0  0  0
  152.8368  144.9134  160.0458 H   0  0  0  0  0  0  0  0  0  0  0  0
  151.0956  145.1838  159.9876 H   0  0  0  0  0  0  0  0  0  0  0  0
  151.0740  144.4819  157.5730 H   0  0  0  0  0  0  0  0  0  0  0  0
  152.8000  144.2177  157.6271 H   0  0  0  0  0  0  0  0  0  0  0  0
  152.5913  142.3256  159.0886 H   0  0  0  0  0  0  0  0  0  0  0  0
  150.9585  142.7463  159.5448 H   0  0  0  0  0  0  0  0  0  0  0  0
  150.1615  142.1868  157.1947 H   0  0  0  0  0  0  0  0  0  0  0  0
  151.7854  141.8106  156.7304 H   0  0  0  0  0  0  0  0  0  0  0  0
  148.7078  141.3622  157.0207 H   0  0  0  0  0  0  0  0  0  0  0  0
  147.7458  139.9568  157.2407 H   0  0  0  0  0  0  0  0  0  0  0  0
  147.4607  139.3728  157.2491 H   0  0  0  0  0  0  0  0  0  0  0  0
  146.4699  138.5321  158.4427 H   0  0  0  0  0  0  0  0  0  0  0  0
  146.7977  137.7824  156.8735 H   0  0  0  0  0  0  0  0  0  0  0  0
  147.7844  135.7625  158.1798 H   0  0  0  0  0  0  0  0  0  0  0  0
  149.1072  136.0889  159.2747 H   0  0  0  0  0  0  0  0  0  0  0  0
  146.4649  137.4055  159.8973 H   0  0  0  0  0  0  0  0  0  0  0  0
  146.6108  135.6762  160.2068 H   0  0  0  0  0  0  0  0  0  0  0  0
  147.8252  136.6890  163.3134 H   0  0  0  0  0  0  0  0  0  0  0  0
  147.0270  135.3902  162.4266 H   0  0  0  0  0  0  0  0  0  0  0  0
  146.2717  136.9911  162.5345 H   0  0  0  0  0  0  0  0  0  0  0  0
  1  2  1  0  0  0  0
  1 21  1  0  0  0  0
  1 22  1  0  0  0  0
  1 23  1  0  0  0  0
  2  3  1  0  0  0  0
  2 24  1  0  0  0  0
  2 25  1  0  0  0  0
  3  4  1  0  0  0  0
  3 26  1  0  0  0  0
  3 27  1  0  0  0  0
  4  5  1  0  0  0  0
  4 28  1  0  0  0  0
  4 29  1  0  0  0  0
  5 18  1  0  0  0  0
  5  6  1  0  0  0  0
  6  7  1  0  0  0  0
  6  8  2  0  0  0  0
  7 30  1  0  0  0  0
  7 31  1  0  0  0  0
  8  9  1  0  0  0  0
  8 15  1  0  0  0  0
  9 10  1  0  0  0  0
  9 11  1  0  0  0  0
 10 32  1  0  0  0  0
 10 33  1  0  0  0  0
 10 34  1  0  0  0  0
 11 12  1  0  0  0  0
 11 35  1  0  0  0  0
 11 36  1  0  0  0  0
 12 13  1  0  0  0  0
 12 37  1  0  0  0  0
 12 38  1  0  0  0  0
 13 14  1  0  0  0  0
 14 39  1  0  0  0  0
 14 40  1  0  0  0  0
 14 41  1  0  0  0  0
 15 16  2  0  0  0  0
 15 17  1  0  0  0  0
 17 20  1  0  0  0  0
 17 18  1  0  0  0  0
 18 19  2  0  0  0  0
M  END
> <s_m_source_file>
AV-unprocessed.smi

> <i_m_source_file_index>
2122

> <i_lp_mmshare_version>
43012

> <i_f3d_flags>
0

> <s_epik_input>
W0NIM11bQ0gyXVtDSDJdW0NIMl1uMWMoW05IMl0pYyhjKD1PKVtuSF1jMT1PKU4oW0NIM10pW0NIMl1bQ0gyXU9bQ0gzXQ==

> <s_epik_cmdline>
J2VwaWtfcHl0aG9uJywgJy1waCcsICc3LjAnLCAnLXRuJywgJzgnLCAnLW1hJywgJzIwMCcsICctbWV0YWxfYmluZGluZycsICctaW1hZScsICc8aW5maWxlLm1hZT4nLCAnLW9tYWUnLCAnPG91dGZpbGUubWFlPic=

> <r_lp_tautomer_probability>
1

> <r_epik_Ionization_Penalty>
2.26322e-05

> <r_epik_Ionization_Penalty_Charging>
2.75876e-06

> <r_epik_Ionization_Penalty_Neutral>
1.98734e-05

> <r_epik_State_Penalty>
-0

> <r_epik_Charging_Adjusted_Penalty>
2.75876e-06

> <i_epik_Tot_Q>
0

> <i_epik_Tot_abs_Q>
0

> <r_epik_Metal_State_Penalty>
-0

> <b_epik_Metal_Only>
0

> <s_epik_Chemistry_Notes>
This compound has an imine and may undergo hydrolysis.

> <s_lp_Force_Field>
OPLS_2005

> <r_lp_Energy>
20.5532

> <b_lp_Chiralities_Consistent>
1

> <s_lp_Variant>
AV-unprocessed.smi:2122-1

> <Gold.Version>
5.8.1

> <Gold.Id.Protein>
6NUR|6NUR_protein|mol2

> <Gold.PLP.Fitness>
41.8930

> <Gold.PLP.PLP>
-34.1532

> <Gold.PLP.part.hbond>
-3.4144

> <Gold.PLP.part.metal>
0.0000

> <Gold.PLP.part.buried>
-4.1608

> <Gold.PLP.part.nonpolar>
-26.7800

> <Gold.PLP.part.repulsive>
0.2177

> <Gold.PLP.ligand.clash>
20.2349

> <Gold.PLP.ligand.torsion>
0.5263

> <Gold.PLP.Chemscore.Hbond>
2.8640

> <Gold.PLP.Chemscore.CHOScore>
0.0000

> <Gold.PLP.Chemscore.Metal>
0.0000

> <Gold.Chemscore.Hbonds>
donor molecule, donor type, donor heavy atom, donor atom, acceptor molecule, acceptor atom, score
      P1  H  6896  6909       L1    16  1.00
      P1  H  6931  6943       L1    13  1.00
      P1  H  6934  6947       L1    13  0.05
      P1  H  7997  8010       L1    19  0.64

> <Gold.PLP.Chemscore.Internal.Correction>
20.4353

> <Gold.Rescore>
     Score         DG    S(hbond)    S(metal)    S(lipo)     H(rot)  DE(clash)    DE(int)     intcor
     12.44     -17.21       2.83        0.00      66.76       2.16       0.08       4.68       ----

> <Gold.Chemscore.Fitness>
12.4436

> <Gold.Chemscore.DG>
-17.2067

> <Gold.Chemscore.ZeroCoef>
-5.4800

> <Gold.Chemscore.Hbond>
2.8262

> <Gold.Chemscore.Metal>
0.0000

> <Gold.Chemscore.Lipo>
66.7642

> <Gold.Chemscore.Internal_Hbond>
0.0000

> <Gold.Chemscore.DEClash>
0.0846

> <Gold.Chemscore.DEInternal>
4.6785

> <Gold.Chemscore.Rot>
2.1579

> <Gold.Chemscore.Internal.Correction>
   9.000000E+99

> <Gold.Chemscore.Hbonds>
donor molecule, donor type, donor heavy atom, donor atom, acceptor molecule, acceptor atom, score
      P1  H  6896  6909       L1    16  0.98
      P1  H  6931  6943       L1    13  0.39
      P1  H  7997  8010       L1    19  0.62

> <Gold.Chemscore.Hbond.Weighted>
-9.4394

> <Gold.Chemscore.Metal.Weighted>
-0.0000

> <Gold.Chemscore.Lipo.Weighted>
-7.8114

> <Gold.Chemscore.Internal_Hbond.Weighted>
0.0000

> <Gold.Chemscore.DEClash.Weighted>
0.0846

> <Gold.Chemscore.DEInternal.Weighted>
4.6785

> <Gold.Chemscore.Rot.Weighted>
5.5241

> <Gold.Chemscore.Internal.Correction.Weighted>
   9.000000E+99

> <Gold.Protein.RotatedTorsions>
[ 6907 6896 6895 6894 ] final  108.83 input  -60.11 | X-H torsion
[ 7974 7965 7964 7962 ] final   52.72 input  175.53 | X-H torsion
[ 8008 7997 7996 7995 ] final   27.84 input   59.86 | X-H torsion
[ 10167 10162 10161 10158 ] final   67.12 input  -65.29 | X-H torsion
[ 10718 10713 10712 10709 ] final -174.53 input   66.30 | X-H torsion
[ 10763 10752 10751 10750 ] final -117.57 input  -60.55 | X-H torsion
[ 11005 11000 10999 10996 ] final   49.49 input  -57.11 | X-H torsion

> <Gold.Protein.ActiveResidues>
 VAL166  LYS551  ARG553  GLY616  TRP617  ASP618  TYR619  PRO620  LYS621  CYS622 
 ASP623  PHE694  ASN695  SER759  ASP760  ASP761  ALA762  ILE779  LEU786  VAL792 
 PHE793  MET794  SER795  GLU796  ALA797  LYS798  CYS799  TRP800  GLU811  SER814 

> <Gold.Protein.RotatedAtoms>
  152.5094  133.9031  159.7450 H   0  0  0  0  0  0  0  0  0  0  0  0  # atno 6907 bound_to 6896
  150.9442  133.6613  159.2791 H   0  0  0  0  0  0  0  0  0  0  0  0  # atno 6908 bound_to 6896
  151.3914  135.0961  159.9580 H   0  0  0  0  0  0  0  0  0  0  0  0  # atno 6909 bound_to 6896
  145.9784  139.4218  143.0147 H   0  0  0  0  0  0  0  0  0  0  0  0  # atno 7974 bound_to 7965
  155.0493  140.3178  155.4697 H   0  0  0  0  0  0  0  0  0  0  0  0  # atno 8008 bound_to 7997
  156.2838  140.2149  156.5562 H   0  0  0  0  0  0  0  0  0  0  0  0  # atno 8009 bound_to 7997
  154.7224  140.0488  157.0639 H   0  0  0  0  0  0  0  0  0  0  0  0  # atno 8010 bound_to 7997
  140.0930  144.4971  150.7086 H   0  0  0  0  0  0  0  0  0  0  0  0  # atno 10167 bound_to 10162
  156.7865  130.9502  151.3120 H   0  0  0  0  0  0  0  0  0  0  0  0  # atno 10718 bound_to 10713
  154.8559  135.4305  154.2000 H   0  0  0  0  0  0  0  0  0  0  0  0  # atno 10763 bound_to 10752
  153.3049  135.6971  153.7175 H   0  0  0  0  0  0  0  0  0  0  0  0  # atno 10764 bound_to 10752
  153.6290  135.3488  155.3010 H   0  0  0  0  0  0  0  0  0  0  0  0  # atno 10765 bound_to 10752
  140.1099  134.4968  155.8687 H   0  0  0  0  0  0  0  0  0  0  0  0  # atno 11005 bound_to 11000
  145.7805  140.9858  143.1102 LP  0  0  0  0  0  0  0  0  0  0  0  0  # atno 17320 bound_to 7965
  144.6855  139.9558  143.7479 LP  0  0  0  0  0  0  0  0  0  0  0  0  # atno 17321 bound_to 7965
  140.7018  143.2440  151.4841 LP  0  0  0  0  0  0  0  0  0  0  0  0  # atno 17342 bound_to 10162
  139.5714  144.1920  152.1841 LP  0  0  0  0  0  0  0  0  0  0  0  0  # atno 17343 bound_to 10162
  157.6621  130.8975  149.9853 LP  0  0  0  0  0  0  0  0  0  0  0  0  # atno 17370 bound_to 10713
  156.1185  130.3647  149.9927 LP  0  0  0  0  0  0  0  0  0  0  0  0  # atno 17371 bound_to 10713
  141.2127  133.6724  156.6685 LP  0  0  0  0  0  0  0  0  0  0  0  0  # atno 17394 bound_to 11000
  140.3105  134.8090  157.4172 LP  0  0  0  0  0  0  0  0  0  0  0  0  # atno 17395 bound_to 11000

$$$$
