AV-unprocessed.smi:2533|AV-procd|sdf|9972|dock10
  -GOLD-   2272014 23D 1   1.00000     0.00000
 Structure written by MMmdl.
 35 36  0  0  0  0  0  0  0  0  1 V2000
  152.3865  144.8615  158.4040 C   0  0  0  0  0  0  0  0  0  0  0  0
  153.0891  143.6907  158.7944 O   0  0  0  0  0  0  0  0  0  0  0  0
  152.4924  142.4686  158.5666 C   0  0  0  0  0  0  0  0  0  0  0  0
  151.2547  142.3021  157.8957 C   0  0  0  0  0  0  0  0  0  0  0  0
  150.7108  141.0170  157.7089 C   0  0  0  0  0  0  0  0  0  0  0  0
  151.3910  139.8778  158.1869 C   0  0  0  0  0  0  0  0  0  0  0  0
  150.7903  138.4889  158.0198 C   0  0  2  0  0  0  0  0  0  0  0  0
  150.4848  138.1951  156.6718 O   0  0  0  0  0  0  0  0  0  0  0  0
  149.5166  138.2754  158.8689 C   0  0  0  0  0  0  0  0  0  0  0  0
  149.4075  136.9043  159.3879 N   0  0  0  0  0  0  0  0  0  0  0  0
  149.1131  136.8454  160.7394 N   0  0  0  0  0  0  0  0  0  0  0  0
  148.9602  135.7135  161.3477 C   0  0  0  0  0  0  0  0  0  0  0  0
  148.6308  135.7550  162.8194 C   0  0  0  0  0  0  0  0  0  0  0  0
  148.5201  134.5250  163.3219 F   0  0  0  0  0  0  0  0  0  0  0  0
  149.5891  136.3999  163.4855 F   0  0  0  0  0  0  0  0  0  0  0  0
  147.4778  136.3961  163.0116 F   0  0  0  0  0  0  0  0  0  0  0  0
  149.1101  134.4810  160.5930 C   0  0  0  0  0  0  0  0  0  0  0  0
  149.3964  134.5398  159.2750 C   0  0  0  0  0  0  0  0  0  0  0  0
  149.5604  135.8136  158.5795 C   0  0  0  0  0  0  0  0  0  0  0  0
  149.8031  135.8943  157.3758 O   0  0  0  0  0  0  0  0  0  0  0  0
  152.6234  140.0390  158.8520 C   0  0  0  0  0  0  0  0  0  0  0  0
  153.1675  141.3237  159.0397 C   0  0  0  0  0  0  0  0  0  0  0  0
  154.3503  141.4571  159.6861 F   0  0  0  0  0  0  0  0  0  0  0  0
  152.9809  145.7396  158.6564 H   0  0  0  0  0  0  0  0  0  0  0  0
  151.4335  144.9481  158.9276 H   0  0  0  0  0  0  0  0  0  0  0  0
  152.2111  144.8806  157.3277 H   0  0  0  0  0  0  0  0  0  0  0  0
  150.6988  143.1465  157.5176 H   0  0  0  0  0  0  0  0  0  0  0  0
  149.7608  140.9094  157.2059 H   0  0  0  0  0  0  0  0  0  0  0  0
  151.5383  137.7572  158.3281 H   0  0  0  0  0  0  0  0  0  0  0  0
  149.8802  137.4691  156.6536 H   0  0  0  0  0  0  0  0  0  0  0  0
  149.4880  139.0069  159.6783 H   0  0  0  0  0  0  0  0  0  0  0  0
  148.6345  138.4914  158.2633 H   0  0  0  0  0  0  0  0  0  0  0  0
  148.9924  133.5269  161.0850 H   0  0  0  0  0  0  0  0  0  0  0  0
  149.5062  133.6211  158.7177 H   0  0  0  0  0  0  0  0  0  0  0  0
  153.1522  139.1772  159.2321 H   0  0  0  0  0  0  0  0  0  0  0  0
  1  2  1  0  0  0  0
  1 24  1  0  0  0  0
  1 25  1  0  0  0  0
  1 26  1  0  0  0  0
  2  3  1  0  0  0  0
  3 22  1  0  0  0  0
  3  4  2  0  0  0  0
  4  5  1  0  0  0  0
  4 27  1  0  0  0  0
  5  6  2  0  0  0  0
  5 28  1  0  0  0  0
  6  7  1  0  0  0  0
  6 21  1  0  0  0  0
  7  8  1  0  0  0  0
  7  9  1  0  0  0  0
  7 29  1  0  0  0  0
  8 30  1  0  0  0  0
  9 10  1  0  0  0  0
  9 31  1  0  0  0  0
  9 32  1  0  0  0  0
 10 19  1  0  0  0  0
 10 11  1  0  0  0  0
 11 12  2  0  0  0  0
 12 13  1  0  0  0  0
 12 17  1  0  0  0  0
 13 14  1  0  0  0  0
 13 15  1  0  0  0  0
 13 16  1  0  0  0  0
 17 18  2  0  0  0  0
 17 33  1  0  0  0  0
 18 19  1  0  0  0  0
 18 34  1  0  0  0  0
 19 20  2  0  0  0  0
 21 22  2  0  0  0  0
 21 35  1  0  0  0  0
 22 23  1  0  0  0  0
M  END
> <s_m_source_file>
AV-unprocessed.smi

> <i_m_source_file_index>
2533

> <i_lp_mmshare_version>
43012

> <i_f3d_flags>
0

> <s_epik_input>
W0NIM11PYzFbY0hdW2NIXWMoW2NIXWMxRilbQ0BIXShbT0hdKVtDSDJdbjJuYyhDKEYpKEYpRilbY0hdW2NIXWMyPU8=

> <s_epik_cmdline>
J2VwaWtfcHl0aG9uJywgJy1waCcsICc3LjAnLCAnLXRuJywgJzgnLCAnLW1hJywgJzIwMCcsICctbWV0YWxfYmluZGluZycsICctaW1hZScsICc8aW5maWxlLm1hZT4nLCAnLW9tYWUnLCAnPG91dGZpbGUubWFlPic=

> <r_lp_tautomer_probability>
1

> <r_epik_Ionization_Penalty>
5.00966e-08

> <r_epik_Ionization_Penalty_Charging>
3.92872e-09

> <r_epik_Ionization_Penalty_Neutral>
4.61679e-08

> <r_epik_State_Penalty>
-0

> <r_epik_Charging_Adjusted_Penalty>
3.92872e-09

> <i_epik_Tot_Q>
0

> <i_epik_Tot_abs_Q>
0

> <r_epik_Metal_State_Penalty>
-0

> <b_epik_Metal_Only>
0

> <s_lp_Force_Field>
OPLS_2005

> <r_lp_Energy>
31.2936

> <b_lp_Chiralities_Consistent>
1

> <s_lp_Variant>
AV-unprocessed.smi:2533-1

> <Gold.Version>
5.8.1

> <Gold.Id.Protein>
6NUR|6NUR_protein|mol2

> <Gold.PLP.Fitness>
48.1735

> <Gold.PLP.PLP>
-45.7595

> <Gold.PLP.part.hbond>
-2.0000

> <Gold.PLP.part.metal>
0.0000

> <Gold.PLP.part.buried>
-3.2319

> <Gold.PLP.part.nonpolar>
-40.3547

> <Gold.PLP.part.repulsive>
0.0000

> <Gold.PLP.ligand.clash>
0.0000

> <Gold.PLP.ligand.torsion>
0.6616

> <Gold.PLP.Chemscore.Hbond>
1.2340

> <Gold.PLP.Chemscore.CHOScore>
0.0000

> <Gold.PLP.Chemscore.Metal>
0.0000

> <Gold.Chemscore.Hbonds>
donor molecule, donor type, donor heavy atom, donor atom, acceptor molecule, acceptor atom, score
      P1  H  6931  6943       L1    11  0.80

> <Gold.PLP.Chemscore.Internal.Correction>
0.0352

> <Gold.Rescore>
     Score         DG    S(hbond)    S(metal)    S(lipo)     H(rot)  DE(clash)    DE(int)     intcor
      7.60     -12.06       0.84        0.00      87.00       2.50       0.15       4.32       ----

> <Gold.Chemscore.Fitness>
7.5992

> <Gold.Chemscore.DG>
-12.0634

> <Gold.Chemscore.ZeroCoef>
-5.4800

> <Gold.Chemscore.Hbond>
0.8420

> <Gold.Chemscore.Metal>
0.0000

> <Gold.Chemscore.Lipo>
86.9992

> <Gold.Chemscore.Internal_Hbond>
0.0000

> <Gold.Chemscore.DEClash>
0.1471

> <Gold.Chemscore.DEInternal>
4.3172

> <Gold.Chemscore.Rot>
2.5031

> <Gold.Chemscore.Internal.Correction>
   9.000000E+99

> <Gold.Chemscore.Hbonds>
donor molecule, donor type, donor heavy atom, donor atom, acceptor molecule, acceptor atom, score
      P1  H  6931  6943       L1    11  0.65

> <Gold.Chemscore.Hbond.Weighted>
-2.8124

> <Gold.Chemscore.Metal.Weighted>
-0.0000

> <Gold.Chemscore.Lipo.Weighted>
-10.1789

> <Gold.Chemscore.Internal_Hbond.Weighted>
0.0000

> <Gold.Chemscore.DEClash.Weighted>
0.1471

> <Gold.Chemscore.DEInternal.Weighted>
4.3172

> <Gold.Chemscore.Rot.Weighted>
6.4079

> <Gold.Chemscore.Internal.Correction.Weighted>
   9.000000E+99

> <Gold.Protein.RotatedTorsions>
[ 6907 6896 6895 6894 ] final  -99.57 input  -60.11 | X-H torsion
[ 7974 7965 7964 7962 ] final   87.13 input  175.53 | X-H torsion
[ 8008 7997 7996 7995 ] final  170.93 input   59.86 | X-H torsion
[ 10167 10162 10161 10158 ] final -111.94 input  -65.29 | X-H torsion
[ 10718 10713 10712 10709 ] final -167.97 input   66.30 | X-H torsion
[ 10763 10752 10751 10750 ] final -118.91 input  -60.55 | X-H torsion
[ 11005 11000 10999 10996 ] final  130.72 input  -57.11 | X-H torsion

> <Gold.Protein.ActiveResidues>
 VAL166  LYS551  ARG553  GLY616  TRP617  ASP618  TYR619  PRO620  LYS621  CYS622 
 ASP623  PHE694  ASN695  SER759  ASP760  ASP761  ALA762  ILE779  LEU786  VAL792 
 PHE793  MET794  SER795  GLU796  ALA797  LYS798  CYS799  TRP800  GLU811  SER814 

> <Gold.Protein.RotatedAtoms>
  150.7085  134.1020  159.3968 H   0  0  0  0  0  0  0  0  0  0  0  0  # atno 6907 bound_to 6896
  151.9006  135.0377  160.0515 H   0  0  0  0  0  0  0  0  0  0  0  0  # atno 6908 bound_to 6896
  152.2417  133.5105  159.5310 H   0  0  0  0  0  0  0  0  0  0  0  0  # atno 6909 bound_to 6896
  145.5630  139.2306  143.2448 H   0  0  0  0  0  0  0  0  0  0  0  0  # atno 7974 bound_to 7965
  156.1319  140.1525  156.9052 H   0  0  0  0  0  0  0  0  0  0  0  0  # atno 8008 bound_to 7997
  154.4916  140.0850  156.7646 H   0  0  0  0  0  0  0  0  0  0  0  0  # atno 8009 bound_to 7997
  155.4240  140.3424  155.4276 H   0  0  0  0  0  0  0  0  0  0  0  0  # atno 8010 bound_to 7997
  140.1281  143.4384  152.1646 H   0  0  0  0  0  0  0  0  0  0  0  0  # atno 10167 bound_to 10162
  156.6901  130.9156  151.3068 H   0  0  0  0  0  0  0  0  0  0  0  0  # atno 10718 bound_to 10713
  154.8602  135.4257  154.2215 H   0  0  0  0  0  0  0  0  0  0  0  0  # atno 10763 bound_to 10752
  153.3219  135.6982  153.7029 H   0  0  0  0  0  0  0  0  0  0  0  0  # atno 10764 bound_to 10752
  153.6080  135.3524  155.2942 H   0  0  0  0  0  0  0  0  0  0  0  0  # atno 10765 bound_to 10752
  139.9688  134.9583  156.9335 H   0  0  0  0  0  0  0  0  0  0  0  0  # atno 11005 bound_to 11000
  146.1838  140.6455  142.9177 LP  0  0  0  0  0  0  0  0  0  0  0  0  # atno 17320 bound_to 7965
  144.7474  140.5102  143.6826 LP  0  0  0  0  0  0  0  0  0  0  0  0  # atno 17321 bound_to 7965
  139.5533  144.7354  151.4368 LP  0  0  0  0  0  0  0  0  0  0  0  0  # atno 17342 bound_to 10162
  140.6833  143.8032  150.7151 LP  0  0  0  0  0  0  0  0  0  0  0  0  # atno 17343 bound_to 10162
  157.7012  130.9335  150.0791 LP  0  0  0  0  0  0  0  0  0  0  0  0  # atno 17370 bound_to 10713
  156.1804  130.3650  149.9043 LP  0  0  0  0  0  0  0  0  0  0  0  0  # atno 17371 bound_to 10713
  140.5337  134.0788  155.7322 LP  0  0  0  0  0  0  0  0  0  0  0  0  # atno 17394 bound_to 11000
  141.1368  133.9207  157.2415 LP  0  0  0  0  0  0  0  0  0  0  0  0  # atno 17395 bound_to 11000

$$$$
