AV-unprocessed.smi:447|AV-procd|sdf|2597|dock3
  -GOLD-   2262022593D 1   1.00000     0.00000
 Structure written by MMmdl.
 45 47  0  0  0  0  0  0  0  0  1 V2000
  153.3481  136.6008  157.8560 C   0  0  0  0  0  0  0  0  0  0  0  0
  151.8937  136.6444  157.4004 C   0  0  0  0  0  0  0  0  0  0  0  0
  151.5844  136.2262  156.2857 O   0  0  0  0  0  0  0  0  0  0  0  0
  151.0141  137.1530  158.2768 N   0  0  0  0  0  0  0  0  0  0  0  0
  149.5715  137.2764  158.0643 C   0  0  2  0  0  0  0  0  0  0  0  0
  149.1859  138.7607  158.0085 C   0  0  0  0  0  0  0  0  0  0  0  0
  148.8364  136.5477  159.1644 C   0  0  0  0  0  0  0  0  0  0  0  0
  148.8442  136.9670  160.4341 N   0  0  0  0  0  0  0  0  0  0  0  0
  148.0514  136.0360  161.0733 C   0  0  0  0  0  0  0  0  0  0  0  0
  147.6843  135.9209  162.4333 C   0  0  0  0  0  0  0  0  0  0  0  0
  146.8456  134.8701  162.8593 C   0  0  0  0  0  0  0  0  0  0  0  0
  146.3616  133.9233  161.9333 C   0  0  0  0  0  0  0  0  0  0  0  0
  146.7142  134.0218  160.5735 C   0  0  0  0  0  0  0  0  0  0  0  0
  147.5542  135.0709  160.1545 C   0  0  0  0  0  0  0  0  0  0  0  0
  148.0762  135.4470  158.9212 N   0  0  0  0  0  0  0  0  0  0  0  0
  147.8203  134.7714  157.6548 C   0  0  0  0  0  0  0  0  0  0  0  0
  148.5822  133.4379  157.5232 C   0  0  2  0  0  0  0  0  0  0  0  0
  149.9001  133.5796  158.0143 O   0  0  0  0  0  0  0  0  0  0  0  0
  148.5556  132.9288  156.0907 C   0  0  0  0  0  0  0  0  0  0  0  0
  147.8842  131.7263  155.7810 C   0  0  0  0  0  0  0  0  0  0  0  0
  147.8497  131.2540  154.4543 C   0  0  0  0  0  0  0  0  0  0  0  0
  148.4845  131.9822  153.4298 C   0  0  0  0  0  0  0  0  0  0  0  0
  149.1521  133.1846  153.7319 C   0  0  0  0  0  0  0  0  0  0  0  0
  149.1865  133.6575  155.0581 C   0  0  0  0  0  0  0  0  0  0  0  0
  153.4278  136.1407  158.8416 H   0  0  0  0  0  0  0  0  0  0  0  0
  153.7591  137.6094  157.9095 H   0  0  0  0  0  0  0  0  0  0  0  0
  153.9550  136.0205  157.1599 H   0  0  0  0  0  0  0  0  0  0  0  0
  151.3660  137.4616  159.1713 H   0  0  0  0  0  0  0  0  0  0  0  0
  149.3349  136.8224  157.1017 H   0  0  0  0  0  0  0  0  0  0  0  0
  148.1173  138.8811  157.8282 H   0  0  0  0  0  0  0  0  0  0  0  0
  149.7150  139.2738  157.2051 H   0  0  0  0  0  0  0  0  0  0  0  0
  149.4235  139.2687  158.9439 H   0  0  0  0  0  0  0  0  0  0  0  0
  148.0491  136.6421  163.1495 H   0  0  0  0  0  0  0  0  0  0  0  0
  146.5717  134.7912  163.9012 H   0  0  0  0  0  0  0  0  0  0  0  0
  145.7190  133.1219  162.2676 H   0  0  0  0  0  0  0  0  0  0  0  0
  146.3449  133.2989  159.8614 H   0  0  0  0  0  0  0  0  0  0  0  0
  146.7474  134.5866  157.5871 H   0  0  0  0  0  0  0  0  0  0  0  0
  148.0547  135.4379  156.8256 H   0  0  0  0  0  0  0  0  0  0  0  0
  148.0973  132.6944  158.1573 H   0  0  0  0  0  0  0  0  0  0  0  0
  150.4042  134.0729  157.3855 H   0  0  0  0  0  0  0  0  0  0  0  0
  147.3922  131.1619  156.5596 H   0  0  0  0  0  0  0  0  0  0  0  0
  147.3352  130.3330  154.2223 H   0  0  0  0  0  0  0  0  0  0  0  0
  148.4577  131.6202  152.4125 H   0  0  0  0  0  0  0  0  0  0  0  0
  149.6370  133.7452  152.9462 H   0  0  0  0  0  0  0  0  0  0  0  0
  149.6976  134.5833  155.2798 H   0  0  0  0  0  0  0  0  0  0  0  0
  1  2  1  0  0  0  0
  1 25  1  0  0  0  0
  1 26  1  0  0  0  0
  1 27  1  0  0  0  0
  2  3  2  0  0  0  0
  2  4  1  0  0  0  0
  4  5  1  0  0  0  0
  4 28  1  0  0  0  0
  5  6  1  0  0  0  0
  5  7  1  0  0  0  0
  5 29  1  0  0  0  0
  6 30  1  0  0  0  0
  6 31  1  0  0  0  0
  6 32  1  0  0  0  0
  7 15  1  0  0  0  0
  7  8  2  0  0  0  0
  8  9  1  0  0  0  0
  9 14  2  0  0  0  0
  9 10  1  0  0  0  0
 10 11  2  0  0  0  0
 10 33  1  0  0  0  0
 11 12  1  0  0  0  0
 11 34  1  0  0  0  0
 12 13  2  0  0  0  0
 12 35  1  0  0  0  0
 13 14  1  0  0  0  0
 13 36  1  0  0  0  0
 14 15  1  0  0  0  0
 15 16  1  0  0  0  0
 16 17  1  0  0  0  0
 16 37  1  0  0  0  0
 16 38  1  0  0  0  0
 17 18  1  0  0  0  0
 17 19  1  0  0  0  0
 17 39  1  0  0  0  0
 18 40  1  0  0  0  0
 19 24  1  0  0  0  0
 19 20  2  0  0  0  0
 20 21  1  0  0  0  0
 20 41  1  0  0  0  0
 21 22  2  0  0  0  0
 21 42  1  0  0  0  0
 22 23  1  0  0  0  0
 22 43  1  0  0  0  0
 23 24  2  0  0  0  0
 23 44  1  0  0  0  0
 24 45  1  0  0  0  0
M  END
> <s_m_source_file>
AV-unprocessed.smi

> <i_m_source_file_index>
447

> <i_lp_mmshare_version>
43012

> <i_f3d_flags>
0

> <s_epik_input>
W0NIM11DKD1PKVtOSF1bQ0BIXShbQ0gzXSljKG4xKW4oYyhjMTIpW2NIXVtjSF1bY0hdW2NIXTIpW0NIMl1bQ0BIXShbT0hdKWMzW2NIXVtjSF1bY0hdW2NIXVtjSF0z

> <s_epik_cmdline>
J2VwaWtfcHl0aG9uJywgJy1waCcsICc3LjAnLCAnLXRuJywgJzgnLCAnLW1hJywgJzIwMCcsICctbWV0YWxfYmluZGluZycsICctaW1hZScsICc8aW5maWxlLm1hZT4nLCAnLW9tYWUnLCAnPG91dGZpbGUubWFlPic=

> <r_epik_Ionization_Penalty>
0.13301

> <r_epik_Ionization_Penalty_Charging>
0

> <r_epik_Ionization_Penalty_Neutral>
0.13301

> <r_epik_State_Penalty>
0.122384

> <r_epik_Charging_Adjusted_Penalty>
0.122384

> <i_epik_Tot_Q>
0

> <i_epik_Tot_abs_Q>
0

> <r_epik_Metal_State_Penalty>
0.0997374

> <b_epik_Metal_Only>
0

> <s_lp_Force_Field>
OPLS_2005

> <r_lp_Energy>
7.61604

> <b_lp_Chiralities_Consistent>
1

> <s_lp_Variant>
AV-unprocessed.smi:447-1

> <Gold.Version>
5.8.1

> <Gold.Id.Protein>
6NUR|6NUR_protein|mol2

> <Gold.PLP.Fitness>
42.7399

> <Gold.PLP.PLP>
-35.8602

> <Gold.PLP.part.hbond>
-2.9180

> <Gold.PLP.part.metal>
0.0000

> <Gold.PLP.part.buried>
-5.5666

> <Gold.PLP.part.nonpolar>
-28.9715

> <Gold.PLP.part.repulsive>
0.1091

> <Gold.PLP.ligand.clash>
0.0000

> <Gold.PLP.ligand.torsion>
0.4225

> <Gold.PLP.Chemscore.Hbond>
2.5576

> <Gold.PLP.Chemscore.CHOScore>
0.0000

> <Gold.PLP.Chemscore.Metal>
0.0000

> <Gold.Chemscore.Hbonds>
donor molecule, donor type, donor heavy atom, donor atom, acceptor molecule, acceptor atom, score
      P1  H  6896  6908       L1    18  0.90
      P1  H  6931  6943       L1     8  0.72
      P1  H 10752 10764       L1     3  0.78

> <Gold.PLP.Chemscore.Internal.Correction>
0.0519

> <Gold.Rescore>
     Score         DG    S(hbond)    S(metal)    S(lipo)     H(rot)  DE(clash)    DE(int)     intcor
     13.56     -13.90       1.40        0.00      83.49       2.35       0.07       0.26       ----

> <Gold.Chemscore.Fitness>
13.5637

> <Gold.Chemscore.DG>
-13.8951

> <Gold.Chemscore.ZeroCoef>
-5.4800

> <Gold.Chemscore.Hbond>
1.3981

> <Gold.Chemscore.Metal>
0.0000

> <Gold.Chemscore.Lipo>
83.4908

> <Gold.Chemscore.Internal_Hbond>
0.0000

> <Gold.Chemscore.DEClash>
0.0727

> <Gold.Chemscore.DEInternal>
0.2587

> <Gold.Chemscore.Rot>
2.3528

> <Gold.Chemscore.Internal.Correction>
   9.000000E+99

> <Gold.Chemscore.Hbonds>
donor molecule, donor type, donor heavy atom, donor atom, acceptor molecule, acceptor atom, score
      P1  H  6896  6908       L1    18  0.17
      P1  H  6931  6943       L1     8  0.18
      P1  H 10752 10764       L1     3  0.75

> <Gold.Chemscore.Hbond.Weighted>
-4.6698

> <Gold.Chemscore.Metal.Weighted>
-0.0000

> <Gold.Chemscore.Lipo.Weighted>
-9.7684

> <Gold.Chemscore.Internal_Hbond.Weighted>
0.0000

> <Gold.Chemscore.DEClash.Weighted>
0.0727

> <Gold.Chemscore.DEInternal.Weighted>
0.2587

> <Gold.Chemscore.Rot.Weighted>
6.0231

> <Gold.Chemscore.Internal.Correction.Weighted>
   9.000000E+99

> <Gold.Protein.RotatedTorsions>
[ 6907 6896 6895 6894 ] final  129.91 input  -60.11 | X-H torsion
[ 7974 7965 7964 7962 ] final   -0.15 input  175.53 | X-H torsion
[ 8008 7997 7996 7995 ] final -118.23 input   59.86 | X-H torsion
[ 10167 10162 10161 10158 ] final   28.08 input  -65.29 | X-H torsion
[ 10718 10713 10712 10709 ] final  129.07 input   66.30 | X-H torsion
[ 10763 10752 10751 10750 ] final  -35.93 input  -60.55 | X-H torsion
[ 11005 11000 10999 10996 ] final  -64.83 input  -57.11 | X-H torsion

> <Gold.Protein.ActiveResidues>
 VAL166  LYS551  ARG553  GLY616  TRP617  ASP618  TYR619  PRO620  LYS621  CYS622 
 ASP623  PHE694  ASN695  SER759  ASP760  ASP761  ALA762  ILE779  LEU786  VAL792 
 PHE793  MET794  SER795  GLU796  ALA797  LYS798  CYS799  TRP800  GLU811  SER814 

> <Gold.Protein.RotatedAtoms>
  152.3578  133.6259  159.5991 H   0  0  0  0  0  0  0  0  0  0  0  0  # atno 6907 bound_to 6896
  150.7580  133.9472  159.3483 H   0  0  0  0  0  0  0  0  0  0  0  0  # atno 6908 bound_to 6896
  151.7315  135.0875  160.0352 H   0  0  0  0  0  0  0  0  0  0  0  0  # atno 6909 bound_to 6896
  146.2430  140.1227  142.8340 H   0  0  0  0  0  0  0  0  0  0  0  0  # atno 7974 bound_to 7965
  155.0964  140.0395  157.2684 H   0  0  0  0  0  0  0  0  0  0  0  0  # atno 8008 bound_to 7997
  154.6792  140.2629  155.6901 H   0  0  0  0  0  0  0  0  0  0  0  0  # atno 8009 bound_to 7997
  156.2688  140.2782  156.1330 H   0  0  0  0  0  0  0  0  0  0  0  0  # atno 8010 bound_to 7997
  140.4883  144.0507  150.6288 H   0  0  0  0  0  0  0  0  0  0  0  0  # atno 10167 bound_to 10162
  157.5187  131.1098  150.9186 H   0  0  0  0  0  0  0  0  0  0  0  0  # atno 10718 bound_to 10713
  153.8714  135.6830  153.4774 H   0  0  0  0  0  0  0  0  0  0  0  0  # atno 10763 bound_to 10752
  153.1285  135.4708  154.9309 H   0  0  0  0  0  0  0  0  0  0  0  0  # atno 10764 bound_to 10752
  154.7712  135.3239  154.8136 H   0  0  0  0  0  0  0  0  0  0  0  0  # atno 10765 bound_to 10752
  141.1436  133.6672  156.5892 H   0  0  0  0  0  0  0  0  0  0  0  0  # atno 11005 bound_to 11000
  145.0393  140.8933  143.5062 LP  0  0  0  0  0  0  0  0  0  0  0  0  # atno 17320 bound_to 7965
  145.1304  139.2635  143.5542 LP  0  0  0  0  0  0  0  0  0  0  0  0  # atno 17321 bound_to 7965
  140.3769  143.2824  152.0215 LP  0  0  0  0  0  0  0  0  0  0  0  0  # atno 17342 bound_to 10162
  139.4846  144.6186  151.7299 LP  0  0  0  0  0  0  0  0  0  0  0  0  # atno 17343 bound_to 10162
  156.9803  130.5524  149.5296 LP  0  0  0  0  0  0  0  0  0  0  0  0  # atno 17370 bound_to 10713
  156.0338  130.5427  150.8603 LP  0  0  0  0  0  0  0  0  0  0  0  0  # atno 17371 bound_to 10713
  140.3776  134.7551  157.4640 LP  0  0  0  0  0  0  0  0  0  0  0  0  # atno 17394 bound_to 11000
  140.0662  134.5926  155.8692 LP  0  0  0  0  0  0  0  0  0  0  0  0  # atno 17395 bound_to 11000

$$$$
