AV-unprocessed.smi:1381|AV-procd|sdf|5607|dock7
  -GOLD-   22720 5213D 1   1.00000     0.00000
 Structure written by MMmdl.
 43 44  0  0  0  0  0  0  0  0  2 V2000
  152.1016  138.8190  158.1753 C   0  0  0  0  0  0  0  0  0  0  0  0
  151.6510  139.0982  156.7826 C   0  0  0  0  0  0  0  0  0  0  0  0
  150.4592  138.9219  156.1372 C   0  0  0  0  0  0  0  0  0  0  0  0
  150.7310  139.4007  154.8280 C   0  0  0  0  0  0  0  0  0  0  0  0
  149.7266  139.3934  153.8267 N   0  0  0  0  0  0  0  0  0  0  0  0
  148.4657  138.9417  153.9369 C   0  0  0  0  0  0  0  0  0  0  0  0
  147.9694  138.4601  154.9558 O   0  0  0  0  0  0  0  0  0  0  0  0
  147.7953  139.0737  152.7830 N   0  0  0  0  0  0  0  0  0  0  0  0
  146.4083  138.6732  152.5770 C   0  0  0  0  0  0  0  0  0  0  0  0
  146.2749  137.6904  151.3975 C   0  0  0  0  0  0  0  0  0  0  0  0
  145.1617  136.7274  151.5843 N   0  3  1  0  0  0  0  0  0  0  0  0
  145.3177  135.5165  150.7459 C   0  0  0  0  0  0  0  0  0  0  0  0
  144.0910  134.5982  150.8907 C   0  0  1  0  0  0  0  0  0  0  0  0
  144.2556  133.2916  150.1066 C   0  0  0  0  0  0  0  0  0  0  0  0
  143.9075  134.2649  152.2642 O   0  0  0  0  0  0  0  0  0  0  0  0
  143.7444  135.3828  153.1370 C   0  0  2  0  0  0  0  0  0  0  0  0
  142.3797  136.0707  152.9546 C   0  0  0  0  0  0  0  0  0  0  0  0
  144.9412  136.3449  153.0008 C   0  0  0  0  0  0  0  0  0  0  0  0
  151.9757  139.8297  154.6867 N   0  0  0  0  0  0  0  0  0  0  0  0
  152.5720  139.6372  155.9383 O   0  0  0  0  0  0  0  0  0  0  0  0
  151.2550  138.5765  158.8176 H   0  0  0  0  0  0  0  0  0  0  0  0
  152.6097  139.6853  158.5989 H   0  0  0  0  0  0  0  0  0  0  0  0
  152.7937  137.9772  158.1953 H   0  0  0  0  0  0  0  0  0  0  0  0
  149.5431  138.5166  156.5407 H   0  0  0  0  0  0  0  0  0  0  0  0
  150.0005  139.7663  152.9297 H   0  0  0  0  0  0  0  0  0  0  0  0
  148.2769  139.4796  151.9938 H   0  0  0  0  0  0  0  0  0  0  0  0
  146.0206  138.2449  153.5018 H   0  0  0  0  0  0  0  0  0  0  0  0
  145.8222  139.5714  152.3810 H   0  0  0  0  0  0  0  0  0  0  0  0
  146.0954  138.2732  150.4929 H   0  0  0  0  0  0  0  0  0  0  0  0
  147.2043  137.1434  151.2309 H   0  0  0  0  0  0  0  0  0  0  0  0
  145.4344  135.8047  149.7004 H   0  0  0  0  0  0  0  0  0  0  0  0
  146.2268  134.9868  151.0359 H   0  0  0  0  0  0  0  0  0  0  0  0
  143.2051  135.1089  150.5129 H   0  0  0  0  0  0  0  0  0  0  0  0
  144.3957  133.4858  149.0429 H   0  0  0  0  0  0  0  0  0  0  0  0
  143.3744  132.6590  150.2151 H   0  0  0  0  0  0  0  0  0  0  0  0
  145.1172  132.7242  150.4596 H   0  0  0  0  0  0  0  0  0  0  0  0
  143.7588  134.9780  154.1494 H   0  0  0  0  0  0  0  0  0  0  0  0
  142.2251  136.8304  153.7212 H   0  0  0  0  0  0  0  0  0  0  0  0
  141.5667  135.3492  153.0389 H   0  0  0  0  0  0  0  0  0  0  0  0
  142.2896  136.5648  151.9876 H   0  0  0  0  0  0  0  0  0  0  0  0
  145.8421  135.8614  153.3820 H   0  0  0  0  0  0  0  0  0  0  0  0
  144.7735  137.2251  153.6205 H   0  0  0  0  0  0  0  0  0  0  0  0
  144.3219  137.1888  151.2650 H   0  0  0  0  0  0  0  0  0  0  0  0
  1  2  1  0  0  0  0
  1 21  1  0  0  0  0
  1 22  1  0  0  0  0
  1 23  1  0  0  0  0
  2 20  1  0  0  0  0
  2  3  2  0  0  0  0
  3  4  1  0  0  0  0
  3 24  1  0  0  0  0
  4  5  1  0  0  0  0
  4 19  2  0  0  0  0
  5  6  1  0  0  0  0
  5 25  1  0  0  0  0
  6  7  2  0  0  0  0
  6  8  1  0  0  0  0
  8  9  1  0  0  0  0
  8 26  1  0  0  0  0
  9 10  1  0  0  0  0
  9 27  1  0  0  0  0
  9 28  1  0  0  0  0
 10 11  1  0  0  0  0
 10 29  1  0  0  0  0
 10 30  1  0  0  0  0
 11 18  1  0  0  0  0
 11 12  1  0  0  0  0
 11 43  1  0  0  0  0
 12 13  1  0  0  0  0
 12 31  1  0  0  0  0
 12 32  1  0  0  0  0
 13 14  1  0  0  0  0
 13 15  1  0  0  0  0
 13 33  1  0  0  0  0
 14 34  1  0  0  0  0
 14 35  1  0  0  0  0
 14 36  1  0  0  0  0
 15 16  1  0  0  0  0
 16 17  1  0  0  0  0
 16 18  1  0  0  0  0
 16 37  1  0  0  0  0
 17 38  1  0  0  0  0
 17 39  1  0  0  0  0
 17 40  1  0  0  0  0
 18 41  1  0  0  0  0
 18 42  1  0  0  0  0
 19 20  1  0  0  0  0
M  CHG  1  11   1
M  END
> <s_m_source_file>
AV-unprocessed.smi

> <i_m_source_file_index>
1381

> <i_lp_mmshare_version>
43012

> <i_f3d_flags>
0

> <s_epik_input>
W0NIM11jMVtjSF1jKG5vMSlbTkhdQyg9TylbTkhdW0NIMl1bQ0gyXU4yW0NIMl1bQ0BASF0oW0NIM10pT1tDQEBIXShbQ0gzXSlbQ0gyXTI=

> <s_epik_cmdline>
J2VwaWtfcHl0aG9uJywgJy1waCcsICc3LjAnLCAnLXRuJywgJzgnLCAnLW1hJywgJzIwMCcsICctbWV0YWxfYmluZGluZycsICctaW1hZScsICc8aW5maWxlLm1hZT4nLCAnLW9tYWUnLCAnPG91dGZpbGUubWFlPic=

> <r_epik_Ionization_Penalty>
0.707076

> <r_epik_Ionization_Penalty_Charging>
0.707039

> <r_epik_Ionization_Penalty_Neutral>
3.6548e-05

> <r_epik_State_Penalty>
0.730276

> <r_epik_Charging_Adjusted_Penalty>
1.43732

> <i_epik_Tot_Q>
1

> <i_epik_Tot_abs_Q>
1

> <r_epik_Metal_State_Penalty>
0.743132

> <b_epik_Metal_Only>
0

> <s_lp_Force_Field>
OPLS_2005

> <r_lp_Energy>
14.2109

> <b_lp_Chiralities_Consistent>
1

> <s_lp_Variant>
AV-unprocessed.smi:1381-6

> <Gold.Version>
5.8.1

> <Gold.Id.Protein>
6NUR|6NUR_protein|mol2

> <Gold.PLP.Fitness>
43.4202

> <Gold.PLP.PLP>
-30.8198

> <Gold.PLP.part.hbond>
-5.2560

> <Gold.PLP.part.metal>
0.0000

> <Gold.PLP.part.buried>
-1.9917

> <Gold.PLP.part.nonpolar>
-23.6186

> <Gold.PLP.part.repulsive>
0.4913

> <Gold.PLP.ligand.clash>
0.0000

> <Gold.PLP.ligand.torsion>
0.4600

> <Gold.PLP.Chemscore.Hbond>
4.5000

> <Gold.PLP.Chemscore.CHOScore>
0.0000

> <Gold.PLP.Chemscore.Metal>
0.0000

> <Gold.Chemscore.Hbonds>
donor molecule, donor type, donor heavy atom, donor atom, acceptor molecule, acceptor atom, score
      L1  H     5    25       P1  7957  0.99
      L1  H     8    26       P1  7957  1.00
      L1  H    11    43       P1 10171  0.66
      P1  H  7989  7998       L1    19  0.72
      P1  H  7997  8009       L1    20  1.00

> <Gold.PLP.Chemscore.Internal.Correction>
0.0205

> <Gold.Rescore>
     Score         DG    S(hbond)    S(metal)    S(lipo)     H(rot)  DE(clash)    DE(int)     intcor
     18.79     -21.62       3.90        0.00      61.85       1.61       0.94       1.89       ----

> <Gold.Chemscore.Fitness>
18.7855

> <Gold.Chemscore.DG>
-21.6154

> <Gold.Chemscore.ZeroCoef>
-5.4800

> <Gold.Chemscore.Hbond>
3.8969

> <Gold.Chemscore.Metal>
0.0000

> <Gold.Chemscore.Lipo>
61.8502

> <Gold.Chemscore.Internal_Hbond>
0.0000

> <Gold.Chemscore.DEClash>
0.9397

> <Gold.Chemscore.DEInternal>
1.8901

> <Gold.Chemscore.Rot>
1.6081

> <Gold.Chemscore.Internal.Correction>
   9.000000E+99

> <Gold.Chemscore.Hbonds>
donor molecule, donor type, donor heavy atom, donor atom, acceptor molecule, acceptor atom, score
      L1  H     5    25       P1  7957  0.93
      L1  H     8    26       P1  7957  0.99
      L1  H    11    43       P1 10171  0.64
      P1  H  7989  7998       L1    19  0.10
      P1  H  7997  8009       L1    20  1.00

> <Gold.Chemscore.Hbond.Weighted>
-13.0156

> <Gold.Chemscore.Metal.Weighted>
-0.0000

> <Gold.Chemscore.Lipo.Weighted>
-7.2365

> <Gold.Chemscore.Internal_Hbond.Weighted>
0.0000

> <Gold.Chemscore.DEClash.Weighted>
0.9397

> <Gold.Chemscore.DEInternal.Weighted>
1.8901

> <Gold.Chemscore.Rot.Weighted>
4.1167

> <Gold.Chemscore.Internal.Correction.Weighted>
   9.000000E+99

> <Gold.Protein.RotatedTorsions>
[ 6907 6896 6895 6894 ] final  -74.09 input  -60.11 | X-H torsion
[ 7974 7965 7964 7962 ] final   55.60 input  175.53 | X-H torsion
[ 8008 7997 7996 7995 ] final -165.08 input   59.86 | X-H torsion
[ 10167 10162 10161 10158 ] final  -66.51 input  -65.29 | X-H torsion
[ 10718 10713 10712 10709 ] final  129.46 input   66.30 | X-H torsion
[ 10763 10752 10751 10750 ] final   27.83 input  -60.55 | X-H torsion
[ 11005 11000 10999 10996 ] final  -37.47 input  -57.11 | X-H torsion

> <Gold.Protein.ActiveResidues>
 VAL166  LYS551  ARG553  GLY616  TRP617  ASP618  TYR619  PRO620  LYS621  CYS622 
 ASP623  PHE694  ASN695  SER759  ASP760  ASP761  ALA762  ILE779  LEU786  VAL792 
 PHE793  MET794  SER795  GLU796  ALA797  LYS798  CYS799  TRP800  GLU811  SER814 

> <Gold.Protein.RotatedAtoms>
  150.7106  134.4920  159.5520 H   0  0  0  0  0  0  0  0  0  0  0  0  # atno 6907 bound_to 6896
  152.2536  134.8104  160.0451 H   0  0  0  0  0  0  0  0  0  0  0  0  # atno 6908 bound_to 6896
  151.8843  133.3467  159.3813 H   0  0  0  0  0  0  0  0  0  0  0  0  # atno 6909 bound_to 6896
  145.9487  139.3952  143.0319 H   0  0  0  0  0  0  0  0  0  0  0  0  # atno 7974 bound_to 7965
  155.8448  140.0954  157.1712 H   0  0  0  0  0  0  0  0  0  0  0  0  # atno 8008 bound_to 7997
  154.3983  140.1394  156.3834 H   0  0  0  0  0  0  0  0  0  0  0  0  # atno 8009 bound_to 7997
  155.8025  140.3452  155.5413 H   0  0  0  0  0  0  0  0  0  0  0  0  # atno 8010 bound_to 7997
  140.5651  143.2314  151.6650 H   0  0  0  0  0  0  0  0  0  0  0  0  # atno 10167 bound_to 10162
  157.5152  131.1097  150.9235 H   0  0  0  0  0  0  0  0  0  0  0  0  # atno 10718 bound_to 10713
  153.0530  135.6527  154.0646 H   0  0  0  0  0  0  0  0  0  0  0  0  # atno 10763 bound_to 10752
  154.0330  135.2910  155.3367 H   0  0  0  0  0  0  0  0  0  0  0  0  # atno 10764 bound_to 10752
  154.6830  135.5312  153.8355 H   0  0  0  0  0  0  0  0  0  0  0  0  # atno 10765 bound_to 10752
  140.9954  133.6983  156.1925 H   0  0  0  0  0  0  0  0  0  0  0  0  # atno 11005 bound_to 11000
  145.8201  140.9683  143.0903 LP  0  0  0  0  0  0  0  0  0  0  0  0  # atno 17320 bound_to 7965
  144.6792  140.0031  143.7484 LP  0  0  0  0  0  0  0  0  0  0  0  0  # atno 17321 bound_to 7965
  139.5089  144.3595  152.0576 LP  0  0  0  0  0  0  0  0  0  0  0  0  # atno 17342 bound_to 10162
  140.2726  144.3948  150.6146 LP  0  0  0  0  0  0  0  0  0  0  0  0  # atno 17343 bound_to 10162
  156.9862  130.5546  149.5300 LP  0  0  0  0  0  0  0  0  0  0  0  0  # atno 17370 bound_to 10713
  156.0315  130.5406  150.8547 LP  0  0  0  0  0  0  0  0  0  0  0  0  # atno 17371 bound_to 10713
  140.6974  134.4601  157.5587 LP  0  0  0  0  0  0  0  0  0  0  0  0  # atno 17394 bound_to 11000
  139.9012  134.8551  156.1888 LP  0  0  0  0  0  0  0  0  0  0  0  0  # atno 17395 bound_to 11000

$$$$
