AV-unprocessed.smi:3019|AV-procd|sdf|11486|dock2
  -GOLD-   2272016423D 1   1.00000     0.00000
 Structure written by MMmdl.
 31 32  0  0  0  0  0  0  0  0  2 V2000
  152.1951  144.4558  158.0217 C   0  0  0  0  0  0  0  0  0  0  0  0
  151.7264  143.1407  158.6613 C   0  0  0  0  0  0  0  0  0  0  0  0
  152.7359  142.6084  159.6890 C   0  0  0  0  0  0  0  0  0  0  0  0
  151.3933  142.1094  157.6265 C   0  0  0  0  0  0  0  0  0  0  0  0
  151.9596  140.9005  157.6169 N   0  0  0  0  0  0  0  0  0  0  0  0
  151.4684  140.1831  156.5843 N   0  0  0  0  0  0  0  0  0  0  0  0
  150.6276  141.0483  156.0194 C   0  0  0  0  0  0  0  0  0  0  0  0
  149.8053  140.6553  154.8320 C   0  0  1  0  0  0  0  0  0  0  0  0
  150.0619  139.1979  154.4047 C   0  0  0  0  0  0  0  0  0  0  0  0
  149.1534  138.8305  153.3013 N   0  3  0  0  0  0  0  0  0  0  0  0
  147.7417  139.0692  153.6618 C   0  0  0  0  0  0  0  0  0  0  0  0
  147.5505  140.5247  154.1245 C   0  0  0  0  0  0  0  0  0  0  0  0
  148.4365  140.8086  155.2023 O   0  0  0  0  0  0  0  0  0  0  0  0
  150.5204  142.2654  156.6356 N   0  0  0  0  0  0  0  0  0  0  0  0
  151.4393  144.8531  157.3437 H   0  0  0  0  0  0  0  0  0  0  0  0
  153.1134  144.3156  157.4506 H   0  0  0  0  0  0  0  0  0  0  0  0
  152.3889  145.2143  158.7807 H   0  0  0  0  0  0  0  0  0  0  0  0
  150.8067  143.3617  159.2051 H   0  0  0  0  0  0  0  0  0  0  0  0
  152.3596  141.7099  160.1789 H   0  0  0  0  0  0  0  0  0  0  0  0
  152.9337  143.3484  160.4651 H   0  0  0  0  0  0  0  0  0  0  0  0
  153.6876  142.3585  159.2193 H   0  0  0  0  0  0  0  0  0  0  0  0
  150.0321  141.3348  154.0078 H   0  0  0  0  0  0  0  0  0  0  0  0
  151.0951  139.0656  154.0821 H   0  0  0  0  0  0  0  0  0  0  0  0
  149.8962  138.5197  155.2432 H   0  0  0  0  0  0  0  0  0  0  0  0
  149.3808  139.3933  152.4938 H   0  0  0  0  0  0  0  0  0  0  0  0
  147.1068  138.8528  152.8023 H   0  0  0  0  0  0  0  0  0  0  0  0
  147.4535  138.3804  154.4573 H   0  0  0  0  0  0  0  0  0  0  0  0
  147.7257  141.2207  153.3026 H   0  0  0  0  0  0  0  0  0  0  0  0
  146.5249  140.6812  154.4598 H   0  0  0  0  0  0  0  0  0  0  0  0
  149.2818  137.8554  153.0702 H   0  0  0  0  0  0  0  0  0  0  0  0
  152.6444  140.5381  158.2653 H   0  0  0  0  0  0  0  0  0  0  0  0
  1  2  1  0  0  0  0
  1 15  1  0  0  0  0
  1 16  1  0  0  0  0
  1 17  1  0  0  0  0
  2  3  1  0  0  0  0
  2  4  1  0  0  0  0
  2 18  1  0  0  0  0
  3 19  1  0  0  0  0
  3 20  1  0  0  0  0
  3 21  1  0  0  0  0
  4 14  2  0  0  0  0
  4  5  1  0  0  0  0
  5  6  1  0  0  0  0
  5 31  1  0  0  0  0
  6  7  2  0  0  0  0
  7  8  1  0  0  0  0
  7 14  1  0  0  0  0
  8 13  1  0  0  0  0
  8  9  1  0  0  0  0
  8 22  1  0  0  0  0
  9 10  1  0  0  0  0
  9 23  1  0  0  0  0
  9 24  1  0  0  0  0
 10 11  1  0  0  0  0
 10 25  1  0  0  0  0
 10 30  1  0  0  0  0
 11 12  1  0  0  0  0
 11 26  1  0  0  0  0
 11 27  1  0  0  0  0
 12 13  1  0  0  0  0
 12 28  1  0  0  0  0
 12 29  1  0  0  0  0
M  CHG  1  10   1
M  END
> <s_m_source_file>
AV-unprocessed.smi

> <i_m_source_file_index>
3019

> <i_lp_mmshare_version>
43012

> <i_f3d_flags>
0

> <s_epik_input>
W0NIM11bQ0hdKFtDSDNdKWMxbltuSF1jKG4xKVtDQEBIXTJbQ0gyXVtOSF1bQ0gyXVtDSDJdTzI=

> <s_epik_cmdline>
J2VwaWtfcHl0aG9uJywgJy1waCcsICc3LjAnLCAnLXRuJywgJzgnLCAnLW1hJywgJzIwMCcsICctbWV0YWxfYmluZGluZycsICctaW1hZScsICc8aW5maWxlLm1hZT4nLCAnLW9tYWUnLCAnPG91dGZpbGUubWFlPic=

> <r_lp_tautomer_probability>
0.948284

> <r_epik_Ionization_Penalty>
0.108767

> <r_epik_Ionization_Penalty_Charging>
0.100865

> <r_epik_Ionization_Penalty_Neutral>
0.00790271

> <r_epik_State_Penalty>
0.197684

> <r_epik_Charging_Adjusted_Penalty>
0.298549

> <i_epik_Tot_Q>
1

> <i_epik_Tot_abs_Q>
1

> <r_epik_Metal_State_Penalty>
0.508163

> <b_epik_Metal_Only>
0

> <s_lp_Force_Field>
OPLS_2005

> <r_lp_Energy>
9.87309

> <b_lp_Chiralities_Consistent>
1

> <s_lp_Variant>
AV-unprocessed.smi:3019-2

> <Gold.Version>
5.8.1

> <Gold.Id.Protein>
6NUR|6NUR_protein|mol2

> <Gold.PLP.Fitness>
37.3719

> <Gold.PLP.PLP>
-28.4222

> <Gold.PLP.part.hbond>
-1.9830

> <Gold.PLP.part.metal>
0.0000

> <Gold.PLP.part.buried>
-4.2039

> <Gold.PLP.part.nonpolar>
-23.7672

> <Gold.PLP.part.repulsive>
0.5501

> <Gold.PLP.ligand.clash>
0.0000

> <Gold.PLP.ligand.torsion>
0.0396

> <Gold.PLP.Chemscore.Hbond>
2.9913

> <Gold.PLP.Chemscore.CHOScore>
0.0000

> <Gold.PLP.Chemscore.Metal>
0.0000

> <Gold.Chemscore.Hbonds>
donor molecule, donor type, donor heavy atom, donor atom, acceptor molecule, acceptor atom, score
      L1  H    10    25       P1  7957  0.91
      L1  H    10    30       P1  7948  2.00

> <Gold.PLP.Chemscore.Internal.Correction>
0.0552

> <Gold.Rescore>
     Score         DG    S(hbond)    S(metal)    S(lipo)     H(rot)  DE(clash)    DE(int)     intcor
     15.87     -16.09       1.91        0.00      64.09       1.28       0.16       0.05       ----

> <Gold.Chemscore.Fitness>
15.8705

> <Gold.Chemscore.DG>
-16.0856

> <Gold.Chemscore.ZeroCoef>
-5.4800

> <Gold.Chemscore.Hbond>
1.9108

> <Gold.Chemscore.Metal>
0.0000

> <Gold.Chemscore.Lipo>
64.0943

> <Gold.Chemscore.Internal_Hbond>
0.0000

> <Gold.Chemscore.DEClash>
0.1614

> <Gold.Chemscore.DEInternal>
0.0537

> <Gold.Chemscore.Rot>
1.2795

> <Gold.Chemscore.Internal.Correction>
   9.000000E+99

> <Gold.Chemscore.Hbonds>
donor molecule, donor type, donor heavy atom, donor atom, acceptor molecule, acceptor atom, score
      L1  H    10    25       P1  7957  0.87
      L1  H    10    30       P1  7948  0.88

> <Gold.Chemscore.Hbond.Weighted>
-6.3820

> <Gold.Chemscore.Metal.Weighted>
-0.0000

> <Gold.Chemscore.Lipo.Weighted>
-7.4990

> <Gold.Chemscore.Internal_Hbond.Weighted>
0.0000

> <Gold.Chemscore.DEClash.Weighted>
0.1614

> <Gold.Chemscore.DEInternal.Weighted>
0.0537

> <Gold.Chemscore.Rot.Weighted>
3.2754

> <Gold.Chemscore.Internal.Correction.Weighted>
   9.000000E+99

> <Gold.Protein.RotatedTorsions>
[ 6907 6896 6895 6894 ] final   -7.39 input  -60.11 | X-H torsion
[ 7974 7965 7964 7962 ] final  -41.85 input  175.53 | X-H torsion
[ 8008 7997 7996 7995 ] final  126.66 input   59.86 | X-H torsion
[ 10167 10162 10161 10158 ] final  174.00 input  -65.29 | X-H torsion
[ 10718 10713 10712 10709 ] final  -40.63 input   66.30 | X-H torsion
[ 10763 10752 10751 10750 ] final  -68.20 input  -60.55 | X-H torsion
[ 11005 11000 10999 10996 ] final  174.35 input  -57.11 | X-H torsion

> <Gold.Protein.ActiveResidues>
 VAL166  LYS551  ARG553  GLY616  TRP617  ASP618  TYR619  PRO620  LYS621  CYS622 
 ASP623  PHE694  ASN695  SER759  ASP760  ASP761  ALA762  ILE779  LEU786  VAL792 
 PHE793  MET794  SER795  GLU796  ALA797  LYS798  CYS799  TRP800  GLU811  SER814 

> <Gold.Protein.RotatedAtoms>
  151.4503  135.1029  159.9695 H   0  0  0  0  0  0  0  0  0  0  0  0  # atno 6907 bound_to 6896
  152.4891  133.8447  159.7181 H   0  0  0  0  0  0  0  0  0  0  0  0  # atno 6908 bound_to 6896
  150.9027  133.7038  159.2902 H   0  0  0  0  0  0  0  0  0  0  0  0  # atno 6909 bound_to 6896
  146.0172  140.6894  142.9196 H   0  0  0  0  0  0  0  0  0  0  0  0  # atno 7974 bound_to 7965
  156.2870  140.2687  156.2147 H   0  0  0  0  0  0  0  0  0  0  0  0  # atno 8008 bound_to 7997
  155.0229  140.0386  157.2462 H   0  0  0  0  0  0  0  0  0  0  0  0  # atno 8009 bound_to 7997
  154.7420  140.2727  155.6370 H   0  0  0  0  0  0  0  0  0  0  0  0  # atno 8010 bound_to 7997
  139.5127  144.3196  152.0215 H   0  0  0  0  0  0  0  0  0  0  0  0  # atno 10167 bound_to 10162
  156.2792  130.4215  149.8355 H   0  0  0  0  0  0  0  0  0  0  0  0  # atno 10718 bound_to 10713
  154.3855  135.6064  153.5814 H   0  0  0  0  0  0  0  0  0  0  0  0  # atno 10763 bound_to 10752
  152.9788  135.5871  154.4359 H   0  0  0  0  0  0  0  0  0  0  0  0  # atno 10764 bound_to 10752
  154.4135  135.2844  155.1999 H   0  0  0  0  0  0  0  0  0  0  0  0  # atno 10765 bound_to 10752
  140.3504  134.7200  157.4264 H   0  0  0  0  0  0  0  0  0  0  0  0  # atno 11005 bound_to 11000
  144.6975  140.3502  143.7183 LP  0  0  0  0  0  0  0  0  0  0  0  0  # atno 17320 bound_to 7965
  145.7250  139.1720  143.2463 LP  0  0  0  0  0  0  0  0  0  0  0  0  # atno 17321 bound_to 7965
  140.2638  144.4038  150.6176 LP  0  0  0  0  0  0  0  0  0  0  0  0  # atno 17342 bound_to 10162
  140.6138  143.2171  151.6833 LP  0  0  0  0  0  0  0  0  0  0  0  0  # atno 17343 bound_to 10162
  156.5808  130.8465  151.3382 LP  0  0  0  0  0  0  0  0  0  0  0  0  # atno 17370 bound_to 10713
  157.7309  130.9692  150.1855 LP  0  0  0  0  0  0  0  0  0  0  0  0  # atno 17371 bound_to 10713
  140.0708  134.5866  155.8644 LP  0  0  0  0  0  0  0  0  0  0  0  0  # atno 17394 bound_to 11000
  141.2014  133.6618  156.5947 LP  0  0  0  0  0  0  0  0  0  0  0  0  # atno 17395 bound_to 11000

$$$$
