AV-unprocessed.smi:2282|AV-procd|sdf|9197|dock2
  -GOLD-   2272012413D 1   1.00000     0.00000
 Structure written by MMmdl.
 32 33  0  0  0  0  0  0  0  0  1 V2000
  153.0665  143.6119  162.8809 C   0  0  0  0  0  0  0  0  0  0  0  0
  153.1788  142.5996  161.7563 C   0  0  0  0  0  0  0  0  0  0  0  0
  154.0594  141.5955  161.9596 N   0  0  0  0  0  0  0  0  0  0  0  0
  154.2045  140.6721  160.9875 C   0  0  0  0  0  0  0  0  0  0  0  0
  153.4823  140.6990  159.7793 C   0  0  0  0  0  0  0  0  0  0  0  0
  152.5466  141.7400  159.5696 C   0  0  0  0  0  0  0  0  0  0  0  0
  151.7813  141.8738  158.3779 N   0  0  0  0  0  0  0  0  0  0  0  0
  151.7985  141.1046  157.2739 C   0  0  0  0  0  0  0  0  0  0  0  0
  152.5145  140.1146  157.1210 O   0  0  0  0  0  0  0  0  0  0  0  0
  150.8355  141.5282  156.1587 C   0  0  2  0  0  0  0  0  0  0  0  0
  149.3766  141.6989  156.6209 C   0  0  0  0  0  0  0  0  0  0  0  0
  148.6651  140.5127  156.0020 C   0  0  0  0  0  0  0  0  0  0  0  0
  149.4824  140.2857  154.7354 C   0  0  2  0  0  0  0  0  0  0  0  0
  149.3271  138.8861  154.1317 C   0  0  0  0  0  0  0  0  0  0  0  0
  150.8157  140.4939  155.1763 O   0  0  0  0  0  0  0  0  0  0  0  0
  152.4033  142.7209  160.5792 C   0  0  0  0  0  0  0  0  0  0  0  0
  151.2969  144.0393  160.3827 Cl  0  0  0  0  0  0  0  0  0  0  0  0
  152.0460  143.6420  163.2631 H   0  0  0  0  0  0  0  0  0  0  0  0
  153.3308  144.6070  162.5227 H   0  0  0  0  0  0  0  0  0  0  0  0
  153.7299  143.3658  163.7109 H   0  0  0  0  0  0  0  0  0  0  0  0
  154.9250  139.8899  161.1750 H   0  0  0  0  0  0  0  0  0  0  0  0
  153.6698  139.9364  159.0396 H   0  0  0  0  0  0  0  0  0  0  0  0
  151.0833  142.6033  158.3949 H   0  0  0  0  0  0  0  0  0  0  0  0
  151.1813  142.4532  155.6936 H   0  0  0  0  0  0  0  0  0  0  0  0
  149.2516  141.7328  157.7041 H   0  0  0  0  0  0  0  0  0  0  0  0
  148.9708  142.6280  156.2185 H   0  0  0  0  0  0  0  0  0  0  0  0
  148.7380  139.6485  156.6638 H   0  0  0  0  0  0  0  0  0  0  0  0
  147.6105  140.7040  155.8019 H   0  0  0  0  0  0  0  0  0  0  0  0
  149.2366  141.0468  153.9929 H   0  0  0  0  0  0  0  0  0  0  0  0
  148.2981  138.7074  153.8197 H   0  0  0  0  0  0  0  0  0  0  0  0
  149.5991  138.1129  154.8509 H   0  0  0  0  0  0  0  0  0  0  0  0
  149.9665  138.7665  153.2571 H   0  0  0  0  0  0  0  0  0  0  0  0
  1  2  1  0  0  0  0
  1 18  1  0  0  0  0
  1 19  1  0  0  0  0
  1 20  1  0  0  0  0
  2 16  1  0  0  0  0
  2  3  2  0  0  0  0
  3  4  1  0  0  0  0
  4  5  2  0  0  0  0
  4 21  1  0  0  0  0
  5  6  1  0  0  0  0
  5 22  1  0  0  0  0
  6  7  1  0  0  0  0
  6 16  2  0  0  0  0
  7  8  1  0  0  0  0
  7 23  1  0  0  0  0
  8  9  2  0  0  0  0
  8 10  1  0  0  0  0
 10 15  1  0  0  0  0
 10 11  1  0  0  0  0
 10 24  1  0  0  0  0
 11 12  1  0  0  0  0
 11 25  1  0  0  0  0
 11 26  1  0  0  0  0
 12 13  1  0  0  0  0
 12 27  1  0  0  0  0
 12 28  1  0  0  0  0
 13 14  1  0  0  0  0
 13 15  1  0  0  0  0
 13 29  1  0  0  0  0
 14 30  1  0  0  0  0
 14 31  1  0  0  0  0
 14 32  1  0  0  0  0
 16 17  1  0  0  0  0
M  END
> <s_m_source_file>
AV-unprocessed.smi

> <i_m_source_file_index>
2282

> <i_lp_mmshare_version>
43012

> <i_f3d_flags>
0

> <s_epik_input>
W0NIM11jMW5bY0hdW2NIXWMoYzFDbClbTkhdQyg9TylbQ0BASF0yW0NIMl1bQ0gyXVtDQEhdKE8yKVtDSDNd

> <s_epik_cmdline>
J2VwaWtfcHl0aG9uJywgJy1waCcsICc3LjAnLCAnLXRuJywgJzgnLCAnLW1hJywgJzIwMCcsICctbWV0YWxfYmluZGluZycsICctaW1hZScsICc8aW5maWxlLm1hZT4nLCAnLW9tYWUnLCAnPG91dGZpbGUubWFlPic=

> <r_epik_Ionization_Penalty>
0.00037231

> <r_epik_Ionization_Penalty_Charging>
0

> <r_epik_Ionization_Penalty_Neutral>
0.00037231

> <r_epik_State_Penalty>
0.000225113

> <r_epik_Charging_Adjusted_Penalty>
0.000225113

> <i_epik_Tot_Q>
0

> <i_epik_Tot_abs_Q>
0

> <r_epik_Metal_State_Penalty>
-0

> <b_epik_Metal_Only>
0

> <s_lp_Force_Field>
OPLS_2005

> <r_lp_Energy>
23.9667

> <b_lp_Chiralities_Consistent>
1

> <s_lp_Variant>
AV-unprocessed.smi:2282-3

> <Gold.Version>
5.8.1

> <Gold.Id.Protein>
6NUR|6NUR_protein|mol2

> <Gold.PLP.Fitness>
42.3381

> <Gold.PLP.PLP>
-36.5958

> <Gold.PLP.part.hbond>
-2.7451

> <Gold.PLP.part.metal>
0.0000

> <Gold.PLP.part.buried>
-4.6944

> <Gold.PLP.part.nonpolar>
-28.5088

> <Gold.PLP.part.repulsive>
0.1308

> <Gold.PLP.ligand.clash>
0.0000

> <Gold.PLP.ligand.torsion>
0.1327

> <Gold.PLP.Chemscore.Hbond>
2.0000

> <Gold.PLP.Chemscore.CHOScore>
0.0000

> <Gold.PLP.Chemscore.Metal>
0.0000

> <Gold.Chemscore.Hbonds>
donor molecule, donor type, donor heavy atom, donor atom, acceptor molecule, acceptor atom, score
      P1  H  7989  7998       L1    15  0.95
      P1  H  7997  8010       L1     9  1.00

> <Gold.PLP.Chemscore.Internal.Correction>
0.0077

> <Gold.Rescore>
     Score         DG    S(hbond)    S(metal)    S(lipo)     H(rot)  DE(clash)    DE(int)     intcor
     17.17     -18.88       1.19        0.00     102.30       1.00       0.25       1.46       ----

> <Gold.Chemscore.Fitness>
17.1679

> <Gold.Chemscore.DG>
-18.8773

> <Gold.Chemscore.ZeroCoef>
-5.4800

> <Gold.Chemscore.Hbond>
1.1939

> <Gold.Chemscore.Metal>
0.0000

> <Gold.Chemscore.Lipo>
102.3036

> <Gold.Chemscore.Internal_Hbond>
0.0000

> <Gold.Chemscore.DEClash>
0.2520

> <Gold.Chemscore.DEInternal>
1.4574

> <Gold.Chemscore.Rot>
1.0000

> <Gold.Chemscore.Internal.Correction>
   9.000000E+99

> <Gold.Chemscore.Hbonds>
donor molecule, donor type, donor heavy atom, donor atom, acceptor molecule, acceptor atom, score
      P1  H  7989  7998       L1    15  0.19
      P1  H  7997  8010       L1     9  0.98

> <Gold.Chemscore.Hbond.Weighted>
-3.9878

> <Gold.Chemscore.Metal.Weighted>
-0.0000

> <Gold.Chemscore.Lipo.Weighted>
-11.9695

> <Gold.Chemscore.Internal_Hbond.Weighted>
0.0000

> <Gold.Chemscore.DEClash.Weighted>
0.2520

> <Gold.Chemscore.DEInternal.Weighted>
1.4574

> <Gold.Chemscore.Rot.Weighted>
2.5600

> <Gold.Chemscore.Internal.Correction.Weighted>
   9.000000E+99

> <Gold.Protein.RotatedTorsions>
[ 6907 6896 6895 6894 ] final  -80.70 input  -60.11 | X-H torsion
[ 7974 7965 7964 7962 ] final   -3.39 input  175.53 | X-H torsion
[ 8008 7997 7996 7995 ] final   60.75 input   59.86 | X-H torsion
[ 10167 10162 10161 10158 ] final    5.83 input  -65.29 | X-H torsion
[ 10718 10713 10712 10709 ] final  -26.31 input   66.30 | X-H torsion
[ 10763 10752 10751 10750 ] final   32.73 input  -60.55 | X-H torsion
[ 11005 11000 10999 10996 ] final  -35.14 input  -57.11 | X-H torsion

> <Gold.Protein.ActiveResidues>
 VAL166  LYS551  ARG553  GLY616  TRP617  ASP618  TYR619  PRO620  LYS621  CYS622 
 ASP623  PHE694  ASN695  SER759  ASP760  ASP761  ALA762  ILE779  LEU786  VAL792 
 PHE793  MET794  SER795  GLU796  ALA797  LYS798  CYS799  TRP800  GLU811  SER814 

> <Gold.Protein.RotatedAtoms>
  150.6925  134.3930  159.5084 H   0  0  0  0  0  0  0  0  0  0  0  0  # atno 6907 bound_to 6896
  152.1715  134.8827  160.0543 H   0  0  0  0  0  0  0  0  0  0  0  0  # atno 6908 bound_to 6896
  151.9851  133.3736  159.4159 H   0  0  0  0  0  0  0  0  0  0  0  0  # atno 6909 bound_to 6896
  146.2390  140.1714  142.8332 H   0  0  0  0  0  0  0  0  0  0  0  0  # atno 7974 bound_to 7965
  155.5873  140.3492  155.4557 H   0  0  0  0  0  0  0  0  0  0  0  0  # atno 8008 bound_to 7997
  156.0328  140.1278  157.0265 H   0  0  0  0  0  0  0  0  0  0  0  0  # atno 8009 bound_to 7997
  154.4359  140.1040  156.6109 H   0  0  0  0  0  0  0  0  0  0  0  0  # atno 8010 bound_to 7997
  140.6461  143.7658  150.7501 H   0  0  0  0  0  0  0  0  0  0  0  0  # atno 10167 bound_to 10162
  156.4528  130.4487  149.6978 H   0  0  0  0  0  0  0  0  0  0  0  0  # atno 10718 bound_to 10713
  153.0247  135.6405  154.1401 H   0  0  0  0  0  0  0  0  0  0  0  0  # atno 10763 bound_to 10752
  154.1131  135.2851  155.3227 H   0  0  0  0  0  0  0  0  0  0  0  0  # atno 10764 bound_to 10752
  154.6317  135.5490  153.7751 H   0  0  0  0  0  0  0  0  0  0  0  0  # atno 10765 bound_to 10752
  140.9773  133.7076  156.1623 H   0  0  0  0  0  0  0  0  0  0  0  0  # atno 11005 bound_to 11000
  145.0008  140.8630  143.5282 LP  0  0  0  0  0  0  0  0  0  0  0  0  # atno 17320 bound_to 7965
  145.1733  139.2392  143.5330 LP  0  0  0  0  0  0  0  0  0  0  0  0  # atno 17321 bound_to 7965
  140.1300  143.4535  152.2260 LP  0  0  0  0  0  0  0  0  0  0  0  0  # atno 17342 bound_to 10162
  139.5672  144.7442  151.3990 LP  0  0  0  0  0  0  0  0  0  0  0  0  # atno 17343 bound_to 10162
  156.3798  130.7573  151.2565 LP  0  0  0  0  0  0  0  0  0  0  0  0  # atno 17370 bound_to 10713
  157.7502  131.0299  150.4113 LP  0  0  0  0  0  0  0  0  0  0  0  0  # atno 17371 bound_to 10713
  140.7240  134.4327  157.5572 LP  0  0  0  0  0  0  0  0  0  0  0  0  # atno 17394 bound_to 11000
  139.8935  134.8728  156.2218 LP  0  0  0  0  0  0  0  0  0  0  0  0  # atno 17395 bound_to 11000

$$$$
