AV-unprocessed.smi:3147|AV-procd|sdf|11988|dock2
  -GOLD-   2272017393D 1   1.00000     0.00000
 Structure written by MMmdl.
 37 38  0  0  0  0  0  0  0  0  2 V2000
  146.0611  138.2021  153.0151 C   0  0  0  0  0  0  0  0  0  0  0  0
  147.2434  139.0021  153.4494 C   0  0  0  0  0  0  0  0  0  0  0  0
  148.5236  138.5383  153.2974 N   0  3  0  0  0  0  0  0  0  0  0  0
  149.4035  139.4292  153.7558 C   0  0  0  0  0  0  0  0  0  0  0  0
  148.6977  140.4714  154.2074 N   0  0  0  0  0  0  0  0  0  0  0  0
  149.3520  141.6586  154.7796 C   0  0  0  0  0  0  0  0  0  0  0  0
  150.4739  141.3024  155.7624 C   0  0  0  0  0  0  0  0  0  0  0  0
  151.2913  140.4190  155.4991 O   0  0  0  0  0  0  0  0  0  0  0  0
  150.4976  142.0067  156.9033 N   0  0  0  0  0  0  0  0  0  0  0  0
  151.4629  141.8233  157.9814 C   0  0  0  0  0  0  0  0  0  0  0  0
  151.2516  142.8435  159.1129 C   0  0  1  0  0  0  0  0  0  0  0  0
  152.3259  142.7916  160.1961 C   0  0  0  0  0  0  0  0  0  0  0  0
  152.2095  144.1719  160.8012 C   0  0  0  0  0  0  0  0  0  0  0  0
  151.9212  145.0364  159.5758 C   0  0  0  0  0  0  0  0  0  0  0  0
  151.3174  144.1757  158.6119 O   0  0  0  0  0  0  0  0  0  0  0  0
  147.3503  140.2448  154.0325 C   0  0  0  0  0  0  0  0  0  0  0  0
  146.3036  141.2338  154.4342 C   0  0  0  0  0  0  0  0  0  0  0  0
  145.1350  138.7437  153.2063 H   0  0  0  0  0  0  0  0  0  0  0  0
  146.0262  137.2570  153.5573 H   0  0  0  0  0  0  0  0  0  0  0  0
  146.1223  137.9903  151.9474 H   0  0  0  0  0  0  0  0  0  0  0  0
  150.4742  139.3284  153.7566 H   0  0  0  0  0  0  0  0  0  0  0  0
  149.7517  142.2620  153.9641 H   0  0  0  0  0  0  0  0  0  0  0  0
  148.5931  142.2596  155.2834 H   0  0  0  0  0  0  0  0  0  0  0  0
  149.7901  142.7137  157.0430 H   0  0  0  0  0  0  0  0  0  0  0  0
  151.3916  140.8066  158.3713 H   0  0  0  0  0  0  0  0  0  0  0  0
  152.4660  141.9254  157.5661 H   0  0  0  0  0  0  0  0  0  0  0  0
  150.2747  142.7045  159.5789 H   0  0  0  0  0  0  0  0  0  0  0  0
  152.1631  141.9919  160.9192 H   0  0  0  0  0  0  0  0  0  0  0  0
  153.3146  142.6591  159.7543 H   0  0  0  0  0  0  0  0  0  0  0  0
  151.3656  144.2057  161.4914 H   0  0  0  0  0  0  0  0  0  0  0  0
  153.1044  144.4819  161.3413 H   0  0  0  0  0  0  0  0  0  0  0  0
  151.2737  145.8808  159.8140 H   0  0  0  0  0  0  0  0  0  0  0  0
  152.8479  145.4291  159.1564 H   0  0  0  0  0  0  0  0  0  0  0  0
  145.3267  140.9402  154.0515 H   0  0  0  0  0  0  0  0  0  0  0  0
  146.5407  142.2212  154.0377 H   0  0  0  0  0  0  0  0  0  0  0  0
  146.2441  141.2980  155.5207 H   0  0  0  0  0  0  0  0  0  0  0  0
  148.7715  137.6453  152.8901 H   0  0  0  0  0  0  0  0  0  0  0  0
  1  2  1  0  0  0  0
  1 18  1  0  0  0  0
  1 19  1  0  0  0  0
  1 20  1  0  0  0  0
  2 16  2  0  0  0  0
  2  3  1  0  0  0  0
  3  4  2  0  0  0  0
  3 37  1  0  0  0  0
  4  5  1  0  0  0  0
  4 21  1  0  0  0  0
  5  6  1  0  0  0  0
  5 16  1  0  0  0  0
  6  7  1  0  0  0  0
  6 22  1  0  0  0  0
  6 23  1  0  0  0  0
  7  8  2  0  0  0  0
  7  9  1  0  0  0  0
  9 10  1  0  0  0  0
  9 24  1  0  0  0  0
 10 11  1  0  0  0  0
 10 25  1  0  0  0  0
 10 26  1  0  0  0  0
 11 15  1  0  0  0  0
 11 12  1  0  0  0  0
 11 27  1  0  0  0  0
 12 13  1  0  0  0  0
 12 28  1  0  0  0  0
 12 29  1  0  0  0  0
 13 14  1  0  0  0  0
 13 30  1  0  0  0  0
 13 31  1  0  0  0  0
 14 15  1  0  0  0  0
 14 32  1  0  0  0  0
 14 33  1  0  0  0  0
 16 17  1  0  0  0  0
 17 34  1  0  0  0  0
 17 35  1  0  0  0  0
 17 36  1  0  0  0  0
M  CHG  1   3   1
M  END
> <s_m_source_file>
AV-unprocessed.smi

> <i_m_source_file_index>
3147

> <i_lp_mmshare_version>
43012

> <i_f3d_flags>
0

> <s_epik_input>
W0NIM11jMW5bY0hdbihjMVtDSDNdKVtDSDJdQyg9TylbTkhdW0NIMl1bQ0BASF0yW0NIMl1bQ0gyXVtDSDJdTzI=

> <s_epik_cmdline>
J2VwaWtfcHl0aG9uJywgJy1waCcsICc3LjAnLCAnLXRuJywgJzgnLCAnLW1hJywgJzIwMCcsICctbWV0YWxfYmluZGluZycsICctaW1hZScsICc8aW5maWxlLm1hZT4nLCAnLW9tYWUnLCAnPG91dGZpbGUubWFlPic=

> <r_lp_tautomer_probability>
1

> <r_epik_Ionization_Penalty>
0.131257

> <r_epik_Ionization_Penalty_Charging>
0

> <r_epik_Ionization_Penalty_Neutral>
0.131257

> <r_epik_State_Penalty>
0.12065

> <r_epik_Charging_Adjusted_Penalty>
0.12065

> <i_epik_Tot_Q>
1

> <i_epik_Tot_abs_Q>
1

> <r_epik_Metal_State_Penalty>
0.448684

> <b_epik_Metal_Only>
0

> <s_lp_Force_Field>
OPLS_2005

> <r_lp_Energy>
19.5729

> <b_lp_Chiralities_Consistent>
1

> <s_lp_Variant>
AV-unprocessed.smi:3147-2

> <Gold.Version>
5.8.1

> <Gold.Id.Protein>
6NUR|6NUR_protein|mol2

> <Gold.PLP.Fitness>
42.6760

> <Gold.PLP.PLP>
-34.8010

> <Gold.PLP.part.hbond>
-3.0000

> <Gold.PLP.part.metal>
0.0000

> <Gold.PLP.part.buried>
-0.0606

> <Gold.PLP.part.nonpolar>
-31.8062

> <Gold.PLP.part.repulsive>
0.2285

> <Gold.PLP.ligand.clash>
0.0000

> <Gold.PLP.ligand.torsion>
0.4119

> <Gold.PLP.Chemscore.Hbond>
2.8960

> <Gold.PLP.Chemscore.CHOScore>
0.0000

> <Gold.PLP.Chemscore.Metal>
0.0000

> <Gold.Chemscore.Hbonds>
donor molecule, donor type, donor heavy atom, donor atom, acceptor molecule, acceptor atom, score
      L1  H     3    37       P1  7948  2.00
      P1  H  7989  7998       L1     8  0.77

> <Gold.PLP.Chemscore.Internal.Correction>
0.0109

> <Gold.Rescore>
     Score         DG    S(hbond)    S(metal)    S(lipo)     H(rot)  DE(clash)    DE(int)     intcor
     12.99     -16.07       1.83        0.00      76.79       1.76       1.27       1.81       ----

> <Gold.Chemscore.Fitness>
12.9913

> <Gold.Chemscore.DG>
-16.0699

> <Gold.Chemscore.ZeroCoef>
-5.4800

> <Gold.Chemscore.Hbond>
1.8280

> <Gold.Chemscore.Metal>
0.0000

> <Gold.Chemscore.Lipo>
76.7877

> <Gold.Chemscore.Internal_Hbond>
0.0000

> <Gold.Chemscore.DEClash>
1.2703

> <Gold.Chemscore.DEInternal>
1.8083

> <Gold.Chemscore.Rot>
1.7577

> <Gold.Chemscore.Internal.Correction>
   9.000000E+99

> <Gold.Chemscore.Hbonds>
donor molecule, donor type, donor heavy atom, donor atom, acceptor molecule, acceptor atom, score
      L1  H     3    37       P1  7948  1.00
      P1  H  7989  7998       L1     8  0.17

> <Gold.Chemscore.Hbond.Weighted>
-6.1055

> <Gold.Chemscore.Metal.Weighted>
-0.0000

> <Gold.Chemscore.Lipo.Weighted>
-8.9842

> <Gold.Chemscore.Internal_Hbond.Weighted>
0.0000

> <Gold.Chemscore.DEClash.Weighted>
1.2703

> <Gold.Chemscore.DEInternal.Weighted>
1.8083

> <Gold.Chemscore.Rot.Weighted>
4.4998

> <Gold.Chemscore.Internal.Correction.Weighted>
   9.000000E+99

> <Gold.Protein.RotatedTorsions>
[ 6907 6896 6895 6894 ] final   97.29 input  -60.11 | X-H torsion
[ 7974 7965 7964 7962 ] final  -20.27 input  175.53 | X-H torsion
[ 8008 7997 7996 7995 ] final  -54.95 input   59.86 | X-H torsion
[ 10167 10162 10161 10158 ] final  -46.00 input  -65.29 | X-H torsion
[ 10718 10713 10712 10709 ] final  102.36 input   66.30 | X-H torsion
[ 10763 10752 10751 10750 ] final -147.19 input  -60.55 | X-H torsion
[ 11005 11000 10999 10996 ] final  100.48 input  -57.11 | X-H torsion

> <Gold.Protein.ActiveResidues>
 VAL166  LYS551  ARG553  GLY616  TRP617  ASP618  TYR619  PRO620  LYS621  CYS622 
 ASP623  PHE694  ASN695  SER759  ASP760  ASP761  ALA762  ILE779  LEU786  VAL792 
 PHE793  MET794  SER795  GLU796  ALA797  LYS798  CYS799  TRP800  GLU811  SER814 

> <Gold.Protein.RotatedAtoms>
  152.5425  134.0756  159.8212 H   0  0  0  0  0  0  0  0  0  0  0  0  # atno 6907 bound_to 6896
  151.0864  133.5342  159.2625 H   0  0  0  0  0  0  0  0  0  0  0  0  # atno 6908 bound_to 6896
  151.2150  135.0505  159.8980 H   0  0  0  0  0  0  0  0  0  0  0  0  # atno 6909 bound_to 6896
  146.1797  140.4179  142.8499 H   0  0  0  0  0  0  0  0  0  0  0  0  # atno 7974 bound_to 7965
  154.4179  140.1164  156.5398 H   0  0  0  0  0  0  0  0  0  0  0  0  # atno 8008 bound_to 7997
  155.6519  140.3496  155.4732 H   0  0  0  0  0  0  0  0  0  0  0  0  # atno 8009 bound_to 7997
  155.9785  140.1155  157.0738 H   0  0  0  0  0  0  0  0  0  0  0  0  # atno 8010 bound_to 7997
  140.6835  143.2852  151.3720 H   0  0  0  0  0  0  0  0  0  0  0  0  # atno 10167 bound_to 10162
  157.6804  131.0751  150.5392 H   0  0  0  0  0  0  0  0  0  0  0  0  # atno 10718 bound_to 10713
  154.8298  135.3366  154.6780 H   0  0  0  0  0  0  0  0  0  0  0  0  # atno 10763 bound_to 10752
  153.7401  135.6946  153.4973 H   0  0  0  0  0  0  0  0  0  0  0  0  # atno 10764 bound_to 10752
  153.2250  135.4436  155.0483 H   0  0  0  0  0  0  0  0  0  0  0  0  # atno 10765 bound_to 10752
  139.8771  134.9142  156.4762 H   0  0  0  0  0  0  0  0  0  0  0  0  # atno 11005 bound_to 11000
  144.8294  140.6682  143.6301 LP  0  0  0  0  0  0  0  0  0  0  0  0  # atno 17320 bound_to 7965
  145.4112  139.1580  143.4125 LP  0  0  0  0  0  0  0  0  0  0  0  0  # atno 17321 bound_to 7965
  139.6175  144.0972  152.2360 LP  0  0  0  0  0  0  0  0  0  0  0  0  # atno 17342 bound_to 10162
  140.0406  144.6010  150.7414 LP  0  0  0  0  0  0  0  0  0  0  0  0  # atno 17343 bound_to 10162
  156.5700  130.4277  149.6024 LP  0  0  0  0  0  0  0  0  0  0  0  0  # atno 17370 bound_to 10713
  156.2749  130.7038  151.1846 LP  0  0  0  0  0  0  0  0  0  0  0  0  # atno 17371 bound_to 10713
  140.8760  133.7953  155.9415 LP  0  0  0  0  0  0  0  0  0  0  0  0  # atno 17394 bound_to 11000
  140.8903  134.2503  157.5097 LP  0  0  0  0  0  0  0  0  0  0  0  0  # atno 17395 bound_to 11000

$$$$
