AV-unprocessed.smi:313|AV-procd|sdf|2309|dock6
  -GOLD-   2262022203D 1   1.00000     0.00000
 Structure written by MMmdl.
 50 51  0  0  0  0  0  0  0  0  1 V2000
  144.4438  134.9426  151.1581 C   0  0  0  0  0  0  0  0  0  0  0  0
  145.8942  134.9431  151.6630 C   0  0  0  0  0  0  0  0  0  0  0  0
  146.0158  134.8624  153.1963 C   0  0  2  0  0  0  0  0  0  0  0  0
  145.2470  136.0006  153.8858 C   0  0  0  0  0  0  0  0  0  0  0  0
  147.4215  134.8967  153.5924 N   0  0  0  0  0  0  0  0  0  0  0  0
  147.8836  134.7566  154.8443 C   0  0  0  0  0  0  0  0  0  0  0  0
  147.1520  134.5772  155.8195 O   0  0  0  0  0  0  0  0  0  0  0  0
  149.4111  134.8104  155.0087 C   0  0  2  0  0  0  0  0  0  0  0  0
  149.8434  133.5922  155.8411 C   0  0  0  0  0  0  0  0  0  0  0  0
  149.8145  136.0165  155.7300 N   0  0  0  0  0  0  0  0  0  0  0  0
  150.9078  136.7510  155.4638 C   0  0  0  0  0  0  0  0  0  0  0  0
  151.6965  136.4908  154.5547 O   0  0  0  0  0  0  0  0  0  0  0  0
  151.0894  137.9749  156.3138 C   0  0  0  0  0  0  0  0  0  0  0  0
  150.1969  138.2917  157.3611 C   0  0  0  0  0  0  0  0  0  0  0  0
  150.4355  139.4386  158.1421 C   0  0  0  0  0  0  0  0  0  0  0  0
  151.5675  140.2411  157.8652 C   0  0  0  0  0  0  0  0  0  0  0  0
  151.8283  141.3925  158.6396 N   0  0  0  0  0  0  0  0  0  0  0  0
  153.0216  141.3295  159.4802 C   0  0  0  0  0  0  0  0  0  0  0  0
  153.0332  142.4949  160.4844 C   0  0  0  0  0  0  0  0  0  0  0  0
  152.9109  143.7315  159.7897 O   0  0  0  0  0  0  0  0  0  0  0  0
  151.6861  143.8145  159.0691 C   0  0  0  0  0  0  0  0  0  0  0  0
  151.6310  142.6982  158.0126 C   0  0  0  0  0  0  0  0  0  0  0  0
  152.4241  139.9335  156.8603 N   0  0  0  0  0  0  0  0  0  0  0  0
  152.1932  138.8315  156.1156 C   0  0  0  0  0  0  0  0  0  0  0  0
  144.4122  135.0495  150.0737 H   0  0  0  0  0  0  0  0  0  0  0  0
  143.8777  135.7686  151.5893 H   0  0  0  0  0  0  0  0  0  0  0  0
  143.9297  134.0152  151.4118 H   0  0  0  0  0  0  0  0  0  0  0  0
  146.4354  134.1144  151.2043 H   0  0  0  0  0  0  0  0  0  0  0  0
  146.3830  135.8534  151.3134 H   0  0  0  0  0  0  0  0  0  0  0  0
  145.5774  133.9147  153.5148 H   0  0  0  0  0  0  0  0  0  0  0  0
  144.1911  135.9809  153.6153 H   0  0  0  0  0  0  0  0  0  0  0  0
  145.6442  136.9762  153.6036 H   0  0  0  0  0  0  0  0  0  0  0  0
  145.3074  135.9180  154.9714 H   0  0  0  0  0  0  0  0  0  0  0  0
  148.0965  135.0358  152.8544 H   0  0  0  0  0  0  0  0  0  0  0  0
  149.8989  134.7792  154.0323 H   0  0  0  0  0  0  0  0  0  0  0  0
  149.5749  132.6581  155.3456 H   0  0  0  0  0  0  0  0  0  0  0  0
  149.3810  133.5898  156.8295 H   0  0  0  0  0  0  0  0  0  0  0  0
  150.9245  133.5834  155.9838 H   0  0  0  0  0  0  0  0  0  0  0  0
  149.2052  136.3253  156.4733 H   0  0  0  0  0  0  0  0  0  0  0  0
  149.3387  137.6711  157.5738 H   0  0  0  0  0  0  0  0  0  0  0  0
  149.7454  139.6931  158.9325 H   0  0  0  0  0  0  0  0  0  0  0  0
  153.0810  140.3907  160.0285 H   0  0  0  0  0  0  0  0  0  0  0  0
  153.9041  141.3796  158.8410 H   0  0  0  0  0  0  0  0  0  0  0  0
  152.2246  142.3910  161.2097 H   0  0  0  0  0  0  0  0  0  0  0  0
  153.9666  142.4953  161.0471 H   0  0  0  0  0  0  0  0  0  0  0  0
  150.8413  143.7426  159.7560 H   0  0  0  0  0  0  0  0  0  0  0  0
  151.6228  144.7903  158.5876 H   0  0  0  0  0  0  0  0  0  0  0  0
  152.4047  142.8586  157.2606 H   0  0  0  0  0  0  0  0  0  0  0  0
  150.6673  142.7309  157.5028 H   0  0  0  0  0  0  0  0  0  0  0  0
  152.9146  138.6357  155.3357 H   0  0  0  0  0  0  0  0  0  0  0  0
  1  2  1  0  0  0  0
  1 25  1  0  0  0  0
  1 26  1  0  0  0  0
  1 27  1  0  0  0  0
  2  3  1  0  0  0  0
  2 28  1  0  0  0  0
  2 29  1  0  0  0  0
  3  4  1  0  0  0  0
  3  5  1  0  0  0  0
  3 30  1  0  0  0  0
  4 31  1  0  0  0  0
  4 32  1  0  0  0  0
  4 33  1  0  0  0  0
  5  6  1  0  0  0  0
  5 34  1  0  0  0  0
  6  7  2  0  0  0  0
  6  8  1  0  0  0  0
  8  9  1  0  0  0  0
  8 10  1  0  0  0  0
  8 35  1  0  0  0  0
  9 36  1  0  0  0  0
  9 37  1  0  0  0  0
  9 38  1  0  0  0  0
 10 11  1  0  0  0  0
 10 39  1  0  0  0  0
 11 12  2  0  0  0  0
 11 13  1  0  0  0  0
 13 24  1  0  0  0  0
 13 14  2  0  0  0  0
 14 15  1  0  0  0  0
 14 40  1  0  0  0  0
 15 16  2  0  0  0  0
 15 41  1  0  0  0  0
 16 17  1  0  0  0  0
 16 23  1  0  0  0  0
 17 22  1  0  0  0  0
 17 18  1  0  0  0  0
 18 19  1  0  0  0  0
 18 42  1  0  0  0  0
 18 43  1  0  0  0  0
 19 20  1  0  0  0  0
 19 44  1  0  0  0  0
 19 45  1  0  0  0  0
 20 21  1  0  0  0  0
 21 22  1  0  0  0  0
 21 46  1  0  0  0  0
 21 47  1  0  0  0  0
 22 48  1  0  0  0  0
 22 49  1  0  0  0  0
 23 24  2  0  0  0  0
 24 50  1  0  0  0  0
M  END
> <s_m_source_file>
AV-unprocessed.smi

> <i_m_source_file_index>
313

> <i_lp_mmshare_version>
43012

> <i_f3d_flags>
0

> <s_epik_input>
W0NIM11bQ0gyXVtDQEhdKFtDSDNdKVtOSF1DKD1PKVtDQEhdKFtDSDNdKVtOSF1DKD1PKWMxW2NIXVtjSF1jKG5bY0hdMSlOMltDSDJdW0NIMl1PW0NIMl1bQ0gyXTI=

> <s_epik_cmdline>
J2VwaWtfcHl0aG9uJywgJy1waCcsICc3LjAnLCAnLXRuJywgJzgnLCAnLW1hJywgJzIwMCcsICctbWV0YWxfYmluZGluZycsICctaW1hZScsICc8aW5maWxlLm1hZT4nLCAnLW9tYWUnLCAnPG91dGZpbGUubWFlPic=

> <r_lp_tautomer_probability>
1

> <r_epik_Ionization_Penalty>
9.96442e-06

> <r_epik_Ionization_Penalty_Charging>
0

> <r_epik_Ionization_Penalty_Neutral>
9.96442e-06

> <r_epik_State_Penalty>
-0

> <r_epik_Charging_Adjusted_Penalty>
0

> <i_epik_Tot_Q>
0

> <i_epik_Tot_abs_Q>
0

> <r_epik_Metal_State_Penalty>
-0

> <b_epik_Metal_Only>
0

> <s_lp_Force_Field>
OPLS_2005

> <r_lp_Energy>
19.8546

> <b_lp_Chiralities_Consistent>
1

> <s_lp_Variant>
AV-unprocessed.smi:313-1

> <Gold.Version>
5.8.1

> <Gold.Id.Protein>
6NUR|6NUR_protein|mol2

> <Gold.PLP.Fitness>
42.4323

> <Gold.PLP.PLP>
-34.3550

> <Gold.PLP.part.hbond>
-3.0000

> <Gold.PLP.part.metal>
0.0000

> <Gold.PLP.part.buried>
-6.2874

> <Gold.PLP.part.nonpolar>
-26.7962

> <Gold.PLP.part.repulsive>
0.8601

> <Gold.PLP.ligand.clash>
0.0000

> <Gold.PLP.ligand.torsion>
0.6516

> <Gold.PLP.Chemscore.Hbond>
2.9920

> <Gold.PLP.Chemscore.CHOScore>
0.0000

> <Gold.PLP.Chemscore.Metal>
0.0000

> <Gold.Chemscore.Hbonds>
donor molecule, donor type, donor heavy atom, donor atom, acceptor molecule, acceptor atom, score
      L1  H     5    34       P1  7948  0.94
      P1  H  7997  8010       L1    23  1.00
      P1  H 10752 10764       L1    12  0.94

> <Gold.PLP.Chemscore.Internal.Correction>
0.4046

> <Gold.Rescore>
     Score         DG    S(hbond)    S(metal)    S(lipo)     H(rot)  DE(clash)    DE(int)     intcor
     18.42     -19.89       2.77        0.00      83.13       1.79       0.76       0.71       ----

> <Gold.Chemscore.Fitness>
18.4178

> <Gold.Chemscore.DG>
-19.8898

> <Gold.Chemscore.ZeroCoef>
-5.4800

> <Gold.Chemscore.Hbond>
2.7733

> <Gold.Chemscore.Metal>
0.0000

> <Gold.Chemscore.Lipo>
83.1305

> <Gold.Chemscore.Internal_Hbond>
0.0000

> <Gold.Chemscore.DEClash>
0.7606

> <Gold.Chemscore.DEInternal>
0.7114

> <Gold.Chemscore.Rot>
1.7888

> <Gold.Chemscore.Internal.Correction>
   9.000000E+99

> <Gold.Chemscore.Hbonds>
donor molecule, donor type, donor heavy atom, donor atom, acceptor molecule, acceptor atom, score
      L1  H     5    34       P1  7948  0.84
      P1  H  7997  8010       L1    23  0.28
      P1  H 10752 10764       L1    12  0.90

> <Gold.Chemscore.Hbond.Weighted>
-9.2629

> <Gold.Chemscore.Metal.Weighted>
-0.0000

> <Gold.Chemscore.Lipo.Weighted>
-9.7263

> <Gold.Chemscore.Internal_Hbond.Weighted>
0.0000

> <Gold.Chemscore.DEClash.Weighted>
0.7606

> <Gold.Chemscore.DEInternal.Weighted>
0.7114

> <Gold.Chemscore.Rot.Weighted>
4.5793

> <Gold.Chemscore.Internal.Correction.Weighted>
   9.000000E+99

> <Gold.Protein.RotatedTorsions>
[ 6907 6896 6895 6894 ] final  -14.49 input  -60.11 | X-H torsion
[ 7974 7965 7964 7962 ] final  138.20 input  175.53 | X-H torsion
[ 8008 7997 7996 7995 ] final   54.23 input   59.86 | X-H torsion
[ 10167 10162 10161 10158 ] final  -71.60 input  -65.29 | X-H torsion
[ 10718 10713 10712 10709 ] final   73.25 input   66.30 | X-H torsion
[ 10763 10752 10751 10750 ] final  -65.76 input  -60.55 | X-H torsion
[ 11005 11000 10999 10996 ] final -146.66 input  -57.11 | X-H torsion

> <Gold.Protein.ActiveResidues>
 VAL166  LYS551  ARG553  GLY616  TRP617  ASP618  TYR619  PRO620  LYS621  CYS622 
 ASP623  PHE694  ASN695  SER759  ASP760  ASP761  ALA762  ILE779  LEU786  VAL792 
 PHE793  MET794  SER795  GLU796  ALA797  LYS798  CYS799  TRP800  GLU811  SER814 

> <Gold.Protein.RotatedAtoms>
  151.3386  135.0858  159.9362 H   0  0  0  0  0  0  0  0  0  0  0  0  # atno 6907 bound_to 6896
  152.5217  133.9470  159.7664 H   0  0  0  0  0  0  0  0  0  0  0  0  # atno 6908 bound_to 6896
  150.9822  133.6180  159.2750 H   0  0  0  0  0  0  0  0  0  0  0  0  # atno 6909 bound_to 6896
  144.9395  139.4948  143.5579 H   0  0  0  0  0  0  0  0  0  0  0  0  # atno 7974 bound_to 7965
  155.4812  140.3468  155.4340 H   0  0  0  0  0  0  0  0  0  0  0  0  # atno 8008 bound_to 7997
  156.1038  140.1442  156.9461 H   0  0  0  0  0  0  0  0  0  0  0  0  # atno 8009 bound_to 7997
  154.4711  140.0900  156.7124 H   0  0  0  0  0  0  0  0  0  0  0  0  # atno 8010 bound_to 7997
  140.5260  143.2326  151.7347 H   0  0  0  0  0  0  0  0  0  0  0  0  # atno 10167 bound_to 10162
  157.6539  130.9619  150.1043 H   0  0  0  0  0  0  0  0  0  0  0  0  # atno 10718 bound_to 10713
  154.3498  135.6139  153.5637 H   0  0  0  0  0  0  0  0  0  0  0  0  # atno 10763 bound_to 10752
  152.9799  135.5789  154.4757 H   0  0  0  0  0  0  0  0  0  0  0  0  # atno 10764 bound_to 10752
  154.4476  135.2852  155.1781 H   0  0  0  0  0  0  0  0  0  0  0  0  # atno 10765 bound_to 10752
  140.7797  134.3094  157.5049 H   0  0  0  0  0  0  0  0  0  0  0  0  # atno 11005 bound_to 11000
  146.3280  139.8403  142.8891 LP  0  0  0  0  0  0  0  0  0  0  0  0  # atno 17320 bound_to 7965
  145.3014  141.0195  143.3606 LP  0  0  0  0  0  0  0  0  0  0  0  0  # atno 17321 bound_to 7965
  139.4938  144.4185  152.0003 LP  0  0  0  0  0  0  0  0  0  0  0  0  # atno 17342 bound_to 10162
  140.3285  144.3345  150.5993 LP  0  0  0  0  0  0  0  0  0  0  0  0  # atno 17343 bound_to 10162
  156.1957  130.3657  149.8852 LP  0  0  0  0  0  0  0  0  0  0  0  0  # atno 17370 bound_to 10713
  156.6769  130.8843  151.3570 LP  0  0  0  0  0  0  0  0  0  0  0  0  # atno 17371 bound_to 10713
  139.8744  134.9311  156.3518 LP  0  0  0  0  0  0  0  0  0  0  0  0  # atno 17394 bound_to 11000
  140.9495  133.7461  156.0252 LP  0  0  0  0  0  0  0  0  0  0  0  0  # atno 17395 bound_to 11000

$$$$
