AV-unprocessed.smi:3287|AV-procd|sdf|12599|dock7
  -GOLD-   2272018523D 1   1.00000     0.00000
 Structure written by MMmdl.
 43 44  0  0  0  0  0  0  0  0  2 V2000
  145.7960  132.0150  150.2068 C   0  0  0  0  0  0  0  0  0  0  0  0
  145.7390  132.7098  151.5791 C   0  0  1  0  0  0  0  0  0  0  0  0
  147.1205  133.3040  151.9191 C   0  0  0  0  0  0  0  0  0  0  0  0
  147.1313  134.0049  153.2867 C   0  0  0  0  0  0  0  0  0  0  0  0
  146.0497  135.0933  153.3867 C   0  0  1  0  0  0  0  0  0  0  0  0
  146.4008  136.2552  152.5368 N   0  3  0  0  0  0  0  0  0  0  0  0
  145.9731  137.5734  153.0531 C   0  0  0  0  0  0  0  0  0  0  0  0
  146.6268  138.7235  152.2679 C   0  0  2  0  0  0  0  0  0  0  0  0
  147.3911  138.1788  151.2093 O   0  0  0  0  0  0  0  0  0  0  0  0
  147.4690  139.5989  153.1828 C   0  0  0  0  0  0  0  0  0  0  0  0
  148.5689  139.0536  153.8778 C   0  0  0  0  0  0  0  0  0  0  0  0
  149.3288  139.9011  154.7087 C   0  0  0  0  0  0  0  0  0  0  0  0
  149.0595  141.2138  154.8737 N   0  0  0  0  0  0  0  0  0  0  0  0
  148.0075  141.7320  154.2046 C   0  0  0  0  0  0  0  0  0  0  0  0
  147.1851  140.9723  153.3485 C   0  0  0  0  0  0  0  0  0  0  0  0
  144.6678  134.5031  153.0369 C   0  0  0  0  0  0  0  0  0  0  0  0
  144.6377  133.8000  151.6617 C   0  0  2  0  0  0  0  0  0  0  0  0
  143.2271  133.2462  151.3925 C   0  0  0  0  0  0  0  0  0  0  0  0
  145.9454  132.7358  149.4023 H   0  0  0  0  0  0  0  0  0  0  0  0
  144.8835  131.4585  149.9951 H   0  0  0  0  0  0  0  0  0  0  0  0
  146.6173  131.2988  150.1657 H   0  0  0  0  0  0  0  0  0  0  0  0
  145.5151  131.9449  152.3246 H   0  0  0  0  0  0  0  0  0  0  0  0
  147.8736  132.5149  151.9165 H   0  0  0  0  0  0  0  0  0  0  0  0
  147.4193  134.0096  151.1428 H   0  0  0  0  0  0  0  0  0  0  0  0
  146.9634  133.2609  154.0667 H   0  0  0  0  0  0  0  0  0  0  0  0
  148.1166  134.4303  153.4820 H   0  0  0  0  0  0  0  0  0  0  0  0
  146.0305  135.4419  154.4203 H   0  0  0  0  0  0  0  0  0  0  0  0
  147.4077  136.2842  152.4586 H   0  0  0  0  0  0  0  0  0  0  0  0
  144.8894  137.6551  152.9706 H   0  0  0  0  0  0  0  0  0  0  0  0
  146.2204  137.6518  154.1129 H   0  0  0  0  0  0  0  0  0  0  0  0
  145.8482  139.3432  151.8207 H   0  0  0  0  0  0  0  0  0  0  0  0
  147.7228  137.3361  151.4819 H   0  0  0  0  0  0  0  0  0  0  0  0
  148.8299  138.0099  153.7797 H   0  0  0  0  0  0  0  0  0  0  0  0
  150.1771  139.5140  155.2538 H   0  0  0  0  0  0  0  0  0  0  0  0
  147.8161  142.7844  154.3540 H   0  0  0  0  0  0  0  0  0  0  0  0
  146.3582  141.4389  152.8332 H   0  0  0  0  0  0  0  0  0  0  0  0
  144.3971  133.7782  153.8064 H   0  0  0  0  0  0  0  0  0  0  0  0
  143.8985  135.2737  153.0827 H   0  0  0  0  0  0  0  0  0  0  0  0
  144.8427  134.5500  150.8965 H   0  0  0  0  0  0  0  0  0  0  0  0
  142.9800  132.4371  152.0807 H   0  0  0  0  0  0  0  0  0  0  0  0
  143.1280  132.8646  150.3767 H   0  0  0  0  0  0  0  0  0  0  0  0
  142.4719  134.0234  151.5118 H   0  0  0  0  0  0  0  0  0  0  0  0
  146.0141  136.1152  151.6144 H   0  0  0  0  0  0  0  0  0  0  0  0
  1  2  1  0  0  0  0
  1 19  1  0  0  0  0
  1 20  1  0  0  0  0
  1 21  1  0  0  0  0
  2 17  1  0  0  0  0
  2  3  1  0  0  0  0
  2 22  1  0  0  0  0
  3  4  1  0  0  0  0
  3 23  1  0  0  0  0
  3 24  1  0  0  0  0
  4  5  1  0  0  0  0
  4 25  1  0  0  0  0
  4 26  1  0  0  0  0
  5  6  1  0  0  0  0
  5 16  1  0  0  0  0
  5 27  1  0  0  0  0
  6  7  1  0  0  0  0
  6 28  1  0  0  0  0
  6 43  1  0  0  0  0
  7  8  1  0  0  0  0
  7 29  1  0  0  0  0
  7 30  1  0  0  0  0
  8  9  1  0  0  0  0
  8 10  1  0  0  0  0
  8 31  1  0  0  0  0
  9 32  1  0  0  0  0
 10 15  1  0  0  0  0
 10 11  2  0  0  0  0
 11 12  1  0  0  0  0
 11 33  1  0  0  0  0
 12 13  2  0  0  0  0
 12 34  1  0  0  0  0
 13 14  1  0  0  0  0
 14 15  2  0  0  0  0
 14 35  1  0  0  0  0
 15 36  1  0  0  0  0
 16 17  1  0  0  0  0
 16 37  1  0  0  0  0
 16 38  1  0  0  0  0
 17 18  1  0  0  0  0
 17 39  1  0  0  0  0
 18 40  1  0  0  0  0
 18 41  1  0  0  0  0
 18 42  1  0  0  0  0
M  CHG  1   6   1
M  END
> <s_m_source_file>
AV-unprocessed.smi

> <i_m_source_file_index>
3287

> <i_lp_mmshare_version>
43012

> <i_f3d_flags>
0

> <s_epik_input>
W0NIM11bQ0BASF0xW0NIMl1bQ0gyXVtDQEhdKFtDSDJdW0NASF0xW0NIM10pW05IXVtDSDJdW0NASF0oW09IXSljMltjSF1bY0hdbltjSF1bY0hdMg==

> <s_epik_cmdline>
J2VwaWtfcHl0aG9uJywgJy1waCcsICc3LjAnLCAnLXRuJywgJzgnLCAnLW1hJywgJzIwMCcsICctbWV0YWxfYmluZGluZycsICctaW1hZScsICc8aW5maWxlLm1hZT4nLCAnLW9tYWUnLCAnPG91dGZpbGUubWFlPic=

> <r_lp_tautomer_probability>
1

> <r_epik_Ionization_Penalty>
0.00537262

> <r_epik_Ionization_Penalty_Charging>
0.00321624

> <r_epik_Ionization_Penalty_Neutral>
0.00215638

> <r_epik_State_Penalty>
-0

> <r_epik_Charging_Adjusted_Penalty>
0.00321624

> <i_epik_Tot_Q>
1

> <i_epik_Tot_abs_Q>
1

> <r_epik_Metal_State_Penalty>
-0

> <b_epik_Metal_Only>
0

> <s_lp_Force_Field>
OPLS_2005

> <r_lp_Energy>
19.0403

> <b_lp_Chiralities_Consistent>
1

> <s_lp_Variant>
AV-unprocessed.smi:3287-10

> <Gold.Version>
5.8.1

> <Gold.Id.Protein>
6NUR|6NUR_protein|mol2

> <Gold.PLP.Fitness>
45.2869

> <Gold.PLP.PLP>
-34.9139

> <Gold.PLP.part.hbond>
-3.9470

> <Gold.PLP.part.metal>
0.0000

> <Gold.PLP.part.buried>
-0.9561

> <Gold.PLP.part.nonpolar>
-29.9729

> <Gold.PLP.part.repulsive>
0.1515

> <Gold.PLP.ligand.clash>
0.0000

> <Gold.PLP.ligand.torsion>
1.1889

> <Gold.PLP.Chemscore.Hbond>
3.2500

> <Gold.PLP.Chemscore.CHOScore>
0.9933

> <Gold.PLP.Chemscore.Metal>
0.0000

> <Gold.Chemscore.Hbonds>
donor molecule, donor type, donor heavy atom, donor atom, acceptor molecule, acceptor atom, score
      L1  H     6    28       P1  7948  2.00
      L1  H     9    32       P1  7948  1.00
      P1  H  7954  7966       L1     9  0.20
      L1  C    14    35       P1  8028  1.00

> <Gold.PLP.Chemscore.Internal.Correction>
0.0209

> <Gold.Rescore>
     Score         DG    S(hbond)    S(metal)    S(lipo)     H(rot)  DE(clash)    DE(int)     intcor
     16.95     -18.20       1.96        0.00      94.46       1.90       0.08       1.17       ----

> <Gold.Chemscore.Fitness>
16.9472

> <Gold.Chemscore.DG>
-18.1952

> <Gold.Chemscore.ZeroCoef>
-5.4800

> <Gold.Chemscore.Hbond>
1.9570

> <Gold.Chemscore.Metal>
0.0000

> <Gold.Chemscore.Lipo>
94.4577

> <Gold.Chemscore.Internal_Hbond>
0.0000

> <Gold.Chemscore.DEClash>
0.0769

> <Gold.Chemscore.DEInternal>
1.1711

> <Gold.Chemscore.Rot>
1.9035

> <Gold.Chemscore.Internal.Correction>
   9.000000E+99

> <Gold.Chemscore.Hbonds>
donor molecule, donor type, donor heavy atom, donor atom, acceptor molecule, acceptor atom, score
      L1  H     6    28       P1  7948  0.99
      L1  H     9    32       P1  7948  0.97

> <Gold.Chemscore.Hbond.Weighted>
-6.5365

> <Gold.Chemscore.Metal.Weighted>
-0.0000

> <Gold.Chemscore.Lipo.Weighted>
-11.0516

> <Gold.Chemscore.Internal_Hbond.Weighted>
0.0000

> <Gold.Chemscore.DEClash.Weighted>
0.0769

> <Gold.Chemscore.DEInternal.Weighted>
1.1711

> <Gold.Chemscore.Rot.Weighted>
4.8729

> <Gold.Chemscore.Internal.Correction.Weighted>
   9.000000E+99

> <Gold.Protein.RotatedTorsions>
[ 6907 6896 6895 6894 ] final -140.28 input  -60.11 | X-H torsion
[ 7974 7965 7964 7962 ] final  122.79 input  175.53 | X-H torsion
[ 8008 7997 7996 7995 ] final  -14.21 input   59.86 | X-H torsion
[ 10167 10162 10161 10158 ] final   23.70 input  -65.29 | X-H torsion
[ 10718 10713 10712 10709 ] final   96.19 input   66.30 | X-H torsion
[ 10763 10752 10751 10750 ] final -111.55 input  -60.55 | X-H torsion
[ 11005 11000 10999 10996 ] final  135.53 input  -57.11 | X-H torsion

> <Gold.Protein.ActiveResidues>
 VAL166  LYS551  ARG553  GLY616  TRP617  ASP618  TYR619  PRO620  LYS621  CYS622 
 ASP623  PHE694  ASN695  SER759  ASP760  ASP761  ALA762  ILE779  LEU786  VAL792 
 PHE793  MET794  SER795  GLU796  ALA797  LYS798  CYS799  TRP800  GLU811  SER814 

> <Gold.Protein.RotatedAtoms>
  151.0587  133.5562  159.2635 H   0  0  0  0  0  0  0  0  0  0  0  0  # atno 6907 bound_to 6896
  151.2546  135.0633  159.9085 H   0  0  0  0  0  0  0  0  0  0  0  0  # atno 6908 bound_to 6896
  152.5394  134.0342  159.8092 H   0  0  0  0  0  0  0  0  0  0  0  0  # atno 6909 bound_to 6896
  145.1034  139.3503  143.4800 H   0  0  0  0  0  0  0  0  0  0  0  0  # atno 7974 bound_to 7965
  154.5229  140.2229  155.8943 H   0  0  0  0  0  0  0  0  0  0  0  0  # atno 8008 bound_to 7997
  156.1681  140.3127  155.8890 H   0  0  0  0  0  0  0  0  0  0  0  0  # atno 8009 bound_to 7997
  155.3614  140.0461  157.3037 H   0  0  0  0  0  0  0  0  0  0  0  0  # atno 8010 bound_to 7997
  140.5248  143.9941  150.6435 H   0  0  0  0  0  0  0  0  0  0  0  0  # atno 10167 bound_to 10162
  157.6930  131.0570  150.4453 H   0  0  0  0  0  0  0  0  0  0  0  0  # atno 10718 bound_to 10713
  154.8306  135.4523  154.1057 H   0  0  0  0  0  0  0  0  0  0  0  0  # atno 10763 bound_to 10752
  153.2333  135.6908  153.7871 H   0  0  0  0  0  0  0  0  0  0  0  0  # atno 10764 bound_to 10752
  153.7245  135.3336  155.3250 H   0  0  0  0  0  0  0  0  0  0  0  0  # atno 10765 bound_to 10752
  139.9986  134.9487  157.0020 H   0  0  0  0  0  0  0  0  0  0  0  0  # atno 11005 bound_to 11000
  146.3529  140.0921  142.8612 LP  0  0  0  0  0  0  0  0  0  0  0  0  # atno 17320 bound_to 7965
  145.0929  140.9296  143.4758 LP  0  0  0  0  0  0  0  0  0  0  0  0  # atno 17321 bound_to 7965
  140.3300  143.3083  152.0697 LP  0  0  0  0  0  0  0  0  0  0  0  0  # atno 17342 bound_to 10162
  139.4935  144.6515  151.6664 LP  0  0  0  0  0  0  0  0  0  0  0  0  # atno 17343 bound_to 10162
  156.4809  130.4073  149.6462 LP  0  0  0  0  0  0  0  0  0  0  0  0  # atno 17370 bound_to 10713
  156.3508  130.7431  151.2390 LP  0  0  0  0  0  0  0  0  0  0  0  0  # atno 17371 bound_to 10713
  140.4771  134.1327  155.7211 LP  0  0  0  0  0  0  0  0  0  0  0  0  # atno 17394 bound_to 11000
  141.1624  133.8768  157.1811 LP  0  0  0  0  0  0  0  0  0  0  0  0  # atno 17395 bound_to 11000

$$$$
