AV-unprocessed.smi:2822|AV-procd|sdf|10870|dock1
  -GOLD-   2272015313D 1   1.00000     0.00000
 Structure written by MMmdl.
 40 42  0  0  0  0  0  0  0  0  2 V2000
  147.9960  133.3165  151.7710 Cl  0  0  0  0  0  0  0  0  0  0  0  0
  146.4844  133.4629  150.9436 C   0  0  0  0  0  0  0  0  0  0  0  0
  146.0250  132.4031  150.1347 C   0  0  0  0  0  0  0  0  0  0  0  0
  144.8592  132.4365  149.4560 N   0  0  0  0  0  0  0  0  0  0  0  0
  144.1009  133.5471  149.5648 C   0  0  0  0  0  0  0  0  0  0  0  0
  144.4655  134.6627  150.3449 C   0  0  0  0  0  0  0  0  0  0  0  0
  145.6888  134.6266  151.0553 C   0  0  0  0  0  0  0  0  0  0  0  0
  146.1276  135.6916  151.8572 N   0  0  0  0  0  0  0  0  0  0  0  0
  145.1977  136.7174  152.3040 C   0  0  0  0  0  0  0  0  0  0  0  0
  145.9190  137.8530  153.0436 C   0  0  2  0  0  0  0  0  0  0  0  0
  146.7374  138.7290  152.0686 C   0  0  0  0  0  0  0  0  0  0  0  0
  147.5389  139.7472  152.7897 N   0  3  1  0  0  0  0  0  0  0  0  0
  146.7368  140.9103  153.2577 C   0  0  0  0  0  0  0  0  0  0  0  0
  147.6253  141.9647  153.9336 C   0  0  0  0  0  0  0  0  0  0  0  0
  148.4046  141.3471  155.0999 C   0  0  0  0  0  0  0  0  0  0  0  0
  149.2279  140.1521  154.6006 C   0  0  0  0  0  0  0  0  0  0  0  0
  148.3667  139.1125  153.8525 C   0  0  1  0  0  0  0  0  0  0  0  0
  147.4905  138.2420  154.7778 C   0  0  0  0  0  0  0  0  0  0  0  0
  146.8065  137.2708  153.9945 O   0  0  0  0  0  0  0  0  0  0  0  0
  146.6101  131.5014  150.0293 H   0  0  0  0  0  0  0  0  0  0  0  0
  143.1721  133.5476  149.0140 H   0  0  0  0  0  0  0  0  0  0  0  0
  143.8050  135.5153  150.3857 H   0  0  0  0  0  0  0  0  0  0  0  0
  147.1180  135.8854  151.9062 H   0  0  0  0  0  0  0  0  0  0  0  0
  144.6469  137.1150  151.4505 H   0  0  0  0  0  0  0  0  0  0  0  0
  144.4717  136.2552  152.9739 H   0  0  0  0  0  0  0  0  0  0  0  0
  145.1762  138.4633  153.5598 H   0  0  0  0  0  0  0  0  0  0  0  0
  147.4226  138.0985  151.5001 H   0  0  0  0  0  0  0  0  0  0  0  0
  146.0862  139.2118  151.3388 H   0  0  0  0  0  0  0  0  0  0  0  0
  146.2246  141.3601  152.4064 H   0  0  0  0  0  0  0  0  0  0  0  0
  145.9614  140.5882  153.9528 H   0  0  0  0  0  0  0  0  0  0  0  0
  148.3209  142.3829  153.2045 H   0  0  0  0  0  0  0  0  0  0  0  0
  147.0143  142.7942  154.2907 H   0  0  0  0  0  0  0  0  0  0  0  0
  149.0614  142.0928  155.5490 H   0  0  0  0  0  0  0  0  0  0  0  0
  147.7151  141.0286  155.8824 H   0  0  0  0  0  0  0  0  0  0  0  0
  150.0039  140.5191  153.9271 H   0  0  0  0  0  0  0  0  0  0  0  0
  149.7511  139.6812  155.4336 H   0  0  0  0  0  0  0  0  0  0  0  0
  149.0589  138.4358  153.3486 H   0  0  0  0  0  0  0  0  0  0  0  0
  148.1138  137.7213  155.5051 H   0  0  0  0  0  0  0  0  0  0  0  0
  146.7760  138.8385  155.3462 H   0  0  0  0  0  0  0  0  0  0  0  0
  148.1881  140.1271  152.1154 H   0  0  0  0  0  0  0  0  0  0  0  0
  1  2  1  0  0  0  0
  2  7  1  0  0  0  0
  2  3  2  0  0  0  0
  3  4  1  0  0  0  0
  3 20  1  0  0  0  0
  4  5  2  0  0  0  0
  5  6  1  0  0  0  0
  5 21  1  0  0  0  0
  6  7  2  0  0  0  0
  6 22  1  0  0  0  0
  7  8  1  0  0  0  0
  8  9  1  0  0  0  0
  8 23  1  0  0  0  0
  9 10  1  0  0  0  0
  9 24  1  0  0  0  0
  9 25  1  0  0  0  0
 10 19  1  0  0  0  0
 10 11  1  0  0  0  0
 10 26  1  0  0  0  0
 11 12  1  0  0  0  0
 11 27  1  0  0  0  0
 11 28  1  0  0  0  0
 12 17  1  0  0  0  0
 12 13  1  0  0  0  0
 12 40  1  0  0  0  0
 13 14  1  0  0  0  0
 13 29  1  0  0  0  0
 13 30  1  0  0  0  0
 14 15  1  0  0  0  0
 14 31  1  0  0  0  0
 14 32  1  0  0  0  0
 15 16  1  0  0  0  0
 15 33  1  0  0  0  0
 15 34  1  0  0  0  0
 16 17  1  0  0  0  0
 16 35  1  0  0  0  0
 16 36  1  0  0  0  0
 17 18  1  0  0  0  0
 17 37  1  0  0  0  0
 18 19  1  0  0  0  0
 18 38  1  0  0  0  0
 18 39  1  0  0  0  0
M  CHG  1  12   1
M  END
> <s_m_source_file>
AV-unprocessed.smi

> <i_m_source_file_index>
2822

> <i_lp_mmshare_version>
43012

> <i_f3d_flags>
0

> <s_epik_input>
Q2xjMVtjSF1uW2NIXVtjSF1jMVtOSF1bQ0gyXVtDQEhdKFtDSDJdMilPW0NIMl1bQ0BASF0oTjIzKVtDSDJdW0NIMl1bQ0gyXVtDSDJdMw==

> <s_epik_cmdline>
J2VwaWtfcHl0aG9uJywgJy1waCcsICc3LjAnLCAnLXRuJywgJzgnLCAnLW1hJywgJzIwMCcsICctbWV0YWxfYmluZGluZycsICctaW1hZScsICc8aW5maWxlLm1hZT4nLCAnLW9tYWUnLCAnPG91dGZpbGUubWFlPic=

> <r_lp_tautomer_probability>
0.999999

> <r_epik_Ionization_Penalty>
0.88937

> <r_epik_Ionization_Penalty_Charging>
0.0803403

> <r_epik_Ionization_Penalty_Neutral>
0.80903

> <r_epik_State_Penalty>
0.931884

> <r_epik_Charging_Adjusted_Penalty>
1.01222

> <i_epik_Tot_Q>
1

> <i_epik_Tot_abs_Q>
1

> <r_epik_Metal_State_Penalty>
0.0782275

> <b_epik_Metal_Only>
0

> <s_lp_Force_Field>
OPLS_2005

> <r_lp_Energy>
32.5478

> <b_lp_Chiralities_Consistent>
1

> <s_lp_Variant>
AV-unprocessed.smi:2822-11

> <Gold.Version>
5.8.1

> <Gold.Id.Protein>
6NUR|6NUR_protein|mol2

> <Gold.PLP.Fitness>
46.0685

> <Gold.PLP.PLP>
-34.4987

> <Gold.PLP.part.hbond>
-2.0000

> <Gold.PLP.part.metal>
0.0000

> <Gold.PLP.part.buried>
-3.1781

> <Gold.PLP.part.nonpolar>
-29.7955

> <Gold.PLP.part.repulsive>
0.3541

> <Gold.PLP.ligand.clash>
0.0000

> <Gold.PLP.ligand.torsion>
0.1616

> <Gold.PLP.Chemscore.Hbond>
2.0000

> <Gold.PLP.Chemscore.CHOScore>
1.9627

> <Gold.PLP.Chemscore.Metal>
0.0000

> <Gold.Chemscore.Hbonds>
donor molecule, donor type, donor heavy atom, donor atom, acceptor molecule, acceptor atom, score
      L1  H     8    23       P1  7948  1.00
      L1  H    12    40       P1  7957  1.00
      L1  C     3    20       P1 10747  1.00
      L1  C     5    21       P1 10186  1.00

> <Gold.PLP.Chemscore.Internal.Correction>
0.0049

> <Gold.Rescore>
     Score         DG    S(hbond)    S(metal)    S(lipo)     H(rot)  DE(clash)    DE(int)     intcor
     20.09     -20.69       1.99        0.00      98.88       1.17       0.45       0.15       ----

> <Gold.Chemscore.Fitness>
20.0942

> <Gold.Chemscore.DG>
-20.6928

> <Gold.Chemscore.ZeroCoef>
-5.4800

> <Gold.Chemscore.Hbond>
1.9871

> <Gold.Chemscore.Metal>
0.0000

> <Gold.Chemscore.Lipo>
98.8837

> <Gold.Chemscore.Internal_Hbond>
0.0000

> <Gold.Chemscore.DEClash>
0.4499

> <Gold.Chemscore.DEInternal>
0.1486

> <Gold.Chemscore.Rot>
1.1693

> <Gold.Chemscore.Internal.Correction>
   9.000000E+99

> <Gold.Chemscore.Hbonds>
donor molecule, donor type, donor heavy atom, donor atom, acceptor molecule, acceptor atom, score
      L1  H     8    23       P1  7948  1.00
      L1  H    12    40       P1  7957  0.97

> <Gold.Chemscore.Hbond.Weighted>
-6.6368

> <Gold.Chemscore.Metal.Weighted>
-0.0000

> <Gold.Chemscore.Lipo.Weighted>
-11.5694

> <Gold.Chemscore.Internal_Hbond.Weighted>
0.0000

> <Gold.Chemscore.DEClash.Weighted>
0.4499

> <Gold.Chemscore.DEInternal.Weighted>
0.1486

> <Gold.Chemscore.Rot.Weighted>
2.9934

> <Gold.Chemscore.Internal.Correction.Weighted>
   9.000000E+99

> <Gold.Protein.RotatedTorsions>
[ 6907 6896 6895 6894 ] final -146.73 input  -60.11 | X-H torsion
[ 7974 7965 7964 7962 ] final -161.23 input  175.53 | X-H torsion
[ 8008 7997 7996 7995 ] final -161.82 input   59.86 | X-H torsion
[ 10167 10162 10161 10158 ] final -101.37 input  -65.29 | X-H torsion
[ 10718 10713 10712 10709 ] final  -91.98 input   66.30 | X-H torsion
[ 10763 10752 10751 10750 ] final  -69.38 input  -60.55 | X-H torsion
[ 11005 11000 10999 10996 ] final -167.10 input  -57.11 | X-H torsion

> <Gold.Protein.ActiveResidues>
 VAL166  LYS551  ARG553  GLY616  TRP617  ASP618  TYR619  PRO620  LYS621  CYS622 
 ASP623  PHE694  ASN695  SER759  ASP760  ASP761  ALA762  ILE779  LEU786  VAL792 
 PHE793  MET794  SER795  GLU796  ALA797  LYS798  CYS799  TRP800  GLU811  SER814 

> <Gold.Protein.RotatedAtoms>
  151.1457  133.4941  159.2595 H   0  0  0  0  0  0  0  0  0  0  0  0  # atno 6907 bound_to 6896
  151.1607  135.0272  159.8719 H   0  0  0  0  0  0  0  0  0  0  0  0  # atno 6908 bound_to 6896
  152.5463  134.1331  159.8500 H   0  0  0  0  0  0  0  0  0  0  0  0  # atno 6909 bound_to 6896
  144.7398  140.3428  143.6131 H   0  0  0  0  0  0  0  0  0  0  0  0  # atno 7974 bound_to 7965
  155.7978  140.0887  157.1973 H   0  0  0  0  0  0  0  0  0  0  0  0  # atno 8008 bound_to 7997
  154.3983  140.1478  156.3298 H   0  0  0  0  0  0  0  0  0  0  0  0  # atno 8009 bound_to 7997
  155.8493  140.3435  155.5685 H   0  0  0  0  0  0  0  0  0  0  0  0  # atno 8010 bound_to 7997
  140.2420  143.3532  152.0793 H   0  0  0  0  0  0  0  0  0  0  0  0  # atno 10167 bound_to 10162
  155.9998  130.4969  150.5556 H   0  0  0  0  0  0  0  0  0  0  0  0  # atno 10718 bound_to 10713
  154.4026  135.6027  153.5906 H   0  0  0  0  0  0  0  0  0  0  0  0  # atno 10763 bound_to 10752
  152.9788  135.5910  154.4166 H   0  0  0  0  0  0  0  0  0  0  0  0  # atno 10764 bound_to 10752
  154.3966  135.2842  155.2100 H   0  0  0  0  0  0  0  0  0  0  0  0  # atno 10765 bound_to 10752
  140.5570  134.5371  157.5135 H   0  0  0  0  0  0  0  0  0  0  0  0  # atno 11005 bound_to 11000
  145.7357  139.1749  143.2405 LP  0  0  0  0  0  0  0  0  0  0  0  0  # atno 17320 bound_to 7965
  146.1172  140.7354  142.9475 LP  0  0  0  0  0  0  0  0  0  0  0  0  # atno 17321 bound_to 7965
  139.5074  144.6831  151.5956 LP  0  0  0  0  0  0  0  0  0  0  0  0  # atno 17342 bound_to 10162
  140.6106  143.9443  150.6450 LP  0  0  0  0  0  0  0  0  0  0  0  0  # atno 17343 bound_to 10162
  157.3473  131.0727  151.1741 LP  0  0  0  0  0  0  0  0  0  0  0  0  # atno 17370 bound_to 10713
  157.2570  130.6641  149.5957 LP  0  0  0  0  0  0  0  0  0  0  0  0  # atno 17371 bound_to 10713
  139.9426  134.7759  156.0640 LP  0  0  0  0  0  0  0  0  0  0  0  0  # atno 17394 bound_to 11000
  141.1137  133.6634  156.3042 LP  0  0  0  0  0  0  0  0  0  0  0  0  # atno 17395 bound_to 11000

$$$$
