AV-unprocessed.smi:3105|AV-procd|sdf|11820|dock5
  -GOLD-   2272017193D 1   1.00000     0.00000
 Structure written by MMmdl.
 34 34  0  0  0  0  0  0  0  0  2 V2000
  147.7660  140.9861  154.0532 C   0  0  0  0  0  0  0  0  0  0  0  0
  148.3728  139.5668  154.0309 C   0  0  1  0  0  0  0  0  0  0  0  0
  148.0516  138.8919  152.7516 N   0  3  0  0  0  0  0  0  0  0  0  0
  146.6138  138.6595  152.4991 C   0  0  0  0  0  0  0  0  0  0  0  0
  146.1499  137.3433  153.1476 C   0  0  0  0  0  0  0  0  0  0  0  0
  145.4141  136.4143  152.1761 C   0  0  0  0  0  0  0  0  0  0  0  0
  146.1582  135.8042  151.2507 N   0  0  0  0  0  0  0  0  0  0  0  0
  144.1991  136.2426  152.2540 O   0  0  0  0  0  0  0  0  0  0  0  0
  149.9100  139.5659  154.2507 C   0  0  2  0  0  0  0  0  0  0  0  0
  150.5149  138.1496  154.1917 C   0  0  0  0  0  0  0  0  0  0  0  0
  150.2919  140.2168  155.4980 N   0  0  0  0  0  0  0  0  0  0  0  0
  150.0951  141.5308  155.8714 C   0  0  0  0  0  0  0  0  0  0  0  0
  150.6223  141.6836  157.1214 C   0  0  0  0  0  0  0  0  0  0  0  0
  151.1309  140.3925  157.4346 C   0  0  0  0  0  0  0  0  0  0  0  0
  150.9334  139.5177  156.4618 N   0  0  0  0  0  0  0  0  0  0  0  0
  147.9330  141.4834  155.0084 H   0  0  0  0  0  0  0  0  0  0  0  0
  146.6873  140.9688  153.9011 H   0  0  0  0  0  0  0  0  0  0  0  0
  148.2006  141.6127  153.2739 H   0  0  0  0  0  0  0  0  0  0  0  0
  147.9203  138.9909  154.8401 H   0  0  0  0  0  0  0  0  0  0  0  0
  148.4452  139.4265  151.9906 H   0  0  0  0  0  0  0  0  0  0  0  0
  146.0439  139.4976  152.9036 H   0  0  0  0  0  0  0  0  0  0  0  0
  146.4281  138.6288  151.4252 H   0  0  0  0  0  0  0  0  0  0  0  0
  147.0124  136.8118  153.5529 H   0  0  0  0  0  0  0  0  0  0  0  0
  145.4873  137.5556  153.9878 H   0  0  0  0  0  0  0  0  0  0  0  0
  145.7290  135.1816  150.5815 H   0  0  0  0  0  0  0  0  0  0  0  0
  147.1542  135.9699  151.2213 H   0  0  0  0  0  0  0  0  0  0  0  0
  150.3624  140.1492  153.4468 H   0  0  0  0  0  0  0  0  0  0  0  0
  150.3583  137.6849  153.2184 H   0  0  0  0  0  0  0  0  0  0  0  0
  150.0761  137.4946  154.9452 H   0  0  0  0  0  0  0  0  0  0  0  0
  151.5912  138.1780  154.3651 H   0  0  0  0  0  0  0  0  0  0  0  0
  149.6010  142.2411  155.2247 H   0  0  0  0  0  0  0  0  0  0  0  0
  150.6435  142.5819  157.7207 H   0  0  0  0  0  0  0  0  0  0  0  0
  151.6346  140.0674  158.3331 H   0  0  0  0  0  0  0  0  0  0  0  0
  148.4973  137.9858  152.7699 H   0  0  0  0  0  0  0  0  0  0  0  0
  1  2  1  0  0  0  0
  1 16  1  0  0  0  0
  1 17  1  0  0  0  0
  1 18  1  0  0  0  0
  2  3  1  0  0  0  0
  2  9  1  0  0  0  0
  2 19  1  0  0  0  0
  3  4  1  0  0  0  0
  3 20  1  0  0  0  0
  3 34  1  0  0  0  0
  4  5  1  0  0  0  0
  4 21  1  0  0  0  0
  4 22  1  0  0  0  0
  5  6  1  0  0  0  0
  5 23  1  0  0  0  0
  5 24  1  0  0  0  0
  6  7  1  0  0  0  0
  6  8  2  0  0  0  0
  7 25  1  0  0  0  0
  7 26  1  0  0  0  0
  9 10  1  0  0  0  0
  9 11  1  0  0  0  0
  9 27  1  0  0  0  0
 10 28  1  0  0  0  0
 10 29  1  0  0  0  0
 10 30  1  0  0  0  0
 11 15  1  0  0  0  0
 11 12  1  0  0  0  0
 12 13  2  0  0  0  0
 12 31  1  0  0  0  0
 13 14  1  0  0  0  0
 13 32  1  0  0  0  0
 14 15  2  0  0  0  0
 14 33  1  0  0  0  0
M  CHG  1   3   1
M  END
> <s_m_source_file>
AV-unprocessed.smi

> <i_m_source_file_index>
3105

> <i_lp_mmshare_version>
43012

> <i_f3d_flags>
0

> <s_epik_input>
W05IMl1DKD1PKVtDSDJdW0NIMl1bTkhdW0NAQEhdKFtDSDNdKVtDQEhdKFtDSDNdKW4xW2NIXVtjSF1bY0hdbjE=

> <s_epik_cmdline>
J2VwaWtfcHl0aG9uJywgJy1waCcsICc3LjAnLCAnLXRuJywgJzgnLCAnLW1hJywgJzIwMCcsICctbWV0YWxfYmluZGluZycsICctaW1hZScsICc8aW5maWxlLm1hZT4nLCAnLW9tYWUnLCAnPG91dGZpbGUubWFlPic=

> <r_lp_tautomer_probability>
1

> <r_epik_Ionization_Penalty>
0.00475669

> <r_epik_Ionization_Penalty_Charging>
0.00474654

> <r_epik_Ionization_Penalty_Neutral>
1.01546e-05

> <r_epik_State_Penalty>
-0

> <r_epik_Charging_Adjusted_Penalty>
0.00474654

> <i_epik_Tot_Q>
1

> <i_epik_Tot_abs_Q>
1

> <r_epik_Metal_State_Penalty>
-0

> <b_epik_Metal_Only>
0

> <s_lp_Force_Field>
OPLS_2005

> <r_lp_Energy>
9.05092

> <b_lp_Chiralities_Consistent>
1

> <s_lp_Variant>
AV-unprocessed.smi:3105-2

> <Gold.Version>
5.8.1

> <Gold.Id.Protein>
6NUR|6NUR_protein|mol2

> <Gold.PLP.Fitness>
40.4589

> <Gold.PLP.PLP>
-27.7388

> <Gold.PLP.part.hbond>
-2.8109

> <Gold.PLP.part.metal>
0.0000

> <Gold.PLP.part.buried>
-2.2533

> <Gold.PLP.part.nonpolar>
-23.6521

> <Gold.PLP.part.repulsive>
0.3050

> <Gold.PLP.ligand.clash>
0.0000

> <Gold.PLP.ligand.torsion>
0.7366

> <Gold.PLP.Chemscore.Hbond>
3.7668

> <Gold.PLP.Chemscore.CHOScore>
0.9189

> <Gold.PLP.Chemscore.Metal>
0.0000

> <Gold.Chemscore.Hbonds>
donor molecule, donor type, donor heavy atom, donor atom, acceptor molecule, acceptor atom, score
      L1  H     3    20       P1  7957  1.00
      L1  H     3    34       P1  7948  1.98
      L1  H     7    26       P1  7948  1.00
      L1  C    12    31       P1  8028  0.80

> <Gold.PLP.Chemscore.Internal.Correction>
0.1363

> <Gold.Rescore>
     Score         DG    S(hbond)    S(metal)    S(lipo)     H(rot)  DE(clash)    DE(int)     intcor
     13.25     -14.43       2.77        0.00      59.84       2.85       0.37       0.82       ----

> <Gold.Chemscore.Fitness>
13.2477

> <Gold.Chemscore.DG>
-14.4301

> <Gold.Chemscore.ZeroCoef>
-5.4800

> <Gold.Chemscore.Hbond>
2.7660

> <Gold.Chemscore.Metal>
0.0000

> <Gold.Chemscore.Lipo>
59.8365

> <Gold.Chemscore.Internal_Hbond>
0.0000

> <Gold.Chemscore.DEClash>
0.3669

> <Gold.Chemscore.DEInternal>
0.8155

> <Gold.Chemscore.Rot>
2.8473

> <Gold.Chemscore.Internal.Correction>
   9.000000E+99

> <Gold.Chemscore.Hbonds>
donor molecule, donor type, donor heavy atom, donor atom, acceptor molecule, acceptor atom, score
      L1  H     3    20       P1  7957  0.92
      L1  H     3    34       P1  7948  0.91
      L1  H     7    26       P1  7948  0.99

> <Gold.Chemscore.Hbond.Weighted>
-9.2384

> <Gold.Chemscore.Metal.Weighted>
-0.0000

> <Gold.Chemscore.Lipo.Weighted>
-7.0009

> <Gold.Chemscore.Internal_Hbond.Weighted>
0.0000

> <Gold.Chemscore.DEClash.Weighted>
0.3669

> <Gold.Chemscore.DEInternal.Weighted>
0.8155

> <Gold.Chemscore.Rot.Weighted>
7.2892

> <Gold.Chemscore.Internal.Correction.Weighted>
   9.000000E+99

> <Gold.Protein.RotatedTorsions>
[ 6907 6896 6895 6894 ] final  -32.87 input  -60.11 | X-H torsion
[ 7974 7965 7964 7962 ] final  -41.26 input  175.53 | X-H torsion
[ 8008 7997 7996 7995 ] final   22.29 input   59.86 | X-H torsion
[ 10167 10162 10161 10158 ] final  -96.13 input  -65.29 | X-H torsion
[ 10718 10713 10712 10709 ] final  -34.35 input   66.30 | X-H torsion
[ 10763 10752 10751 10750 ] final    3.34 input  -60.55 | X-H torsion
[ 11005 11000 10999 10996 ] final  121.36 input  -57.11 | X-H torsion

> <Gold.Protein.ActiveResidues>
 VAL166  LYS551  ARG553  GLY616  TRP617  ASP618  TYR619  PRO620  LYS621  CYS622 
 ASP623  PHE694  ASN695  SER759  ASP760  ASP761  ALA762  ILE779  LEU786  VAL792 
 PHE793  MET794  SER795  GLU796  ALA797  LYS798  CYS799  TRP800  GLU811  SER814 

> <Gold.Protein.RotatedAtoms>
  151.0730  134.9811  159.8318 H   0  0  0  0  0  0  0  0  0  0  0  0  # atno 6907 bound_to 6896
  152.5411  134.2275  159.8822 H   0  0  0  0  0  0  0  0  0  0  0  0  # atno 6908 bound_to 6896
  151.2301  133.4411  159.2637 H   0  0  0  0  0  0  0  0  0  0  0  0  # atno 6909 bound_to 6896
  146.0227  140.6830  142.9170 H   0  0  0  0  0  0  0  0  0  0  0  0  # atno 7974 bound_to 7965
  154.9635  140.3081  155.5020 H   0  0  0  0  0  0  0  0  0  0  0  0  # atno 8008 bound_to 7997
  156.2974  140.2297  156.4661 H   0  0  0  0  0  0  0  0  0  0  0  0  # atno 8009 bound_to 7997
  154.7942  140.0438  157.1213 H   0  0  0  0  0  0  0  0  0  0  0  0  # atno 8010 bound_to 7997
  140.2970  143.3186  152.0287 H   0  0  0  0  0  0  0  0  0  0  0  0  # atno 10167 bound_to 10162
  156.3516  130.4309  149.7699 H   0  0  0  0  0  0  0  0  0  0  0  0  # atno 10718 bound_to 10713
  153.2845  135.6943  153.7353 H   0  0  0  0  0  0  0  0  0  0  0  0  # atno 10763 bound_to 10752
  153.6328  135.3407  155.3048 H   0  0  0  0  0  0  0  0  0  0  0  0  # atno 10764 bound_to 10752
  154.8505  135.4413  154.1908 H   0  0  0  0  0  0  0  0  0  0  0  0  # atno 10765 bound_to 10752
  139.9223  134.9638  156.7946 H   0  0  0  0  0  0  0  0  0  0  0  0  # atno 11005 bound_to 11000
  144.6997  140.3595  143.7166 LP  0  0  0  0  0  0  0  0  0  0  0  0  # atno 17320 bound_to 7965
  145.7167  139.1699  143.2508 LP  0  0  0  0  0  0  0  0  0  0  0  0  # atno 17321 bound_to 7965
  139.4924  144.6484  151.6729 LP  0  0  0  0  0  0  0  0  0  0  0  0  # atno 17342 bound_to 10162
  140.5684  144.0151  150.6204 LP  0  0  0  0  0  0  0  0  0  0  0  0  # atno 17343 bound_to 10162
  156.4898  130.8079  151.3090 LP  0  0  0  0  0  0  0  0  0  0  0  0  # atno 17370 bound_to 10713
  157.7462  130.9979  150.2833 LP  0  0  0  0  0  0  0  0  0  0  0  0  # atno 17371 bound_to 10713
  140.6439  133.9793  155.7721 LP  0  0  0  0  0  0  0  0  0  0  0  0  # atno 17394 bound_to 11000
  141.0753  134.0144  157.3467 LP  0  0  0  0  0  0  0  0  0  0  0  0  # atno 17395 bound_to 11000

$$$$
