AV-unprocessed.smi:843|AV-procd|sdf|3922|dock1
  -GOLD-   22720 1383D 1   1.00000     0.00000
 Structure written by MMmdl.
 46 47  0  0  0  0  0  0  0  0  2 V2000
  145.3851  132.1302  149.3722 C   0  0  0  0  0  0  0  0  0  0  0  0
  143.9264  132.6068  149.4361 C   0  0  0  0  0  0  0  0  0  0  0  0
  143.7334  133.7427  150.3729 N   0  3  2  0  0  0  0  0  0  0  0  0
  144.8840  134.6833  150.3520 C   0  0  0  0  0  0  0  0  0  0  0  0
  144.6223  135.9158  151.2382 C   0  0  0  0  0  0  0  0  0  0  0  0
  144.2723  135.5298  152.6876 C   0  0  2  0  0  0  0  0  0  0  0  0
  145.5116  135.0442  153.4768 C   0  0  0  0  0  0  0  0  0  0  0  0
  146.6243  135.9869  153.4000 N   0  0  0  0  0  0  0  0  0  0  0  0
  146.6510  137.2071  153.9558 C   0  0  0  0  0  0  0  0  0  0  0  0
  145.7217  137.6706  154.6159 O   0  0  0  0  0  0  0  0  0  0  0  0
  147.8123  137.8314  153.6953 N   0  0  0  0  0  0  0  0  0  0  0  0
  148.2311  139.1423  154.0595 C   0  0  0  0  0  0  0  0  0  0  0  0
  147.3841  140.2779  154.0504 C   0  0  0  0  0  0  0  0  0  0  0  0
  147.9141  141.5293  154.4146 C   0  0  0  0  0  0  0  0  0  0  0  0
  149.2731  141.6048  154.7684 C   0  0  0  0  0  0  0  0  0  0  0  0
  150.0954  140.5359  154.7701 N   0  0  0  0  0  0  0  0  0  0  0  0
  149.5870  139.3281  154.4190 C   0  0  0  0  0  0  0  0  0  0  0  0
  150.4346  138.2365  154.4131 O   0  0  0  0  0  0  0  0  0  0  0  0
  151.8198  138.4499  154.6626 C   0  0  0  0  0  0  0  0  0  0  0  0
  143.1004  134.5271  152.6547 C   0  0  0  0  0  0  0  0  0  0  0  0
  143.4010  133.3141  151.7572 C   0  0  0  0  0  0  0  0  0  0  0  0
  145.4660  131.2289  148.7643 H   0  0  0  0  0  0  0  0  0  0  0  0
  145.7669  131.8926  150.3655 H   0  0  0  0  0  0  0  0  0  0  0  0
  146.0423  132.8763  148.9265 H   0  0  0  0  0  0  0  0  0  0  0  0
  143.5653  132.8751  148.4421 H   0  0  0  0  0  0  0  0  0  0  0  0
  143.3183  131.7645  149.7687 H   0  0  0  0  0  0  0  0  0  0  0  0
  145.7875  134.1636  150.6736 H   0  0  0  0  0  0  0  0  0  0  0  0
  145.0641  135.0162  149.3293 H   0  0  0  0  0  0  0  0  0  0  0  0
  145.4879  136.5789  151.2214 H   0  0  0  0  0  0  0  0  0  0  0  0
  143.7974  136.4884  150.8121 H   0  0  0  0  0  0  0  0  0  0  0  0
  143.9176  136.4322  153.1880 H   0  0  0  0  0  0  0  0  0  0  0  0
  145.2597  134.8275  154.5155 H   0  0  0  0  0  0  0  0  0  0  0  0
  145.8614  134.1012  153.0557 H   0  0  0  0  0  0  0  0  0  0  0  0
  147.4364  135.6873  152.8802 H   0  0  0  0  0  0  0  0  0  0  0  0
  148.5035  137.2881  153.1988 H   0  0  0  0  0  0  0  0  0  0  0  0
  146.3469  140.2239  153.7609 H   0  0  0  0  0  0  0  0  0  0  0  0
  147.2925  142.4124  154.4177 H   0  0  0  0  0  0  0  0  0  0  0  0
  149.7135  142.5493  155.0516 H   0  0  0  0  0  0  0  0  0  0  0  0
  152.3468  137.4973  154.6106 H   0  0  0  0  0  0  0  0  0  0  0  0
  151.9867  138.8663  155.6571 H   0  0  0  0  0  0  0  0  0  0  0  0
  152.2624  139.1124  153.9173 H   0  0  0  0  0  0  0  0  0  0  0  0
  142.8370  134.1969  153.6589 H   0  0  0  0  0  0  0  0  0  0  0  0
  142.2121  135.0325  152.2733 H   0  0  0  0  0  0  0  0  0  0  0  0
  142.5268  132.6645  151.7522 H   0  0  0  0  0  0  0  0  0  0  0  0
  144.2233  132.7270  152.1675 H   0  0  0  0  0  0  0  0  0  0  0  0
  142.9392  134.2639  150.0296 H   0  0  0  0  0  0  0  0  0  0  0  0
  1  2  1  0  0  0  0
  1 22  1  0  0  0  0
  1 23  1  0  0  0  0
  1 24  1  0  0  0  0
  2  3  1  0  0  0  0
  2 25  1  0  0  0  0
  2 26  1  0  0  0  0
  3 21  1  0  0  0  0
  3  4  1  0  0  0  0
  3 46  1  0  0  0  0
  4  5  1  0  0  0  0
  4 27  1  0  0  0  0
  4 28  1  0  0  0  0
  5  6  1  0  0  0  0
  5 29  1  0  0  0  0
  5 30  1  0  0  0  0
  6  7  1  0  0  0  0
  6 20  1  0  0  0  0
  6 31  1  0  0  0  0
  7  8  1  0  0  0  0
  7 32  1  0  0  0  0
  7 33  1  0  0  0  0
  8  9  1  0  0  0  0
  8 34  1  0  0  0  0
  9 10  2  0  0  0  0
  9 11  1  0  0  0  0
 11 12  1  0  0  0  0
 11 35  1  0  0  0  0
 12 17  1  0  0  0  0
 12 13  2  0  0  0  0
 13 14  1  0  0  0  0
 13 36  1  0  0  0  0
 14 15  2  0  0  0  0
 14 37  1  0  0  0  0
 15 16  1  0  0  0  0
 15 38  1  0  0  0  0
 16 17  2  0  0  0  0
 17 18  1  0  0  0  0
 18 19  1  0  0  0  0
 19 39  1  0  0  0  0
 19 40  1  0  0  0  0
 19 41  1  0  0  0  0
 20 21  1  0  0  0  0
 20 42  1  0  0  0  0
 20 43  1  0  0  0  0
 21 44  1  0  0  0  0
 21 45  1  0  0  0  0
M  CHG  1   3   1
M  END
> <s_m_source_file>
AV-unprocessed.smi

> <i_m_source_file_index>
843

> <i_lp_mmshare_version>
43012

> <i_f3d_flags>
0

> <s_epik_input>
W0NIM11bQ0gyXU4xW0NIMl1bQ0gyXVtDSF0oW0NIMl1bQ0gyXTEpW0NIMl1bTkhdQyg9TylbTkhdYzJbY0hdW2NIXVtjSF1uYzJPW0NIM10=

> <s_epik_cmdline>
J2VwaWtfcHl0aG9uJywgJy1waCcsICc3LjAnLCAnLXRuJywgJzgnLCAnLW1hJywgJzIwMCcsICctbWV0YWxfYmluZGluZycsICctaW1hZScsICc8aW5maWxlLm1hZT4nLCAnLW9tYWUnLCAnPG91dGZpbGUubWFlPic=

> <r_lp_tautomer_probability>
1

> <r_epik_Ionization_Penalty>
0.00115026

> <r_epik_Ionization_Penalty_Charging>
0.00106265

> <r_epik_Ionization_Penalty_Neutral>
8.76119e-05

> <r_epik_State_Penalty>
0.000695551

> <r_epik_Charging_Adjusted_Penalty>
0.0017582

> <i_epik_Tot_Q>
1

> <i_epik_Tot_abs_Q>
1

> <r_epik_Metal_State_Penalty>
-0

> <b_epik_Metal_Only>
0

> <s_lp_Force_Field>
OPLS_2005

> <r_lp_Energy>
22.0854

> <b_lp_Chiralities_Consistent>
1

> <s_lp_Variant>
AV-unprocessed.smi:843-2

> <Gold.Version>
5.8.1

> <Gold.Id.Protein>
6NUR|6NUR_protein|mol2

> <Gold.PLP.Fitness>
54.7702

> <Gold.PLP.PLP>
-38.5335

> <Gold.PLP.part.hbond>
-4.0000

> <Gold.PLP.part.metal>
0.0000

> <Gold.PLP.part.buried>
-2.2541

> <Gold.PLP.part.nonpolar>
-32.1247

> <Gold.PLP.part.repulsive>
0.4136

> <Gold.PLP.ligand.clash>
0.0000

> <Gold.PLP.ligand.torsion>
0.6854

> <Gold.PLP.Chemscore.Hbond>
4.8240

> <Gold.PLP.Chemscore.CHOScore>
1.0000

> <Gold.PLP.Chemscore.Metal>
0.0000

> <Gold.Chemscore.Hbonds>
donor molecule, donor type, donor heavy atom, donor atom, acceptor molecule, acceptor atom, score
      L1  H     3    46       P1 10186  2.00
      L1  H     8    34       P1  7948  0.94
      L1  H    11    35       P1  7948  1.00
      P1  H  7989  7998       L1    16  0.91
      L1  C    15    38       P1  8028  1.00

> <Gold.PLP.Chemscore.Internal.Correction>
0.1356

> <Gold.Rescore>
     Score         DG    S(hbond)    S(metal)    S(lipo)     H(rot)  DE(clash)    DE(int)     intcor
     22.06     -23.02       3.41        0.00      88.77       1.65       0.35       0.61       ----

> <Gold.Chemscore.Fitness>
22.0575

> <Gold.Chemscore.DG>
-23.0194

> <Gold.Chemscore.ZeroCoef>
-5.4800

> <Gold.Chemscore.Hbond>
3.4059

> <Gold.Chemscore.Metal>
0.0000

> <Gold.Chemscore.Lipo>
88.7671

> <Gold.Chemscore.Internal_Hbond>
0.0000

> <Gold.Chemscore.DEClash>
0.3515

> <Gold.Chemscore.DEInternal>
0.6104

> <Gold.Chemscore.Rot>
1.6492

> <Gold.Chemscore.Internal.Correction>
   9.000000E+99

> <Gold.Chemscore.Hbonds>
donor molecule, donor type, donor heavy atom, donor atom, acceptor molecule, acceptor atom, score
      L1  H     3    46       P1 10186  0.90
      L1  H     8    34       P1  7948  0.91
      L1  H    11    35       P1  7948  0.95
      P1  H  7989  7998       L1    16  0.33

> <Gold.Chemscore.Hbond.Weighted>
-11.3756

> <Gold.Chemscore.Metal.Weighted>
-0.0000

> <Gold.Chemscore.Lipo.Weighted>
-10.3858

> <Gold.Chemscore.Internal_Hbond.Weighted>
0.0000

> <Gold.Chemscore.DEClash.Weighted>
0.3515

> <Gold.Chemscore.DEInternal.Weighted>
0.6104

> <Gold.Chemscore.Rot.Weighted>
4.2219

> <Gold.Chemscore.Internal.Correction.Weighted>
   9.000000E+99

> <Gold.Protein.RotatedTorsions>
[ 6907 6896 6895 6894 ] final   84.23 input  -60.11 | X-H torsion
[ 7974 7965 7964 7962 ] final -119.79 input  175.53 | X-H torsion
[ 8008 7997 7996 7995 ] final   79.58 input   59.86 | X-H torsion
[ 10167 10162 10161 10158 ] final -179.23 input  -65.29 | X-H torsion
[ 10718 10713 10712 10709 ] final   71.06 input   66.30 | X-H torsion
[ 10763 10752 10751 10750 ] final -173.53 input  -60.55 | X-H torsion
[ 11005 11000 10999 10996 ] final -131.20 input  -57.11 | X-H torsion

> <Gold.Protein.ActiveResidues>
 VAL166  LYS551  ARG553  GLY616  TRP617  ASP618  TYR619  PRO620  LYS621  CYS622 
 ASP623  PHE694  ASN695  SER759  ASP760  ASP761  ALA762  ILE779  LEU786  VAL792 
 PHE793  MET794  SER795  GLU796  ALA797  LYS798  CYS799  TRP800  GLU811  SER814 

> <Gold.Protein.RotatedAtoms>
  152.5347  134.2774  159.8994 H   0  0  0  0  0  0  0  0  0  0  0  0  # atno 6907 bound_to 6896
  151.2729  133.4240  159.2630 H   0  0  0  0  0  0  0  0  0  0  0  0  # atno 6908 bound_to 6896
  151.0352  134.9583  159.8189 H   0  0  0  0  0  0  0  0  0  0  0  0  # atno 6909 bound_to 6896
  145.0586  140.8273  143.4166 H   0  0  0  0  0  0  0  0  0  0  0  0  # atno 7974 bound_to 7965
  155.8717  140.3448  155.5825 H   0  0  0  0  0  0  0  0  0  0  0  0  # atno 8008 bound_to 7997
  155.7820  140.0860  157.2073 H   0  0  0  0  0  0  0  0  0  0  0  0  # atno 8009 bound_to 7997
  154.4018  140.1499  156.3051 H   0  0  0  0  0  0  0  0  0  0  0  0  # atno 8010 bound_to 7997
  139.5396  144.2401  152.0867 H   0  0  0  0  0  0  0  0  0  0  0  0  # atno 10167 bound_to 10162
  157.6432  130.9509  150.0737 H   0  0  0  0  0  0  0  0  0  0  0  0  # atno 10718 bound_to 10713
  154.6067  135.2860  155.0476 H   0  0  0  0  0  0  0  0  0  0  0  0  # atno 10763 bound_to 10752
  154.1721  135.6471  153.5016 H   0  0  0  0  0  0  0  0  0  0  0  0  # atno 10764 bound_to 10752
  153.0178  135.5403  154.6806 H   0  0  0  0  0  0  0  0  0  0  0  0  # atno 10765 bound_to 10752
  140.9279  134.1358  157.4259 H   0  0  0  0  0  0  0  0  0  0  0  0  # atno 11005 bound_to 11000
  145.1437  139.2557  143.5477 LP  0  0  0  0  0  0  0  0  0  0  0  0  # atno 17320 bound_to 7965
  146.3523  140.1121  142.8603 LP  0  0  0  0  0  0  0  0  0  0  0  0  # atno 17321 bound_to 7965
  140.1877  144.4782  150.6495 LP  0  0  0  0  0  0  0  0  0  0  0  0  # atno 17342 bound_to 10162
  140.6619  143.2255  151.5835 LP  0  0  0  0  0  0  0  0  0  0  0  0  # atno 17343 bound_to 10162
  156.1734  130.3647  149.9134 LP  0  0  0  0  0  0  0  0  0  0  0  0  # atno 17370 bound_to 10713
  156.7104  130.8968  151.3609 LP  0  0  0  0  0  0  0  0  0  0  0  0  # atno 17371 bound_to 10713
  139.8789  134.9995  156.5956 LP  0  0  0  0  0  0  0  0  0  0  0  0  # atno 17394 bound_to 11000
  140.7901  133.8589  155.8639 LP  0  0  0  0  0  0  0  0  0  0  0  0  # atno 17395 bound_to 11000

$$$$
