AV-unprocessed.smi:1419|AV-procd|sdf|5779|dock3
  -GOLD-   22720 5423D 1   1.00000     0.00000
 Structure written by MMmdl.
 42 43  0  0  0  0  0  0  0  0  2 V2000
  146.5427  129.3393  152.3342 C   0  0  0  0  0  0  0  0  0  0  0  0
  147.0440  130.7661  152.6099 C   0  0  1  0  0  0  0  0  0  0  0  0
  145.8986  131.7704  152.8681 C   0  0  0  0  0  0  0  0  0  0  0  0
  145.2046  132.1748  151.6425 N   0  0  0  0  0  0  0  0  0  0  0  0
  145.6202  131.9917  150.3486 C   0  0  0  0  0  0  0  0  0  0  0  0
  144.6466  132.5291  149.5462 C   0  0  0  0  0  0  0  0  0  0  0  0
  143.6777  133.0138  150.3838 N   0  3  0  0  0  0  0  0  0  0  0  0
  144.0177  132.7948  151.6582 C   0  0  0  0  0  0  0  0  0  0  0  0
  147.9586  130.7386  153.7471 N   0  0  0  0  0  0  0  0  0  0  0  0
  148.9890  131.5794  153.9429 C   0  0  0  0  0  0  0  0  0  0  0  0
  149.2582  132.4801  153.1467 O   0  0  0  0  0  0  0  0  0  0  0  0
  149.6923  131.3591  155.0812 N   0  0  0  0  0  0  0  0  0  0  0  0
  149.1993  130.7513  156.3240 C   0  0  0  0  0  0  0  0  0  0  0  0
  149.1348  131.8480  157.4043 C   0  0  1  0  0  0  0  0  0  0  0  0
  148.6968  131.2923  158.7638 C   0  0  0  0  0  0  0  0  0  0  0  0
  150.4284  132.4362  157.5648 O   0  0  0  0  0  0  0  0  0  0  0  0
  151.0275  132.9573  156.3735 C   0  0  2  0  0  0  0  0  0  0  0  0
  150.3519  134.2688  155.9330 C   0  0  0  0  0  0  0  0  0  0  0  0
  151.0515  131.8670  155.2811 C   0  0  0  0  0  0  0  0  0  0  0  0
  145.9298  129.2965  151.4337 H   0  0  0  0  0  0  0  0  0  0  0  0
  145.9435  128.9627  153.1638 H   0  0  0  0  0  0  0  0  0  0  0  0
  147.3773  128.6524  152.1881 H   0  0  0  0  0  0  0  0  0  0  0  0
  147.6035  131.0907  151.7305 H   0  0  0  0  0  0  0  0  0  0  0  0
  145.1583  131.3410  153.5446 H   0  0  0  0  0  0  0  0  0  0  0  0
  146.2734  132.6767  153.3463 H   0  0  0  0  0  0  0  0  0  0  0  0
  146.5542  131.5081  150.1016 H   0  0  0  0  0  0  0  0  0  0  0  0
  144.5729  132.6007  148.4707 H   0  0  0  0  0  0  0  0  0  0  0  0
  143.4475  133.0670  152.5288 H   0  0  0  0  0  0  0  0  0  0  0  0
  147.7992  130.0241  154.4425 H   0  0  0  0  0  0  0  0  0  0  0  0
  148.2271  130.2686  156.2246 H   0  0  0  0  0  0  0  0  0  0  0  0
  149.8856  129.9608  156.6318 H   0  0  0  0  0  0  0  0  0  0  0  0
  148.4195  132.6147  157.1042 H   0  0  0  0  0  0  0  0  0  0  0  0
  147.7075  130.8383  158.7028 H   0  0  0  0  0  0  0  0  0  0  0  0
  148.6534  132.0838  159.5123 H   0  0  0  0  0  0  0  0  0  0  0  0
  149.3924  130.5329  159.1222 H   0  0  0  0  0  0  0  0  0  0  0  0
  152.0598  133.1985  156.6289 H   0  0  0  0  0  0  0  0  0  0  0  0
  150.8724  134.7024  155.0789 H   0  0  0  0  0  0  0  0  0  0  0  0
  150.3707  135.0036  156.7381 H   0  0  0  0  0  0  0  0  0  0  0  0
  149.3125  134.1248  155.6397 H   0  0  0  0  0  0  0  0  0  0  0  0
  151.6961  131.0437  155.5927 H   0  0  0  0  0  0  0  0  0  0  0  0
  151.4990  132.2612  154.3677 H   0  0  0  0  0  0  0  0  0  0  0  0
  142.8256  133.4716  150.0845 H   0  0  0  0  0  0  0  0  0  0  0  0
  1  2  1  0  0  0  0
  1 20  1  0  0  0  0
  1 21  1  0  0  0  0
  1 22  1  0  0  0  0
  2  3  1  0  0  0  0
  2  9  1  0  0  0  0
  2 23  1  0  0  0  0
  3  4  1  0  0  0  0
  3 24  1  0  0  0  0
  3 25  1  0  0  0  0
  4  8  1  0  0  0  0
  4  5  1  0  0  0  0
  5  6  2  0  0  0  0
  5 26  1  0  0  0  0
  6  7  1  0  0  0  0
  6 27  1  0  0  0  0
  7  8  2  0  0  0  0
  7 42  1  0  0  0  0
  8 28  1  0  0  0  0
  9 10  1  0  0  0  0
  9 29  1  0  0  0  0
 10 11  2  0  0  0  0
 10 12  1  0  0  0  0
 12 19  1  0  0  0  0
 12 13  1  0  0  0  0
 13 14  1  0  0  0  0
 13 30  1  0  0  0  0
 13 31  1  0  0  0  0
 14 15  1  0  0  0  0
 14 16  1  0  0  0  0
 14 32  1  0  0  0  0
 15 33  1  0  0  0  0
 15 34  1  0  0  0  0
 15 35  1  0  0  0  0
 16 17  1  0  0  0  0
 17 18  1  0  0  0  0
 17 19  1  0  0  0  0
 17 36  1  0  0  0  0
 18 37  1  0  0  0  0
 18 38  1  0  0  0  0
 18 39  1  0  0  0  0
 19 40  1  0  0  0  0
 19 41  1  0  0  0  0
M  CHG  1   7   1
M  END
> <s_m_source_file>
AV-unprocessed.smi

> <i_m_source_file_index>
1419

> <i_lp_mmshare_version>
43012

> <i_f3d_flags>
0

> <s_epik_input>
W2NIXTFuW2NIXVtjSF1uMVtDSDJdW0NAQEhdKFtDSDNdKVtOSF1DKD1PKU4yW0NIMl1bQ0BASF0oW0NIM10pT1tDQEBIXShbQ0gzXSlbQ0gyXTI=

> <s_epik_cmdline>
J2VwaWtfcHl0aG9uJywgJy1waCcsICc3LjAnLCAnLXRuJywgJzgnLCAnLW1hJywgJzIwMCcsICctbWV0YWxfYmluZGluZycsICctaW1hZScsICc8aW5maWxlLm1hZT4nLCAnLW9tYWUnLCAnPG91dGZpbGUubWFlPic=

> <r_lp_tautomer_probability>
1

> <r_epik_Ionization_Penalty>
0.253607

> <r_epik_Ionization_Penalty_Charging>
0

> <r_epik_Ionization_Penalty_Neutral>
0.253607

> <r_epik_State_Penalty>
0.245018

> <r_epik_Charging_Adjusted_Penalty>
0.245018

> <i_epik_Tot_Q>
1

> <i_epik_Tot_abs_Q>
1

> <r_epik_Metal_State_Penalty>
0.535379

> <b_epik_Metal_Only>
0

> <s_lp_Force_Field>
OPLS_2005

> <r_lp_Energy>
32.7532

> <b_lp_Chiralities_Consistent>
1

> <s_lp_Variant>
AV-unprocessed.smi:1419-6

> <Gold.Version>
5.8.1

> <Gold.Id.Protein>
6NUR|6NUR_protein|mol2

> <Gold.PLP.Fitness>
40.7864

> <Gold.PLP.PLP>
-29.0924

> <Gold.PLP.part.hbond>
-1.9932

> <Gold.PLP.part.metal>
0.0000

> <Gold.PLP.part.buried>
-4.3994

> <Gold.PLP.part.nonpolar>
-23.4670

> <Gold.PLP.part.repulsive>
0.2283

> <Gold.PLP.ligand.clash>
0.0000

> <Gold.PLP.ligand.torsion>
0.9330

> <Gold.PLP.Chemscore.Hbond>
3.0000

> <Gold.PLP.Chemscore.CHOScore>
1.5074

> <Gold.PLP.Chemscore.Metal>
0.0000

> <Gold.Chemscore.Hbonds>
donor molecule, donor type, donor heavy atom, donor atom, acceptor molecule, acceptor atom, score
      L1  H     7    42       P1 10186  1.56
      P1  H  6896  6908       L1    16  0.94
      L1  C     5    26       P1 10747  1.00
      L1  C     8    28       P1 10957  0.57

> <Gold.PLP.Chemscore.Internal.Correction>
0.0376

> <Gold.Rescore>
     Score         DG    S(hbond)    S(metal)    S(lipo)     H(rot)  DE(clash)    DE(int)     intcor
     14.53     -15.34       1.96        0.00      63.91       1.63       0.07       0.74       ----

> <Gold.Chemscore.Fitness>
14.5274

> <Gold.Chemscore.DG>
-15.3387

> <Gold.Chemscore.ZeroCoef>
-5.4800

> <Gold.Chemscore.Hbond>
1.9601

> <Gold.Chemscore.Metal>
0.0000

> <Gold.Chemscore.Lipo>
63.9141

> <Gold.Chemscore.Internal_Hbond>
0.0000

> <Gold.Chemscore.DEClash>
0.0731

> <Gold.Chemscore.DEInternal>
0.7382

> <Gold.Chemscore.Rot>
1.6273

> <Gold.Chemscore.Internal.Correction>
   9.000000E+99

> <Gold.Chemscore.Hbonds>
donor molecule, donor type, donor heavy atom, donor atom, acceptor molecule, acceptor atom, score
      L1  H     7    42       P1 10186  0.77
      P1  H  6896  6908       L1    16  0.67

> <Gold.Chemscore.Hbond.Weighted>
-6.5466

> <Gold.Chemscore.Metal.Weighted>
-0.0000

> <Gold.Chemscore.Lipo.Weighted>
-7.4780

> <Gold.Chemscore.Internal_Hbond.Weighted>
0.0000

> <Gold.Chemscore.DEClash.Weighted>
0.0731

> <Gold.Chemscore.DEInternal.Weighted>
0.7382

> <Gold.Chemscore.Rot.Weighted>
4.1658

> <Gold.Chemscore.Internal.Correction.Weighted>
   9.000000E+99

> <Gold.Protein.RotatedTorsions>
[ 6907 6896 6895 6894 ] final   90.63 input  -60.11 | X-H torsion
[ 7974 7965 7964 7962 ] final  -47.67 input  175.53 | X-H torsion
[ 8008 7997 7996 7995 ] final  -91.98 input   59.86 | X-H torsion
[ 10167 10162 10161 10158 ] final  -73.73 input  -65.29 | X-H torsion
[ 10718 10713 10712 10709 ] final  178.46 input   66.30 | X-H torsion
[ 10763 10752 10751 10750 ] final   37.43 input  -60.55 | X-H torsion
[ 11005 11000 10999 10996 ] final  -91.56 input  -57.11 | X-H torsion

> <Gold.Protein.ActiveResidues>
 VAL166  LYS551  ARG553  GLY616  TRP617  ASP618  TYR619  PRO620  LYS621  CYS622 
 ASP623  PHE694  ASN695  SER759  ASP760  ASP761  ALA762  ILE779  LEU786  VAL792 
 PHE793  MET794  SER795  GLU796  ALA797  LYS798  CYS799  TRP800  GLU811  SER814 

> <Gold.Protein.RotatedAtoms>
  152.5445  134.1782  159.8624 H   0  0  0  0  0  0  0  0  0  0  0  0  # atno 6907 bound_to 6896
  151.1787  133.4732  159.2601 H   0  0  0  0  0  0  0  0  0  0  0  0  # atno 6908 bound_to 6896
  151.1201  135.0086  159.8589 H   0  0  0  0  0  0  0  0  0  0  0  0  # atno 6909 bound_to 6896
  145.9592  140.7496  142.9466 H   0  0  0  0  0  0  0  0  0  0  0  0  # atno 7974 bound_to 7965
  154.7174  140.0514  157.0608 H   0  0  0  0  0  0  0  0  0  0  0  0  # atno 8008 bound_to 7997
  155.0473  140.3175  155.4685 H   0  0  0  0  0  0  0  0  0  0  0  0  # atno 8009 bound_to 7997
  156.2807  140.2122  156.5598 H   0  0  0  0  0  0  0  0  0  0  0  0  # atno 8010 bound_to 7997
  140.5086  143.2348  151.7632 H   0  0  0  0  0  0  0  0  0  0  0  0  # atno 10167 bound_to 10162
  156.8902  130.9845  151.3050 H   0  0  0  0  0  0  0  0  0  0  0  0  # atno 10718 bound_to 10713
  153.0038  135.6278  154.2144 H   0  0  0  0  0  0  0  0  0  0  0  0  # atno 10763 bound_to 10752
  154.1887  135.2809  155.3030 H   0  0  0  0  0  0  0  0  0  0  0  0  # atno 10764 bound_to 10752
  154.5777  135.5657  153.7214 H   0  0  0  0  0  0  0  0  0  0  0  0  # atno 10765 bound_to 10752
  141.1542  133.7764  156.9897 H   0  0  0  0  0  0  0  0  0  0  0  0  # atno 11005 bound_to 11000
  144.6811  140.2563  143.7325 LP  0  0  0  0  0  0  0  0  0  0  0  0  # atno 17320 bound_to 7965
  145.8063  139.1985  143.2019 LP  0  0  0  0  0  0  0  0  0  0  0  0  # atno 17321 bound_to 7965
  139.4890  144.4423  151.9751 LP  0  0  0  0  0  0  0  0  0  0  0  0  # atno 17342 bound_to 10162
  140.3514  144.3084  150.5948 LP  0  0  0  0  0  0  0  0  0  0  0  0  # atno 17343 bound_to 10162
  157.6088  130.8567  149.8919 LP  0  0  0  0  0  0  0  0  0  0  0  0  # atno 17370 bound_to 10713
  156.0633  130.3696  150.0934 LP  0  0  0  0  0  0  0  0  0  0  0  0  # atno 17371 bound_to 10713
  140.1011  134.9535  157.1924 LP  0  0  0  0  0  0  0  0  0  0  0  0  # atno 17394 bound_to 11000
  140.3317  134.2802  155.7227 LP  0  0  0  0  0  0  0  0  0  0  0  0  # atno 17395 bound_to 11000

$$$$
