AV-unprocessed.smi:101|AV-procd|sdf|938|dock5
  -GOLD-   2262017453D 1   1.00000     0.00000
 Structure written by MMmdl.
 43 45  0  0  0  0  0  0  0  0  2 V2000
  146.0109  137.5082  152.0593 C   0  0  0  0  0  0  0  0  0  0  0  0
  146.0995  138.0002  153.4934 C   0  0  0  0  0  0  0  0  0  0  0  0
  146.7074  139.1621  153.8210 C   0  0  0  0  0  0  0  0  0  0  0  0
  146.7858  139.6044  155.1301 N   0  0  0  0  0  0  0  0  0  0  0  0
  147.4543  140.9163  155.4701 C   0  0  1  0  0  0  0  0  0  0  0  0
  148.4901  140.6779  156.3765 O   0  0  0  0  0  0  0  0  0  0  0  0
  149.6412  141.4180  155.9937 C   0  0  1  0  0  0  0  0  0  0  0  0
  150.9190  140.7940  156.5724 C   0  0  0  0  0  0  0  0  0  0  0  0
  151.0568  141.1821  157.9293 O   0  0  0  0  0  0  0  0  0  0  0  0
  152.2324  141.0083  158.5634 C   0  0  0  0  0  0  0  0  0  0  0  0
  153.0893  140.1993  158.2014 O   0  0  0  0  0  0  0  0  0  0  0  0
  152.3912  141.9011  159.7476 C   0  0  0  0  0  0  0  0  0  0  0  0
  151.7305  143.1518  159.7661 C   0  0  0  0  0  0  0  0  0  0  0  0
  151.8597  144.0152  160.8712 C   0  0  0  0  0  0  0  0  0  0  0  0
  152.6513  143.6385  161.9718 C   0  0  0  0  0  0  0  0  0  0  0  0
  153.3156  142.3982  161.9648 C   0  0  0  0  0  0  0  0  0  0  0  0
  153.1881  141.5335  160.8602 C   0  0  0  0  0  0  0  0  0  0  0  0
  149.5588  141.4595  154.4636 C   0  0  1  0  0  0  0  0  0  0  0  0
  150.0881  140.2777  153.8897 O   0  0  0  0  0  0  0  0  0  0  0  0
  148.0606  141.5517  154.2056 C   0  0  2  0  0  0  0  0  0  0  0  0
  147.6658  142.9025  154.0776 O   0  0  0  0  0  0  0  0  0  0  0  0
  146.1839  138.8448  156.1659 C   0  0  0  0  0  0  0  0  0  0  0  0
  146.2309  139.2905  157.3130 O   0  0  0  0  0  0  0  0  0  0  0  0
  145.5755  137.6674  155.8461 N   0  5  0  0  0  0  0  0  0  0  0  0
  145.5033  137.1967  154.5677 C   0  0  0  0  0  0  0  0  0  0  0  0
  144.9554  136.1291  154.2941 O   0  0  0  0  0  0  0  0  0  0  0  0
  146.4993  138.1999  151.3724 H   0  0  0  0  0  0  0  0  0  0  0  0
  144.9688  137.4075  151.7545 H   0  0  0  0  0  0  0  0  0  0  0  0
  146.4948  136.5361  151.9605 H   0  0  0  0  0  0  0  0  0  0  0  0
  147.1369  139.7607  153.0316 H   0  0  0  0  0  0  0  0  0  0  0  0
  146.6952  141.5293  155.9593 H   0  0  0  0  0  0  0  0  0  0  0  0
  149.5266  142.4368  156.3688 H   0  0  0  0  0  0  0  0  0  0  0  0
  150.8906  139.7066  156.4864 H   0  0  0  0  0  0  0  0  0  0  0  0
  151.7873  141.1483  156.0151 H   0  0  0  0  0  0  0  0  0  0  0  0
  151.1162  143.4624  158.9332 H   0  0  0  0  0  0  0  0  0  0  0  0
  151.3500  144.9673  160.8740 H   0  0  0  0  0  0  0  0  0  0  0  0
  152.7493  144.3001  162.8198 H   0  0  0  0  0  0  0  0  0  0  0  0
  153.9247  142.1081  162.8082 H   0  0  0  0  0  0  0  0  0  0  0  0
  153.7130  140.5896  160.8867 H   0  0  0  0  0  0  0  0  0  0  0  0
  150.1085  142.3065  154.0507 H   0  0  0  0  0  0  0  0  0  0  0  0
  149.7210  140.1722  153.0257 H   0  0  0  0  0  0  0  0  0  0  0  0
  147.7584  141.0168  153.3032 H   0  0  0  0  0  0  0  0  0  0  0  0
  148.2299  143.4264  154.6267 H   0  0  0  0  0  0  0  0  0  0  0  0
  1  2  1  0  0  0  0
  1 27  1  0  0  0  0
  1 28  1  0  0  0  0
  1 29  1  0  0  0  0
  2 25  1  0  0  0  0
  2  3  2  0  0  0  0
  3  4  1  0  0  0  0
  3 30  1  0  0  0  0
  4  5  1  0  0  0  0
  4 22  1  0  0  0  0
  5 20  1  0  0  0  0
  5  6  1  0  0  0  0
  5 31  1  0  0  0  0
  6  7  1  0  0  0  0
  7  8  1  0  0  0  0
  7 18  1  0  0  0  0
  7 32  1  0  0  0  0
  8  9  1  0  0  0  0
  8 33  1  0  0  0  0
  8 34  1  0  0  0  0
  9 10  1  0  0  0  0
 10 11  2  0  0  0  0
 10 12  1  0  0  0  0
 12 17  1  0  0  0  0
 12 13  2  0  0  0  0
 13 14  1  0  0  0  0
 13 35  1  0  0  0  0
 14 15  2  0  0  0  0
 14 36  1  0  0  0  0
 15 16  1  0  0  0  0
 15 37  1  0  0  0  0
 16 17  2  0  0  0  0
 16 38  1  0  0  0  0
 17 39  1  0  0  0  0
 18 19  1  0  0  0  0
 18 20  1  0  0  0  0
 18 40  1  0  0  0  0
 19 41  1  0  0  0  0
 20 21  1  0  0  0  0
 20 42  1  0  0  0  0
 21 43  1  0  0  0  0
 22 23  2  0  0  0  0
 22 24  1  0  0  0  0
 24 25  1  0  0  0  0
 25 26  2  0  0  0  0
M  CHG  1  24  -1
M  END
> <s_m_source_file>
AV-unprocessed.smi

> <i_m_source_file_index>
101

> <i_lp_mmshare_version>
43012

> <i_f3d_flags>
0

> <s_epik_input>
Tz1jMVtuSF1jKD1PKW4oW2NIXWMxW0NIM10pW0NAQEhdMk9bQ0BIXShbQ0BASF0oW09IXSlbQ0BIXTJbT0hdKVtDSDJdT0MoPU8pYzNbY0hdW2NIXVtjSF1bY0hdW2NIXTM=

> <s_epik_cmdline>
J2VwaWtfcHl0aG9uJywgJy1waCcsICc3LjAnLCAnLXRuJywgJzgnLCAnLW1hJywgJzIwMCcsICctbWV0YWxfYmluZGluZycsICctaW1hZScsICc8aW5maWxlLm1hZT4nLCAnLW9tYWUnLCAnPG91dGZpbGUubWFlPic=

> <r_lp_tautomer_probability>
0.999537

> <r_epik_Ionization_Penalty>
3.21006

> <r_epik_Ionization_Penalty_Charging>
5.75142e-08

> <r_epik_Ionization_Penalty_Neutral>
3.21006

> <r_epik_State_Penalty>
3.20925

> <r_epik_Charging_Adjusted_Penalty>
3.20925

> <i_epik_Tot_Q>
-1

> <i_epik_Tot_abs_Q>
1

> <r_epik_Metal_State_Penalty>
0.119957

> <b_epik_Metal_Only>
1

> <s_epik_Chemistry_Notes>
This compound has an ester and may undergo hydrolysis at high or low pH. This compound contains an acetal/aminal-like group ( X-CH(R)-Y where X, Y are N, S, or O) that may be acid/base labile, releasing an aldehyde.

> <s_lp_Force_Field>
OPLS_2005

> <r_lp_Energy>
38.3605

> <b_lp_Chiralities_Consistent>
1

> <s_lp_Variant>
AV-unprocessed.smi:101-26

> <Gold.Version>
5.8.1

> <Gold.Id.Protein>
6NUR|6NUR_protein|mol2

> <Gold.PLP.Fitness>
51.9019

> <Gold.PLP.PLP>
-42.5736

> <Gold.PLP.part.hbond>
-5.7256

> <Gold.PLP.part.metal>
0.0000

> <Gold.PLP.part.buried>
-2.4956

> <Gold.PLP.part.nonpolar>
-33.6394

> <Gold.PLP.part.repulsive>
0.0759

> <Gold.PLP.ligand.clash>
0.0000

> <Gold.PLP.ligand.torsion>
0.8856

> <Gold.PLP.Chemscore.Hbond>
3.6589

> <Gold.PLP.Chemscore.CHOScore>
0.0000

> <Gold.PLP.Chemscore.Metal>
0.0000

> <Gold.Chemscore.Hbonds>
donor molecule, donor type, donor heavy atom, donor atom, acceptor molecule, acceptor atom, score
      L1  H    19    41       P1  7957  1.00
      L1  H    21    43       P1  8028  1.00
      P1  H  7989  7998       L1    19  0.68
      P1  H  7997  8008       L1    11  0.96

> <Gold.PLP.Chemscore.Internal.Correction>
0.1227

> <Gold.Rescore>
     Score         DG    S(hbond)    S(metal)    S(lipo)     H(rot)  DE(clash)    DE(int)     intcor
     16.82     -19.07       2.84        0.00     106.60       3.27       0.05       2.19       ----

> <Gold.Chemscore.Fitness>
16.8235

> <Gold.Chemscore.DG>
-19.0651

> <Gold.Chemscore.ZeroCoef>
-5.4800

> <Gold.Chemscore.Hbond>
2.8362

> <Gold.Chemscore.Metal>
0.0000

> <Gold.Chemscore.Lipo>
106.5977

> <Gold.Chemscore.Internal_Hbond>
0.0000

> <Gold.Chemscore.DEClash>
0.0505

> <Gold.Chemscore.DEInternal>
2.1911

> <Gold.Chemscore.Rot>
3.2656

> <Gold.Chemscore.Internal.Correction>
   9.000000E+99

> <Gold.Chemscore.Hbonds>
donor molecule, donor type, donor heavy atom, donor atom, acceptor molecule, acceptor atom, score
      L1  H    19    41       P1  7957  1.00
      L1  H    21    43       P1  8028  0.96
      P1  H  7989  7998       L1    19  0.03
      P1  H  7997  8008       L1    11  0.92

> <Gold.Chemscore.Hbond.Weighted>
-9.4730

> <Gold.Chemscore.Metal.Weighted>
-0.0000

> <Gold.Chemscore.Lipo.Weighted>
-12.4719

> <Gold.Chemscore.Internal_Hbond.Weighted>
0.0000

> <Gold.Chemscore.DEClash.Weighted>
0.0505

> <Gold.Chemscore.DEInternal.Weighted>
2.1911

> <Gold.Chemscore.Rot.Weighted>
8.3598

> <Gold.Chemscore.Internal.Correction.Weighted>
   9.000000E+99

> <Gold.Protein.RotatedTorsions>
[ 6907 6896 6895 6894 ] final -151.07 input  -60.11 | X-H torsion
[ 7974 7965 7964 7962 ] final  -60.49 input  175.53 | X-H torsion
[ 8008 7997 7996 7995 ] final  -79.74 input   59.86 | X-H torsion
[ 10167 10162 10161 10158 ] final -147.86 input  -65.29 | X-H torsion
[ 10718 10713 10712 10709 ] final   23.10 input   66.30 | X-H torsion
[ 10763 10752 10751 10750 ] final   -6.24 input  -60.55 | X-H torsion
[ 11005 11000 10999 10996 ] final -142.96 input  -57.11 | X-H torsion

> <Gold.Protein.ActiveResidues>
 VAL166  LYS551  ARG553  GLY616  TRP617  ASP618  TYR619  PRO620  LYS621  CYS622 
 ASP623  PHE694  ASN695  SER759  ASP760  ASP761  ALA762  ILE779  LEU786  VAL792 
 PHE793  MET794  SER795  GLU796  ALA797  LYS798  CYS799  TRP800  GLU811  SER814 

> <Gold.Protein.RotatedAtoms>
  151.2078  133.4573  159.2597 H   0  0  0  0  0  0  0  0  0  0  0  0  # atno 6907 bound_to 6896
  151.1006  134.9970  159.8457 H   0  0  0  0  0  0  0  0  0  0  0  0  # atno 6908 bound_to 6896
  152.5443  134.2005  159.8763 H   0  0  0  0  0  0  0  0  0  0  0  0  # atno 6909 bound_to 6896
  145.8149  140.8576  143.0163 H   0  0  0  0  0  0  0  0  0  0  0  0  # atno 7974 bound_to 7965
  154.5815  140.0673  156.9110 H   0  0  0  0  0  0  0  0  0  0  0  0  # atno 8008 bound_to 7997
  155.2455  140.3348  155.4269 H   0  0  0  0  0  0  0  0  0  0  0  0  # atno 8009 bound_to 7997
  156.2192  140.1791  156.7501 H   0  0  0  0  0  0  0  0  0  0  0  0  # atno 8010 bound_to 7997
  139.7583  143.8414  152.2602 H   0  0  0  0  0  0  0  0  0  0  0  0  # atno 10167 bound_to 10162
  157.1615  130.6719  149.6045 H   0  0  0  0  0  0  0  0  0  0  0  0  # atno 10718 bound_to 10713
  153.4096  135.7007  153.6368 H   0  0  0  0  0  0  0  0  0  0  0  0  # atno 10763 bound_to 10752
  153.4868  135.3681  155.2471 H   0  0  0  0  0  0  0  0  0  0  0  0  # atno 10764 bound_to 10752
  154.8716  135.4079  154.3446 H   0  0  0  0  0  0  0  0  0  0  0  0  # atno 10765 bound_to 10752
  140.8173  134.2673  157.4916 H   0  0  0  0  0  0  0  0  0  0  0  0  # atno 11005 bound_to 11000
  144.6753  140.0449  143.7480 LP  0  0  0  0  0  0  0  0  0  0  0  0  # atno 17320 bound_to 7965
  145.9738  139.2889  143.1083 LP  0  0  0  0  0  0  0  0  0  0  0  0  # atno 17321 bound_to 7965
  139.8413  144.7208  150.9328 LP  0  0  0  0  0  0  0  0  0  0  0  0  # atno 17342 bound_to 10162
  140.7805  143.3981  151.1195 LP  0  0  0  0  0  0  0  0  0  0  0  0  # atno 17343 bound_to 10162
  155.9753  130.4710  150.6450 LP  0  0  0  0  0  0  0  0  0  0  0  0  # atno 17370 bound_to 10713
  157.4128  131.0826  151.1204 LP  0  0  0  0  0  0  0  0  0  0  0  0  # atno 17371 bound_to 10713
  139.8710  134.9516  156.4089 LP  0  0  0  0  0  0  0  0  0  0  0  0  # atno 17394 bound_to 11000
  140.9136  133.7694  155.9821 LP  0  0  0  0  0  0  0  0  0  0  0  0  # atno 17395 bound_to 11000

$$$$
