AV-unprocessed.smi:1809|AV-procd|sdf|7318|dock3
  -GOLD-   22720 8573D 1   1.00000     0.00000
 Structure written by MMmdl.
 39 41  0  0  0  0  0  0  0  0  1 V2000
  150.6995  131.1990  155.2610 C   0  0  0  0  0  0  0  0  0  0  0  0
  150.8471  132.5323  155.9109 C   0  0  0  0  0  0  0  0  0  0  0  0
  151.4085  132.6946  157.1153 N   0  0  0  0  0  0  0  0  0  0  0  0
  151.4384  134.0258  157.5068 N   0  0  0  0  0  0  0  0  0  0  0  0
  150.8980  134.8311  156.5820 C   0  0  0  0  0  0  0  0  0  0  0  0
  150.7994  136.2407  156.7229 N   0  0  0  0  0  0  0  0  0  0  0  0
  151.0335  136.9874  157.8165 C   0  0  0  0  0  0  0  0  0  0  0  0
  151.3831  136.5517  158.9135 O   0  0  0  0  0  0  0  0  0  0  0  0
  150.8405  138.2894  157.5621 N   0  0  0  0  0  0  0  0  0  0  0  0
  151.0471  139.3771  158.5129 C   0  0  0  0  0  0  0  0  0  0  0  0
  152.2344  140.2699  158.0951 C   0  0  1  0  0  0  0  0  0  0  0  0
  151.9660  141.7765  158.3262 C   0  0  0  0  0  0  0  0  0  0  0  0
  152.0749  142.1103  159.7337 N   0  0  0  0  0  0  0  0  0  0  0  0
  151.9415  143.5058  160.0831 C   0  0  0  0  0  0  0  0  0  0  0  0
  152.4994  143.5939  161.5138 C   0  0  0  0  0  0  0  0  0  0  0  0
  153.3851  142.3369  161.6592 C   0  0  0  0  0  0  0  0  0  0  0  0
  153.3640  141.7400  160.2505 C   0  0  1  0  0  0  0  0  0  0  0  0
  153.5835  140.2274  160.1208 C   0  0  0  0  0  0  0  0  0  0  0  0
  153.4542  139.8696  158.7407 O   0  0  0  0  0  0  0  0  0  0  0  0
  150.2986  134.0188  155.1459 S   0  0  0  0  0  0  0  0  0  0  0  0
  150.9189  130.3990  155.9689 H   0  0  0  0  0  0  0  0  0  0  0  0
  151.3862  131.1187  154.4182 H   0  0  0  0  0  0  0  0  0  0  0  0
  149.6802  131.0717  154.8964 H   0  0  0  0  0  0  0  0  0  0  0  0
  150.5268  136.7405  155.8898 H   0  0  0  0  0  0  0  0  0  0  0  0
  150.5511  138.5528  156.6316 H   0  0  0  0  0  0  0  0  0  0  0  0
  150.1340  139.9726  158.5249 H   0  0  0  0  0  0  0  0  0  0  0  0
  151.1692  138.9992  159.5289 H   0  0  0  0  0  0  0  0  0  0  0  0
  152.3868  140.1259  157.0249 H   0  0  0  0  0  0  0  0  0  0  0  0
  152.6918  142.3588  157.7567 H   0  0  0  0  0  0  0  0  0  0  0  0
  150.9810  142.0527  157.9486 H   0  0  0  0  0  0  0  0  0  0  0  0
  152.5433  144.1215  159.4123 H   0  0  0  0  0  0  0  0  0  0  0  0
  150.9064  143.8415  160.0137 H   0  0  0  0  0  0  0  0  0  0  0  0
  153.0652  144.5144  161.6599 H   0  0  0  0  0  0  0  0  0  0  0  0
  151.6933  143.5754  162.2481 H   0  0  0  0  0  0  0  0  0  0  0  0
  154.3971  142.5714  161.9907 H   0  0  0  0  0  0  0  0  0  0  0  0
  152.9426  141.6470  162.3791 H   0  0  0  0  0  0  0  0  0  0  0  0
  154.1365  142.2444  159.6657 H   0  0  0  0  0  0  0  0  0  0  0  0
  154.5785  139.9512  160.4697 H   0  0  0  0  0  0  0  0  0  0  0  0
  152.8666  139.6755  160.7285 H   0  0  0  0  0  0  0  0  0  0  0  0
  1  2  1  0  0  0  0
  1 21  1  0  0  0  0
  1 22  1  0  0  0  0
  1 23  1  0  0  0  0
  2 20  1  0  0  0  0
  2  3  2  0  0  0  0
  3  4  1  0  0  0  0
  4  5  2  0  0  0  0
  5  6  1  0  0  0  0
  5 20  1  0  0  0  0
  6  7  1  0  0  0  0
  6 24  1  0  0  0  0
  7  8  2  0  0  0  0
  7  9  1  0  0  0  0
  9 10  1  0  0  0  0
  9 25  1  0  0  0  0
 10 11  1  0  0  0  0
 10 26  1  0  0  0  0
 10 27  1  0  0  0  0
 11 19  1  0  0  0  0
 11 12  1  0  0  0  0
 11 28  1  0  0  0  0
 12 13  1  0  0  0  0
 12 29  1  0  0  0  0
 12 30  1  0  0  0  0
 13 17  1  0  0  0  0
 13 14  1  0  0  0  0
 14 15  1  0  0  0  0
 14 31  1  0  0  0  0
 14 32  1  0  0  0  0
 15 16  1  0  0  0  0
 15 33  1  0  0  0  0
 15 34  1  0  0  0  0
 16 17  1  0  0  0  0
 16 35  1  0  0  0  0
 16 36  1  0  0  0  0
 17 18  1  0  0  0  0
 17 37  1  0  0  0  0
 18 19  1  0  0  0  0
 18 38  1  0  0  0  0
 18 39  1  0  0  0  0
M  END
> <s_m_source_file>
AV-unprocessed.smi

> <i_m_source_file_index>
1809

> <i_lp_mmshare_version>
43012

> <i_f3d_flags>
0

> <s_epik_input>
W0NIM11jMW5uYyhzMSlbTkhdQyg9TylbTkhdW0NIMl1bQ0BIXShbQ0gyXTIpT1tDSDJdW0NAQEhdKE4yMylbQ0gyXVtDSDJdW0NIMl0z

> <s_epik_cmdline>
J2VwaWtfcHl0aG9uJywgJy1waCcsICc3LjAnLCAnLXRuJywgJzgnLCAnLW1hJywgJzIwMCcsICctbWV0YWxfYmluZGluZycsICctaW1hZScsICc8aW5maWxlLm1hZT4nLCAnLW9tYWUnLCAnPG91dGZpbGUubWFlPic=

> <r_lp_tautomer_probability>
1

> <r_epik_Ionization_Penalty>
1.05954

> <r_epik_Ionization_Penalty_Charging>
0

> <r_epik_Ionization_Penalty_Neutral>
1.05954

> <r_epik_State_Penalty>
1.4238

> <r_epik_Charging_Adjusted_Penalty>
1.4238

> <i_epik_Tot_Q>
0

> <i_epik_Tot_abs_Q>
0

> <r_epik_Metal_State_Penalty>
1.7901

> <b_epik_Metal_Only>
0

> <s_lp_Force_Field>
OPLS_2005

> <r_lp_Energy>
48.8115

> <b_lp_Chiralities_Consistent>
1

> <s_lp_Variant>
AV-unprocessed.smi:1809-10

> <Gold.Version>
5.8.1

> <Gold.Id.Protein>
6NUR|6NUR_protein|mol2

> <Gold.PLP.Fitness>
40.4106

> <Gold.PLP.PLP>
-35.5848

> <Gold.PLP.part.hbond>
-3.1922

> <Gold.PLP.part.metal>
0.0000

> <Gold.PLP.part.buried>
-5.8945

> <Gold.PLP.part.nonpolar>
-25.9947

> <Gold.PLP.part.repulsive>
0.1044

> <Gold.PLP.ligand.clash>
0.0000

> <Gold.PLP.ligand.torsion>
0.5632

> <Gold.PLP.Chemscore.Hbond>
1.9814

> <Gold.PLP.Chemscore.CHOScore>
0.0000

> <Gold.PLP.Chemscore.Metal>
0.0000

> <Gold.Chemscore.Hbonds>
donor molecule, donor type, donor heavy atom, donor atom, acceptor molecule, acceptor atom, score
      P1  H  6896  6907       L1     4  0.12
      P1  H  6896  6908       L1     8  0.77
      P1  H  7997  8009       L1    19  0.83

> <Gold.PLP.Chemscore.Internal.Correction>
0.0079

> <Gold.Rescore>
     Score         DG    S(hbond)    S(metal)    S(lipo)     H(rot)  DE(clash)    DE(int)     intcor
     16.33     -18.17       1.76        0.00      87.12       1.32       0.01       1.83       ----

> <Gold.Chemscore.Fitness>
16.3253

> <Gold.Chemscore.DG>
-18.1731

> <Gold.Chemscore.ZeroCoef>
-5.4800

> <Gold.Chemscore.Hbond>
1.7601

> <Gold.Chemscore.Metal>
0.0000

> <Gold.Chemscore.Lipo>
87.1162

> <Gold.Chemscore.Internal_Hbond>
0.0000

> <Gold.Chemscore.DEClash>
0.0149

> <Gold.Chemscore.DEInternal>
1.8329

> <Gold.Chemscore.Rot>
1.3196

> <Gold.Chemscore.Internal.Correction>
   9.000000E+99

> <Gold.Chemscore.Hbonds>
donor molecule, donor type, donor heavy atom, donor atom, acceptor molecule, acceptor atom, score
      P1  H  6896  6908       L1     8  0.78
      P1  H  7997  8009       L1    19  0.13

> <Gold.Chemscore.Hbond.Weighted>
-5.8788

> <Gold.Chemscore.Metal.Weighted>
-0.0000

> <Gold.Chemscore.Lipo.Weighted>
-10.1926

> <Gold.Chemscore.Internal_Hbond.Weighted>
0.0000

> <Gold.Chemscore.DEClash.Weighted>
0.0149

> <Gold.Chemscore.DEInternal.Weighted>
1.8329

> <Gold.Chemscore.Rot.Weighted>
3.3783

> <Gold.Chemscore.Internal.Correction.Weighted>
   9.000000E+99

> <Gold.Protein.RotatedTorsions>
[ 6907 6896 6895 6894 ] final -150.66 input  -60.11 | X-H torsion
[ 7974 7965 7964 7962 ] final  102.42 input  175.53 | X-H torsion
[ 8008 7997 7996 7995 ] final  149.43 input   59.86 | X-H torsion
[ 10167 10162 10161 10158 ] final  169.44 input  -65.29 | X-H torsion
[ 10718 10713 10712 10709 ] final   34.69 input   66.30 | X-H torsion
[ 10763 10752 10751 10750 ] final  145.03 input  -60.55 | X-H torsion
[ 11005 11000 10999 10996 ] final  170.91 input  -57.11 | X-H torsion

> <Gold.Protein.ActiveResidues>
 VAL166  LYS551  ARG553  GLY616  TRP617  ASP618  TYR619  PRO620  LYS621  CYS622 
 ASP623  PHE694  ASN695  SER759  ASP760  ASP761  ALA762  ILE779  LEU786  VAL792 
 PHE793  MET794  SER795  GLU796  ALA797  LYS798  CYS799  TRP800  GLU811  SER814 

> <Gold.Protein.RotatedAtoms>
  151.2017  133.4607  159.2596 H   0  0  0  0  0  0  0  0  0  0  0  0  # atno 6907 bound_to 6896
  151.1063  135.0001  159.8483 H   0  0  0  0  0  0  0  0  0  0  0  0  # atno 6908 bound_to 6896
  152.5447  134.1940  159.8738 H   0  0  0  0  0  0  0  0  0  0  0  0  # atno 6909 bound_to 6896
  145.3594  139.2421  143.3515 H   0  0  0  0  0  0  0  0  0  0  0  0  # atno 7974 bound_to 7965
  156.2755  140.2102  156.5857 H   0  0  0  0  0  0  0  0  0  0  0  0  # atno 8008 bound_to 7997
  154.7022  140.0520  157.0493 H   0  0  0  0  0  0  0  0  0  0  0  0  # atno 8009 bound_to 7997
  155.0719  140.3177  155.4631 H   0  0  0  0  0  0  0  0  0  0  0  0  # atno 8010 bound_to 7997
  139.4992  144.3705  151.9729 H   0  0  0  0  0  0  0  0  0  0  0  0  # atno 10167 bound_to 10162
  157.3135  130.7411  149.6740 H   0  0  0  0  0  0  0  0  0  0  0  0  # atno 10718 bound_to 10713
  153.9987  135.2925  155.3405 H   0  0  0  0  0  0  0  0  0  0  0  0  # atno 10763 bound_to 10752
  154.7172  135.5124  153.8759 H   0  0  0  0  0  0  0  0  0  0  0  0  # atno 10764 bound_to 10752
  153.0776  135.6668  154.0231 H   0  0  0  0  0  0  0  0  0  0  0  0  # atno 10765 bound_to 10752
  140.3133  134.7498  157.4008 H   0  0  0  0  0  0  0  0  0  0  0  0  # atno 11005 bound_to 11000
  146.2934  140.4225  142.8731 LP  0  0  0  0  0  0  0  0  0  0  0  0  # atno 17320 bound_to 7965
  144.8658  140.7203  143.6078 LP  0  0  0  0  0  0  0  0  0  0  0  0  # atno 17321 bound_to 7965
  140.3142  144.3503  150.6026 LP  0  0  0  0  0  0  0  0  0  0  0  0  # atno 17342 bound_to 10162
  140.5775  143.2175  151.7489 LP  0  0  0  0  0  0  0  0  0  0  0  0  # atno 17343 bound_to 10162
  155.9679  130.4244  150.4607 LP  0  0  0  0  0  0  0  0  0  0  0  0  # atno 17370 bound_to 10713
  157.2610  131.0567  151.2320 LP  0  0  0  0  0  0  0  0  0  0  0  0  # atno 17371 bound_to 10713
  140.1005  134.5479  155.8357 LP  0  0  0  0  0  0  0  0  0  0  0  0  # atno 17394 bound_to 11000
  141.2103  133.6693  156.6501 LP  0  0  0  0  0  0  0  0  0  0  0  0  # atno 17395 bound_to 11000

$$$$
