AV-unprocessed.smi:36|AV-procd|sdf|279|dock7
  -GOLD-   2262016 53D 1   1.00000     0.00000
 Structure written by MMmdl.
 64 67  0  0  0  0  0  0  0  0  1 V2000
  150.6356  129.1869  154.7237 C   0  0  0  0  0  0  0  0  0  0  0  0
  151.7881  129.4756  155.6999 C   0  0  0  0  0  0  0  0  0  0  0  0
  151.9641  128.2913  156.6658 C   0  0  0  0  0  0  0  0  0  0  0  0
  153.0925  129.7034  154.9177 C   0  0  0  0  0  0  0  0  0  0  0  0
  151.3889  131.0461  156.7119 Si  0  0  0  0  0  0  0  0  0  0  0  0
  149.8692  130.7916  157.8228 C   0  0  0  0  0  0  0  0  0  0  0  0
  152.8804  131.5746  157.7653 C   0  0  0  0  0  0  0  0  0  0  0  0
  151.0356  132.2825  155.6134 O   0  0  0  0  0  0  0  0  0  0  0  0
  149.9586  132.2525  154.6978 C   0  0  0  0  0  0  0  0  0  0  0  0
  149.5552  133.6890  154.3341 C   0  0  2  0  0  0  0  0  0  0  0  0
  150.0718  134.5912  155.3130 O   0  0  0  0  0  0  0  0  0  0  0  0
  149.0002  135.1384  156.0089 C   0  0  1  0  0  0  0  0  0  0  0  0
  149.3925  136.4761  156.5312 N   0  0  0  0  0  0  0  0  0  0  0  0
  149.3418  136.9565  157.8219 C   0  0  0  0  0  0  0  0  0  0  0  0
  149.7507  138.1885  157.9726 N   0  0  0  0  0  0  0  0  0  0  0  0
  150.1155  138.5822  156.6909 C   0  0  0  0  0  0  0  0  0  0  0  0
  150.6350  139.7817  156.1385 C   0  0  0  0  0  0  0  0  0  0  0  0
  150.8575  140.8557  156.9321 N   0  0  0  0  0  0  0  0  0  0  0  0
  151.6413  140.9221  158.1533 C   0  0  0  0  0  0  0  0  0  0  0  0
  152.2535  139.9484  158.5933 O   0  0  0  0  0  0  0  0  0  0  0  0
  151.7280  142.2695  158.8095 C   0  0  0  0  0  0  0  0  0  0  0  0
  150.8619  143.3094  158.4024 C   0  0  0  0  0  0  0  0  0  0  0  0
  150.9427  144.5811  159.0023 C   0  0  0  0  0  0  0  0  0  0  0  0
  151.8951  144.8263  160.0092 C   0  0  0  0  0  0  0  0  0  0  0  0
  152.7704  143.8002  160.4121 C   0  0  0  0  0  0  0  0  0  0  0  0
  152.6910  142.5277  159.8127 C   0  0  0  0  0  0  0  0  0  0  0  0
  150.8834  139.7977  154.8019 N   0  0  0  0  0  0  0  0  0  0  0  0
  150.6368  138.7155  154.0573 C   0  0  0  0  0  0  0  0  0  0  0  0
  150.1478  137.5336  154.4392 N   0  0  0  0  0  0  0  0  0  0  0  0
  149.8984  137.5121  155.7801 C   0  0  0  0  0  0  0  0  0  0  0  0
  147.8776  135.2576  154.9914 C   0  0  0  0  0  0  0  0  0  0  0  0
  148.0339  133.9323  154.2737 C   0  0  1  0  0  0  0  0  0  0  0  0
  147.5494  134.0104  152.9491 O   0  0  0  0  0  0  0  0  0  0  0  0
  150.8335  128.2930  154.1311 H   0  0  0  0  0  0  0  0  0  0  0  0
  150.4859  130.0146  154.0297 H   0  0  0  0  0  0  0  0  0  0  0  0
  149.6962  129.0277  155.2537 H   0  0  0  0  0  0  0  0  0  0  0  0
  151.0515  128.0986  157.2301 H   0  0  0  0  0  0  0  0  0  0  0  0
  152.7609  128.4816  157.3854 H   0  0  0  0  0  0  0  0  0  0  0  0
  152.2166  127.3760  156.1293 H   0  0  0  0  0  0  0  0  0  0  0  0
  153.3706  128.8190  154.3438 H   0  0  0  0  0  0  0  0  0  0  0  0
  153.9210  129.9349  155.5884 H   0  0  0  0  0  0  0  0  0  0  0  0
  152.9955  130.5326  154.2162 H   0  0  0  0  0  0  0  0  0  0  0  0
  150.0339  129.9990  158.5522 H   0  0  0  0  0  0  0  0  0  0  0  0
  148.9880  130.5214  157.2413 H   0  0  0  0  0  0  0  0  0  0  0  0
  149.6244  131.6971  158.3774 H   0  0  0  0  0  0  0  0  0  0  0  0
  153.1476  130.8079  158.4921 H   0  0  0  0  0  0  0  0  0  0  0  0
  152.6767  132.4895  158.3208 H   0  0  0  0  0  0  0  0  0  0  0  0
  153.7617  131.7584  157.1515 H   0  0  0  0  0  0  0  0  0  0  0  0
  150.2684  131.7067  153.8063 H   0  0  0  0  0  0  0  0  0  0  0  0
  149.1088  131.7179  155.1233 H   0  0  0  0  0  0  0  0  0  0  0  0
  150.0184  133.9614  153.3846 H   0  0  0  0  0  0  0  0  0  0  0  0
  148.7468  134.5344  156.8818 H   0  0  0  0  0  0  0  0  0  0  0  0
  148.9867  136.3643  158.6527 H   0  0  0  0  0  0  0  0  0  0  0  0
  150.4183  141.7176  156.6431 H   0  0  0  0  0  0  0  0  0  0  0  0
  150.1255  143.1373  157.6303 H   0  0  0  0  0  0  0  0  0  0  0  0
  150.2733  145.3685  158.6888 H   0  0  0  0  0  0  0  0  0  0  0  0
  151.9565  145.8018  160.4691 H   0  0  0  0  0  0  0  0  0  0  0  0
  153.5055  143.9897  161.1804 H   0  0  0  0  0  0  0  0  0  0  0  0
  153.3786  141.7576  160.1311 H   0  0  0  0  0  0  0  0  0  0  0  0
  150.8618  138.8115  153.0055 H   0  0  0  0  0  0  0  0  0  0  0  0
  146.9094  135.3928  155.4748 H   0  0  0  0  0  0  0  0  0  0  0  0
  148.0798  136.1008  154.3284 H   0  0  0  0  0  0  0  0  0  0  0  0
  147.4883  133.1602  154.8162 H   0  0  0  0  0  0  0  0  0  0  0  0
  147.9385  134.7627  152.5301 H   0  0  0  0  0  0  0  0  0  0  0  0
  1  2  1  0  0  0  0
  1 34  1  0  0  0  0
  1 35  1  0  0  0  0
  1 36  1  0  0  0  0
  2  3  1  0  0  0  0
  2  4  1  0  0  0  0
  2  5  1  0  0  0  0
  3 37  1  0  0  0  0
  3 38  1  0  0  0  0
  3 39  1  0  0  0  0
  4 40  1  0  0  0  0
  4 41  1  0  0  0  0
  4 42  1  0  0  0  0
  5  6  1  0  0  0  0
  5  7  1  0  0  0  0
  5  8  1  0  0  0  0
  6 43  1  0  0  0  0
  6 44  1  0  0  0  0
  6 45  1  0  0  0  0
  7 46  1  0  0  0  0
  7 47  1  0  0  0  0
  7 48  1  0  0  0  0
  8  9  1  0  0  0  0
  9 10  1  0  0  0  0
  9 49  1  0  0  0  0
  9 50  1  0  0  0  0
 10 32  1  0  0  0  0
 10 11  1  0  0  0  0
 10 51  1  0  0  0  0
 11 12  1  0  0  0  0
 12 13  1  0  0  0  0
 12 31  1  0  0  0  0
 12 52  1  0  0  0  0
 13 30  1  0  0  0  0
 13 14  1  0  0  0  0
 14 15  2  0  0  0  0
 14 53  1  0  0  0  0
 15 16  1  0  0  0  0
 16 30  2  0  0  0  0
 16 17  1  0  0  0  0
 17 18  1  0  0  0  0
 17 27  2  0  0  0  0
 18 19  1  0  0  0  0
 18 54  1  0  0  0  0
 19 20  2  0  0  0  0
 19 21  1  0  0  0  0
 21 26  1  0  0  0  0
 21 22  2  0  0  0  0
 22 23  1  0  0  0  0
 22 55  1  0  0  0  0
 23 24  2  0  0  0  0
 23 56  1  0  0  0  0
 24 25  1  0  0  0  0
 24 57  1  0  0  0  0
 25 26  2  0  0  0  0
 25 58  1  0  0  0  0
 26 59  1  0  0  0  0
 27 28  1  0  0  0  0
 28 29  2  0  0  0  0
 28 60  1  0  0  0  0
 29 30  1  0  0  0  0
 31 32  1  0  0  0  0
 31 61  1  0  0  0  0
 31 62  1  0  0  0  0
 32 33  1  0  0  0  0
 32 63  1  0  0  0  0
 33 64  1  0  0  0  0
M  END
> <s_m_source_file>
AV-unprocessed.smi

> <i_m_source_file_index>
36

> <i_lp_mmshare_version>
43012

> <i_f3d_flags>
0

> <s_epik_input>
W0NIM11DKFtDSDNdKShbQ0gzXSlbU2ldKFtDSDNdKShbQ0gzXSlPW0NIMl1bQ0BASF0xT1tDQEhdKFtDSDJdW0NASF0xW09IXSluKFtjSF1uMiljKGMyMyluW2NIXW5jM1tOSF1DKD1PKWM0W2NIXVtjSF1bY0hdW2NIXVtjSF00

> <s_epik_cmdline>
J2VwaWtfcHl0aG9uJywgJy1waCcsICc3LjAnLCAnLXRuJywgJzgnLCAnLW1hJywgJzIwMCcsICctbWV0YWxfYmluZGluZycsICctaW1hZScsICc8aW5maWxlLm1hZT4nLCAnLW9tYWUnLCAnPG91dGZpbGUubWFlPic=

> <r_lp_tautomer_probability>
1

> <r_epik_Ionization_Penalty>
0.00150433

> <r_epik_Ionization_Penalty_Charging>
0

> <r_epik_Ionization_Penalty_Neutral>
0.00150433

> <r_epik_State_Penalty>
0.00724046

> <r_epik_Charging_Adjusted_Penalty>
0.00724046

> <i_epik_Tot_Q>
0

> <i_epik_Tot_abs_Q>
0

> <r_epik_Metal_State_Penalty>
0.323355

> <b_epik_Metal_Only>
0

> <s_epik_Chemistry_Notes>
This compound contains an acetal/aminal-like group ( X-CH(R)-Y where X, Y are N, S, or O) that may be acid/base labile, releasing an aldehyde.

> <s_lp_Force_Field>
OPLS_2005

> <r_lp_Energy>
30.8875

> <b_lp_Chiralities_Consistent>
1

> <s_lp_Variant>
AV-unprocessed.smi:36-1

> <Gold.Version>
5.8.1

> <Gold.Id.Protein>
6NUR|6NUR_protein|mol2

> <Gold.PLP.Fitness>
51.7605

> <Gold.PLP.PLP>
-45.7400

> <Gold.PLP.part.hbond>
-2.0000

> <Gold.PLP.part.metal>
0.0000

> <Gold.PLP.part.buried>
-9.6336

> <Gold.PLP.part.nonpolar>
-35.5693

> <Gold.PLP.part.repulsive>
0.7761

> <Gold.PLP.ligand.clash>
0.0000

> <Gold.PLP.ligand.torsion>
1.4186

> <Gold.PLP.Chemscore.Hbond>
1.9500

> <Gold.PLP.Chemscore.CHOScore>
0.9585

> <Gold.PLP.Chemscore.Metal>
0.0000

> <Gold.Chemscore.Hbonds>
donor molecule, donor type, donor heavy atom, donor atom, acceptor molecule, acceptor atom, score
      L1  H    33    64       P1  7948  1.00
      P1  H  7989  7998       L1    27  0.95
      L1  C    28    60       P1  7957  0.93

> <Gold.PLP.Chemscore.Internal.Correction>
0.1321

> <Gold.Rescore>
     Score         DG    S(hbond)    S(metal)    S(lipo)     H(rot)  DE(clash)    DE(int)     intcor
     14.06     -16.38       1.37        0.00     113.14       2.70       0.24       2.08       ----

> <Gold.Chemscore.Fitness>
14.0617

> <Gold.Chemscore.DG>
-16.3834

> <Gold.Chemscore.ZeroCoef>
-5.4800

> <Gold.Chemscore.Hbond>
1.3737

> <Gold.Chemscore.Metal>
0.0000

> <Gold.Chemscore.Lipo>
113.1432

> <Gold.Chemscore.Internal_Hbond>
0.0000

> <Gold.Chemscore.DEClash>
0.2392

> <Gold.Chemscore.DEInternal>
2.0826

> <Gold.Chemscore.Rot>
2.7041

> <Gold.Chemscore.Internal.Correction>
   9.000000E+99

> <Gold.Chemscore.Hbonds>
donor molecule, donor type, donor heavy atom, donor atom, acceptor molecule, acceptor atom, score
      L1  H    33    64       P1  7948  0.74
      P1  H  7989  7998       L1    27  0.22

> <Gold.Chemscore.Hbond.Weighted>
-4.5881

> <Gold.Chemscore.Metal.Weighted>
-0.0000

> <Gold.Chemscore.Lipo.Weighted>
-13.2378

> <Gold.Chemscore.Internal_Hbond.Weighted>
0.0000

> <Gold.Chemscore.DEClash.Weighted>
0.2392

> <Gold.Chemscore.DEInternal.Weighted>
2.0826

> <Gold.Chemscore.Rot.Weighted>
6.9225

> <Gold.Chemscore.Internal.Correction.Weighted>
   9.000000E+99

> <Gold.Protein.RotatedTorsions>
[ 6907 6896 6895 6894 ] final   72.57 input  -60.11 | X-H torsion
[ 7974 7965 7964 7962 ] final  177.89 input  175.53 | X-H torsion
[ 8008 7997 7996 7995 ] final  166.92 input   59.86 | X-H torsion
[ 10167 10162 10161 10158 ] final   15.01 input  -65.29 | X-H torsion
[ 10718 10713 10712 10709 ] final   -1.25 input   66.30 | X-H torsion
[ 10763 10752 10751 10750 ] final   -1.43 input  -60.55 | X-H torsion
[ 11005 11000 10999 10996 ] final -128.26 input  -57.11 | X-H torsion

> <Gold.Protein.ActiveResidues>
 VAL166  LYS551  ARG553  GLY616  TRP617  ASP618  TYR619  PRO620  LYS621  CYS622 
 ASP623  PHE694  ASN695  SER759  ASP760  ASP761  ALA762  ILE779  LEU786  VAL792 
 PHE793  MET794  SER795  GLU796  ALA797  LYS798  CYS799  TRP800  GLU811  SER814 

> <Gold.Protein.RotatedAtoms>
  152.4875  134.4551  159.9586 H   0  0  0  0  0  0  0  0  0  0  0  0  # atno 6907 bound_to 6896
  151.4544  133.3603  159.2808 H   0  0  0  0  0  0  0  0  0  0  0  0  # atno 6908 bound_to 6896
  150.8999  134.8435  159.7413 H   0  0  0  0  0  0  0  0  0  0  0  0  # atno 6909 bound_to 6896
  144.7163  140.0316  143.6439 H   0  0  0  0  0  0  0  0  0  0  0  0  # atno 7974 bound_to 7965
  156.1677  140.1630  156.8502 H   0  0  0  0  0  0  0  0  0  0  0  0  # atno 8008 bound_to 7997
  154.5225  140.0775  156.8232 H   0  0  0  0  0  0  0  0  0  0  0  0  # atno 8009 bound_to 7997
  155.3577  140.3393  155.4242 H   0  0  0  0  0  0  0  0  0  0  0  0  # atno 8010 bound_to 7997
  140.5897  143.8820  150.6862 H   0  0  0  0  0  0  0  0  0  0  0  0  # atno 10167 bound_to 10162
  156.8083  130.5416  149.5712 H   0  0  0  0  0  0  0  0  0  0  0  0  # atno 10718 bound_to 10713
  153.3448  135.6982  153.6837 H   0  0  0  0  0  0  0  0  0  0  0  0  # atno 10763 bound_to 10752
  153.5587  135.3539  155.2791 H   0  0  0  0  0  0  0  0  0  0  0  0  # atno 10764 bound_to 10752
  154.8643  135.4244  154.2669 H   0  0  0  0  0  0  0  0  0  0  0  0  # atno 10765 bound_to 10752
  140.9531  134.1039  157.4043 H   0  0  0  0  0  0  0  0  0  0  0  0  # atno 11005 bound_to 11000
  146.0098  139.3160  143.0877 LP  0  0  0  0  0  0  0  0  0  0  0  0  # atno 17320 bound_to 7965
  145.8695  140.9428  143.0658 LP  0  0  0  0  0  0  0  0  0  0  0  0  # atno 17321 bound_to 7965
  140.2340  143.3714  152.1542 LP  0  0  0  0  0  0  0  0  0  0  0  0  # atno 17342 bound_to 10162
  139.5219  144.7053  151.5374 LP  0  0  0  0  0  0  0  0  0  0  0  0  # atno 17343 bound_to 10162
  156.1059  130.6004  150.9970 LP  0  0  0  0  0  0  0  0  0  0  0  0  # atno 17370 bound_to 10713
  157.6518  131.0895  150.8033 LP  0  0  0  0  0  0  0  0  0  0  0  0  # atno 17371 bound_to 10713
  139.8853  135.0071  156.6429 LP  0  0  0  0  0  0  0  0  0  0  0  0  # atno 17394 bound_to 11000
  140.7575  133.8845  155.8393 LP  0  0  0  0  0  0  0  0  0  0  0  0  # atno 17395 bound_to 11000

$$$$
