AV-unprocessed.smi:1144|AV-procd|sdf|4878|dock5
  -GOLD-   22720 3453D 1   1.00000     0.00000
 Structure written by MMmdl.
 35 36  0  0  0  0  0  0  0  0  2 V2000
  147.4646  138.0273  154.4228 C   0  0  0  0  0  0  0  0  0  0  0  0
  148.4007  138.7123  153.5014 N   0  3  1  0  0  0  0  0  0  0  0  0
  147.7455  139.7010  152.6127 C   0  0  0  0  0  0  0  0  0  0  0  0
  147.4704  141.0223  153.3528 C   0  0  0  0  0  0  0  0  0  0  0  0
  148.6832  141.5128  153.9088 O   0  0  0  0  0  0  0  0  0  0  0  0
  149.2397  140.6301  154.8784 C   0  0  2  0  0  0  0  0  0  0  0  0
  150.4910  141.2854  155.4870 C   0  0  0  0  0  0  0  0  0  0  0  0
  151.1978  140.3913  156.3948 N   0  0  0  0  0  0  0  0  0  0  0  0
  151.7093  140.7572  157.6269 C   0  0  0  0  0  0  0  0  0  0  0  0
  152.2541  139.8102  158.3988 N   0  0  0  0  0  0  0  0  0  0  0  0
  152.7465  140.1997  159.5943 C   0  0  0  0  0  0  0  0  0  0  0  0
  152.6927  141.5425  160.0162 C   0  0  0  0  0  0  0  0  0  0  0  0
  152.0934  142.4568  159.1214 C   0  0  0  0  0  0  0  0  0  0  0  0
  151.9625  143.9377  159.4447 C   0  0  0  0  0  0  0  0  0  0  0  0
  152.3918  144.1661  160.6861 F   0  0  0  0  0  0  0  0  0  0  0  0
  152.6777  144.6870  158.6050 F   0  0  0  0  0  0  0  0  0  0  0  0
  150.6846  144.3061  159.3559 F   0  0  0  0  0  0  0  0  0  0  0  0
  151.6029  142.0531  157.9259 N   0  0  0  0  0  0  0  0  0  0  0  0
  149.5839  139.2981  154.1772 C   0  0  0  0  0  0  0  0  0  0  0  0
  147.0099  138.7192  155.1317 H   0  0  0  0  0  0  0  0  0  0  0  0
  147.9837  137.2534  154.9892 H   0  0  0  0  0  0  0  0  0  0  0  0
  146.6641  137.5430  153.8627 H   0  0  0  0  0  0  0  0  0  0  0  0
  148.4094  139.8943  151.7690 H   0  0  0  0  0  0  0  0  0  0  0  0
  146.8259  139.2894  152.1951 H   0  0  0  0  0  0  0  0  0  0  0  0
  147.0773  141.7650  152.6585 H   0  0  0  0  0  0  0  0  0  0  0  0
  146.7206  140.8938  154.1346 H   0  0  0  0  0  0  0  0  0  0  0  0
  148.5148  140.4522  155.6746 H   0  0  0  0  0  0  0  0  0  0  0  0
  151.1876  141.5424  154.6889 H   0  0  0  0  0  0  0  0  0  0  0  0
  150.2373  142.2227  155.9834 H   0  0  0  0  0  0  0  0  0  0  0  0
  151.2087  139.4062  156.1732 H   0  0  0  0  0  0  0  0  0  0  0  0
  153.1856  139.4352  160.2178 H   0  0  0  0  0  0  0  0  0  0  0  0
  153.0889  141.8455  160.9741 H   0  0  0  0  0  0  0  0  0  0  0  0
  150.0034  138.5827  154.8857 H   0  0  0  0  0  0  0  0  0  0  0  0
  150.3529  139.4727  153.4235 H   0  0  0  0  0  0  0  0  0  0  0  0
  148.7537  137.9832  152.8978 H   0  0  0  0  0  0  0  0  0  0  0  0
  1  2  1  0  0  0  0
  1 20  1  0  0  0  0
  1 21  1  0  0  0  0
  1 22  1  0  0  0  0
  2 19  1  0  0  0  0
  2  3  1  0  0  0  0
  2 35  1  0  0  0  0
  3  4  1  0  0  0  0
  3 23  1  0  0  0  0
  3 24  1  0  0  0  0
  4  5  1  0  0  0  0
  4 25  1  0  0  0  0
  4 26  1  0  0  0  0
  5  6  1  0  0  0  0
  6  7  1  0  0  0  0
  6 19  1  0  0  0  0
  6 27  1  0  0  0  0
  7  8  1  0  0  0  0
  7 28  1  0  0  0  0
  7 29  1  0  0  0  0
  8  9  1  0  0  0  0
  8 30  1  0  0  0  0
  9 18  1  0  0  0  0
  9 10  2  0  0  0  0
 10 11  1  0  0  0  0
 11 12  2  0  0  0  0
 11 31  1  0  0  0  0
 12 13  1  0  0  0  0
 12 32  1  0  0  0  0
 13 14  1  0  0  0  0
 13 18  2  0  0  0  0
 14 15  1  0  0  0  0
 14 16  1  0  0  0  0
 14 17  1  0  0  0  0
 19 33  1  0  0  0  0
 19 34  1  0  0  0  0
M  CHG  1   2   1
M  END
> <s_m_source_file>
AV-unprocessed.smi

> <i_m_source_file_index>
1144

> <i_lp_mmshare_version>
43012

> <i_f3d_flags>
0

> <s_epik_input>
W0NIM11OMVtDSDJdW0NIMl1PW0NASF0oW0NIMl0xKVtDSDJdW05IXWMybltjSF1bY0hdYyhuMilDKEYpKEYpRg==

> <s_epik_cmdline>
J2VwaWtfcHl0aG9uJywgJy1waCcsICc3LjAnLCAnLXRuJywgJzgnLCAnLW1hJywgJzIwMCcsICctbWV0YWxfYmluZGluZycsICctaW1hZScsICc8aW5maWxlLm1hZT4nLCAnLW9tYWUnLCAnPG91dGZpbGUubWFlPic=

> <r_lp_tautomer_probability>
1

> <r_epik_Ionization_Penalty>
0.178506

> <r_epik_Ionization_Penalty_Charging>
0.178504

> <r_epik_Ionization_Penalty_Neutral>
2.47225e-06

> <r_epik_State_Penalty>
0.167974

> <r_epik_Charging_Adjusted_Penalty>
0.346478

> <i_epik_Tot_Q>
1

> <i_epik_Tot_abs_Q>
1

> <r_epik_Metal_State_Penalty>
0.167974

> <b_epik_Metal_Only>
0

> <s_lp_Force_Field>
OPLS_2005

> <r_lp_Energy>
11.1237

> <b_lp_Chiralities_Consistent>
1

> <s_lp_Variant>
AV-unprocessed.smi:1144-3

> <Gold.Version>
5.8.1

> <Gold.Id.Protein>
6NUR|6NUR_protein|mol2

> <Gold.PLP.Fitness>
44.3817

> <Gold.PLP.PLP>
-38.1412

> <Gold.PLP.part.hbond>
-3.0000

> <Gold.PLP.part.metal>
0.0000

> <Gold.PLP.part.buried>
0.6043

> <Gold.PLP.part.nonpolar>
-34.4943

> <Gold.PLP.part.repulsive>
0.3649

> <Gold.PLP.ligand.clash>
0.9254

> <Gold.PLP.ligand.torsion>
0.1891

> <Gold.PLP.Chemscore.Hbond>
2.5132

> <Gold.PLP.Chemscore.CHOScore>
0.0000

> <Gold.PLP.Chemscore.Metal>
0.0000

> <Gold.Chemscore.Hbonds>
donor molecule, donor type, donor heavy atom, donor atom, acceptor molecule, acceptor atom, score
      L1  H     2    35       P1  7948  2.00
      P1  H  8011  8017       L1     5  0.51

> <Gold.PLP.Chemscore.Internal.Correction>
0.0043

> <Gold.Rescore>
     Score         DG    S(hbond)    S(metal)    S(lipo)     H(rot)  DE(clash)    DE(int)     intcor
     14.10     -15.99       1.48        0.00      76.79       1.34       1.72       0.17       ----

> <Gold.Chemscore.Fitness>
14.1025

> <Gold.Chemscore.DG>
-15.9897

> <Gold.Chemscore.ZeroCoef>
-5.4800

> <Gold.Chemscore.Hbond>
1.4822

> <Gold.Chemscore.Metal>
0.0000

> <Gold.Chemscore.Lipo>
76.7869

> <Gold.Chemscore.Internal_Hbond>
0.0000

> <Gold.Chemscore.DEClash>
1.7180

> <Gold.Chemscore.DEInternal>
0.1691

> <Gold.Chemscore.Rot>
1.3379

> <Gold.Chemscore.Internal.Correction>
   9.000000E+99

> <Gold.Chemscore.Hbonds>
donor molecule, donor type, donor heavy atom, donor atom, acceptor molecule, acceptor atom, score
      L1  H     2    35       P1  7948  0.94
      P1  H  8011  8017       L1     5  0.31

> <Gold.Chemscore.Hbond.Weighted>
-4.9506

> <Gold.Chemscore.Metal.Weighted>
-0.0000

> <Gold.Chemscore.Lipo.Weighted>
-8.9841

> <Gold.Chemscore.Internal_Hbond.Weighted>
0.0000

> <Gold.Chemscore.DEClash.Weighted>
1.7180

> <Gold.Chemscore.DEInternal.Weighted>
0.1691

> <Gold.Chemscore.Rot.Weighted>
3.4250

> <Gold.Chemscore.Internal.Correction.Weighted>
   9.000000E+99

> <Gold.Protein.RotatedTorsions>
[ 6907 6896 6895 6894 ] final  130.69 input  -60.11 | X-H torsion
[ 7974 7965 7964 7962 ] final -127.96 input  175.53 | X-H torsion
[ 8008 7997 7996 7995 ] final  116.09 input   59.86 | X-H torsion
[ 10167 10162 10161 10158 ] final   87.47 input  -65.29 | X-H torsion
[ 10718 10713 10712 10709 ] final  175.46 input   66.30 | X-H torsion
[ 10763 10752 10751 10750 ] final  -47.77 input  -60.55 | X-H torsion
[ 11005 11000 10999 10996 ] final  172.44 input  -57.11 | X-H torsion

> <Gold.Protein.ActiveResidues>
 VAL166  LYS551  ARG553  GLY616  TRP617  ASP618  TYR619  PRO620  LYS621  CYS622 
 ASP623  PHE694  ASN695  SER759  ASP760  ASP761  ALA762  ILE779  LEU786  VAL792 
 PHE793  MET794  SER795  GLU796  ALA797  LYS798  CYS799  TRP800  GLU811  SER814 

> <Gold.Protein.RotatedAtoms>
  152.3501  133.6169  159.5938 H   0  0  0  0  0  0  0  0  0  0  0  0  # atno 6907 bound_to 6896
  150.7532  133.9587  159.3517 H   0  0  0  0  0  0  0  0  0  0  0  0  # atno 6908 bound_to 6896
  151.7440  135.0849  160.0371 H   0  0  0  0  0  0  0  0  0  0  0  0  # atno 6909 bound_to 6896
  144.9718  140.7553  143.4666 H   0  0  0  0  0  0  0  0  0  0  0  0  # atno 7974 bound_to 7965
  156.2419  140.2925  156.0470 H   0  0  0  0  0  0  0  0  0  0  0  0  # atno 8008 bound_to 7997
  155.1924  140.0407  157.2920 H   0  0  0  0  0  0  0  0  0  0  0  0  # atno 8009 bound_to 7997
  154.6185  140.2470  155.7585 H   0  0  0  0  0  0  0  0  0  0  0  0  # atno 8010 bound_to 7997
  139.8770  144.6461  150.8885 H   0  0  0  0  0  0  0  0  0  0  0  0  # atno 10167 bound_to 10162
  156.9346  130.9982  151.2980 H   0  0  0  0  0  0  0  0  0  0  0  0  # atno 10718 bound_to 10713
  154.0669  135.6610  153.4819 H   0  0  0  0  0  0  0  0  0  0  0  0  # atno 10763 bound_to 10752
  153.0406  135.5148  154.7605 H   0  0  0  0  0  0  0  0  0  0  0  0  # atno 10764 bound_to 10752
  154.6659  135.3022  154.9774 H   0  0  0  0  0  0  0  0  0  0  0  0  # atno 10765 bound_to 10752
  140.3297  134.7368  157.4125 H   0  0  0  0  0  0  0  0  0  0  0  0  # atno 11005 bound_to 11000
  145.2548  139.2016  143.4923 LP  0  0  0  0  0  0  0  0  0  0  0  0  # atno 17320 bound_to 7965
  146.3384  140.2467  142.8597 LP  0  0  0  0  0  0  0  0  0  0  0  0  # atno 17321 bound_to 7965
  140.7751  143.3617  151.1816 LP  0  0  0  0  0  0  0  0  0  0  0  0  # atno 17342 bound_to 10162
  139.7231  143.9192  152.2992 LP  0  0  0  0  0  0  0  0  0  0  0  0  # atno 17343 bound_to 10162
  157.5825  130.8386  149.8542 LP  0  0  0  0  0  0  0  0  0  0  0  0  # atno 17370 bound_to 10713
  156.0432  130.3734  150.1383 LP  0  0  0  0  0  0  0  0  0  0  0  0  # atno 17371 bound_to 10713
  140.0871  134.5651  155.8481 LP  0  0  0  0  0  0  0  0  0  0  0  0  # atno 17394 bound_to 11000
  141.2066  133.6657  156.6255 LP  0  0  0  0  0  0  0  0  0  0  0  0  # atno 17395 bound_to 11000

$$$$
