AV-unprocessed.smi:3131|AV-procd|sdf|11928|dock9
  -GOLD-   2272017313D 1   1.00000     0.00000
 Structure written by MMmdl.
 43 43  0  0  0  0  0  0  0  0  2 V2000
  144.6315  133.6294  150.2566 C   0  0  0  0  0  0  0  0  0  0  0  0
  144.6445  134.8634  151.1713 C   0  0  0  0  0  0  0  0  0  0  0  0
  145.9114  134.9980  152.0494 C   0  0  0  0  0  0  0  0  0  0  0  0
  146.2403  133.6614  152.7596 C   0  0  0  0  0  0  0  0  0  0  0  0
  147.6910  133.5492  153.2516 C   0  0  0  0  0  0  0  0  0  0  0  0
  145.7610  136.1443  153.0747 C   0  0  0  0  0  0  0  0  0  0  0  0
  147.0394  136.4440  153.7497 N   0  3  0  0  0  0  0  0  0  0  0  0
  147.0608  137.7300  154.4781 C   0  0  0  0  0  0  0  0  0  0  0  0
  147.7159  138.8494  153.6404 C   0  0  2  0  0  0  0  0  0  0  0  0
  146.8917  140.1447  153.7319 C   0  0  0  0  0  0  0  0  0  0  0  0
  147.6630  138.4485  152.2833 O   0  0  0  0  0  0  0  0  0  0  0  0
  149.1357  139.1080  154.0988 C   0  0  0  0  0  0  0  0  0  0  0  0
  149.6723  140.3197  154.6259 C   0  0  0  0  0  0  0  0  0  0  0  0
  150.9494  140.2226  154.9531 N   0  0  0  0  0  0  0  0  0  0  0  0
  151.2800  138.9541  154.6393 N   0  0  0  0  0  0  0  0  0  0  0  0
  152.6331  138.4934  154.8657 C   0  0  0  0  0  0  0  0  0  0  0  0
  150.2088  138.2591  154.1212 C   0  0  0  0  0  0  0  0  0  0  0  0
  143.6729  133.5443  149.7444 H   0  0  0  0  0  0  0  0  0  0  0  0
  144.7818  132.7129  150.8279 H   0  0  0  0  0  0  0  0  0  0  0  0
  145.4014  133.6795  149.4875 H   0  0  0  0  0  0  0  0  0  0  0  0
  144.5112  135.7644  150.5714 H   0  0  0  0  0  0  0  0  0  0  0  0
  143.7620  134.7970  151.8059 H   0  0  0  0  0  0  0  0  0  0  0  0
  146.7487  135.2450  151.3943 H   0  0  0  0  0  0  0  0  0  0  0  0
  145.5988  133.5354  153.6319 H   0  0  0  0  0  0  0  0  0  0  0  0
  146.0100  132.8234  152.1006 H   0  0  0  0  0  0  0  0  0  0  0  0
  147.8345  132.6266  153.8146 H   0  0  0  0  0  0  0  0  0  0  0  0
  147.9492  134.3791  153.9101 H   0  0  0  0  0  0  0  0  0  0  0  0
  148.4047  133.5376  152.4286 H   0  0  0  0  0  0  0  0  0  0  0  0
  145.4300  137.0596  152.5856 H   0  0  0  0  0  0  0  0  0  0  0  0
  145.0048  135.8889  153.8185 H   0  0  0  0  0  0  0  0  0  0  0  0
  147.2278  135.7050  154.4121 H   0  0  0  0  0  0  0  0  0  0  0  0
  146.0424  138.0027  154.7591 H   0  0  0  0  0  0  0  0  0  0  0  0
  147.6165  137.5933  155.4071 H   0  0  0  0  0  0  0  0  0  0  0  0
  146.8506  140.5186  154.7555 H   0  0  0  0  0  0  0  0  0  0  0  0
  145.8642  139.9895  153.4003 H   0  0  0  0  0  0  0  0  0  0  0  0
  147.3220  140.9330  153.1125 H   0  0  0  0  0  0  0  0  0  0  0  0
  148.2917  138.9556  151.7920 H   0  0  0  0  0  0  0  0  0  0  0  0
  149.1685  141.2615  154.7861 H   0  0  0  0  0  0  0  0  0  0  0  0
  152.7169  137.4370  154.6090 H   0  0  0  0  0  0  0  0  0  0  0  0
  152.8981  138.6250  155.9152 H   0  0  0  0  0  0  0  0  0  0  0  0
  153.3254  139.0647  154.2466 H   0  0  0  0  0  0  0  0  0  0  0  0
  150.2965  137.2263  153.8170 H   0  0  0  0  0  0  0  0  0  0  0  0
  147.7798  136.4536  153.0626 H   0  0  0  0  0  0  0  0  0  0  0  0
  1  2  1  0  0  0  0
  1 18  1  0  0  0  0
  1 19  1  0  0  0  0
  1 20  1  0  0  0  0
  2  3  1  0  0  0  0
  2 21  1  0  0  0  0
  2 22  1  0  0  0  0
  3  4  1  0  0  0  0
  3  6  1  0  0  0  0
  3 23  1  0  0  0  0
  4  5  1  0  0  0  0
  4 24  1  0  0  0  0
  4 25  1  0  0  0  0
  5 26  1  0  0  0  0
  5 27  1  0  0  0  0
  5 28  1  0  0  0  0
  6  7  1  0  0  0  0
  6 29  1  0  0  0  0
  6 30  1  0  0  0  0
  7  8  1  0  0  0  0
  7 31  1  0  0  0  0
  7 43  1  0  0  0  0
  8  9  1  0  0  0  0
  8 32  1  0  0  0  0
  8 33  1  0  0  0  0
  9 10  1  0  0  0  0
  9 11  1  0  0  0  0
  9 12  1  0  0  0  0
 10 34  1  0  0  0  0
 10 35  1  0  0  0  0
 10 36  1  0  0  0  0
 11 37  1  0  0  0  0
 12 17  2  0  0  0  0
 12 13  1  0  0  0  0
 13 14  2  0  0  0  0
 13 38  1  0  0  0  0
 14 15  1  0  0  0  0
 15 16  1  0  0  0  0
 15 17  1  0  0  0  0
 16 39  1  0  0  0  0
 16 40  1  0  0  0  0
 16 41  1  0  0  0  0
 17 42  1  0  0  0  0
M  CHG  1   7   1
M  END
> <s_m_source_file>
AV-unprocessed.smi

> <i_m_source_file_index>
3131

> <i_lp_mmshare_version>
43012

> <i_f3d_flags>
0

> <s_epik_input>
W0NIM11bQ0gyXVtDSF0oW0NIMl1bQ0gzXSlbQ0gyXVtOSF1bQ0gyXVtDQEBdKFtDSDNdKShbT0hdKWMxW2NIXW5uKFtDSDNdKVtjSF0x

> <s_epik_cmdline>
J2VwaWtfcHl0aG9uJywgJy1waCcsICc3LjAnLCAnLXRuJywgJzgnLCAnLW1hJywgJzIwMCcsICctbWV0YWxfYmluZGluZycsICctaW1hZScsICc8aW5maWxlLm1hZT4nLCAnLW9tYWUnLCAnPG91dGZpbGUubWFlPic=

> <r_lp_tautomer_probability>
1

> <r_epik_Ionization_Penalty>
0.00304809

> <r_epik_Ionization_Penalty_Charging>
0.00302982

> <r_epik_Ionization_Penalty_Neutral>
1.82731e-05

> <r_epik_State_Penalty>
0.00212874

> <r_epik_Charging_Adjusted_Penalty>
0.00515857

> <i_epik_Tot_Q>
1

> <i_epik_Tot_abs_Q>
1

> <r_epik_Metal_State_Penalty>
-0

> <b_epik_Metal_Only>
0

> <s_lp_Force_Field>
OPLS_2005

> <r_lp_Energy>
9.85369

> <b_lp_Chiralities_Consistent>
1

> <s_lp_Variant>
AV-unprocessed.smi:3131-2

> <Gold.Version>
5.8.1

> <Gold.Id.Protein>
6NUR|6NUR_protein|mol2

> <Gold.PLP.Fitness>
44.0550

> <Gold.PLP.PLP>
-32.7832

> <Gold.PLP.part.hbond>
-4.0000

> <Gold.PLP.part.metal>
0.0000

> <Gold.PLP.part.buried>
-1.1840

> <Gold.PLP.part.nonpolar>
-27.1662

> <Gold.PLP.part.repulsive>
0.0552

> <Gold.PLP.ligand.clash>
0.0000

> <Gold.PLP.ligand.torsion>
1.4545

> <Gold.PLP.Chemscore.Hbond>
3.6750

> <Gold.PLP.Chemscore.CHOScore>
0.9724

> <Gold.PLP.Chemscore.Metal>
0.0000

> <Gold.Chemscore.Hbonds>
donor molecule, donor type, donor heavy atom, donor atom, acceptor molecule, acceptor atom, score
      L1  H     7    43       P1  7948  2.00
      L1  H    11    37       P1  7957  1.00
      P1  H  7989  7998       L1    14  0.67
      L1  C    17    42       P1  7948  0.82
      L1  C    17    42       P1  7949  0.15

> <Gold.PLP.Chemscore.Internal.Correction>
0.2388

> <Gold.Rescore>
     Score         DG    S(hbond)    S(metal)    S(lipo)     H(rot)  DE(clash)    DE(int)     intcor
     13.03     -14.68       1.98        0.00      73.44       2.34       0.06       1.59       ----

> <Gold.Chemscore.Fitness>
13.0350

> <Gold.Chemscore.DG>
-14.6823

> <Gold.Chemscore.ZeroCoef>
-5.4800

> <Gold.Chemscore.Hbond>
1.9780

> <Gold.Chemscore.Metal>
0.0000

> <Gold.Chemscore.Lipo>
73.4449

> <Gold.Chemscore.Internal_Hbond>
0.0000

> <Gold.Chemscore.DEClash>
0.0551

> <Gold.Chemscore.DEInternal>
1.5923

> <Gold.Chemscore.Rot>
2.3426

> <Gold.Chemscore.Internal.Correction>
   9.000000E+99

> <Gold.Chemscore.Hbonds>
donor molecule, donor type, donor heavy atom, donor atom, acceptor molecule, acceptor atom, score
      L1  H     7    43       P1  7948  1.00
      L1  H    11    37       P1  7957  0.91
      P1  H  7989  7998       L1    14  0.02

> <Gold.Chemscore.Hbond.Weighted>
-6.6065

> <Gold.Chemscore.Metal.Weighted>
-0.0000

> <Gold.Chemscore.Lipo.Weighted>
-8.5931

> <Gold.Chemscore.Internal_Hbond.Weighted>
0.0000

> <Gold.Chemscore.DEClash.Weighted>
0.0551

> <Gold.Chemscore.DEInternal.Weighted>
1.5923

> <Gold.Chemscore.Rot.Weighted>
5.9972

> <Gold.Chemscore.Internal.Correction.Weighted>
   9.000000E+99

> <Gold.Protein.RotatedTorsions>
[ 6907 6896 6895 6894 ] final  -53.06 input  -60.11 | X-H torsion
[ 7974 7965 7964 7962 ] final   56.82 input  175.53 | X-H torsion
[ 8008 7997 7996 7995 ] final  -36.93 input   59.86 | X-H torsion
[ 10167 10162 10161 10158 ] final   53.75 input  -65.29 | X-H torsion
[ 10718 10713 10712 10709 ] final -139.37 input   66.30 | X-H torsion
[ 10763 10752 10751 10750 ] final -156.17 input  -60.55 | X-H torsion
[ 11005 11000 10999 10996 ] final -118.78 input  -57.11 | X-H torsion

> <Gold.Protein.ActiveResidues>
 VAL166  LYS551  ARG553  GLY616  TRP617  ASP618  TYR619  PRO620  LYS621  CYS622 
 ASP623  PHE694  ASN695  SER759  ASP760  ASP761  ALA762  ILE779  LEU786  VAL792 
 PHE793  MET794  SER795  GLU796  ALA797  LYS798  CYS799  TRP800  GLU811  SER814 

> <Gold.Protein.RotatedAtoms>
  150.8461  134.7770  159.6971 H   0  0  0  0  0  0  0  0  0  0  0  0  # atno 6907 bound_to 6896
  152.4537  134.5334  159.9827 H   0  0  0  0  0  0  0  0  0  0  0  0  # atno 6908 bound_to 6896
  151.5464  133.3386  159.2980 H   0  0  0  0  0  0  0  0  0  0  0  0  # atno 6909 bound_to 6896
  145.9357  139.3845  143.0394 H   0  0  0  0  0  0  0  0  0  0  0  0  # atno 7974 bound_to 7965
  154.4063  140.1618  156.2454 H   0  0  0  0  0  0  0  0  0  0  0  0  # atno 8008 bound_to 7997
  155.9165  140.3424  155.6117 H   0  0  0  0  0  0  0  0  0  0  0  0  # atno 8009 bound_to 7997
  155.7273  140.0776  157.2295 H   0  0  0  0  0  0  0  0  0  0  0  0  # atno 8010 bound_to 7997
  140.2374  144.3621  150.6392 H   0  0  0  0  0  0  0  0  0  0  0  0  # atno 10167 bound_to 10162
  156.3100  130.7476  151.1550 H   0  0  0  0  0  0  0  0  0  0  0  0  # atno 10718 bound_to 10713
  154.7733  135.3152  154.8144 H   0  0  0  0  0  0  0  0  0  0  0  0  # atno 10763 bound_to 10752
  153.8874  135.6829  153.4767 H   0  0  0  0  0  0  0  0  0  0  0  0  # atno 10764 bound_to 10752
  153.1351  135.4763  154.9345 H   0  0  0  0  0  0  0  0  0  0  0  0  # atno 10765 bound_to 10752
  141.0262  134.0051  157.3211 H   0  0  0  0  0  0  0  0  0  0  0  0  # atno 11005 bound_to 11000
  145.8366  140.9602  143.0821 LP  0  0  0  0  0  0  0  0  0  0  0  0  # atno 17320 bound_to 7965
  144.6771  140.0231  143.7483 LP  0  0  0  0  0  0  0  0  0  0  0  0  # atno 17321 bound_to 7965
  140.6139  143.2171  151.6830 LP  0  0  0  0  0  0  0  0  0  0  0  0  # atno 17342 bound_to 10162
  139.5089  144.3596  152.0575 LP  0  0  0  0  0  0  0  0  0  0  0  0  # atno 17343 bound_to 10162
  157.7389  131.0536  150.5268 LP  0  0  0  0  0  0  0  0  0  0  0  0  # atno 17370 bound_to 10713
  156.5406  130.4207  149.6156 LP  0  0  0  0  0  0  0  0  0  0  0  0  # atno 17371 bound_to 10713
  139.9177  135.0198  156.7946 LP  0  0  0  0  0  0  0  0  0  0  0  0  # atno 17394 bound_to 11000
  140.6488  133.9751  155.7744 LP  0  0  0  0  0  0  0  0  0  0  0  0  # atno 17395 bound_to 11000

$$$$
