AV-unprocessed.smi:1260|AV-procd|sdf|5294|dock5
  -GOLD-   22720 4413D 1   1.00000     0.00000
 Structure written by MMmdl.
 37 39  0  0  0  0  0  0  0  0  2 V2000
  147.3396  132.6414  154.3789 O   0  0  0  0  0  0  0  0  0  0  0  0
  147.9650  133.5651  153.8593 C   0  0  0  0  0  0  0  0  0  0  0  0
  149.4888  133.6106  153.9560 C   0  0  0  0  0  0  0  0  0  0  0  0
  149.8921  134.0054  155.2924 N   0  0  0  0  0  0  0  0  0  0  0  0
  150.5340  135.0907  155.7296 C   0  0  0  0  0  0  0  0  0  0  0  0
  150.6693  135.0803  157.0469 N   0  0  0  0  0  0  0  0  0  0  0  0
  150.0607  133.8926  157.4169 N   0  0  0  0  0  0  0  0  0  0  0  0
  149.5973  133.2502  156.3803 N   0  0  0  0  0  0  0  0  0  0  0  0
  147.3832  134.5468  153.1535 N   0  0  0  0  0  0  0  0  0  0  0  0
  145.9659  134.5944  152.8079 C   0  0  1  0  0  0  0  0  0  0  0  0
  145.6122  135.7371  151.8468 C   0  0  0  0  0  0  0  0  0  0  0  0
  144.4448  135.2008  150.9981 C   0  0  0  0  0  0  0  0  0  0  0  0
  144.2125  133.8095  151.4465 N   0  3  1  0  0  0  0  0  0  0  0  0
  143.5924  132.8904  150.4578 C   0  0  0  0  0  0  0  0  0  0  0  0
  144.5989  132.3649  149.4205 C   0  0  0  0  0  0  0  0  0  0  0  0
  145.8124  131.7368  150.1130 C   0  0  0  0  0  0  0  0  0  0  0  0
  146.4684  132.7701  151.0338 C   0  0  0  0  0  0  0  0  0  0  0  0
  145.4665  133.3368  152.0744 C   0  0  1  0  0  0  0  0  0  0  0  0
  149.9176  132.6361  153.7171 H   0  0  0  0  0  0  0  0  0  0  0  0
  149.8902  134.3282  153.2392 H   0  0  0  0  0  0  0  0  0  0  0  0
  150.8875  135.8860  155.0900 H   0  0  0  0  0  0  0  0  0  0  0  0
  147.9752  135.2680  152.7665 H   0  0  0  0  0  0  0  0  0  0  0  0
  145.3770  134.7271  153.7181 H   0  0  0  0  0  0  0  0  0  0  0  0
  145.3460  136.6477  152.3847 H   0  0  0  0  0  0  0  0  0  0  0  0
  146.4559  135.9755  151.1972 H   0  0  0  0  0  0  0  0  0  0  0  0
  143.5379  135.7907  151.1336 H   0  0  0  0  0  0  0  0  0  0  0  0
  144.7079  135.2329  149.9403 H   0  0  0  0  0  0  0  0  0  0  0  0
  143.1715  132.0463  151.0055 H   0  0  0  0  0  0  0  0  0  0  0  0
  142.7557  133.3878  149.9659 H   0  0  0  0  0  0  0  0  0  0  0  0
  144.1164  131.6279  148.7780 H   0  0  0  0  0  0  0  0  0  0  0  0
  144.9245  133.1745  148.7665 H   0  0  0  0  0  0  0  0  0  0  0  0
  145.5057  130.8634  150.6899 H   0  0  0  0  0  0  0  0  0  0  0  0
  146.5305  131.3869  149.3706 H   0  0  0  0  0  0  0  0  0  0  0  0
  147.3191  132.3119  151.5393 H   0  0  0  0  0  0  0  0  0  0  0  0
  146.8762  133.5769  150.4234 H   0  0  0  0  0  0  0  0  0  0  0  0
  145.2248  132.5504  152.7910 H   0  0  0  0  0  0  0  0  0  0  0  0
  143.5503  133.8928  152.2048 H   0  0  0  0  0  0  0  0  0  0  0  0
  1  2  2  0  0  0  0
  2  3  1  0  0  0  0
  2  9  1  0  0  0  0
  3  4  1  0  0  0  0
  3 19  1  0  0  0  0
  3 20  1  0  0  0  0
  4  8  1  0  0  0  0
  4  5  1  0  0  0  0
  5  6  2  0  0  0  0
  5 21  1  0  0  0  0
  6  7  1  0  0  0  0
  7  8  2  0  0  0  0
  9 10  1  0  0  0  0
  9 22  1  0  0  0  0
 10 18  1  0  0  0  0
 10 11  1  0  0  0  0
 10 23  1  0  0  0  0
 11 12  1  0  0  0  0
 11 24  1  0  0  0  0
 11 25  1  0  0  0  0
 12 13  1  0  0  0  0
 12 26  1  0  0  0  0
 12 27  1  0  0  0  0
 13 18  1  0  0  0  0
 13 14  1  0  0  0  0
 13 37  1  0  0  0  0
 14 15  1  0  0  0  0
 14 28  1  0  0  0  0
 14 29  1  0  0  0  0
 15 16  1  0  0  0  0
 15 30  1  0  0  0  0
 15 31  1  0  0  0  0
 16 17  1  0  0  0  0
 16 32  1  0  0  0  0
 16 33  1  0  0  0  0
 17 18  1  0  0  0  0
 17 34  1  0  0  0  0
 17 35  1  0  0  0  0
 18 36  1  0  0  0  0
M  CHG  1  13   1
M  END
> <s_m_source_file>
AV-unprocessed.smi

> <i_m_source_file_index>
1260

> <i_lp_mmshare_version>
43012

> <i_f3d_flags>
0

> <s_epik_input>
bjFubltjSF1uMVtDSDJdQyg9TylbTkhdW0NASF0oW0NIMl1bQ0gyXTIpW0NAQEhdKE4yMylbQ0gyXVtDSDJdW0NIMl1bQ0gyXTM=

> <s_epik_cmdline>
J2VwaWtfcHl0aG9uJywgJy1waCcsICc3LjAnLCAnLXRuJywgJzgnLCAnLW1hJywgJzIwMCcsICctbWV0YWxfYmluZGluZycsICctaW1hZScsICc8aW5maWxlLm1hZT4nLCAnLW9tYWUnLCAnPG91dGZpbGUubWFlPic=

> <r_lp_tautomer_probability>
1

> <r_epik_Ionization_Penalty>
0.00234324

> <r_epik_Ionization_Penalty_Charging>
0.00233897

> <r_epik_Ionization_Penalty_Neutral>
4.26861e-06

> <r_epik_State_Penalty>
0.00161477

> <r_epik_Charging_Adjusted_Penalty>
0.00395374

> <i_epik_Tot_Q>
1

> <i_epik_Tot_abs_Q>
1

> <r_epik_Metal_State_Penalty>
-0

> <b_epik_Metal_Only>
0

> <s_lp_Force_Field>
OPLS_2005

> <r_lp_Energy>
37.4375

> <b_lp_Chiralities_Consistent>
1

> <s_lp_Variant>
AV-unprocessed.smi:1260-2

> <Gold.Version>
5.8.1

> <Gold.Id.Protein>
6NUR|6NUR_protein|mol2

> <Gold.PLP.Fitness>
36.6989

> <Gold.PLP.PLP>
-31.3887

> <Gold.PLP.part.hbond>
-2.4392

> <Gold.PLP.part.metal>
0.0000

> <Gold.PLP.part.buried>
-3.9779

> <Gold.PLP.part.nonpolar>
-25.9547

> <Gold.PLP.part.repulsive>
0.0388

> <Gold.PLP.ligand.clash>
0.0000

> <Gold.PLP.ligand.torsion>
0.2167

> <Gold.PLP.Chemscore.Hbond>
1.9120

> <Gold.PLP.Chemscore.CHOScore>
0.0000

> <Gold.PLP.Chemscore.Metal>
0.0000

> <Gold.Chemscore.Hbonds>
donor molecule, donor type, donor heavy atom, donor atom, acceptor molecule, acceptor atom, score
      L1  H     9    22       P1  7948  1.00
      P1  H  6896  6909       L1     7  0.85

> <Gold.PLP.Chemscore.Internal.Correction>
0.0075

> <Gold.Rescore>
     Score         DG    S(hbond)    S(metal)    S(lipo)     H(rot)  DE(clash)    DE(int)     intcor
     13.10     -13.36       1.64        0.00      63.76       1.98       0.03       0.24       ----

> <Gold.Chemscore.Fitness>
13.1028

> <Gold.Chemscore.DG>
-13.3648

> <Gold.Chemscore.ZeroCoef>
-5.4800

> <Gold.Chemscore.Hbond>
1.6415

> <Gold.Chemscore.Metal>
0.0000

> <Gold.Chemscore.Lipo>
63.7585

> <Gold.Chemscore.Internal_Hbond>
0.0000

> <Gold.Chemscore.DEClash>
0.0263

> <Gold.Chemscore.DEInternal>
0.2356

> <Gold.Chemscore.Rot>
1.9757

> <Gold.Chemscore.Internal.Correction>
   9.000000E+99

> <Gold.Chemscore.Hbonds>
donor molecule, donor type, donor heavy atom, donor atom, acceptor molecule, acceptor atom, score
      L1  H     9    22       P1  7948  0.99
      P1  H  6896  6909       L1     7  0.16

> <Gold.Chemscore.Hbond.Weighted>
-5.4828

> <Gold.Chemscore.Metal.Weighted>
-0.0000

> <Gold.Chemscore.Lipo.Weighted>
-7.4597

> <Gold.Chemscore.Internal_Hbond.Weighted>
0.0000

> <Gold.Chemscore.DEClash.Weighted>
0.0263

> <Gold.Chemscore.DEInternal.Weighted>
0.2356

> <Gold.Chemscore.Rot.Weighted>
5.0578

> <Gold.Chemscore.Internal.Correction.Weighted>
   9.000000E+99

> <Gold.Protein.RotatedTorsions>
[ 6907 6896 6895 6894 ] final   -4.34 input  -60.11 | X-H torsion
[ 7974 7965 7964 7962 ] final  -73.88 input  175.53 | X-H torsion
[ 8008 7997 7996 7995 ] final   87.14 input   59.86 | X-H torsion
[ 10167 10162 10161 10158 ] final  -53.87 input  -65.29 | X-H torsion
[ 10718 10713 10712 10709 ] final   98.70 input   66.30 | X-H torsion
[ 10763 10752 10751 10750 ] final  -14.75 input  -60.55 | X-H torsion
[ 11005 11000 10999 10996 ] final  -61.68 input  -57.11 | X-H torsion

> <Gold.Protein.ActiveResidues>
 VAL166  LYS551  ARG553  GLY616  TRP617  ASP618  TYR619  PRO620  LYS621  CYS622 
 ASP623  PHE694  ASN695  SER759  ASP760  ASP761  ALA762  ILE779  LEU786  VAL792 
 PHE793  MET794  SER795  GLU796  ALA797  LYS798  CYS799  TRP800  GLU811  SER814 

> <Gold.Protein.RotatedAtoms>
  151.4992  135.1061  159.9823 H   0  0  0  0  0  0  0  0  0  0  0  0  # atno 6907 bound_to 6896
  152.4709  133.8023  159.6970 H   0  0  0  0  0  0  0  0  0  0  0  0  # atno 6908 bound_to 6896
  150.8717  133.7432  159.2985 H   0  0  0  0  0  0  0  0  0  0  0  0  # atno 6909 bound_to 6896
  145.6464  140.9296  143.1008 H   0  0  0  0  0  0  0  0  0  0  0  0  # atno 7974 bound_to 7965
  155.9716  140.3385  155.6581 H   0  0  0  0  0  0  0  0  0  0  0  0  # atno 8008 bound_to 7997
  155.6667  140.0722  157.2553 H   0  0  0  0  0  0  0  0  0  0  0  0  # atno 8009 bound_to 7997
  154.4168  140.1699  156.1822 H   0  0  0  0  0  0  0  0  0  0  0  0  # atno 8010 bound_to 7997
  140.6461  143.2536  151.4855 H   0  0  0  0  0  0  0  0  0  0  0  0  # atno 10167 bound_to 10162
  157.6890  131.0648  150.4836 H   0  0  0  0  0  0  0  0  0  0  0  0  # atno 10718 bound_to 10713
  153.5329  135.7014  153.5674 H   0  0  0  0  0  0  0  0  0  0  0  0  # atno 10763 bound_to 10752
  153.3673  135.3954  155.1763 H   0  0  0  0  0  0  0  0  0  0  0  0  # atno 10764 bound_to 10752
  154.8682  135.3803  154.4828 H   0  0  0  0  0  0  0  0  0  0  0  0  # atno 10765 bound_to 10752
  141.1333  133.6632  156.5412 H   0  0  0  0  0  0  0  0  0  0  0  0  # atno 11005 bound_to 11000
  144.7138  139.8270  143.7405 LP  0  0  0  0  0  0  0  0  0  0  0  0  # atno 17320 bound_to 7965
  146.1239  139.4262  143.0211 LP  0  0  0  0  0  0  0  0  0  0  0  0  # atno 17321 bound_to 7965
  139.5672  144.2014  152.1783 LP  0  0  0  0  0  0  0  0  0  0  0  0  # atno 17342 bound_to 10162
  140.1299  144.5297  150.6809 LP  0  0  0  0  0  0  0  0  0  0  0  0  # atno 17343 bound_to 10162
  156.5167  130.4152  149.6272 LP  0  0  0  0  0  0  0  0  0  0  0  0  # atno 17370 bound_to 10713
  156.3192  130.7271  151.2179 LP  0  0  0  0  0  0  0  0  0  0  0  0  # atno 17371 bound_to 10713
  140.4138  134.7249  157.4851 LP  0  0  0  0  0  0  0  0  0  0  0  0  # atno 17394 bound_to 11000
  140.0408  134.6270  155.8983 LP  0  0  0  0  0  0  0  0  0  0  0  0  # atno 17395 bound_to 11000

$$$$
