AV-unprocessed.smi:3201|AV-procd|sdf|12240|dock8
  -GOLD-   2272018 73D 1   1.00000     0.00000
 Structure written by MMmdl.
 41 43  0  0  0  0  0  0  0  0  2 V2000
  153.1521  141.6787  159.5475 C   0  0  0  0  0  0  0  0  0  0  0  0
  152.4979  143.0006  159.7936 C   0  0  0  0  0  0  0  0  0  0  0  0
  151.8919  143.8677  158.9238 C   0  0  0  0  0  0  0  0  0  0  0  0
  151.7041  143.7449  157.4364 C   0  0  0  0  0  0  0  0  0  0  0  0
  151.2338  142.3390  157.0423 C   0  0  0  0  0  0  0  0  0  0  0  0
  149.9471  142.3962  156.3200 N   0  3  0  0  0  0  0  0  0  0  0  0
  149.9362  141.6931  155.0185 C   0  0  1  0  0  0  0  0  0  0  0  0
  150.3185  140.1991  155.1034 C   0  0  0  0  0  0  0  0  0  0  0  0
  149.1475  139.5082  154.3771 C   0  0  1  0  0  0  0  0  0  0  0  0
  147.9166  139.5117  155.3002 C   0  0  0  0  0  0  0  0  0  0  0  0
  147.4948  140.9923  155.2903 C   0  0  0  0  0  0  0  0  0  0  0  0
  148.5401  141.6460  154.3599 C   0  0  2  0  0  0  0  0  0  0  0  0
  148.7512  140.5428  153.3276 C   0  0  0  0  0  0  0  0  0  0  0  0
  151.4644  144.9390  159.7577 C   0  0  0  0  0  0  0  0  0  0  0  0
  151.7768  144.7563  161.0275 N   0  0  0  0  0  0  0  0  0  0  0  0
  152.4136  143.5680  161.0533 N   0  0  0  0  0  0  0  0  0  0  0  0
  152.8960  143.0680  162.3267 C   0  0  0  0  0  0  0  0  0  0  0  0
  153.0665  141.3816  158.5026 H   0  0  0  0  0  0  0  0  0  0  0  0
  152.6899  140.8985  160.1527 H   0  0  0  0  0  0  0  0  0  0  0  0
  154.2125  141.7193  159.7971 H   0  0  0  0  0  0  0  0  0  0  0  0
  150.9774  144.4783  157.0847 H   0  0  0  0  0  0  0  0  0  0  0  0
  152.6313  143.9779  156.9119 H   0  0  0  0  0  0  0  0  0  0  0  0
  151.9798  141.8601  156.4065 H   0  0  0  0  0  0  0  0  0  0  0  0
  151.1255  141.7212  157.9346 H   0  0  0  0  0  0  0  0  0  0  0  0
  149.2230  142.0032  156.9043 H   0  0  0  0  0  0  0  0  0  0  0  0
  150.6210  142.2084  154.3422 H   0  0  0  0  0  0  0  0  0  0  0  0
  151.2613  140.0178  154.5859 H   0  0  0  0  0  0  0  0  0  0  0  0
  150.4276  139.8372  156.1267 H   0  0  0  0  0  0  0  0  0  0  0  0
  149.3950  138.5214  153.9846 H   0  0  0  0  0  0  0  0  0  0  0  0
  147.1228  138.8843  154.8921 H   0  0  0  0  0  0  0  0  0  0  0  0
  148.1462  139.1490  156.3029 H   0  0  0  0  0  0  0  0  0  0  0  0
  146.4926  141.0962  154.8721 H   0  0  0  0  0  0  0  0  0  0  0  0
  147.4766  141.4280  156.2891 H   0  0  0  0  0  0  0  0  0  0  0  0
  148.2196  142.6022  153.9455 H   0  0  0  0  0  0  0  0  0  0  0  0
  149.5463  140.7601  152.6123 H   0  0  0  0  0  0  0  0  0  0  0  0
  147.8429  140.2794  152.7820 H   0  0  0  0  0  0  0  0  0  0  0  0
  150.9376  145.8392  159.4778 H   0  0  0  0  0  0  0  0  0  0  0  0
  153.4772  142.1562  162.1921 H   0  0  0  0  0  0  0  0  0  0  0  0
  152.0499  142.8532  162.9799 H   0  0  0  0  0  0  0  0  0  0  0  0
  153.5300  143.8179  162.8009 H   0  0  0  0  0  0  0  0  0  0  0  0
  149.7312  143.3683  156.1511 H   0  0  0  0  0  0  0  0  0  0  0  0
  1  2  1  0  0  0  0
  1 18  1  0  0  0  0
  1 19  1  0  0  0  0
  1 20  1  0  0  0  0
  2 16  1  0  0  0  0
  2  3  2  0  0  0  0
  3  4  1  0  0  0  0
  3 14  1  0  0  0  0
  4  5  1  0  0  0  0
  4 21  1  0  0  0  0
  4 22  1  0  0  0  0
  5  6  1  0  0  0  0
  5 23  1  0  0  0  0
  5 24  1  0  0  0  0
  6  7  1  0  0  0  0
  6 25  1  0  0  0  0
  6 41  1  0  0  0  0
  7 12  1  0  0  0  0
  7  8  1  0  0  0  0
  7 26  1  0  0  0  0
  8  9  1  0  0  0  0
  8 27  1  0  0  0  0
  8 28  1  0  0  0  0
  9 13  1  0  0  0  0
  9 10  1  0  0  0  0
  9 29  1  0  0  0  0
 10 11  1  0  0  0  0
 10 30  1  0  0  0  0
 10 31  1  0  0  0  0
 11 12  1  0  0  0  0
 11 32  1  0  0  0  0
 11 33  1  0  0  0  0
 12 13  1  0  0  0  0
 12 34  1  0  0  0  0
 13 35  1  0  0  0  0
 13 36  1  0  0  0  0
 14 15  2  0  0  0  0
 14 37  1  0  0  0  0
 15 16  1  0  0  0  0
 16 17  1  0  0  0  0
 17 38  1  0  0  0  0
 17 39  1  0  0  0  0
 17 40  1  0  0  0  0
M  CHG  1   6   1
M  END
> <s_m_source_file>
AV-unprocessed.smi

> <i_m_source_file_index>
3201

> <i_lp_mmshare_version>
43012

> <i_f3d_flags>
0

> <s_epik_input>
W0NIM11uMW5bY0hdYyhjMVtDSDNdKVtDSDJdW0NIMl1bTkhdW0NASF0oW0NIMl1bQ0BIXTIzKVtDQEhdKFtDSDJdMylbQ0gyXVtDSDJdMg==

> <s_epik_cmdline>
J2VwaWtfcHl0aG9uJywgJy1waCcsICc3LjAnLCAnLXRuJywgJzgnLCAnLW1hJywgJzIwMCcsICctbWV0YWxfYmluZGluZycsICctaW1hZScsICc8aW5maWxlLm1hZT4nLCAnLW9tYWUnLCAnPG91dGZpbGUubWFlPic=

> <r_lp_tautomer_probability>
1

> <r_epik_Ionization_Penalty>
0.000331174

> <r_epik_Ionization_Penalty_Charging>
0.000242709

> <r_epik_Ionization_Penalty_Neutral>
8.84659e-05

> <r_epik_State_Penalty>
-0

> <r_epik_Charging_Adjusted_Penalty>
0.000242709

> <i_epik_Tot_Q>
1

> <i_epik_Tot_abs_Q>
1

> <r_epik_Metal_State_Penalty>
-0

> <b_epik_Metal_Only>
0

> <s_lp_Force_Field>
OPLS_2005

> <r_lp_Energy>
51.1066

> <b_lp_Chiralities_Consistent>
1

> <s_lp_Variant>
AV-unprocessed.smi:3201-4

> <Gold.Version>
5.8.1

> <Gold.Id.Protein>
6NUR|6NUR_protein|mol2

> <Gold.PLP.Fitness>
45.7478

> <Gold.PLP.PLP>
-41.6131

> <Gold.PLP.part.hbond>
-1.0000

> <Gold.PLP.part.metal>
0.0000

> <Gold.PLP.part.buried>
-0.3955

> <Gold.PLP.part.nonpolar>
-38.9429

> <Gold.PLP.part.repulsive>
0.2685

> <Gold.PLP.ligand.clash>
0.0000

> <Gold.PLP.ligand.torsion>
0.9402

> <Gold.PLP.Chemscore.Hbond>
2.0000

> <Gold.PLP.Chemscore.CHOScore>
0.0000

> <Gold.PLP.Chemscore.Metal>
0.0000

> <Gold.Chemscore.Hbonds>
donor molecule, donor type, donor heavy atom, donor atom, acceptor molecule, acceptor atom, score
      L1  H     6    41       P1  8028  2.00

> <Gold.PLP.Chemscore.Internal.Correction>
0.0151

> <Gold.Rescore>
     Score         DG    S(hbond)    S(metal)    S(lipo)     H(rot)  DE(clash)    DE(int)     intcor
     17.10     -19.14       0.98        0.00     118.59       1.36       1.22       0.82       ----

> <Gold.Chemscore.Fitness>
17.1040

> <Gold.Chemscore.DG>
-19.1438

> <Gold.Chemscore.ZeroCoef>
-5.4800

> <Gold.Chemscore.Hbond>
0.9783

> <Gold.Chemscore.Metal>
0.0000

> <Gold.Chemscore.Lipo>
118.5884

> <Gold.Chemscore.Internal_Hbond>
0.0000

> <Gold.Chemscore.DEClash>
1.2168

> <Gold.Chemscore.DEInternal>
0.8230

> <Gold.Chemscore.Rot>
1.3588

> <Gold.Chemscore.Internal.Correction>
   9.000000E+99

> <Gold.Chemscore.Hbonds>
donor molecule, donor type, donor heavy atom, donor atom, acceptor molecule, acceptor atom, score
      L1  H     6    41       P1  8028  0.99

> <Gold.Chemscore.Hbond.Weighted>
-3.2675

> <Gold.Chemscore.Metal.Weighted>
-0.0000

> <Gold.Chemscore.Lipo.Weighted>
-13.8748

> <Gold.Chemscore.Internal_Hbond.Weighted>
0.0000

> <Gold.Chemscore.DEClash.Weighted>
1.2168

> <Gold.Chemscore.DEInternal.Weighted>
0.8230

> <Gold.Chemscore.Rot.Weighted>
3.4786

> <Gold.Chemscore.Internal.Correction.Weighted>
   9.000000E+99

> <Gold.Protein.RotatedTorsions>
[ 6907 6896 6895 6894 ] final   59.83 input  -60.11 | X-H torsion
[ 7974 7965 7964 7962 ] final  -57.56 input  175.53 | X-H torsion
[ 8008 7997 7996 7995 ] final -114.82 input   59.86 | X-H torsion
[ 10167 10162 10161 10158 ] final  173.74 input  -65.29 | X-H torsion
[ 10718 10713 10712 10709 ] final -103.96 input   66.30 | X-H torsion
[ 10763 10752 10751 10750 ] final -129.17 input  -60.55 | X-H torsion
[ 11005 11000 10999 10996 ] final -135.42 input  -57.11 | X-H torsion

> <Gold.Protein.ActiveResidues>
 VAL166  LYS551  ARG553  GLY616  TRP617  ASP618  TYR619  PRO620  LYS621  CYS622 
 ASP623  PHE694  ASN695  SER759  ASP760  ASP761  ALA762  ILE779  LEU786  VAL792 
 PHE793  MET794  SER795  GLU796  ALA797  LYS798  CYS799  TRP800  GLU811  SER814 

> <Gold.Protein.RotatedAtoms>
  152.3950  134.6380  160.0092 H   0  0  0  0  0  0  0  0  0  0  0  0  # atno 6907 bound_to 6896
  151.6603  133.3311  159.3180 H   0  0  0  0  0  0  0  0  0  0  0  0  # atno 6908 bound_to 6896
  150.7859  134.6887  159.6529 H   0  0  0  0  0  0  0  0  0  0  0  0  # atno 6909 bound_to 6896
  145.8496  140.8362  142.9993 H   0  0  0  0  0  0  0  0  0  0  0  0  # atno 7974 bound_to 7965
  155.0423  140.0392  157.2514 H   0  0  0  0  0  0  0  0  0  0  0  0  # atno 8008 bound_to 7997
  154.7207  140.2711  155.6521 H   0  0  0  0  0  0  0  0  0  0  0  0  # atno 8009 bound_to 7997
  156.2815  140.2703  156.1877 H   0  0  0  0  0  0  0  0  0  0  0  0  # atno 8010 bound_to 7997
  139.5118  144.3226  152.0188 H   0  0  0  0  0  0  0  0  0  0  0  0  # atno 10167 bound_to 10162
  156.0285  130.5492  150.7328 H   0  0  0  0  0  0  0  0  0  0  0  0  # atno 10718 bound_to 10713
  154.8757  135.3904  154.3875 H   0  0  0  0  0  0  0  0  0  0  0  0  # atno 10763 bound_to 10752
  153.4615  135.7029  153.6052 H   0  0  0  0  0  0  0  0  0  0  0  0  # atno 10764 bound_to 10752
  153.4549  135.3825  155.2273 H   0  0  0  0  0  0  0  0  0  0  0  0  # atno 10765 bound_to 10752
  140.8900  134.1824  157.4534 H   0  0  0  0  0  0  0  0  0  0  0  0  # atno 11005 bound_to 11000
  144.6729  140.0933  143.7464 LP  0  0  0  0  0  0  0  0  0  0  0  0  # atno 17320 bound_to 7965
  145.9373  139.2645  143.1289 LP  0  0  0  0  0  0  0  0  0  0  0  0  # atno 17321 bound_to 7965
  140.2667  144.4008  150.6166 LP  0  0  0  0  0  0  0  0  0  0  0  0  # atno 17342 bound_to 10162
  140.6118  143.2170  151.6871 LP  0  0  0  0  0  0  0  0  0  0  0  0  # atno 17343 bound_to 10162
  157.4916  131.0911  151.0420 LP  0  0  0  0  0  0  0  0  0  0  0  0  # atno 17370 bound_to 10713
  157.0825  130.5909  149.5423 LP  0  0  0  0  0  0  0  0  0  0  0  0  # atno 17371 bound_to 10713
  139.8728  134.9854  156.5281 LP  0  0  0  0  0  0  0  0  0  0  0  0  # atno 17394 bound_to 11000
  140.8358  133.8243  155.9028 LP  0  0  0  0  0  0  0  0  0  0  0  0  # atno 17395 bound_to 11000

$$$$
