AV-unprocessed.smi:2505|AV-procd|sdf|9860|dock2
  -GOLD-   2272013493D 1   1.00000     0.00000
 Structure written by MMmdl.
 48 52  0  0  0  0  0  0  0  0  1 V2000
  148.2522  135.7354  156.0854 O   0  0  0  0  0  0  0  0  0  0  0  0
  148.4458  135.9268  154.8874 C   0  0  0  0  0  0  0  0  0  0  0  0
  149.1202  136.9727  154.3743 N   0  0  0  0  0  0  0  0  0  0  0  0
  149.5805  138.1469  155.0273 C   0  0  0  0  0  0  0  0  0  0  0  0
  149.3472  138.4779  156.3851 C   0  0  0  0  0  0  0  0  0  0  0  0
  149.8071  139.6278  156.9235 N   0  0  0  0  0  0  0  0  0  0  0  0
  150.4813  140.4499  156.1151 C   0  0  0  0  0  0  0  0  0  0  0  0
  151.0267  141.7005  156.7317 C   0  0  0  0  0  0  0  0  0  0  0  0
  151.9509  141.6358  157.9307 C   0  0  0  0  0  0  0  0  0  0  0  0
  150.5531  142.1643  158.0939 C   0  0  0  0  0  0  0  0  0  0  0  0
  150.7640  140.2434  154.8259 N   0  0  0  0  0  0  0  0  0  0  0  0
  150.3081  139.0960  154.2793 C   0  0  0  0  0  0  0  0  0  0  0  0
  148.0029  135.0570  153.9639 N   0  0  0  0  0  0  0  0  0  0  0  0
  147.2423  133.8244  154.1771 C   0  0  1  0  0  0  0  0  0  0  0  0
  146.9605  133.1037  152.8585 C   0  0  2  0  0  0  0  0  0  0  0  0
  145.7365  132.8438  152.0553 C   0  0  0  0  0  0  0  0  0  0  0  0
  145.9813  131.3377  151.7757 C   0  0  0  0  0  0  0  0  0  0  0  0
  147.0817  130.9481  152.6334 O   0  0  0  0  0  0  0  0  0  0  0  0
  147.0114  131.8566  153.7140 C   0  0  1  0  0  0  0  0  0  0  0  0
  148.1177  132.5569  154.5294 C   0  0  0  0  0  0  0  0  0  0  0  0
  149.5707  132.4591  154.0294 C   0  0  0  0  0  0  0  0  0  0  0  0
  150.4732  132.6787  155.2394 C   0  0  0  0  0  0  0  0  0  0  0  0
  149.6994  132.0650  156.3994 C   0  0  0  0  0  0  0  0  0  0  0  0
  148.2198  132.1628  156.0098 C   0  0  0  0  0  0  0  0  0  0  0  0
  149.2797  136.9442  153.3777 H   0  0  0  0  0  0  0  0  0  0  0  0
  148.7846  137.8490  157.0562 H   0  0  0  0  0  0  0  0  0  0  0  0
  151.2245  142.4594  155.9772 H   0  0  0  0  0  0  0  0  0  0  0  0
  152.1680  140.6567  158.3535 H   0  0  0  0  0  0  0  0  0  0  0  0
  152.7687  142.3521  157.9713 H   0  0  0  0  0  0  0  0  0  0  0  0
  150.4344  143.2352  158.2446 H   0  0  0  0  0  0  0  0  0  0  0  0
  149.8399  141.5370  158.6253 H   0  0  0  0  0  0  0  0  0  0  0  0
  150.5279  138.9350  153.2339 H   0  0  0  0  0  0  0  0  0  0  0  0
  148.2388  135.2639  153.0042 H   0  0  0  0  0  0  0  0  0  0  0  0
  146.3502  133.9484  154.7982 H   0  0  0  0  0  0  0  0  0  0  0  0
  147.8224  133.1852  152.1892 H   0  0  0  0  0  0  0  0  0  0  0  0
  144.8265  133.0101  152.6332 H   0  0  0  0  0  0  0  0  0  0  0  0
  145.6941  133.4383  151.1424 H   0  0  0  0  0  0  0  0  0  0  0  0
  145.0917  130.7499  152.0046 H   0  0  0  0  0  0  0  0  0  0  0  0
  146.2497  131.1556  150.7348 H   0  0  0  0  0  0  0  0  0  0  0  0
  146.1051  131.6859  154.3066 H   0  0  0  0  0  0  0  0  0  0  0  0
  149.7528  131.4642  153.6209 H   0  0  0  0  0  0  0  0  0  0  0  0
  149.8116  133.1695  153.2388 H   0  0  0  0  0  0  0  0  0  0  0  0
  151.4625  132.2383  155.1128 H   0  0  0  0  0  0  0  0  0  0  0  0
  150.6058  133.7471  155.4114 H   0  0  0  0  0  0  0  0  0  0  0  0
  149.9782  131.0164  156.5102 H   0  0  0  0  0  0  0  0  0  0  0  0
  149.9139  132.5641  157.3450 H   0  0  0  0  0  0  0  0  0  0  0  0
  147.7153  132.8925  156.6423 H   0  0  0  0  0  0  0  0  0  0  0  0
  147.7257  131.2092  156.1997 H   0  0  0  0  0  0  0  0  0  0  0  0
  1  2  2  0  0  0  0
  2  3  1  0  0  0  0
  2 13  1  0  0  0  0
  3  4  1  0  0  0  0
  3 25  1  0  0  0  0
  4 12  1  0  0  0  0
  4  5  2  0  0  0  0
  5  6  1  0  0  0  0
  5 26  1  0  0  0  0
  6  7  2  0  0  0  0
  7  8  1  0  0  0  0
  7 11  1  0  0  0  0
  8 10  1  0  0  0  0
  8  9  1  0  0  0  0
  8 27  1  0  0  0  0
  9 10  1  0  0  0  0
  9 28  1  0  0  0  0
  9 29  1  0  0  0  0
 10 30  1  0  0  0  0
 10 31  1  0  0  0  0
 11 12  2  0  0  0  0
 12 32  1  0  0  0  0
 13 14  1  0  0  0  0
 13 33  1  0  0  0  0
 14 20  1  0  0  0  0
 14 15  1  0  0  0  0
 14 34  1  0  0  0  0
 15 19  1  0  0  0  0
 15 16  1  0  0  0  0
 15 35  1  0  0  0  0
 16 17  1  0  0  0  0
 16 36  1  0  0  0  0
 16 37  1  0  0  0  0
 17 18  1  0  0  0  0
 17 38  1  0  0  0  0
 17 39  1  0  0  0  0
 18 19  1  0  0  0  0
 19 20  1  0  0  0  0
 19 40  1  0  0  0  0
 20 24  1  0  0  0  0
 20 21  1  0  0  0  0
 21 22  1  0  0  0  0
 21 41  1  0  0  0  0
 21 42  1  0  0  0  0
 22 23  1  0  0  0  0
 22 43  1  0  0  0  0
 22 44  1  0  0  0  0
 23 24  1  0  0  0  0
 23 45  1  0  0  0  0
 23 46  1  0  0  0  0
 24 47  1  0  0  0  0
 24 48  1  0  0  0  0
M  END
> <s_m_source_file>
AV-unprocessed.smi

> <i_m_source_file_index>
2505

> <i_lp_mmshare_version>
43012

> <i_f3d_flags>
0

> <s_epik_input>
W0NIMl0xW0NIMl1bQ0hdMWMobltjSF0yKW5bY0hdYzJbTkhdQyg9TylbTkhdW0NAQEhdM1tDQEBIXShbQ0gyXVtDSDJdTzQpW0NASF00QzM1W0NIMl1bQ0gyXVtDSDJdW0NIMl01

> <s_epik_cmdline>
J2VwaWtfcHl0aG9uJywgJy1waCcsICc3LjAnLCAnLXRuJywgJzgnLCAnLW1hJywgJzIwMCcsICctbWV0YWxfYmluZGluZycsICctaW1hZScsICc8aW5maWxlLm1hZT4nLCAnLW9tYWUnLCAnPG91dGZpbGUubWFlPic=

> <r_lp_tautomer_probability>
1

> <r_epik_Ionization_Penalty>
2.6075e-05

> <r_epik_Ionization_Penalty_Charging>
0

> <r_epik_Ionization_Penalty_Neutral>
2.6075e-05

> <r_epik_State_Penalty>
-0

> <r_epik_Charging_Adjusted_Penalty>
0

> <i_epik_Tot_Q>
0

> <i_epik_Tot_abs_Q>
0

> <r_epik_Metal_State_Penalty>
-0

> <b_epik_Metal_Only>
0

> <s_lp_Force_Field>
OPLS_2005

> <r_lp_Energy>
84.9225

> <b_lp_Chiralities_Consistent>
1

> <s_lp_Variant>
AV-unprocessed.smi:2505-8

> <Gold.Version>
5.8.1

> <Gold.Id.Protein>
6NUR|6NUR_protein|mol2

> <Gold.PLP.Fitness>
41.5448

> <Gold.PLP.PLP>
-29.8054

> <Gold.PLP.part.hbond>
-3.0000

> <Gold.PLP.part.metal>
0.0000

> <Gold.PLP.part.buried>
-4.8058

> <Gold.PLP.part.nonpolar>
-22.7117

> <Gold.PLP.part.repulsive>
0.6323

> <Gold.PLP.ligand.clash>
0.0000

> <Gold.PLP.ligand.torsion>
0.3310

> <Gold.PLP.Chemscore.Hbond>
3.0000

> <Gold.PLP.Chemscore.CHOScore>
1.0000

> <Gold.PLP.Chemscore.Metal>
0.0000

> <Gold.Chemscore.Hbonds>
donor molecule, donor type, donor heavy atom, donor atom, acceptor molecule, acceptor atom, score
      L1  H     3    25       P1  7948  1.00
      L1  H    13    33       P1  7948  1.00
      P1  H  7989  7998       L1    11  1.00
      L1  C    12    32       P1  7957  1.00

> <Gold.PLP.Chemscore.Internal.Correction>
0.4013

> <Gold.Rescore>
     Score         DG    S(hbond)    S(metal)    S(lipo)     H(rot)  DE(clash)    DE(int)     intcor
     18.76     -20.49       2.60        0.00      79.80       1.17       0.28       1.45       ----

> <Gold.Chemscore.Fitness>
18.7596

> <Gold.Chemscore.DG>
-20.4923

> <Gold.Chemscore.ZeroCoef>
-5.4800

> <Gold.Chemscore.Hbond>
2.5993

> <Gold.Chemscore.Metal>
0.0000

> <Gold.Chemscore.Lipo>
79.8033

> <Gold.Chemscore.Internal_Hbond>
0.0000

> <Gold.Chemscore.DEClash>
0.2801

> <Gold.Chemscore.DEInternal>
1.4526

> <Gold.Chemscore.Rot>
1.1744

> <Gold.Chemscore.Internal.Correction>
   9.000000E+99

> <Gold.Chemscore.Hbonds>
donor molecule, donor type, donor heavy atom, donor atom, acceptor molecule, acceptor atom, score
      L1  H     3    25       P1  7948  0.91
      L1  H    13    33       P1  7948  0.94
      P1  H  7989  7998       L1    11  0.26

> <Gold.Chemscore.Hbond.Weighted>
-8.6817

> <Gold.Chemscore.Metal.Weighted>
-0.0000

> <Gold.Chemscore.Lipo.Weighted>
-9.3370

> <Gold.Chemscore.Internal_Hbond.Weighted>
0.0000

> <Gold.Chemscore.DEClash.Weighted>
0.2801

> <Gold.Chemscore.DEInternal.Weighted>
1.4526

> <Gold.Chemscore.Rot.Weighted>
3.0064

> <Gold.Chemscore.Internal.Correction.Weighted>
   9.000000E+99

> <Gold.Protein.RotatedTorsions>
[ 6907 6896 6895 6894 ] final   44.95 input  -60.11 | X-H torsion
[ 7974 7965 7964 7962 ] final  124.09 input  175.53 | X-H torsion
[ 8008 7997 7996 7995 ] final -118.34 input   59.86 | X-H torsion
[ 10167 10162 10161 10158 ] final   83.04 input  -65.29 | X-H torsion
[ 10718 10713 10712 10709 ] final  -93.30 input   66.30 | X-H torsion
[ 10763 10752 10751 10750 ] final -106.37 input  -60.55 | X-H torsion
[ 11005 11000 10999 10996 ] final  104.95 input  -57.11 | X-H torsion

> <Gold.Protein.ActiveResidues>
 VAL166  LYS551  ARG553  GLY616  TRP617  ASP618  TYR619  PRO620  LYS621  CYS622 
 ASP623  PHE694  ASN695  SER759  ASP760  ASP761  ALA762  ILE779  LEU786  VAL792 
 PHE793  MET794  SER795  GLU796  ALA797  LYS798  CYS799  TRP800  GLU811  SER814 

> <Gold.Protein.RotatedAtoms>
  152.2387  134.8250  160.0463 H   0  0  0  0  0  0  0  0  0  0  0  0  # atno 6907 bound_to 6896
  151.8973  133.3524  159.3826 H   0  0  0  0  0  0  0  0  0  0  0  0  # atno 6908 bound_to 6896
  150.7047  134.4790  159.5505 H   0  0  0  0  0  0  0  0  0  0  0  0  # atno 6909 bound_to 6896
  145.0884  139.3605  143.4873 H   0  0  0  0  0  0  0  0  0  0  0  0  # atno 7974 bound_to 7965
  155.0981  140.0395  157.2689 H   0  0  0  0  0  0  0  0  0  0  0  0  # atno 8008 bound_to 7997
  154.6779  140.2626  155.6913 H   0  0  0  0  0  0  0  0  0  0  0  0  # atno 8009 bound_to 7997
  156.2683  140.2784  156.1313 H   0  0  0  0  0  0  0  0  0  0  0  0  # atno 8010 bound_to 7997
  139.9225  144.6204  150.8426 H   0  0  0  0  0  0  0  0  0  0  0  0  # atno 10167 bound_to 10162
  156.0012  130.5021  150.5755 H   0  0  0  0  0  0  0  0  0  0  0  0  # atno 10718 bound_to 10713
  154.8008  135.4714  154.0271 H   0  0  0  0  0  0  0  0  0  0  0  0  # atno 10763 bound_to 10752
  153.1778  135.6835  153.8526 H   0  0  0  0  0  0  0  0  0  0  0  0  # atno 10764 bound_to 10752
  153.8087  135.3220  155.3376 H   0  0  0  0  0  0  0  0  0  0  0  0  # atno 10765 bound_to 10752
  139.8797  134.9318  156.5439 H   0  0  0  0  0  0  0  0  0  0  0  0  # atno 11005 bound_to 11000
  146.3531  140.0707  142.8623 LP  0  0  0  0  0  0  0  0  0  0  0  0  # atno 17320 bound_to 7965
  145.1095  140.9396  143.4665 LP  0  0  0  0  0  0  0  0  0  0  0  0  # atno 17321 bound_to 7965
  140.7658  143.3287  151.2458 LP  0  0  0  0  0  0  0  0  0  0  0  0  # atno 17342 bound_to 10162
  139.6850  143.9790  152.2829 LP  0  0  0  0  0  0  0  0  0  0  0  0  # atno 17343 bound_to 10162
  157.3643  131.0755  151.1610 LP  0  0  0  0  0  0  0  0  0  0  0  0  # atno 17370 bound_to 10713
  157.2385  130.6558  149.5879 LP  0  0  0  0  0  0  0  0  0  0  0  0  # atno 17371 bound_to 10713
  140.8290  133.8294  155.8966 LP  0  0  0  0  0  0  0  0  0  0  0  0  # atno 17394 bound_to 11000
  140.9347  134.1977  157.4840 LP  0  0  0  0  0  0  0  0  0  0  0  0  # atno 17395 bound_to 11000

$$$$
