AV-unprocessed.smi:1724|AV-procd|sdf|6949|dock7
  -GOLD-   22720 8163D 1   1.00000     0.00000
 Structure written by MMmdl.
 38 39  0  0  0  0  0  0  0  0  1 V2000
  145.0162  137.8067  153.1776 O   0  0  0  0  0  0  0  0  0  0  0  0
  146.1196  137.4092  152.8050 C   0  0  0  0  0  0  0  0  0  0  0  0
  146.2938  136.2944  152.0801 N   0  0  0  0  0  0  0  0  0  0  0  0
  145.2334  135.3897  151.6433 C   0  0  0  0  0  0  0  0  0  0  0  0
  145.7755  134.0107  151.2131 C   0  0  2  0  0  0  0  0  0  0  0  0
  144.7441  133.1713  150.4349 C   0  0  0  0  0  0  0  0  0  0  0  0
  145.3131  131.7819  150.1261 C   0  0  0  0  0  0  0  0  0  0  0  0
  145.8272  131.1137  151.4097 C   0  0  0  0  0  0  0  0  0  0  0  0
  146.7962  131.9503  152.0306 O   0  0  0  0  0  0  0  0  0  0  0  0
  146.2664  133.2083  152.4359 C   0  0  0  0  0  0  0  0  0  0  0  0
  147.2972  138.0186  153.0364 N   0  0  0  0  0  0  0  0  0  0  0  0
  147.5692  139.1923  153.7604 C   0  0  0  0  0  0  0  0  0  0  0  0
  146.6357  140.0937  154.1643 C   0  0  0  0  0  0  0  0  0  0  0  0
  146.9879  141.2837  154.9209 C   0  0  0  0  0  0  0  0  0  0  0  0
  145.9474  142.3279  155.2949 C   0  0  0  0  0  0  0  0  0  0  0  0
  146.2218  142.8816  156.4769 F   0  0  0  0  0  0  0  0  0  0  0  0
  145.8910  143.2975  154.3817 F   0  0  0  0  0  0  0  0  0  0  0  0
  144.7444  141.7605  155.3720 F   0  0  0  0  0  0  0  0  0  0  0  0
  148.2937  141.4538  155.1983 C   0  0  0  0  0  0  0  0  0  0  0  0
  149.2567  140.5212  154.8072 N   0  0  0  0  0  0  0  0  0  0  0  0
  148.9859  139.3975  154.1062 C   0  0  0  0  0  0  0  0  0  0  0  0
  149.8929  138.6250  153.7978 O   0  0  0  0  0  0  0  0  0  0  0  0
  150.2134  140.7124  155.0683 H   0  0  0  0  0  0  0  0  0  0  0  0
  147.2353  136.0487  151.8107 H   0  0  0  0  0  0  0  0  0  0  0  0
  144.5491  135.2656  152.4831 H   0  0  0  0  0  0  0  0  0  0  0  0
  144.6440  135.8334  150.8390 H   0  0  0  0  0  0  0  0  0  0  0  0
  146.6351  134.1763  150.5615 H   0  0  0  0  0  0  0  0  0  0  0  0
  143.8305  133.0709  151.0222 H   0  0  0  0  0  0  0  0  0  0  0  0
  144.4646  133.6633  149.5032 H   0  0  0  0  0  0  0  0  0  0  0  0
  144.5520  131.1592  149.6551 H   0  0  0  0  0  0  0  0  0  0  0  0
  146.1311  131.8719  149.4104 H   0  0  0  0  0  0  0  0  0  0  0  0
  145.0071  130.9124  152.1008 H   0  0  0  0  0  0  0  0  0  0  0  0
  146.2882  130.1542  151.1746 H   0  0  0  0  0  0  0  0  0  0  0  0
  147.0513  133.7581  152.9557 H   0  0  0  0  0  0  0  0  0  0  0  0
  145.4590  133.0569  153.1542 H   0  0  0  0  0  0  0  0  0  0  0  0
  148.1083  137.5976  152.6066 H   0  0  0  0  0  0  0  0  0  0  0  0
  145.5898  139.9452  153.9520 H   0  0  0  0  0  0  0  0  0  0  0  0
  148.6973  142.3048  155.7270 H   0  0  0  0  0  0  0  0  0  0  0  0
  1  2  2  0  0  0  0
  2  3  1  0  0  0  0
  2 11  1  0  0  0  0
  3  4  1  0  0  0  0
  3 24  1  0  0  0  0
  4  5  1  0  0  0  0
  4 25  1  0  0  0  0
  4 26  1  0  0  0  0
  5 10  1  0  0  0  0
  5  6  1  0  0  0  0
  5 27  1  0  0  0  0
  6  7  1  0  0  0  0
  6 28  1  0  0  0  0
  6 29  1  0  0  0  0
  7  8  1  0  0  0  0
  7 30  1  0  0  0  0
  7 31  1  0  0  0  0
  8  9  1  0  0  0  0
  8 32  1  0  0  0  0
  8 33  1  0  0  0  0
  9 10  1  0  0  0  0
 10 34  1  0  0  0  0
 10 35  1  0  0  0  0
 11 12  1  0  0  0  0
 11 36  1  0  0  0  0
 12 21  1  0  0  0  0
 12 13  2  0  0  0  0
 13 14  1  0  0  0  0
 13 37  1  0  0  0  0
 14 15  1  0  0  0  0
 14 19  2  0  0  0  0
 15 16  1  0  0  0  0
 15 17  1  0  0  0  0
 15 18  1  0  0  0  0
 19 20  1  0  0  0  0
 19 38  1  0  0  0  0
 20 23  1  0  0  0  0
 20 21  1  0  0  0  0
 21 22  2  0  0  0  0
M  END
> <s_m_source_file>
AV-unprocessed.smi

> <i_m_source_file_index>
1724

> <i_lp_mmshare_version>
43012

> <i_f3d_flags>
0

> <s_epik_input>
Tz1jMVtuSF1bY0hdYyhDKEYpKEYpRilbY0hdYzFbTkhdQyg9TylbTkhdW0NIMl1bQ0BASF0yW0NIMl1bQ0gyXVtDSDJdT1tDSDJdMg==

> <s_epik_cmdline>
J2VwaWtfcHl0aG9uJywgJy1waCcsICc3LjAnLCAnLXRuJywgJzgnLCAnLW1hJywgJzIwMCcsICctbWV0YWxfYmluZGluZycsICctaW1hZScsICc8aW5maWxlLm1hZT4nLCAnLW9tYWUnLCAnPG91dGZpbGUubWFlPic=

> <r_lp_tautomer_probability>
1

> <r_epik_Ionization_Penalty>
0.00384958

> <r_epik_Ionization_Penalty_Charging>
0.00382926

> <r_epik_Ionization_Penalty_Neutral>
2.03186e-05

> <r_epik_State_Penalty>
-0

> <r_epik_Charging_Adjusted_Penalty>
0.00382926

> <i_epik_Tot_Q>
0

> <i_epik_Tot_abs_Q>
0

> <r_epik_Metal_State_Penalty>
0.371494

> <b_epik_Metal_Only>
0

> <s_lp_Force_Field>
OPLS_2005

> <r_lp_Energy>
21.9541

> <b_lp_Chiralities_Consistent>
1

> <s_lp_Variant>
AV-unprocessed.smi:1724-1

> <Gold.Version>
5.8.1

> <Gold.Id.Protein>
6NUR|6NUR_protein|mol2

> <Gold.PLP.Fitness>
38.4620

> <Gold.PLP.PLP>
-31.9413

> <Gold.PLP.part.hbond>
-2.0000

> <Gold.PLP.part.metal>
0.0000

> <Gold.PLP.part.buried>
-6.5378

> <Gold.PLP.part.nonpolar>
-26.7589

> <Gold.PLP.part.repulsive>
2.9071

> <Gold.PLP.ligand.clash>
0.0000

> <Gold.PLP.ligand.torsion>
1.2624

> <Gold.PLP.Chemscore.Hbond>
2.0000

> <Gold.PLP.Chemscore.CHOScore>
1.0000

> <Gold.PLP.Chemscore.Metal>
0.0000

> <Gold.Chemscore.Hbonds>
donor molecule, donor type, donor heavy atom, donor atom, acceptor molecule, acceptor atom, score
      L1  H     3    24       P1  7948  1.00
      L1  H    11    36       P1  7948  1.00
      L1  C    19    38       P1  8028  1.00

> <Gold.PLP.Chemscore.Internal.Correction>
0.0455

> <Gold.Rescore>
     Score         DG    S(hbond)    S(metal)    S(lipo)     H(rot)  DE(clash)    DE(int)     intcor
     13.79     -16.36       1.95        0.00      66.54       1.33       0.16       2.40       ----

> <Gold.Chemscore.Fitness>
13.7919

> <Gold.Chemscore.DG>
-16.3588

> <Gold.Chemscore.ZeroCoef>
-5.4800

> <Gold.Chemscore.Hbond>
1.9490

> <Gold.Chemscore.Metal>
0.0000

> <Gold.Chemscore.Lipo>
66.5387

> <Gold.Chemscore.Internal_Hbond>
0.0000

> <Gold.Chemscore.DEClash>
0.1632

> <Gold.Chemscore.DEInternal>
2.4037

> <Gold.Chemscore.Rot>
1.3344

> <Gold.Chemscore.Internal.Correction>
   9.000000E+99

> <Gold.Chemscore.Hbonds>
donor molecule, donor type, donor heavy atom, donor atom, acceptor molecule, acceptor atom, score
      L1  H     3    24       P1  7948  0.98
      L1  H    11    36       P1  7948  0.97

> <Gold.Chemscore.Hbond.Weighted>
-6.5097

> <Gold.Chemscore.Metal.Weighted>
-0.0000

> <Gold.Chemscore.Lipo.Weighted>
-7.7850

> <Gold.Chemscore.Internal_Hbond.Weighted>
0.0000

> <Gold.Chemscore.DEClash.Weighted>
0.1632

> <Gold.Chemscore.DEInternal.Weighted>
2.4037

> <Gold.Chemscore.Rot.Weighted>
3.4160

> <Gold.Chemscore.Internal.Correction.Weighted>
   9.000000E+99

> <Gold.Protein.RotatedTorsions>
[ 6907 6896 6895 6894 ] final  -84.02 input  -60.11 | X-H torsion
[ 7974 7965 7964 7962 ] final  136.46 input  175.53 | X-H torsion
[ 8008 7997 7996 7995 ] final   87.72 input   59.86 | X-H torsion
[ 10167 10162 10161 10158 ] final  -96.18 input  -65.29 | X-H torsion
[ 10718 10713 10712 10709 ] final   78.33 input   66.30 | X-H torsion
[ 10763 10752 10751 10750 ] final  118.20 input  -60.55 | X-H torsion
[ 11005 11000 10999 10996 ] final  -46.82 input  -57.11 | X-H torsion

> <Gold.Protein.ActiveResidues>
 VAL166  LYS551  ARG553  GLY616  TRP617  ASP618  TYR619  PRO620  LYS621  CYS622 
 ASP623  PHE694  ASN695  SER759  ASP760  ASP761  ALA762  ILE779  LEU786  VAL792 
 PHE793  MET794  SER795  GLU796  ALA797  LYS798  CYS799  TRP800  GLU811  SER814 

> <Gold.Protein.RotatedAtoms>
  150.6880  134.3423  159.4872 H   0  0  0  0  0  0  0  0  0  0  0  0  # atno 6907 bound_to 6896
  152.1274  134.9157  160.0569 H   0  0  0  0  0  0  0  0  0  0  0  0  # atno 6908 bound_to 6896
  152.0340  133.3914  159.4346 H   0  0  0  0  0  0  0  0  0  0  0  0  # atno 6909 bound_to 6896
  144.9562  139.4761  143.5501 H   0  0  0  0  0  0  0  0  0  0  0  0  # atno 7974 bound_to 7965
  155.9788  140.3379  155.6644 H   0  0  0  0  0  0  0  0  0  0  0  0  # atno 8008 bound_to 7997
  155.6576  140.0712  157.2583 H   0  0  0  0  0  0  0  0  0  0  0  0  # atno 8009 bound_to 7997
  154.4186  140.1714  156.1729 H   0  0  0  0  0  0  0  0  0  0  0  0  # atno 8010 bound_to 7997
  140.2965  143.3189  152.0292 H   0  0  0  0  0  0  0  0  0  0  0  0  # atno 10167 bound_to 10162
  157.6741  130.9863  150.1771 H   0  0  0  0  0  0  0  0  0  0  0  0  # atno 10718 bound_to 10713
  153.5641  135.3515  155.2811 H   0  0  0  0  0  0  0  0  0  0  0  0  # atno 10763 bound_to 10752
  154.8691  135.4143  154.2798 H   0  0  0  0  0  0  0  0  0  0  0  0  # atno 10764 bound_to 10752
  153.3550  135.7057  153.6827 H   0  0  0  0  0  0  0  0  0  0  0  0  # atno 10765 bound_to 10752
  141.0603  133.6711  156.3209 H   0  0  0  0  0  0  0  0  0  0  0  0  # atno 11005 bound_to 11000
  146.3338  139.8682  142.8844 LP  0  0  0  0  0  0  0  0  0  0  0  0  # atno 17320 bound_to 7965
  145.2768  141.0126  143.3740 LP  0  0  0  0  0  0  0  0  0  0  0  0  # atno 17321 bound_to 7965
  139.4925  144.6487  151.6722 LP  0  0  0  0  0  0  0  0  0  0  0  0  # atno 17342 bound_to 10162
  140.5688  144.0144  150.6206 LP  0  0  0  0  0  0  0  0  0  0  0  0  # atno 17343 bound_to 10162
  156.2512  130.3701  149.8230 LP  0  0  0  0  0  0  0  0  0  0  0  0  # atno 17370 bound_to 10713
  156.6003  130.8543  151.3430 LP  0  0  0  0  0  0  0  0  0  0  0  0  # atno 17371 bound_to 10713
  140.5883  134.5677  157.5494 LP  0  0  0  0  0  0  0  0  0  0  0  0  # atno 17394 bound_to 11000
  139.9426  134.7759  156.0640 LP  0  0  0  0  0  0  0  0  0  0  0  0  # atno 17395 bound_to 11000

$$$$
