AV-unprocessed.smi:1087|AV-procd|sdf|4726|dock3
  -GOLD-   22720 3253D 1   1.00000     0.00000
 Structure written by MMmdl.
 47 48  0  0  0  0  0  0  0  0  2 V2000
  145.1977  135.2153  150.7856 C   0  0  0  0  0  0  0  0  0  0  0  0
  145.6355  136.3628  151.4923 O   0  0  0  0  0  0  0  0  0  0  0  0
  144.7311  136.7521  152.5124 C   0  0  0  0  0  0  0  0  0  0  0  0
  145.5334  137.1855  153.7489 C   0  0  0  0  0  0  0  0  0  0  0  0
  145.8346  138.6399  153.7499 N   0  3  2  0  0  0  0  0  0  0  0  0
  146.7763  139.0175  152.6652 C   0  0  0  0  0  0  0  0  0  0  0  0
  146.9619  140.5430  152.5997 C   0  0  0  0  0  0  0  0  0  0  0  0
  147.4533  141.1247  153.9419 C   0  0  2  0  0  0  0  0  0  0  0  0
  148.9251  140.7944  154.2891 C   0  0  0  0  0  0  0  0  0  0  0  0
  149.1838  140.8605  155.7241 N   0  0  0  0  0  0  0  0  0  0  0  0
  150.3694  140.6375  156.3120 C   0  0  0  0  0  0  0  0  0  0  0  0
  151.3813  140.3082  155.6920 O   0  0  0  0  0  0  0  0  0  0  0  0
  150.4141  140.8115  157.8357 C   0  0  0  0  0  0  0  0  0  0  0  0
  151.3006  141.9103  158.2510 N   0  0  0  0  0  0  0  0  0  0  0  0
  151.0641  143.1818  157.7022 C   0  0  0  0  0  0  0  0  0  0  0  0
  151.8275  144.2305  158.0415 C   0  0  0  0  0  0  0  0  0  0  0  0
  152.9053  143.9693  159.0043 C   0  0  0  0  0  0  0  0  0  0  0  0
  153.1209  142.8124  159.5097 N   0  0  0  0  0  0  0  0  0  0  0  0
  152.3164  141.7134  159.1540 C   0  0  0  0  0  0  0  0  0  0  0  0
  152.5145  140.5996  159.6401 O   0  0  0  0  0  0  0  0  0  0  0  0
  146.4834  140.6754  155.0509 C   0  0  0  0  0  0  0  0  0  0  0  0
  146.2871  139.1475  155.0727 C   0  0  0  0  0  0  0  0  0  0  0  0
  145.9262  134.9595  150.0163 H   0  0  0  0  0  0  0  0  0  0  0  0
  144.2400  135.3957  150.2954 H   0  0  0  0  0  0  0  0  0  0  0  0
  145.0951  134.3571  151.4507 H   0  0  0  0  0  0  0  0  0  0  0  0
  144.0712  137.5457  152.1619 H   0  0  0  0  0  0  0  0  0  0  0  0
  144.0964  135.9043  152.7750 H   0  0  0  0  0  0  0  0  0  0  0  0
  144.9994  136.9214  154.6629 H   0  0  0  0  0  0  0  0  0  0  0  0
  146.4634  136.6151  153.7629 H   0  0  0  0  0  0  0  0  0  0  0  0
  147.7333  138.5173  152.8183 H   0  0  0  0  0  0  0  0  0  0  0  0
  146.3901  138.6686  151.7069 H   0  0  0  0  0  0  0  0  0  0  0  0
  147.6349  140.8065  151.7845 H   0  0  0  0  0  0  0  0  0  0  0  0
  146.0051  141.0004  152.3447 H   0  0  0  0  0  0  0  0  0  0  0  0
  147.3859  142.2114  153.8710 H   0  0  0  0  0  0  0  0  0  0  0  0
  149.1528  139.7776  153.9675 H   0  0  0  0  0  0  0  0  0  0  0  0
  149.6147  141.4380  153.7421 H   0  0  0  0  0  0  0  0  0  0  0  0
  148.4064  141.1186  156.3150 H   0  0  0  0  0  0  0  0  0  0  0  0
  149.4076  140.9807  158.2234 H   0  0  0  0  0  0  0  0  0  0  0  0
  150.7371  139.8670  158.2755 H   0  0  0  0  0  0  0  0  0  0  0  0
  150.2369  143.2463  157.0104 H   0  0  0  0  0  0  0  0  0  0  0  0
  151.6980  145.2329  157.6612 H   0  0  0  0  0  0  0  0  0  0  0  0
  153.5183  144.8356  159.2661 H   0  0  0  0  0  0  0  0  0  0  0  0
  146.8345  141.0214  156.0237 H   0  0  0  0  0  0  0  0  0  0  0  0
  145.5152  141.1531  154.8938 H   0  0  0  0  0  0  0  0  0  0  0  0
  145.5534  138.9037  155.8399 H   0  0  0  0  0  0  0  0  0  0  0  0
  147.2126  138.6472  155.3602 H   0  0  0  0  0  0  0  0  0  0  0  0
  144.9648  139.1073  153.5362 H   0  0  0  0  0  0  0  0  0  0  0  0
  1  2  1  0  0  0  0
  1 23  1  0  0  0  0
  1 24  1  0  0  0  0
  1 25  1  0  0  0  0
  2  3  1  0  0  0  0
  3  4  1  0  0  0  0
  3 26  1  0  0  0  0
  3 27  1  0  0  0  0
  4  5  1  0  0  0  0
  4 28  1  0  0  0  0
  4 29  1  0  0  0  0
  5 22  1  0  0  0  0
  5  6  1  0  0  0  0
  5 47  1  0  0  0  0
  6  7  1  0  0  0  0
  6 30  1  0  0  0  0
  6 31  1  0  0  0  0
  7  8  1  0  0  0  0
  7 32  1  0  0  0  0
  7 33  1  0  0  0  0
  8  9  1  0  0  0  0
  8 21  1  0  0  0  0
  8 34  1  0  0  0  0
  9 10  1  0  0  0  0
  9 35  1  0  0  0  0
  9 36  1  0  0  0  0
 10 11  1  0  0  0  0
 10 37  1  0  0  0  0
 11 12  2  0  0  0  0
 11 13  1  0  0  0  0
 13 14  1  0  0  0  0
 13 38  1  0  0  0  0
 13 39  1  0  0  0  0
 14 19  1  0  0  0  0
 14 15  1  0  0  0  0
 15 16  2  0  0  0  0
 15 40  1  0  0  0  0
 16 17  1  0  0  0  0
 16 41  1  0  0  0  0
 17 18  2  0  0  0  0
 17 42  1  0  0  0  0
 18 19  1  0  0  0  0
 19 20  2  0  0  0  0
 21 22  1  0  0  0  0
 21 43  1  0  0  0  0
 21 44  1  0  0  0  0
 22 45  1  0  0  0  0
 22 46  1  0  0  0  0
M  CHG  1   5   1
M  END
> <s_m_source_file>
AV-unprocessed.smi

> <i_m_source_file_index>
1087

> <i_lp_mmshare_version>
43012

> <i_f3d_flags>
0

> <s_epik_input>
W0NIM11PW0NIMl1bQ0gyXU4xW0NIMl1bQ0gyXVtDSF0oW0NIMl1bQ0gyXTEpW0NIMl1bTkhdQyg9TylbQ0gyXW4yW2NIXVtjSF1bY0hdbmMyPU8=

> <s_epik_cmdline>
J2VwaWtfcHl0aG9uJywgJy1waCcsICc3LjAnLCAnLXRuJywgJzgnLCAnLW1hJywgJzIwMCcsICctbWV0YWxfYmluZGluZycsICctaW1hZScsICc8aW5maWxlLm1hZT4nLCAnLW9tYWUnLCAnPG91dGZpbGUubWFlPic=

> <r_lp_tautomer_probability>
1

> <r_epik_Ionization_Penalty>
0.00982698

> <r_epik_Ionization_Penalty_Charging>
0.00982062

> <r_epik_Ionization_Penalty_Neutral>
6.35787e-06

> <r_epik_State_Penalty>
0.00747828

> <r_epik_Charging_Adjusted_Penalty>
0.0172989

> <i_epik_Tot_Q>
1

> <i_epik_Tot_abs_Q>
1

> <r_epik_Metal_State_Penalty>
0.00747829

> <b_epik_Metal_Only>
0

> <s_lp_Force_Field>
OPLS_2005

> <r_lp_Energy>
23.2089

> <b_lp_Chiralities_Consistent>
1

> <s_lp_Variant>
AV-unprocessed.smi:1087-2

> <Gold.Version>
5.8.1

> <Gold.Id.Protein>
6NUR|6NUR_protein|mol2

> <Gold.PLP.Fitness>
49.0928

> <Gold.PLP.PLP>
-39.0644

> <Gold.PLP.part.hbond>
-2.0000

> <Gold.PLP.part.metal>
0.0000

> <Gold.PLP.part.buried>
-3.4095

> <Gold.PLP.part.nonpolar>
-33.8159

> <Gold.PLP.part.repulsive>
0.3616

> <Gold.PLP.ligand.clash>
0.0000

> <Gold.PLP.ligand.torsion>
0.8841

> <Gold.PLP.Chemscore.Hbond>
2.8640

> <Gold.PLP.Chemscore.CHOScore>
1.0000

> <Gold.PLP.Chemscore.Metal>
0.0000

> <Gold.Chemscore.Hbonds>
donor molecule, donor type, donor heavy atom, donor atom, acceptor molecule, acceptor atom, score
      L1  H     5    47       P1 10175  1.40
      P1  H  7989  7998       L1    12  0.37
      L1  C    15    40       P1  8028  1.00

> <Gold.PLP.Chemscore.Internal.Correction>
0.2045

> <Gold.Rescore>
     Score         DG    S(hbond)    S(metal)    S(lipo)     H(rot)  DE(clash)    DE(int)     intcor
     15.23     -18.96       2.64        0.00      93.27       2.45       2.47       1.25       ----

> <Gold.Chemscore.Fitness>
15.2333

> <Gold.Chemscore.DG>
-18.9568

> <Gold.Chemscore.ZeroCoef>
-5.4800

> <Gold.Chemscore.Hbond>
2.6421

> <Gold.Chemscore.Metal>
0.0000

> <Gold.Chemscore.Lipo>
93.2679

> <Gold.Chemscore.Internal_Hbond>
0.0000

> <Gold.Chemscore.DEClash>
2.4700

> <Gold.Chemscore.DEInternal>
1.2535

> <Gold.Chemscore.Rot>
2.4454

> <Gold.Chemscore.Internal.Correction>
   9.000000E+99

> <Gold.Chemscore.Hbonds>
donor molecule, donor type, donor heavy atom, donor atom, acceptor molecule, acceptor atom, score
      L1  H     5    47       P1 10175  0.68
      P1  H  7989  7998       L1    12  0.34

> <Gold.Chemscore.Hbond.Weighted>
-8.8248

> <Gold.Chemscore.Metal.Weighted>
-0.0000

> <Gold.Chemscore.Lipo.Weighted>
-10.9123

> <Gold.Chemscore.Internal_Hbond.Weighted>
0.0000

> <Gold.Chemscore.DEClash.Weighted>
2.4700

> <Gold.Chemscore.DEInternal.Weighted>
1.2535

> <Gold.Chemscore.Rot.Weighted>
6.2603

> <Gold.Chemscore.Internal.Correction.Weighted>
   9.000000E+99

> <Gold.Protein.RotatedTorsions>
[ 6907 6896 6895 6894 ] final  -54.75 input  -60.11 | X-H torsion
[ 7974 7965 7964 7962 ] final   92.83 input  175.53 | X-H torsion
[ 8008 7997 7996 7995 ] final  -83.14 input   59.86 | X-H torsion
[ 10167 10162 10161 10158 ] final -170.32 input  -65.29 | X-H torsion
[ 10718 10713 10712 10709 ] final  151.18 input   66.30 | X-H torsion
[ 10763 10752 10751 10750 ] final  -79.80 input  -60.55 | X-H torsion
[ 11005 11000 10999 10996 ] final  -71.57 input  -57.11 | X-H torsion

> <Gold.Protein.ActiveResidues>
 VAL166  LYS551  ARG553  GLY616  TRP617  ASP618  TYR619  PRO620  LYS621  CYS622 
 ASP623  PHE694  ASN695  SER759  ASP760  ASP761  ALA762  ILE779  LEU786  VAL792 
 PHE793  MET794  SER795  GLU796  ALA797  LYS798  CYS799  TRP800  GLU811  SER814 

> <Gold.Protein.RotatedAtoms>
  150.8311  134.7564  159.6853 H   0  0  0  0  0  0  0  0  0  0  0  0  # atno 6907 bound_to 6896
  152.4415  134.5577  159.9895 H   0  0  0  0  0  0  0  0  0  0  0  0  # atno 6908 bound_to 6896
  151.5738  133.3349  159.3030 H   0  0  0  0  0  0  0  0  0  0  0  0  # atno 6909 bound_to 6896
  145.4870  139.2277  143.2851 H   0  0  0  0  0  0  0  0  0  0  0  0  # atno 7974 bound_to 7965
  154.6159  140.0623  156.9554 H   0  0  0  0  0  0  0  0  0  0  0  0  # atno 8008 bound_to 7997
  155.1896  140.3306  155.4342 H   0  0  0  0  0  0  0  0  0  0  0  0  # atno 8009 bound_to 7997
  156.2404  140.1883  156.6987 H   0  0  0  0  0  0  0  0  0  0  0  0  # atno 8010 bound_to 7997
  139.5869  144.1299  152.1586 H   0  0  0  0  0  0  0  0  0  0  0  0  # atno 10167 bound_to 10162
  157.2740  131.0822  151.1579 H   0  0  0  0  0  0  0  0  0  0  0  0  # atno 10718 bound_to 10713
  154.5431  135.5683  153.6857 H   0  0  0  0  0  0  0  0  0  0  0  0  # atno 10763 bound_to 10752
  152.9969  135.6232  154.2475 H   0  0  0  0  0  0  0  0  0  0  0  0  # atno 10764 bound_to 10752
  154.2407  135.2862  155.2835 H   0  0  0  0  0  0  0  0  0  0  0  0  # atno 10765 bound_to 10752
  141.1594  133.6821  156.6926 H   0  0  0  0  0  0  0  0  0  0  0  0  # atno 11005 bound_to 11000
  146.2307  140.5661  142.8977 LP  0  0  0  0  0  0  0  0  0  0  0  0  # atno 17320 bound_to 7965
  144.7856  140.5929  143.6576 LP  0  0  0  0  0  0  0  0  0  0  0  0  # atno 17321 bound_to 7965
  140.0864  144.5657  150.7085 LP  0  0  0  0  0  0  0  0  0  0  0  0  # atno 17342 bound_to 10162
  140.7139  143.2528  151.4495 LP  0  0  0  0  0  0  0  0  0  0  0  0  # atno 17343 bound_to 10162
  157.3040  130.6857  149.6179 LP  0  0  0  0  0  0  0  0  0  0  0  0  # atno 17370 bound_to 10713
  155.9663  130.4383  150.5213 LP  0  0  0  0  0  0  0  0  0  0  0  0  # atno 17371 bound_to 10713
  140.3019  134.8157  157.4104 LP  0  0  0  0  0  0  0  0  0  0  0  0  # atno 17394 bound_to 11000
  140.1254  134.5164  155.8148 LP  0  0  0  0  0  0  0  0  0  0  0  0  # atno 17395 bound_to 11000

$$$$
