AV-unprocessed.smi:1736|AV-procd|sdf|6990|dock10
  -GOLD-   22720 8203D 1   1.00000     0.00000
 Structure written by MMmdl.
 45 46  0  0  0  0  0  0  0  0  2 V2000
  150.4483  141.7167  156.1680 C   0  0  0  0  0  0  0  0  0  0  0  0
  149.0531  141.9856  155.7496 N   0  3  0  0  0  0  0  0  0  0  0  0
  148.0323  141.4151  156.6578 C   0  0  0  0  0  0  0  0  0  0  0  0
  147.8834  139.8939  156.4563 C   0  0  0  0  0  0  0  0  0  0  0  0
  147.5052  139.5936  155.0650 N   0  0  0  0  0  0  0  0  0  0  0  0
  147.0951  138.1831  154.8245 C   0  0  0  0  0  0  0  0  0  0  0  0
  148.3289  137.2523  154.9418 C   0  0  0  0  0  0  0  0  0  0  0  0
  146.0272  137.7138  155.8412 C   0  0  0  0  0  0  0  0  0  0  0  0
  146.5169  138.0219  153.3869 C   0  0  0  0  0  0  0  0  0  0  0  0
  145.0911  138.3399  153.3030 N   0  0  0  0  0  0  0  0  0  0  0  0
  144.0827  137.4877  153.5359 C   0  0  0  0  0  0  0  0  0  0  0  0
  144.2428  136.3126  153.8648 O   0  0  0  0  0  0  0  0  0  0  0  0
  142.8931  138.0823  153.3524 N   0  0  0  0  0  0  0  0  0  0  0  0
  141.6105  137.5062  153.5285 C   0  0  0  0  0  0  0  0  0  0  0  0
  141.2594  136.2258  154.0491 C   0  0  0  0  0  0  0  0  0  0  0  0
  139.9446  136.0576  154.0608 N   0  0  0  0  0  0  0  0  0  0  0  0
  139.4553  137.2125  153.5560 N   0  0  0  0  0  0  0  0  0  0  0  0
  140.4341  138.1215  153.2206 C   0  0  0  0  0  0  0  0  0  0  0  0
  148.5940  140.0787  154.1998 C   0  0  0  0  0  0  0  0  0  0  0  0
  148.7615  141.6043  154.3492 C   0  0  0  0  0  0  0  0  0  0  0  0
  138.4624  137.3636  153.4492 H   0  0  0  0  0  0  0  0  0  0  0  0
  150.6827  140.6524  156.1491 H   0  0  0  0  0  0  0  0  0  0  0  0
  150.6205  142.0835  157.1804 H   0  0  0  0  0  0  0  0  0  0  0  0
  151.1489  142.2297  155.5083 H   0  0  0  0  0  0  0  0  0  0  0  0
  148.2882  141.6405  157.6937 H   0  0  0  0  0  0  0  0  0  0  0  0
  147.0771  141.9048  156.4627 H   0  0  0  0  0  0  0  0  0  0  0  0
  148.8078  139.3830  156.7255 H   0  0  0  0  0  0  0  0  0  0  0  0
  147.1222  139.5528  157.1539 H   0  0  0  0  0  0  0  0  0  0  0  0
  148.1068  136.2559  154.5579 H   0  0  0  0  0  0  0  0  0  0  0  0
  148.6488  137.1092  155.9737 H   0  0  0  0  0  0  0  0  0  0  0  0
  149.1807  137.6325  154.3767 H   0  0  0  0  0  0  0  0  0  0  0  0
  145.7599  136.6717  155.6621 H   0  0  0  0  0  0  0  0  0  0  0  0
  145.1041  138.2884  155.7686 H   0  0  0  0  0  0  0  0  0  0  0  0
  146.3784  137.7732  156.8710 H   0  0  0  0  0  0  0  0  0  0  0  0
  147.0853  138.6429  152.6919 H   0  0  0  0  0  0  0  0  0  0  0  0
  146.6594  137.0100  153.0100 H   0  0  0  0  0  0  0  0  0  0  0  0
  144.8569  139.2830  153.0312 H   0  0  0  0  0  0  0  0  0  0  0  0
  142.9054  139.0486  153.0612 H   0  0  0  0  0  0  0  0  0  0  0  0
  141.8898  135.4286  154.4141 H   0  0  0  0  0  0  0  0  0  0  0  0
  140.2128  139.0939  152.8060 H   0  0  0  0  0  0  0  0  0  0  0  0
  149.5290  139.5677  154.4289 H   0  0  0  0  0  0  0  0  0  0  0  0
  148.3794  139.8873  153.1507 H   0  0  0  0  0  0  0  0  0  0  0  0
  147.8445  142.1048  154.0341 H   0  0  0  0  0  0  0  0  0  0  0  0
  149.5518  141.9687  153.6920 H   0  0  0  0  0  0  0  0  0  0  0  0
  148.9485  142.9890  155.7989 H   0  0  0  0  0  0  0  0  0  0  0  0
  1  2  1  0  0  0  0
  1 22  1  0  0  0  0
  1 23  1  0  0  0  0
  1 24  1  0  0  0  0
  2 20  1  0  0  0  0
  2  3  1  0  0  0  0
  2 45  1  0  0  0  0
  3  4  1  0  0  0  0
  3 25  1  0  0  0  0
  3 26  1  0  0  0  0
  4  5  1  0  0  0  0
  4 27  1  0  0  0  0
  4 28  1  0  0  0  0
  5  6  1  0  0  0  0
  5 19  1  0  0  0  0
  6  7  1  0  0  0  0
  6  8  1  0  0  0  0
  6  9  1  0  0  0  0
  7 29  1  0  0  0  0
  7 30  1  0  0  0  0
  7 31  1  0  0  0  0
  8 32  1  0  0  0  0
  8 33  1  0  0  0  0
  8 34  1  0  0  0  0
  9 10  1  0  0  0  0
  9 35  1  0  0  0  0
  9 36  1  0  0  0  0
 10 11  1  0  0  0  0
 10 37  1  0  0  0  0
 11 12  2  0  0  0  0
 11 13  1  0  0  0  0
 13 14  1  0  0  0  0
 13 38  1  0  0  0  0
 14 18  2  0  0  0  0
 14 15  1  0  0  0  0
 15 16  2  0  0  0  0
 15 39  1  0  0  0  0
 16 17  1  0  0  0  0
 17 21  1  0  0  0  0
 17 18  1  0  0  0  0
 18 40  1  0  0  0  0
 19 20  1  0  0  0  0
 19 41  1  0  0  0  0
 19 42  1  0  0  0  0
 20 43  1  0  0  0  0
 20 44  1  0  0  0  0
M  CHG  1   2   1
M  END
> <s_m_source_file>
AV-unprocessed.smi

> <i_m_source_file_index>
1736

> <i_lp_mmshare_version>
43012

> <i_f3d_flags>
0

> <s_epik_input>
W0NIM11OMVtDSDJdW0NIMl1OKFtDSDJdW0NIMl0xKUMoW0NIM10pKFtDSDNdKVtDSDJdW05IXUMoPU8pW05IXWMyW2NIXW5bbkhdW2NIXTI=

> <s_epik_cmdline>
J2VwaWtfcHl0aG9uJywgJy1waCcsICc3LjAnLCAnLXRuJywgJzgnLCAnLW1hJywgJzIwMCcsICctbWV0YWxfYmluZGluZycsICctaW1hZScsICc8aW5maWxlLm1hZT4nLCAnLW9tYWUnLCAnPG91dGZpbGUubWFlPic=

> <r_lp_tautomer_probability>
0.5

> <r_epik_Ionization_Penalty>
0.0248316

> <r_epik_Ionization_Penalty_Charging>
0.0238192

> <r_epik_Ionization_Penalty_Neutral>
0.00101244

> <r_epik_State_Penalty>
0.139266

> <r_epik_Charging_Adjusted_Penalty>
0.163085

> <i_epik_Tot_Q>
1

> <i_epik_Tot_abs_Q>
1

> <r_epik_Metal_State_Penalty>
0.139266

> <b_epik_Metal_Only>
0

> <s_lp_Force_Field>
OPLS_2005

> <r_lp_Energy>
29.1357

> <b_lp_Chiralities_Consistent>
1

> <s_lp_Variant>
AV-unprocessed.smi:1736-1

> <Gold.Version>
5.8.1

> <Gold.Id.Protein>
6NUR|6NUR_protein|mol2

> <Gold.PLP.Fitness>
38.0095

> <Gold.PLP.PLP>
-24.3484

> <Gold.PLP.part.hbond>
-3.2569

> <Gold.PLP.part.metal>
0.0000

> <Gold.PLP.part.buried>
-4.1098

> <Gold.PLP.part.nonpolar>
-17.1362

> <Gold.PLP.part.repulsive>
0.3675

> <Gold.PLP.ligand.clash>
0.0000

> <Gold.PLP.ligand.torsion>
0.6746

> <Gold.PLP.Chemscore.Hbond>
3.9920

> <Gold.PLP.Chemscore.CHOScore>
1.0000

> <Gold.PLP.Chemscore.Metal>
0.0000

> <Gold.Chemscore.Hbonds>
donor molecule, donor type, donor heavy atom, donor atom, acceptor molecule, acceptor atom, score
      L1  H     2    45       P1  8028  2.00
      L1  H    10    37       P1 10175  0.99
      L1  H    13    38       P1 10175  1.00
      L1  C    18    40       P1 10160  1.00

> <Gold.PLP.Chemscore.Internal.Correction>
0.0343

> <Gold.Rescore>
     Score         DG    S(hbond)    S(metal)    S(lipo)     H(rot)  DE(clash)    DE(int)     intcor
     13.65     -17.31       2.97        0.00      51.91       1.63       0.03       3.63       ----

> <Gold.Chemscore.Fitness>
13.6495

> <Gold.Chemscore.DG>
-17.3066

> <Gold.Chemscore.ZeroCoef>
-5.4800

> <Gold.Chemscore.Hbond>
2.9693

> <Gold.Chemscore.Metal>
0.0000

> <Gold.Chemscore.Lipo>
51.9101

> <Gold.Chemscore.Internal_Hbond>
0.0000

> <Gold.Chemscore.DEClash>
0.0253

> <Gold.Chemscore.DEInternal>
3.6317

> <Gold.Chemscore.Rot>
1.6267

> <Gold.Chemscore.Internal.Correction>
   9.000000E+99

> <Gold.Chemscore.Hbonds>
donor molecule, donor type, donor heavy atom, donor atom, acceptor molecule, acceptor atom, score
      L1  H     2    45       P1  8028  1.00
      L1  H    10    37       P1 10175  0.94
      L1  H    13    38       P1 10175  0.98

> <Gold.Chemscore.Hbond.Weighted>
-9.9175

> <Gold.Chemscore.Metal.Weighted>
-0.0000

> <Gold.Chemscore.Lipo.Weighted>
-6.0735

> <Gold.Chemscore.Internal_Hbond.Weighted>
0.0000

> <Gold.Chemscore.DEClash.Weighted>
0.0253

> <Gold.Chemscore.DEInternal.Weighted>
3.6317

> <Gold.Chemscore.Rot.Weighted>
4.1645

> <Gold.Chemscore.Internal.Correction.Weighted>
   9.000000E+99

> <Gold.Protein.RotatedTorsions>
[ 6907 6896 6895 6894 ] final   61.26 input  -60.11 | X-H torsion
[ 7974 7965 7964 7962 ] final  175.45 input  175.53 | X-H torsion
[ 8008 7997 7996 7995 ] final  -31.58 input   59.86 | X-H torsion
[ 10167 10162 10161 10158 ] final  -97.65 input  -65.29 | X-H torsion
[ 10718 10713 10712 10709 ] final  123.12 input   66.30 | X-H torsion
[ 10763 10752 10751 10750 ] final   85.63 input  -60.55 | X-H torsion
[ 11005 11000 10999 10996 ] final  167.24 input  -57.11 | X-H torsion

> <Gold.Protein.ActiveResidues>
 VAL166  LYS551  ARG553  GLY616  TRP617  ASP618  TYR619  PRO620  LYS621  CYS622 
 ASP623  PHE694  ASN695  SER759  ASP760  ASP761  ALA762  ILE779  LEU786  VAL792 
 PHE793  MET794  SER795  GLU796  ALA797  LYS798  CYS799  TRP800  GLU811  SER814 

> <Gold.Protein.RotatedAtoms>
  152.4073  134.6184  160.0044 H   0  0  0  0  0  0  0  0  0  0  0  0  # atno 6907 bound_to 6896
  151.6372  133.3322  159.3130 H   0  0  0  0  0  0  0  0  0  0  0  0  # atno 6908 bound_to 6896
  150.7967  134.7073  159.6628 H   0  0  0  0  0  0  0  0  0  0  0  0  # atno 6909 bound_to 6896
  144.7201  139.9948  143.6440 H   0  0  0  0  0  0  0  0  0  0  0  0  # atno 7974 bound_to 7965
  154.4209  140.1760  156.1589 H   0  0  0  0  0  0  0  0  0  0  0  0  # atno 8008 bound_to 7997
  155.9854  140.3374  155.6678 H   0  0  0  0  0  0  0  0  0  0  0  0  # atno 8009 bound_to 7997
  155.6444  140.0683  157.2598 H   0  0  0  0  0  0  0  0  0  0  0  0  # atno 8010 bound_to 7997
  140.2811  143.3281  152.0440 H   0  0  0  0  0  0  0  0  0  0  0  0  # atno 10167 bound_to 10162
  157.5689  131.1084  150.8403 H   0  0  0  0  0  0  0  0  0  0  0  0  # atno 10718 bound_to 10713
  153.1493  135.4610  154.9613 H   0  0  0  0  0  0  0  0  0  0  0  0  # atno 10763 bound_to 10752
  154.7812  135.3189  154.7988 H   0  0  0  0  0  0  0  0  0  0  0  0  # atno 10764 bound_to 10752
  153.8497  135.6922  153.4848 H   0  0  0  0  0  0  0  0  0  0  0  0  # atno 10765 bound_to 10752
  140.2747  134.7798  157.3706 H   0  0  0  0  0  0  0  0  0  0  0  0  # atno 11005 bound_to 11000
  146.0382  139.3397  143.0713 LP  0  0  0  0  0  0  0  0  0  0  0  0  # atno 17320 bound_to 7965
  145.8367  140.9602  143.0820 LP  0  0  0  0  0  0  0  0  0  0  0  0  # atno 17321 bound_to 7965
  139.4962  144.6591  151.6506 LP  0  0  0  0  0  0  0  0  0  0  0  0  # atno 17342 bound_to 10162
  140.5810  143.9945  150.6268 LP  0  0  0  0  0  0  0  0  0  0  0  0  # atno 17343 bound_to 10162
  156.8879  130.5202  149.5287 LP  0  0  0  0  0  0  0  0  0  0  0  0  # atno 17370 bound_to 10713
  156.0736  130.5763  150.9431 LP  0  0  0  0  0  0  0  0  0  0  0  0  # atno 17371 bound_to 10713
  140.1339  134.5059  155.8083 LP  0  0  0  0  0  0  0  0  0  0  0  0  # atno 17394 bound_to 11000
  141.2172  133.6800  156.7090 LP  0  0  0  0  0  0  0  0  0  0  0  0  # atno 17395 bound_to 11000

$$$$
