AV-unprocessed.smi:72|AV-procd|sdf|724|dock3
  -GOLD-   2262017 53D 1   1.00000     0.00000
 Structure written by MMmdl.
 28 29  0  0  0  0  0  0  0  0  2 V2000
  154.1025  138.8444  160.5337 N   0  0  0  0  0  0  0  0  0  0  0  0
  153.2961  138.6798  159.5791 C   0  0  0  0  0  0  0  0  0  0  0  0
  153.3067  139.5879  158.4537 N   0  0  0  0  0  0  0  0  0  0  0  0
  152.4798  139.3559  157.4811 C   0  0  0  0  0  0  0  0  0  0  0  0
  151.5739  138.2117  157.4938 N   0  0  0  0  0  0  0  0  0  0  0  0
  150.5985  137.9230  156.3614 C   0  0  1  0  0  0  0  0  0  0  0  0
  149.6762  138.9692  156.2445 O   0  0  0  0  0  0  0  0  0  0  0  0
  150.0822  139.8585  155.2080 C   0  0  2  0  0  0  0  0  0  0  0  0
  148.9179  140.7580  154.7585 C   0  0  0  0  0  0  0  0  0  0  0  0
  149.1817  141.2777  153.4729 O   0  0  0  0  0  0  0  0  0  0  0  0
  150.6218  138.8882  154.1533 C   0  0  2  0  0  0  0  0  0  0  0  0
  149.5580  138.3389  153.3923 O   0  0  0  0  0  0  0  0  0  0  0  0
  151.3374  137.8410  155.0069 C   0  0  2  0  0  0  0  0  0  0  0  0
  151.3026  136.5516  154.4238 O   0  0  0  0  0  0  0  0  0  0  0  0
  151.5541  137.3674  158.6372 C   0  0  0  0  0  0  0  0  0  0  0  0
  150.7469  136.4378  158.6580 O   0  0  0  0  0  0  0  0  0  0  0  0
  152.4219  137.6191  159.6564 N   0  5  0  0  0  0  0  0  0  0  0  0
  150.0787  137.0091  156.6544 H   0  0  0  0  0  0  0  0  0  0  0  0
  150.9136  140.4730  155.5587 H   0  0  0  0  0  0  0  0  0  0  0  0
  151.3101  139.3806  153.4656 H   0  0  0  0  0  0  0  0  0  0  0  0
  152.3772  138.1429  155.1432 H   0  0  0  0  0  0  0  0  0  0  0  0
  154.7036  139.6432  160.3930 H   0  0  0  0  0  0  0  0  0  0  0  0
  152.4186  140.0027  156.6061 H   0  0  0  0  0  0  0  0  0  0  0  0
  147.9974  140.1772  154.6940 H   0  0  0  0  0  0  0  0  0  0  0  0
  148.7435  141.5701  155.4648 H   0  0  0  0  0  0  0  0  0  0  0  0
  149.3543  140.5542  152.8896 H   0  0  0  0  0  0  0  0  0  0  0  0
  149.5107  138.8078  152.5728 H   0  0  0  0  0  0  0  0  0  0  0  0
  151.2384  136.6547  153.4857 H   0  0  0  0  0  0  0  0  0  0  0  0
  1  2  2  0  0  0  0
  1 22  1  0  0  0  0
  2 17  1  0  0  0  0
  2  3  1  0  0  0  0
  3  4  2  0  0  0  0
  4  5  1  0  0  0  0
  4 23  1  0  0  0  0
  5  6  1  0  0  0  0
  5 15  1  0  0  0  0
  6 18  1  0  0  0  0
  6 13  1  0  0  0  0
  6  7  1  0  0  0  0
  7  8  1  0  0  0  0
  8 19  1  0  0  0  0
  8  9  1  0  0  0  0
  8 11  1  0  0  0  0
  9 10  1  0  0  0  0
  9 24  1  0  0  0  0
  9 25  1  0  0  0  0
 10 26  1  0  0  0  0
 11 20  1  0  0  0  0
 11 12  1  0  0  0  0
 11 13  1  0  0  0  0
 12 27  1  0  0  0  0
 13 21  1  0  0  0  0
 13 14  1  0  0  0  0
 14 28  1  0  0  0  0
 15 16  2  0  0  0  0
 15 17  1  0  0  0  0
M  CHG  1  17  -1
M  END
> <s_m_source_file>
AV-unprocessed.smi

> <i_m_source_file_index>
72

> <i_lp_mmshare_version>
43012

> <i_f3d_flags>
0

> <s_epik_input>
W05IMl1jMW5bY0hdbihjKD1PKW4xKVtDQEBIXTJPW0NASF0oW0NIMl1bT0hdKVtDQEBIXShbT0hdKVtDQEhdMltPSF0=

> <s_epik_cmdline>
J2VwaWtfcHl0aG9uJywgJy1waCcsICc3LjAnLCAnLXRuJywgJzgnLCAnLW1hJywgJzIwMCcsICctbWV0YWxfYmluZGluZycsICctaW1hZScsICc8aW5maWxlLm1hZT4nLCAnLW9tYWUnLCAnPG91dGZpbGUubWFlPic=

> <r_lp_tautomer_probability>
7.17554e-07

> <r_epik_Ionization_Penalty>
12.8705

> <r_epik_Ionization_Penalty_Charging>
5.64144

> <r_epik_Ionization_Penalty_Neutral>
7.22905

> <r_epik_State_Penalty>
3.30104

> <r_epik_Charging_Adjusted_Penalty>
8.94249

> <i_epik_Tot_Q>
-1

> <i_epik_Tot_abs_Q>
1

> <r_epik_Metal_State_Penalty>
0.529074

> <b_epik_Metal_Only>
1

> <s_epik_Chemistry_Notes>
This compound contains an acetal/aminal-like group ( X-CH(R)-Y where X, Y are N, S, or O) that may be acid/base labile, releasing an aldehyde.

> <s_lp_Force_Field>
OPLS_2005

> <r_lp_Energy>
35.695

> <b_lp_Chiralities_Consistent>
1

> <s_lp_Variant>
AV-unprocessed.smi:72-62

> <Gold.Version>
5.8.1

> <Gold.Id.Protein>
6NUR|6NUR_protein|mol2

> <Gold.PLP.Fitness>
42.9512

> <Gold.PLP.PLP>
-23.9955

> <Gold.PLP.part.hbond>
-8.6340

> <Gold.PLP.part.metal>
0.0000

> <Gold.PLP.part.buried>
-3.5691

> <Gold.PLP.part.nonpolar>
-12.3454

> <Gold.PLP.part.repulsive>
0.0000

> <Gold.PLP.ligand.clash>
0.0000

> <Gold.PLP.ligand.torsion>
0.2235

> <Gold.PLP.Chemscore.Hbond>
6.4603

> <Gold.PLP.Chemscore.CHOScore>
0.0000

> <Gold.PLP.Chemscore.Metal>
0.0000

> <Gold.Chemscore.Hbonds>
donor molecule, donor type, donor heavy atom, donor atom, acceptor molecule, acceptor atom, score
      L1  H    10    26       P1  7957  0.91
      L1  H    12    27       P1  7957  1.00
      L1  H    14    28       P1  7949  0.81
      P1  H  6896  6909       L1    16  0.86
      P1  H  7997  8010       L1     3  0.35
      P1  H  8011  8017       L1    10  0.59
      P1  H 10752 10764       L1    14  1.00

> <Gold.PLP.Chemscore.Internal.Correction>
0.0219

> <Gold.Rescore>
     Score         DG    S(hbond)    S(metal)    S(lipo)     H(rot)  DE(clash)    DE(int)     intcor
     12.05     -12.46       4.19        0.00      28.56       4.04       0.11       0.30       ----

> <Gold.Chemscore.Fitness>
12.0541

> <Gold.Chemscore.DG>
-12.4612

> <Gold.Chemscore.ZeroCoef>
-5.4800

> <Gold.Chemscore.Hbond>
4.1865

> <Gold.Chemscore.Metal>
0.0000

> <Gold.Chemscore.Lipo>
28.5596

> <Gold.Chemscore.Internal_Hbond>
0.0000

> <Gold.Chemscore.DEClash>
0.1116

> <Gold.Chemscore.DEInternal>
0.2956

> <Gold.Chemscore.Rot>
4.0403

> <Gold.Chemscore.Internal.Correction>
   9.000000E+99

> <Gold.Chemscore.Hbonds>
donor molecule, donor type, donor heavy atom, donor atom, acceptor molecule, acceptor atom, score
      L1  H    10    26       P1  7957  0.88
      L1  H    12    27       P1  7957  0.82
      L1  H    14    28       P1  7949  0.48
      P1  H  6896  6909       L1    16  0.72
      P1  H  7997  8010       L1     3  0.01
      P1  H  8011  8017       L1    10  0.04
      P1  H 10752 10764       L1    14  0.23

> <Gold.Chemscore.Hbond.Weighted>
-13.9828

> <Gold.Chemscore.Metal.Weighted>
-0.0000

> <Gold.Chemscore.Lipo.Weighted>
-3.3415

> <Gold.Chemscore.Internal_Hbond.Weighted>
0.0000

> <Gold.Chemscore.DEClash.Weighted>
0.1116

> <Gold.Chemscore.DEInternal.Weighted>
0.2956

> <Gold.Chemscore.Rot.Weighted>
10.3431

> <Gold.Chemscore.Internal.Correction.Weighted>
   9.000000E+99

> <Gold.Protein.RotatedTorsions>
[ 6907 6896 6895 6894 ] final   97.61 input  -60.11 | X-H torsion
[ 7974 7965 7964 7962 ] final   -4.79 input  175.53 | X-H torsion
[ 8008 7997 7996 7995 ] final   29.99 input   59.86 | X-H torsion
[ 10167 10162 10161 10158 ] final   81.38 input  -65.29 | X-H torsion
[ 10718 10713 10712 10709 ] final   85.03 input   66.30 | X-H torsion
[ 10763 10752 10751 10750 ] final  -60.91 input  -60.55 | X-H torsion
[ 11005 11000 10999 10996 ] final  136.31 input  -57.11 | X-H torsion

> <Gold.Protein.ActiveResidues>
 VAL166  LYS551  ARG553  GLY616  TRP617  ASP618  TYR619  PRO620  LYS621  CYS622 
 ASP623  PHE694  ASN695  SER759  ASP760  ASP761  ALA762  ILE779  LEU786  VAL792 
 PHE793  MET794  SER795  GLU796  ALA797  LYS798  CYS799  TRP800  GLU811  SER814 

> <Gold.Protein.RotatedAtoms>
  152.5421  134.0707  159.8192 H   0  0  0  0  0  0  0  0  0  0  0  0  # atno 6907 bound_to 6896
  151.0822  133.5374  159.2627 H   0  0  0  0  0  0  0  0  0  0  0  0  # atno 6908 bound_to 6896
  151.2196  135.0522  159.8998 H   0  0  0  0  0  0  0  0  0  0  0  0  # atno 6909 bound_to 6896
  146.2365  140.1924  142.8333 H   0  0  0  0  0  0  0  0  0  0  0  0  # atno 7974 bound_to 7965
  155.0833  140.3212  155.4595 H   0  0  0  0  0  0  0  0  0  0  0  0  # atno 8008 bound_to 7997
  156.2761  140.2091  156.5906 H   0  0  0  0  0  0  0  0  0  0  0  0  # atno 8009 bound_to 7997
  154.6961  140.0511  157.0400 H   0  0  0  0  0  0  0  0  0  0  0  0  # atno 8010 bound_to 7997
  139.9399  144.6097  150.8262 H   0  0  0  0  0  0  0  0  0  0  0  0  # atno 10167 bound_to 10162
  157.6908  131.0158  150.2762 H   0  0  0  0  0  0  0  0  0  0  0  0  # atno 10718 bound_to 10713
  154.2765  135.6280  153.5330 H   0  0  0  0  0  0  0  0  0  0  0  0  # atno 10763 bound_to 10752
  152.9872  135.5623  154.5542 H   0  0  0  0  0  0  0  0  0  0  0  0  # atno 10764 bound_to 10752
  154.5124  135.2878  155.1307 H   0  0  0  0  0  0  0  0  0  0  0  0  # atno 10765 bound_to 10752
  140.0037  134.9468  157.0129 H   0  0  0  0  0  0  0  0  0  0  0  0  # atno 11005 bound_to 11000
  144.9847  140.8492  143.5376 LP  0  0  0  0  0  0  0  0  0  0  0  0  # atno 17320 bound_to 7965
  145.1922  139.2295  143.5237 LP  0  0  0  0  0  0  0  0  0  0  0  0  # atno 17321 bound_to 7965
  140.7614  143.3173  151.2703 LP  0  0  0  0  0  0  0  0  0  0  0  0  # atno 17342 bound_to 10162
  139.6713  144.0015  152.2754 LP  0  0  0  0  0  0  0  0  0  0  0  0  # atno 17343 bound_to 10162
  156.3316  130.3801  149.7486 LP  0  0  0  0  0  0  0  0  0  0  0  0  # atno 17370 bound_to 10713
  156.5024  130.8134  151.3137 LP  0  0  0  0  0  0  0  0  0  0  0  0  # atno 17371 bound_to 10713
  140.4680  134.1416  155.7199 LP  0  0  0  0  0  0  0  0  0  0  0  0  # atno 17394 bound_to 11000
  141.1661  133.8700  157.1709 LP  0  0  0  0  0  0  0  0  0  0  0  0  # atno 17395 bound_to 11000

$$$$
