AV-unprocessed.smi:252|AV-procd|sdf|1942|dock5
  -GOLD-   2262021 73D 1   1.00000     0.00000
 Structure written by MMmdl.
 56 59  0  0  0  0  0  0  0  0  1 V2000
  151.7641  144.6229  159.5123 C   0  0  0  0  0  0  0  0  0  0  0  0
  151.6854  144.3433  158.0034 C   0  0  0  0  0  0  0  0  0  0  0  0
  151.3016  142.8994  157.6632 C   0  0  0  0  0  0  0  0  0  0  0  0
  151.9178  141.9482  158.1446 O   0  0  0  0  0  0  0  0  0  0  0  0
  150.2659  142.7548  156.8232 N   0  0  0  0  0  0  0  0  0  0  0  0
  149.7151  141.4822  156.3697 C   0  0  2  0  0  0  0  0  0  0  0  0
  149.4045  141.5283  154.8603 C   0  0  0  0  0  0  0  0  0  0  0  0
  148.7164  140.2298  154.4138 C   0  0  0  0  0  0  0  0  0  0  0  0
  147.4655  139.9498  155.2616 C   0  0  0  0  0  0  0  0  0  0  0  0
  147.7960  139.9475  156.6872 N   0  0  0  0  0  0  0  0  0  0  0  0
  146.8884  139.4152  157.5437 C   0  0  0  0  0  0  0  0  0  0  0  0
  145.7889  140.1314  157.9016 N   0  0  0  0  0  0  0  0  0  0  0  0
  144.8976  139.6174  158.7542 C   0  0  0  0  0  0  0  0  0  0  0  0
  144.9091  138.4271  159.3566 N   0  0  0  0  0  0  0  0  0  0  0  0
  146.0075  137.7021  158.9995 C   0  0  0  0  0  0  0  0  0  0  0  0
  147.0345  138.1152  158.1044 C   0  0  0  0  0  0  0  0  0  0  0  0
  147.9781  137.1036  157.9680 N   0  0  0  0  0  0  0  0  0  0  0  0
  147.5366  136.1499  158.7415 C   0  0  0  0  0  0  0  0  0  0  0  0
  146.3660  136.4298  159.4102 N   0  0  0  0  0  0  0  0  0  0  0  0
  145.6560  135.5523  160.3277 C   0  0  0  0  0  0  0  0  0  0  0  0
  145.7208  136.0001  161.8143 C   0  0  2  0  0  0  0  0  0  0  0  0
  145.0637  137.2441  161.9658 O   0  0  0  0  0  0  0  0  0  0  0  0
  147.1369  136.1187  162.3649 C   0  0  0  0  0  0  0  0  0  0  0  0
  147.4661  134.6789  162.7485 C   0  0  0  0  0  0  0  0  0  0  0  0
  146.2215  134.0782  163.0950 O   0  0  0  0  0  0  0  0  0  0  0  0
  145.1469  134.9684  162.8044 C   0  0  2  0  0  0  0  0  0  0  0  0
  143.9032  134.1903  162.3502 C   0  0  0  0  0  0  0  0  0  0  0  0
  148.4426  141.1646  157.1759 C   0  0  0  0  0  0  0  0  0  0  0  0
  152.0693  145.6531  159.6968 H   0  0  0  0  0  0  0  0  0  0  0  0
  152.4900  143.9718  160.0009 H   0  0  0  0  0  0  0  0  0  0  0  0
  150.7975  144.4754  159.9955 H   0  0  0  0  0  0  0  0  0  0  0  0
  150.9573  145.0130  157.5448 H   0  0  0  0  0  0  0  0  0  0  0  0
  152.6496  144.5662  157.5447 H   0  0  0  0  0  0  0  0  0  0  0  0
  149.8194  143.5914  156.4765 H   0  0  0  0  0  0  0  0  0  0  0  0
  150.4409  140.6884  156.5586 H   0  0  0  0  0  0  0  0  0  0  0  0
  148.7550  142.3766  154.6402 H   0  0  0  0  0  0  0  0  0  0  0  0
  150.3196  141.6781  154.2865 H   0  0  0  0  0  0  0  0  0  0  0  0
  148.4465  140.2917  153.3594 H   0  0  0  0  0  0  0  0  0  0  0  0
  149.4144  139.3969  154.5077 H   0  0  0  0  0  0  0  0  0  0  0  0
  146.7069  140.7097  155.0680 H   0  0  0  0  0  0  0  0  0  0  0  0
  147.0406  138.9872  154.9736 H   0  0  0  0  0  0  0  0  0  0  0  0
  144.0555  140.2516  158.9893 H   0  0  0  0  0  0  0  0  0  0  0  0
  148.0599  135.2111  158.8515 H   0  0  0  0  0  0  0  0  0  0  0  0
  144.6190  135.4937  159.9954 H   0  0  0  0  0  0  0  0  0  0  0  0
  146.0663  134.5482  160.2157 H   0  0  0  0  0  0  0  0  0  0  0  0
  144.3513  137.1356  162.5771 H   0  0  0  0  0  0  0  0  0  0  0  0
  147.8609  136.5579  161.6801 H   0  0  0  0  0  0  0  0  0  0  0  0
  147.1401  136.7307  163.2688 H   0  0  0  0  0  0  0  0  0  0  0  0
  147.8897  134.1418  161.8991 H   0  0  0  0  0  0  0  0  0  0  0  0
  148.1778  134.6224  163.5723 H   0  0  0  0  0  0  0  0  0  0  0  0
  144.9135  135.4751  163.7430 H   0  0  0  0  0  0  0  0  0  0  0  0
  143.0894  134.8687  162.0932 H   0  0  0  0  0  0  0  0  0  0  0  0
  143.5491  133.5338  163.1452 H   0  0  0  0  0  0  0  0  0  0  0  0
  144.1112  133.5657  161.4814 H   0  0  0  0  0  0  0  0  0  0  0  0
  148.6971  141.0802  158.2322 H   0  0  0  0  0  0  0  0  0  0  0  0
  147.7321  141.9886  157.0923 H   0  0  0  0  0  0  0  0  0  0  0  0
  1  2  1  0  0  0  0
  1 29  1  0  0  0  0
  1 30  1  0  0  0  0
  1 31  1  0  0  0  0
  2  3  1  0  0  0  0
  2 32  1  0  0  0  0
  2 33  1  0  0  0  0
  3  4  2  0  0  0  0
  3  5  1  0  0  0  0
  5  6  1  0  0  0  0
  5 34  1  0  0  0  0
  6 28  1  0  0  0  0
  6  7  1  0  0  0  0
  6 35  1  0  0  0  0
  7  8  1  0  0  0  0
  7 36  1  0  0  0  0
  7 37  1  0  0  0  0
  8  9  1  0  0  0  0
  8 38  1  0  0  0  0
  8 39  1  0  0  0  0
  9 10  1  0  0  0  0
  9 40  1  0  0  0  0
  9 41  1  0  0  0  0
 10 11  1  0  0  0  0
 10 28  1  0  0  0  0
 11 16  1  0  0  0  0
 11 12  2  0  0  0  0
 12 13  1  0  0  0  0
 13 14  2  0  0  0  0
 13 42  1  0  0  0  0
 14 15  1  0  0  0  0
 15 19  1  0  0  0  0
 15 16  2  0  0  0  0
 16 17  1  0  0  0  0
 17 18  2  0  0  0  0
 18 19  1  0  0  0  0
 18 43  1  0  0  0  0
 19 20  1  0  0  0  0
 20 21  1  0  0  0  0
 20 44  1  0  0  0  0
 20 45  1  0  0  0  0
 21 26  1  0  0  0  0
 21 22  1  0  0  0  0
 21 23  1  0  0  0  0
 22 46  1  0  0  0  0
 23 24  1  0  0  0  0
 23 47  1  0  0  0  0
 23 48  1  0  0  0  0
 24 25  1  0  0  0  0
 24 49  1  0  0  0  0
 24 50  1  0  0  0  0
 25 26  1  0  0  0  0
 26 27  1  0  0  0  0
 26 51  1  0  0  0  0
 27 52  1  0  0  0  0
 27 53  1  0  0  0  0
 27 54  1  0  0  0  0
 28 55  1  0  0  0  0
 28 56  1  0  0  0  0
M  END
> <s_m_source_file>
AV-unprocessed.smi

> <i_m_source_file_index>
252

> <i_lp_mmshare_version>
43012

> <i_f3d_flags>
0

> <s_epik_input>
W0NIM11bQ0gyXUMoPU8pW05IXVtDQEBIXTFbQ0gyXVtDSDJdW0NIMl1OKFtDSDJdMSljKG5bY0hdbjIpYyhjMjMpbltjSF1uM1tDSDJdW0NAQF00KFtPSF0pW0NIMl1bQ0gyXU9bQ0BIXTRbQ0gzXQ==

> <s_epik_cmdline>
J2VwaWtfcHl0aG9uJywgJy1waCcsICc3LjAnLCAnLXRuJywgJzgnLCAnLW1hJywgJzIwMCcsICctbWV0YWxfYmluZGluZycsICctaW1hZScsICc8aW5maWxlLm1hZT4nLCAnLW9tYWUnLCAnPG91dGZpbGUubWFlPic=

> <r_lp_tautomer_probability>
1

> <r_epik_Ionization_Penalty>
0.00182575

> <r_epik_Ionization_Penalty_Charging>
0

> <r_epik_Ionization_Penalty_Neutral>
0.00182575

> <r_epik_State_Penalty>
0.00104524

> <r_epik_Charging_Adjusted_Penalty>
0.00104524

> <i_epik_Tot_Q>
0

> <i_epik_Tot_abs_Q>
0

> <r_epik_Metal_State_Penalty>
-0

> <b_epik_Metal_Only>
0

> <s_lp_Force_Field>
OPLS_2005

> <r_lp_Energy>
36.2255

> <b_lp_Chiralities_Consistent>
1

> <s_lp_Variant>
AV-unprocessed.smi:252-7

> <Gold.Version>
5.8.1

> <Gold.Id.Protein>
6NUR|6NUR_protein|mol2

> <Gold.PLP.Fitness>
43.0654

> <Gold.PLP.PLP>
-41.0422

> <Gold.PLP.part.hbond>
-2.0000

> <Gold.PLP.part.metal>
0.0000

> <Gold.PLP.part.buried>
-7.3526

> <Gold.PLP.part.nonpolar>
-32.3767

> <Gold.PLP.part.repulsive>
0.0684

> <Gold.PLP.ligand.clash>
0.0000

> <Gold.PLP.ligand.torsion>
0.6905

> <Gold.PLP.Chemscore.Hbond>
1.0000

> <Gold.PLP.Chemscore.CHOScore>
0.0000

> <Gold.PLP.Chemscore.Metal>
0.0000

> <Gold.Chemscore.Hbonds>
donor molecule, donor type, donor heavy atom, donor atom, acceptor molecule, acceptor atom, score
      L1  H     5    34       P1  8028  1.00

> <Gold.PLP.Chemscore.Internal.Correction>
0.4042

> <Gold.Rescore>
     Score         DG    S(hbond)    S(metal)    S(lipo)     H(rot)  DE(clash)    DE(int)     intcor
     11.82     -12.51       1.00        0.00      90.76       2.70       0.08       0.62       ----

> <Gold.Chemscore.Fitness>
11.8165

> <Gold.Chemscore.DG>
-12.5139

> <Gold.Chemscore.ZeroCoef>
-5.4800

> <Gold.Chemscore.Hbond>
0.9992

> <Gold.Chemscore.Metal>
0.0000

> <Gold.Chemscore.Lipo>
90.7607

> <Gold.Chemscore.Internal_Hbond>
0.0000

> <Gold.Chemscore.DEClash>
0.0763

> <Gold.Chemscore.DEInternal>
0.6211

> <Gold.Chemscore.Rot>
2.7041

> <Gold.Chemscore.Internal.Correction>
   9.000000E+99

> <Gold.Chemscore.Hbonds>
donor molecule, donor type, donor heavy atom, donor atom, acceptor molecule, acceptor atom, score
      L1  H     5    34       P1  8028  1.00

> <Gold.Chemscore.Hbond.Weighted>
-3.3374

> <Gold.Chemscore.Metal.Weighted>
-0.0000

> <Gold.Chemscore.Lipo.Weighted>
-10.6190

> <Gold.Chemscore.Internal_Hbond.Weighted>
0.0000

> <Gold.Chemscore.DEClash.Weighted>
0.0763

> <Gold.Chemscore.DEInternal.Weighted>
0.6211

> <Gold.Chemscore.Rot.Weighted>
6.9225

> <Gold.Chemscore.Internal.Correction.Weighted>
   9.000000E+99

> <Gold.Protein.RotatedTorsions>
[ 6907 6896 6895 6894 ] final -139.21 input  -60.11 | X-H torsion
[ 7974 7965 7964 7962 ] final  142.33 input  175.53 | X-H torsion
[ 8008 7997 7996 7995 ] final  167.57 input   59.86 | X-H torsion
[ 10167 10162 10161 10158 ] final  -47.11 input  -65.29 | X-H torsion
[ 10718 10713 10712 10709 ] final   62.61 input   66.30 | X-H torsion
[ 10763 10752 10751 10750 ] final   -7.87 input  -60.55 | X-H torsion
[ 11005 11000 10999 10996 ] final  -63.79 input  -57.11 | X-H torsion

> <Gold.Protein.ActiveResidues>
 VAL166  LYS551  ARG553  GLY616  TRP617  ASP618  TYR619  PRO620  LYS621  CYS622 
 ASP623  PHE694  ASN695  SER759  ASP760  ASP761  ALA762  ILE779  LEU786  VAL792 
 PHE793  MET794  SER795  GLU796  ALA797  LYS798  CYS799  TRP800  GLU811  SER814 

> <Gold.Protein.RotatedAtoms>
  151.0449  133.5674  159.2647 H   0  0  0  0  0  0  0  0  0  0  0  0  # atno 6907 bound_to 6896
  151.2706  135.0682  159.9142 H   0  0  0  0  0  0  0  0  0  0  0  0  # atno 6908 bound_to 6896
  152.5371  134.0180  159.8022 H   0  0  0  0  0  0  0  0  0  0  0  0  # atno 6909 bound_to 6896
  144.9017  139.5414  143.5750 H   0  0  0  0  0  0  0  0  0  0  0  0  # atno 7974 bound_to 7965
  156.1622  140.1613  156.8592 H   0  0  0  0  0  0  0  0  0  0  0  0  # atno 8008 bound_to 7997
  154.5172  140.0786  156.8139 H   0  0  0  0  0  0  0  0  0  0  0  0  # atno 8009 bound_to 7997
  155.3684  140.3399  155.4245 H   0  0  0  0  0  0  0  0  0  0  0  0  # atno 8010 bound_to 7997
  140.6789  143.2799  151.3880 H   0  0  0  0  0  0  0  0  0  0  0  0  # atno 10167 bound_to 10162
  157.5913  130.9059  149.9609 H   0  0  0  0  0  0  0  0  0  0  0  0  # atno 10718 bound_to 10713
  153.4325  135.7012  153.6221 H   0  0  0  0  0  0  0  0  0  0  0  0  # atno 10763 bound_to 10752
  153.4630  135.3732  155.2349 H   0  0  0  0  0  0  0  0  0  0  0  0  # atno 10764 bound_to 10752
  154.8726  135.4024  154.3711 H   0  0  0  0  0  0  0  0  0  0  0  0  # atno 10765 bound_to 10752
  141.1404  133.6656  156.5733 H   0  0  0  0  0  0  0  0  0  0  0  0  # atno 11005 bound_to 11000
  146.3112  139.7753  142.9018 LP  0  0  0  0  0  0  0  0  0  0  0  0  # atno 17320 bound_to 7965
  145.3605  141.0325  143.3287 LP  0  0  0  0  0  0  0  0  0  0  0  0  # atno 17321 bound_to 7965
  139.6098  144.1121  152.2287 LP  0  0  0  0  0  0  0  0  0  0  0  0  # atno 17342 bound_to 10162
  140.0532  144.5916  150.7320 LP  0  0  0  0  0  0  0  0  0  0  0  0  # atno 17343 bound_to 10162
  156.0968  130.3659  150.0292 LP  0  0  0  0  0  0  0  0  0  0  0  0  # atno 17370 bound_to 10713
  156.8414  130.9427  151.3631 LP  0  0  0  0  0  0  0  0  0  0  0  0  # atno 17371 bound_to 10713
  140.3895  134.7453  157.4712 LP  0  0  0  0  0  0  0  0  0  0  0  0  # atno 17394 bound_to 11000
  140.0577  134.6040  155.8786 LP  0  0  0  0  0  0  0  0  0  0  0  0  # atno 17395 bound_to 11000

$$$$
