AV-unprocessed.smi:1464|AV-procd|sdf|5944|dock4
  -GOLD-   22720 6 23D 1   1.00000     0.00000
 Structure written by MMmdl.
 41 42  0  0  0  0  0  0  0  0  1 V2000
  153.1573  140.7086  159.4278 C   0  0  0  0  0  0  0  0  0  0  0  0
  152.2253  141.9319  159.4195 C   0  0  1  0  0  0  0  0  0  0  0  0
  152.9957  143.2359  159.1281 C   0  0  0  0  0  0  0  0  0  0  0  0
  152.0779  144.4652  159.2201 C   0  0  0  0  0  0  0  0  0  0  0  0
  150.8474  144.3214  158.3120 C   0  0  0  0  0  0  0  0  0  0  0  0
  150.0808  143.0190  158.6125 C   0  0  1  0  0  0  0  0  0  0  0  0
  148.8976  142.9321  157.7595 N   0  0  0  0  0  0  0  0  0  0  0  0
  147.6880  142.5008  158.1487 C   0  0  0  0  0  0  0  0  0  0  0  0
  147.4467  142.1078  159.2911 O   0  0  0  0  0  0  0  0  0  0  0  0
  146.5977  142.4936  157.0674 C   0  0  0  0  0  0  0  0  0  0  0  0
  146.8342  141.5028  156.0073 N   0  0  0  0  0  0  0  0  0  0  0  0
  147.9506  141.7629  155.2267 N   0  0  0  0  0  0  0  0  0  0  0  0
  148.2701  140.9576  154.2706 C   0  0  0  0  0  0  0  0  0  0  0  0
  149.3856  141.2503  153.5252 O   0  0  0  0  0  0  0  0  0  0  0  0
  147.4798  139.7796  153.9880 C   0  0  0  0  0  0  0  0  0  0  0  0
  146.3914  139.5371  154.7510 C   0  0  0  0  0  0  0  0  0  0  0  0
  146.0010  140.4292  155.8442 C   0  0  0  0  0  0  0  0  0  0  0  0
  145.0144  140.2339  156.5538 O   0  0  0  0  0  0  0  0  0  0  0  0
  150.9978  141.7712  158.4832 C   0  0  1  0  0  0  0  0  0  0  0  0
  151.3756  141.4421  157.0199 C   0  0  0  0  0  0  0  0  0  0  0  0
  149.5163  140.5008  152.9649 H   0  0  0  0  0  0  0  0  0  0  0  0
  153.6869  140.5958  158.4820 H   0  0  0  0  0  0  0  0  0  0  0  0
  152.6004  139.7902  159.6147 H   0  0  0  0  0  0  0  0  0  0  0  0
  153.9101  140.8004  160.2112 H   0  0  0  0  0  0  0  0  0  0  0  0
  151.8341  142.0166  160.4348 H   0  0  0  0  0  0  0  0  0  0  0  0
  153.8177  143.3469  159.8361 H   0  0  0  0  0  0  0  0  0  0  0  0
  153.4521  143.1908  158.1389 H   0  0  0  0  0  0  0  0  0  0  0  0
  151.7524  144.5983  160.2527 H   0  0  0  0  0  0  0  0  0  0  0  0
  152.6336  145.3649  158.9545 H   0  0  0  0  0  0  0  0  0  0  0  0
  150.1908  145.1805  158.4551 H   0  0  0  0  0  0  0  0  0  0  0  0
  151.1582  144.3465  157.2670 H   0  0  0  0  0  0  0  0  0  0  0  0
  149.7387  143.0827  159.6478 H   0  0  0  0  0  0  0  0  0  0  0  0
  149.0073  143.2286  156.8006 H   0  0  0  0  0  0  0  0  0  0  0  0
  145.6245  142.3178  157.5295 H   0  0  0  0  0  0  0  0  0  0  0  0
  146.5412  143.4966  156.6404 H   0  0  0  0  0  0  0  0  0  0  0  0
  147.7614  139.1161  153.1837 H   0  0  0  0  0  0  0  0  0  0  0  0
  145.7923  138.6609  154.5511 H   0  0  0  0  0  0  0  0  0  0  0  0
  150.4298  140.9152  158.8506 H   0  0  0  0  0  0  0  0  0  0  0  0
  151.9713  142.2310  156.5623 H   0  0  0  0  0  0  0  0  0  0  0  0
  150.4908  141.2985  156.4000 H   0  0  0  0  0  0  0  0  0  0  0  0
  151.9475  140.5173  156.9533 H   0  0  0  0  0  0  0  0  0  0  0  0
  1  2  1  0  0  0  0
  1 22  1  0  0  0  0
  1 23  1  0  0  0  0
  1 24  1  0  0  0  0
  2 19  1  0  0  0  0
  2  3  1  0  0  0  0
  2 25  1  0  0  0  0
  3  4  1  0  0  0  0
  3 26  1  0  0  0  0
  3 27  1  0  0  0  0
  4  5  1  0  0  0  0
  4 28  1  0  0  0  0
  4 29  1  0  0  0  0
  5  6  1  0  0  0  0
  5 30  1  0  0  0  0
  5 31  1  0  0  0  0
  6  7  1  0  0  0  0
  6 19  1  0  0  0  0
  6 32  1  0  0  0  0
  7  8  1  0  0  0  0
  7 33  1  0  0  0  0
  8  9  2  0  0  0  0
  8 10  1  0  0  0  0
 10 34  1  0  0  0  0
 10 35  1  0  0  0  0
 10 11  1  0  0  0  0
 11 12  1  0  0  0  0
 11 17  1  0  0  0  0
 12 13  2  0  0  0  0
 13 14  1  0  0  0  0
 13 15  1  0  0  0  0
 14 21  1  0  0  0  0
 15 36  1  0  0  0  0
 15 16  2  0  0  0  0
 16 37  1  0  0  0  0
 16 17  1  0  0  0  0
 17 18  2  0  0  0  0
 19 20  1  0  0  0  0
 19 38  1  0  0  0  0
 20 39  1  0  0  0  0
 20 40  1  0  0  0  0
 20 41  1  0  0  0  0
M  END
> <s_m_source_file>
AV-unprocessed.smi

> <i_m_source_file_index>
1464

> <i_lp_mmshare_version>
43012

> <i_f3d_flags>
0

> <s_epik_input>
W0NIM11bQ0BASF0xW0NIMl1bQ0gyXVtDSDJdW0NASF0oW0NASF0xW0NIM10pW05IXUMoPU8pW0NIMl1uMltuSF1jKD1PKVtjSF1bY0hdYzI9Tw==

> <s_epik_cmdline>
J2VwaWtfcHl0aG9uJywgJy1waCcsICc3LjAnLCAnLXRuJywgJzgnLCAnLW1hJywgJzIwMCcsICctbWV0YWxfYmluZGluZycsICctaW1hZScsICc8aW5maWxlLm1hZT4nLCAnLW9tYWUnLCAnPG91dGZpbGUubWFlPic=

> <r_lp_tautomer_probability>
0.9996

> <r_epik_Ionization_Penalty>
2.10335

> <r_epik_Ionization_Penalty_Charging>
3.98079e-08

> <r_epik_Ionization_Penalty_Neutral>
2.10335

> <r_epik_State_Penalty>
1.67957

> <r_epik_Charging_Adjusted_Penalty>
1.67957

> <i_epik_Tot_Q>
0

> <i_epik_Tot_abs_Q>
0

> <r_epik_Metal_State_Penalty>
1.67957

> <b_epik_Metal_Only>
0

> <s_lp_Force_Field>
OPLS_2005

> <r_lp_Energy>
25.7359

> <b_lp_Chiralities_Consistent>
1

> <s_lp_Variant>
AV-unprocessed.smi:1464-10

> <Gold.Version>
5.8.1

> <Gold.Id.Protein>
6NUR|6NUR_protein|mol2

> <Gold.PLP.Fitness>
43.1133

> <Gold.PLP.PLP>
-34.9697

> <Gold.PLP.part.hbond>
-6.2333

> <Gold.PLP.part.metal>
0.0000

> <Gold.PLP.part.buried>
-4.6448

> <Gold.PLP.part.nonpolar>
-25.3618

> <Gold.PLP.part.repulsive>
0.5128

> <Gold.PLP.ligand.clash>
0.0000

> <Gold.PLP.ligand.torsion>
0.4109

> <Gold.PLP.Chemscore.Hbond>
2.9830

> <Gold.PLP.Chemscore.CHOScore>
0.0000

> <Gold.PLP.Chemscore.Metal>
0.0000

> <Gold.Chemscore.Hbonds>
donor molecule, donor type, donor heavy atom, donor atom, acceptor molecule, acceptor atom, score
      L1  H     7    33       P1  8028  0.85
      L1  H    14    21       P1  7957  0.82
      P1  H  6933  6944       L1     9  0.05
      P1  H  6934  6946       L1     9  0.51
      P1  H  8011  8017       L1    14  0.73

> <Gold.PLP.Chemscore.Internal.Correction>
0.0162

> <Gold.Rescore>
     Score         DG    S(hbond)    S(metal)    S(lipo)     H(rot)  DE(clash)    DE(int)     intcor
     17.15     -17.82       2.52        0.00      82.22       2.22       0.10       0.57       ----

> <Gold.Chemscore.Fitness>
17.1493

> <Gold.Chemscore.DG>
-17.8150

> <Gold.Chemscore.ZeroCoef>
-5.4800

> <Gold.Chemscore.Hbond>
2.5164

> <Gold.Chemscore.Metal>
0.0000

> <Gold.Chemscore.Lipo>
82.2171

> <Gold.Chemscore.Internal_Hbond>
0.0000

> <Gold.Chemscore.DEClash>
0.0952

> <Gold.Chemscore.DEInternal>
0.5705

> <Gold.Chemscore.Rot>
2.2224

> <Gold.Chemscore.Internal.Correction>
   9.000000E+99

> <Gold.Chemscore.Hbonds>
donor molecule, donor type, donor heavy atom, donor atom, acceptor molecule, acceptor atom, score
      L1  H     7    33       P1  8028  0.75
      L1  H    14    21       P1  7957  0.80
      P1  H  6933  6944       L1     9  0.05
      P1  H  6934  6946       L1     9  0.51
      P1  H  8011  8017       L1    14  0.09

> <Gold.Chemscore.Hbond.Weighted>
-8.4049

> <Gold.Chemscore.Metal.Weighted>
-0.0000

> <Gold.Chemscore.Lipo.Weighted>
-9.6194

> <Gold.Chemscore.Internal_Hbond.Weighted>
0.0000

> <Gold.Chemscore.DEClash.Weighted>
0.0952

> <Gold.Chemscore.DEInternal.Weighted>
0.5705

> <Gold.Chemscore.Rot.Weighted>
5.6893

> <Gold.Chemscore.Internal.Correction.Weighted>
   9.000000E+99

> <Gold.Protein.RotatedTorsions>
[ 6907 6896 6895 6894 ] final  -53.04 input  -60.11 | X-H torsion
[ 7974 7965 7964 7962 ] final   45.97 input  175.53 | X-H torsion
[ 8008 7997 7996 7995 ] final -153.42 input   59.86 | X-H torsion
[ 10167 10162 10161 10158 ] final -130.71 input  -65.29 | X-H torsion
[ 10718 10713 10712 10709 ] final  -84.71 input   66.30 | X-H torsion
[ 10763 10752 10751 10750 ] final   66.93 input  -60.55 | X-H torsion
[ 11005 11000 10999 10996 ] final  -74.59 input  -57.11 | X-H torsion

> <Gold.Protein.ActiveResidues>
 VAL166  LYS551  ARG553  GLY616  TRP617  ASP618  TYR619  PRO620  LYS621  CYS622 
 ASP623  PHE694  ASN695  SER759  ASP760  ASP761  ALA762  ILE779  LEU786  VAL792 
 PHE793  MET794  SER795  GLU796  ALA797  LYS798  CYS799  TRP800  GLU811  SER814 

> <Gold.Protein.RotatedAtoms>
  150.8463  134.7773  159.6972 H   0  0  0  0  0  0  0  0  0  0  0  0  # atno 6907 bound_to 6896
  152.4539  134.5331  159.9827 H   0  0  0  0  0  0  0  0  0  0  0  0  # atno 6908 bound_to 6896
  151.5461  133.3387  159.2980 H   0  0  0  0  0  0  0  0  0  0  0  0  # atno 6909 bound_to 6896
  146.0432  139.4906  142.9765 H   0  0  0  0  0  0  0  0  0  0  0  0  # atno 7974 bound_to 7965
  155.6705  140.0733  157.2521 H   0  0  0  0  0  0  0  0  0  0  0  0  # atno 8008 bound_to 7997
  154.4124  140.1700  156.1925 H   0  0  0  0  0  0  0  0  0  0  0  0  # atno 8009 bound_to 7997
  155.9620  140.3369  155.6502 H   0  0  0  0  0  0  0  0  0  0  0  0  # atno 8010 bound_to 7997
  139.9264  143.6322  152.2541 H   0  0  0  0  0  0  0  0  0  0  0  0  # atno 10167 bound_to 10162
  156.0003  130.4707  150.4451 H   0  0  0  0  0  0  0  0  0  0  0  0  # atno 10718 bound_to 10713
  153.0162  135.5302  154.6900 H   0  0  0  0  0  0  0  0  0  0  0  0  # atno 10763 bound_to 10752
  154.6037  135.2871  155.0509 H   0  0  0  0  0  0  0  0  0  0  0  0  # atno 10764 bound_to 10752
  154.1557  135.6556  153.5026 H   0  0  0  0  0  0  0  0  0  0  0  0  # atno 10765 bound_to 10752
  141.1637  133.6917  156.7388 H   0  0  0  0  0  0  0  0  0  0  0  0  # atno 11005 bound_to 11000
  145.6850  141.0180  143.1586 LP  0  0  0  0  0  0  0  0  0  0  0  0  # atno 17320 bound_to 7965
  144.7085  139.8465  143.7422 LP  0  0  0  0  0  0  0  0  0  0  0  0  # atno 17321 bound_to 7965
  139.6818  144.7655  151.1594 LP  0  0  0  0  0  0  0  0  0  0  0  0  # atno 17342 bound_to 10162
  140.7649  143.5714  150.8992 LP  0  0  0  0  0  0  0  0  0  0  0  0  # atno 17343 bound_to 10162
  157.2489  131.0542  151.2391 LP  0  0  0  0  0  0  0  0  0  0  0  0  # atno 17370 bound_to 10713
  157.3548  130.7101  149.6463 LP  0  0  0  0  0  0  0  0  0  0  0  0  # atno 17371 bound_to 10713
  140.2690  134.8407  157.3830 LP  0  0  0  0  0  0  0  0  0  0  0  0  # atno 17394 bound_to 11000
  140.1539  134.4814  155.7941 LP  0  0  0  0  0  0  0  0  0  0  0  0  # atno 17395 bound_to 11000

$$$$
