AV-unprocessed.smi:1893|AV-procd|sdf|7672|dock2
  -GOLD-   22720 9413D 1   1.00000     0.00000
 Structure written by MMmdl.
 43 44  0  0  0  0  0  0  0  0  2 V2000
  145.3865  141.8202  157.0142 C   0  0  0  0  0  0  0  0  0  0  0  0
  144.6859  141.6332  155.6508 C   0  0  1  0  0  0  0  0  0  0  0  0
  143.8234  142.8524  155.2613 C   0  0  0  0  0  0  0  0  0  0  0  0
  144.6797  144.0547  154.8368 C   0  0  0  0  0  0  0  0  0  0  0  0
  145.6482  143.6427  153.7214 C   0  0  0  0  0  0  0  0  0  0  0  0
  146.4932  142.4285  154.1394 C   0  0  0  0  0  0  0  0  0  0  0  0
  145.6260  141.2875  154.5427 N   0  3  1  0  0  0  0  0  0  0  0  0
  146.3737  140.0233  154.7633 C   0  0  0  0  0  0  0  0  0  0  0  0
  147.4100  139.7627  153.6533 C   0  0  0  0  0  0  0  0  0  0  0  0
  148.4388  138.8245  154.0853 N   0  0  0  0  0  0  0  0  0  0  0  0
  149.7380  139.1269  154.2391 C   0  0  0  0  0  0  0  0  0  0  0  0
  150.1881  140.2584  154.0552 O   0  0  0  0  0  0  0  0  0  0  0  0
  150.6621  137.9729  154.6571 C   0  0  2  0  0  0  0  0  0  0  0  0
  149.8820  136.6930  155.0207 C   0  0  0  0  0  0  0  0  0  0  0  0
  151.5488  138.4069  155.7302 N   0  0  0  0  0  0  0  0  0  0  0  0
  152.3089  139.5004  155.8247 C   0  0  0  0  0  0  0  0  0  0  0  0
  152.9570  139.6092  156.9758 N   0  0  0  0  0  0  0  0  0  0  0  0
  152.5133  138.4754  157.5951 C   0  0  0  0  0  0  0  0  0  0  0  0
  151.6578  137.7269  156.8989 N   0  0  0  0  0  0  0  0  0  0  0  0
  144.6572  142.0448  157.7928 H   0  0  0  0  0  0  0  0  0  0  0  0
  146.1077  142.6366  157.0037 H   0  0  0  0  0  0  0  0  0  0  0  0
  145.9132  140.9183  157.3256 H   0  0  0  0  0  0  0  0  0  0  0  0
  144.0014  140.7909  155.7604 H   0  0  0  0  0  0  0  0  0  0  0  0
  143.1670  142.5767  154.4345 H   0  0  0  0  0  0  0  0  0  0  0  0
  143.1677  143.1327  156.0863 H   0  0  0  0  0  0  0  0  0  0  0  0
  144.0393  144.8687  154.4955 H   0  0  0  0  0  0  0  0  0  0  0  0
  145.2383  144.4394  155.6904 H   0  0  0  0  0  0  0  0  0  0  0  0
  145.0841  143.4008  152.8194 H   0  0  0  0  0  0  0  0  0  0  0  0
  146.2984  144.4795  153.4640 H   0  0  0  0  0  0  0  0  0  0  0  0
  147.1275  142.1417  153.3015 H   0  0  0  0  0  0  0  0  0  0  0  0
  147.1666  142.6962  154.9540 H   0  0  0  0  0  0  0  0  0  0  0  0
  146.8463  140.0454  155.7466 H   0  0  0  0  0  0  0  0  0  0  0  0
  145.6755  139.1848  154.7742 H   0  0  0  0  0  0  0  0  0  0  0  0
  146.9163  139.3419  152.7768 H   0  0  0  0  0  0  0  0  0  0  0  0
  147.8868  140.6867  153.3250 H   0  0  0  0  0  0  0  0  0  0  0  0
  148.1490  137.8721  154.2555 H   0  0  0  0  0  0  0  0  0  0  0  0
  151.2934  137.7303  153.8006 H   0  0  0  0  0  0  0  0  0  0  0  0
  149.2605  136.3623  154.1881 H   0  0  0  0  0  0  0  0  0  0  0  0
  149.2281  136.8389  155.8816 H   0  0  0  0  0  0  0  0  0  0  0  0
  150.5654  135.8782  155.2609 H   0  0  0  0  0  0  0  0  0  0  0  0
  152.3854  140.2357  155.0372 H   0  0  0  0  0  0  0  0  0  0  0  0
  152.8229  138.1978  158.5918 H   0  0  0  0  0  0  0  0  0  0  0  0
  145.0290  141.1057  153.7486 H   0  0  0  0  0  0  0  0  0  0  0  0
  1  2  1  0  0  0  0
  1 20  1  0  0  0  0
  1 21  1  0  0  0  0
  1 22  1  0  0  0  0
  2  7  1  0  0  0  0
  2  3  1  0  0  0  0
  2 23  1  0  0  0  0
  3  4  1  0  0  0  0
  3 24  1  0  0  0  0
  3 25  1  0  0  0  0
  4  5  1  0  0  0  0
  4 26  1  0  0  0  0
  4 27  1  0  0  0  0
  5  6  1  0  0  0  0
  5 28  1  0  0  0  0
  5 29  1  0  0  0  0
  6  7  1  0  0  0  0
  6 30  1  0  0  0  0
  6 31  1  0  0  0  0
  7  8  1  0  0  0  0
  7 43  1  0  0  0  0
  8  9  1  0  0  0  0
  8 32  1  0  0  0  0
  8 33  1  0  0  0  0
  9 10  1  0  0  0  0
  9 34  1  0  0  0  0
  9 35  1  0  0  0  0
 10 11  1  0  0  0  0
 10 36  1  0  0  0  0
 11 12  2  0  0  0  0
 11 13  1  0  0  0  0
 13 14  1  0  0  0  0
 13 15  1  0  0  0  0
 13 37  1  0  0  0  0
 14 38  1  0  0  0  0
 14 39  1  0  0  0  0
 14 40  1  0  0  0  0
 15 19  1  0  0  0  0
 15 16  1  0  0  0  0
 16 17  2  0  0  0  0
 16 41  1  0  0  0  0
 17 18  1  0  0  0  0
 18 19  2  0  0  0  0
 18 42  1  0  0  0  0
M  CHG  1   7   1
M  END
> <s_m_source_file>
AV-unprocessed.smi

> <i_m_source_file_index>
1893

> <i_lp_mmshare_version>
43012

> <i_f3d_flags>
0

> <s_epik_input>
W0NIM11bQ0BASF0xW0NIMl1bQ0gyXVtDSDJdW0NIMl1OMVtDSDJdW0NIMl1bTkhdQyg9TylbQ0BIXShbQ0gzXSluMltjSF1uW2NIXW4y

> <s_epik_cmdline>
J2VwaWtfcHl0aG9uJywgJy1waCcsICc3LjAnLCAnLXRuJywgJzgnLCAnLW1hJywgJzIwMCcsICctbWV0YWxfYmluZGluZycsICctaW1hZScsICc8aW5maWxlLm1hZT4nLCAnLW9tYWUnLCAnPG91dGZpbGUubWFlPic=

> <r_lp_tautomer_probability>
1

> <r_epik_Ionization_Penalty>
0.00266409

> <r_epik_Ionization_Penalty_Charging>
0.00265606

> <r_epik_Ionization_Penalty_Neutral>
8.02794e-06

> <r_epik_State_Penalty>
0.00184955

> <r_epik_Charging_Adjusted_Penalty>
0.00450561

> <i_epik_Tot_Q>
1

> <i_epik_Tot_abs_Q>
1

> <r_epik_Metal_State_Penalty>
-0

> <b_epik_Metal_Only>
0

> <s_lp_Force_Field>
OPLS_2005

> <r_lp_Energy>
25.286

> <b_lp_Chiralities_Consistent>
1

> <s_lp_Variant>
AV-unprocessed.smi:1893-2

> <Gold.Version>
5.8.1

> <Gold.Id.Protein>
6NUR|6NUR_protein|mol2

> <Gold.PLP.Fitness>
38.8228

> <Gold.PLP.PLP>
-28.2960

> <Gold.PLP.part.hbond>
-3.0000

> <Gold.PLP.part.metal>
0.0000

> <Gold.PLP.part.buried>
-4.5373

> <Gold.PLP.part.nonpolar>
-22.6088

> <Gold.PLP.part.repulsive>
0.9751

> <Gold.PLP.ligand.clash>
0.4065

> <Gold.PLP.ligand.torsion>
0.4953

> <Gold.PLP.Chemscore.Hbond>
3.9120

> <Gold.PLP.Chemscore.CHOScore>
0.0000

> <Gold.PLP.Chemscore.Metal>
0.0000

> <Gold.Chemscore.Hbonds>
donor molecule, donor type, donor heavy atom, donor atom, acceptor molecule, acceptor atom, score
      L1  H     7    43       P1 10175  2.00
      P1  H  7989  7998       L1    12  0.90
      P1  H  7997  8009       L1    17  1.00

> <Gold.PLP.Chemscore.Internal.Correction>
0.1880

> <Gold.Rescore>
     Score         DG    S(hbond)    S(metal)    S(lipo)     H(rot)  DE(clash)    DE(int)     intcor
     11.62     -13.56       2.87        0.00      42.64       2.54       0.15       1.79       ----

> <Gold.Chemscore.Fitness>
11.6185

> <Gold.Chemscore.DG>
-13.5570

> <Gold.Chemscore.ZeroCoef>
-5.4800

> <Gold.Chemscore.Hbond>
2.8697

> <Gold.Chemscore.Metal>
0.0000

> <Gold.Chemscore.Lipo>
42.6405

> <Gold.Chemscore.Internal_Hbond>
0.0000

> <Gold.Chemscore.DEClash>
0.1499

> <Gold.Chemscore.DEInternal>
1.7886

> <Gold.Chemscore.Rot>
2.5377

> <Gold.Chemscore.Internal.Correction>
   9.000000E+99

> <Gold.Chemscore.Hbonds>
donor molecule, donor type, donor heavy atom, donor atom, acceptor molecule, acceptor atom, score
      L1  H     7    43       P1 10175  0.65
      P1  H  7989  7998       L1    12  0.88
      P1  H  7997  8009       L1    17  0.42

> <Gold.Chemscore.Hbond.Weighted>
-9.5847

> <Gold.Chemscore.Metal.Weighted>
-0.0000

> <Gold.Chemscore.Lipo.Weighted>
-4.9889

> <Gold.Chemscore.Internal_Hbond.Weighted>
0.0000

> <Gold.Chemscore.DEClash.Weighted>
0.1499

> <Gold.Chemscore.DEInternal.Weighted>
1.7886

> <Gold.Chemscore.Rot.Weighted>
6.4966

> <Gold.Chemscore.Internal.Correction.Weighted>
   9.000000E+99

> <Gold.Protein.RotatedTorsions>
[ 6907 6896 6895 6894 ] final  -41.84 input  -60.11 | X-H torsion
[ 7974 7965 7964 7962 ] final -160.09 input  175.53 | X-H torsion
[ 8008 7997 7996 7995 ] final -174.84 input   59.86 | X-H torsion
[ 10167 10162 10161 10158 ] final   25.59 input  -65.29 | X-H torsion
[ 10718 10713 10712 10709 ] final  -71.66 input   66.30 | X-H torsion
[ 10763 10752 10751 10750 ] final  -35.54 input  -60.55 | X-H torsion
[ 11005 11000 10999 10996 ] final   52.09 input  -57.11 | X-H torsion

> <Gold.Protein.ActiveResidues>
 VAL166  LYS551  ARG553  GLY616  TRP617  ASP618  TYR619  PRO620  LYS621  CYS622 
 ASP623  PHE694  ASN695  SER759  ASP760  ASP761  ALA762  ILE779  LEU786  VAL792 
 PHE793  MET794  SER795  GLU796  ALA797  LYS798  CYS799  TRP800  GLU811  SER814 

> <Gold.Protein.RotatedAtoms>
  150.9621  134.9007  159.7736 H   0  0  0  0  0  0  0  0  0  0  0  0  # atno 6907 bound_to 6896
  152.5160  134.3658  159.9311 H   0  0  0  0  0  0  0  0  0  0  0  0  # atno 6908 bound_to 6896
  151.3670  133.3828  159.2730 H   0  0  0  0  0  0  0  0  0  0  0  0  # atno 6909 bound_to 6896
  144.7440  140.3591  143.6100 H   0  0  0  0  0  0  0  0  0  0  0  0  # atno 7974 bound_to 7965
  155.9751  140.1170  157.0777 H   0  0  0  0  0  0  0  0  0  0  0  0  # atno 8008 bound_to 7997
  154.4167  140.1155  156.5427 H   0  0  0  0  0  0  0  0  0  0  0  0  # atno 8009 bound_to 7997
  155.6545  140.3473  155.4762 H   0  0  0  0  0  0  0  0  0  0  0  0  # atno 8010 bound_to 7997
  140.5093  144.0186  150.6366 H   0  0  0  0  0  0  0  0  0  0  0  0  # atno 10167 bound_to 10162
  156.0353  130.4356  150.2477 H   0  0  0  0  0  0  0  0  0  0  0  0  # atno 10718 bound_to 10713
  153.8649  135.6836  153.4779 H   0  0  0  0  0  0  0  0  0  0  0  0  # atno 10763 bound_to 10752
  153.1320  135.4694  154.9362 H   0  0  0  0  0  0  0  0  0  0  0  0  # atno 10764 bound_to 10752
  154.7741  135.3248  154.8078 H   0  0  0  0  0  0  0  0  0  0  0  0  # atno 10765 bound_to 10752
  140.0878  134.5250  155.8882 H   0  0  0  0  0  0  0  0  0  0  0  0  # atno 11005 bound_to 11000
  145.7196  139.1706  143.2492 LP  0  0  0  0  0  0  0  0  0  0  0  0  # atno 17320 bound_to 7965
  146.1287  140.7214  142.9422 LP  0  0  0  0  0  0  0  0  0  0  0  0  # atno 17321 bound_to 7965
  140.3504  143.2966  152.0493 LP  0  0  0  0  0  0  0  0  0  0  0  0  # atno 17342 bound_to 10162
  139.4892  144.6378  151.6940 LP  0  0  0  0  0  0  0  0  0  0  0  0  # atno 17343 bound_to 10162
  157.0577  131.0081  151.3233 LP  0  0  0  0  0  0  0  0  0  0  0  0  # atno 17370 bound_to 10713
  157.5093  130.7929  149.7688 LP  0  0  0  0  0  0  0  0  0  0  0  0  # atno 17371 bound_to 10713
  141.2068  133.6658  156.6266 LP  0  0  0  0  0  0  0  0  0  0  0  0  # atno 17394 bound_to 11000
  140.3395  134.7861  157.4387 LP  0  0  0  0  0  0  0  0  0  0  0  0  # atno 17395 bound_to 11000

$$$$
