AV-unprocessed.smi:111|AV-procd|sdf|1080|dock5
  -GOLD-   2262018173D 1   1.00000     0.00000
 Structure written by MMmdl.
 46 48  0  0  0  0  0  0  0  0  1 V2000
  152.0518  140.0845  155.4020 O   0  0  0  0  0  0  0  0  0  0  0  0
  151.3966  139.0920  155.7246 C   0  0  0  0  0  0  0  0  0  0  0  0
  151.9868  137.9119  156.3460 C   0  0  0  0  0  0  0  0  0  0  0  0
  153.3104  137.8725  156.5747 F   0  0  0  0  0  0  0  0  0  0  0  0
  151.2254  136.8519  156.6909 C   0  0  0  0  0  0  0  0  0  0  0  0
  149.8568  136.8075  156.4885 N   0  0  0  0  0  0  0  0  0  0  0  0
  149.0478  135.5978  156.8986 C   0  0  1  0  0  0  0  0  0  0  0  0
  148.4945  134.8812  155.6615 C   0  0  0  0  0  0  0  0  0  0  0  0
  149.5034  133.7707  155.4620 C   0  0  0  0  0  0  0  0  0  0  0  0
  149.8904  133.4470  156.8996 C   0  0  0  0  0  0  0  0  0  0  0  0
  149.8832  134.7017  157.5735 O   0  0  0  0  0  0  0  0  0  0  0  0
  149.2032  137.8943  155.8674 C   0  0  0  0  0  0  0  0  0  0  0  0
  147.9914  137.8526  155.6434 O   0  0  0  0  0  0  0  0  0  0  0  0
  149.9980  139.0113  155.5092 N   0  0  0  0  0  0  0  0  0  0  0  0
  149.3566  140.1500  154.8633 C   0  0  0  0  0  0  0  0  0  0  0  0
  148.3686  140.9206  155.7705 C   0  0  2  0  0  0  0  0  0  0  0  0
  147.6815  141.8659  154.9765 O   0  0  0  0  0  0  0  0  0  0  0  0
  149.0222  141.6468  156.9705 C   0  0  0  0  0  0  0  0  0  0  0  0
  150.3677  142.3112  156.6314 C   0  0  0  0  0  0  0  0  0  0  0  0
  150.9770  143.0375  157.8193 C   0  0  0  0  0  0  0  0  0  0  0  0
  151.2024  144.4297  157.7686 C   0  0  0  0  0  0  0  0  0  0  0  0
  151.7463  145.1000  158.8815 C   0  0  0  0  0  0  0  0  0  0  0  0
  152.0736  144.3806  160.0469 C   0  0  0  0  0  0  0  0  0  0  0  0
  151.8578  142.9904  160.0984 C   0  0  0  0  0  0  0  0  0  0  0  0
  151.3097  142.3206  158.9878 C   0  0  0  0  0  0  0  0  0  0  0  0
  151.7199  136.0040  157.1409 H   0  0  0  0  0  0  0  0  0  0  0  0
  148.2761  135.9549  157.5820 H   0  0  0  0  0  0  0  0  0  0  0  0
  147.5162  134.4673  155.9087 H   0  0  0  0  0  0  0  0  0  0  0  0
  148.3885  135.5490  154.8064 H   0  0  0  0  0  0  0  0  0  0  0  0
  149.0964  132.9137  154.9251 H   0  0  0  0  0  0  0  0  0  0  0  0
  150.3705  134.1386  154.9133 H   0  0  0  0  0  0  0  0  0  0  0  0
  149.1440  132.7968  157.3578 H   0  0  0  0  0  0  0  0  0  0  0  0
  150.8619  132.9582  156.9747 H   0  0  0  0  0  0  0  0  0  0  0  0
  150.1212  140.8112  154.4549 H   0  0  0  0  0  0  0  0  0  0  0  0
  148.8466  139.7429  153.9877 H   0  0  0  0  0  0  0  0  0  0  0  0
  147.6051  140.2304  156.1248 H   0  0  0  0  0  0  0  0  0  0  0  0
  147.9757  142.7310  155.2173 H   0  0  0  0  0  0  0  0  0  0  0  0
  148.3587  142.4103  157.3710 H   0  0  0  0  0  0  0  0  0  0  0  0
  149.1652  140.9466  157.7950 H   0  0  0  0  0  0  0  0  0  0  0  0
  151.0747  141.5508  156.2981 H   0  0  0  0  0  0  0  0  0  0  0  0
  150.2459  143.0004  155.7948 H   0  0  0  0  0  0  0  0  0  0  0  0
  150.9486  144.9899  156.8806 H   0  0  0  0  0  0  0  0  0  0  0  0
  151.9105  146.1667  158.8414 H   0  0  0  0  0  0  0  0  0  0  0  0
  152.4894  144.8953  160.9005 H   0  0  0  0  0  0  0  0  0  0  0  0
  152.1108  142.4377  160.9904 H   0  0  0  0  0  0  0  0  0  0  0  0
  151.1400  141.2550  159.0358 H   0  0  0  0  0  0  0  0  0  0  0  0
  1  2  2  0  0  0  0
  2 14  1  0  0  0  0
  2  3  1  0  0  0  0
  3  4  1  0  0  0  0
  3  5  2  0  0  0  0
  5  6  1  0  0  0  0
  5 26  1  0  0  0  0
  6  7  1  0  0  0  0
  6 12  1  0  0  0  0
  7 11  1  0  0  0  0
  7  8  1  0  0  0  0
  7 27  1  0  0  0  0
  8  9  1  0  0  0  0
  8 28  1  0  0  0  0
  8 29  1  0  0  0  0
  9 10  1  0  0  0  0
  9 30  1  0  0  0  0
  9 31  1  0  0  0  0
 10 11  1  0  0  0  0
 10 32  1  0  0  0  0
 10 33  1  0  0  0  0
 12 13  2  0  0  0  0
 12 14  1  0  0  0  0
 14 15  1  0  0  0  0
 15 16  1  0  0  0  0
 15 34  1  0  0  0  0
 15 35  1  0  0  0  0
 16 17  1  0  0  0  0
 16 18  1  0  0  0  0
 16 36  1  0  0  0  0
 17 37  1  0  0  0  0
 18 19  1  0  0  0  0
 18 38  1  0  0  0  0
 18 39  1  0  0  0  0
 19 20  1  0  0  0  0
 19 40  1  0  0  0  0
 19 41  1  0  0  0  0
 20 25  1  0  0  0  0
 20 21  2  0  0  0  0
 21 22  1  0  0  0  0
 21 42  1  0  0  0  0
 22 23  2  0  0  0  0
 22 43  1  0  0  0  0
 23 24  1  0  0  0  0
 23 44  1  0  0  0  0
 24 25  2  0  0  0  0
 24 45  1  0  0  0  0
 25 46  1  0  0  0  0
M  END
> <s_m_source_file>
AV-unprocessed.smi

> <i_m_source_file_index>
111

> <i_lp_mmshare_version>
43012

> <i_f3d_flags>
0

> <s_epik_input>
TzFbQ0gyXVtDSDJdW0NIMl1bQ0BIXTFuKFtjSF1jKEYpYzI9TyljKD1PKW4yW0NIMl1bQ0BIXShbT0hdKVtDSDJdW0NIMl1jM1tjSF1bY0hdW2NIXVtjSF1bY0hdMw==

> <s_epik_cmdline>
J2VwaWtfcHl0aG9uJywgJy1waCcsICc3LjAnLCAnLXRuJywgJzgnLCAnLW1hJywgJzIwMCcsICctbWV0YWxfYmluZGluZycsICctaW1hZScsICc8aW5maWxlLm1hZT4nLCAnLW9tYWUnLCAnPG91dGZpbGUubWFlPic=

> <r_lp_tautomer_probability>
1

> <r_epik_Ionization_Penalty>
1.88248e-07

> <r_epik_Ionization_Penalty_Charging>
4.03974e-08

> <r_epik_Ionization_Penalty_Neutral>
1.47851e-07

> <r_epik_State_Penalty>
-0

> <r_epik_Charging_Adjusted_Penalty>
4.03974e-08

> <i_epik_Tot_Q>
0

> <i_epik_Tot_abs_Q>
0

> <r_epik_Metal_State_Penalty>
-0

> <b_epik_Metal_Only>
0

> <s_epik_Chemistry_Notes>
This compound contains an acetal/aminal-like group ( X-CH(R)-Y where X, Y are N, S, or O) that may be acid/base labile, releasing an aldehyde.

> <s_lp_Force_Field>
OPLS_2005

> <r_lp_Energy>
34.7798

> <b_lp_Chiralities_Consistent>
1

> <s_lp_Variant>
AV-unprocessed.smi:111-2

> <Gold.Version>
5.8.1

> <Gold.Id.Protein>
6NUR|6NUR_protein|mol2

> <Gold.PLP.Fitness>
52.8369

> <Gold.PLP.PLP>
-45.8652

> <Gold.PLP.part.hbond>
-3.1987

> <Gold.PLP.part.metal>
0.0000

> <Gold.PLP.part.buried>
-1.7135

> <Gold.PLP.part.nonpolar>
-41.4289

> <Gold.PLP.part.repulsive>
0.0954

> <Gold.PLP.ligand.clash>
0.0000

> <Gold.PLP.ligand.torsion>
0.3488

> <Gold.PLP.Chemscore.Hbond>
2.5305

> <Gold.PLP.Chemscore.CHOScore>
0.0000

> <Gold.PLP.Chemscore.Metal>
0.0000

> <Gold.Chemscore.Hbonds>
donor molecule, donor type, donor heavy atom, donor atom, acceptor molecule, acceptor atom, score
      L1  H    17    37       P1  8028  0.55
      P1  H  6896  6909       L1    11  0.13
      P1  H  7989  7998       L1     1  0.66

> <Gold.PLP.Chemscore.Internal.Correction>
0.0777

> <Gold.Rescore>
     Score         DG    S(hbond)    S(metal)    S(lipo)     H(rot)  DE(clash)    DE(int)     intcor
     18.14     -20.39       2.17        0.00     124.10       2.67       0.71       1.53       ----

> <Gold.Chemscore.Fitness>
18.1434

> <Gold.Chemscore.DG>
-20.3906

> <Gold.Chemscore.ZeroCoef>
-5.4800

> <Gold.Chemscore.Hbond>
2.1669

> <Gold.Chemscore.Metal>
0.0000

> <Gold.Chemscore.Lipo>
124.0979

> <Gold.Chemscore.Internal_Hbond>
0.0000

> <Gold.Chemscore.DEClash>
0.7144

> <Gold.Chemscore.DEInternal>
1.5328

> <Gold.Chemscore.Rot>
2.6743

> <Gold.Chemscore.Internal.Correction>
   9.000000E+99

> <Gold.Chemscore.Hbonds>
donor molecule, donor type, donor heavy atom, donor atom, acceptor molecule, acceptor atom, score
      L1  H    17    37       P1  8028  0.52
      P1  H  6896  6909       L1    11  0.12
      P1  H  7989  7998       L1     1  0.62
      P1  H  7997  8009       L1     1  0.06

> <Gold.Chemscore.Hbond.Weighted>
-7.2374

> <Gold.Chemscore.Metal.Weighted>
-0.0000

> <Gold.Chemscore.Lipo.Weighted>
-14.5195

> <Gold.Chemscore.Internal_Hbond.Weighted>
0.0000

> <Gold.Chemscore.DEClash.Weighted>
0.7144

> <Gold.Chemscore.DEInternal.Weighted>
1.5328

> <Gold.Chemscore.Rot.Weighted>
6.8463

> <Gold.Chemscore.Internal.Correction.Weighted>
   9.000000E+99

> <Gold.Protein.RotatedTorsions>
[ 6907 6896 6895 6894 ] final   69.01 input  -60.11 | X-H torsion
[ 7974 7965 7964 7962 ] final  149.97 input  175.53 | X-H torsion
[ 8008 7997 7996 7995 ] final -137.67 input   59.86 | X-H torsion
[ 10167 10162 10161 10158 ] final   44.76 input  -65.29 | X-H torsion
[ 10718 10713 10712 10709 ] final  -56.75 input   66.30 | X-H torsion
[ 10763 10752 10751 10750 ] final -131.40 input  -60.55 | X-H torsion
[ 11005 11000 10999 10996 ] final   43.29 input  -57.11 | X-H torsion

> <Gold.Protein.ActiveResidues>
 VAL166  LYS551  ARG553  GLY616  TRP617  ASP618  TYR619  PRO620  LYS621  CYS622 
 ASP623  PHE694  ASN695  SER759  ASP760  ASP761  ALA762  ILE779  LEU786  VAL792 
 PHE793  MET794  SER795  GLU796  ALA797  LYS798  CYS799  TRP800  GLU811  SER814 

> <Gold.Protein.RotatedAtoms>
  152.4658  134.5078  159.9744 H   0  0  0  0  0  0  0  0  0  0  0  0  # atno 6907 bound_to 6896
  151.5116  133.3478  159.2894 H   0  0  0  0  0  0  0  0  0  0  0  0  # atno 6908 bound_to 6896
  150.8642  134.8030  159.7168 H   0  0  0  0  0  0  0  0  0  0  0  0  # atno 6909 bound_to 6896
  144.8399  139.6348  143.6021 H   0  0  0  0  0  0  0  0  0  0  0  0  # atno 7974 bound_to 7965
  155.4156  140.0515  157.3029 H   0  0  0  0  0  0  0  0  0  0  0  0  # atno 8008 bound_to 7997
  154.4926  140.2126  155.9475 H   0  0  0  0  0  0  0  0  0  0  0  0  # atno 8009 bound_to 7997
  156.1362  140.3162  155.8430 H   0  0  0  0  0  0  0  0  0  0  0  0  # atno 8010 bound_to 7997
  140.3310  144.2589  150.6168 H   0  0  0  0  0  0  0  0  0  0  0  0  # atno 10167 bound_to 10162
  156.1264  130.4162  150.0347 H   0  0  0  0  0  0  0  0  0  0  0  0  # atno 10718 bound_to 10713
  154.8751  135.3831  154.4240 H   0  0  0  0  0  0  0  0  0  0  0  0  # atno 10763 bound_to 10752
  153.4941  135.7030  153.5873 H   0  0  0  0  0  0  0  0  0  0  0  0  # atno 10764 bound_to 10752
  153.4234  135.3896  155.2092 H   0  0  0  0  0  0  0  0  0  0  0  0  # atno 10765 bound_to 10752
  140.1659  134.4283  155.8288 H   0  0  0  0  0  0  0  0  0  0  0  0  # atno 11005 bound_to 11000
  146.2693  139.6595  142.9307 LP  0  0  0  0  0  0  0  0  0  0  0  0  # atno 17320 bound_to 7965
  145.4716  141.0436  143.2695 LP  0  0  0  0  0  0  0  0  0  0  0  0  # atno 17321 bound_to 7965
  140.5397  143.2226  151.8105 LP  0  0  0  0  0  0  0  0  0  0  0  0  # atno 17342 bound_to 10162
  139.4856  144.4616  151.9534 LP  0  0  0  0  0  0  0  0  0  0  0  0  # atno 17343 bound_to 10162
  156.8271  130.9379  151.3639 LP  0  0  0  0  0  0  0  0  0  0  0  0  # atno 17370 bound_to 10713
  157.6446  130.8833  149.9513 LP  0  0  0  0  0  0  0  0  0  0  0  0  # atno 17371 bound_to 10713
  141.2213  133.6934  156.7676 LP  0  0  0  0  0  0  0  0  0  0  0  0  # atno 17394 bound_to 11000
  140.2435  134.8595  157.3597 LP  0  0  0  0  0  0  0  0  0  0  0  0  # atno 17395 bound_to 11000

$$$$
