AV-unprocessed.smi:1032|AV-procd|sdf|4482|dock6
  -GOLD-   22720 2463D 1   1.00000     0.00000
 Structure written by MMmdl.
 46 47  0  0  0  0  0  0  0  0  2 V2000
  151.5825  142.0163  157.9534 C   0  0  0  0  0  0  0  0  0  0  0  0
  150.9764  141.5431  156.6247 C   0  0  2  0  0  0  0  0  0  0  0  0
  149.4409  141.6301  156.6385 C   0  0  0  0  0  0  0  0  0  0  0  0
  148.8376  141.1182  155.3197 C   0  0  0  0  0  0  0  0  0  0  0  0
  149.2751  139.7253  155.0368 N   0  3  1  0  0  0  0  0  0  0  0  0
  148.6144  139.1300  153.8467 C   0  0  0  0  0  0  0  0  0  0  0  0
  147.1034  138.9057  154.0603 C   0  0  2  0  0  0  0  0  0  0  0  0
  146.9512  137.7549  154.8677 O   0  0  0  0  0  0  0  0  0  0  0  0
  146.3740  138.6536  152.7243 C   0  0  0  0  0  0  0  0  0  0  0  0
  146.6547  137.3263  152.1844 N   0  0  0  0  0  0  0  0  0  0  0  0
  145.7243  136.4281  151.8284 C   0  0  0  0  0  0  0  0  0  0  0  0
  144.5155  136.6273  151.9491 O   0  0  0  0  0  0  0  0  0  0  0  0
  146.2892  135.3038  151.3545 N   0  0  0  0  0  0  0  0  0  0  0  0
  145.6607  134.1246  150.8679 C   0  0  0  0  0  0  0  0  0  0  0  0
  146.4836  133.0149  150.5837 C   0  0  0  0  0  0  0  0  0  0  0  0
  145.8902  131.8380  150.0851 C   0  0  0  0  0  0  0  0  0  0  0  0
  144.5662  131.7151  149.8545 N   0  0  0  0  0  0  0  0  0  0  0  0
  143.7812  132.7819  150.1141 C   0  0  0  0  0  0  0  0  0  0  0  0
  144.2724  134.0046  150.6149 C   0  0  0  0  0  0  0  0  0  0  0  0
  150.7558  139.6249  154.9733 C   0  0  0  0  0  0  0  0  0  0  0  0
  151.4000  140.1039  156.2854 C   0  0  0  0  0  0  0  0  0  0  0  0
  151.2532  141.3929  158.7853 H   0  0  0  0  0  0  0  0  0  0  0  0
  151.2915  143.0441  158.1733 H   0  0  0  0  0  0  0  0  0  0  0  0
  152.6719  141.9824  157.9232 H   0  0  0  0  0  0  0  0  0  0  0  0
  151.3472  142.2016  155.8377 H   0  0  0  0  0  0  0  0  0  0  0  0
  149.0440  141.0460  157.4701 H   0  0  0  0  0  0  0  0  0  0  0  0
  149.1274  142.6608  156.8082 H   0  0  0  0  0  0  0  0  0  0  0  0
  147.7517  141.1719  155.3860 H   0  0  0  0  0  0  0  0  0  0  0  0
  149.1334  141.7688  154.4952 H   0  0  0  0  0  0  0  0  0  0  0  0
  148.7899  139.7742  152.9837 H   0  0  0  0  0  0  0  0  0  0  0  0
  149.0753  138.1707  153.6051 H   0  0  0  0  0  0  0  0  0  0  0  0
  146.6630  139.7610  154.5712 H   0  0  0  0  0  0  0  0  0  0  0  0
  146.5875  138.0187  155.6997 H   0  0  0  0  0  0  0  0  0  0  0  0
  145.2952  138.7414  152.8655 H   0  0  0  0  0  0  0  0  0  0  0  0
  146.6412  139.4094  151.9846 H   0  0  0  0  0  0  0  0  0  0  0  0
  147.6263  137.0828  152.0561 H   0  0  0  0  0  0  0  0  0  0  0  0
  147.2975  135.2695  151.3856 H   0  0  0  0  0  0  0  0  0  0  0  0
  147.5506  133.0574  150.7469 H   0  0  0  0  0  0  0  0  0  0  0  0
  146.4972  130.9726  149.8631 H   0  0  0  0  0  0  0  0  0  0  0  0
  142.7275  132.6601  149.9103 H   0  0  0  0  0  0  0  0  0  0  0  0
  143.5817  134.8168  150.7784 H   0  0  0  0  0  0  0  0  0  0  0  0
  151.0487  138.5901  154.7911 H   0  0  0  0  0  0  0  0  0  0  0  0
  151.1274  140.2127  154.1323 H   0  0  0  0  0  0  0  0  0  0  0  0
  152.4859  140.0434  156.2042 H   0  0  0  0  0  0  0  0  0  0  0  0
  151.1135  139.4325  157.0963 H   0  0  0  0  0  0  0  0  0  0  0  0
  148.9906  139.1593  155.8238 H   0  0  0  0  0  0  0  0  0  0  0  0
  1  2  1  0  0  0  0
  1 22  1  0  0  0  0
  1 23  1  0  0  0  0
  1 24  1  0  0  0  0
  2 21  1  0  0  0  0
  2  3  1  0  0  0  0
  2 25  1  0  0  0  0
  3  4  1  0  0  0  0
  3 26  1  0  0  0  0
  3 27  1  0  0  0  0
  4  5  1  0  0  0  0
  4 28  1  0  0  0  0
  4 29  1  0  0  0  0
  5  6  1  0  0  0  0
  5 20  1  0  0  0  0
  5 46  1  0  0  0  0
  6  7  1  0  0  0  0
  6 30  1  0  0  0  0
  6 31  1  0  0  0  0
  7  8  1  0  0  0  0
  7  9  1  0  0  0  0
  7 32  1  0  0  0  0
  8 33  1  0  0  0  0
  9 10  1  0  0  0  0
  9 34  1  0  0  0  0
  9 35  1  0  0  0  0
 10 11  1  0  0  0  0
 10 36  1  0  0  0  0
 11 12  2  0  0  0  0
 11 13  1  0  0  0  0
 13 14  1  0  0  0  0
 13 37  1  0  0  0  0
 14 19  1  0  0  0  0
 14 15  2  0  0  0  0
 15 16  1  0  0  0  0
 15 38  1  0  0  0  0
 16 17  2  0  0  0  0
 16 39  1  0  0  0  0
 17 18  1  0  0  0  0
 18 19  2  0  0  0  0
 18 40  1  0  0  0  0
 19 41  1  0  0  0  0
 20 21  1  0  0  0  0
 20 42  1  0  0  0  0
 20 43  1  0  0  0  0
 21 44  1  0  0  0  0
 21 45  1  0  0  0  0
M  CHG  1   5   1
M  END
> <s_m_source_file>
AV-unprocessed.smi

> <i_m_source_file_index>
1032

> <i_lp_mmshare_version>
43012

> <i_f3d_flags>
0

> <s_epik_input>
W0NIM11bQ0hdMVtDSDJdW0NIMl1OKFtDSDJdW0NIMl0xKVtDSDJdW0NASF0oW09IXSlbQ0gyXVtOSF1DKD1PKVtOSF1jMltjSF1bY0hdbltjSF1bY0hdMg==

> <s_epik_cmdline>
J2VwaWtfcHl0aG9uJywgJy1waCcsICc3LjAnLCAnLXRuJywgJzgnLCAnLW1hJywgJzIwMCcsICctbWV0YWxfYmluZGluZycsICctaW1hZScsICc8aW5maWxlLm1hZT4nLCAnLW9tYWUnLCAnPG91dGZpbGUubWFlPic=

> <r_epik_Ionization_Penalty>
0.11743

> <r_epik_Ionization_Penalty_Charging>
0.00147689

> <r_epik_Ionization_Penalty_Neutral>
0.115954

> <r_epik_State_Penalty>
0.105552

> <r_epik_Charging_Adjusted_Penalty>
0.107029

> <i_epik_Tot_Q>
1

> <i_epik_Tot_abs_Q>
1

> <r_epik_Metal_State_Penalty>
0.0881315

> <b_epik_Metal_Only>
0

> <s_lp_Force_Field>
OPLS_2005

> <r_lp_Energy>
24.9442

> <b_lp_Chiralities_Consistent>
1

> <s_lp_Variant>
AV-unprocessed.smi:1032-1

> <Gold.Version>
5.8.1

> <Gold.Id.Protein>
6NUR|6NUR_protein|mol2

> <Gold.PLP.Fitness>
46.7276

> <Gold.PLP.PLP>
-35.6188

> <Gold.PLP.part.hbond>
-2.9594

> <Gold.PLP.part.metal>
0.0000

> <Gold.PLP.part.buried>
-1.9655

> <Gold.PLP.part.nonpolar>
-31.7916

> <Gold.PLP.part.repulsive>
1.2150

> <Gold.PLP.ligand.clash>
0.0000

> <Gold.PLP.ligand.torsion>
0.3261

> <Gold.PLP.Chemscore.Hbond>
2.0567

> <Gold.PLP.Chemscore.CHOScore>
1.8535

> <Gold.PLP.Chemscore.Metal>
0.0000

> <Gold.Chemscore.Hbonds>
donor molecule, donor type, donor heavy atom, donor atom, acceptor molecule, acceptor atom, score
      L1  H    10    36       P1  7948  1.00
      L1  H    13    37       P1  7948  0.94
      P1  H 10785 10796       L1    17  0.10
      L1  C    16    39       P1 10747  0.89
      L1  C    18    40       P1 10186  0.98

> <Gold.PLP.Chemscore.Internal.Correction>
0.0302

> <Gold.Rescore>
     Score         DG    S(hbond)    S(metal)    S(lipo)     H(rot)  DE(clash)    DE(int)     intcor
     15.60     -17.45       1.92        0.00      97.64       2.29       0.22       1.62       ----

> <Gold.Chemscore.Fitness>
15.6030

> <Gold.Chemscore.DG>
-17.4473

> <Gold.Chemscore.ZeroCoef>
-5.4800

> <Gold.Chemscore.Hbond>
1.9154

> <Gold.Chemscore.Metal>
0.0000

> <Gold.Chemscore.Lipo>
97.6373

> <Gold.Chemscore.Internal_Hbond>
0.0000

> <Gold.Chemscore.DEClash>
0.2198

> <Gold.Chemscore.DEInternal>
1.6246

> <Gold.Chemscore.Rot>
2.2865

> <Gold.Chemscore.Internal.Correction>
   9.000000E+99

> <Gold.Chemscore.Hbonds>
donor molecule, donor type, donor heavy atom, donor atom, acceptor molecule, acceptor atom, score
      L1  H    10    36       P1  7948  0.97
      L1  H    13    37       P1  7948  0.74
      P1  H 10785 10796       L1    17  0.06

> <Gold.Chemscore.Hbond.Weighted>
-6.3973

> <Gold.Chemscore.Metal.Weighted>
-0.0000

> <Gold.Chemscore.Lipo.Weighted>
-11.4236

> <Gold.Chemscore.Internal_Hbond.Weighted>
0.0000

> <Gold.Chemscore.DEClash.Weighted>
0.2198

> <Gold.Chemscore.DEInternal.Weighted>
1.6246

> <Gold.Chemscore.Rot.Weighted>
5.8536

> <Gold.Chemscore.Internal.Correction.Weighted>
   9.000000E+99

> <Gold.Protein.RotatedTorsions>
[ 6907 6896 6895 6894 ] final  138.99 input  -60.11 | X-H torsion
[ 7974 7965 7964 7962 ] final  -92.86 input  175.53 | X-H torsion
[ 8008 7997 7996 7995 ] final   -2.40 input   59.86 | X-H torsion
[ 10167 10162 10161 10158 ] final  -25.01 input  -65.29 | X-H torsion
[ 10718 10713 10712 10709 ] final -140.87 input   66.30 | X-H torsion
[ 10763 10752 10751 10750 ] final   90.67 input  -60.55 | X-H torsion
[ 11005 11000 10999 10996 ] final -174.55 input  -57.11 | X-H torsion

> <Gold.Protein.ActiveResidues>
 VAL166  LYS551  ARG553  GLY616  TRP617  ASP618  TYR619  PRO620  LYS621  CYS622 
 ASP623  PHE694  ASN695  SER759  ASP760  ASP761  ALA762  ILE779  LEU786  VAL792 
 PHE793  MET794  SER795  GLU796  ALA797  LYS798  CYS799  TRP800  GLU811  SER814 

> <Gold.Protein.RotatedAtoms>
  152.2601  133.5290  159.5376 H   0  0  0  0  0  0  0  0  0  0  0  0  # atno 6907 bound_to 6896
  150.7122  134.0841  159.3917 H   0  0  0  0  0  0  0  0  0  0  0  0  # atno 6908 bound_to 6896
  151.8759  135.0472  160.0534 H   0  0  0  0  0  0  0  0  0  0  0  0  # atno 6909 bound_to 6896
  145.3942  140.9531  143.2323 H   0  0  0  0  0  0  0  0  0  0  0  0  # atno 7974 bound_to 7965
  154.6362  140.2535  155.7376 H   0  0  0  0  0  0  0  0  0  0  0  0  # atno 8008 bound_to 7997
  156.2505  140.2897  156.0655 H   0  0  0  0  0  0  0  0  0  0  0  0  # atno 8009 bound_to 7997
  155.1668  140.0385  157.2844 H   0  0  0  0  0  0  0  0  0  0  0  0  # atno 8010 bound_to 7997
  140.7287  143.4302  151.0813 H   0  0  0  0  0  0  0  0  0  0  0  0  # atno 10167 bound_to 10162
  156.3273  130.7567  151.1678 H   0  0  0  0  0  0  0  0  0  0  0  0  # atno 10718 bound_to 10713
  153.2001  135.4425  155.0255 H   0  0  0  0  0  0  0  0  0  0  0  0  # atno 10763 bound_to 10752
  154.8142  135.3307  154.7226 H   0  0  0  0  0  0  0  0  0  0  0  0  # atno 10764 bound_to 10752
  153.7672  135.6987  153.4969 H   0  0  0  0  0  0  0  0  0  0  0  0  # atno 10765 bound_to 10752
  140.4732  134.6145  157.4890 H   0  0  0  0  0  0  0  0  0  0  0  0  # atno 11005 bound_to 11000
  144.8419  139.5459  143.6896 LP  0  0  0  0  0  0  0  0  0  0  0  0  # atno 17320 bound_to 7965
  146.2783  139.6810  142.9247 LP  0  0  0  0  0  0  0  0  0  0  0  0  # atno 17321 bound_to 7965
  139.7958  143.8153  152.3157 LP  0  0  0  0  0  0  0  0  0  0  0  0  # atno 17342 bound_to 10162
  139.8153  144.7319  150.9644 LP  0  0  0  0  0  0  0  0  0  0  0  0  # atno 17343 bound_to 10162
  157.7424  131.0491  150.5029 LP  0  0  0  0  0  0  0  0  0  0  0  0  # atno 17370 bound_to 10713
  156.5190  130.4157  149.6261 LP  0  0  0  0  0  0  0  0  0  0  0  0  # atno 17371 bound_to 10713
  139.9872  134.7043  155.9753 LP  0  0  0  0  0  0  0  0  0  0  0  0  # atno 17394 bound_to 11000
  141.1567  133.6542  156.4183 LP  0  0  0  0  0  0  0  0  0  0  0  0  # atno 17395 bound_to 11000

$$$$
