AV-unprocessed.smi:1603|AV-procd|sdf|6446|dock1
  -GOLD-   22720 7 93D 1   1.00000     0.00000
 Structure written by MMmdl.
 44 46  0  0  0  0  0  0  0  0  1 V2000
  153.5248  139.5147  158.5636 O   0  0  0  0  0  0  0  0  0  0  0  0
  153.1757  140.5631  159.1075 C   0  0  0  0  0  0  0  0  0  0  0  0
  153.6551  140.9906  160.4307 C   0  0  0  0  0  0  0  0  0  0  0  0
  154.6488  140.0887  161.1579 C   0  0  0  0  0  0  0  0  0  0  0  0
  154.8775  140.5088  162.4032 F   0  0  0  0  0  0  0  0  0  0  0  0
  154.1840  138.8407  161.2269 F   0  0  0  0  0  0  0  0  0  0  0  0
  155.8171  140.0637  160.5153 F   0  0  0  0  0  0  0  0  0  0  0  0
  153.2172  142.1554  160.9680 C   0  0  0  0  0  0  0  0  0  0  0  0
  152.2764  142.9869  160.2447 C   0  0  0  0  0  0  0  0  0  0  0  0
  151.7438  144.2826  160.7860 C   0  0  0  0  0  0  0  0  0  0  0  0
  150.5822  145.0045  160.1417 C   0  0  0  0  0  0  0  0  0  0  0  0
  151.9715  145.5951  160.0731 C   0  0  0  0  0  0  0  0  0  0  0  0
  151.8637  142.6139  159.0803 N   0  0  0  0  0  0  0  0  0  0  0  0
  152.2967  141.4285  158.5204 N   0  0  0  0  0  0  0  0  0  0  0  0
  151.7110  141.1459  157.2037 C   0  0  0  0  0  0  0  0  0  0  0  0
  150.2954  141.7494  157.0550 C   0  0  1  0  0  0  0  0  0  0  0  0
  150.4275  143.1578  157.0998 O   0  0  0  0  0  0  0  0  0  0  0  0
  149.6477  141.3762  155.7025 C   0  0  0  0  0  0  0  0  0  0  0  0
  148.3768  142.0421  155.4134 N   0  0  0  0  0  0  0  0  0  0  0  0
  147.8330  141.6803  154.1061 C   0  0  0  0  0  0  0  0  0  0  0  0
  146.4834  142.3676  153.8335 C   0  0  0  0  0  0  0  0  0  0  0  0
  145.5641  142.0516  154.8742 O   0  0  0  0  0  0  0  0  0  0  0  0
  146.0391  142.4360  156.1600 C   0  0  0  0  0  0  0  0  0  0  0  0
  147.3834  141.7421  156.4394 C   0  0  0  0  0  0  0  0  0  0  0  0
  153.5584  142.4870  161.9373 H   0  0  0  0  0  0  0  0  0  0  0  0
  151.7894  144.2940  161.8733 H   0  0  0  0  0  0  0  0  0  0  0  0
  150.1692  144.5996  159.2196 H   0  0  0  0  0  0  0  0  0  0  0  0
  149.8632  145.4861  160.8012 H   0  0  0  0  0  0  0  0  0  0  0  0
  152.1770  146.4700  160.6868 H   0  0  0  0  0  0  0  0  0  0  0  0
  152.4777  145.5721  159.1097 H   0  0  0  0  0  0  0  0  0  0  0  0
  152.3633  141.4988  156.4020 H   0  0  0  0  0  0  0  0  0  0  0  0
  151.6716  140.0631  157.0722 H   0  0  0  0  0  0  0  0  0  0  0  0
  149.6557  141.4134  157.8723 H   0  0  0  0  0  0  0  0  0  0  0  0
  149.9254  143.5297  156.3908 H   0  0  0  0  0  0  0  0  0  0  0  0
  150.3537  141.5246  154.8836 H   0  0  0  0  0  0  0  0  0  0  0  0
  149.4511  140.3035  155.7179 H   0  0  0  0  0  0  0  0  0  0  0  0
  148.5303  141.9605  153.3169 H   0  0  0  0  0  0  0  0  0  0  0  0
  147.7070  140.5982  154.0443 H   0  0  0  0  0  0  0  0  0  0  0  0
  146.6083  143.4495  153.7656 H   0  0  0  0  0  0  0  0  0  0  0  0
  146.0727  142.0321  152.8811 H   0  0  0  0  0  0  0  0  0  0  0  0
  146.1463  143.5208  156.2074 H   0  0  0  0  0  0  0  0  0  0  0  0
  145.3021  142.1529  156.9118 H   0  0  0  0  0  0  0  0  0  0  0  0
  147.2264  140.6638  156.4980 H   0  0  0  0  0  0  0  0  0  0  0  0
  147.7524  142.0569  157.4164 H   0  0  0  0  0  0  0  0  0  0  0  0
  1  2  2  0  0  0  0
  2 14  1  0  0  0  0
  2  3  1  0  0  0  0
  3  4  1  0  0  0  0
  3  8  2  0  0  0  0
  4  5  1  0  0  0  0
  4  6  1  0  0  0  0
  4  7  1  0  0  0  0
  8  9  1  0  0  0  0
  8 25  1  0  0  0  0
  9 10  1  0  0  0  0
  9 13  2  0  0  0  0
 10 12  1  0  0  0  0
 10 11  1  0  0  0  0
 10 26  1  0  0  0  0
 11 12  1  0  0  0  0
 11 27  1  0  0  0  0
 11 28  1  0  0  0  0
 12 29  1  0  0  0  0
 12 30  1  0  0  0  0
 13 14  1  0  0  0  0
 14 15  1  0  0  0  0
 15 16  1  0  0  0  0
 15 31  1  0  0  0  0
 15 32  1  0  0  0  0
 16 17  1  0  0  0  0
 16 18  1  0  0  0  0
 16 33  1  0  0  0  0
 17 34  1  0  0  0  0
 18 19  1  0  0  0  0
 18 35  1  0  0  0  0
 18 36  1  0  0  0  0
 19 24  1  0  0  0  0
 19 20  1  0  0  0  0
 20 21  1  0  0  0  0
 20 37  1  0  0  0  0
 20 38  1  0  0  0  0
 21 22  1  0  0  0  0
 21 39  1  0  0  0  0
 21 40  1  0  0  0  0
 22 23  1  0  0  0  0
 23 24  1  0  0  0  0
 23 41  1  0  0  0  0
 23 42  1  0  0  0  0
 24 43  1  0  0  0  0
 24 44  1  0  0  0  0
M  END
> <s_m_source_file>
AV-unprocessed.smi

> <i_m_source_file_index>
1603

> <i_lp_mmshare_version>
43012

> <i_f3d_flags>
0

> <s_epik_input>
Tz1jMWMoQyhGKShGKUYpW2NIXWMoW0NIXTJbQ0gyXVtDSDJdMilubjFbQ0gyXVtDQEhdKFtPSF0pW0NIMl1OM1tDSDJdW0NIMl1PW0NIMl1bQ0gyXTM=

> <s_epik_cmdline>
J2VwaWtfcHl0aG9uJywgJy1waCcsICc3LjAnLCAnLXRuJywgJzgnLCAnLW1hJywgJzIwMCcsICctbWV0YWxfYmluZGluZycsICctaW1hZScsICc8aW5maWxlLm1hZT4nLCAnLW9tYWUnLCAnPG91dGZpbGUubWFlPic=

> <r_lp_tautomer_probability>
1

> <r_epik_Ionization_Penalty>
0.450313

> <r_epik_Ionization_Penalty_Charging>
7.22079e-10

> <r_epik_Ionization_Penalty_Neutral>
0.450313

> <r_epik_State_Penalty>
0.45306

> <r_epik_Charging_Adjusted_Penalty>
0.45306

> <i_epik_Tot_Q>
0

> <i_epik_Tot_abs_Q>
0

> <r_epik_Metal_State_Penalty>
0.45306

> <b_epik_Metal_Only>
0

> <s_lp_Force_Field>
OPLS_2005

> <r_lp_Energy>
51.835

> <b_lp_Chiralities_Consistent>
1

> <s_lp_Variant>
AV-unprocessed.smi:1603-4

> <Gold.Version>
5.8.1

> <Gold.Id.Protein>
6NUR|6NUR_protein|mol2

> <Gold.PLP.Fitness>
55.2109

> <Gold.PLP.PLP>
-50.1857

> <Gold.PLP.part.hbond>
-2.0000

> <Gold.PLP.part.metal>
0.0000

> <Gold.PLP.part.buried>
-8.0987

> <Gold.PLP.part.nonpolar>
-41.8080

> <Gold.PLP.part.repulsive>
2.3468

> <Gold.PLP.ligand.clash>
0.2303

> <Gold.PLP.ligand.torsion>
0.6857

> <Gold.PLP.Chemscore.Hbond>
2.0000

> <Gold.PLP.Chemscore.CHOScore>
0.0000

> <Gold.PLP.Chemscore.Metal>
0.0000

> <Gold.Chemscore.Hbonds>
donor molecule, donor type, donor heavy atom, donor atom, acceptor molecule, acceptor atom, score
      L1  H    17    34       P1  8028  1.00
      P1  H  7997  8008       L1     1  1.00

> <Gold.PLP.Chemscore.Internal.Correction>
0.6268

> <Gold.Rescore>
     Score         DG    S(hbond)    S(metal)    S(lipo)     H(rot)  DE(clash)    DE(int)     intcor
     14.75     -18.75       1.92        0.00     111.81       2.43       1.81       2.19       ----

> <Gold.Chemscore.Fitness>
14.7531

> <Gold.Chemscore.DG>
-18.7518

> <Gold.Chemscore.ZeroCoef>
-5.4800

> <Gold.Chemscore.Hbond>
1.9172

> <Gold.Chemscore.Metal>
0.0000

> <Gold.Chemscore.Lipo>
111.8117

> <Gold.Chemscore.Internal_Hbond>
0.0000

> <Gold.Chemscore.DEClash>
1.8131

> <Gold.Chemscore.DEInternal>
2.1856

> <Gold.Chemscore.Rot>
2.4272

> <Gold.Chemscore.Internal.Correction>
   9.000000E+99

> <Gold.Chemscore.Hbonds>
donor molecule, donor type, donor heavy atom, donor atom, acceptor molecule, acceptor atom, score
      L1  H    17    34       P1  8028  0.98
      P1  H  7997  8008       L1     1  0.55

> <Gold.Chemscore.Hbond.Weighted>
-6.4033

> <Gold.Chemscore.Metal.Weighted>
-0.0000

> <Gold.Chemscore.Lipo.Weighted>
-13.0820

> <Gold.Chemscore.Internal_Hbond.Weighted>
0.0000

> <Gold.Chemscore.DEClash.Weighted>
1.8131

> <Gold.Chemscore.DEInternal.Weighted>
2.1856

> <Gold.Chemscore.Rot.Weighted>
6.2135

> <Gold.Chemscore.Internal.Correction.Weighted>
   9.000000E+99

> <Gold.Protein.RotatedTorsions>
[ 6907 6896 6895 6894 ] final -179.96 input  -60.11 | X-H torsion
[ 7974 7965 7964 7962 ] final  -69.55 input  175.53 | X-H torsion
[ 8008 7997 7996 7995 ] final -104.70 input   59.86 | X-H torsion
[ 10167 10162 10161 10158 ] final   50.20 input  -65.29 | X-H torsion
[ 10718 10713 10712 10709 ] final  -29.05 input   66.30 | X-H torsion
[ 10763 10752 10751 10750 ] final  -62.29 input  -60.55 | X-H torsion
[ 11005 11000 10999 10996 ] final   -5.50 input  -57.11 | X-H torsion

> <Gold.Protein.ActiveResidues>
 VAL166  LYS551  ARG553  GLY616  TRP617  ASP618  TYR619  PRO620  LYS621  CYS622 
 ASP623  PHE694  ASN695  SER759  ASP760  ASP761  ALA762  ILE779  LEU786  VAL792 
 PHE793  MET794  SER795  GLU796  ALA797  LYS798  CYS799  TRP800  GLU811  SER814 

> <Gold.Protein.RotatedAtoms>
  151.6620  133.3316  159.3175 H   0  0  0  0  0  0  0  0  0  0  0  0  # atno 6907 bound_to 6896
  150.7909  134.6936  159.6520 H   0  0  0  0  0  0  0  0  0  0  0  0  # atno 6908 bound_to 6896
  152.3988  134.6324  160.0130 H   0  0  0  0  0  0  0  0  0  0  0  0  # atno 6909 bound_to 6896
  145.7023  140.9111  143.0724 H   0  0  0  0  0  0  0  0  0  0  0  0  # atno 7974 bound_to 7965
  154.8891  140.0416  157.1828 H   0  0  0  0  0  0  0  0  0  0  0  0  # atno 8008 bound_to 7997
  154.8560  140.2936  155.5548 H   0  0  0  0  0  0  0  0  0  0  0  0  # atno 8009 bound_to 7997
  156.2997  140.2456  156.3526 H   0  0  0  0  0  0  0  0  0  0  0  0  # atno 8010 bound_to 7997
  140.2750  144.3222  150.6280 H   0  0  0  0  0  0  0  0  0  0  0  0  # atno 10167 bound_to 10162
  156.4174  130.4419  149.7208 H   0  0  0  0  0  0  0  0  0  0  0  0  # atno 10718 bound_to 10713
  154.2976  135.6241  153.5411 H   0  0  0  0  0  0  0  0  0  0  0  0  # atno 10763 bound_to 10752
  152.9844  135.5670  154.5320 H   0  0  0  0  0  0  0  0  0  0  0  0  # atno 10764 bound_to 10752
  154.4944  135.2869  155.1447 H   0  0  0  0  0  0  0  0  0  0  0  0  # atno 10765 bound_to 10752
  140.6918  133.9064  155.8623 H   0  0  0  0  0  0  0  0  0  0  0  0  # atno 11005 bound_to 11000
  144.6965  139.8964  143.7456 LP  0  0  0  0  0  0  0  0  0  0  0  0  # atno 17320 bound_to 7965
  146.0786  139.3774  143.0478 LP  0  0  0  0  0  0  0  0  0  0  0  0  # atno 17321 bound_to 7965
  140.5859  143.2170  151.7343 LP  0  0  0  0  0  0  0  0  0  0  0  0  # atno 17342 bound_to 10162
  139.4978  144.4012  152.0180 LP  0  0  0  0  0  0  0  0  0  0  0  0  # atno 17343 bound_to 10162
  156.4163  130.7747  151.2762 LP  0  0  0  0  0  0  0  0  0  0  0  0  # atno 17370 bound_to 10713
  157.7508  131.0196  150.3675 LP  0  0  0  0  0  0  0  0  0  0  0  0  # atno 17371 bound_to 10713
  141.0235  134.0856  157.4094 LP  0  0  0  0  0  0  0  0  0  0  0  0  # atno 17394 bound_to 11000
  139.8921  135.0123  156.6828 LP  0  0  0  0  0  0  0  0  0  0  0  0  # atno 17395 bound_to 11000

$$$$
