AV-unprocessed.smi:131|AV-procd|sdf|1161|dock3
  -GOLD-   2262018303D 1   1.00000     0.00000
 Structure written by MMmdl.
 55 58  0  0  0  0  0  0  0  0  1 V2000
  152.9254  137.5486  164.3765 O   0  0  0  0  0  0  0  0  0  0  0  0
  153.6793  138.3464  163.8183 C   0  0  0  0  0  0  0  0  0  0  0  0
  154.3386  137.9772  162.4797 C   0  0  0  0  0  0  0  0  0  0  0  0
  153.7130  138.6488  161.3196 N   0  0  0  0  0  0  0  0  0  0  0  0
  153.0343  137.8522  160.3644 C   0  0  0  0  0  0  0  0  0  0  0  0
  152.9716  136.6276  160.4834 O   0  0  0  0  0  0  0  0  0  0  0  0
  152.4247  138.5791  159.2566 C   0  0  0  0  0  0  0  0  0  0  0  0
  151.7756  137.9024  158.2940 F   0  0  0  0  0  0  0  0  0  0  0  0
  152.5021  139.9236  159.1807 C   0  0  0  0  0  0  0  0  0  0  0  0
  153.1502  140.6912  160.1324 N   0  0  0  0  0  0  0  0  0  0  0  0
  153.2169  142.2014  160.0404 C   0  0  2  0  0  0  0  0  0  0  0  0
  152.4257  142.8509  161.1928 C   0  0  0  0  0  0  0  0  0  0  0  0
  151.5097  143.8180  160.4692 C   0  0  0  0  0  0  0  0  0  0  0  0
  151.3236  143.1299  159.1256 C   0  0  0  0  0  0  0  0  0  0  0  0
  152.6258  142.6324  158.8473 O   0  0  0  0  0  0  0  0  0  0  0  0
  153.7834  140.0591  161.2246 C   0  0  0  0  0  0  0  0  0  0  0  0
  154.3739  140.7250  162.0781 O   0  0  0  0  0  0  0  0  0  0  0  0
  153.9594  139.5819  164.2728 N   0  0  0  0  0  0  0  0  0  0  0  0
  153.5336  140.2206  165.4703 C   0  0  0  0  0  0  0  0  0  0  0  0
  153.3462  141.6187  165.4147 C   0  0  0  0  0  0  0  0  0  0  0  0
  152.9438  142.3358  166.5580 C   0  0  0  0  0  0  0  0  0  0  0  0
  152.7300  141.6492  167.7683 C   0  0  0  0  0  0  0  0  0  0  0  0
  152.2442  142.5496  169.2349 S   0  0  0  0  0  0  0  0  0  0  0  0
  151.5721  143.7996  168.8459 O   0  0  0  0  0  0  0  0  0  0  0  0
  151.5786  141.5992  170.1394 O   0  0  0  0  0  0  0  0  0  0  0  0
  153.7677  142.9643  169.9453 N   0  0  0  0  0  0  0  0  0  0  0  0
  154.2716  142.1720  171.0740 C   0  0  0  0  0  0  0  0  0  0  0  0
  154.7478  143.1909  172.1104 C   0  0  0  0  0  0  0  0  0  0  0  0
  155.1387  144.3963  171.2669 C   0  0  0  0  0  0  0  0  0  0  0  0
  154.1083  144.3793  170.1387 C   0  0  0  0  0  0  0  0  0  0  0  0
  152.9256  140.2572  167.8444 C   0  0  0  0  0  0  0  0  0  0  0  0
  153.3313  139.5442  166.6998 C   0  0  0  0  0  0  0  0  0  0  0  0
  155.4019  138.2111  162.5499 H   0  0  0  0  0  0  0  0  0  0  0  0
  154.3155  136.8935  162.3517 H   0  0  0  0  0  0  0  0  0  0  0  0
  152.0320  140.3989  158.3337 H   0  0  0  0  0  0  0  0  0  0  0  0
  154.2798  142.4492  160.0309 H   0  0  0  0  0  0  0  0  0  0  0  0
  151.8405  142.0973  161.7225 H   0  0  0  0  0  0  0  0  0  0  0  0
  153.0957  143.3407  161.8998 H   0  0  0  0  0  0  0  0  0  0  0  0
  150.5701  143.9922  160.9944 H   0  0  0  0  0  0  0  0  0  0  0  0
  152.0098  144.7774  160.3308 H   0  0  0  0  0  0  0  0  0  0  0  0
  150.6131  142.3058  159.2058 H   0  0  0  0  0  0  0  0  0  0  0  0
  150.9780  143.8096  158.3467 H   0  0  0  0  0  0  0  0  0  0  0  0
  154.5263  140.1519  163.6617 H   0  0  0  0  0  0  0  0  0  0  0  0
  153.5104  142.1505  164.4887 H   0  0  0  0  0  0  0  0  0  0  0  0
  152.8040  143.4049  166.5001 H   0  0  0  0  0  0  0  0  0  0  0  0
  153.4980  141.5190  171.4794 H   0  0  0  0  0  0  0  0  0  0  0  0
  155.0966  141.5497  170.7264 H   0  0  0  0  0  0  0  0  0  0  0  0
  153.9238  143.4565  172.7743 H   0  0  0  0  0  0  0  0  0  0  0  0
  155.5685  142.8180  172.7236 H   0  0  0  0  0  0  0  0  0  0  0  0
  155.1331  145.3292  171.8313 H   0  0  0  0  0  0  0  0  0  0  0  0
  156.1402  144.2538  170.8586 H   0  0  0  0  0  0  0  0  0  0  0  0
  154.4889  144.8184  169.2161 H   0  0  0  0  0  0  0  0  0  0  0  0
  153.2167  144.9308  170.4384 H   0  0  0  0  0  0  0  0  0  0  0  0
  152.7726  139.7365  168.7784 H   0  0  0  0  0  0  0  0  0  0  0  0
  153.4934  138.4827  166.7989 H   0  0  0  0  0  0  0  0  0  0  0  0
  1  2  2  0  0  0  0
  2  3  1  0  0  0  0
  2 18  1  0  0  0  0
  3  4  1  0  0  0  0
  3 33  1  0  0  0  0
  3 34  1  0  0  0  0
  4 16  1  0  0  0  0
  4  5  1  0  0  0  0
  5  6  2  0  0  0  0
  5  7  1  0  0  0  0
  7  8  1  0  0  0  0
  7  9  2  0  0  0  0
  9 10  1  0  0  0  0
  9 35  1  0  0  0  0
 10 11  1  0  0  0  0
 10 16  1  0  0  0  0
 11 15  1  0  0  0  0
 11 12  1  0  0  0  0
 11 36  1  0  0  0  0
 12 13  1  0  0  0  0
 12 37  1  0  0  0  0
 12 38  1  0  0  0  0
 13 14  1  0  0  0  0
 13 39  1  0  0  0  0
 13 40  1  0  0  0  0
 14 15  1  0  0  0  0
 14 41  1  0  0  0  0
 14 42  1  0  0  0  0
 16 17  2  0  0  0  0
 18 19  1  0  0  0  0
 18 43  1  0  0  0  0
 19 32  1  0  0  0  0
 19 20  2  0  0  0  0
 20 21  1  0  0  0  0
 20 44  1  0  0  0  0
 21 22  2  0  0  0  0
 21 45  1  0  0  0  0
 22 23  1  0  0  0  0
 22 31  1  0  0  0  0
 23 24  2  0  0  0  0
 23 25  2  0  0  0  0
 23 26  1  0  0  0  0
 26 30  1  0  0  0  0
 26 27  1  0  0  0  0
 27 28  1  0  0  0  0
 27 46  1  0  0  0  0
 27 47  1  0  0  0  0
 28 29  1  0  0  0  0
 28 48  1  0  0  0  0
 28 49  1  0  0  0  0
 29 30  1  0  0  0  0
 29 50  1  0  0  0  0
 29 51  1  0  0  0  0
 30 52  1  0  0  0  0
 30 53  1  0  0  0  0
 31 32  2  0  0  0  0
 31 54  1  0  0  0  0
 32 55  1  0  0  0  0
M  END
> <s_m_source_file>
AV-unprocessed.smi

> <i_m_source_file_index>
131

> <i_lp_mmshare_version>
43012

> <i_f3d_flags>
0

> <s_epik_input>
W0NIMl0xW0NIMl1bQ0gyXVtDSDJdTjFTKD1PKSg9TyljKFtjSF1bY0hdMilbY0hdW2NIXWMyW05IXUMoPU8pW0NIMl1uM2MoPU8pYyhGKVtjSF1uKGMzPU8pW0NAQEhdNFtDSDJdW0NIMl1bQ0gyXU80

> <s_epik_cmdline>
J2VwaWtfcHl0aG9uJywgJy1waCcsICc3LjAnLCAnLXRuJywgJzgnLCAnLW1hJywgJzIwMCcsICctbWV0YWxfYmluZGluZycsICctaW1hZScsICc8aW5maWxlLm1hZT4nLCAnLW9tYWUnLCAnPG91dGZpbGUubWFlPic=

> <r_lp_tautomer_probability>
1

> <r_epik_Ionization_Penalty>
1.92533e-06

> <r_epik_Ionization_Penalty_Charging>
3.88729e-08

> <r_epik_Ionization_Penalty_Neutral>
1.88646e-06

> <r_epik_State_Penalty>
-0

> <r_epik_Charging_Adjusted_Penalty>
3.88729e-08

> <i_epik_Tot_Q>
0

> <i_epik_Tot_abs_Q>
0

> <r_epik_Metal_State_Penalty>
-0

> <b_epik_Metal_Only>
0

> <s_epik_Chemistry_Notes>
This compound contains an acetal/aminal-like group ( X-CH(R)-Y where X, Y are N, S, or O) that may be acid/base labile, releasing an aldehyde.

> <s_lp_Force_Field>
OPLS_2005

> <r_lp_Energy>
42.8804

> <b_lp_Chiralities_Consistent>
1

> <s_lp_Variant>
AV-unprocessed.smi:131-1

> <Gold.Version>
5.8.1

> <Gold.Id.Protein>
6NUR|6NUR_protein|mol2

> <Gold.PLP.Fitness>
53.4862

> <Gold.PLP.PLP>
-51.7079

> <Gold.PLP.part.hbond>
-1.9091

> <Gold.PLP.part.metal>
0.0000

> <Gold.PLP.part.buried>
-9.8978

> <Gold.PLP.part.nonpolar>
-39.9663

> <Gold.PLP.part.repulsive>
0.4491

> <Gold.PLP.ligand.clash>
0.0000

> <Gold.PLP.ligand.torsion>
1.8969

> <Gold.PLP.Chemscore.Hbond>
0.9588

> <Gold.PLP.Chemscore.CHOScore>
0.0000

> <Gold.PLP.Chemscore.Metal>
0.0000

> <Gold.Chemscore.Hbonds>
donor molecule, donor type, donor heavy atom, donor atom, acceptor molecule, acceptor atom, score
      P1  H  6896  6908       L1     6  1.00
      P1  H  6924  6935       L1     1  0.07

> <Gold.PLP.Chemscore.Internal.Correction>
2.6958

> <Gold.Rescore>
     Score         DG    S(hbond)    S(metal)    S(lipo)     H(rot)  DE(clash)    DE(int)     intcor
     12.78     -15.07       0.99        0.00      95.75       1.92       0.08       2.21       ----

> <Gold.Chemscore.Fitness>
12.7782

> <Gold.Chemscore.DG>
-15.0740

> <Gold.Chemscore.ZeroCoef>
-5.4800

> <Gold.Chemscore.Hbond>
0.9874

> <Gold.Chemscore.Metal>
0.0000

> <Gold.Chemscore.Lipo>
95.7464

> <Gold.Chemscore.Internal_Hbond>
0.0000

> <Gold.Chemscore.DEClash>
0.0817

> <Gold.Chemscore.DEInternal>
2.2140

> <Gold.Chemscore.Rot>
1.9166

> <Gold.Chemscore.Internal.Correction>
   9.000000E+99

> <Gold.Chemscore.Hbonds>
donor molecule, donor type, donor heavy atom, donor atom, acceptor molecule, acceptor atom, score
      P1  H  6896  6908       L1     6  1.00
      P1  H  6924  6935       L1     1  0.08

> <Gold.Chemscore.Hbond.Weighted>
-3.2980

> <Gold.Chemscore.Metal.Weighted>
-0.0000

> <Gold.Chemscore.Lipo.Weighted>
-11.2023

> <Gold.Chemscore.Internal_Hbond.Weighted>
0.0000

> <Gold.Chemscore.DEClash.Weighted>
0.0817

> <Gold.Chemscore.DEInternal.Weighted>
2.2140

> <Gold.Chemscore.Rot.Weighted>
4.9064

> <Gold.Chemscore.Internal.Correction.Weighted>
   9.000000E+99

> <Gold.Protein.RotatedTorsions>
[ 6907 6896 6895 6894 ] final  -82.44 input  -60.11 | X-H torsion
[ 7974 7965 7964 7962 ] final -100.15 input  175.53 | X-H torsion
[ 8008 7997 7996 7995 ] final   10.75 input   59.86 | X-H torsion
[ 10167 10162 10161 10158 ] final  -13.15 input  -65.29 | X-H torsion
[ 10718 10713 10712 10709 ] final  153.66 input   66.30 | X-H torsion
[ 10763 10752 10751 10750 ] final -123.47 input  -60.55 | X-H torsion
[ 11005 11000 10999 10996 ] final   38.01 input  -57.11 | X-H torsion

> <Gold.Protein.ActiveResidues>
 VAL166  LYS551  ARG553  GLY616  TRP617  ASP618  TYR619  PRO620  LYS621  CYS622 
 ASP623  PHE694  ASN695  SER759  ASP760  ASP761  ALA762  ILE779  LEU786  VAL792 
 PHE793  MET794  SER795  GLU796  ALA797  LYS798  CYS799  TRP800  GLU811  SER814 

> <Gold.Protein.RotatedAtoms>
  150.6897  134.3664  159.4972 H   0  0  0  0  0  0  0  0  0  0  0  0  # atno 6907 bound_to 6896
  152.1486  134.9004  160.0558 H   0  0  0  0  0  0  0  0  0  0  0  0  # atno 6908 bound_to 6896
  152.0110  133.3826  159.4256 H   0  0  0  0  0  0  0  0  0  0  0  0  # atno 6909 bound_to 6896
  145.2983  140.9370  143.2838 H   0  0  0  0  0  0  0  0  0  0  0  0  # atno 7974 bound_to 7965
  154.7976  140.2846  155.5945 H   0  0  0  0  0  0  0  0  0  0  0  0  # atno 8008 bound_to 7997
  156.2973  140.2593  156.2766 H   0  0  0  0  0  0  0  0  0  0  0  0  # atno 8009 bound_to 7997
  154.9596  140.0378  157.2173 H   0  0  0  0  0  0  0  0  0  0  0  0  # atno 8010 bound_to 7997
  140.7176  143.5457  150.9358 H   0  0  0  0  0  0  0  0  0  0  0  0  # atno 10167 bound_to 10162
  157.2418  131.0761  151.1787 H   0  0  0  0  0  0  0  0  0  0  0  0  # atno 10718 bound_to 10713
  154.8708  135.4097  154.2949 H   0  0  0  0  0  0  0  0  0  0  0  0  # atno 10763 bound_to 10752
  153.3818  135.7011  153.6565 H   0  0  0  0  0  0  0  0  0  0  0  0  # atno 10764 bound_to 10752
  153.5384  135.3653  155.2679 H   0  0  0  0  0  0  0  0  0  0  0  0  # atno 10765 bound_to 10752
  140.2169  134.3688  155.8023 H   0  0  0  0  0  0  0  0  0  0  0  0  # atno 11005 bound_to 11000
  144.9115  139.4523  143.6585 LP  0  0  0  0  0  0  0  0  0  0  0  0  # atno 17320 bound_to 7965
  146.3161  139.7926  142.8982 LP  0  0  0  0  0  0  0  0  0  0  0  0  # atno 17321 bound_to 7965
  139.9180  143.6640  152.3102 LP  0  0  0  0  0  0  0  0  0  0  0  0  # atno 17342 bound_to 10162
  139.7047  144.7630  151.1214 LP  0  0  0  0  0  0  0  0  0  0  0  0  # atno 17343 bound_to 10162
  157.3370  130.7014  149.6358 LP  0  0  0  0  0  0  0  0  0  0  0  0  # atno 17370 bound_to 10713
  155.9670  130.4291  150.4817 LP  0  0  0  0  0  0  0  0  0  0  0  0  # atno 17371 bound_to 10713
  141.2224  133.7172  156.8511 LP  0  0  0  0  0  0  0  0  0  0  0  0  # atno 17394 bound_to 11000
  140.1891  134.8978  157.3039 LP  0  0  0  0  0  0  0  0  0  0  0  0  # atno 17395 bound_to 11000

$$$$
