AV-unprocessed.smi:2837|AV-procd|sdf|10922|dock3
  -GOLD-   2272015373D 1   1.00000     0.00000
 Structure written by MMmdl.
 32 34  0  0  0  0  0  0  0  0  1 V2000
  155.3185  140.8414  159.9642 F   0  0  0  0  0  0  0  0  0  0  0  0
  154.1682  141.1325  160.6196 C   0  0  0  0  0  0  0  0  0  0  0  0
  154.4383  141.1162  161.9470 F   0  0  0  0  0  0  0  0  0  0  0  0
  153.7136  142.3617  160.2584 O   0  0  0  0  0  0  0  0  0  0  0  0
  152.7951  142.4648  159.2386 C   0  0  0  0  0  0  0  0  0  0  0  0
  152.5413  143.6619  158.5285 C   0  0  0  0  0  0  0  0  0  0  0  0
  151.5687  143.6599  157.5103 C   0  0  0  0  0  0  0  0  0  0  0  0
  150.8722  142.4652  157.2360 C   0  0  0  0  0  0  0  0  0  0  0  0
  149.9101  142.4694  156.2160 N   0  0  0  0  0  0  0  0  0  0  0  0
  149.2628  141.2350  155.7814 C   0  0  2  0  0  0  0  0  0  0  0  0
  149.1734  141.1110  154.2586 C   0  0  0  0  0  0  0  0  0  0  0  0
  147.6734  140.8612  154.0494 C   0  0  2  0  0  0  0  0  0  0  0  0
  146.8555  142.1431  154.2536 C   0  0  0  0  0  0  0  0  0  0  0  0
  146.9171  142.3122  155.7704 C   0  0  0  0  0  0  0  0  0  0  0  0
  147.7807  141.1103  156.1899 C   0  0  1  0  0  0  0  0  0  0  0  0
  147.3494  140.1547  155.2353 O   0  0  0  0  0  0  0  0  0  0  0  0
  151.1040  141.3192  157.9177 N   0  0  0  0  0  0  0  0  0  0  0  0
  152.0364  141.3284  158.8936 C   0  0  0  0  0  0  0  0  0  0  0  0
  153.4299  140.3551  160.4205 H   0  0  0  0  0  0  0  0  0  0  0  0
  153.0731  144.5741  158.7540 H   0  0  0  0  0  0  0  0  0  0  0  0
  151.3618  144.5632  156.9549 H   0  0  0  0  0  0  0  0  0  0  0  0
  149.5062  143.3481  155.9260 H   0  0  0  0  0  0  0  0  0  0  0  0
  149.8202  140.3791  156.1650 H   0  0  0  0  0  0  0  0  0  0  0  0
  149.5191  141.9958  153.7219 H   0  0  0  0  0  0  0  0  0  0  0  0
  149.7608  140.2584  153.9158 H   0  0  0  0  0  0  0  0  0  0  0  0
  147.4380  140.3286  153.1277 H   0  0  0  0  0  0  0  0  0  0  0  0
  147.2751  142.9935  153.7151 H   0  0  0  0  0  0  0  0  0  0  0  0
  145.8249  142.0042  153.9259 H   0  0  0  0  0  0  0  0  0  0  0  0
  147.3365  143.2705  156.0773 H   0  0  0  0  0  0  0  0  0  0  0  0
  145.9180  142.2323  156.2001 H   0  0  0  0  0  0  0  0  0  0  0  0
  147.6308  140.8012  157.2246 H   0  0  0  0  0  0  0  0  0  0  0  0
  152.1862  140.3944  159.4150 H   0  0  0  0  0  0  0  0  0  0  0  0
  1  2  1  0  0  0  0
  2  3  1  0  0  0  0
  2  4  1  0  0  0  0
  2 19  1  0  0  0  0
  4  5  1  0  0  0  0
  5 18  1  0  0  0  0
  5  6  2  0  0  0  0
  6  7  1  0  0  0  0
  6 20  1  0  0  0  0
  7  8  2  0  0  0  0
  7 21  1  0  0  0  0
  8  9  1  0  0  0  0
  8 17  1  0  0  0  0
  9 10  1  0  0  0  0
  9 22  1  0  0  0  0
 10 15  1  0  0  0  0
 10 11  1  0  0  0  0
 10 23  1  0  0  0  0
 11 12  1  0  0  0  0
 11 24  1  0  0  0  0
 11 25  1  0  0  0  0
 12 16  1  0  0  0  0
 12 13  1  0  0  0  0
 12 26  1  0  0  0  0
 13 14  1  0  0  0  0
 13 27  1  0  0  0  0
 13 28  1  0  0  0  0
 14 15  1  0  0  0  0
 14 29  1  0  0  0  0
 14 30  1  0  0  0  0
 15 16  1  0  0  0  0
 15 31  1  0  0  0  0
 17 18  2  0  0  0  0
 18 32  1  0  0  0  0
M  END
> <s_m_source_file>
AV-unprocessed.smi

> <i_m_source_file_index>
2837

> <i_lp_mmshare_version>
43012

> <i_f3d_flags>
0

> <s_epik_input>
RltDSF0oRilPYzFbY0hdW2NIXWMobltjSF0xKVtOSF1bQ0BIXShbQ0gyXVtDQEBIXTIzKVtDQEBIXShPMylbQ0gyXVtDSDJdMg==

> <s_epik_cmdline>
J2VwaWtfcHl0aG9uJywgJy1waCcsICc3LjAnLCAnLXRuJywgJzgnLCAnLW1hJywgJzIwMCcsICctbWV0YWxfYmluZGluZycsICctaW1hZScsICc8aW5maWxlLm1hZT4nLCAnLW9tYWUnLCAnPG91dGZpbGUubWFlPic=

> <r_lp_tautomer_probability>
1

> <r_epik_Ionization_Penalty>
0.0124072

> <r_epik_Ionization_Penalty_Charging>
0

> <r_epik_Ionization_Penalty_Neutral>
0.0124072

> <r_epik_State_Penalty>
0.00959565

> <r_epik_Charging_Adjusted_Penalty>
0.00959565

> <i_epik_Tot_Q>
0

> <i_epik_Tot_abs_Q>
0

> <r_epik_Metal_State_Penalty>
9.67369e-06

> <b_epik_Metal_Only>
0

> <s_lp_Force_Field>
OPLS_2005

> <r_lp_Energy>
39.9144

> <b_lp_Chiralities_Consistent>
1

> <s_lp_Variant>
AV-unprocessed.smi:2837-3

> <Gold.Version>
5.8.1

> <Gold.Id.Protein>
6NUR|6NUR_protein|mol2

> <Gold.PLP.Fitness>
39.0871

> <Gold.PLP.PLP>
-37.8134

> <Gold.PLP.part.hbond>
-1.0000

> <Gold.PLP.part.metal>
0.0000

> <Gold.PLP.part.buried>
-2.2898

> <Gold.PLP.part.nonpolar>
-34.9253

> <Gold.PLP.part.repulsive>
0.1557

> <Gold.PLP.ligand.clash>
0.0050

> <Gold.PLP.ligand.torsion>
0.8732

> <Gold.PLP.Chemscore.Hbond>
1.0000

> <Gold.PLP.Chemscore.CHOScore>
0.0000

> <Gold.PLP.Chemscore.Metal>
0.0000

> <Gold.Chemscore.Hbonds>
donor molecule, donor type, donor heavy atom, donor atom, acceptor molecule, acceptor atom, score
      L1  H     9    22       P1  8028  0.99

> <Gold.PLP.Chemscore.Internal.Correction>
0.0251

> <Gold.Rescore>
     Score         DG    S(hbond)    S(metal)    S(lipo)     H(rot)  DE(clash)    DE(int)     intcor
     15.07     -15.77       0.99        0.00      88.63       1.32       0.03       0.67       ----

> <Gold.Chemscore.Fitness>
15.0686

> <Gold.Chemscore.DG>
-15.7716

> <Gold.Chemscore.ZeroCoef>
-5.4800

> <Gold.Chemscore.Hbond>
0.9893

> <Gold.Chemscore.Metal>
0.0000

> <Gold.Chemscore.Lipo>
88.6306

> <Gold.Chemscore.Internal_Hbond>
0.0000

> <Gold.Chemscore.DEClash>
0.0319

> <Gold.Chemscore.DEInternal>
0.6712

> <Gold.Chemscore.Rot>
1.3213

> <Gold.Chemscore.Internal.Correction>
   9.000000E+99

> <Gold.Chemscore.Hbonds>
donor molecule, donor type, donor heavy atom, donor atom, acceptor molecule, acceptor atom, score
      L1  H     9    22       P1  8028  0.92

> <Gold.Chemscore.Hbond.Weighted>
-3.3044

> <Gold.Chemscore.Metal.Weighted>
-0.0000

> <Gold.Chemscore.Lipo.Weighted>
-10.3698

> <Gold.Chemscore.Internal_Hbond.Weighted>
0.0000

> <Gold.Chemscore.DEClash.Weighted>
0.0319

> <Gold.Chemscore.DEInternal.Weighted>
0.6712

> <Gold.Chemscore.Rot.Weighted>
3.3825

> <Gold.Chemscore.Internal.Correction.Weighted>
   9.000000E+99

> <Gold.Protein.RotatedTorsions>
[ 6907 6896 6895 6894 ] final  -46.99 input  -60.11 | X-H torsion
[ 7974 7965 7964 7962 ] final -150.52 input  175.53 | X-H torsion
[ 8008 7997 7996 7995 ] final  -51.98 input   59.86 | X-H torsion
[ 10167 10162 10161 10158 ] final -125.83 input  -65.29 | X-H torsion
[ 10718 10713 10712 10709 ] final -132.35 input   66.30 | X-H torsion
[ 10763 10752 10751 10750 ] final   63.51 input  -60.55 | X-H torsion
[ 11005 11000 10999 10996 ] final   99.64 input  -57.11 | X-H torsion

> <Gold.Protein.ActiveResidues>
 VAL166  LYS551  ARG553  GLY616  TRP617  ASP618  TYR619  PRO620  LYS621  CYS622 
 ASP623  PHE694  ASN695  SER759  ASP760  ASP761  ALA762  ILE779  LEU786  VAL792 
 PHE793  MET794  SER795  GLU796  ALA797  LYS798  CYS799  TRP800  GLU811  SER814 

> <Gold.Protein.RotatedAtoms>
  150.9054  134.8469  159.7388 H   0  0  0  0  0  0  0  0  0  0  0  0  # atno 6907 bound_to 6896
  152.4915  134.4439  159.9562 H   0  0  0  0  0  0  0  0  0  0  0  0  # atno 6908 bound_to 6896
  151.4486  133.3584  159.2827 H   0  0  0  0  0  0  0  0  0  0  0  0  # atno 6909 bound_to 6896
  144.7903  140.4921  143.5777 H   0  0  0  0  0  0  0  0  0  0  0  0  # atno 7974 bound_to 7965
  154.4095  140.1235  156.4916 H   0  0  0  0  0  0  0  0  0  0  0  0  # atno 8008 bound_to 7997
  155.6984  140.3495  155.4903 H   0  0  0  0  0  0  0  0  0  0  0  0  # atno 8009 bound_to 7997
  155.9407  140.1086  157.1048 H   0  0  0  0  0  0  0  0  0  0  0  0  # atno 8010 bound_to 7997
  139.9779  143.5774  152.2389 H   0  0  0  0  0  0  0  0  0  0  0  0  # atno 10167 bound_to 10162
  156.2337  130.7053  151.0885 H   0  0  0  0  0  0  0  0  0  0  0  0  # atno 10718 bound_to 10713
  153.0021  135.5426  154.6364 H   0  0  0  0  0  0  0  0  0  0  0  0  # atno 10763 bound_to 10752
  154.5629  135.2835  155.0903 H   0  0  0  0  0  0  0  0  0  0  0  0  # atno 10764 bound_to 10752
  154.2099  135.6469  153.5164 H   0  0  0  0  0  0  0  0  0  0  0  0  # atno 10765 bound_to 10752
  139.8770  134.9104  156.4636 H   0  0  0  0  0  0  0  0  0  0  0  0  # atno 11005 bound_to 11000
  145.5812  139.1489  143.3234 LP  0  0  0  0  0  0  0  0  0  0  0  0  # atno 17320 bound_to 7965
  146.2152  140.5942  142.9041 LP  0  0  0  0  0  0  0  0  0  0  0  0  # atno 17321 bound_to 7965
  139.6431  144.7656  151.2298 LP  0  0  0  0  0  0  0  0  0  0  0  0  # atno 17342 bound_to 10162
  140.7499  143.6283  150.8447 LP  0  0  0  0  0  0  0  0  0  0  0  0  # atno 17343 bound_to 10162
  157.7144  131.0717  150.6380 LP  0  0  0  0  0  0  0  0  0  0  0  0  # atno 17370 bound_to 10713
  156.6450  130.4469  149.5739 LP  0  0  0  0  0  0  0  0  0  0  0  0  # atno 17371 bound_to 10713
  140.8846  133.7892  155.9504 LP  0  0  0  0  0  0  0  0  0  0  0  0  # atno 17394 bound_to 11000
  140.8818  134.2602  157.5140 LP  0  0  0  0  0  0  0  0  0  0  0  0  # atno 17395 bound_to 11000

$$$$
