AV-unprocessed.smi:3112|AV-procd|sdf|11846|dock3
  -GOLD-   2272017223D 1   1.00000     0.00000
 Structure written by MMmdl.
 36 36  0  0  0  0  0  0  0  0  1 V2000
  146.9937  142.3805  154.3797 C   0  0  0  0  0  0  0  0  0  0  0  0
  148.0065  141.2956  153.9885 C   0  0  0  0  0  0  0  0  0  0  0  0
  149.4270  141.5029  154.5566 C   0  0  2  0  0  0  0  0  0  0  0  0
  150.2792  140.6207  153.8555 O   0  0  0  0  0  0  0  0  0  0  0  0
  149.5708  141.1785  156.0563 C   0  0  0  0  0  0  0  0  0  0  0  0
  150.8230  141.6993  156.6023 N   0  0  0  0  0  0  0  0  0  0  0  0
  151.2187  141.1832  157.9187 C   0  0  1  0  0  0  0  0  0  0  0  0
  151.6423  139.7017  157.8449 C   0  0  0  0  0  0  0  0  0  0  0  0
  152.3257  142.0685  158.5533 C   0  0  2  0  0  0  0  0  0  0  0  0
  153.0945  141.3619  159.6863 C   0  0  0  0  0  0  0  0  0  0  0  0
  151.8524  143.3899  158.9585 N   0  0  0  0  0  0  0  0  0  0  0  0
  152.1578  144.0828  160.1125 C   0  0  0  0  0  0  0  0  0  0  0  0
  151.5025  145.2794  160.0600 C   0  0  0  0  0  0  0  0  0  0  0  0
  150.8146  145.2326  158.8162 C   0  0  0  0  0  0  0  0  0  0  0  0
  151.0265  144.1042  158.1593 N   0  0  0  0  0  0  0  0  0  0  0  0
  146.0588  142.2486  153.8348 H   0  0  0  0  0  0  0  0  0  0  0  0
  147.3735  143.3770  154.1524 H   0  0  0  0  0  0  0  0  0  0  0  0
  146.7550  142.3421  155.4423 H   0  0  0  0  0  0  0  0  0  0  0  0
  147.6231  140.3185  154.2854 H   0  0  0  0  0  0  0  0  0  0  0  0
  148.0654  141.2763  152.8993 H   0  0  0  0  0  0  0  0  0  0  0  0
  149.7718  142.5176  154.3523 H   0  0  0  0  0  0  0  0  0  0  0  0
  149.8849  140.4238  153.0196 H   0  0  0  0  0  0  0  0  0  0  0  0
  148.7168  141.5715  156.6093 H   0  0  0  0  0  0  0  0  0  0  0  0
  149.5503  140.0953  156.1796 H   0  0  0  0  0  0  0  0  0  0  0  0
  151.5774  141.5591  155.9369 H   0  0  0  0  0  0  0  0  0  0  0  0
  150.3527  141.2388  158.5797 H   0  0  0  0  0  0  0  0  0  0  0  0
  152.0274  139.3590  158.8055 H   0  0  0  0  0  0  0  0  0  0  0  0
  152.4228  139.5412  157.1001 H   0  0  0  0  0  0  0  0  0  0  0  0
  150.8034  139.0532  157.5936 H   0  0  0  0  0  0  0  0  0  0  0  0
  153.0605  142.2447  157.7660 H   0  0  0  0  0  0  0  0  0  0  0  0
  153.5036  140.4104  159.3455 H   0  0  0  0  0  0  0  0  0  0  0  0
  152.4578  141.1574  160.5476 H   0  0  0  0  0  0  0  0  0  0  0  0
  153.9281  141.9738  160.0319 H   0  0  0  0  0  0  0  0  0  0  0  0
  152.8107  143.6710  160.8680 H   0  0  0  0  0  0  0  0  0  0  0  0
  151.5146  146.0686  160.7970 H   0  0  0  0  0  0  0  0  0  0  0  0
  150.1732  145.9798  158.3730 H   0  0  0  0  0  0  0  0  0  0  0  0
  1  2  1  0  0  0  0
  1 16  1  0  0  0  0
  1 17  1  0  0  0  0
  1 18  1  0  0  0  0
  2  3  1  0  0  0  0
  2 19  1  0  0  0  0
  2 20  1  0  0  0  0
  3  4  1  0  0  0  0
  3  5  1  0  0  0  0
  3 21  1  0  0  0  0
  4 22  1  0  0  0  0
  5  6  1  0  0  0  0
  5 23  1  0  0  0  0
  5 24  1  0  0  0  0
  6  7  1  0  0  0  0
  6 25  1  0  0  0  0
  7  8  1  0  0  0  0
  7  9  1  0  0  0  0
  7 26  1  0  0  0  0
  8 27  1  0  0  0  0
  8 28  1  0  0  0  0
  8 29  1  0  0  0  0
  9 10  1  0  0  0  0
  9 11  1  0  0  0  0
  9 30  1  0  0  0  0
 10 31  1  0  0  0  0
 10 32  1  0  0  0  0
 10 33  1  0  0  0  0
 11 15  1  0  0  0  0
 11 12  1  0  0  0  0
 12 13  2  0  0  0  0
 12 34  1  0  0  0  0
 13 14  1  0  0  0  0
 13 35  1  0  0  0  0
 14 15  2  0  0  0  0
 14 36  1  0  0  0  0
M  END
> <s_m_source_file>
AV-unprocessed.smi

> <i_m_source_file_index>
3112

> <i_lp_mmshare_version>
43012

> <i_f3d_flags>
0

> <s_epik_input>
W0NIM11bQ0gyXVtDQEhdKFtPSF0pW0NIMl1bTkhdW0NASF0oW0NIM10pW0NASF0oW0NIM10pbjFbY0hdW2NIXVtjSF1uMQ==

> <s_epik_cmdline>
J2VwaWtfcHl0aG9uJywgJy1waCcsICc3LjAnLCAnLXRuJywgJzgnLCAnLW1hJywgJzIwMCcsICctbWV0YWxfYmluZGluZycsICctaW1hZScsICc8aW5maWxlLm1hZT4nLCAnLW9tYWUnLCAnPG91dGZpbGUubWFlPic=

> <r_lp_tautomer_probability>
1

> <r_epik_Ionization_Penalty>
2.16876

> <r_epik_Ionization_Penalty_Charging>
0

> <r_epik_Ionization_Penalty_Neutral>
2.16876

> <r_epik_State_Penalty>
2.30854

> <r_epik_Charging_Adjusted_Penalty>
2.30854

> <i_epik_Tot_Q>
0

> <i_epik_Tot_abs_Q>
0

> <r_epik_Metal_State_Penalty>
2.3073

> <b_epik_Metal_Only>
0

> <s_lp_Force_Field>
OPLS_2005

> <r_lp_Energy>
15.2036

> <b_lp_Chiralities_Consistent>
1

> <s_lp_Variant>
AV-unprocessed.smi:3112-11

> <Gold.Version>
5.8.1

> <Gold.Id.Protein>
6NUR|6NUR_protein|mol2

> <Gold.PLP.Fitness>
44.1090

> <Gold.PLP.PLP>
-37.1850

> <Gold.PLP.part.hbond>
-2.0000

> <Gold.PLP.part.metal>
0.0000

> <Gold.PLP.part.buried>
-6.0275

> <Gold.PLP.part.nonpolar>
-30.4439

> <Gold.PLP.part.repulsive>
0.1585

> <Gold.PLP.ligand.clash>
0.0000

> <Gold.PLP.ligand.torsion>
0.9335

> <Gold.PLP.Chemscore.Hbond>
1.8320

> <Gold.PLP.Chemscore.CHOScore>
0.9823

> <Gold.PLP.Chemscore.Metal>
0.0000

> <Gold.Chemscore.Hbonds>
donor molecule, donor type, donor heavy atom, donor atom, acceptor molecule, acceptor atom, score
      L1  H     4    22       P1  7957  1.00
      P1  H  7989  7998       L1     4  0.46
      L1  C    14    36       P1  8029  1.00

> <Gold.PLP.Chemscore.Internal.Correction>
0.3480

> <Gold.Rescore>
     Score         DG    S(hbond)    S(metal)    S(lipo)     H(rot)  DE(clash)    DE(int)     intcor
     11.68     -13.95       1.03        0.00      93.62       2.31       0.07       2.20       ----

> <Gold.Chemscore.Fitness>
11.6809

> <Gold.Chemscore.DG>
-13.9521

> <Gold.Chemscore.ZeroCoef>
-5.4800

> <Gold.Chemscore.Hbond>
1.0283

> <Gold.Chemscore.Metal>
0.0000

> <Gold.Chemscore.Lipo>
93.6179

> <Gold.Chemscore.Internal_Hbond>
0.0000

> <Gold.Chemscore.DEClash>
0.0730

> <Gold.Chemscore.DEInternal>
2.1982

> <Gold.Chemscore.Rot>
2.3108

> <Gold.Chemscore.Internal.Correction>
   9.000000E+99

> <Gold.Chemscore.Hbonds>
donor molecule, donor type, donor heavy atom, donor atom, acceptor molecule, acceptor atom, score
      L1  H     4    22       P1  7957  1.00
      P1  H  7989  7998       L1     4  0.13

> <Gold.Chemscore.Hbond.Weighted>
-3.4345

> <Gold.Chemscore.Metal.Weighted>
-0.0000

> <Gold.Chemscore.Lipo.Weighted>
-10.9533

> <Gold.Chemscore.Internal_Hbond.Weighted>
0.0000

> <Gold.Chemscore.DEClash.Weighted>
0.0730

> <Gold.Chemscore.DEInternal.Weighted>
2.1982

> <Gold.Chemscore.Rot.Weighted>
5.9157

> <Gold.Chemscore.Internal.Correction.Weighted>
   9.000000E+99

> <Gold.Protein.RotatedTorsions>
[ 6907 6896 6895 6894 ] final   55.46 input  -60.11 | X-H torsion
[ 7974 7965 7964 7962 ] final  123.33 input  175.53 | X-H torsion
[ 8008 7997 7996 7995 ] final  169.49 input   59.86 | X-H torsion
[ 10167 10162 10161 10158 ] final  137.01 input  -65.29 | X-H torsion
[ 10718 10713 10712 10709 ] final  -70.15 input   66.30 | X-H torsion
[ 10763 10752 10751 10750 ] final    6.77 input  -60.55 | X-H torsion
[ 11005 11000 10999 10996 ] final  -70.49 input  -57.11 | X-H torsion

> <Gold.Protein.ActiveResidues>
 VAL166  LYS551  ARG553  GLY616  TRP617  ASP618  TYR619  PRO620  LYS621  CYS622 
 ASP623  PHE694  ASN695  SER759  ASP760  ASP761  ALA762  ILE779  LEU786  VAL792 
 PHE793  MET794  SER795  GLU796  ALA797  LYS798  CYS799  TRP800  GLU811  SER814 

> <Gold.Protein.RotatedAtoms>
  152.3541  134.6965  160.0227 H   0  0  0  0  0  0  0  0  0  0  0  0  # atno 6907 bound_to 6896
  151.7309  133.3312  159.3348 H   0  0  0  0  0  0  0  0  0  0  0  0  # atno 6908 bound_to 6896
  150.7560  134.6298  159.6224 H   0  0  0  0  0  0  0  0  0  0  0  0  # atno 6909 bound_to 6896
  145.0972  139.3544  143.4830 H   0  0  0  0  0  0  0  0  0  0  0  0  # atno 7974 bound_to 7965
  156.1452  140.1562  156.8858 H   0  0  0  0  0  0  0  0  0  0  0  0  # atno 8008 bound_to 7997
  154.5022  140.0822  156.7859 H   0  0  0  0  0  0  0  0  0  0  0  0  # atno 8009 bound_to 7997
  155.4002  140.3414  155.4259 H   0  0  0  0  0  0  0  0  0  0  0  0  # atno 8010 bound_to 7997
  139.5159  144.6433  151.5508 H   0  0  0  0  0  0  0  0  0  0  0  0  # atno 10167 bound_to 10162
  156.0421  130.4326  150.2253 H   0  0  0  0  0  0  0  0  0  0  0  0  # atno 10718 bound_to 10713
  153.2439  135.6906  153.7752 H   0  0  0  0  0  0  0  0  0  0  0  0  # atno 10763 bound_to 10752
  153.6871  135.3319  155.3194 H   0  0  0  0  0  0  0  0  0  0  0  0  # atno 10764 bound_to 10752
  154.8367  135.4536  154.1372 H   0  0  0  0  0  0  0  0  0  0  0  0  # atno 10765 bound_to 10752
  141.1575  133.6791  156.6761 H   0  0  0  0  0  0  0  0  0  0  0  0  # atno 11005 bound_to 11000
  146.3530  140.0833  142.8616 LP  0  0  0  0  0  0  0  0  0  0  0  0  # atno 17320 bound_to 7965
  145.0997  140.9338  143.4720 LP  0  0  0  0  0  0  0  0  0  0  0  0  # atno 17321 bound_to 7965
  140.6209  143.9260  150.6525 LP  0  0  0  0  0  0  0  0  0  0  0  0  # atno 17342 bound_to 10162
  140.2533  143.3577  152.1386 LP  0  0  0  0  0  0  0  0  0  0  0  0  # atno 17343 bound_to 10162
  157.0347  131.0018  151.3301 LP  0  0  0  0  0  0  0  0  0  0  0  0  # atno 17370 bound_to 10713
  157.5252  130.8023  149.7854 LP  0  0  0  0  0  0  0  0  0  0  0  0  # atno 17371 bound_to 10713
  140.3138  134.8064  157.4197 LP  0  0  0  0  0  0  0  0  0  0  0  0  # atno 17394 bound_to 11000
  140.1156  134.5288  155.8228 LP  0  0  0  0  0  0  0  0  0  0  0  0  # atno 17395 bound_to 11000

$$$$
