AV-unprocessed.smi:54|AV-procd|sdf|541|dock6
  -GOLD-   2262016433D 1   1.00000     0.00000
 Structure written by MMmdl.
 44 46  0  0  0  0  0  0  0  0  1 V2000
  145.8329  132.0969  149.7237 C   0  0  0  0  0  0  0  0  0  0  0  0
  145.0449  132.1099  151.0437 C   0  0  0  0  0  0  0  0  0  0  0  0
  143.5370  131.9438  150.7955 C   0  0  0  0  0  0  0  0  0  0  0  0
  145.3234  133.3971  151.8284 C   0  0  0  0  0  0  0  0  0  0  0  0
  146.0414  134.2918  151.3803 O   0  0  0  0  0  0  0  0  0  0  0  0
  144.6785  133.4858  153.1266 N   0  0  0  0  0  0  0  0  0  0  0  0
  144.7532  134.5035  154.0156 C   0  0  0  0  0  0  0  0  0  0  0  0
  145.6134  135.5058  153.9032 N   0  0  0  0  0  0  0  0  0  0  0  0
  145.5391  136.4342  154.9042 C   0  0  0  0  0  0  0  0  0  0  0  0
  144.6783  136.4150  155.9815 C   0  0  0  0  0  0  0  0  0  0  0  0
  144.8946  137.5268  156.7879 N   0  0  0  0  0  0  0  0  0  0  0  0
  145.8582  138.1691  156.1889 C   0  0  0  0  0  0  0  0  0  0  0  0
  146.3029  137.5748  155.0309 N   0  0  0  0  0  0  0  0  0  0  0  0
  147.3805  138.0189  154.0892 C   0  0  2  0  0  0  0  0  0  0  0  0
  148.2277  138.8729  154.7987 O   0  0  0  0  0  0  0  0  0  0  0  0
  148.2953  140.1576  154.1815 C   0  0  2  0  0  0  0  0  0  0  0  0
  148.5013  141.2639  155.2313 C   0  0  0  0  0  0  0  0  0  0  0  0
  148.5258  142.5286  154.6046 O   0  0  0  0  0  0  0  0  0  0  0  0
  147.0097  140.2630  153.3482 C   0  0  2  0  0  0  0  0  0  0  0  0
  145.9250  140.7518  154.1201 O   0  0  0  0  0  0  0  0  0  0  0  0
  146.8121  138.8204  152.9033 C   0  0  2  0  0  0  0  0  0  0  0  0
  145.4728  138.5241  152.5468 O   0  0  0  0  0  0  0  0  0  0  0  0
  143.7450  135.3349  156.1203 C   0  0  0  0  0  0  0  0  0  0  0  0
  142.9137  135.1554  157.0076 O   0  0  0  0  0  0  0  0  0  0  0  0
  143.8525  134.4065  155.0767 N   0  0  0  0  0  0  0  0  0  0  0  0
  147.8924  137.1015  153.7961 H   0  0  0  0  0  0  0  0  0  0  0  0
  149.1364  140.1444  153.4857 H   0  0  0  0  0  0  0  0  0  0  0  0
  147.1401  140.9306  152.4958 H   0  0  0  0  0  0  0  0  0  0  0  0
  147.4550  138.6243  152.0442 H   0  0  0  0  0  0  0  0  0  0  0  0
  146.9018  132.2268  149.8979 H   0  0  0  0  0  0  0  0  0  0  0  0
  145.5058  132.8923  149.0527 H   0  0  0  0  0  0  0  0  0  0  0  0
  145.7003  131.1496  149.2006 H   0  0  0  0  0  0  0  0  0  0  0  0
  145.3832  131.2647  151.6449 H   0  0  0  0  0  0  0  0  0  0  0  0
  142.9778  131.9483  151.7320 H   0  0  0  0  0  0  0  0  0  0  0  0
  143.3270  130.9984  150.2950 H   0  0  0  0  0  0  0  0  0  0  0  0
  143.1425  132.7440  150.1677 H   0  0  0  0  0  0  0  0  0  0  0  0
  144.0946  132.7034  153.3824 H   0  0  0  0  0  0  0  0  0  0  0  0
  146.2669  139.0907  156.5767 H   0  0  0  0  0  0  0  0  0  0  0  0
  147.6728  141.2688  155.9401 H   0  0  0  0  0  0  0  0  0  0  0  0
  149.4175  141.1067  155.8012 H   0  0  0  0  0  0  0  0  0  0  0  0
  148.9025  143.1540  155.2044 H   0  0  0  0  0  0  0  0  0  0  0  0
  145.1845  140.8784  153.5465 H   0  0  0  0  0  0  0  0  0  0  0  0
  144.9785  139.3297  152.5629 H   0  0  0  0  0  0  0  0  0  0  0  0
  143.2238  133.6175  155.1094 H   0  0  0  0  0  0  0  0  0  0  0  0
  1  2  1  0  0  0  0
  1 30  1  0  0  0  0
  1 31  1  0  0  0  0
  1 32  1  0  0  0  0
  2  3  1  0  0  0  0
  2  4  1  0  0  0  0
  2 33  1  0  0  0  0
  3 34  1  0  0  0  0
  3 35  1  0  0  0  0
  3 36  1  0  0  0  0
  4  5  2  0  0  0  0
  4  6  1  0  0  0  0
  6 37  1  0  0  0  0
  6  7  1  0  0  0  0
  7 25  1  0  0  0  0
  7  8  2  0  0  0  0
  8  9  1  0  0  0  0
  9 13  1  0  0  0  0
  9 10  2  0  0  0  0
 10 11  1  0  0  0  0
 10 23  1  0  0  0  0
 11 12  2  0  0  0  0
 12 13  1  0  0  0  0
 12 38  1  0  0  0  0
 13 14  1  0  0  0  0
 14 26  1  0  0  0  0
 14 21  1  0  0  0  0
 14 15  1  0  0  0  0
 15 16  1  0  0  0  0
 16 27  1  0  0  0  0
 16 17  1  0  0  0  0
 16 19  1  0  0  0  0
 17 18  1  0  0  0  0
 17 39  1  0  0  0  0
 17 40  1  0  0  0  0
 18 41  1  0  0  0  0
 19 28  1  0  0  0  0
 19 20  1  0  0  0  0
 19 21  1  0  0  0  0
 20 42  1  0  0  0  0
 21 29  1  0  0  0  0
 21 22  1  0  0  0  0
 22 43  1  0  0  0  0
 23 24  2  0  0  0  0
 23 25  1  0  0  0  0
 25 44  1  0  0  0  0
M  END
> <s_m_source_file>
AV-unprocessed.smi

> <i_m_source_file_index>
54

> <i_lp_mmshare_version>
43012

> <i_f3d_flags>
0

> <s_epik_input>
W0NIM11bQ0hdKFtDSDNdKUMoPU8pW05IXWMobjEpW25IXWMoPU8pYyhjMTIpbltjSF1uMltDQEBIXTNPW0NASF0oW0NIMl1bT0hdKVtDQEBIXShbT0hdKVtDQEhdM1tPSF0=

> <s_epik_cmdline>
J2VwaWtfcHl0aG9uJywgJy1waCcsICc3LjAnLCAnLXRuJywgJzgnLCAnLW1hJywgJzIwMCcsICctbWV0YWxfYmluZGluZycsICctaW1hZScsICc8aW5maWxlLm1hZT4nLCAnLW9tYWUnLCAnPG91dGZpbGUubWFlPic=

> <r_lp_tautomer_probability>
0.85571

> <r_epik_Ionization_Penalty>
0.0316551

> <r_epik_Ionization_Penalty_Charging>
0.0316043

> <r_epik_Ionization_Penalty_Neutral>
5.07097e-05

> <r_epik_State_Penalty>
3.15494e-07

> <r_epik_Charging_Adjusted_Penalty>
0.0316047

> <i_epik_Tot_Q>
0

> <i_epik_Tot_abs_Q>
0

> <r_epik_Metal_State_Penalty>
0.421206

> <b_epik_Metal_Only>
0

> <s_epik_Chemistry_Notes>
This compound contains an acetal/aminal-like group ( X-CH(R)-Y where X, Y are N, S, or O) that may be acid/base labile, releasing an aldehyde.

> <s_lp_Force_Field>
OPLS_2005

> <r_lp_Energy>
46.8633

> <b_lp_Chiralities_Consistent>
1

> <s_lp_Variant>
AV-unprocessed.smi:54-13

> <Gold.Version>
5.8.1

> <Gold.Id.Protein>
6NUR|6NUR_protein|mol2

> <Gold.PLP.Fitness>
43.6354

> <Gold.PLP.PLP>
-30.7065

> <Gold.PLP.part.hbond>
-7.6989

> <Gold.PLP.part.metal>
0.0000

> <Gold.PLP.part.buried>
-5.0474

> <Gold.PLP.part.nonpolar>
-20.6167

> <Gold.PLP.part.repulsive>
0.3788

> <Gold.PLP.ligand.clash>
0.0000

> <Gold.PLP.ligand.torsion>
0.6999

> <Gold.PLP.Chemscore.Hbond>
4.7010

> <Gold.PLP.Chemscore.CHOScore>
0.0000

> <Gold.PLP.Chemscore.Metal>
0.0000

> <Gold.Chemscore.Hbonds>
donor molecule, donor type, donor heavy atom, donor atom, acceptor molecule, acceptor atom, score
      L1  H     6    37       P1 10957  0.59
      L1  H    18    41       P1  8028  0.85
      L1  H    20    42       P1 10175  1.00
      L1  H    22    43       P1 10175  1.00
      L1  H    25    44       P1 10957  1.00
      P1  H 11000 11005       L1    24  0.29

> <Gold.PLP.Chemscore.Internal.Correction>
0.2258

> <Gold.Rescore>
     Score         DG    S(hbond)    S(metal)    S(lipo)     H(rot)  DE(clash)    DE(int)     intcor
     14.04     -16.25       4.17        0.00      61.72       4.05       0.08       2.13       ----

> <Gold.Chemscore.Fitness>
14.0357

> <Gold.Chemscore.DG>
-16.2507

> <Gold.Chemscore.ZeroCoef>
-5.4800

> <Gold.Chemscore.Hbond>
4.1665

> <Gold.Chemscore.Metal>
0.0000

> <Gold.Chemscore.Lipo>
61.7164

> <Gold.Chemscore.Internal_Hbond>
0.0000

> <Gold.Chemscore.DEClash>
0.0814

> <Gold.Chemscore.DEInternal>
2.1335

> <Gold.Chemscore.Rot>
4.0493

> <Gold.Chemscore.Internal.Correction>
   9.000000E+99

> <Gold.Chemscore.Hbonds>
donor molecule, donor type, donor heavy atom, donor atom, acceptor molecule, acceptor atom, score
      L1  H     6    37       P1 10957  0.25
      L1  H    18    41       P1  8028  0.84
      L1  H    20    42       P1 10175  0.82
      L1  H    22    43       P1 10175  1.00
      L1  H    25    44       P1 10957  0.97
      P1  H 11000 11005       L1    24  0.29

> <Gold.Chemscore.Hbond.Weighted>
-13.9161

> <Gold.Chemscore.Metal.Weighted>
-0.0000

> <Gold.Chemscore.Lipo.Weighted>
-7.2208

> <Gold.Chemscore.Internal_Hbond.Weighted>
0.0000

> <Gold.Chemscore.DEClash.Weighted>
0.0814

> <Gold.Chemscore.DEInternal.Weighted>
2.1335

> <Gold.Chemscore.Rot.Weighted>
10.3662

> <Gold.Chemscore.Internal.Correction.Weighted>
   9.000000E+99

> <Gold.Protein.RotatedTorsions>
[ 6907 6896 6895 6894 ] final   47.61 input  -60.11 | X-H torsion
[ 7974 7965 7964 7962 ] final   34.53 input  175.53 | X-H torsion
[ 8008 7997 7996 7995 ] final  -91.93 input   59.86 | X-H torsion
[ 10167 10162 10161 10158 ] final   48.22 input  -65.29 | X-H torsion
[ 10718 10713 10712 10709 ] final   47.62 input   66.30 | X-H torsion
[ 10763 10752 10751 10750 ] final    6.67 input  -60.55 | X-H torsion
[ 11005 11000 10999 10996 ] final -101.81 input  -57.11 | X-H torsion

> <Gold.Protein.ActiveResidues>
 VAL166  LYS551  ARG553  GLY616  TRP617  ASP618  TYR619  PRO620  LYS621  CYS622 
 ASP623  PHE694  ASN695  SER759  ASP760  ASP761  ALA762  ILE779  LEU786  VAL792 
 PHE793  MET794  SER795  GLU796  ALA797  LYS798  CYS799  TRP800  GLU811  SER814 

> <Gold.Protein.RotatedAtoms>
  152.2700  134.7943  160.0415 H   0  0  0  0  0  0  0  0  0  0  0  0  # atno 6907 bound_to 6896
  151.8559  133.3443  159.3696 H   0  0  0  0  0  0  0  0  0  0  0  0  # atno 6908 bound_to 6896
  150.7148  134.5182  159.5684 H   0  0  0  0  0  0  0  0  0  0  0  0  # atno 6909 bound_to 6896
  146.1346  139.6257  142.9203 H   0  0  0  0  0  0  0  0  0  0  0  0  # atno 7974 bound_to 7965
  154.7168  140.0514  157.0602 H   0  0  0  0  0  0  0  0  0  0  0  0  # atno 8008 bound_to 7997
  155.0480  140.3176  155.4682 H   0  0  0  0  0  0  0  0  0  0  0  0  # atno 8009 bound_to 7997
  156.2805  140.2121  156.5605 H   0  0  0  0  0  0  0  0  0  0  0  0  # atno 8010 bound_to 7997
  140.2956  144.2995  150.6230 H   0  0  0  0  0  0  0  0  0  0  0  0  # atno 10167 bound_to 10162
  157.4603  130.8192  149.7880 H   0  0  0  0  0  0  0  0  0  0  0  0  # atno 10718 bound_to 10713
  153.2450  135.6907  153.7741 H   0  0  0  0  0  0  0  0  0  0  0  0  # atno 10763 bound_to 10752
  153.6856  135.3321  155.3190 H   0  0  0  0  0  0  0  0  0  0  0  0  # atno 10764 bound_to 10752
  154.8371  135.4533  154.1386 H   0  0  0  0  0  0  0  0  0  0  0  0  # atno 10765 bound_to 10752
  141.1215  133.8508  157.1280 H   0  0  0  0  0  0  0  0  0  0  0  0  # atno 11005 bound_to 11000
  145.5184  141.0433  143.2449 LP  0  0  0  0  0  0  0  0  0  0  0  0  # atno 17320 bound_to 7965
  144.7726  139.6700  143.7188 LP  0  0  0  0  0  0  0  0  0  0  0  0  # atno 17321 bound_to 7965
  140.5695  143.2182  151.7624 LP  0  0  0  0  0  0  0  0  0  0  0  0  # atno 17342 bound_to 10162
  139.4927  144.4236  151.9950 LP  0  0  0  0  0  0  0  0  0  0  0  0  # atno 17343 bound_to 10162
  156.0026  130.3872  150.2549 LP  0  0  0  0  0  0  0  0  0  0  0  0  # atno 17370 bound_to 10713
  157.0727  131.0121  151.3184 LP  0  0  0  0  0  0  0  0  0  0  0  0  # atno 17371 bound_to 10713
  140.0177  134.9960  157.0527 LP  0  0  0  0  0  0  0  0  0  0  0  0  # atno 17394 bound_to 11000
  140.4492  134.1600  155.7180 LP  0  0  0  0  0  0  0  0  0  0  0  0  # atno 17395 bound_to 11000

$$$$
