AV-unprocessed.smi:2187|AV-procd|sdf|8878|dock3
  -GOLD-   2272012 73D 1   1.00000     0.00000
 Structure written by MMmdl.
 42 43  0  0  0  0  0  0  0  0  1 V2000
  153.5180  140.6461  159.5807 C   0  0  0  0  0  0  0  0  0  0  0  0
  153.0004  141.9427  160.1350 C   0  0  0  0  0  0  0  0  0  0  0  0
  153.0675  142.1578  161.4382 N   0  0  0  0  0  0  0  0  0  0  0  0
  152.5455  143.3883  161.6121 N   0  0  0  0  0  0  0  0  0  0  0  0
  152.4725  143.9437  162.9495 C   0  0  0  0  0  0  0  0  0  0  0  0
  152.1532  143.9550  160.4148 C   0  0  0  0  0  0  0  0  0  0  0  0
  151.5553  145.3229  160.3371 C   0  0  0  0  0  0  0  0  0  0  0  0
  152.4286  143.0435  159.4304 C   0  0  0  0  0  0  0  0  0  0  0  0
  152.1960  143.1663  157.9455 C   0  0  0  0  0  0  0  0  0  0  0  0
  151.2294  142.0747  157.4880 C   0  0  0  0  0  0  0  0  0  0  0  0
  151.4276  140.9027  157.8076 O   0  0  0  0  0  0  0  0  0  0  0  0
  150.1864  142.4764  156.7450 N   0  0  0  0  0  0  0  0  0  0  0  0
  149.1140  141.6208  156.2394 C   0  0  2  0  0  0  0  0  0  0  0  0
  148.3083  140.9992  157.4090 C   0  0  0  0  0  0  0  0  0  0  0  0
  147.5629  139.6847  157.0954 C   0  0  0  0  0  0  0  0  0  0  0  0
  146.6318  139.7255  155.8664 C   0  0  0  0  0  0  0  0  0  0  0  0
  147.2667  140.1642  154.5244 C   0  0  0  0  0  0  0  0  0  0  0  0
  148.7137  139.9676  154.4466 N   0  0  0  0  0  0  0  0  0  0  0  0
  149.6273  140.6191  155.1867 C   0  0  0  0  0  0  0  0  0  0  0  0
  150.8322  140.4104  155.0493 O   0  0  0  0  0  0  0  0  0  0  0  0
  154.5518  140.7500  159.2518 H   0  0  0  0  0  0  0  0  0  0  0  0
  152.9288  140.3186  158.7246 H   0  0  0  0  0  0  0  0  0  0  0  0
  153.4852  139.8494  160.3247 H   0  0  0  0  0  0  0  0  0  0  0  0
  151.5235  144.4626  163.0857 H   0  0  0  0  0  0  0  0  0  0  0  0
  153.2897  144.6498  163.0957 H   0  0  0  0  0  0  0  0  0  0  0  0
  152.5475  143.1527  163.6968 H   0  0  0  0  0  0  0  0  0  0  0  0
  151.4945  145.6700  159.3059 H   0  0  0  0  0  0  0  0  0  0  0  0
  152.1564  146.0429  160.8928 H   0  0  0  0  0  0  0  0  0  0  0  0
  150.5480  145.3283  160.7535 H   0  0  0  0  0  0  0  0  0  0  0  0
  151.7899  144.1438  157.6828 H   0  0  0  0  0  0  0  0  0  0  0  0
  153.1270  143.0723  157.3855 H   0  0  0  0  0  0  0  0  0  0  0  0
  150.1061  143.4617  156.5386 H   0  0  0  0  0  0  0  0  0  0  0  0
  148.4391  142.2823  155.6948 H   0  0  0  0  0  0  0  0  0  0  0  0
  148.9797  140.8028  158.2463 H   0  0  0  0  0  0  0  0  0  0  0  0
  147.5934  141.7375  157.7745 H   0  0  0  0  0  0  0  0  0  0  0  0
  148.2871  138.8784  156.9713 H   0  0  0  0  0  0  0  0  0  0  0  0
  146.9745  139.4024  157.9692 H   0  0  0  0  0  0  0  0  0  0  0  0
  146.2171  138.7251  155.7376 H   0  0  0  0  0  0  0  0  0  0  0  0
  145.7764  140.3679  156.0781 H   0  0  0  0  0  0  0  0  0  0  0  0
  146.8013  139.6152  153.7055 H   0  0  0  0  0  0  0  0  0  0  0  0
  147.0397  141.2129  154.3292 H   0  0  0  0  0  0  0  0  0  0  0  0
  149.0483  139.3000  153.7668 H   0  0  0  0  0  0  0  0  0  0  0  0
  1  2  1  0  0  0  0
  1 21  1  0  0  0  0
  1 22  1  0  0  0  0
  1 23  1  0  0  0  0
  2  8  1  0  0  0  0
  2  3  2  0  0  0  0
  3  4  1  0  0  0  0
  4  5  1  0  0  0  0
  4  6  1  0  0  0  0
  5 24  1  0  0  0  0
  5 25  1  0  0  0  0
  5 26  1  0  0  0  0
  6  7  1  0  0  0  0
  6  8  2  0  0  0  0
  7 27  1  0  0  0  0
  7 28  1  0  0  0  0
  7 29  1  0  0  0  0
  8  9  1  0  0  0  0
  9 10  1  0  0  0  0
  9 30  1  0  0  0  0
  9 31  1  0  0  0  0
 10 11  2  0  0  0  0
 10 12  1  0  0  0  0
 12 13  1  0  0  0  0
 12 32  1  0  0  0  0
 13 19  1  0  0  0  0
 13 14  1  0  0  0  0
 13 33  1  0  0  0  0
 14 15  1  0  0  0  0
 14 34  1  0  0  0  0
 14 35  1  0  0  0  0
 15 16  1  0  0  0  0
 15 36  1  0  0  0  0
 15 37  1  0  0  0  0
 16 17  1  0  0  0  0
 16 38  1  0  0  0  0
 16 39  1  0  0  0  0
 17 18  1  0  0  0  0
 17 40  1  0  0  0  0
 17 41  1  0  0  0  0
 18 19  1  0  0  0  0
 18 42  1  0  0  0  0
 19 20  2  0  0  0  0
M  END
> <s_m_source_file>
AV-unprocessed.smi

> <i_m_source_file_index>
2187

> <i_lp_mmshare_version>
43012

> <i_f3d_flags>
0

> <s_epik_input>
W0NIM11jMW5uKFtDSDNdKWMoW0NIM10pYzFbQ0gyXUMoPU8pW05IXVtDQEBIXTJbQ0gyXVtDSDJdW0NIMl1bQ0gyXVtOSF1DMj1P

> <s_epik_cmdline>
J2VwaWtfcHl0aG9uJywgJy1waCcsICc3LjAnLCAnLXRuJywgJzgnLCAnLW1hJywgJzIwMCcsICctbWV0YWxfYmluZGluZycsICctaW1hZScsICc8aW5maWxlLm1hZT4nLCAnLW9tYWUnLCAnPG91dGZpbGUubWFlPic=

> <r_lp_tautomer_probability>
1

> <r_epik_Ionization_Penalty>
0.00280384

> <r_epik_Ionization_Penalty_Charging>
0

> <r_epik_Ionization_Penalty_Neutral>
0.00280384

> <r_epik_State_Penalty>
0.00195959

> <r_epik_Charging_Adjusted_Penalty>
0.00195959

> <i_epik_Tot_Q>
0

> <i_epik_Tot_abs_Q>
0

> <r_epik_Metal_State_Penalty>
-0

> <b_epik_Metal_Only>
0

> <s_lp_Force_Field>
OPLS_2005

> <r_lp_Energy>
9.17358

> <b_lp_Chiralities_Consistent>
1

> <s_lp_Variant>
AV-unprocessed.smi:2187-1

> <Gold.Version>
5.8.1

> <Gold.Id.Protein>
6NUR|6NUR_protein|mol2

> <Gold.PLP.Fitness>
42.4922

> <Gold.PLP.PLP>
-37.2420

> <Gold.PLP.part.hbond>
-2.0000

> <Gold.PLP.part.metal>
0.0000

> <Gold.PLP.part.buried>
-4.0999

> <Gold.PLP.part.nonpolar>
-31.5245

> <Gold.PLP.part.repulsive>
0.2171

> <Gold.PLP.ligand.clash>
0.0000

> <Gold.PLP.ligand.torsion>
0.1251

> <Gold.PLP.Chemscore.Hbond>
1.8160

> <Gold.PLP.Chemscore.CHOScore>
0.0000

> <Gold.PLP.Chemscore.Metal>
0.0000

> <Gold.Chemscore.Hbonds>
donor molecule, donor type, donor heavy atom, donor atom, acceptor molecule, acceptor atom, score
      L1  H    12    32       P1  8028  0.82
      P1  H  7989  7998       L1    20  1.00

> <Gold.PLP.Chemscore.Internal.Correction>
0.0524

> <Gold.Rescore>
     Score         DG    S(hbond)    S(metal)    S(lipo)     H(rot)  DE(clash)    DE(int)     intcor
     12.70     -18.49       1.86        0.00      90.00       1.46       0.61       5.18       ----

> <Gold.Chemscore.Fitness>
12.6976

> <Gold.Chemscore.DG>
-18.4942

> <Gold.Chemscore.ZeroCoef>
-5.4800

> <Gold.Chemscore.Hbond>
1.8610

> <Gold.Chemscore.Metal>
0.0000

> <Gold.Chemscore.Lipo>
90.0032

> <Gold.Chemscore.Internal_Hbond>
0.0000

> <Gold.Chemscore.DEClash>
0.6128

> <Gold.Chemscore.DEInternal>
5.1837

> <Gold.Chemscore.Rot>
1.4578

> <Gold.Chemscore.Internal.Correction>
   9.000000E+99

> <Gold.Chemscore.Hbonds>
donor molecule, donor type, donor heavy atom, donor atom, acceptor molecule, acceptor atom, score
      L1  H    12    32       P1  8028  0.81
      P1  H  7989  7998       L1    20  0.94

> <Gold.Chemscore.Hbond.Weighted>
-6.2159

> <Gold.Chemscore.Metal.Weighted>
-0.0000

> <Gold.Chemscore.Lipo.Weighted>
-10.5304

> <Gold.Chemscore.Internal_Hbond.Weighted>
0.0000

> <Gold.Chemscore.DEClash.Weighted>
0.6128

> <Gold.Chemscore.DEInternal.Weighted>
5.1837

> <Gold.Chemscore.Rot.Weighted>
3.7321

> <Gold.Chemscore.Internal.Correction.Weighted>
   9.000000E+99

> <Gold.Protein.RotatedTorsions>
[ 6907 6896 6895 6894 ] final  157.12 input  -60.11 | X-H torsion
[ 7974 7965 7964 7962 ] final   27.59 input  175.53 | X-H torsion
[ 8008 7997 7996 7995 ] final   65.03 input   59.86 | X-H torsion
[ 10167 10162 10161 10158 ] final   83.74 input  -65.29 | X-H torsion
[ 10718 10713 10712 10709 ] final   20.75 input   66.30 | X-H torsion
[ 10763 10752 10751 10750 ] final -172.74 input  -60.55 | X-H torsion
[ 11005 11000 10999 10996 ] final -169.19 input  -57.11 | X-H torsion

> <Gold.Protein.ActiveResidues>
 VAL166  LYS551  ARG553  GLY616  TRP617  ASP618  TYR619  PRO620  LYS621  CYS622 
 ASP623  PHE694  ASN695  SER759  ASP760  ASP761  ALA762  ILE779  LEU786  VAL792 
 PHE793  MET794  SER795  GLU796  ALA797  LYS798  CYS799  TRP800  GLU811  SER814 

> <Gold.Protein.RotatedAtoms>
  152.0197  133.3894  159.4253 H   0  0  0  0  0  0  0  0  0  0  0  0  # atno 6907 bound_to 6896
  150.6891  134.3639  159.4972 H   0  0  0  0  0  0  0  0  0  0  0  0  # atno 6908 bound_to 6896
  152.1411  134.9061  160.0604 H   0  0  0  0  0  0  0  0  0  0  0  0  # atno 6909 bound_to 6896
  146.1776  139.7171  142.8923 H   0  0  0  0  0  0  0  0  0  0  0  0  # atno 7974 bound_to 7965
  155.6554  140.3497  155.4763 H   0  0  0  0  0  0  0  0  0  0  0  0  # atno 8008 bound_to 7997
  155.9813  140.1175  157.0747 H   0  0  0  0  0  0  0  0  0  0  0  0  # atno 8009 bound_to 7997
  154.4192  140.1137  156.5426 H   0  0  0  0  0  0  0  0  0  0  0  0  # atno 8010 bound_to 7997
  139.9152  144.6247  150.8496 H   0  0  0  0  0  0  0  0  0  0  0  0  # atno 10167 bound_to 10162
  157.1289  130.6582  149.5946 H   0  0  0  0  0  0  0  0  0  0  0  0  # atno 10718 bound_to 10713
  154.6158  135.2869  155.0381 H   0  0  0  0  0  0  0  0  0  0  0  0  # atno 10763 bound_to 10752
  154.1594  135.6490  153.4986 H   0  0  0  0  0  0  0  0  0  0  0  0  # atno 10764 bound_to 10752
  153.0214  135.5374  154.6929 H   0  0  0  0  0  0  0  0  0  0  0  0  # atno 10765 bound_to 10752
  140.5336  134.5592  157.5081 H   0  0  0  0  0  0  0  0  0  0  0  0  # atno 11005 bound_to 11000
  145.4168  141.0402  143.2986 LP  0  0  0  0  0  0  0  0  0  0  0  0  # atno 17320 bound_to 7965
  144.8261  139.5707  143.6965 LP  0  0  0  0  0  0  0  0  0  0  0  0  # atno 17321 bound_to 7965
  140.7676  143.3336  151.2356 LP  0  0  0  0  0  0  0  0  0  0  0  0  # atno 17342 bound_to 10162
  139.6908  143.9695  152.2858 LP  0  0  0  0  0  0  0  0  0  0  0  0  # atno 17343 bound_to 10162
  155.9812  130.4818  150.6816 LP  0  0  0  0  0  0  0  0  0  0  0  0  # atno 17370 bound_to 10713
  157.4410  131.0861  151.0943 LP  0  0  0  0  0  0  0  0  0  0  0  0  # atno 17371 bound_to 10713
  139.9541  134.7565  156.0381 LP  0  0  0  0  0  0  0  0  0  0  0  0  # atno 17394 bound_to 11000
  141.1267  133.6597  156.3357 LP  0  0  0  0  0  0  0  0  0  0  0  0  # atno 17395 bound_to 11000

$$$$
