AV-unprocessed.smi:1444|AV-procd|sdf|5881|dock1
  -GOLD-   22720 5563D 1   1.00000     0.00000
 Structure written by MMmdl.
 43 44  0  0  0  0  0  0  0  0  1 V2000
  151.0126  140.7746  157.9166 C   0  0  0  0  0  0  0  0  0  0  0  0
  150.1830  141.8430  158.3602 O   0  0  0  0  0  0  0  0  0  0  0  0
  150.7725  143.0574  158.6572 C   0  0  0  0  0  0  0  0  0  0  0  0
  152.1033  143.1982  158.4336 N   0  0  0  0  0  0  0  0  0  0  0  0
  152.6807  144.3837  158.7157 C   0  0  0  0  0  0  0  0  0  0  0  0
  151.9688  145.4845  159.2249 C   0  0  0  0  0  0  0  0  0  0  0  0
  150.5883  145.3412  159.4583 C   0  0  0  0  0  0  0  0  0  0  0  0
  149.9684  144.0980  159.1795 C   0  0  0  0  0  0  0  0  0  0  0  0
  148.5810  143.8363  159.3624 N   0  0  0  0  0  0  0  0  0  0  0  0
  147.6615  144.5416  160.0436 C   0  0  0  0  0  0  0  0  0  0  0  0
  147.8717  145.5848  160.6612 O   0  0  0  0  0  0  0  0  0  0  0  0
  146.4581  143.9539  159.9736 N   0  0  0  0  0  0  0  0  0  0  0  0
  145.2302  144.4502  160.5914 C   0  0  2  0  0  0  0  0  0  0  0  0
  144.7714  143.4045  161.6202 C   0  0  0  0  0  0  0  0  0  0  0  0
  144.2051  144.7700  159.4749 C   0  0  0  0  0  0  0  0  0  0  0  0
  144.7474  145.2555  158.2022 N   0  0  0  0  0  0  0  0  0  0  0  0
  144.8687  146.7131  158.1567 C   0  0  0  0  0  0  0  0  0  0  0  0
  145.4097  147.2059  156.8029 C   0  0  0  0  0  0  0  0  0  0  0  0
  144.5628  146.7480  155.7547 O   0  0  0  0  0  0  0  0  0  0  0  0
  144.4405  145.3303  155.7324 C   0  0  0  0  0  0  0  0  0  0  0  0
  143.9011  144.8382  157.0867 C   0  0  0  0  0  0  0  0  0  0  0  0
  150.3962  139.8984  157.7165 H   0  0  0  0  0  0  0  0  0  0  0  0
  151.7462  140.4965  158.6746 H   0  0  0  0  0  0  0  0  0  0  0  0
  151.5316  141.0305  156.9918 H   0  0  0  0  0  0  0  0  0  0  0  0
  153.7409  144.4586  158.5244 H   0  0  0  0  0  0  0  0  0  0  0  0
  152.4695  146.4194  159.4284 H   0  0  0  0  0  0  0  0  0  0  0  0
  150.0407  146.1908  159.8329 H   0  0  0  0  0  0  0  0  0  0  0  0
  148.2560  142.9722  158.9538 H   0  0  0  0  0  0  0  0  0  0  0  0
  146.3821  143.0961  159.4467 H   0  0  0  0  0  0  0  0  0  0  0  0
  145.4612  145.3696  161.1329 H   0  0  0  0  0  0  0  0  0  0  0  0
  144.0388  143.8170  162.3114 H   0  0  0  0  0  0  0  0  0  0  0  0
  145.6077  143.0674  162.2340 H   0  0  0  0  0  0  0  0  0  0  0  0
  144.3397  142.5274  161.1371 H   0  0  0  0  0  0  0  0  0  0  0  0
  143.6726  143.8382  159.2769 H   0  0  0  0  0  0  0  0  0  0  0  0
  143.4417  145.4560  159.8450 H   0  0  0  0  0  0  0  0  0  0  0  0
  143.8951  147.1705  158.3394 H   0  0  0  0  0  0  0  0  0  0  0  0
  145.5276  147.0759  158.9389 H   0  0  0  0  0  0  0  0  0  0  0  0
  145.4441  148.2953  156.7820 H   0  0  0  0  0  0  0  0  0  0  0  0
  146.4281  146.8493  156.6404 H   0  0  0  0  0  0  0  0  0  0  0  0
  143.7632  145.0441  154.9277 H   0  0  0  0  0  0  0  0  0  0  0  0
  145.4087  144.8774  155.5143 H   0  0  0  0  0  0  0  0  0  0  0  0
  143.8292  143.7503  157.0634 H   0  0  0  0  0  0  0  0  0  0  0  0
  142.8869  145.2146  157.2296 H   0  0  0  0  0  0  0  0  0  0  0  0
  1  2  1  0  0  0  0
  1 22  1  0  0  0  0
  1 23  1  0  0  0  0
  1 24  1  0  0  0  0
  2  3  1  0  0  0  0
  3  8  1  0  0  0  0
  3  4  2  0  0  0  0
  4  5  1  0  0  0  0
  5  6  2  0  0  0  0
  5 25  1  0  0  0  0
  6  7  1  0  0  0  0
  6 26  1  0  0  0  0
  7  8  2  0  0  0  0
  7 27  1  0  0  0  0
  8  9  1  0  0  0  0
  9 10  1  0  0  0  0
  9 28  1  0  0  0  0
 10 11  2  0  0  0  0
 10 12  1  0  0  0  0
 12 13  1  0  0  0  0
 12 29  1  0  0  0  0
 13 14  1  0  0  0  0
 13 15  1  0  0  0  0
 13 30  1  0  0  0  0
 14 31  1  0  0  0  0
 14 32  1  0  0  0  0
 14 33  1  0  0  0  0
 15 16  1  0  0  0  0
 15 34  1  0  0  0  0
 15 35  1  0  0  0  0
 16 21  1  0  0  0  0
 16 17  1  0  0  0  0
 17 18  1  0  0  0  0
 17 36  1  0  0  0  0
 17 37  1  0  0  0  0
 18 19  1  0  0  0  0
 18 38  1  0  0  0  0
 18 39  1  0  0  0  0
 19 20  1  0  0  0  0
 20 21  1  0  0  0  0
 20 40  1  0  0  0  0
 20 41  1  0  0  0  0
 21 42  1  0  0  0  0
 21 43  1  0  0  0  0
M  END
> <s_m_source_file>
AV-unprocessed.smi

> <i_m_source_file_index>
1444

> <i_lp_mmshare_version>
43012

> <i_f3d_flags>
0

> <s_epik_input>
W0NIM11PYzFuW2NIXVtjSF1bY0hdYzFbTkhdQyg9TylbTkhdW0NASF0oW0NIM10pW0NIMl1OMltDSDJdW0NIMl1PW0NIMl1bQ0gyXTI=

> <s_epik_cmdline>
J2VwaWtfcHl0aG9uJywgJy1waCcsICc3LjAnLCAnLXRuJywgJzgnLCAnLW1hJywgJzIwMCcsICctbWV0YWxfYmluZGluZycsICctaW1hZScsICc8aW5maWxlLm1hZT4nLCAnLW9tYWUnLCAnPG91dGZpbGUubWFlPic=

> <r_lp_tautomer_probability>
1

> <r_epik_Ionization_Penalty>
0.266086

> <r_epik_Ionization_Penalty_Charging>
0

> <r_epik_Ionization_Penalty_Neutral>
0.266086

> <r_epik_State_Penalty>
0.257924

> <r_epik_Charging_Adjusted_Penalty>
0.257924

> <i_epik_Tot_Q>
0

> <i_epik_Tot_abs_Q>
0

> <r_epik_Metal_State_Penalty>
0.25792

> <b_epik_Metal_Only>
0

> <s_lp_Force_Field>
OPLS_2005

> <r_lp_Energy>
29.2367

> <b_lp_Chiralities_Consistent>
1

> <s_lp_Variant>
AV-unprocessed.smi:1444-1

> <Gold.Version>
5.8.1

> <Gold.Id.Protein>
6NUR|6NUR_protein|mol2

> <Gold.PLP.Fitness>
35.8484

> <Gold.PLP.PLP>
-37.1922

> <Gold.PLP.part.hbond>
-1.0000

> <Gold.PLP.part.metal>
0.0000

> <Gold.PLP.part.buried>
-8.4121

> <Gold.PLP.part.nonpolar>
-30.0373

> <Gold.PLP.part.repulsive>
0.8920

> <Gold.PLP.ligand.clash>
0.0000

> <Gold.PLP.ligand.torsion>
0.7604

> <Gold.PLP.Chemscore.Hbond>
0.0000

> <Gold.PLP.Chemscore.CHOScore>
0.0000

> <Gold.PLP.Chemscore.Metal>
0.0000

> <Gold.PLP.Chemscore.Internal.Correction>
0.1770

> <Gold.Rescore>
     Score         DG    S(hbond)    S(metal)    S(lipo)     H(rot)  DE(clash)    DE(int)     intcor
     10.45     -11.46       0.00        0.00      88.72       1.72       0.03       0.98       ----

> <Gold.Chemscore.Fitness>
10.4488

> <Gold.Chemscore.DG>
-11.4593

> <Gold.Chemscore.ZeroCoef>
-5.4800

> <Gold.Chemscore.Hbond>
0.0000

> <Gold.Chemscore.Metal>
0.0000

> <Gold.Chemscore.Lipo>
88.7159

> <Gold.Chemscore.Internal_Hbond>
0.0000

> <Gold.Chemscore.DEClash>
0.0310

> <Gold.Chemscore.DEInternal>
0.9796

> <Gold.Chemscore.Rot>
1.7189

> <Gold.Chemscore.Internal.Correction>
   9.000000E+99

> <Gold.Chemscore.Hbond.Weighted>
-0.0000

> <Gold.Chemscore.Metal.Weighted>
-0.0000

> <Gold.Chemscore.Lipo.Weighted>
-10.3798

> <Gold.Chemscore.Internal_Hbond.Weighted>
0.0000

> <Gold.Chemscore.DEClash.Weighted>
0.0310

> <Gold.Chemscore.DEInternal.Weighted>
0.9796

> <Gold.Chemscore.Rot.Weighted>
4.4004

> <Gold.Chemscore.Internal.Correction.Weighted>
   9.000000E+99

> <Gold.Protein.RotatedTorsions>
[ 6907 6896 6895 6894 ] final  -98.45 input  -60.11 | X-H torsion
[ 7974 7965 7964 7962 ] final  -97.92 input  175.53 | X-H torsion
[ 8008 7997 7996 7995 ] final  145.30 input   59.86 | X-H torsion
[ 10167 10162 10161 10158 ] final  -21.14 input  -65.29 | X-H torsion
[ 10718 10713 10712 10709 ] final  166.90 input   66.30 | X-H torsion
[ 10763 10752 10751 10750 ] final   47.28 input  -60.55 | X-H torsion
[ 11005 11000 10999 10996 ] final   59.11 input  -57.11 | X-H torsion

> <Gold.Protein.ActiveResidues>
 VAL166  LYS551  ARG553  GLY616  TRP617  ASP618  TYR619  PRO620  LYS621  CYS622 
 ASP623  PHE694  ASN695  SER759  ASP760  ASP761  ALA762  ILE779  LEU786  VAL792 
 PHE793  MET794  SER795  GLU796  ALA797  LYS798  CYS799  TRP800  GLU811  SER814 

> <Gold.Protein.RotatedAtoms>
  150.7047  134.1193  159.4028 H   0  0  0  0  0  0  0  0  0  0  0  0  # atno 6907 bound_to 6896
  151.9179  135.0308  160.0529 H   0  0  0  0  0  0  0  0  0  0  0  0  # atno 6908 bound_to 6896
  152.2280  133.5001  159.5236 H   0  0  0  0  0  0  0  0  0  0  0  0  # atno 6909 bound_to 6896
  145.3274  140.9434  143.2681 H   0  0  0  0  0  0  0  0  0  0  0  0  # atno 7974 bound_to 7965
  156.2886  140.2213  156.5193 H   0  0  0  0  0  0  0  0  0  0  0  0  # atno 8008 bound_to 7997
  154.7542  140.0478  157.0941 H   0  0  0  0  0  0  0  0  0  0  0  0  # atno 8009 bound_to 7997
  155.0071  140.3108  155.4847 H   0  0  0  0  0  0  0  0  0  0  0  0  # atno 8010 bound_to 7997
  140.7280  143.4656  151.0318 H   0  0  0  0  0  0  0  0  0  0  0  0  # atno 10167 bound_to 10162
  157.0593  131.0335  151.2653 H   0  0  0  0  0  0  0  0  0  0  0  0  # atno 10718 bound_to 10713
  152.9801  135.5981  154.3737 H   0  0  0  0  0  0  0  0  0  0  0  0  # atno 10763 bound_to 10752
  154.3408  135.2767  155.2425 H   0  0  0  0  0  0  0  0  0  0  0  0  # atno 10764 bound_to 10752
  154.4507  135.5990  153.6245 H   0  0  0  0  0  0  0  0  0  0  0  0  # atno 10765 bound_to 10752
  140.0328  134.5988  155.9485 H   0  0  0  0  0  0  0  0  0  0  0  0  # atno 11005 bound_to 11000
  144.8891  139.4799  143.6686 LP  0  0  0  0  0  0  0  0  0  0  0  0  # atno 17320 bound_to 7965
  146.3059  139.7578  142.9057 LP  0  0  0  0  0  0  0  0  0  0  0  0  # atno 17321 bound_to 7965
  139.8344  143.7648  152.3180 LP  0  0  0  0  0  0  0  0  0  0  0  0  # atno 17342 bound_to 10162
  139.7775  144.7456  151.0136 LP  0  0  0  0  0  0  0  0  0  0  0  0  # atno 17343 bound_to 10162
  157.4968  130.7855  149.7563 LP  0  0  0  0  0  0  0  0  0  0  0  0  # atno 17370 bound_to 10713
  155.9983  130.3895  150.2706 LP  0  0  0  0  0  0  0  0  0  0  0  0  # atno 17371 bound_to 10713
  141.1840  133.6552  156.5140 LP  0  0  0  0  0  0  0  0  0  0  0  0  # atno 17394 bound_to 11000
  140.4198  134.7198  157.4883 LP  0  0  0  0  0  0  0  0  0  0  0  0  # atno 17395 bound_to 11000

$$$$
