AV-unprocessed.smi:2973|AV-procd|sdf|11341|dock10
  -GOLD-   2272016253D 1   1.00000     0.00000
 Structure written by MMmdl.
 50 52  0  0  0  0  0  0  0  0  2 V2000
  146.7893  134.1067  152.9672 C   0  0  0  0  0  0  0  0  0  0  0  0
  145.8595  133.2422  152.0890 C   0  0  2  0  0  0  0  0  0  0  0  0
  146.4341  133.0992  150.6628 C   0  0  0  0  0  0  0  0  0  0  0  0
  145.5759  132.1653  149.7955 C   0  0  0  0  0  0  0  0  0  0  0  0
  144.1162  132.6364  149.7365 C   0  0  0  0  0  0  0  0  0  0  0  0
  143.5216  132.7852  151.1483 C   0  0  0  0  0  0  0  0  0  0  0  0
  144.3660  133.7000  152.0709 C   0  0  1  0  0  0  0  0  0  0  0  0
  143.8024  133.6966  153.4098 N   0  0  0  0  0  0  0  0  0  0  0  0
  143.3686  134.8998  153.8041 C   0  0  0  0  0  0  0  0  0  0  0  0
  142.8687  135.1499  154.8999 O   0  0  0  0  0  0  0  0  0  0  0  0
  143.5853  135.7743  152.8063 N   0  0  0  0  0  0  0  0  0  0  0  0
  143.2841  137.2088  152.8918 C   0  0  0  0  0  0  0  0  0  0  0  0
  141.8798  137.4911  153.4439 C   0  0  0  0  0  0  0  0  0  0  0  0
  141.1371  136.5696  153.7863 O   0  0  0  0  0  0  0  0  0  0  0  0
  141.5310  138.7832  153.5332 N   0  0  0  0  0  0  0  0  0  0  0  0
  140.2449  139.2689  154.0192 C   0  0  0  0  0  0  0  0  0  0  0  0
  140.3332  140.7270  154.5034 C   0  0  0  0  0  0  0  0  0  0  0  0
  141.4654  140.9366  155.4893 C   0  0  0  0  0  0  0  0  0  0  0  0
  141.5372  140.2295  156.7091 C   0  0  0  0  0  0  0  0  0  0  0  0
  142.6223  140.4650  157.5789 C   0  0  0  0  0  0  0  0  0  0  0  0
  143.6114  141.4005  157.2109 C   0  0  0  0  0  0  0  0  0  0  0  0
  143.4911  142.0771  155.9799 C   0  0  0  0  0  0  0  0  0  0  0  0
  142.4369  141.8234  155.1733 N   0  3  0  0  0  0  0  0  0  0  0  0
  144.1648  135.1833  151.7523 C   0  0  0  0  0  0  0  0  0  0  0  0
  144.5014  135.7251  150.6993 O   0  0  0  0  0  0  0  0  0  0  0  0
  146.8818  135.1225  152.5825 H   0  0  0  0  0  0  0  0  0  0  0  0
  147.7928  133.6820  153.0039 H   0  0  0  0  0  0  0  0  0  0  0  0
  146.4304  134.1706  153.9946 H   0  0  0  0  0  0  0  0  0  0  0  0
  145.8736  132.2448  152.5313 H   0  0  0  0  0  0  0  0  0  0  0  0
  146.5132  134.0759  150.1848 H   0  0  0  0  0  0  0  0  0  0  0  0
  147.4502  132.7059  150.7121 H   0  0  0  0  0  0  0  0  0  0  0  0
  145.9888  132.1109  148.7879 H   0  0  0  0  0  0  0  0  0  0  0  0
  145.6155  131.1532  150.2001 H   0  0  0  0  0  0  0  0  0  0  0  0
  144.0568  133.5827  149.1991 H   0  0  0  0  0  0  0  0  0  0  0  0
  143.5228  131.9253  149.1613 H   0  0  0  0  0  0  0  0  0  0  0  0
  142.5000  133.1606  151.0700 H   0  0  0  0  0  0  0  0  0  0  0  0
  143.4399  131.7961  151.6013 H   0  0  0  0  0  0  0  0  0  0  0  0
  143.7593  132.8644  153.9799 H   0  0  0  0  0  0  0  0  0  0  0  0
  144.0138  137.7149  153.5259 H   0  0  0  0  0  0  0  0  0  0  0  0
  143.3842  137.6622  151.9038 H   0  0  0  0  0  0  0  0  0  0  0  0
  142.2032  139.4774  153.2402 H   0  0  0  0  0  0  0  0  0  0  0  0
  139.4918  139.1715  153.2352 H   0  0  0  0  0  0  0  0  0  0  0  0
  139.9275  138.6215  154.8370 H   0  0  0  0  0  0  0  0  0  0  0  0
  140.4743  141.3961  153.6534 H   0  0  0  0  0  0  0  0  0  0  0  0
  139.3978  141.0277  154.9772 H   0  0  0  0  0  0  0  0  0  0  0  0
  140.7728  139.5136  156.9754 H   0  0  0  0  0  0  0  0  0  0  0  0
  142.6950  139.9338  158.5169 H   0  0  0  0  0  0  0  0  0  0  0  0
  144.4504  141.5954  157.8631 H   0  0  0  0  0  0  0  0  0  0  0  0
  144.2002  142.8078  155.6188 H   0  0  0  0  0  0  0  0  0  0  0  0
  142.3704  142.3247  154.2870 H   0  0  0  0  0  0  0  0  0  0  0  0
  1  2  1  0  0  0  0
  1 26  1  0  0  0  0
  1 27  1  0  0  0  0
  1 28  1  0  0  0  0
  2  7  1  0  0  0  0
  2  3  1  0  0  0  0
  2 29  1  0  0  0  0
  3  4  1  0  0  0  0
  3 30  1  0  0  0  0
  3 31  1  0  0  0  0
  4  5  1  0  0  0  0
  4 32  1  0  0  0  0
  4 33  1  0  0  0  0
  5  6  1  0  0  0  0
  5 34  1  0  0  0  0
  5 35  1  0  0  0  0
  6  7  1  0  0  0  0
  6 36  1  0  0  0  0
  6 37  1  0  0  0  0
  7 24  1  0  0  0  0
  7  8  1  0  0  0  0
  8  9  1  0  0  0  0
  8 38  1  0  0  0  0
  9 10  2  0  0  0  0
  9 11  1  0  0  0  0
 11 12  1  0  0  0  0
 11 24  1  0  0  0  0
 12 13  1  0  0  0  0
 12 39  1  0  0  0  0
 12 40  1  0  0  0  0
 13 14  2  0  0  0  0
 13 15  1  0  0  0  0
 15 16  1  0  0  0  0
 15 41  1  0  0  0  0
 16 17  1  0  0  0  0
 16 42  1  0  0  0  0
 16 43  1  0  0  0  0
 17 18  1  0  0  0  0
 17 44  1  0  0  0  0
 17 45  1  0  0  0  0
 18 23  1  0  0  0  0
 18 19  2  0  0  0  0
 19 20  1  0  0  0  0
 19 46  1  0  0  0  0
 20 21  2  0  0  0  0
 20 47  1  0  0  0  0
 21 22  1  0  0  0  0
 21 48  1  0  0  0  0
 22 23  2  0  0  0  0
 22 49  1  0  0  0  0
 23 50  1  0  0  0  0
 24 25  2  0  0  0  0
M  CHG  1  23   1
M  END
> <s_m_source_file>
AV-unprocessed.smi

> <i_m_source_file_index>
2973

> <i_lp_mmshare_version>
43012

> <i_f3d_flags>
0

> <s_epik_input>
W0NIMl0xW0NIMl1bQ0gyXVtDSDJdW0NAQEhdKFtDSDNdKVtDQF0xMltOSF1DKD1PKU4oQzI9TylbQ0gyXUMoPU8pW05IXVtDSDJdW0NIMl1jM1tjSF1bY0hdW2NIXVtjSF1uMw==

> <s_epik_cmdline>
J2VwaWtfcHl0aG9uJywgJy1waCcsICc3LjAnLCAnLXRuJywgJzgnLCAnLW1hJywgJzIwMCcsICctbWV0YWxfYmluZGluZycsICctaW1hZScsICc8aW5maWxlLm1hZT4nLCAnLW9tYWUnLCAnPG91dGZpbGUubWFlPic=

> <r_lp_tautomer_probability>
1

> <r_epik_Ionization_Penalty>
1.90043

> <r_epik_Ionization_Penalty_Charging>
1.90039

> <r_epik_Ionization_Penalty_Neutral>
4.65525e-05

> <r_epik_State_Penalty>
2.02162

> <r_epik_Charging_Adjusted_Penalty>
3.922

> <i_epik_Tot_Q>
1

> <i_epik_Tot_abs_Q>
1

> <r_epik_Metal_State_Penalty>
2.06631

> <b_epik_Metal_Only>
0

> <s_lp_Force_Field>
OPLS_2005

> <r_lp_Energy>
22.6609

> <b_lp_Chiralities_Consistent>
1

> <s_lp_Variant>
AV-unprocessed.smi:2973-5

> <Gold.Version>
5.8.1

> <Gold.Id.Protein>
6NUR|6NUR_protein|mol2

> <Gold.PLP.Fitness>
50.0494

> <Gold.PLP.PLP>
-38.7241

> <Gold.PLP.part.hbond>
-5.2350

> <Gold.PLP.part.metal>
0.0000

> <Gold.PLP.part.buried>
-4.8401

> <Gold.PLP.part.nonpolar>
-28.7433

> <Gold.PLP.part.repulsive>
1.1289

> <Gold.PLP.ligand.clash>
0.0000

> <Gold.PLP.ligand.torsion>
0.3375

> <Gold.PLP.Chemscore.Hbond>
3.9920

> <Gold.PLP.Chemscore.CHOScore>
0.0000

> <Gold.PLP.Chemscore.Metal>
0.0000

> <Gold.Chemscore.Hbonds>
donor molecule, donor type, donor heavy atom, donor atom, acceptor molecule, acceptor atom, score
      L1  H     8    38       P1 10957  0.88
      L1  H    15    41       P1 10175  1.00
      L1  H    23    50       P1 10174  1.33

> <Gold.PLP.Chemscore.Internal.Correction>
0.0243

> <Gold.Rescore>
     Score         DG    S(hbond)    S(metal)    S(lipo)     H(rot)  DE(clash)    DE(int)     intcor
     11.91     -16.51       2.63        0.00      62.12       1.96       0.37       4.23       ----

> <Gold.Chemscore.Fitness>
11.9079

> <Gold.Chemscore.DG>
-16.5080

> <Gold.Chemscore.ZeroCoef>
-5.4800

> <Gold.Chemscore.Hbond>
2.6311

> <Gold.Chemscore.Metal>
0.0000

> <Gold.Chemscore.Lipo>
62.1165

> <Gold.Chemscore.Internal_Hbond>
0.0000

> <Gold.Chemscore.DEClash>
0.3660

> <Gold.Chemscore.DEInternal>
4.2341

> <Gold.Chemscore.Rot>
1.9638

> <Gold.Chemscore.Internal.Correction>
   9.000000E+99

> <Gold.Chemscore.Hbonds>
donor molecule, donor type, donor heavy atom, donor atom, acceptor molecule, acceptor atom, score
      L1  H     8    38       P1 10957  0.84
      L1  H    15    41       P1 10175  0.96
      L1  H    23    50       P1 10174  0.39

> <Gold.Chemscore.Hbond.Weighted>
-8.7878

> <Gold.Chemscore.Metal.Weighted>
-0.0000

> <Gold.Chemscore.Lipo.Weighted>
-7.2676

> <Gold.Chemscore.Internal_Hbond.Weighted>
0.0000

> <Gold.Chemscore.DEClash.Weighted>
0.3660

> <Gold.Chemscore.DEInternal.Weighted>
4.2341

> <Gold.Chemscore.Rot.Weighted>
5.0274

> <Gold.Chemscore.Internal.Correction.Weighted>
   9.000000E+99

> <Gold.Protein.RotatedTorsions>
[ 6907 6896 6895 6894 ] final -100.09 input  -60.11 | X-H torsion
[ 7974 7965 7964 7962 ] final   96.64 input  175.53 | X-H torsion
[ 8008 7997 7996 7995 ] final   60.90 input   59.86 | X-H torsion
[ 10167 10162 10161 10158 ] final  -82.38 input  -65.29 | X-H torsion
[ 10718 10713 10712 10709 ] final   36.23 input   66.30 | X-H torsion
[ 10763 10752 10751 10750 ] final   64.08 input  -60.55 | X-H torsion
[ 11005 11000 10999 10996 ] final  -98.50 input  -57.11 | X-H torsion

> <Gold.Protein.ActiveResidues>
 VAL166  LYS551  ARG553  GLY616  TRP617  ASP618  TYR619  PRO620  LYS621  CYS622 
 ASP623  PHE694  ASN695  SER759  ASP760  ASP761  ALA762  ILE779  LEU786  VAL792 
 PHE793  MET794  SER795  GLU796  ALA797  LYS798  CYS799  TRP800  GLU811  SER814 

> <Gold.Protein.RotatedAtoms>
  150.7103  134.0940  159.3941 H   0  0  0  0  0  0  0  0  0  0  0  0  # atno 6907 bound_to 6896
  151.8926  135.0408  160.0508 H   0  0  0  0  0  0  0  0  0  0  0  0  # atno 6908 bound_to 6896
  152.2479  133.5155  159.5345 H   0  0  0  0  0  0  0  0  0  0  0  0  # atno 6909 bound_to 6896
  145.4361  139.2305  143.3117 H   0  0  0  0  0  0  0  0  0  0  0  0  # atno 7974 bound_to 7965
  155.5898  140.3492  155.4563 H   0  0  0  0  0  0  0  0  0  0  0  0  # atno 8008 bound_to 7997
  156.0310  140.1274  157.0283 H   0  0  0  0  0  0  0  0  0  0  0  0  # atno 8009 bound_to 7997
  154.4352  140.1043  156.6085 H   0  0  0  0  0  0  0  0  0  0  0  0  # atno 8010 bound_to 7997
  140.4325  143.2543  151.8740 H   0  0  0  0  0  0  0  0  0  0  0  0  # atno 10167 bound_to 10162
  157.3324  130.7504  149.6856 H   0  0  0  0  0  0  0  0  0  0  0  0  # atno 10718 bound_to 10713
  153.0042  135.5406  154.6453 H   0  0  0  0  0  0  0  0  0  0  0  0  # atno 10763 bound_to 10752
  154.5698  135.2840  155.0840 H   0  0  0  0  0  0  0  0  0  0  0  0  # atno 10764 bound_to 10752
  154.2010  135.6484  153.5140 H   0  0  0  0  0  0  0  0  0  0  0  0  # atno 10765 bound_to 10752
  141.1342  133.8250  157.0848 H   0  0  0  0  0  0  0  0  0  0  0  0  # atno 11005 bound_to 11000
  146.2581  140.5104  142.8865 LP  0  0  0  0  0  0  0  0  0  0  0  0  # atno 17320 bound_to 7965
  144.8151  140.6454  143.6389 LP  0  0  0  0  0  0  0  0  0  0  0  0  # atno 17321 bound_to 7965
  139.4785  144.5319  151.8654 LP  0  0  0  0  0  0  0  0  0  0  0  0  # atno 17342 bound_to 10162
  140.4411  144.1985  150.5891 LP  0  0  0  0  0  0  0  0  0  0  0  0  # atno 17343 bound_to 10162
  155.9697  130.4191  150.4361 LP  0  0  0  0  0  0  0  0  0  0  0  0  # atno 17370 bound_to 10713
  157.2395  131.0522  151.2445 LP  0  0  0  0  0  0  0  0  0  0  0  0  # atno 17371 bound_to 10713
  140.0429  134.9845  157.0995 LP  0  0  0  0  0  0  0  0  0  0  0  0  # atno 17394 bound_to 11000
  140.4107  134.1984  155.7163 LP  0  0  0  0  0  0  0  0  0  0  0  0  # atno 17395 bound_to 11000

$$$$
