AV-unprocessed.smi:2695|AV-procd|sdf|10411|dock1
  -GOLD-   2272014443D 1   1.00000     0.00000
 Structure written by MMmdl.
 42 43  0  0  0  0  0  0  0  0  1 V2000
  149.2145  140.5239  153.9094 C   0  0  0  0  0  0  0  0  0  0  0  0
  148.0372  140.8342  154.8255 C   0  0  0  0  0  0  0  0  0  0  0  0
  146.9388  141.4373  154.3143 C   0  0  0  0  0  0  0  0  0  0  0  0
  145.7970  141.7865  155.1776 C   0  0  0  0  0  0  0  0  0  0  0  0
  144.7761  142.3065  154.7321 O   0  0  0  0  0  0  0  0  0  0  0  0
  145.9572  141.4809  156.6062 C   0  0  0  0  0  0  0  0  0  0  0  0
  147.0857  140.8757  157.0237 C   0  0  0  0  0  0  0  0  0  0  0  0
  147.2883  140.5966  158.3205 O   0  0  0  0  0  0  0  0  0  0  0  0
  148.1534  140.4873  156.1903 N   0  0  0  0  0  0  0  0  0  0  0  0
  149.3182  139.7507  156.7146 C   0  0  0  0  0  0  0  0  0  0  0  0
  150.5861  140.6095  156.8226 C   0  0  0  0  0  0  0  0  0  0  0  0
  151.4435  140.5912  155.9382 O   0  0  0  0  0  0  0  0  0  0  0  0
  150.6878  141.3552  157.9335 N   0  0  0  0  0  0  0  0  0  0  0  0
  151.7843  142.2678  158.2638 C   0  0  2  0  0  0  0  0  0  0  0  0
  152.5927  141.6996  159.4598 C   0  0  0  0  0  0  0  0  0  0  0  0
  153.8980  142.4413  159.7727 C   0  0  0  0  0  0  0  0  0  0  0  0
  154.7415  141.4618  160.5964 C   0  0  0  0  0  0  0  0  0  0  0  0
  154.1949  140.0603  160.2925 C   0  0  0  0  0  0  0  0  0  0  0  0
  153.0709  140.2532  159.2707 C   0  0  0  0  0  0  0  0  0  0  0  0
  151.1946  143.6747  158.5156 C   0  0  0  0  0  0  0  0  0  0  0  0
  150.4012  144.0193  157.5000 F   0  0  0  0  0  0  0  0  0  0  0  0
  150.4786  143.6893  159.6405 F   0  0  0  0  0  0  0  0  0  0  0  0
  152.1583  144.5904  158.6040 F   0  0  0  0  0  0  0  0  0  0  0  0
  149.1367  141.0797  152.9743 H   0  0  0  0  0  0  0  0  0  0  0  0
  149.2354  139.4622  153.6624 H   0  0  0  0  0  0  0  0  0  0  0  0
  150.1667  140.8015  154.3612 H   0  0  0  0  0  0  0  0  0  0  0  0
  146.8783  141.6914  153.2658 H   0  0  0  0  0  0  0  0  0  0  0  0
  145.1705  141.7574  157.2932 H   0  0  0  0  0  0  0  0  0  0  0  0
  149.0970  139.3277  157.6953 H   0  0  0  0  0  0  0  0  0  0  0  0
  149.5368  138.8757  156.1035 H   0  0  0  0  0  0  0  0  0  0  0  0
  149.9342  141.3020  158.6034 H   0  0  0  0  0  0  0  0  0  0  0  0
  152.4575  142.3507  157.4088 H   0  0  0  0  0  0  0  0  0  0  0  0
  151.9677  141.7277  160.3540 H   0  0  0  0  0  0  0  0  0  0  0  0
  154.4215  142.6788  158.8455 H   0  0  0  0  0  0  0  0  0  0  0  0
  153.7312  143.3768  160.3071 H   0  0  0  0  0  0  0  0  0  0  0  0
  155.8004  141.5484  160.3502 H   0  0  0  0  0  0  0  0  0  0  0  0
  154.6365  141.6763  161.6605 H   0  0  0  0  0  0  0  0  0  0  0  0
  154.9687  139.3921  159.9132 H   0  0  0  0  0  0  0  0  0  0  0  0
  153.7982  139.6146  161.2056 H   0  0  0  0  0  0  0  0  0  0  0  0
  152.2701  139.5242  159.4000 H   0  0  0  0  0  0  0  0  0  0  0  0
  153.4718  140.1249  158.2641 H   0  0  0  0  0  0  0  0  0  0  0  0
  146.5897  141.0019  158.8111 H   0  0  0  0  0  0  0  0  0  0  0  0
  1  2  1  0  0  0  0
  1 24  1  0  0  0  0
  1 25  1  0  0  0  0
  1 26  1  0  0  0  0
  2  9  1  0  0  0  0
  2  3  2  0  0  0  0
  3  4  1  0  0  0  0
  3 27  1  0  0  0  0
  4  5  2  0  0  0  0
  4  6  1  0  0  0  0
  6  7  2  0  0  0  0
  6 28  1  0  0  0  0
  7  8  1  0  0  0  0
  7  9  1  0  0  0  0
  8 42  1  0  0  0  0
  9 10  1  0  0  0  0
 10 11  1  0  0  0  0
 10 29  1  0  0  0  0
 10 30  1  0  0  0  0
 11 12  2  0  0  0  0
 11 13  1  0  0  0  0
 13 14  1  0  0  0  0
 13 31  1  0  0  0  0
 14 15  1  0  0  0  0
 14 20  1  0  0  0  0
 14 32  1  0  0  0  0
 15 19  1  0  0  0  0
 15 16  1  0  0  0  0
 15 33  1  0  0  0  0
 16 17  1  0  0  0  0
 16 34  1  0  0  0  0
 16 35  1  0  0  0  0
 17 18  1  0  0  0  0
 17 36  1  0  0  0  0
 17 37  1  0  0  0  0
 18 19  1  0  0  0  0
 18 38  1  0  0  0  0
 18 39  1  0  0  0  0
 19 40  1  0  0  0  0
 19 41  1  0  0  0  0
 20 21  1  0  0  0  0
 20 22  1  0  0  0  0
 20 23  1  0  0  0  0
M  END
> <s_m_source_file>
AV-unprocessed.smi

> <i_m_source_file_index>
2695

> <i_lp_mmshare_version>
43012

> <i_f3d_flags>
0

> <s_epik_input>
W0NIM11jMVtjSF1jKFtPSF0pW2NIXWMoPU8pbjFbQ0gyXUMoPU8pW05IXVtDQEBIXShDKEYpKEYpRilbQ0hdMltDSDJdW0NIMl1bQ0gyXVtDSDJdMg==

> <s_epik_cmdline>
J2VwaWtfcHl0aG9uJywgJy1waCcsICc3LjAnLCAnLXRuJywgJzgnLCAnLW1hJywgJzIwMCcsICctbWV0YWxfYmluZGluZycsICctaW1hZScsICc8aW5maWxlLm1hZT4nLCAnLW9tYWUnLCAnPG91dGZpbGUubWFlPic=

> <r_epik_Ionization_Penalty>
1.35977e-07

> <r_epik_Ionization_Penalty_Charging>
0

> <r_epik_Ionization_Penalty_Neutral>
1.35977e-07

> <r_epik_State_Penalty>
2.53185

> <r_epik_Charging_Adjusted_Penalty>
2.53185

> <i_epik_Tot_Q>
0

> <i_epik_Tot_abs_Q>
0

> <r_epik_Metal_State_Penalty>
2.53184

> <b_epik_Metal_Only>
0

> <s_lp_Force_Field>
OPLS_2005

> <r_lp_Energy>
25.5635

> <b_lp_Chiralities_Consistent>
1

> <s_lp_Variant>
AV-unprocessed.smi:2695-5

> <Gold.Version>
5.8.1

> <Gold.Id.Protein>
6NUR|6NUR_protein|mol2

> <Gold.PLP.Fitness>
41.3702

> <Gold.PLP.PLP>
-42.3897

> <Gold.PLP.part.hbond>
-0.5541

> <Gold.PLP.part.metal>
0.0000

> <Gold.PLP.part.buried>
-0.2969

> <Gold.PLP.part.nonpolar>
-41.3338

> <Gold.PLP.part.repulsive>
0.2900

> <Gold.PLP.ligand.clash>
0.0000

> <Gold.PLP.ligand.torsion>
0.6986

> <Gold.PLP.Chemscore.Hbond>
0.0000

> <Gold.PLP.Chemscore.CHOScore>
0.0000

> <Gold.PLP.Chemscore.Metal>
0.0000

> <Gold.PLP.Chemscore.Internal.Correction>
0.3778

> <Gold.Rescore>
     Score         DG    S(hbond)    S(metal)    S(lipo)     H(rot)  DE(clash)    DE(int)     intcor
      8.38     -10.53       0.00        0.00      96.69       2.45       1.13       1.02       ----

> <Gold.Chemscore.Fitness>
8.3829

> <Gold.Chemscore.DG>
-10.5277

> <Gold.Chemscore.ZeroCoef>
-5.4800

> <Gold.Chemscore.Hbond>
0.0032

> <Gold.Chemscore.Metal>
0.0000

> <Gold.Chemscore.Lipo>
96.6868

> <Gold.Chemscore.Internal_Hbond>
0.0000

> <Gold.Chemscore.DEClash>
1.1255

> <Gold.Chemscore.DEInternal>
1.0193

> <Gold.Chemscore.Rot>
2.4512

> <Gold.Chemscore.Internal.Correction>
   9.000000E+99

> <Gold.Chemscore.Hbonds>
donor molecule, donor type, donor heavy atom, donor atom, acceptor molecule, acceptor atom, score
      P1  H  7989  7998       L1    12  0.03

> <Gold.Chemscore.Hbond.Weighted>
-0.0105

> <Gold.Chemscore.Metal.Weighted>
-0.0000

> <Gold.Chemscore.Lipo.Weighted>
-11.3124

> <Gold.Chemscore.Internal_Hbond.Weighted>
0.0000

> <Gold.Chemscore.DEClash.Weighted>
1.1255

> <Gold.Chemscore.DEInternal.Weighted>
1.0193

> <Gold.Chemscore.Rot.Weighted>
6.2752

> <Gold.Chemscore.Internal.Correction.Weighted>
   9.000000E+99

> <Gold.Protein.RotatedTorsions>
[ 6907 6896 6895 6894 ] final  114.42 input  -60.11 | X-H torsion
[ 7974 7965 7964 7962 ] final   40.37 input  175.53 | X-H torsion
[ 8008 7997 7996 7995 ] final -130.78 input   59.86 | X-H torsion
[ 10167 10162 10161 10158 ] final   28.80 input  -65.29 | X-H torsion
[ 10718 10713 10712 10709 ] final  129.91 input   66.30 | X-H torsion
[ 10763 10752 10751 10750 ] final  105.53 input  -60.55 | X-H torsion
[ 11005 11000 10999 10996 ] final   86.87 input  -57.11 | X-H torsion

> <Gold.Protein.ActiveResidues>
 VAL166  LYS551  ARG553  GLY616  TRP617  ASP618  TYR619  PRO620  LYS621  CYS622 
 ASP623  PHE694  ASN695  SER759  ASP760  ASP761  ALA762  ILE779  LEU786  VAL792 
 PHE793  MET794  SER795  GLU796  ALA797  LYS798  CYS799  TRP800  GLU811  SER814 

> <Gold.Protein.RotatedAtoms>
  152.4804  133.8239  159.7067 H   0  0  0  0  0  0  0  0  0  0  0  0  # atno 6907 bound_to 6896
  150.8849  133.7312  159.2928 H   0  0  0  0  0  0  0  0  0  0  0  0  # atno 6908 bound_to 6896
  151.4804  135.1055  159.9828 H   0  0  0  0  0  0  0  0  0  0  0  0  # atno 6909 bound_to 6896
  146.0910  139.5540  142.9476 H   0  0  0  0  0  0  0  0  0  0  0  0  # atno 7974 bound_to 7965
  155.3015  140.0453  157.3029 H   0  0  0  0  0  0  0  0  0  0  0  0  # atno 8008 bound_to 7997
  154.5484  140.2310  155.8492 H   0  0  0  0  0  0  0  0  0  0  0  0  # atno 8009 bound_to 7997
  156.1945  140.3042  155.9405 H   0  0  0  0  0  0  0  0  0  0  0  0  # atno 8010 bound_to 7997
  140.4821  144.0599  150.6269 H   0  0  0  0  0  0  0  0  0  0  0  0  # atno 10167 bound_to 10162
  157.5111  131.1096  150.9292 H   0  0  0  0  0  0  0  0  0  0  0  0  # atno 10718 bound_to 10713
  153.3807  135.3907  155.1854 H   0  0  0  0  0  0  0  0  0  0  0  0  # atno 10763 bound_to 10752
  154.8707  135.3724  154.4861 H   0  0  0  0  0  0  0  0  0  0  0  0  # atno 10764 bound_to 10752
  153.5338  135.7085  153.5731 H   0  0  0  0  0  0  0  0  0  0  0  0  # atno 10765 bound_to 10752
  139.8933  134.8385  156.2781 H   0  0  0  0  0  0  0  0  0  0  0  0  # atno 11005 bound_to 11000
  145.6039  141.0351  143.2003 LP  0  0  0  0  0  0  0  0  0  0  0  0  # atno 17320 bound_to 7965
  144.7360  139.7585  143.7329 LP  0  0  0  0  0  0  0  0  0  0  0  0  # atno 17321 bound_to 7965
  140.3844  143.2785  152.0133 LP  0  0  0  0  0  0  0  0  0  0  0  0  # atno 17342 bound_to 10162
  139.4835  144.6129  151.7401 LP  0  0  0  0  0  0  0  0  0  0  0  0  # atno 17343 bound_to 10162
  156.9932  130.5571  149.5305 LP  0  0  0  0  0  0  0  0  0  0  0  0  # atno 17370 bound_to 10713
  156.0289  130.5382  150.8482 LP  0  0  0  0  0  0  0  0  0  0  0  0  # atno 17371 bound_to 10713
  141.0056  133.7125  156.1030 LP  0  0  0  0  0  0  0  0  0  0  0  0  # atno 17394 bound_to 11000
  140.7438  134.4121  157.5551 LP  0  0  0  0  0  0  0  0  0  0  0  0  # atno 17395 bound_to 11000

$$$$
