AV-unprocessed.smi:1762|AV-procd|sdf|7118|dock2
  -GOLD-   22720 8343D 1   1.00000     0.00000
 Structure written by MMmdl.
 53 54  0  0  0  0  0  0  0  0  2 V2000
  151.9050  144.4478  157.5277 C   0  0  0  0  0  0  0  0  0  0  0  0
  151.0297  143.8434  158.6405 C   0  0  1  0  0  0  0  0  0  0  0  0
  150.3203  142.5415  158.2253 C   0  0  0  0  0  0  0  0  0  0  0  0
  151.2759  141.4006  158.1254 N   0  3  2  0  0  0  0  0  0  0  0  0
  150.6354  140.1437  157.6042 C   0  0  1  0  0  0  0  0  0  0  0  0
  150.3798  140.2453  156.0845 C   0  0  0  0  0  0  0  0  0  0  0  0
  151.3230  140.3993  155.3072 O   0  0  0  0  0  0  0  0  0  0  0  0
  149.1036  140.1580  155.6804 N   0  0  0  0  0  0  0  0  0  0  0  0
  148.6634  140.2229  154.2932 C   0  0  0  0  0  0  0  0  0  0  0  0
  148.2053  141.6448  153.9409 C   0  0  0  0  0  0  0  0  0  0  0  0
  146.9883  142.0721  154.7396 C   0  0  0  0  0  0  0  0  0  0  0  0
  145.8869  142.6840  154.1038 C   0  0  0  0  0  0  0  0  0  0  0  0
  144.7804  143.0573  154.8913 C   0  0  0  0  0  0  0  0  0  0  0  0
  144.8171  142.8040  156.2760 C   0  0  0  0  0  0  0  0  0  0  0  0
  145.9637  142.1864  156.8142 C   0  0  0  0  0  0  0  0  0  0  0  0
  147.0306  141.8260  156.0685 N   0  0  0  0  0  0  0  0  0  0  0  0
  151.4182  138.8295  157.9434 C   0  0  0  0  0  0  0  0  0  0  0  0
  152.7901  138.7189  157.2456 C   0  0  0  0  0  0  0  0  0  0  0  0
  150.5961  137.5489  157.6967 C   0  0  0  0  0  0  0  0  0  0  0  0
  151.9947  141.2639  159.4219 C   0  0  0  0  0  0  0  0  0  0  0  0
  152.6975  142.5796  159.8054 C   0  0  2  0  0  0  0  0  0  0  0  0
  153.3713  142.4894  161.1790 C   0  0  0  0  0  0  0  0  0  0  0  0
  151.7493  143.6393  159.8536 O   0  0  0  0  0  0  0  0  0  0  0  0
  151.2969  144.7215  156.6650 H   0  0  0  0  0  0  0  0  0  0  0  0
  152.6678  143.7539  157.1758 H   0  0  0  0  0  0  0  0  0  0  0  0
  152.4073  145.3507  157.8756 H   0  0  0  0  0  0  0  0  0  0  0  0
  150.2602  144.5811  158.8699 H   0  0  0  0  0  0  0  0  0  0  0  0
  149.5530  142.2951  158.9610 H   0  0  0  0  0  0  0  0  0  0  0  0
  149.7978  142.7197  157.2858 H   0  0  0  0  0  0  0  0  0  0  0  0
  149.6644  140.0708  158.0983 H   0  0  0  0  0  0  0  0  0  0  0  0
  148.3878  140.0293  156.3811 H   0  0  0  0  0  0  0  0  0  0  0  0
  149.4892  139.9204  153.6480 H   0  0  0  0  0  0  0  0  0  0  0  0
  147.8456  139.5208  154.1203 H   0  0  0  0  0  0  0  0  0  0  0  0
  149.0140  142.3537  154.1255 H   0  0  0  0  0  0  0  0  0  0  0  0
  147.9769  141.7110  152.8763 H   0  0  0  0  0  0  0  0  0  0  0  0
  145.8870  142.8634  153.0387 H   0  0  0  0  0  0  0  0  0  0  0  0
  143.9190  143.5283  154.4409 H   0  0  0  0  0  0  0  0  0  0  0  0
  143.9867  143.0760  156.9107 H   0  0  0  0  0  0  0  0  0  0  0  0
  146.0258  141.9767  157.8717 H   0  0  0  0  0  0  0  0  0  0  0  0
  151.5953  138.8150  159.0177 H   0  0  0  0  0  0  0  0  0  0  0  0
  152.6854  138.5945  156.1676 H   0  0  0  0  0  0  0  0  0  0  0  0
  153.3449  137.8569  157.6170 H   0  0  0  0  0  0  0  0  0  0  0  0
  153.4096  139.5988  157.4164 H   0  0  0  0  0  0  0  0  0  0  0  0
  150.4345  137.3614  156.6347 H   0  0  0  0  0  0  0  0  0  0  0  0
  149.6204  137.6071  158.1800 H   0  0  0  0  0  0  0  0  0  0  0  0
  151.1078  136.6754  158.1021 H   0  0  0  0  0  0  0  0  0  0  0  0
  151.2911  140.9623  160.1997 H   0  0  0  0  0  0  0  0  0  0  0  0
  152.7671  140.4996  159.3711 H   0  0  0  0  0  0  0  0  0  0  0  0
  153.4678  142.8094  159.0691 H   0  0  0  0  0  0  0  0  0  0  0  0
  154.1239  141.7007  161.1969 H   0  0  0  0  0  0  0  0  0  0  0  0
  152.6442  142.2758  161.9629 H   0  0  0  0  0  0  0  0  0  0  0  0
  153.8677  143.4266  161.4319 H   0  0  0  0  0  0  0  0  0  0  0  0
  151.9708  141.6609  157.4396 H   0  0  0  0  0  0  0  0  0  0  0  0
  1  2  1  0  0  0  0
  1 24  1  0  0  0  0
  1 25  1  0  0  0  0
  1 26  1  0  0  0  0
  2 23  1  0  0  0  0
  2  3  1  0  0  0  0
  2 27  1  0  0  0  0
  3  4  1  0  0  0  0
  3 28  1  0  0  0  0
  3 29  1  0  0  0  0
  4  5  1  0  0  0  0
  4 20  1  0  0  0  0
  4 53  1  0  0  0  0
  5  6  1  0  0  0  0
  5 17  1  0  0  0  0
  5 30  1  0  0  0  0
  6  7  2  0  0  0  0
  6  8  1  0  0  0  0
  8  9  1  0  0  0  0
  8 31  1  0  0  0  0
  9 10  1  0  0  0  0
  9 32  1  0  0  0  0
  9 33  1  0  0  0  0
 10 11  1  0  0  0  0
 10 34  1  0  0  0  0
 10 35  1  0  0  0  0
 11 16  1  0  0  0  0
 11 12  2  0  0  0  0
 12 13  1  0  0  0  0
 12 36  1  0  0  0  0
 13 14  2  0  0  0  0
 13 37  1  0  0  0  0
 14 15  1  0  0  0  0
 14 38  1  0  0  0  0
 15 16  2  0  0  0  0
 15 39  1  0  0  0  0
 17 18  1  0  0  0  0
 17 19  1  0  0  0  0
 17 40  1  0  0  0  0
 18 41  1  0  0  0  0
 18 42  1  0  0  0  0
 18 43  1  0  0  0  0
 19 44  1  0  0  0  0
 19 45  1  0  0  0  0
 19 46  1  0  0  0  0
 20 21  1  0  0  0  0
 20 47  1  0  0  0  0
 20 48  1  0  0  0  0
 21 22  1  0  0  0  0
 21 23  1  0  0  0  0
 21 49  1  0  0  0  0
 22 50  1  0  0  0  0
 22 51  1  0  0  0  0
 22 52  1  0  0  0  0
M  CHG  1   4   1
M  END
> <s_m_source_file>
AV-unprocessed.smi

> <i_m_source_file_index>
1762

> <i_lp_mmshare_version>
43012

> <i_f3d_flags>
0

> <s_epik_input>
W0NIM11bQ0BASF0xW0NIMl1OKFtDSDJdW0NASF0oTzEpW0NIM10pW0NAQEhdKFtDSF0oW0NIM10pW0NIM10pQyg9TylbTkhdW0NIMl1bQ0gyXWMyW2NIXVtjSF1bY0hdW2NIXW4y

> <s_epik_cmdline>
J2VwaWtfcHl0aG9uJywgJy1waCcsICc3LjAnLCAnLXRuJywgJzgnLCAnLW1hJywgJzIwMCcsICctbWV0YWxfYmluZGluZycsICctaW1hZScsICc8aW5maWxlLm1hZT4nLCAnLW9tYWUnLCAnPG91dGZpbGUubWFlPic=

> <r_epik_Ionization_Penalty>
2.27005

> <r_epik_Ionization_Penalty_Charging>
2.24983

> <r_epik_Ionization_Penalty_Neutral>
0.0202209

> <r_epik_State_Penalty>
2.40228

> <r_epik_Charging_Adjusted_Penalty>
4.65211

> <i_epik_Tot_Q>
1

> <i_epik_Tot_abs_Q>
1

> <r_epik_Metal_State_Penalty>
2.40762

> <b_epik_Metal_Only>
0

> <s_lp_Force_Field>
OPLS_2005

> <r_lp_Energy>
25.0813

> <b_lp_Chiralities_Consistent>
1

> <s_lp_Variant>
AV-unprocessed.smi:1762-20

> <Gold.Version>
5.8.1

> <Gold.Id.Protein>
6NUR|6NUR_protein|mol2

> <Gold.PLP.Fitness>
44.1917

> <Gold.PLP.PLP>
-42.6660

> <Gold.PLP.part.hbond>
-1.0000

> <Gold.PLP.part.metal>
0.0000

> <Gold.PLP.part.buried>
-5.3882

> <Gold.PLP.part.nonpolar>
-35.8595

> <Gold.PLP.part.repulsive>
0.2991

> <Gold.PLP.ligand.clash>
0.0000

> <Gold.PLP.ligand.torsion>
0.8460

> <Gold.PLP.Chemscore.Hbond>
0.9920

> <Gold.PLP.Chemscore.CHOScore>
0.0000

> <Gold.PLP.Chemscore.Metal>
0.0000

> <Gold.Chemscore.Hbonds>
donor molecule, donor type, donor heavy atom, donor atom, acceptor molecule, acceptor atom, score
      P1  H  7989  7998       L1     7  0.94

> <Gold.PLP.Chemscore.Internal.Correction>
0.2418

> <Gold.Rescore>
     Score         DG    S(hbond)    S(metal)    S(lipo)     H(rot)  DE(clash)    DE(int)     intcor
     13.65     -17.58       0.98        0.00     111.73       1.66       0.03       3.89       ----

> <Gold.Chemscore.Fitness>
13.6536

> <Gold.Chemscore.DG>
-17.5800

> <Gold.Chemscore.ZeroCoef>
-5.4800

> <Gold.Chemscore.Hbond>
0.9839

> <Gold.Chemscore.Metal>
0.0000

> <Gold.Chemscore.Lipo>
111.7298

> <Gold.Chemscore.Internal_Hbond>
0.0000

> <Gold.Chemscore.DEClash>
0.0344

> <Gold.Chemscore.DEInternal>
3.8919

> <Gold.Chemscore.Rot>
1.6635

> <Gold.Chemscore.Internal.Correction>
   9.000000E+99

> <Gold.Chemscore.Hbonds>
donor molecule, donor type, donor heavy atom, donor atom, acceptor molecule, acceptor atom, score
      P1  H  7989  7998       L1     7  0.91

> <Gold.Chemscore.Hbond.Weighted>
-3.2862

> <Gold.Chemscore.Metal.Weighted>
-0.0000

> <Gold.Chemscore.Lipo.Weighted>
-13.0724

> <Gold.Chemscore.Internal_Hbond.Weighted>
0.0000

> <Gold.Chemscore.DEClash.Weighted>
0.0344

> <Gold.Chemscore.DEInternal.Weighted>
3.8919

> <Gold.Chemscore.Rot.Weighted>
4.2586

> <Gold.Chemscore.Internal.Correction.Weighted>
   9.000000E+99

> <Gold.Protein.RotatedTorsions>
[ 6907 6896 6895 6894 ] final    3.58 input  -60.11 | X-H torsion
[ 7974 7965 7964 7962 ] final  107.14 input  175.53 | X-H torsion
[ 8008 7997 7996 7995 ] final  -11.85 input   59.86 | X-H torsion
[ 10167 10162 10161 10158 ] final  165.14 input  -65.29 | X-H torsion
[ 10718 10713 10712 10709 ] final -166.37 input   66.30 | X-H torsion
[ 10763 10752 10751 10750 ] final -151.30 input  -60.55 | X-H torsion
[ 11005 11000 10999 10996 ] final  172.01 input  -57.11 | X-H torsion

> <Gold.Protein.ActiveResidues>
 VAL166  LYS551  ARG553  GLY616  TRP617  ASP618  TYR619  PRO620  LYS621  CYS622 
 ASP623  PHE694  ASN695  SER759  ASP760  ASP761  ALA762  ILE779  LEU786  VAL792 
 PHE793  MET794  SER795  GLU796  ALA797  LYS798  CYS799  TRP800  GLU811  SER814 

> <Gold.Protein.RotatedAtoms>
  151.6273  135.1026  160.0114 H   0  0  0  0  0  0  0  0  0  0  0  0  # atno 6907 bound_to 6896
  152.4125  133.6982  159.6419 H   0  0  0  0  0  0  0  0  0  0  0  0  # atno 6908 bound_to 6896
  150.8015  133.8515  159.3247 H   0  0  0  0  0  0  0  0  0  0  0  0  # atno 6909 bound_to 6896
  145.2975  139.2580  143.3832 H   0  0  0  0  0  0  0  0  0  0  0  0  # atno 7974 bound_to 7965
  154.5428  140.2291  155.8612 H   0  0  0  0  0  0  0  0  0  0  0  0  # atno 8008 bound_to 7997
  156.1875  140.3085  155.9229 H   0  0  0  0  0  0  0  0  0  0  0  0  # atno 8009 bound_to 7997
  155.3223  140.0441  157.3030 H   0  0  0  0  0  0  0  0  0  0  0  0  # atno 8010 bound_to 7997
  139.4901  144.4162  151.9240 H   0  0  0  0  0  0  0  0  0  0  0  0  # atno 10167 bound_to 10162
  156.6669  130.9068  151.3038 H   0  0  0  0  0  0  0  0  0  0  0  0  # atno 10718 bound_to 10713
  154.8066  135.3263  154.7414 H   0  0  0  0  0  0  0  0  0  0  0  0  # atno 10763 bound_to 10752
  153.8071  135.6898  153.4851 H   0  0  0  0  0  0  0  0  0  0  0  0  # atno 10764 bound_to 10752
  153.1816  135.4584  154.9980 H   0  0  0  0  0  0  0  0  0  0  0  0  # atno 10765 bound_to 10752
  140.3251  134.7404  157.4093 H   0  0  0  0  0  0  0  0  0  0  0  0  # atno 11005 bound_to 11000
  146.3164  140.3481  142.8654 LP  0  0  0  0  0  0  0  0  0  0  0  0  # atno 17320 bound_to 7965
  144.9121  140.7770  143.5801 LP  0  0  0  0  0  0  0  0  0  0  0  0  # atno 17321 bound_to 7965
  140.3605  144.2979  150.5934 LP  0  0  0  0  0  0  0  0  0  0  0  0  # atno 17342 bound_to 10162
  140.5407  143.2224  151.8090 LP  0  0  0  0  0  0  0  0  0  0  0  0  # atno 17343 bound_to 10162
  157.7091  130.9419  150.1027 LP  0  0  0  0  0  0  0  0  0  0  0  0  # atno 17370 bound_to 10713
  156.1968  130.3658  149.8838 LP  0  0  0  0  0  0  0  0  0  0  0  0  # atno 17371 bound_to 10713
  140.0908  134.5603  155.8446 LP  0  0  0  0  0  0  0  0  0  0  0  0  # atno 17394 bound_to 11000
  141.2077  133.6667  156.6324 LP  0  0  0  0  0  0  0  0  0  0  0  0  # atno 17395 bound_to 11000

$$$$
