AV-unprocessed.smi:1591|AV-procd|sdf|6399|dock9
  -GOLD-   22720 7 33D 1   1.00000     0.00000
 Structure written by MMmdl.
 51 54  0  0  0  0  0  0  0  0  2 V2000
  152.1287  137.5426  155.1105 C   0  0  0  0  0  0  0  0  0  0  0  0
  150.6353  137.8811  154.9850 C   0  0  0  0  0  0  0  0  0  0  0  0
  150.2722  139.3045  155.4768 C   0  0  2  0  0  0  0  0  0  0  0  0
  150.3852  139.3448  156.9368 N   0  0  0  0  0  0  0  0  0  0  0  0
  151.5234  139.3971  157.6462 C   0  0  0  0  0  0  0  0  0  0  0  0
  152.6452  139.3320  157.1444 O   0  0  0  0  0  0  0  0  0  0  0  0
  151.3603  139.5648  159.1591 C   0  0  0  0  0  0  0  0  0  0  0  0
  151.2693  140.9882  159.5180 N   0  0  0  0  0  0  0  0  0  0  0  0
  152.1835  141.4678  160.4733 C   0  0  0  0  0  0  0  0  0  0  0  0
  152.1643  142.7449  160.8985 C   0  0  0  0  0  0  0  0  0  0  0  0
  151.1593  143.6416  160.3417 C   0  0  0  0  0  0  0  0  0  0  0  0
  151.1258  144.8112  160.7191 O   0  0  0  0  0  0  0  0  0  0  0  0
  150.2947  143.1299  159.4174 N   0  5  0  0  0  0  0  0  0  0  0  0
  150.3244  141.8272  158.9960 C   0  0  0  0  0  0  0  0  0  0  0  0
  149.5303  141.3870  158.1646 O   0  0  0  0  0  0  0  0  0  0  0  0
  148.8702  139.8378  155.0212 C   0  0  0  0  0  0  0  0  0  0  0  0
  147.7394  139.4427  156.0158 C   0  0  0  0  0  0  0  0  0  0  0  0
  146.3788  140.0029  155.5461 C   0  0  1  0  0  0  0  0  0  0  0  0
  146.4472  141.5419  155.4730 C   0  0  0  0  0  0  0  0  0  0  0  0
  147.5375  141.9516  154.4625 C   0  0  2  0  0  0  0  0  0  0  0  0
  147.1981  141.3909  153.0683 C   0  0  0  0  0  0  0  0  0  0  0  0
  147.1289  139.8539  153.1503 C   0  0  2  0  0  0  0  0  0  0  0  0
  146.0347  139.4347  154.1537 C   0  0  0  0  0  0  0  0  0  0  0  0
  148.4914  139.2941  153.6124 C   0  0  0  0  0  0  0  0  0  0  0  0
  148.8985  141.3947  154.9261 C   0  0  0  0  0  0  0  0  0  0  0  0
  152.3384  136.5615  154.6839 H   0  0  0  0  0  0  0  0  0  0  0  0
  152.4528  137.5220  156.1513 H   0  0  0  0  0  0  0  0  0  0  0  0
  152.7424  138.2722  154.5812 H   0  0  0  0  0  0  0  0  0  0  0  0
  150.3702  137.7671  153.9354 H   0  0  0  0  0  0  0  0  0  0  0  0
  150.0607  137.1319  155.5297 H   0  0  0  0  0  0  0  0  0  0  0  0
  151.0195  139.9719  155.0439 H   0  0  0  0  0  0  0  0  0  0  0  0
  149.5178  139.3989  157.4502 H   0  0  0  0  0  0  0  0  0  0  0  0
  150.4705  139.0333  159.5011 H   0  0  0  0  0  0  0  0  0  0  0  0
  152.1948  139.0769  159.6649 H   0  0  0  0  0  0  0  0  0  0  0  0
  152.8889  140.7368  160.8406 H   0  0  0  0  0  0  0  0  0  0  0  0
  152.8717  143.0955  161.6353 H   0  0  0  0  0  0  0  0  0  0  0  0
  147.6672  138.3587  156.1050 H   0  0  0  0  0  0  0  0  0  0  0  0
  147.9558  139.8176  157.0168 H   0  0  0  0  0  0  0  0  0  0  0  0
  145.6049  139.7101  156.2564 H   0  0  0  0  0  0  0  0  0  0  0  0
  145.4812  141.9504  155.1737 H   0  0  0  0  0  0  0  0  0  0  0  0
  146.6677  141.9586  156.4567 H   0  0  0  0  0  0  0  0  0  0  0  0
  147.5912  143.0396  154.4109 H   0  0  0  0  0  0  0  0  0  0  0  0
  146.2479  141.7958  152.7177 H   0  0  0  0  0  0  0  0  0  0  0  0
  147.9520  141.6980  152.3425 H   0  0  0  0  0  0  0  0  0  0  0  0
  146.8887  139.4514  152.1657 H   0  0  0  0  0  0  0  0  0  0  0  0
  145.9562  138.3477  154.1967 H   0  0  0  0  0  0  0  0  0  0  0  0
  145.0610  139.8013  153.8260 H   0  0  0  0  0  0  0  0  0  0  0  0
  149.2649  139.5512  152.8873 H   0  0  0  0  0  0  0  0  0  0  0  0
  148.4233  138.2070  153.6175 H   0  0  0  0  0  0  0  0  0  0  0  0
  149.1388  141.8436  155.8899 H   0  0  0  0  0  0  0  0  0  0  0  0
  149.6832  141.7167  154.2400 H   0  0  0  0  0  0  0  0  0  0  0  0
  1  2  1  0  0  0  0
  1 26  1  0  0  0  0
  1 27  1  0  0  0  0
  1 28  1  0  0  0  0
  2  3  1  0  0  0  0
  2 29  1  0  0  0  0
  2 30  1  0  0  0  0
  3  4  1  0  0  0  0
  3 16  1  0  0  0  0
  3 31  1  0  0  0  0
  4  5  1  0  0  0  0
  4 32  1  0  0  0  0
  5  6  2  0  0  0  0
  5  7  1  0  0  0  0
  7  8  1  0  0  0  0
  7 33  1  0  0  0  0
  7 34  1  0  0  0  0
  8 14  1  0  0  0  0
  8  9  1  0  0  0  0
  9 10  2  0  0  0  0
  9 35  1  0  0  0  0
 10 11  1  0  0  0  0
 10 36  1  0  0  0  0
 11 12  2  0  0  0  0
 11 13  1  0  0  0  0
 13 14  1  0  0  0  0
 14 15  2  0  0  0  0
 16 24  1  0  0  0  0
 16 25  1  0  0  0  0
 16 17  1  0  0  0  0
 17 18  1  0  0  0  0
 17 37  1  0  0  0  0
 17 38  1  0  0  0  0
 18 23  1  0  0  0  0
 18 19  1  0  0  0  0
 18 39  1  0  0  0  0
 19 20  1  0  0  0  0
 19 40  1  0  0  0  0
 19 41  1  0  0  0  0
 20 21  1  0  0  0  0
 20 25  1  0  0  0  0
 20 42  1  0  0  0  0
 21 22  1  0  0  0  0
 21 43  1  0  0  0  0
 21 44  1  0  0  0  0
 22 23  1  0  0  0  0
 22 24  1  0  0  0  0
 22 45  1  0  0  0  0
 23 46  1  0  0  0  0
 23 47  1  0  0  0  0
 24 48  1  0  0  0  0
 24 49  1  0  0  0  0
 25 50  1  0  0  0  0
 25 51  1  0  0  0  0
M  CHG  1  13  -1
M  END
> <s_m_source_file>
AV-unprocessed.smi

> <i_m_source_file_index>
1591

> <i_lp_mmshare_version>
43012

> <i_f3d_flags>
0

> <s_epik_input>
W0NIMl0xW0NASF0oW0NIMl0yKVtDSDJdW0NASF0oW0NIMl0zKVtDSDJdW0NAQEhdMVtDSDJdQzIzW0NASF0oW0NIMl1bQ0gzXSlbTkhdQyg9TylbQ0gyXW40W2NIXVtjSF1jKD1PKVtuSF1jND1P

> <s_epik_cmdline>
J2VwaWtfcHl0aG9uJywgJy1waCcsICc3LjAnLCAnLXRuJywgJzgnLCAnLW1hJywgJzIwMCcsICctbWV0YWxfYmluZGluZycsICctaW1hZScsICc8aW5maWxlLm1hZT4nLCAnLW9tYWUnLCAnPG91dGZpbGUubWFlPic=

> <r_lp_tautomer_probability>
0.999537

> <r_epik_Ionization_Penalty>
3.13902

> <r_epik_Ionization_Penalty_Charging>
2.97334e-08

> <r_epik_Ionization_Penalty_Neutral>
3.13902

> <r_epik_State_Penalty>
3.13814

> <r_epik_Charging_Adjusted_Penalty>
3.13814

> <i_epik_Tot_Q>
-1

> <i_epik_Tot_abs_Q>
1

> <r_epik_Metal_State_Penalty>
0.465244

> <b_epik_Metal_Only>
1

> <s_lp_Force_Field>
OPLS_2005

> <r_lp_Energy>
48.864

> <b_lp_Chiralities_Consistent>
1

> <s_lp_Variant>
AV-unprocessed.smi:1591-3

> <Gold.Version>
5.8.1

> <Gold.Id.Protein>
6NUR|6NUR_protein|mol2

> <Gold.PLP.Fitness>
40.3963

> <Gold.PLP.PLP>
-40.5702

> <Gold.PLP.part.hbond>
-1.9715

> <Gold.PLP.part.metal>
0.0000

> <Gold.PLP.part.buried>
-2.8470

> <Gold.PLP.part.nonpolar>
-37.0321

> <Gold.PLP.part.repulsive>
0.4113

> <Gold.PLP.ligand.clash>
0.0000

> <Gold.PLP.ligand.torsion>
1.6311

> <Gold.PLP.Chemscore.Hbond>
1.0000

> <Gold.PLP.Chemscore.CHOScore>
0.0000

> <Gold.PLP.Chemscore.Metal>
0.0000

> <Gold.Chemscore.Hbonds>
donor molecule, donor type, donor heavy atom, donor atom, acceptor molecule, acceptor atom, score
      P1  H  7997  8010       L1     6  1.00

> <Gold.PLP.Chemscore.Internal.Correction>
0.0884

> <Gold.Rescore>
     Score         DG    S(hbond)    S(metal)    S(lipo)     H(rot)  DE(clash)    DE(int)     intcor
     10.27     -14.61       0.99        0.00      93.16       1.99       0.43       3.90       ----

> <Gold.Chemscore.Fitness>
10.2695

> <Gold.Chemscore.DG>
-14.6076

> <Gold.Chemscore.ZeroCoef>
-5.4800

> <Gold.Chemscore.Hbond>
0.9916

> <Gold.Chemscore.Metal>
0.0000

> <Gold.Chemscore.Lipo>
93.1568

> <Gold.Chemscore.Internal_Hbond>
0.0000

> <Gold.Chemscore.DEClash>
0.4342

> <Gold.Chemscore.DEInternal>
3.9040

> <Gold.Chemscore.Rot>
1.9858

> <Gold.Chemscore.Internal.Correction>
   9.000000E+99

> <Gold.Chemscore.Hbonds>
donor molecule, donor type, donor heavy atom, donor atom, acceptor molecule, acceptor atom, score
      P1  H  7997  8010       L1     6  0.99

> <Gold.Chemscore.Hbond.Weighted>
-3.3119

> <Gold.Chemscore.Metal.Weighted>
-0.0000

> <Gold.Chemscore.Lipo.Weighted>
-10.8993

> <Gold.Chemscore.Internal_Hbond.Weighted>
0.0000

> <Gold.Chemscore.DEClash.Weighted>
0.4342

> <Gold.Chemscore.DEInternal.Weighted>
3.9040

> <Gold.Chemscore.Rot.Weighted>
5.0836

> <Gold.Chemscore.Internal.Correction.Weighted>
   9.000000E+99

> <Gold.Protein.RotatedTorsions>
[ 6907 6896 6895 6894 ] final  -26.06 input  -60.11 | X-H torsion
[ 7974 7965 7964 7962 ] final  -23.76 input  175.53 | X-H torsion
[ 8008 7997 7996 7995 ] final   59.70 input   59.86 | X-H torsion
[ 10167 10162 10161 10158 ] final  167.33 input  -65.29 | X-H torsion
[ 10718 10713 10712 10709 ] final  -23.52 input   66.30 | X-H torsion
[ 10763 10752 10751 10750 ] final -109.81 input  -60.55 | X-H torsion
[ 11005 11000 10999 10996 ] final  172.66 input  -57.11 | X-H torsion

> <Gold.Protein.ActiveResidues>
 VAL166  LYS551  ARG553  GLY616  TRP617  ASP618  TYR619  PRO620  LYS621  CYS622 
 ASP623  PHE694  ASN695  SER759  ASP760  ASP761  ALA762  ILE779  LEU786  VAL792 
 PHE793  MET794  SER795  GLU796  ALA797  LYS798  CYS799  TRP800  GLU811  SER814 

> <Gold.Protein.RotatedAtoms>
  151.1663  135.0297  159.8731 H   0  0  0  0  0  0  0  0  0  0  0  0  # atno 6907 bound_to 6896
  152.5450  134.1222  159.8414 H   0  0  0  0  0  0  0  0  0  0  0  0  # atno 6908 bound_to 6896
  151.1323  133.4982  159.2631 H   0  0  0  0  0  0  0  0  0  0  0  0  # atno 6909 bound_to 6896
  146.1597  140.4659  142.8577 H   0  0  0  0  0  0  0  0  0  0  0  0  # atno 7974 bound_to 7965
  155.5705  140.3490  155.4514 H   0  0  0  0  0  0  0  0  0  0  0  0  # atno 8008 bound_to 7997
  156.0448  140.1304  157.0141 H   0  0  0  0  0  0  0  0  0  0  0  0  # atno 8009 bound_to 7997
  154.4408  140.1017  156.6275 H   0  0  0  0  0  0  0  0  0  0  0  0  # atno 8010 bound_to 7997
  139.4943  144.3933  151.9492 H   0  0  0  0  0  0  0  0  0  0  0  0  # atno 10167 bound_to 10162
  156.4900  130.4564  149.6761 H   0  0  0  0  0  0  0  0  0  0  0  0  # atno 10718 bound_to 10713
  154.8214  135.4587  154.0789 H   0  0  0  0  0  0  0  0  0  0  0  0  # atno 10763 bound_to 10752
  153.2140  135.6885  153.8086 H   0  0  0  0  0  0  0  0  0  0  0  0  # atno 10764 bound_to 10752
  153.7527  135.3295  155.3300 H   0  0  0  0  0  0  0  0  0  0  0  0  # atno 10765 bound_to 10752
  140.3322  134.7348  157.4142 H   0  0  0  0  0  0  0  0  0  0  0  0  # atno 11005 bound_to 11000
  144.8010  140.6212  143.6478 LP  0  0  0  0  0  0  0  0  0  0  0  0  # atno 17320 bound_to 7965
  145.4620  139.1512  143.3861 LP  0  0  0  0  0  0  0  0  0  0  0  0  # atno 17321 bound_to 7965
  140.3371  144.3247  150.5975 LP  0  0  0  0  0  0  0  0  0  0  0  0  # atno 17342 bound_to 10162
  140.5597  143.2194  151.7787 LP  0  0  0  0  0  0  0  0  0  0  0  0  # atno 17343 bound_to 10162
  156.3436  130.7395  151.2344 LP  0  0  0  0  0  0  0  0  0  0  0  0  # atno 17370 bound_to 10713
  157.7475  131.0397  150.4561 LP  0  0  0  0  0  0  0  0  0  0  0  0  # atno 17371 bound_to 10713
  140.0851  134.5677  155.8500 LP  0  0  0  0  0  0  0  0  0  0  0  0  # atno 17394 bound_to 11000
  141.2060  133.6652  156.6218 LP  0  0  0  0  0  0  0  0  0  0  0  0  # atno 17395 bound_to 11000

$$$$
