AV-unprocessed.smi:1546|AV-procd|sdf|6218|dock7
  -GOLD-   22720 6393D 1   1.00000     0.00000
 Structure written by MMmdl.
 30 31  0  0  0  0  0  0  0  0  1 V2000
  151.2831  140.8098  155.1762 O   0  0  0  0  0  0  0  0  0  0  0  0
  150.4142  141.1942  155.9587 C   0  0  0  0  0  0  0  0  0  0  0  0
  150.7943  142.0783  157.1482 C   0  0  0  0  0  0  0  0  0  0  0  0
  151.8227  141.4539  157.9013 O   0  0  0  0  0  0  0  0  0  0  0  0
  151.7855  141.8098  159.2723 C   0  0  0  0  0  0  0  0  0  0  0  0
  152.3396  143.2090  159.4335 C   0  0  0  0  0  0  0  0  0  0  0  0
  151.6696  144.1914  160.3673 C   0  0  0  0  0  0  0  0  0  0  0  0
  151.5982  144.4032  158.8766 C   0  0  0  0  0  0  0  0  0  0  0  0
  149.1016  140.9030  155.8696 N   0  0  0  0  0  0  0  0  0  0  0  0
  148.4173  140.1262  154.9196 C   0  0  0  0  0  0  0  0  0  0  0  0
  148.9503  139.1206  154.1786 C   0  0  0  0  0  0  0  0  0  0  0  0
  148.2310  138.3790  153.2516 N   0  0  0  0  0  0  0  0  0  0  0  0
  146.8907  138.6693  153.0547 C   0  0  0  0  0  0  0  0  0  0  0  0
  146.2402  139.6401  153.7253 C   0  0  0  0  0  0  0  0  0  0  0  0
  146.9749  140.4471  154.7253 C   0  0  0  0  0  0  0  0  0  0  0  0
  146.4092  141.3377  155.3597 O   0  0  0  0  0  0  0  0  0  0  0  0
  151.1330  143.0501  156.7847 H   0  0  0  0  0  0  0  0  0  0  0  0
  149.9122  142.2387  157.7697 H   0  0  0  0  0  0  0  0  0  0  0  0
  150.7639  141.7694  159.6539 H   0  0  0  0  0  0  0  0  0  0  0  0
  152.3920  141.1190  159.8596 H   0  0  0  0  0  0  0  0  0  0  0  0
  153.4265  143.2575  159.4003 H   0  0  0  0  0  0  0  0  0  0  0  0
  150.7597  143.8730  160.8723 H   0  0  0  0  0  0  0  0  0  0  0  0
  152.3117  144.8579  160.9396 H   0  0  0  0  0  0  0  0  0  0  0  0
  152.1933  145.2099  158.4530 H   0  0  0  0  0  0  0  0  0  0  0  0
  150.6411  144.2253  158.3899 H   0  0  0  0  0  0  0  0  0  0  0  0
  148.5098  141.3038  156.5831 H   0  0  0  0  0  0  0  0  0  0  0  0
  149.9776  138.8009  154.2411 H   0  0  0  0  0  0  0  0  0  0  0  0
  146.4081  138.0493  152.3136 H   0  0  0  0  0  0  0  0  0  0  0  0
  145.1942  139.8441  153.5495 H   0  0  0  0  0  0  0  0  0  0  0  0
  148.6788  137.6392  152.7291 H   0  0  0  0  0  0  0  0  0  0  0  0
  1  2  2  0  0  0  0
  2  3  1  0  0  0  0
  2  9  1  0  0  0  0
  3  4  1  0  0  0  0
  3 17  1  0  0  0  0
  3 18  1  0  0  0  0
  4  5  1  0  0  0  0
  5  6  1  0  0  0  0
  5 19  1  0  0  0  0
  5 20  1  0  0  0  0
  6  8  1  0  0  0  0
  6  7  1  0  0  0  0
  6 21  1  0  0  0  0
  7  8  1  0  0  0  0
  7 22  1  0  0  0  0
  7 23  1  0  0  0  0
  8 24  1  0  0  0  0
  8 25  1  0  0  0  0
  9 26  1  0  0  0  0
  9 10  1  0  0  0  0
 10 15  1  0  0  0  0
 10 11  2  0  0  0  0
 11 27  1  0  0  0  0
 11 12  1  0  0  0  0
 12 30  1  0  0  0  0
 12 13  1  0  0  0  0
 13 28  1  0  0  0  0
 13 14  2  0  0  0  0
 14 15  1  0  0  0  0
 14 29  1  0  0  0  0
 15 16  2  0  0  0  0
M  END
> <s_m_source_file>
AV-unprocessed.smi

> <i_m_source_file_index>
1546

> <i_lp_mmshare_version>
43012

> <i_f3d_flags>
0

> <s_epik_input>
W0NIMl0xW0NIMl1bQ0hdMVtDSDJdT1tDSDJdQyg9TylbTkhdYzJbY0hdbltjSF1bY0hdYzJbT0hd

> <s_epik_cmdline>
J2VwaWtfcHl0aG9uJywgJy1waCcsICc3LjAnLCAnLXRuJywgJzgnLCAnLW1hJywgJzIwMCcsICctbWV0YWxfYmluZGluZycsICctaW1hZScsICc8aW5maWxlLm1hZT4nLCAnLW9tYWUnLCAnPG91dGZpbGUubWFlPic=

> <r_lp_tautomer_probability>
1

> <r_epik_Ionization_Penalty>
0.000226134

> <r_epik_Ionization_Penalty_Charging>
0.000226086

> <r_epik_Ionization_Penalty_Neutral>
4.85517e-08

> <r_epik_State_Penalty>
-0

> <r_epik_Charging_Adjusted_Penalty>
0.000226086

> <i_epik_Tot_Q>
0

> <i_epik_Tot_abs_Q>
0

> <r_epik_Metal_State_Penalty>
0.0890487

> <b_epik_Metal_Only>
0

> <s_lp_Force_Field>
OPLS_2005

> <r_lp_Energy>
13.4663

> <b_lp_Chiralities_Consistent>
1

> <s_lp_Variant>
AV-unprocessed.smi:1546-1

> <Gold.Version>
5.8.1

> <Gold.Id.Protein>
6NUR|6NUR_protein|mol2

> <Gold.PLP.Fitness>
41.0099

> <Gold.PLP.PLP>
-36.2153

> <Gold.PLP.part.hbond>
-3.0000

> <Gold.PLP.part.metal>
0.0000

> <Gold.PLP.part.buried>
-1.1663

> <Gold.PLP.part.nonpolar>
-31.4848

> <Gold.PLP.part.repulsive>
0.3653

> <Gold.PLP.ligand.clash>
0.0000

> <Gold.PLP.ligand.torsion>
0.7268

> <Gold.PLP.Chemscore.Hbond>
1.8960

> <Gold.PLP.Chemscore.CHOScore>
0.0000

> <Gold.PLP.Chemscore.Metal>
0.0000

> <Gold.Chemscore.Hbonds>
donor molecule, donor type, donor heavy atom, donor atom, acceptor molecule, acceptor atom, score
      L1  H    12    30       P1  7948  1.00
      P1  H  7989  7998       L1     1  0.75

> <Gold.PLP.Chemscore.Internal.Correction>
0.5602

> <Gold.Rescore>
     Score         DG    S(hbond)    S(metal)    S(lipo)     H(rot)  DE(clash)    DE(int)     intcor
     12.94     -16.34       1.53        0.00      87.56       1.75       1.71       1.69       ----

> <Gold.Chemscore.Fitness>
12.9433

> <Gold.Chemscore.DG>
-16.3372

> <Gold.Chemscore.ZeroCoef>
-5.4800

> <Gold.Chemscore.Hbond>
1.5277

> <Gold.Chemscore.Metal>
0.0000

> <Gold.Chemscore.Lipo>
87.5619

> <Gold.Chemscore.Internal_Hbond>
0.0000

> <Gold.Chemscore.DEClash>
1.7079

> <Gold.Chemscore.DEInternal>
1.6860

> <Gold.Chemscore.Rot>
1.7540

> <Gold.Chemscore.Internal.Correction>
   9.000000E+99

> <Gold.Chemscore.Hbonds>
donor molecule, donor type, donor heavy atom, donor atom, acceptor molecule, acceptor atom, score
      L1  H    12    30       P1  7948  1.00
      P1  H  7989  7998       L1     1  0.76

> <Gold.Chemscore.Hbond.Weighted>
-5.1026

> <Gold.Chemscore.Metal.Weighted>
-0.0000

> <Gold.Chemscore.Lipo.Weighted>
-10.2447

> <Gold.Chemscore.Internal_Hbond.Weighted>
0.0000

> <Gold.Chemscore.DEClash.Weighted>
1.7079

> <Gold.Chemscore.DEInternal.Weighted>
1.6860

> <Gold.Chemscore.Rot.Weighted>
4.4901

> <Gold.Chemscore.Internal.Correction.Weighted>
   9.000000E+99

> <Gold.Protein.RotatedTorsions>
[ 6907 6896 6895 6894 ] final  -77.81 input  -60.11 | X-H torsion
[ 7974 7965 7964 7962 ] final  169.28 input  175.53 | X-H torsion
[ 8008 7997 7996 7995 ] final   82.08 input   59.86 | X-H torsion
[ 10167 10162 10161 10158 ] final  -71.95 input  -65.29 | X-H torsion
[ 10718 10713 10712 10709 ] final   90.35 input   66.30 | X-H torsion
[ 10763 10752 10751 10750 ] final   64.55 input  -60.55 | X-H torsion
[ 11005 11000 10999 10996 ] final  -86.27 input  -57.11 | X-H torsion

> <Gold.Protein.ActiveResidues>
 VAL166  LYS551  ARG553  GLY616  TRP617  ASP618  TYR619  PRO620  LYS621  CYS622 
 ASP623  PHE694  ASN695  SER759  ASP760  ASP761  ALA762  ILE779  LEU786  VAL792 
 PHE793  MET794  SER795  GLU796  ALA797  LYS798  CYS799  TRP800  GLU811  SER814 

> <Gold.Protein.RotatedAtoms>
  150.6989  134.4367  159.5272 H   0  0  0  0  0  0  0  0  0  0  0  0  # atno 6907 bound_to 6896
  152.2084  134.8521  160.0509 H   0  0  0  0  0  0  0  0  0  0  0  0  # atno 6908 bound_to 6896
  151.9416  133.3604  159.4004 H   0  0  0  0  0  0  0  0  0  0  0  0  # atno 6909 bound_to 6896
  144.7360  139.9031  143.6410 H   0  0  0  0  0  0  0  0  0  0  0  0  # atno 7974 bound_to 7965
  155.9058  140.3430  155.6061 H   0  0  0  0  0  0  0  0  0  0  0  0  # atno 8008 bound_to 7997
  155.7446  140.0812  157.2248 H   0  0  0  0  0  0  0  0  0  0  0  0  # atno 8009 bound_to 7997
  154.4049  140.1564  156.2642 H   0  0  0  0  0  0  0  0  0  0  0  0  # atno 8010 bound_to 7997
  140.5232  143.2329  151.7394 H   0  0  0  0  0  0  0  0  0  0  0  0  # atno 10167 bound_to 10162
  157.6958  131.0367  150.3564 H   0  0  0  0  0  0  0  0  0  0  0  0  # atno 10718 bound_to 10713
  153.0060  135.5389  154.6528 H   0  0  0  0  0  0  0  0  0  0  0  0  # atno 10763 bound_to 10752
  154.5756  135.2845  155.0786 H   0  0  0  0  0  0  0  0  0  0  0  0  # atno 10764 bound_to 10752
  154.1935  135.6496  153.5119 H   0  0  0  0  0  0  0  0  0  0  0  0  # atno 10765 bound_to 10752
  141.1632  133.7445  156.9137 H   0  0  0  0  0  0  0  0  0  0  0  0  # atno 11005 bound_to 11000
  146.1057  139.4056  143.0319 LP  0  0  0  0  0  0  0  0  0  0  0  0  # atno 17320 bound_to 7965
  145.7515  140.9970  143.1248 LP  0  0  0  0  0  0  0  0  0  0  0  0  # atno 17321 bound_to 7965
  139.4930  144.4224  151.9963 LP  0  0  0  0  0  0  0  0  0  0  0  0  # atno 17342 bound_to 10162
  140.3322  144.3303  150.5985 LP  0  0  0  0  0  0  0  0  0  0  0  0  # atno 17343 bound_to 10162
  156.4006  130.3915  149.6962 LP  0  0  0  0  0  0  0  0  0  0  0  0  # atno 17370 bound_to 10713
  156.4281  130.7801  151.2821 LP  0  0  0  0  0  0  0  0  0  0  0  0  # atno 17371 bound_to 10713
  140.1499  134.9237  157.2578 LP  0  0  0  0  0  0  0  0  0  0  0  0  # atno 17394 bound_to 11000
  140.2735  134.3432  155.7365 LP  0  0  0  0  0  0  0  0  0  0  0  0  # atno 17395 bound_to 11000

$$$$
