AV-unprocessed.smi:1512|AV-procd|sdf|6107|dock4
  -GOLD-   22720 6243D 1   1.00000     0.00000
 Structure written by MMmdl.
 44 46  0  0  0  0  0  0  0  0  3 V2000
  147.7825  134.3165  154.4512 C   0  0  0  0  0  0  0  0  0  0  0  0
  146.4912  134.9814  153.9473 C   0  0  1  0  0  0  0  0  0  0  0  0
  146.8429  136.2353  153.2830 N   0  0  0  0  0  0  0  0  0  0  0  0
  146.3724  137.4525  153.5963 C   0  0  0  0  0  0  0  0  0  0  0  0
  145.6173  137.6679  154.5451 O   0  0  0  0  0  0  0  0  0  0  0  0
  146.8334  138.6050  152.6937 C   0  0  0  0  0  0  0  0  0  0  0  0
  147.4791  139.6935  153.4477 N   0  0  0  0  0  0  0  0  0  0  0  0
  146.8274  140.9410  153.4539 C   0  0  0  0  0  0  0  0  0  0  0  0
  147.3358  142.0026  154.0956 C   0  0  0  0  0  0  0  0  0  0  0  0
  148.5858  141.8423  154.7975 C   0  0  0  0  0  0  0  0  0  0  0  0
  149.2298  140.6525  154.8074 C   0  0  0  0  0  0  0  0  0  0  0  0
  150.4754  140.5597  155.5337 N   0  3  0  0  0  0  0  0  0  0  0  0
  151.4326  140.0065  155.0011 O   0  0  0  0  0  0  0  0  0  0  0  0
  150.5285  141.0269  156.6677 O   0  5  0  0  0  0  0  0  0  0  0  0
  148.6695  139.4866  154.0934 C   0  0  0  0  0  0  0  0  0  0  0  0
  149.2308  138.3894  154.0611 O   0  0  0  0  0  0  0  0  0  0  0  0
  145.7003  134.0719  152.9743 C   0  0  1  0  0  0  0  0  0  0  0  0
  144.3674  134.6942  152.4909 C   0  0  0  0  0  0  0  0  0  0  0  0
  144.4739  134.6167  150.9575 C   0  0  2  0  0  0  0  0  0  0  0  0
  144.3801  133.1474  150.5081 C   0  0  0  0  0  0  0  0  0  0  0  0
  145.7374  132.5718  150.9526 C   0  0  0  0  0  0  0  0  0  0  0  0
  146.4143  133.7801  151.6276 C   0  0  1  0  0  0  0  0  0  0  0  0
  145.9485  134.9258  150.7362 C   0  0  0  0  0  0  0  0  0  0  0  0
  147.5730  133.4001  155.0025 H   0  0  0  0  0  0  0  0  0  0  0  0
  148.3274  134.9805  155.1232 H   0  0  0  0  0  0  0  0  0  0  0  0
  148.4469  134.0617  153.6248 H   0  0  0  0  0  0  0  0  0  0  0  0
  145.8640  135.1843  154.8166 H   0  0  0  0  0  0  0  0  0  0  0  0
  147.4641  136.1640  152.4903 H   0  0  0  0  0  0  0  0  0  0  0  0
  147.5091  138.1955  151.9418 H   0  0  0  0  0  0  0  0  0  0  0  0
  145.9846  138.9995  152.1316 H   0  0  0  0  0  0  0  0  0  0  0  0
  145.9002  140.9812  152.9008 H   0  0  0  0  0  0  0  0  0  0  0  0
  146.8241  142.9538  154.0858 H   0  0  0  0  0  0  0  0  0  0  0  0
  148.9982  142.6901  155.3252 H   0  0  0  0  0  0  0  0  0  0  0  0
  145.5014  133.1282  153.4850 H   0  0  0  0  0  0  0  0  0  0  0  0
  143.4975  134.1593  152.8736 H   0  0  0  0  0  0  0  0  0  0  0  0
  144.2751  135.7360  152.8003 H   0  0  0  0  0  0  0  0  0  0  0  0
  143.7811  135.2786  150.4372 H   0  0  0  0  0  0  0  0  0  0  0  0
  143.5374  132.6286  150.9667 H   0  0  0  0  0  0  0  0  0  0  0  0
  144.2699  133.0765  149.4253 H   0  0  0  0  0  0  0  0  0  0  0  0
  145.6311  131.7211  151.6265 H   0  0  0  0  0  0  0  0  0  0  0  0
  146.3138  132.2402  150.0878 H   0  0  0  0  0  0  0  0  0  0  0  0
  147.4962  133.6685  151.6951 H   0  0  0  0  0  0  0  0  0  0  0  0
  146.2620  134.8198  149.6961 H   0  0  0  0  0  0  0  0  0  0  0  0
  146.2463  135.9106  151.0995 H   0  0  0  0  0  0  0  0  0  0  0  0
  1  2  1  0  0  0  0
  1 24  1  0  0  0  0
  1 25  1  0  0  0  0
  1 26  1  0  0  0  0
  2  3  1  0  0  0  0
  2 17  1  0  0  0  0
  2 27  1  0  0  0  0
  3  4  1  0  0  0  0
  3 28  1  0  0  0  0
  4  5  2  0  0  0  0
  4  6  1  0  0  0  0
  6  7  1  0  0  0  0
  6 29  1  0  0  0  0
  6 30  1  0  0  0  0
  7 15  1  0  0  0  0
  7  8  1  0  0  0  0
  8  9  2  0  0  0  0
  8 31  1  0  0  0  0
  9 10  1  0  0  0  0
  9 32  1  0  0  0  0
 10 11  2  0  0  0  0
 10 33  1  0  0  0  0
 11 12  1  0  0  0  0
 11 15  1  0  0  0  0
 12 13  2  0  0  0  0
 12 14  1  0  0  0  0
 15 16  2  0  0  0  0
 17 22  1  0  0  0  0
 17 18  1  0  0  0  0
 17 34  1  0  0  0  0
 18 19  1  0  0  0  0
 18 35  1  0  0  0  0
 18 36  1  0  0  0  0
 19 23  1  0  0  0  0
 19 20  1  0  0  0  0
 19 37  1  0  0  0  0
 20 21  1  0  0  0  0
 20 38  1  0  0  0  0
 20 39  1  0  0  0  0
 21 22  1  0  0  0  0
 21 40  1  0  0  0  0
 21 41  1  0  0  0  0
 22 23  1  0  0  0  0
 22 42  1  0  0  0  0
 23 43  1  0  0  0  0
 23 44  1  0  0  0  0
M  CHG  1  12   1
M  CHG  1  14  -1
M  END
> <s_m_source_file>
AV-unprocessed.smi

> <i_m_source_file_index>
1512

> <i_lp_mmshare_version>
43012

> <i_f3d_flags>
0

> <s_epik_input>
W0NIMl0xW0NIMl1bQ0BIXShbQ0gyXTIpW0NAQEhdKFtDSDJdW0NAQEhdMTIpW0NASF0oW0NIM10pW05IXUMoPU8pW0NIMl1uM1tjSF1bY0hdW2NIXWMoW04rXSg9TylbTy1dKWMzPU8=

> <s_epik_cmdline>
J2VwaWtfcHl0aG9uJywgJy1waCcsICc3LjAnLCAnLXRuJywgJzgnLCAnLW1hJywgJzIwMCcsICctbWV0YWxfYmluZGluZycsICctaW1hZScsICc8aW5maWxlLm1hZT4nLCAnLW9tYWUnLCAnPG91dGZpbGUubWFlPic=

> <r_lp_tautomer_probability>
1

> <r_epik_Ionization_Penalty>
2.17697e-08

> <r_epik_Ionization_Penalty_Charging>
1.42735e-10

> <r_epik_Ionization_Penalty_Neutral>
2.16269e-08

> <r_epik_State_Penalty>
-0

> <r_epik_Charging_Adjusted_Penalty>
1.42735e-10

> <i_epik_Tot_Q>
0

> <i_epik_Tot_abs_Q>
2

> <r_epik_Metal_State_Penalty>
-0

> <b_epik_Metal_Only>
0

> <s_lp_Force_Field>
OPLS_2005

> <r_lp_Energy>
63.9552

> <b_lp_Chiralities_Consistent>
1

> <s_lp_Variant>
AV-unprocessed.smi:1512-8

> <Gold.Version>
5.8.1

> <Gold.Id.Protein>
6NUR|6NUR_protein|mol2

> <Gold.PLP.Fitness>
44.7762

> <Gold.PLP.PLP>
-37.5116

> <Gold.PLP.part.hbond>
-2.0000

> <Gold.PLP.part.metal>
0.0000

> <Gold.PLP.part.buried>
-3.4500

> <Gold.PLP.part.nonpolar>
-33.1749

> <Gold.PLP.part.repulsive>
0.9522

> <Gold.PLP.ligand.clash>
0.0000

> <Gold.PLP.ligand.torsion>
0.8751

> <Gold.PLP.Chemscore.Hbond>
1.9920

> <Gold.PLP.Chemscore.CHOScore>
0.9926

> <Gold.PLP.Chemscore.Metal>
0.0000

> <Gold.Chemscore.Hbonds>
donor molecule, donor type, donor heavy atom, donor atom, acceptor molecule, acceptor atom, score
      L1  H     3    28       P1  7948  1.00
      P1  H  7989  7998       L1    13  1.00
      L1  C     8    31       P1 10175  1.00

> <Gold.PLP.Chemscore.Internal.Correction>
0.0610

> <Gold.Rescore>
     Score         DG    S(hbond)    S(metal)    S(lipo)     H(rot)  DE(clash)    DE(int)     intcor
     13.12     -16.68       1.94        0.00      78.72       1.75       0.30       3.27       ----

> <Gold.Chemscore.Fitness>
13.1195

> <Gold.Chemscore.DG>
-16.6846

> <Gold.Chemscore.ZeroCoef>
-5.4800

> <Gold.Chemscore.Hbond>
1.9365

> <Gold.Chemscore.Metal>
0.0000

> <Gold.Chemscore.Lipo>
78.7190

> <Gold.Chemscore.Internal_Hbond>
0.0000

> <Gold.Chemscore.DEClash>
0.2952

> <Gold.Chemscore.DEInternal>
3.2699

> <Gold.Chemscore.Rot>
1.7474

> <Gold.Chemscore.Internal.Correction>
   9.000000E+99

> <Gold.Chemscore.Hbonds>
donor molecule, donor type, donor heavy atom, donor atom, acceptor molecule, acceptor atom, score
      L1  H     3    28       P1  7948  0.94
      P1  H  7989  7998       L1    13  0.44

> <Gold.Chemscore.Hbond.Weighted>
-6.4678

> <Gold.Chemscore.Metal.Weighted>
-0.0000

> <Gold.Chemscore.Lipo.Weighted>
-9.2101

> <Gold.Chemscore.Internal_Hbond.Weighted>
0.0000

> <Gold.Chemscore.DEClash.Weighted>
0.2952

> <Gold.Chemscore.DEInternal.Weighted>
3.2699

> <Gold.Chemscore.Rot.Weighted>
4.4733

> <Gold.Chemscore.Internal.Correction.Weighted>
   9.000000E+99

> <Gold.Protein.RotatedTorsions>
[ 6907 6896 6895 6894 ] final -160.74 input  -60.11 | X-H torsion
[ 7974 7965 7964 7962 ] final  -24.59 input  175.53 | X-H torsion
[ 8008 7997 7996 7995 ] final   96.54 input   59.86 | X-H torsion
[ 10167 10162 10161 10158 ] final -130.11 input  -65.29 | X-H torsion
[ 10718 10713 10712 10709 ] final  120.15 input   66.30 | X-H torsion
[ 10763 10752 10751 10750 ] final   16.46 input  -60.55 | X-H torsion
[ 11005 11000 10999 10996 ] final   84.89 input  -57.11 | X-H torsion

> <Gold.Protein.ActiveResidues>
 VAL166  LYS551  ARG553  GLY616  TRP617  ASP618  TYR619  PRO620  LYS621  CYS622 
 ASP623  PHE694  ASN695  SER759  ASP760  ASP761  ALA762  ILE779  LEU786  VAL792 
 PHE793  MET794  SER795  GLU796  ALA797  LYS798  CYS799  TRP800  GLU811  SER814 

> <Gold.Protein.RotatedAtoms>
  151.3537  133.3915  159.2682 H   0  0  0  0  0  0  0  0  0  0  0  0  # atno 6907 bound_to 6896
  150.9781  134.9142  159.7838 H   0  0  0  0  0  0  0  0  0  0  0  0  # atno 6908 bound_to 6896
  152.5207  134.3500  159.9300 H   0  0  0  0  0  0  0  0  0  0  0  0  # atno 6909 bound_to 6896
  146.1545  140.4772  142.8597 H   0  0  0  0  0  0  0  0  0  0  0  0  # atno 7974 bound_to 7965
  156.0807  140.3271  155.7690 H   0  0  0  0  0  0  0  0  0  0  0  0  # atno 8008 bound_to 7997
  155.5158  140.0581  157.2933 H   0  0  0  0  0  0  0  0  0  0  0  0  # atno 8009 bound_to 7997
  154.4580  140.1952  156.0340 H   0  0  0  0  0  0  0  0  0  0  0  0  # atno 8010 bound_to 7997
  139.9328  143.6253  152.2525 H   0  0  0  0  0  0  0  0  0  0  0  0  # atno 10167 bound_to 10162
  157.5911  131.1064  150.7996 H   0  0  0  0  0  0  0  0  0  0  0  0  # atno 10718 bound_to 10713
  153.1429  135.6763  153.8999 H   0  0  0  0  0  0  0  0  0  0  0  0  # atno 10763 bound_to 10752
  153.8450  135.3100  155.3430 H   0  0  0  0  0  0  0  0  0  0  0  0  # atno 10764 bound_to 10752
  154.7802  135.4892  153.9912 H   0  0  0  0  0  0  0  0  0  0  0  0  # atno 10765 bound_to 10752
  139.8987  134.8248  156.2508 H   0  0  0  0  0  0  0  0  0  0  0  0  # atno 11005 bound_to 11000
  144.7946  140.6097  143.6519 LP  0  0  0  0  0  0  0  0  0  0  0  0  # atno 17320 bound_to 7965
  145.4742  139.1501  143.3797 LP  0  0  0  0  0  0  0  0  0  0  0  0  # atno 17321 bound_to 7965
  139.6768  144.7658  151.1681 LP  0  0  0  0  0  0  0  0  0  0  0  0  # atno 17342 bound_to 10162
  140.7633  143.5783  150.8922 LP  0  0  0  0  0  0  0  0  0  0  0  0  # atno 17343 bound_to 10162
  156.8418  130.5050  149.5320 LP  0  0  0  0  0  0  0  0  0  0  0  0  # atno 17370 bound_to 10713
  156.0966  130.5937  150.9824 LP  0  0  0  0  0  0  0  0  0  0  0  0  # atno 17371 bound_to 10713
  141.0225  133.7033  156.1292 LP  0  0  0  0  0  0  0  0  0  0  0  0  # atno 17394 bound_to 11000
  140.7213  134.4355  157.5574 LP  0  0  0  0  0  0  0  0  0  0  0  0  # atno 17395 bound_to 11000

$$$$
