AV-unprocessed.smi:2198|AV-procd|sdf|8922|dock5
  -GOLD-   2272012143D 1   1.00000     0.00000
 Structure written by MMmdl.
 42 43  0  0  0  0  0  0  0  0  2 V2000
  152.8373  139.5018  159.5024 C   0  0  0  0  0  0  0  0  0  0  0  0
  152.1440  139.1953  158.1920 C   0  0  0  0  0  0  0  0  0  0  0  0
  151.0067  138.6118  158.2081 N   0  0  0  0  0  0  0  0  0  0  0  0
  150.3606  138.3214  156.9945 C   0  0  0  0  0  0  0  0  0  0  0  0
  149.0175  137.6220  157.1121 C   0  0  0  0  0  0  0  0  0  0  0  0
  150.9234  138.6550  155.7973 C   0  0  0  0  0  0  0  0  0  0  0  0
  150.2660  138.3545  154.4508 C   0  0  0  0  0  0  0  0  0  0  0  0
  148.8818  138.9715  154.2458 C   0  0  0  0  0  0  0  0  0  0  0  0
  148.4541  139.8062  155.0428 O   0  0  0  0  0  0  0  0  0  0  0  0
  148.1919  138.5514  153.1741 N   0  0  0  0  0  0  0  0  0  0  0  0
  146.8544  139.0011  152.7936 C   0  0  1  0  0  0  0  0  0  0  0  0
  146.5621  138.7039  151.3076 C   0  0  0  0  0  0  0  0  0  0  0  0
  146.3980  137.1982  151.0413 C   0  0  0  0  0  0  0  0  0  0  0  0
  145.3213  136.5851  151.9500 C   0  0  0  0  0  0  0  0  0  0  0  0
  145.6227  136.8413  153.4390 C   0  0  2  0  0  0  0  0  0  0  0  0
  144.5407  136.2319  154.3418 C   0  0  0  0  0  0  0  0  0  0  0  0
  145.7937  138.3522  153.7055 C   0  0  0  0  0  0  0  0  0  0  0  0
  152.2319  139.3339  155.8229 C   0  0  0  0  0  0  0  0  0  0  0  0
  152.7782  139.6715  154.7734 O   0  0  0  0  0  0  0  0  0  0  0  0
  152.7987  139.5701  157.0405 N   0  5  0  0  0  0  0  0  0  0  0  0
  152.1681  139.3397  160.3482 H   0  0  0  0  0  0  0  0  0  0  0  0
  153.1680  140.5409  159.5249 H   0  0  0  0  0  0  0  0  0  0  0  0
  153.7089  138.8588  159.6259 H   0  0  0  0  0  0  0  0  0  0  0  0
  149.0308  136.6695  156.5822 H   0  0  0  0  0  0  0  0  0  0  0  0
  148.2245  138.2432  156.6961 H   0  0  0  0  0  0  0  0  0  0  0  0
  148.7686  137.4190  158.1544 H   0  0  0  0  0  0  0  0  0  0  0  0
  150.9050  138.6751  153.6275 H   0  0  0  0  0  0  0  0  0  0  0  0
  150.1991  137.2727  154.3327 H   0  0  0  0  0  0  0  0  0  0  0  0
  148.6251  137.8625  152.5766 H   0  0  0  0  0  0  0  0  0  0  0  0
  146.8063  140.0807  152.9469 H   0  0  0  0  0  0  0  0  0  0  0  0
  145.6453  139.2176  151.0161 H   0  0  0  0  0  0  0  0  0  0  0  0
  147.3497  139.1121  150.6730 H   0  0  0  0  0  0  0  0  0  0  0  0
  146.1374  137.0342  149.9954 H   0  0  0  0  0  0  0  0  0  0  0  0
  147.3486  136.6890  151.2041 H   0  0  0  0  0  0  0  0  0  0  0  0
  144.3480  137.0055  151.6929 H   0  0  0  0  0  0  0  0  0  0  0  0
  145.2535  135.5130  151.7620 H   0  0  0  0  0  0  0  0  0  0  0  0
  146.5634  136.3446  153.6806 H   0  0  0  0  0  0  0  0  0  0  0  0
  143.5651  136.6799  154.1501 H   0  0  0  0  0  0  0  0  0  0  0  0
  144.7760  136.3846  155.3953 H   0  0  0  0  0  0  0  0  0  0  0  0
  144.4518  135.1576  154.1774 H   0  0  0  0  0  0  0  0  0  0  0  0
  146.0517  138.5223  154.7518 H   0  0  0  0  0  0  0  0  0  0  0  0
  144.8380  138.8538  153.5460 H   0  0  0  0  0  0  0  0  0  0  0  0
  1  2  1  0  0  0  0
  1 21  1  0  0  0  0
  1 22  1  0  0  0  0
  1 23  1  0  0  0  0
  2 20  1  0  0  0  0
  2  3  2  0  0  0  0
  3  4  1  0  0  0  0
  4  5  1  0  0  0  0
  4  6  2  0  0  0  0
  5 24  1  0  0  0  0
  5 25  1  0  0  0  0
  5 26  1  0  0  0  0
  6  7  1  0  0  0  0
  6 18  1  0  0  0  0
  7  8  1  0  0  0  0
  7 27  1  0  0  0  0
  7 28  1  0  0  0  0
  8  9  2  0  0  0  0
  8 10  1  0  0  0  0
 10 11  1  0  0  0  0
 10 29  1  0  0  0  0
 11 17  1  0  0  0  0
 11 12  1  0  0  0  0
 11 30  1  0  0  0  0
 12 13  1  0  0  0  0
 12 31  1  0  0  0  0
 12 32  1  0  0  0  0
 13 14  1  0  0  0  0
 13 33  1  0  0  0  0
 13 34  1  0  0  0  0
 14 15  1  0  0  0  0
 14 35  1  0  0  0  0
 14 36  1  0  0  0  0
 15 16  1  0  0  0  0
 15 17  1  0  0  0  0
 15 37  1  0  0  0  0
 16 38  1  0  0  0  0
 16 39  1  0  0  0  0
 16 40  1  0  0  0  0
 17 41  1  0  0  0  0
 17 42  1  0  0  0  0
 18 19  2  0  0  0  0
 18 20  1  0  0  0  0
M  CHG  1  20  -1
M  END
> <s_m_source_file>
AV-unprocessed.smi

> <i_m_source_file_index>
2198

> <i_lp_mmshare_version>
43012

> <i_f3d_flags>
0

> <s_epik_input>
W0NIM11jMW5jKFtDSDNdKWMoYyg9TylbbkhdMSlbQ0gyXUMoPU8pW05IXVtDQEBIXTJbQ0gyXVtDSDJdW0NIMl1bQ0BASF0oW0NIM10pW0NIMl0y

> <s_epik_cmdline>
J2VwaWtfcHl0aG9uJywgJy1waCcsICc3LjAnLCAnLXRuJywgJzgnLCAnLW1hJywgJzIwMCcsICctbWV0YWxfYmluZGluZycsICctaW1hZScsICc8aW5maWxlLm1hZT4nLCAnLW9tYWUnLCAnPG91dGZpbGUubWFlPic=

> <r_lp_tautomer_probability>
0.839158

> <r_epik_Ionization_Penalty>
6.67193

> <r_epik_Ionization_Penalty_Charging>
7.66837e-08

> <r_epik_Ionization_Penalty_Neutral>
6.67193

> <r_epik_State_Penalty>
4.51643

> <r_epik_Charging_Adjusted_Penalty>
4.51643

> <i_epik_Tot_Q>
-1

> <i_epik_Tot_abs_Q>
1

> <r_epik_Metal_State_Penalty>
0.851582

> <b_epik_Metal_Only>
1

> <s_lp_Force_Field>
OPLS_2005

> <r_lp_Energy>
13.9181

> <b_lp_Chiralities_Consistent>
1

> <s_lp_Variant>
AV-unprocessed.smi:2198-12

> <Gold.Version>
5.8.1

> <Gold.Id.Protein>
6NUR|6NUR_protein|mol2

> <Gold.PLP.Fitness>
36.6833

> <Gold.PLP.PLP>
-26.9656

> <Gold.PLP.part.hbond>
-4.7383

> <Gold.PLP.part.metal>
0.0000

> <Gold.PLP.part.buried>
2.1960

> <Gold.PLP.part.nonpolar>
-25.4934

> <Gold.PLP.part.repulsive>
0.1393

> <Gold.PLP.ligand.clash>
0.0000

> <Gold.PLP.ligand.torsion>
0.3408

> <Gold.PLP.Chemscore.Hbond>
3.4640

> <Gold.PLP.Chemscore.CHOScore>
0.0000

> <Gold.PLP.Chemscore.Metal>
0.0000

> <Gold.Chemscore.Hbonds>
donor molecule, donor type, donor heavy atom, donor atom, acceptor molecule, acceptor atom, score
      L1  H    10    29       P1  7948  1.00
      P1  H  7989  7998       L1    19  0.45
      P1  H  7997  8008       L1    20  2.00

> <Gold.PLP.Chemscore.Internal.Correction>
0.0073

> <Gold.Rescore>
     Score         DG    S(hbond)    S(metal)    S(lipo)     H(rot)  DE(clash)    DE(int)     intcor
     15.29     -16.82       2.43        0.00      59.19       1.45       1.15       0.38       ----

> <Gold.Chemscore.Fitness>
15.2890

> <Gold.Chemscore.DG>
-16.8211

> <Gold.Chemscore.ZeroCoef>
-5.4800

> <Gold.Chemscore.Hbond>
2.4298

> <Gold.Chemscore.Metal>
0.0000

> <Gold.Chemscore.Lipo>
59.1862

> <Gold.Chemscore.Internal_Hbond>
0.0000

> <Gold.Chemscore.DEClash>
1.1485

> <Gold.Chemscore.DEInternal>
0.3835

> <Gold.Chemscore.Rot>
1.4450

> <Gold.Chemscore.Internal.Correction>
   9.000000E+99

> <Gold.Chemscore.Hbonds>
donor molecule, donor type, donor heavy atom, donor atom, acceptor molecule, acceptor atom, score
      L1  H    10    29       P1  7948  1.00
      P1  H  7989  7998       L1    19  0.41
      P1  H  7997  8008       L1    20  0.30

> <Gold.Chemscore.Hbond.Weighted>
-8.1155

> <Gold.Chemscore.Metal.Weighted>
-0.0000

> <Gold.Chemscore.Lipo.Weighted>
-6.9248

> <Gold.Chemscore.Internal_Hbond.Weighted>
0.0000

> <Gold.Chemscore.DEClash.Weighted>
1.1485

> <Gold.Chemscore.DEInternal.Weighted>
0.3835

> <Gold.Chemscore.Rot.Weighted>
3.6992

> <Gold.Chemscore.Internal.Correction.Weighted>
   9.000000E+99

> <Gold.Protein.RotatedTorsions>
[ 6907 6896 6895 6894 ] final -104.82 input  -60.11 | X-H torsion
[ 7974 7965 7964 7962 ] final  125.97 input  175.53 | X-H torsion
[ 8008 7997 7996 7995 ] final  -55.59 input   59.86 | X-H torsion
[ 10167 10162 10161 10158 ] final  148.56 input  -65.29 | X-H torsion
[ 10718 10713 10712 10709 ] final   77.07 input   66.30 | X-H torsion
[ 10763 10752 10751 10750 ] final -177.13 input  -60.55 | X-H torsion
[ 11005 11000 10999 10996 ] final   48.45 input  -57.11 | X-H torsion

> <Gold.Protein.ActiveResidues>
 VAL166  LYS551  ARG553  GLY616  TRP617  ASP618  TYR619  PRO620  LYS621  CYS622 
 ASP623  PHE694  ASN695  SER759  ASP760  ASP761  ALA762  ILE779  LEU786  VAL792 
 PHE793  MET794  SER795  GLU796  ALA797  LYS798  CYS799  TRP800  GLU811  SER814 

> <Gold.Protein.RotatedAtoms>
  150.7306  134.0220  159.3704 H   0  0  0  0  0  0  0  0  0  0  0  0  # atno 6907 bound_to 6896
  151.8185  135.0657  160.0431 H   0  0  0  0  0  0  0  0  0  0  0  0  # atno 6908 bound_to 6896
  152.3021  133.5629  159.5661 H   0  0  0  0  0  0  0  0  0  0  0  0  # atno 6909 bound_to 6896
  145.0670  139.3760  143.4977 H   0  0  0  0  0  0  0  0  0  0  0  0  # atno 7974 bound_to 7965
  154.4200  140.1149  156.5502 H   0  0  0  0  0  0  0  0  0  0  0  0  # atno 8008 bound_to 7997
  155.6418  140.3496  155.4698 H   0  0  0  0  0  0  0  0  0  0  0  0  # atno 8009 bound_to 7997
  155.9865  140.1170  157.0668 H   0  0  0  0  0  0  0  0  0  0  0  0  # atno 8010 bound_to 7997
  139.4873  144.5670  151.7127 H   0  0  0  0  0  0  0  0  0  0  0  0  # atno 10167 bound_to 10162
  157.6697  130.9804  150.1589 H   0  0  0  0  0  0  0  0  0  0  0  0  # atno 10718 bound_to 10713
  154.5638  135.2822  155.0893 H   0  0  0  0  0  0  0  0  0  0  0  0  # atno 10763 bound_to 10752
  154.2292  135.6377  153.5173 H   0  0  0  0  0  0  0  0  0  0  0  0  # atno 10764 bound_to 10752
  153.0037  135.5533  154.6241 H   0  0  0  0  0  0  0  0  0  0  0  0  # atno 10765 bound_to 10752
  140.1189  134.4855  155.8614 H   0  0  0  0  0  0  0  0  0  0  0  0  # atno 11005 bound_to 11000
  146.3527  140.0396  142.8644 LP  0  0  0  0  0  0  0  0  0  0  0  0  # atno 17320 bound_to 7965
  145.1339  140.9533  143.4528 LP  0  0  0  0  0  0  0  0  0  0  0  0  # atno 17321 bound_to 7965
  140.5250  144.0820  150.6034 LP  0  0  0  0  0  0  0  0  0  0  0  0  # atno 17342 bound_to 10162
  140.3791  143.2812  152.0191 LP  0  0  0  0  0  0  0  0  0  0  0  0  # atno 17343 bound_to 10162
  156.2370  130.3687  149.8380 LP  0  0  0  0  0  0  0  0  0  0  0  0  # atno 17370 bound_to 10713
  156.6191  130.8619  151.3471 LP  0  0  0  0  0  0  0  0  0  0  0  0  # atno 17371 bound_to 10713
  141.2147  133.6753  156.6850 LP  0  0  0  0  0  0  0  0  0  0  0  0  # atno 17394 bound_to 11000
  140.2991  134.8178  157.4082 LP  0  0  0  0  0  0  0  0  0  0  0  0  # atno 17395 bound_to 11000

$$$$
