AV-unprocessed.smi:1586|AV-procd|sdf|6378|dock4
  -GOLD-   22720 7 13D 1   1.00000     0.00000
 Structure written by MMmdl.
 46 47  0  0  0  0  0  0  0  0  1 V2000
  153.3616  142.4955  160.3548 C   0  0  0  0  0  0  0  0  0  0  0  0
  152.3031  143.0036  159.3655 C   0  0  0  0  0  0  0  0  0  0  0  0
  151.6626  141.9647  158.5612 N   0  0  0  0  0  0  0  0  0  0  0  0
  150.7664  142.5520  157.5701 C   0  0  0  0  0  0  0  0  0  0  0  0
  150.0630  141.4728  156.7283 C   0  0  0  0  0  0  0  0  0  0  0  0
  151.0152  140.6181  156.0024 N   0  0  0  0  0  0  0  0  0  0  0  0
  150.3419  139.5826  155.1836 C   0  0  1  0  0  0  0  0  0  0  0  0
  149.1136  140.1363  154.4166 C   0  0  0  0  0  0  0  0  0  0  0  0
  151.2996  138.8814  154.1781 C   0  0  0  0  0  0  0  0  0  0  0  0
  150.8555  137.5410  153.8016 N   0  0  0  0  0  0  0  0  0  0  0  0
  151.3735  136.3898  154.2559 C   0  0  0  0  0  0  0  0  0  0  0  0
  152.3004  136.3295  155.0641 O   0  0  0  0  0  0  0  0  0  0  0  0
  150.7566  135.3296  153.7071 N   0  0  0  0  0  0  0  0  0  0  0  0
  151.0518  133.9574  153.9096 C   0  0  0  0  0  0  0  0  0  0  0  0
  150.5923  132.9713  152.9967 C   0  0  0  0  0  0  0  0  0  0  0  0
  151.0782  131.8099  153.5283 C   0  0  0  0  0  0  0  0  0  0  0  0
  150.9883  130.3843  153.1036 C   0  0  0  0  0  0  0  0  0  0  0  0
  151.7727  132.0654  154.6702 O   0  0  0  0  0  0  0  0  0  0  0  0
  151.7530  133.4446  154.9091 N   0  0  0  0  0  0  0  0  0  0  0  0
  151.9362  140.0501  156.9996 C   0  0  0  0  0  0  0  0  0  0  0  0
  152.6303  141.1329  157.8473 C   0  0  0  0  0  0  0  0  0  0  0  0
  153.7190  143.3106  160.9840 H   0  0  0  0  0  0  0  0  0  0  0  0
  154.2291  142.0772  159.8453 H   0  0  0  0  0  0  0  0  0  0  0  0
  152.9503  141.7275  161.0105 H   0  0  0  0  0  0  0  0  0  0  0  0
  151.5374  143.5209  159.9450 H   0  0  0  0  0  0  0  0  0  0  0  0
  152.7458  143.7583  158.7137 H   0  0  0  0  0  0  0  0  0  0  0  0
  150.0116  143.1600  158.0702 H   0  0  0  0  0  0  0  0  0  0  0  0
  151.3214  143.2238  156.9129 H   0  0  0  0  0  0  0  0  0  0  0  0
  149.4232  140.8629  157.3682 H   0  0  0  0  0  0  0  0  0  0  0  0
  149.4090  141.9962  156.0338 H   0  0  0  0  0  0  0  0  0  0  0  0
  149.9712  138.8104  155.8595 H   0  0  0  0  0  0  0  0  0  0  0  0
  148.6340  139.3807  153.7966 H   0  0  0  0  0  0  0  0  0  0  0  0
  149.3962  140.9639  153.7653 H   0  0  0  0  0  0  0  0  0  0  0  0
  148.3273  140.4843  155.0842 H   0  0  0  0  0  0  0  0  0  0  0  0
  151.4514  139.5130  153.3010 H   0  0  0  0  0  0  0  0  0  0  0  0
  152.2839  138.7263  154.6156 H   0  0  0  0  0  0  0  0  0  0  0  0
  150.0970  137.4887  153.1374 H   0  0  0  0  0  0  0  0  0  0  0  0
  150.0059  135.5253  153.0615 H   0  0  0  0  0  0  0  0  0  0  0  0
  150.0050  133.0927  152.0985 H   0  0  0  0  0  0  0  0  0  0  0  0
  150.6199  130.3051  152.0808 H   0  0  0  0  0  0  0  0  0  0  0  0
  150.3093  129.8309  153.7523 H   0  0  0  0  0  0  0  0  0  0  0  0
  151.9660  129.9041  153.1478 H   0  0  0  0  0  0  0  0  0  0  0  0
  151.4020  139.3572  157.6515 H   0  0  0  0  0  0  0  0  0  0  0  0
  152.7270  139.4825  156.5137 H   0  0  0  0  0  0  0  0  0  0  0  0
  153.2579  141.7536  157.2056 H   0  0  0  0  0  0  0  0  0  0  0  0
  153.2977  140.6412  158.5544 H   0  0  0  0  0  0  0  0  0  0  0  0
  1  2  1  0  0  0  0
  1 22  1  0  0  0  0
  1 23  1  0  0  0  0
  1 24  1  0  0  0  0
  2  3  1  0  0  0  0
  2 25  1  0  0  0  0
  2 26  1  0  0  0  0
  3 21  1  0  0  0  0
  3  4  1  0  0  0  0
  4  5  1  0  0  0  0
  4 27  1  0  0  0  0
  4 28  1  0  0  0  0
  5  6  1  0  0  0  0
  5 29  1  0  0  0  0
  5 30  1  0  0  0  0
  6  7  1  0  0  0  0
  6 20  1  0  0  0  0
  7  8  1  0  0  0  0
  7  9  1  0  0  0  0
  7 31  1  0  0  0  0
  8 32  1  0  0  0  0
  8 33  1  0  0  0  0
  8 34  1  0  0  0  0
  9 10  1  0  0  0  0
  9 35  1  0  0  0  0
  9 36  1  0  0  0  0
 10 11  1  0  0  0  0
 10 37  1  0  0  0  0
 11 12  2  0  0  0  0
 11 13  1  0  0  0  0
 13 14  1  0  0  0  0
 13 38  1  0  0  0  0
 14 19  2  0  0  0  0
 14 15  1  0  0  0  0
 15 16  2  0  0  0  0
 15 39  1  0  0  0  0
 16 17  1  0  0  0  0
 16 18  1  0  0  0  0
 17 40  1  0  0  0  0
 17 41  1  0  0  0  0
 17 42  1  0  0  0  0
 18 19  1  0  0  0  0
 20 21  1  0  0  0  0
 20 43  1  0  0  0  0
 20 44  1  0  0  0  0
 21 45  1  0  0  0  0
 21 46  1  0  0  0  0
M  END
> <s_m_source_file>
AV-unprocessed.smi

> <i_m_source_file_index>
1586

> <i_lp_mmshare_version>
43012

> <i_f3d_flags>
0

> <s_epik_input>
W0NIM11bQ0gyXU4xW0NIMl1bQ0gyXU4oW0NIMl1bQ0gyXTEpW0NASF0oW0NIM10pW0NIMl1bTkhdQyg9TylbTkhdYzJbY0hdYyhbQ0gzXSlvbjI=

> <s_epik_cmdline>
J2VwaWtfcHl0aG9uJywgJy1waCcsICc3LjAnLCAnLXRuJywgJzgnLCAnLW1hJywgJzIwMCcsICctbWV0YWxfYmluZGluZycsICctaW1hZScsICc8aW5maWxlLm1hZT4nLCAnLW9tYWUnLCAnPG91dGZpbGUubWFlPic=

> <r_epik_Ionization_Penalty>
2.42597

> <r_epik_Ionization_Penalty_Charging>
0

> <r_epik_Ionization_Penalty_Neutral>
2.42597

> <r_epik_State_Penalty>
1.76326

> <r_epik_Charging_Adjusted_Penalty>
1.76326

> <i_epik_Tot_Q>
0

> <i_epik_Tot_abs_Q>
0

> <r_epik_Metal_State_Penalty>
1.7742

> <b_epik_Metal_Only>
0

> <s_lp_Force_Field>
OPLS_2005

> <r_lp_Energy>
39.6445

> <b_lp_Chiralities_Consistent>
1

> <s_lp_Variant>
AV-unprocessed.smi:1586-6

> <Gold.Version>
5.8.1

> <Gold.Id.Protein>
6NUR|6NUR_protein|mol2

> <Gold.PLP.Fitness>
47.0908

> <Gold.PLP.PLP>
-39.6037

> <Gold.PLP.part.hbond>
-4.3813

> <Gold.PLP.part.metal>
0.0000

> <Gold.PLP.part.buried>
-4.6787

> <Gold.PLP.part.nonpolar>
-30.8379

> <Gold.PLP.part.repulsive>
0.2034

> <Gold.PLP.ligand.clash>
0.0000

> <Gold.PLP.ligand.torsion>
0.6142

> <Gold.PLP.Chemscore.Hbond>
2.8897

> <Gold.PLP.Chemscore.CHOScore>
0.0000

> <Gold.PLP.Chemscore.Metal>
0.0000

> <Gold.Chemscore.Hbonds>
donor molecule, donor type, donor heavy atom, donor atom, acceptor molecule, acceptor atom, score
      L1  H    10    37       P1  7948  0.73

> <Gold.PLP.Chemscore.Internal.Correction>
0.0463

> <Gold.Rescore>
     Score         DG    S(hbond)    S(metal)    S(lipo)     H(rot)  DE(clash)    DE(int)     intcor
     14.55     -16.49       1.59        0.00      86.25       1.72       0.09       1.85       ----

> <Gold.Chemscore.Fitness>
14.5476

> <Gold.Chemscore.DG>
-16.4903

> <Gold.Chemscore.ZeroCoef>
-5.4800

> <Gold.Chemscore.Hbond>
1.5917

> <Gold.Chemscore.Metal>
0.0000

> <Gold.Chemscore.Lipo>
86.2543

> <Gold.Chemscore.Internal_Hbond>
0.0000

> <Gold.Chemscore.DEClash>
0.0932

> <Gold.Chemscore.DEInternal>
1.8494

> <Gold.Chemscore.Rot>
1.7178

> <Gold.Chemscore.Internal.Correction>
   9.000000E+99

> <Gold.Chemscore.Hbonds>
donor molecule, donor type, donor heavy atom, donor atom, acceptor molecule, acceptor atom, score
      L1  H    10    37       P1  7948  0.14
      P1  H 10752 10763       L1    12  0.02

> <Gold.Chemscore.Hbond.Weighted>
-5.3161

> <Gold.Chemscore.Metal.Weighted>
-0.0000

> <Gold.Chemscore.Lipo.Weighted>
-10.0918

> <Gold.Chemscore.Internal_Hbond.Weighted>
0.0000

> <Gold.Chemscore.DEClash.Weighted>
0.0932

> <Gold.Chemscore.DEInternal.Weighted>
1.8494

> <Gold.Chemscore.Rot.Weighted>
4.3976

> <Gold.Chemscore.Internal.Correction.Weighted>
   9.000000E+99

> <Gold.Protein.RotatedTorsions>
[ 6907 6896 6895 6894 ] final    5.80 input  -60.11 | X-H torsion
[ 7974 7965 7964 7962 ] final  -84.25 input  175.53 | X-H torsion
[ 8008 7997 7996 7995 ] final -179.12 input   59.86 | X-H torsion
[ 10167 10162 10161 10158 ] final  167.14 input  -65.29 | X-H torsion
[ 10718 10713 10712 10709 ] final  -59.68 input   66.30 | X-H torsion
[ 10763 10752 10751 10750 ] final   75.58 input  -60.55 | X-H torsion
[ 11005 11000 10999 10996 ] final  121.75 input  -57.11 | X-H torsion

> <Gold.Protein.ActiveResidues>
 VAL166  LYS551  ARG553  GLY616  TRP617  ASP618  TYR619  PRO620  LYS621  CYS622 
 ASP623  PHE694  ASN695  SER759  ASP760  ASP761  ALA762  ILE779  LEU786  VAL792 
 PHE793  MET794  SER795  GLU796  ALA797  LYS798  CYS799  TRP800  GLU811  SER814 

> <Gold.Protein.RotatedAtoms>
  151.6633  135.0986  160.0183 H   0  0  0  0  0  0  0  0  0  0  0  0  # atno 6907 bound_to 6896
  152.3934  133.6707  159.6265 H   0  0  0  0  0  0  0  0  0  0  0  0  # atno 6908 bound_to 6896
  150.7845  133.8832  159.3333 H   0  0  0  0  0  0  0  0  0  0  0  0  # atno 6909 bound_to 6896
  145.5091  140.9541  143.1717 H   0  0  0  0  0  0  0  0  0  0  0  0  # atno 7974 bound_to 7965
  156.0268  140.1273  157.0300 H   0  0  0  0  0  0  0  0  0  0  0  0  # atno 8008 bound_to 7997
  154.4333  140.1057  156.6112 H   0  0  0  0  0  0  0  0  0  0  0  0  # atno 8009 bound_to 7997
  155.5865  140.3469  155.4557 H   0  0  0  0  0  0  0  0  0  0  0  0  # atno 8010 bound_to 7997
  139.4939  144.3953  151.9471 H   0  0  0  0  0  0  0  0  0  0  0  0  # atno 10167 bound_to 10162
  156.1045  130.4182  150.0748 H   0  0  0  0  0  0  0  0  0  0  0  0  # atno 10718 bound_to 10713
  153.0665  135.4983  154.8210 H   0  0  0  0  0  0  0  0  0  0  0  0  # atno 10763 bound_to 10752
  154.6960  135.2993  154.9413 H   0  0  0  0  0  0  0  0  0  0  0  0  # atno 10764 bound_to 10752
  154.0152  135.6749  153.4821 H   0  0  0  0  0  0  0  0  0  0  0  0  # atno 10765 bound_to 10752
  139.9239  134.9639  156.8005 H   0  0  0  0  0  0  0  0  0  0  0  0  # atno 11005 bound_to 11000
  144.7737  139.6677  143.7184 LP  0  0  0  0  0  0  0  0  0  0  0  0  # atno 17320 bound_to 7965
  146.2178  139.5580  142.9639 LP  0  0  0  0  0  0  0  0  0  0  0  0  # atno 17321 bound_to 7965
  140.3391  144.3224  150.5971 LP  0  0  0  0  0  0  0  0  0  0  0  0  # atno 17342 bound_to 10162
  140.5581  143.2196  151.7813 LP  0  0  0  0  0  0  0  0  0  0  0  0  # atno 17343 bound_to 10162
  156.8727  130.9530  151.3607 LP  0  0  0  0  0  0  0  0  0  0  0  0  # atno 17370 bound_to 10713
  157.6219  130.8662  149.9124 LP  0  0  0  0  0  0  0  0  0  0  0  0  # atno 17371 bound_to 10713
  140.6394  133.9832  155.7700 LP  0  0  0  0  0  0  0  0  0  0  0  0  # atno 17394 bound_to 11000
  141.0781  134.0104  157.3427 LP  0  0  0  0  0  0  0  0  0  0  0  0  # atno 17395 bound_to 11000

$$$$
