AV-unprocessed.smi:2007|AV-procd|sdf|8138|dock5
  -GOLD-   2272010373D 1   1.00000     0.00000
 Structure written by MMmdl.
 35 36  0  0  0  0  0  0  0  0  2 V2000
  151.8866  144.0187  157.2565 C   0  0  0  0  0  0  0  0  0  0  0  0
  151.3941  142.5760  157.4324 C   0  0  1  0  0  0  0  0  0  0  0  0
  151.2740  142.2055  158.9261 C   0  0  0  0  0  0  0  0  0  0  0  0
  152.3475  141.3676  159.4634 N   0  0  0  0  0  0  0  0  0  0  0  0
  152.5237  140.1233  158.7183 C   0  0  0  0  0  0  0  0  0  0  0  0
  153.6651  139.2686  159.2960 C   0  0  0  0  0  0  0  0  0  0  0  0
  154.8707  140.0265  159.3109 O   0  0  0  0  0  0  0  0  0  0  0  0
  154.7523  141.2279  160.0662 C   0  0  0  0  0  0  0  0  0  0  0  0
  153.6147  142.0888  159.4906 C   0  0  0  0  0  0  0  0  0  0  0  0
  150.0974  142.4317  156.7702 N   0  0  0  0  0  0  0  0  0  0  0  0
  149.7909  141.5821  155.7783 C   0  0  0  0  0  0  0  0  0  0  0  0
  150.6510  140.8274  155.3188 O   0  0  0  0  0  0  0  0  0  0  0  0
  148.4999  141.6575  155.3811 N   0  5  0  0  0  0  0  0  0  0  0  0
  148.0088  140.7533  154.5182 C   0  0  0  0  0  0  0  0  0  0  0  0
  148.4173  139.4796  154.4864 N   0  0  0  0  0  0  0  0  0  0  0  0
  147.7790  138.7160  153.5074 C   0  0  0  0  0  0  0  0  0  0  0  0
  146.8690  139.4269  152.7709 C   0  0  0  0  0  0  0  0  0  0  0  0
  146.7873  141.0873  153.2869 S   0  0  0  0  0  0  0  0  0  0  0  0
  152.8612  144.1597  157.7243 H   0  0  0  0  0  0  0  0  0  0  0  0
  151.1949  144.7330  157.7046 H   0  0  0  0  0  0  0  0  0  0  0  0
  151.9888  144.2716  156.2005 H   0  0  0  0  0  0  0  0  0  0  0  0
  152.1398  141.9347  156.9621 H   0  0  0  0  0  0  0  0  0  0  0  0
  151.1984  143.1188  159.5181 H   0  0  0  0  0  0  0  0  0  0  0  0
  150.3240  141.6863  159.0617 H   0  0  0  0  0  0  0  0  0  0  0  0
  151.6076  139.5350  158.7381 H   0  0  0  0  0  0  0  0  0  0  0  0
  152.7310  140.3449  157.6705 H   0  0  0  0  0  0  0  0  0  0  0  0
  153.4230  138.9362  160.3068 H   0  0  0  0  0  0  0  0  0  0  0  0
  153.8129  138.3739  158.6914 H   0  0  0  0  0  0  0  0  0  0  0  0
  154.5639  140.9902  161.1143 H   0  0  0  0  0  0  0  0  0  0  0  0
  155.6967  141.7704  160.0242 H   0  0  0  0  0  0  0  0  0  0  0  0
  153.8800  142.4095  158.4820 H   0  0  0  0  0  0  0  0  0  0  0  0
  153.5120  142.9945  160.0896 H   0  0  0  0  0  0  0  0  0  0  0  0
  149.3522  143.0222  157.1082 H   0  0  0  0  0  0  0  0  0  0  0  0
  148.0356  137.6720  153.4045 H   0  0  0  0  0  0  0  0  0  0  0  0
  146.2465  139.0792  151.9605 H   0  0  0  0  0  0  0  0  0  0  0  0
  1  2  1  0  0  0  0
  1 19  1  0  0  0  0
  1 20  1  0  0  0  0
  1 21  1  0  0  0  0
  2  3  1  0  0  0  0
  2 10  1  0  0  0  0
  2 22  1  0  0  0  0
  3  4  1  0  0  0  0
  3 23  1  0  0  0  0
  3 24  1  0  0  0  0
  4  9  1  0  0  0  0
  4  5  1  0  0  0  0
  5  6  1  0  0  0  0
  5 25  1  0  0  0  0
  5 26  1  0  0  0  0
  6  7  1  0  0  0  0
  6 27  1  0  0  0  0
  6 28  1  0  0  0  0
  7  8  1  0  0  0  0
  8  9  1  0  0  0  0
  8 29  1  0  0  0  0
  8 30  1  0  0  0  0
  9 31  1  0  0  0  0
  9 32  1  0  0  0  0
 10 11  1  0  0  0  0
 10 33  1  0  0  0  0
 11 12  2  0  0  0  0
 11 13  1  0  0  0  0
 13 14  1  0  0  0  0
 14 18  1  0  0  0  0
 14 15  2  0  0  0  0
 15 16  1  0  0  0  0
 16 17  2  0  0  0  0
 16 34  1  0  0  0  0
 17 18  1  0  0  0  0
 17 35  1  0  0  0  0
M  CHG  1  13  -1
M  END
> <s_m_source_file>
AV-unprocessed.smi

> <i_m_source_file_index>
2007

> <i_lp_mmshare_version>
43012

> <i_f3d_flags>
0

> <s_epik_input>
W0NIMl0xW0NIMl1PW0NIMl1bQ0gyXU4xW0NIMl1bQ0BASF0oW0NIM10pW05IXUMoPU8pW05IXWMybltjSF1bY0hdczI=

> <s_epik_cmdline>
J2VwaWtfcHl0aG9uJywgJy1waCcsICc3LjAnLCAnLXRuJywgJzgnLCAnLW1hJywgJzIwMCcsICctbWV0YWxfYmluZGluZycsICctaW1hZScsICc8aW5maWxlLm1hZT4nLCAnLW9tYWUnLCAnPG91dGZpbGUubWFlPic=

> <r_lp_tautomer_probability>
0.999

> <r_epik_Ionization_Penalty>
7.09127

> <r_epik_Ionization_Penalty_Charging>
5.74083

> <r_epik_Ionization_Penalty_Neutral>
1.35044

> <r_epik_State_Penalty>
5.95014

> <r_epik_Charging_Adjusted_Penalty>
11.691

> <i_epik_Tot_Q>
-1

> <i_epik_Tot_abs_Q>
1

> <r_epik_Metal_State_Penalty>
1.93831

> <b_epik_Metal_Only>
1

> <s_lp_Force_Field>
OPLS_2005

> <r_lp_Energy>
21.094

> <b_lp_Chiralities_Consistent>
1

> <s_lp_Variant>
AV-unprocessed.smi:2007-6

> <Gold.Version>
5.8.1

> <Gold.Id.Protein>
6NUR|6NUR_protein|mol2

> <Gold.PLP.Fitness>
36.4355

> <Gold.PLP.PLP>
-29.1641

> <Gold.PLP.part.hbond>
-3.0000

> <Gold.PLP.part.metal>
0.0000

> <Gold.PLP.part.buried>
-3.2640

> <Gold.PLP.part.nonpolar>
-22.7825

> <Gold.PLP.part.repulsive>
0.9469

> <Gold.PLP.ligand.clash>
0.0000

> <Gold.PLP.ligand.torsion>
0.8833

> <Gold.PLP.Chemscore.Hbond>
1.8884

> <Gold.PLP.Chemscore.CHOScore>
1.0886

> <Gold.PLP.Chemscore.Metal>
0.0000

> <Gold.Chemscore.Hbonds>
donor molecule, donor type, donor heavy atom, donor atom, acceptor molecule, acceptor atom, score
      L1  H    10    33       P1  8028  0.10
      P1  H  7989  7998       L1    12  0.76
      P1  H  7997  8010       L1     7  0.98
      L1  C    16    34       P1  7948  1.00

> <Gold.PLP.Chemscore.Internal.Correction>
0.1070

> <Gold.Rescore>
     Score         DG    S(hbond)    S(metal)    S(lipo)     H(rot)  DE(clash)    DE(int)     intcor
     13.64     -16.24       1.44        0.00      84.80       1.55       0.27       2.34       ----

> <Gold.Chemscore.Fitness>
13.6354

> <Gold.Chemscore.DG>
-16.2417

> <Gold.Chemscore.ZeroCoef>
-5.4800

> <Gold.Chemscore.Hbond>
1.4403

> <Gold.Chemscore.Metal>
0.0000

> <Gold.Chemscore.Lipo>
84.7994

> <Gold.Chemscore.Internal_Hbond>
0.0000

> <Gold.Chemscore.DEClash>
0.2652

> <Gold.Chemscore.DEInternal>
2.3410

> <Gold.Chemscore.Rot>
1.5510

> <Gold.Chemscore.Internal.Correction>
   9.000000E+99

> <Gold.Chemscore.Hbonds>
donor molecule, donor type, donor heavy atom, donor atom, acceptor molecule, acceptor atom, score
      L1  H    10    33       P1  8028  0.10
      P1  H  7989  7998       L1    12  0.72
      P1  H  7997  8010       L1     7  0.27

> <Gold.Chemscore.Hbond.Weighted>
-4.8107

> <Gold.Chemscore.Metal.Weighted>
-0.0000

> <Gold.Chemscore.Lipo.Weighted>
-9.9215

> <Gold.Chemscore.Internal_Hbond.Weighted>
0.0000

> <Gold.Chemscore.DEClash.Weighted>
0.2652

> <Gold.Chemscore.DEInternal.Weighted>
2.3410

> <Gold.Chemscore.Rot.Weighted>
3.9706

> <Gold.Chemscore.Internal.Correction.Weighted>
   9.000000E+99

> <Gold.Protein.RotatedTorsions>
[ 6907 6896 6895 6894 ] final  145.02 input  -60.11 | X-H torsion
[ 7974 7965 7964 7962 ] final -117.99 input  175.53 | X-H torsion
[ 8008 7997 7996 7995 ] final  -13.04 input   59.86 | X-H torsion
[ 10167 10162 10161 10158 ] final   85.77 input  -65.29 | X-H torsion
[ 10718 10713 10712 10709 ] final  140.21 input   66.30 | X-H torsion
[ 10763 10752 10751 10750 ] final   29.31 input  -60.55 | X-H torsion
[ 11005 11000 10999 10996 ] final   15.31 input  -57.11 | X-H torsion

> <Gold.Protein.ActiveResidues>
 VAL166  LYS551  ARG553  GLY616  TRP617  ASP618  TYR619  PRO620  LYS621  CYS622 
 ASP623  PHE694  ASN695  SER759  ASP760  ASP761  ALA762  ILE779  LEU786  VAL792 
 PHE793  MET794  SER795  GLU796  ALA797  LYS798  CYS799  TRP800  GLU811  SER814 

> <Gold.Protein.RotatedAtoms>
  152.1862  133.4741  159.4983 H   0  0  0  0  0  0  0  0  0  0  0  0  # atno 6907 bound_to 6896
  150.6943  134.1771  159.4243 H   0  0  0  0  0  0  0  0  0  0  0  0  # atno 6908 bound_to 6896
  151.9684  135.0089  160.0602 H   0  0  0  0  0  0  0  0  0  0  0  0  # atno 6909 bound_to 6896
  145.0789  140.8412  143.4050 H   0  0  0  0  0  0  0  0  0  0  0  0  # atno 7974 bound_to 7965
  154.5326  140.2260  155.8779 H   0  0  0  0  0  0  0  0  0  0  0  0  # atno 8008 bound_to 7997
  156.1779  140.3107  155.9056 H   0  0  0  0  0  0  0  0  0  0  0  0  # atno 8009 bound_to 7997
  155.3421  140.0451  157.3035 H   0  0  0  0  0  0  0  0  0  0  0  0  # atno 8010 bound_to 7997
  139.8943  144.6367  150.8705 H   0  0  0  0  0  0  0  0  0  0  0  0  # atno 10167 bound_to 10162
  157.4058  131.1022  151.0505 H   0  0  0  0  0  0  0  0  0  0  0  0  # atno 10718 bound_to 10713
  153.0438  135.6492  154.0871 H   0  0  0  0  0  0  0  0  0  0  0  0  # atno 10763 bound_to 10752
  154.0572  135.2891  155.3332 H   0  0  0  0  0  0  0  0  0  0  0  0  # atno 10764 bound_to 10752
  154.6681  135.5366  153.8169 H   0  0  0  0  0  0  0  0  0  0  0  0  # atno 10765 bound_to 10752
  140.4597  134.1140  155.7714 H   0  0  0  0  0  0  0  0  0  0  0  0  # atno 11005 bound_to 11000
  145.1201  139.2699  143.5592 LP  0  0  0  0  0  0  0  0  0  0  0  0  # atno 17320 bound_to 7965
  146.3530  140.0823  142.8617 LP  0  0  0  0  0  0  0  0  0  0  0  0  # atno 17321 bound_to 7965
  140.7720  143.3485  151.2061 LP  0  0  0  0  0  0  0  0  0  0  0  0  # atno 17342 bound_to 10162
  139.7081  143.9421  152.2936 LP  0  0  0  0  0  0  0  0  0  0  0  0  # atno 17343 bound_to 10162
  157.1487  130.6174  149.5576 LP  0  0  0  0  0  0  0  0  0  0  0  0  # atno 17370 bound_to 10713
  155.9836  130.4856  150.6942 LP  0  0  0  0  0  0  0  0  0  0  0  0  # atno 17371 bound_to 10713
  141.1627  133.8762  157.1803 LP  0  0  0  0  0  0  0  0  0  0  0  0  # atno 17394 bound_to 11000
  139.9953  135.0049  157.0069 LP  0  0  0  0  0  0  0  0  0  0  0  0  # atno 17395 bound_to 11000

$$$$
