AV-unprocessed.smi:691|AV-procd|sdf|3365|dock10
  -GOLD-   22720 0343D 1   1.00000     0.00000
 Structure written by MMmdl.
 37 38  0  0  0  0  0  0  0  0  1 V2000
  143.7878  133.8371  151.7801 C   0  0  0  0  0  0  0  0  0  0  0  0
  145.1467  134.5501  151.5760 C   0  0  2  0  0  0  0  0  0  0  0  0
  144.9454  135.7903  150.6643 C   0  0  0  0  0  0  0  0  0  0  0  0
  144.2591  135.4612  149.4729 O   0  0  0  0  0  0  0  0  0  0  0  0
  146.1776  133.5693  150.9900 C   0  0  0  0  0  0  0  0  0  0  0  0
  146.6774  132.7290  152.1677 C   0  0  0  0  0  0  0  0  0  0  0  0
  146.4800  133.5931  153.4199 C   0  0  0  0  0  0  0  0  0  0  0  0
  145.7566  134.8766  152.9685 C   0  0  1  0  0  0  0  0  0  0  0  0
  146.7217  135.9789  152.9328 N   0  0  0  0  0  0  0  0  0  0  0  0
  146.5913  137.1574  153.5594 C   0  0  0  0  0  0  0  0  0  0  0  0
  145.6196  137.4541  154.2534 O   0  0  0  0  0  0  0  0  0  0  0  0
  147.6550  137.9457  153.3277 N   0  0  0  0  0  0  0  0  0  0  0  0
  147.9152  139.2626  153.7977 C   0  0  0  0  0  0  0  0  0  0  0  0
  149.1929  139.7499  154.1681 C   0  0  0  0  0  0  0  0  0  0  0  0
  149.3077  141.0753  154.6307 C   0  0  0  0  0  0  0  0  0  0  0  0
  148.1435  141.8634  154.7115 C   0  0  0  0  0  0  0  0  0  0  0  0
  146.9186  141.4096  154.3731 N   0  0  0  0  0  0  0  0  0  0  0  0
  146.8164  140.1380  153.9310 C   0  0  0  0  0  0  0  0  0  0  0  0
  143.3849  133.4574  150.8409 H   0  0  0  0  0  0  0  0  0  0  0  0
  143.0479  134.5183  152.2016 H   0  0  0  0  0  0  0  0  0  0  0  0
  143.8670  132.9876  152.4586 H   0  0  0  0  0  0  0  0  0  0  0  0
  144.3829  136.5624  151.1902 H   0  0  0  0  0  0  0  0  0  0  0  0
  145.8984  136.2330  150.3745 H   0  0  0  0  0  0  0  0  0  0  0  0
  144.8730  135.0686  148.8712 H   0  0  0  0  0  0  0  0  0  0  0  0
  145.7706  132.9540  150.1868 H   0  0  0  0  0  0  0  0  0  0  0  0
  147.0178  134.1256  150.5720 H   0  0  0  0  0  0  0  0  0  0  0  0
  146.0854  131.8168  152.2526 H   0  0  0  0  0  0  0  0  0  0  0  0
  147.7175  132.4293  152.0347 H   0  0  0  0  0  0  0  0  0  0  0  0
  145.8675  133.0524  154.1426 H   0  0  0  0  0  0  0  0  0  0  0  0
  147.4300  133.8043  153.9132 H   0  0  0  0  0  0  0  0  0  0  0  0
  144.9671  135.1136  153.6843 H   0  0  0  0  0  0  0  0  0  0  0  0
  147.5570  135.8253  152.3872 H   0  0  0  0  0  0  0  0  0  0  0  0
  148.3950  137.5341  152.7778 H   0  0  0  0  0  0  0  0  0  0  0  0
  150.0815  139.1412  154.1209 H   0  0  0  0  0  0  0  0  0  0  0  0
  150.2674  141.4772  154.9201 H   0  0  0  0  0  0  0  0  0  0  0  0
  148.1973  142.8834  155.0627 H   0  0  0  0  0  0  0  0  0  0  0  0
  145.8204  139.8093  153.6720 H   0  0  0  0  0  0  0  0  0  0  0  0
  1  2  1  0  0  0  0
  1 19  1  0  0  0  0
  1 20  1  0  0  0  0
  1 21  1  0  0  0  0
  2  8  1  0  0  0  0
  2  3  1  0  0  0  0
  2  5  1  0  0  0  0
  3  4  1  0  0  0  0
  3 22  1  0  0  0  0
  3 23  1  0  0  0  0
  4 24  1  0  0  0  0
  5  6  1  0  0  0  0
  5 25  1  0  0  0  0
  5 26  1  0  0  0  0
  6  7  1  0  0  0  0
  6 27  1  0  0  0  0
  6 28  1  0  0  0  0
  7  8  1  0  0  0  0
  7 29  1  0  0  0  0
  7 30  1  0  0  0  0
  8  9  1  0  0  0  0
  8 31  1  0  0  0  0
  9 10  1  0  0  0  0
  9 32  1  0  0  0  0
 10 11  2  0  0  0  0
 10 12  1  0  0  0  0
 12 13  1  0  0  0  0
 12 33  1  0  0  0  0
 13 18  1  0  0  0  0
 13 14  2  0  0  0  0
 14 15  1  0  0  0  0
 14 34  1  0  0  0  0
 15 16  2  0  0  0  0
 15 35  1  0  0  0  0
 16 17  1  0  0  0  0
 16 36  1  0  0  0  0
 17 18  2  0  0  0  0
 18 37  1  0  0  0  0
M  END
> <s_m_source_file>
AV-unprocessed.smi

> <i_m_source_file_index>
691

> <i_lp_mmshare_version>
43012

> <i_f3d_flags>
0

> <s_epik_input>
W09IXVtDSDJdW0NAXTEoW0NIM10pW0NIMl1bQ0gyXVtDSDJdW0NASF0xW05IXUMoPU8pW05IXWMyW2NIXVtjSF1bY0hdbltjSF0y

> <s_epik_cmdline>
J2VwaWtfcHl0aG9uJywgJy1waCcsICc3LjAnLCAnLXRuJywgJzgnLCAnLW1hJywgJzIwMCcsICctbWV0YWxfYmluZGluZycsICctaW1hZScsICc8aW5maWxlLm1hZT4nLCAnLW9tYWUnLCAnPG91dGZpbGUubWFlPic=

> <r_epik_Ionization_Penalty>
0.00496828

> <r_epik_Ionization_Penalty_Charging>
0

> <r_epik_Ionization_Penalty_Neutral>
0.00496828

> <r_epik_State_Penalty>
0.00358054

> <r_epik_Charging_Adjusted_Penalty>
0.00358054

> <i_epik_Tot_Q>
0

> <i_epik_Tot_abs_Q>
0

> <r_epik_Metal_State_Penalty>
-0

> <b_epik_Metal_Only>
0

> <s_lp_Force_Field>
OPLS_2005

> <r_lp_Energy>
30.5868

> <b_lp_Chiralities_Consistent>
1

> <s_lp_Variant>
AV-unprocessed.smi:691-2

> <Gold.Version>
5.8.1

> <Gold.Id.Protein>
6NUR|6NUR_protein|mol2

> <Gold.PLP.Fitness>
41.8412

> <Gold.PLP.PLP>
-27.5147

> <Gold.PLP.part.hbond>
-2.9160

> <Gold.PLP.part.metal>
0.0000

> <Gold.PLP.part.buried>
0.4347

> <Gold.PLP.part.nonpolar>
-24.5963

> <Gold.PLP.part.repulsive>
0.3201

> <Gold.PLP.ligand.clash>
0.0000

> <Gold.PLP.ligand.torsion>
0.3418

> <Gold.PLP.Chemscore.Hbond>
3.0000

> <Gold.PLP.Chemscore.CHOScore>
2.0000

> <Gold.PLP.Chemscore.Metal>
0.0000

> <Gold.Chemscore.Hbonds>
donor molecule, donor type, donor heavy atom, donor atom, acceptor molecule, acceptor atom, score
      L1  H     4    24       P1  7921  1.00
      L1  H     9    32       P1  7948  0.99
      L1  H    12    33       P1  7948  0.99
      L1  C    16    36       P1  8028  0.99
      L1  C    18    37       P1 10175  0.98

> <Gold.PLP.Chemscore.Internal.Correction>
0.0100

> <Gold.Rescore>
     Score         DG    S(hbond)    S(metal)    S(lipo)     H(rot)  DE(clash)    DE(int)     intcor
     16.64     -18.39       2.93        0.00      65.75       1.78       0.21       1.53       ----

> <Gold.Chemscore.Fitness>
16.6439

> <Gold.Chemscore.DG>
-18.3856

> <Gold.Chemscore.ZeroCoef>
-5.4800

> <Gold.Chemscore.Hbond>
2.9279

> <Gold.Chemscore.Metal>
0.0000

> <Gold.Chemscore.Lipo>
65.7527

> <Gold.Chemscore.Internal_Hbond>
0.0000

> <Gold.Chemscore.DEClash>
0.2141

> <Gold.Chemscore.DEInternal>
1.5276

> <Gold.Chemscore.Rot>
1.7838

> <Gold.Chemscore.Internal.Correction>
   9.000000E+99

> <Gold.Chemscore.Hbonds>
donor molecule, donor type, donor heavy atom, donor atom, acceptor molecule, acceptor atom, score
      L1  H     4    24       P1  7921  1.00
      L1  H     9    32       P1  7948  0.92
      L1  H    12    33       P1  7948  0.94

> <Gold.Chemscore.Hbond.Weighted>
-9.7791

> <Gold.Chemscore.Metal.Weighted>
-0.0000

> <Gold.Chemscore.Lipo.Weighted>
-7.6931

> <Gold.Chemscore.Internal_Hbond.Weighted>
0.0000

> <Gold.Chemscore.DEClash.Weighted>
0.2141

> <Gold.Chemscore.DEInternal.Weighted>
1.5276

> <Gold.Chemscore.Rot.Weighted>
4.5666

> <Gold.Chemscore.Internal.Correction.Weighted>
   9.000000E+99

> <Gold.Protein.RotatedTorsions>
[ 6907 6896 6895 6894 ] final  128.65 input  -60.11 | X-H torsion
[ 7974 7965 7964 7962 ] final    3.58 input  175.53 | X-H torsion
[ 8008 7997 7996 7995 ] final    8.68 input   59.86 | X-H torsion
[ 10167 10162 10161 10158 ] final  -23.07 input  -65.29 | X-H torsion
[ 10718 10713 10712 10709 ] final   -5.47 input   66.30 | X-H torsion
[ 10763 10752 10751 10750 ] final   81.77 input  -60.55 | X-H torsion
[ 11005 11000 10999 10996 ] final -124.45 input  -57.11 | X-H torsion

> <Gold.Protein.ActiveResidues>
 VAL166  LYS551  ARG553  GLY616  TRP617  ASP618  TYR619  PRO620  LYS621  CYS622 
 ASP623  PHE694  ASN695  SER759  ASP760  ASP761  ALA762  ILE779  LEU786  VAL792 
 PHE793  MET794  SER795  GLU796  ALA797  LYS798  CYS799  TRP800  GLU811  SER814 

> <Gold.Protein.RotatedAtoms>
  152.3699  133.6405  159.6078 H   0  0  0  0  0  0  0  0  0  0  0  0  # atno 6907 bound_to 6896
  150.7661  133.9287  159.3429 H   0  0  0  0  0  0  0  0  0  0  0  0  # atno 6908 bound_to 6896
  151.7111  135.0913  160.0319 H   0  0  0  0  0  0  0  0  0  0  0  0  # atno 6909 bound_to 6896
  146.2445  140.0664  142.8365 H   0  0  0  0  0  0  0  0  0  0  0  0  # atno 7974 bound_to 7965
  154.7701  140.2800  155.6145 H   0  0  0  0  0  0  0  0  0  0  0  0  # atno 8008 bound_to 7997
  156.2932  140.2643  156.2429 H   0  0  0  0  0  0  0  0  0  0  0  0  # atno 8009 bound_to 7997
  154.9911  140.0373  157.2309 H   0  0  0  0  0  0  0  0  0  0  0  0  # atno 8010 bound_to 7997
  140.7287  143.4477  151.0563 H   0  0  0  0  0  0  0  0  0  0  0  0  # atno 10167 bound_to 10162
  156.7460  130.5224  149.5814 H   0  0  0  0  0  0  0  0  0  0  0  0  # atno 10718 bound_to 10713
  153.1146  135.4753  154.9093 H   0  0  0  0  0  0  0  0  0  0  0  0  # atno 10763 bound_to 10752
  154.7515  135.3107  154.8551 H   0  0  0  0  0  0  0  0  0  0  0  0  # atno 10764 bound_to 10752
  153.9131  135.6863  153.4804 H   0  0  0  0  0  0  0  0  0  0  0  0  # atno 10765 bound_to 10752
  140.9840  134.0632  157.3732 H   0  0  0  0  0  0  0  0  0  0  0  0  # atno 11005 bound_to 11000
  145.0854  140.9249  143.4800 LP  0  0  0  0  0  0  0  0  0  0  0  0  # atno 17320 bound_to 7965
  145.0826  139.2948  143.5776 LP  0  0  0  0  0  0  0  0  0  0  0  0  # atno 17321 bound_to 7965
  139.8150  143.7899  152.3174 LP  0  0  0  0  0  0  0  0  0  0  0  0  # atno 17342 bound_to 10162
  139.7961  144.7392  150.9888 LP  0  0  0  0  0  0  0  0  0  0  0  0  # atno 17343 bound_to 10162
  156.1433  130.6259  151.0496 LP  0  0  0  0  0  0  0  0  0  0  0  0  # atno 17370 bound_to 10713
  157.6798  131.0841  150.7400 LP  0  0  0  0  0  0  0  0  0  0  0  0  # atno 17371 bound_to 10713
  139.8962  135.0145  156.7042 LP  0  0  0  0  0  0  0  0  0  0  0  0  # atno 17394 bound_to 11000
  140.7142  133.9196  155.8104 LP  0  0  0  0  0  0  0  0  0  0  0  0  # atno 17395 bound_to 11000

$$$$
