AV-unprocessed.smi:3116|AV-procd|sdf|11877|dock7
  -GOLD-   2272017263D 1   1.00000     0.00000
 Structure written by MMmdl.
 33 33  0  0  0  0  0  0  0  0  1 V2000
  147.9233  138.6313  155.4576 C   0  0  0  0  0  0  0  0  0  0  0  0
  148.4257  140.0718  155.6474 C   0  0  1  0  0  0  0  0  0  0  0  0
  149.1463  140.1746  156.9322 N   0  0  0  0  0  0  0  0  0  0  0  0
  149.6174  141.5009  157.3416 C   0  0  1  0  0  0  0  0  0  0  0  0
  148.4598  142.2629  158.0231 C   0  0  0  0  0  0  0  0  0  0  0  0
  150.8490  141.2973  158.2664 C   0  0  1  0  0  0  0  0  0  0  0  0
  151.8688  140.3030  157.6756 C   0  0  0  0  0  0  0  0  0  0  0  0
  151.5098  142.5550  158.5960 N   0  0  0  0  0  0  0  0  0  0  0  0
  151.2492  143.8119  158.0901 C   0  0  0  0  0  0  0  0  0  0  0  0
  152.1202  144.6809  158.6822 C   0  0  0  0  0  0  0  0  0  0  0  0
  152.8862  143.8526  159.5488 C   0  0  0  0  0  0  0  0  0  0  0  0
  152.5211  142.5822  159.4944 N   0  0  0  0  0  0  0  0  0  0  0  0
  149.2622  140.5102  154.4339 C   0  0  0  0  0  0  0  0  0  0  0  0
  148.6428  140.5550  153.2518 N   0  0  0  0  0  0  0  0  0  0  0  0
  150.4439  140.8235  154.5654 O   0  0  0  0  0  0  0  0  0  0  0  0
  147.3761  138.5216  154.5205 H   0  0  0  0  0  0  0  0  0  0  0  0
  147.2470  138.3446  156.2635 H   0  0  0  0  0  0  0  0  0  0  0  0
  148.7465  137.9153  155.4482 H   0  0  0  0  0  0  0  0  0  0  0  0
  147.5405  140.7067  155.6980 H   0  0  0  0  0  0  0  0  0  0  0  0
  148.6312  139.7459  157.6874 H   0  0  0  0  0  0  0  0  0  0  0  0
  149.9496  142.0800  156.4802 H   0  0  0  0  0  0  0  0  0  0  0  0
  148.7620  143.2636  158.3312 H   0  0  0  0  0  0  0  0  0  0  0  0
  148.1065  141.7368  158.9105 H   0  0  0  0  0  0  0  0  0  0  0  0
  147.6107  142.3964  157.3538 H   0  0  0  0  0  0  0  0  0  0  0  0
  150.4971  140.8816  159.2123 H   0  0  0  0  0  0  0  0  0  0  0  0
  151.4298  139.3149  157.5375 H   0  0  0  0  0  0  0  0  0  0  0  0
  152.7284  140.1861  158.3359 H   0  0  0  0  0  0  0  0  0  0  0  0
  152.2376  140.6367  156.7052 H   0  0  0  0  0  0  0  0  0  0  0  0
  150.4746  143.9817  157.3568 H   0  0  0  0  0  0  0  0  0  0  0  0
  152.1978  145.7456  158.5207 H   0  0  0  0  0  0  0  0  0  0  0  0
  153.6915  144.1348  160.2106 H   0  0  0  0  0  0  0  0  0  0  0  0
  149.1521  140.8337  152.4260 H   0  0  0  0  0  0  0  0  0  0  0  0
  147.6664  140.3060  153.1889 H   0  0  0  0  0  0  0  0  0  0  0  0
  1  2  1  0  0  0  0
  1 16  1  0  0  0  0
  1 17  1  0  0  0  0
  1 18  1  0  0  0  0
  2  3  1  0  0  0  0
  2 13  1  0  0  0  0
  2 19  1  0  0  0  0
  3  4  1  0  0  0  0
  3 20  1  0  0  0  0
  4  5  1  0  0  0  0
  4  6  1  0  0  0  0
  4 21  1  0  0  0  0
  5 22  1  0  0  0  0
  5 23  1  0  0  0  0
  5 24  1  0  0  0  0
  6  7  1  0  0  0  0
  6  8  1  0  0  0  0
  6 25  1  0  0  0  0
  7 26  1  0  0  0  0
  7 27  1  0  0  0  0
  7 28  1  0  0  0  0
  8 12  1  0  0  0  0
  8  9  1  0  0  0  0
  9 10  2  0  0  0  0
  9 29  1  0  0  0  0
 10 11  1  0  0  0  0
 10 30  1  0  0  0  0
 11 12  2  0  0  0  0
 11 31  1  0  0  0  0
 13 14  1  0  0  0  0
 13 15  2  0  0  0  0
 14 32  1  0  0  0  0
 14 33  1  0  0  0  0
M  END
> <s_m_source_file>
AV-unprocessed.smi

> <i_m_source_file_index>
3116

> <i_lp_mmshare_version>
43012

> <i_f3d_flags>
0

> <s_epik_input>
W05IMl1DKD1PKVtDQEhdKFtDSDNdKVtOSF1bQ0BIXShbQ0gzXSlbQ0BIXShbQ0gzXSluMVtjSF1bY0hdW2NIXW4x

> <s_epik_cmdline>
J2VwaWtfcHl0aG9uJywgJy1waCcsICc3LjAnLCAnLXRuJywgJzgnLCAnLW1hJywgJzIwMCcsICctbWV0YWxfYmluZGluZycsICctaW1hZScsICc8aW5maWxlLm1hZT4nLCAnLW9tYWUnLCAnPG91dGZpbGUubWFlPic=

> <r_lp_tautomer_probability>
1

> <r_epik_Ionization_Penalty>
0.865977

> <r_epik_Ionization_Penalty_Charging>
0

> <r_epik_Ionization_Penalty_Neutral>
0.865977

> <r_epik_State_Penalty>
0.901888

> <r_epik_Charging_Adjusted_Penalty>
0.901888

> <i_epik_Tot_Q>
0

> <i_epik_Tot_abs_Q>
0

> <r_epik_Metal_State_Penalty>
0.901181

> <b_epik_Metal_Only>
0

> <s_lp_Force_Field>
OPLS_2005

> <r_lp_Energy>
8.45698

> <b_lp_Chiralities_Consistent>
1

> <s_lp_Variant>
AV-unprocessed.smi:3116-16

> <Gold.Version>
5.8.1

> <Gold.Id.Protein>
6NUR|6NUR_protein|mol2

> <Gold.PLP.Fitness>
35.1888

> <Gold.PLP.PLP>
-27.0373

> <Gold.PLP.part.hbond>
-1.9139

> <Gold.PLP.part.metal>
0.0000

> <Gold.PLP.part.buried>
-5.3756

> <Gold.PLP.part.nonpolar>
-20.4204

> <Gold.PLP.part.repulsive>
0.2312

> <Gold.PLP.ligand.clash>
0.0000

> <Gold.PLP.ligand.torsion>
0.4520

> <Gold.PLP.Chemscore.Hbond>
1.9920

> <Gold.PLP.Chemscore.CHOScore>
1.0000

> <Gold.PLP.Chemscore.Metal>
0.0000

> <Gold.Chemscore.Hbonds>
donor molecule, donor type, donor heavy atom, donor atom, acceptor molecule, acceptor atom, score
      L1  H    14    32       P1  7957  0.66
      P1  H  7989  7998       L1    15  0.78
      L1  C     9    29       P1  8028  1.00

> <Gold.PLP.Chemscore.Internal.Correction>
0.0794

> <Gold.Rescore>
     Score         DG    S(hbond)    S(metal)    S(lipo)     H(rot)  DE(clash)    DE(int)     intcor
     12.54     -13.02       1.98        0.00      59.98       2.38       0.00       0.48       ----

> <Gold.Chemscore.Fitness>
12.5421

> <Gold.Chemscore.DG>
-13.0179

> <Gold.Chemscore.ZeroCoef>
-5.4800

> <Gold.Chemscore.Hbond>
1.9828

> <Gold.Chemscore.Metal>
0.0000

> <Gold.Chemscore.Lipo>
59.9774

> <Gold.Chemscore.Internal_Hbond>
0.0000

> <Gold.Chemscore.DEClash>
0.0000

> <Gold.Chemscore.DEInternal>
0.4758

> <Gold.Chemscore.Rot>
2.3836

> <Gold.Chemscore.Internal.Correction>
   9.000000E+99

> <Gold.Chemscore.Hbonds>
donor molecule, donor type, donor heavy atom, donor atom, acceptor molecule, acceptor atom, score
      L1  H    14    32       P1  7957  0.63
      P1  H  7989  7998       L1    15  0.76

> <Gold.Chemscore.Hbond.Weighted>
-6.6226

> <Gold.Chemscore.Metal.Weighted>
-0.0000

> <Gold.Chemscore.Lipo.Weighted>
-7.0174

> <Gold.Chemscore.Internal_Hbond.Weighted>
0.0000

> <Gold.Chemscore.DEClash.Weighted>
0.0000

> <Gold.Chemscore.DEInternal.Weighted>
0.4758

> <Gold.Chemscore.Rot.Weighted>
6.1020

> <Gold.Chemscore.Internal.Correction.Weighted>
   9.000000E+99

> <Gold.Protein.RotatedTorsions>
[ 6907 6896 6895 6894 ] final   23.87 input  -60.11 | X-H torsion
[ 7974 7965 7964 7962 ] final -125.14 input  175.53 | X-H torsion
[ 8008 7997 7996 7995 ] final   49.60 input   59.86 | X-H torsion
[ 10167 10162 10161 10158 ] final -146.79 input  -65.29 | X-H torsion
[ 10718 10713 10712 10709 ] final -113.46 input   66.30 | X-H torsion
[ 10763 10752 10751 10750 ] final -160.15 input  -60.55 | X-H torsion
[ 11005 11000 10999 10996 ] final  -24.40 input  -57.11 | X-H torsion

> <Gold.Protein.ActiveResidues>
 VAL166  LYS551  ARG553  GLY616  TRP617  ASP618  TYR619  PRO620  LYS621  CYS622 
 ASP623  PHE694  ASN695  SER759  ASP760  ASP761  ALA762  ILE779  LEU786  VAL792 
 PHE793  MET794  SER795  GLU796  ALA797  LYS798  CYS799  TRP800  GLU811  SER814 

> <Gold.Protein.RotatedAtoms>
  151.9490  135.0178  160.0540 H   0  0  0  0  0  0  0  0  0  0  0  0  # atno 6907 bound_to 6896
  152.1970  133.4809  159.5046 H   0  0  0  0  0  0  0  0  0  0  0  0  # atno 6908 bound_to 6896
  150.6946  134.1557  159.4200 H   0  0  0  0  0  0  0  0  0  0  0  0  # atno 6909 bound_to 6896
  145.0007  140.7817  143.4498 H   0  0  0  0  0  0  0  0  0  0  0  0  # atno 7974 bound_to 7965
  155.4049  140.3439  155.4259 H   0  0  0  0  0  0  0  0  0  0  0  0  # atno 8008 bound_to 7997
  156.1482  140.1563  156.8844 H   0  0  0  0  0  0  0  0  0  0  0  0  # atno 8009 bound_to 7997
  154.5029  140.0810  156.7816 H   0  0  0  0  0  0  0  0  0  0  0  0  # atno 8010 bound_to 7997
  139.7681  143.8278  152.2619 H   0  0  0  0  0  0  0  0  0  0  0  0  # atno 10167 bound_to 10162
  156.0768  130.5974  150.8645 H   0  0  0  0  0  0  0  0  0  0  0  0  # atno 10718 bound_to 10713
  154.7414  135.3069  154.8721 H   0  0  0  0  0  0  0  0  0  0  0  0  # atno 10763 bound_to 10752
  153.9534  135.6761  153.4748 H   0  0  0  0  0  0  0  0  0  0  0  0  # atno 10764 bound_to 10752
  153.1013  135.4910  154.8796 H   0  0  0  0  0  0  0  0  0  0  0  0  # atno 10765 bound_to 10752
  140.8842  133.7633  156.0339 H   0  0  0  0  0  0  0  0  0  0  0  0  # atno 11005 bound_to 11000
  145.2157  139.2183  143.5119 LP  0  0  0  0  0  0  0  0  0  0  0  0  # atno 17320 bound_to 7965
  146.3451  140.2005  142.8589 LP  0  0  0  0  0  0  0  0  0  0  0  0  # atno 17321 bound_to 7965
  139.8304  144.7256  150.9457 LP  0  0  0  0  0  0  0  0  0  0  0  0  # atno 17342 bound_to 10162
  140.7812  143.4075  151.1047 LP  0  0  0  0  0  0  0  0  0  0  0  0  # atno 17343 bound_to 10162
  157.5867  131.0945  150.9185 LP  0  0  0  0  0  0  0  0  0  0  0  0  # atno 17370 bound_to 10713
  156.9369  130.5370  149.5279 LP  0  0  0  0  0  0  0  0  0  0  0  0  # atno 17371 bound_to 10713
  140.8425  134.3050  157.5308 LP  0  0  0  0  0  0  0  0  0  0  0  0  # atno 17394 bound_to 11000
  139.8722  134.9424  156.3823 LP  0  0  0  0  0  0  0  0  0  0  0  0  # atno 17395 bound_to 11000

$$$$
