AV-unprocessed.smi:2822|AV-procd|sdf|10882|dock7
  -GOLD-   2272015323D 1   1.00000     0.00000
 Structure written by MMmdl.
 39 41  0  0  0  0  0  0  0  0  1 V2000
  153.9793  141.6987  160.3896 Cl  0  0  0  0  0  0  0  0  0  0  0  0
  152.7143  142.6286  159.6645 C   0  0  0  0  0  0  0  0  0  0  0  0
  152.5484  143.9818  160.0239 C   0  0  0  0  0  0  0  0  0  0  0  0
  151.5875  144.7768  159.5077 N   0  0  0  0  0  0  0  0  0  0  0  0
  150.7478  144.2374  158.5998 C   0  0  0  0  0  0  0  0  0  0  0  0
  150.8262  142.8979  158.1695 C   0  0  0  0  0  0  0  0  0  0  0  0
  151.8326  142.0652  158.7132 C   0  0  0  0  0  0  0  0  0  0  0  0
  151.9817  140.7203  158.3419 N   0  0  0  0  0  0  0  0  0  0  0  0
  151.1071  140.1167  157.3484 C   0  0  0  0  0  0  0  0  0  0  0  0
  151.2863  140.7742  155.9669 C   0  0  2  0  0  0  0  0  0  0  0  0
  150.0736  141.6260  155.5454 C   0  0  0  0  0  0  0  0  0  0  0  0
  148.9107  140.8196  155.1933 N   0  0  0  0  0  0  0  0  0  0  0  0
  147.7927  141.6651  154.7760 C   0  0  0  0  0  0  0  0  0  0  0  0
  146.5373  140.8515  154.4247 C   0  0  0  0  0  0  0  0  0  0  0  0
  146.8594  139.8189  153.3354 C   0  0  0  0  0  0  0  0  0  0  0  0
  148.0656  138.9669  153.7587 C   0  0  0  0  0  0  0  0  0  0  0  0
  149.2645  139.8580  154.1453 C   0  0  2  0  0  0  0  0  0  0  0  0
  150.4637  138.9894  154.5735 C   0  0  0  0  0  0  0  0  0  0  0  0
  151.5659  139.8119  154.9479 O   0  0  0  0  0  0  0  0  0  0  0  0
  153.2064  144.4400  160.7476 H   0  0  0  0  0  0  0  0  0  0  0  0
  149.9879  144.8939  158.2023 H   0  0  0  0  0  0  0  0  0  0  0  0
  150.1206  142.5369  157.4365 H   0  0  0  0  0  0  0  0  0  0  0  0
  152.5441  140.1108  158.9188 H   0  0  0  0  0  0  0  0  0  0  0  0
  151.2867  139.0430  157.2952 H   0  0  0  0  0  0  0  0  0  0  0  0
  150.0756  140.2473  157.6771 H   0  0  0  0  0  0  0  0  0  0  0  0
  152.1510  141.4364  156.0244 H   0  0  0  0  0  0  0  0  0  0  0  0
  149.8167  142.3194  156.3471 H   0  0  0  0  0  0  0  0  0  0  0  0
  150.3590  142.2401  154.6897 H   0  0  0  0  0  0  0  0  0  0  0  0
  147.5482  142.3677  155.5733 H   0  0  0  0  0  0  0  0  0  0  0  0
  148.0855  142.2673  153.9144 H   0  0  0  0  0  0  0  0  0  0  0  0
  146.1673  140.3444  155.3166 H   0  0  0  0  0  0  0  0  0  0  0  0
  145.7404  141.5156  154.0890 H   0  0  0  0  0  0  0  0  0  0  0  0
  145.9934  139.1840  153.1459 H   0  0  0  0  0  0  0  0  0  0  0  0
  147.0840  140.3313  152.3991 H   0  0  0  0  0  0  0  0  0  0  0  0
  147.7859  138.3377  154.6048 H   0  0  0  0  0  0  0  0  0  0  0  0
  148.3423  138.2919  152.9481 H   0  0  0  0  0  0  0  0  0  0  0  0
  149.5652  140.4139  153.2553 H   0  0  0  0  0  0  0  0  0  0  0  0
  150.1936  138.3252  155.3950 H   0  0  0  0  0  0  0  0  0  0  0  0
  150.7783  138.3488  153.7492 H   0  0  0  0  0  0  0  0  0  0  0  0
  1  2  1  0  0  0  0
  2  7  1  0  0  0  0
  2  3  2  0  0  0  0
  3  4  1  0  0  0  0
  3 20  1  0  0  0  0
  4  5  2  0  0  0  0
  5  6  1  0  0  0  0
  5 21  1  0  0  0  0
  6  7  2  0  0  0  0
  6 22  1  0  0  0  0
  7  8  1  0  0  0  0
  8  9  1  0  0  0  0
  8 23  1  0  0  0  0
  9 10  1  0  0  0  0
  9 24  1  0  0  0  0
  9 25  1  0  0  0  0
 10 19  1  0  0  0  0
 10 11  1  0  0  0  0
 10 26  1  0  0  0  0
 11 12  1  0  0  0  0
 11 27  1  0  0  0  0
 11 28  1  0  0  0  0
 12 17  1  0  0  0  0
 12 13  1  0  0  0  0
 13 14  1  0  0  0  0
 13 29  1  0  0  0  0
 13 30  1  0  0  0  0
 14 15  1  0  0  0  0
 14 31  1  0  0  0  0
 14 32  1  0  0  0  0
 15 16  1  0  0  0  0
 15 33  1  0  0  0  0
 15 34  1  0  0  0  0
 16 17  1  0  0  0  0
 16 35  1  0  0  0  0
 16 36  1  0  0  0  0
 17 18  1  0  0  0  0
 17 37  1  0  0  0  0
 18 19  1  0  0  0  0
 18 38  1  0  0  0  0
 18 39  1  0  0  0  0
M  END
> <s_m_source_file>
AV-unprocessed.smi

> <i_m_source_file_index>
2822

> <i_lp_mmshare_version>
43012

> <i_f3d_flags>
0

> <s_epik_input>
Q2xjMVtjSF1uW2NIXVtjSF1jMVtOSF1bQ0gyXVtDQEhdKFtDSDJdMilPW0NIMl1bQ0BASF0oTjIzKVtDSDJdW0NIMl1bQ0gyXVtDSDJdMw==

> <s_epik_cmdline>
J2VwaWtfcHl0aG9uJywgJy1waCcsICc3LjAnLCAnLXRuJywgJzgnLCAnLW1hJywgJzIwMCcsICctbWV0YWxfYmluZGluZycsICctaW1hZScsICc8aW5maWxlLm1hZT4nLCAnLW9tYWUnLCAnPG91dGZpbGUubWFlPic=

> <r_lp_tautomer_probability>
0.999999

> <r_epik_Ionization_Penalty>
2.10064

> <r_epik_Ionization_Penalty_Charging>
0

> <r_epik_Ionization_Penalty_Neutral>
2.10064

> <r_epik_State_Penalty>
2.1757

> <r_epik_Charging_Adjusted_Penalty>
2.1757

> <i_epik_Tot_Q>
0

> <i_epik_Tot_abs_Q>
0

> <r_epik_Metal_State_Penalty>
1.25425

> <b_epik_Metal_Only>
0

> <s_lp_Force_Field>
OPLS_2005

> <r_lp_Energy>
40.8538

> <b_lp_Chiralities_Consistent>
1

> <s_lp_Variant>
AV-unprocessed.smi:2822-23

> <Gold.Version>
5.8.1

> <Gold.Id.Protein>
6NUR|6NUR_protein|mol2

> <Gold.PLP.Fitness>
44.3483

> <Gold.PLP.PLP>
-39.6526

> <Gold.PLP.part.hbond>
-1.0000

> <Gold.PLP.part.metal>
0.0000

> <Gold.PLP.part.buried>
-4.9720

> <Gold.PLP.part.nonpolar>
-34.9385

> <Gold.PLP.part.repulsive>
0.3284

> <Gold.PLP.ligand.clash>
0.0000

> <Gold.PLP.ligand.torsion>
0.7219

> <Gold.PLP.Chemscore.Hbond>
1.0000

> <Gold.PLP.Chemscore.CHOScore>
1.0450

> <Gold.PLP.Chemscore.Metal>
0.0000

> <Gold.Chemscore.Hbonds>
donor molecule, donor type, donor heavy atom, donor atom, acceptor molecule, acceptor atom, score
      P1  H  7989  7998       L1    19  1.00
      L1  C     5    21       P1  8028  0.16
      L1  C     5    21       P1  8029  0.88

> <Gold.PLP.Chemscore.Internal.Correction>
0.0045

> <Gold.Rescore>
     Score         DG    S(hbond)    S(metal)    S(lipo)     H(rot)  DE(clash)    DE(int)     intcor
     15.96     -16.99       0.07        0.00     121.56       1.15       0.26       0.77       ----

> <Gold.Chemscore.Fitness>
15.9613

> <Gold.Chemscore.DG>
-16.9895

> <Gold.Chemscore.ZeroCoef>
-5.4800

> <Gold.Chemscore.Hbond>
0.0705

> <Gold.Chemscore.Metal>
0.0000

> <Gold.Chemscore.Lipo>
121.5624

> <Gold.Chemscore.Internal_Hbond>
0.0000

> <Gold.Chemscore.DEClash>
0.2566

> <Gold.Chemscore.DEInternal>
0.7716

> <Gold.Chemscore.Rot>
1.1519

> <Gold.Chemscore.Internal.Correction>
   9.000000E+99

> <Gold.Chemscore.Hbonds>
donor molecule, donor type, donor heavy atom, donor atom, acceptor molecule, acceptor atom, score
      P1  H  7989  7998       L1    19  0.08

> <Gold.Chemscore.Hbond.Weighted>
-0.2354

> <Gold.Chemscore.Metal.Weighted>
-0.0000

> <Gold.Chemscore.Lipo.Weighted>
-14.2228

> <Gold.Chemscore.Internal_Hbond.Weighted>
0.0000

> <Gold.Chemscore.DEClash.Weighted>
0.2566

> <Gold.Chemscore.DEInternal.Weighted>
0.7716

> <Gold.Chemscore.Rot.Weighted>
2.9487

> <Gold.Chemscore.Internal.Correction.Weighted>
   9.000000E+99

> <Gold.Protein.RotatedTorsions>
[ 6907 6896 6895 6894 ] final -146.06 input  -60.11 | X-H torsion
[ 7974 7965 7964 7962 ] final  149.62 input  175.53 | X-H torsion
[ 8008 7997 7996 7995 ] final  -82.31 input   59.86 | X-H torsion
[ 10167 10162 10161 10158 ] final  167.88 input  -65.29 | X-H torsion
[ 10718 10713 10712 10709 ] final  133.00 input   66.30 | X-H torsion
[ 10763 10752 10751 10750 ] final   98.22 input  -60.55 | X-H torsion
[ 11005 11000 10999 10996 ] final   55.37 input  -57.11 | X-H torsion

> <Gold.Protein.ActiveResidues>
 VAL166  LYS551  ARG553  GLY616  TRP617  ASP618  TYR619  PRO620  LYS621  CYS622 
 ASP623  PHE694  ASN695  SER759  ASP760  ASP761  ALA762  ILE779  LEU786  VAL792 
 PHE793  MET794  SER795  GLU796  ALA797  LYS798  CYS799  TRP800  GLU811  SER814 

> <Gold.Protein.RotatedAtoms>
  151.1363  133.5002  159.2597 H   0  0  0  0  0  0  0  0  0  0  0  0  # atno 6907 bound_to 6896
  151.1703  135.0314  159.8758 H   0  0  0  0  0  0  0  0  0  0  0  0  # atno 6908 bound_to 6896
  152.5461  134.1227  159.8459 H   0  0  0  0  0  0  0  0  0  0  0  0  # atno 6909 bound_to 6896
  144.8425  139.6303  143.6010 H   0  0  0  0  0  0  0  0  0  0  0  0  # atno 7974 bound_to 7965
  154.6073  140.0635  156.9447 H   0  0  0  0  0  0  0  0  0  0  0  0  # atno 8008 bound_to 7997
  155.2032  140.3316  155.4321 H   0  0  0  0  0  0  0  0  0  0  0  0  # atno 8009 bound_to 7997
  156.2355  140.1861  156.7114 H   0  0  0  0  0  0  0  0  0  0  0  0  # atno 8010 bound_to 7997
  139.4955  144.3874  151.9555 H   0  0  0  0  0  0  0  0  0  0  0  0  # atno 10167 bound_to 10162
  157.4816  131.1086  150.9674 H   0  0  0  0  0  0  0  0  0  0  0  0  # atno 10718 bound_to 10713
  153.2864  135.4156  155.1126 H   0  0  0  0  0  0  0  0  0  0  0  0  # atno 10763 bound_to 10752
  154.8506  135.3508  154.6041 H   0  0  0  0  0  0  0  0  0  0  0  0  # atno 10764 bound_to 10752
  153.6463  135.7054  153.5282 H   0  0  0  0  0  0  0  0  0  0  0  0  # atno 10765 bound_to 10752
  140.0613  134.5599  155.9149 H   0  0  0  0  0  0  0  0  0  0  0  0  # atno 11005 bound_to 11000
  146.2715  139.6647  142.9293 LP  0  0  0  0  0  0  0  0  0  0  0  0  # atno 17320 bound_to 7965
  145.4665  141.0435  143.2722 LP  0  0  0  0  0  0  0  0  0  0  0  0  # atno 17321 bound_to 7965
  140.3311  144.3315  150.5987 LP  0  0  0  0  0  0  0  0  0  0  0  0  # atno 17342 bound_to 10162
  140.5644  143.2188  151.7709 LP  0  0  0  0  0  0  0  0  0  0  0  0  # atno 17343 bound_to 10162
  157.0406  130.5747  149.5355 LP  0  0  0  0  0  0  0  0  0  0  0  0  # atno 17370 bound_to 10713
  156.0124  130.5217  150.8031 LP  0  0  0  0  0  0  0  0  0  0  0  0  # atno 17371 bound_to 10713
  141.1974  133.6596  156.5740 LP  0  0  0  0  0  0  0  0  0  0  0  0  # atno 17394 bound_to 11000
  140.3767  134.7559  157.4634 LP  0  0  0  0  0  0  0  0  0  0  0  0  # atno 17395 bound_to 11000

$$$$
