AV-unprocessed.smi:131|AV-procd|sdf|1161|dock10
  -GOLD-   2262018303D 1   1.00000     0.00000
 Structure written by MMmdl.
 55 58  0  0  0  0  0  0  0  0  1 V2000
  149.1962  139.3195  155.8945 O   0  0  0  0  0  0  0  0  0  0  0  0
  150.3543  139.0646  155.5623 C   0  0  0  0  0  0  0  0  0  0  0  0
  151.4427  140.1447  155.6688 C   0  0  0  0  0  0  0  0  0  0  0  0
  151.7121  140.5619  157.0623 N   0  0  0  0  0  0  0  0  0  0  0  0
  152.5509  139.7454  157.8607 C   0  0  0  0  0  0  0  0  0  0  0  0
  153.0392  138.7051  157.4167 O   0  0  0  0  0  0  0  0  0  0  0  0
  152.7900  140.2242  159.2174 C   0  0  0  0  0  0  0  0  0  0  0  0
  153.5593  139.5038  160.0511 F   0  0  0  0  0  0  0  0  0  0  0  0
  152.2500  141.3814  159.6518 C   0  0  0  0  0  0  0  0  0  0  0  0
  151.4496  142.1801  158.8540 N   0  0  0  0  0  0  0  0  0  0  0  0
  150.8614  143.4839  159.3518 C   0  0  2  0  0  0  0  0  0  0  0  0
  151.6446  144.6843  158.7849 C   0  0  0  0  0  0  0  0  0  0  0  0
  151.9794  145.4852  160.0277 C   0  0  0  0  0  0  0  0  0  0  0  0
  152.0523  144.4002  161.0912 C   0  0  0  0  0  0  0  0  0  0  0  0
  150.9654  143.5517  160.7458 O   0  0  0  0  0  0  0  0  0  0  0  0
  151.1546  141.7740  157.5343 C   0  0  0  0  0  0  0  0  0  0  0  0
  150.4358  142.4673  156.8109 O   0  0  0  0  0  0  0  0  0  0  0  0
  150.7810  137.8623  155.1335 N   0  0  0  0  0  0  0  0  0  0  0  0
  150.0395  136.6695  154.9085 C   0  0  0  0  0  0  0  0  0  0  0  0
  150.7754  135.5207  154.5458 C   0  0  0  0  0  0  0  0  0  0  0  0
  150.1215  134.3009  154.2857 C   0  0  0  0  0  0  0  0  0  0  0  0
  148.7190  134.2300  154.3860 C   0  0  0  0  0  0  0  0  0  0  0  0
  147.8724  132.6950  154.0334 S   0  0  0  0  0  0  0  0  0  0  0  0
  148.8490  131.6800  153.6074 O   0  0  0  0  0  0  0  0  0  0  0  0
  146.9604  132.4229  155.1553 O   0  0  0  0  0  0  0  0  0  0  0  0
  146.9006  133.1065  152.6608 N   0  0  0  0  0  0  0  0  0  0  0  0
  145.7982  132.2188  152.2710 C   0  0  0  0  0  0  0  0  0  0  0  0
  145.9254  132.0469  150.7567 C   0  0  0  0  0  0  0  0  0  0  0  0
  146.5938  133.3394  150.3095 C   0  0  0  0  0  0  0  0  0  0  0  0
  147.5471  133.6537  151.4615 C   0  0  0  0  0  0  0  0  0  0  0  0
  147.9690  135.3697  154.7332 C   0  0  0  0  0  0  0  0  0  0  0  0
  148.6263  136.5885  154.9892 C   0  0  0  0  0  0  0  0  0  0  0  0
  152.3442  139.7663  155.1848 H   0  0  0  0  0  0  0  0  0  0  0  0
  151.1590  141.0055  155.0606 H   0  0  0  0  0  0  0  0  0  0  0  0
  152.4643  141.6766  160.6673 H   0  0  0  0  0  0  0  0  0  0  0  0
  149.8084  143.4602  159.0655 H   0  0  0  0  0  0  0  0  0  0  0  0
  152.5583  144.3433  158.2951 H   0  0  0  0  0  0  0  0  0  0  0  0
  151.0426  145.2393  158.0651 H   0  0  0  0  0  0  0  0  0  0  0  0
  152.9042  146.0550  159.9337 H   0  0  0  0  0  0  0  0  0  0  0  0
  151.1695  146.1787  160.2574 H   0  0  0  0  0  0  0  0  0  0  0  0
  152.9944  143.8539  161.0253 H   0  0  0  0  0  0  0  0  0  0  0  0
  151.9504  144.7925  162.1030 H   0  0  0  0  0  0  0  0  0  0  0  0
  151.7761  137.7832  154.9806 H   0  0  0  0  0  0  0  0  0  0  0  0
  151.8517  135.5702  154.4660 H   0  0  0  0  0  0  0  0  0  0  0  0
  150.6977  133.4304  154.0098 H   0  0  0  0  0  0  0  0  0  0  0  0
  145.8551  131.2611  152.7896 H   0  0  0  0  0  0  0  0  0  0  0  0
  144.8533  132.6946  152.5347 H   0  0  0  0  0  0  0  0  0  0  0  0
  146.5747  131.1991  150.5335 H   0  0  0  0  0  0  0  0  0  0  0  0
  144.9657  131.8746  150.2687 H   0  0  0  0  0  0  0  0  0  0  0  0
  147.1049  133.2436  149.3512 H   0  0  0  0  0  0  0  0  0  0  0  0
  145.8477  134.1299  150.2175 H   0  0  0  0  0  0  0  0  0  0  0  0
  147.7337  134.7223  151.5722 H   0  0  0  0  0  0  0  0  0  0  0  0
  148.5030  133.1536  151.3028 H   0  0  0  0  0  0  0  0  0  0  0  0
  146.8921  135.3137  154.7966 H   0  0  0  0  0  0  0  0  0  0  0  0
  148.0198  137.4467  155.2306 H   0  0  0  0  0  0  0  0  0  0  0  0
  1  2  2  0  0  0  0
  2  3  1  0  0  0  0
  2 18  1  0  0  0  0
  3  4  1  0  0  0  0
  3 33  1  0  0  0  0
  3 34  1  0  0  0  0
  4 16  1  0  0  0  0
  4  5  1  0  0  0  0
  5  6  2  0  0  0  0
  5  7  1  0  0  0  0
  7  8  1  0  0  0  0
  7  9  2  0  0  0  0
  9 10  1  0  0  0  0
  9 35  1  0  0  0  0
 10 11  1  0  0  0  0
 10 16  1  0  0  0  0
 11 15  1  0  0  0  0
 11 12  1  0  0  0  0
 11 36  1  0  0  0  0
 12 13  1  0  0  0  0
 12 37  1  0  0  0  0
 12 38  1  0  0  0  0
 13 14  1  0  0  0  0
 13 39  1  0  0  0  0
 13 40  1  0  0  0  0
 14 15  1  0  0  0  0
 14 41  1  0  0  0  0
 14 42  1  0  0  0  0
 16 17  2  0  0  0  0
 18 19  1  0  0  0  0
 18 43  1  0  0  0  0
 19 32  1  0  0  0  0
 19 20  2  0  0  0  0
 20 21  1  0  0  0  0
 20 44  1  0  0  0  0
 21 22  2  0  0  0  0
 21 45  1  0  0  0  0
 22 23  1  0  0  0  0
 22 31  1  0  0  0  0
 23 24  2  0  0  0  0
 23 25  2  0  0  0  0
 23 26  1  0  0  0  0
 26 30  1  0  0  0  0
 26 27  1  0  0  0  0
 27 28  1  0  0  0  0
 27 46  1  0  0  0  0
 27 47  1  0  0  0  0
 28 29  1  0  0  0  0
 28 48  1  0  0  0  0
 28 49  1  0  0  0  0
 29 30  1  0  0  0  0
 29 50  1  0  0  0  0
 29 51  1  0  0  0  0
 30 52  1  0  0  0  0
 30 53  1  0  0  0  0
 31 32  2  0  0  0  0
 31 54  1  0  0  0  0
 32 55  1  0  0  0  0
M  END
> <s_m_source_file>
AV-unprocessed.smi

> <i_m_source_file_index>
131

> <i_lp_mmshare_version>
43012

> <i_f3d_flags>
0

> <s_epik_input>
W0NIMl0xW0NIMl1bQ0gyXVtDSDJdTjFTKD1PKSg9TyljKFtjSF1bY0hdMilbY0hdW2NIXWMyW05IXUMoPU8pW0NIMl1uM2MoPU8pYyhGKVtjSF1uKGMzPU8pW0NAQEhdNFtDSDJdW0NIMl1bQ0gyXU80

> <s_epik_cmdline>
J2VwaWtfcHl0aG9uJywgJy1waCcsICc3LjAnLCAnLXRuJywgJzgnLCAnLW1hJywgJzIwMCcsICctbWV0YWxfYmluZGluZycsICctaW1hZScsICc8aW5maWxlLm1hZT4nLCAnLW9tYWUnLCAnPG91dGZpbGUubWFlPic=

> <r_lp_tautomer_probability>
1

> <r_epik_Ionization_Penalty>
1.92533e-06

> <r_epik_Ionization_Penalty_Charging>
3.88729e-08

> <r_epik_Ionization_Penalty_Neutral>
1.88646e-06

> <r_epik_State_Penalty>
-0

> <r_epik_Charging_Adjusted_Penalty>
3.88729e-08

> <i_epik_Tot_Q>
0

> <i_epik_Tot_abs_Q>
0

> <r_epik_Metal_State_Penalty>
-0

> <b_epik_Metal_Only>
0

> <s_epik_Chemistry_Notes>
This compound contains an acetal/aminal-like group ( X-CH(R)-Y where X, Y are N, S, or O) that may be acid/base labile, releasing an aldehyde.

> <s_lp_Force_Field>
OPLS_2005

> <r_lp_Energy>
42.8804

> <b_lp_Chiralities_Consistent>
1

> <s_lp_Variant>
AV-unprocessed.smi:131-1

> <Gold.Version>
5.8.1

> <Gold.Id.Protein>
6NUR|6NUR_protein|mol2

> <Gold.PLP.Fitness>
48.4132

> <Gold.PLP.PLP>
-49.7247

> <Gold.PLP.part.hbond>
-1.9165

> <Gold.PLP.part.metal>
0.0000

> <Gold.PLP.part.buried>
-6.8990

> <Gold.PLP.part.nonpolar>
-42.8253

> <Gold.PLP.part.repulsive>
1.8005

> <Gold.PLP.ligand.clash>
0.0000

> <Gold.PLP.ligand.torsion>
2.1070

> <Gold.PLP.Chemscore.Hbond>
0.0926

> <Gold.PLP.Chemscore.CHOScore>
0.0000

> <Gold.PLP.Chemscore.Metal>
0.0000

> <Gold.PLP.Chemscore.Internal.Correction>
2.6246

> <Gold.Rescore>
     Score         DG    S(hbond)    S(metal)    S(lipo)     H(rot)  DE(clash)    DE(int)     intcor
     10.09     -13.70       0.00        0.00     112.20       1.92       0.54       3.08       ----

> <Gold.Chemscore.Fitness>
10.0872

> <Gold.Chemscore.DG>
-13.7020

> <Gold.Chemscore.ZeroCoef>
-5.4800

> <Gold.Chemscore.Hbond>
0.0003

> <Gold.Chemscore.Metal>
0.0000

> <Gold.Chemscore.Lipo>
112.2005

> <Gold.Chemscore.Internal_Hbond>
0.0000

> <Gold.Chemscore.DEClash>
0.5371

> <Gold.Chemscore.DEInternal>
3.0778

> <Gold.Chemscore.Rot>
1.9166

> <Gold.Chemscore.Internal.Correction>
   9.000000E+99

> <Gold.Chemscore.Hbond.Weighted>
-0.0010

> <Gold.Chemscore.Metal.Weighted>
-0.0000

> <Gold.Chemscore.Lipo.Weighted>
-13.1275

> <Gold.Chemscore.Internal_Hbond.Weighted>
0.0000

> <Gold.Chemscore.DEClash.Weighted>
0.5371

> <Gold.Chemscore.DEInternal.Weighted>
3.0778

> <Gold.Chemscore.Rot.Weighted>
4.9064

> <Gold.Chemscore.Internal.Correction.Weighted>
   9.000000E+99

> <Gold.Protein.RotatedTorsions>
[ 6907 6896 6895 6894 ] final -131.21 input  -60.11 | X-H torsion
[ 7974 7965 7964 7962 ] final    0.79 input  175.53 | X-H torsion
[ 8008 7997 7996 7995 ] final  169.34 input   59.86 | X-H torsion
[ 10167 10162 10161 10158 ] final  -11.07 input  -65.29 | X-H torsion
[ 10718 10713 10712 10709 ] final  -81.71 input   66.30 | X-H torsion
[ 10763 10752 10751 10750 ] final -121.16 input  -60.55 | X-H torsion
[ 11005 11000 10999 10996 ] final  163.90 input  -57.11 | X-H torsion

> <Gold.Protein.ActiveResidues>
 VAL166  LYS551  ARG553  GLY616  TRP617  ASP618  TYR619  PRO620  LYS621  CYS622 
 ASP623  PHE694  ASN695  SER759  ASP760  ASP761  ALA762  ILE779  LEU786  VAL792 
 PHE793  MET794  SER795  GLU796  ALA797  LYS798  CYS799  TRP800  GLU811  SER814 

> <Gold.Protein.RotatedAtoms>
  150.9483  133.6578  159.2776 H   0  0  0  0  0  0  0  0  0  0  0  0  # atno 6907 bound_to 6896
  151.3942  135.0960  159.9545 H   0  0  0  0  0  0  0  0  0  0  0  0  # atno 6908 bound_to 6896
  152.5099  133.8991  159.7487 H   0  0  0  0  0  0  0  0  0  0  0  0  # atno 6909 bound_to 6896
  146.2436  140.1084  142.8345 H   0  0  0  0  0  0  0  0  0  0  0  0  # atno 7974 bound_to 7965
  156.1466  140.1567  156.8837 H   0  0  0  0  0  0  0  0  0  0  0  0  # atno 8008 bound_to 7997
  154.5034  140.0819  156.7881 H   0  0  0  0  0  0  0  0  0  0  0  0  # atno 8009 bound_to 7997
  155.3977  140.3413  155.4257 H   0  0  0  0  0  0  0  0  0  0  0  0  # atno 8010 bound_to 7997
  140.7129  143.5679  150.9124 H   0  0  0  0  0  0  0  0  0  0  0  0  # atno 10167 bound_to 10162
  156.0045  130.4612  150.3995 H   0  0  0  0  0  0  0  0  0  0  0  0  # atno 10718 bound_to 10713
  154.8661  135.4178  154.2575 H   0  0  0  0  0  0  0  0  0  0  0  0  # atno 10763 bound_to 10752
  153.3509  135.6998  153.6795 H   0  0  0  0  0  0  0  0  0  0  0  0  # atno 10764 bound_to 10752
  153.5735  135.3586  155.2819 H   0  0  0  0  0  0  0  0  0  0  0  0  # atno 10765 bound_to 10752
  140.2405  134.8055  157.3405 H   0  0  0  0  0  0  0  0  0  0  0  0  # atno 11005 bound_to 11000
  145.0508  140.9016  143.4997 LP  0  0  0  0  0  0  0  0  0  0  0  0  # atno 17320 bound_to 7965
  145.1182  139.2711  143.5602 LP  0  0  0  0  0  0  0  0  0  0  0  0  # atno 17321 bound_to 7965
  139.9405  143.6387  152.3055 LP  0  0  0  0  0  0  0  0  0  0  0  0  # atno 17342 bound_to 10162
  139.6870  144.7650  151.1506 LP  0  0  0  0  0  0  0  0  0  0  0  0  # atno 17343 bound_to 10162
  157.2064  131.0450  151.2623 LP  0  0  0  0  0  0  0  0  0  0  0  0  # atno 17370 bound_to 10713
  157.3928  130.7291  149.6710 LP  0  0  0  0  0  0  0  0  0  0  0  0  # atno 17371 bound_to 10713
  140.1659  134.4670  155.7864 LP  0  0  0  0  0  0  0  0  0  0  0  0  # atno 17394 bound_to 11000
  141.2211  133.6921  156.7624 LP  0  0  0  0  0  0  0  0  0  0  0  0  # atno 17395 bound_to 11000

$$$$
