AV-unprocessed.smi:1285|AV-procd|sdf|5370|dock8
  -GOLD-   22720 4513D 1   1.00000     0.00000
 Structure written by MMmdl.
 46 47  0  0  0  0  0  0  0  0  1 V2000
  149.6325  133.2846  155.6744 C   0  0  0  0  0  0  0  0  0  0  0  0
  150.1337  134.6329  155.1245 C   0  0  0  0  0  0  0  0  0  0  0  0
  149.3521  135.8941  155.6129 C   0  0  2  0  0  0  0  0  0  0  0  0
  149.5142  135.9373  157.1564 C   0  0  0  0  0  0  0  0  0  0  0  0
  147.8392  135.6947  155.2723 C   0  0  0  0  0  0  0  0  0  0  0  0
  147.5980  135.0615  153.9757 N   0  0  0  0  0  0  0  0  0  0  0  0
  146.7983  134.0058  153.7536 C   0  0  0  0  0  0  0  0  0  0  0  0
  146.1739  133.4321  154.6466 O   0  0  0  0  0  0  0  0  0  0  0  0
  146.6909  133.5293  152.2974 C   0  0  1  0  0  0  0  0  0  0  0  0
  146.2612  132.0516  152.1938 C   0  0  0  0  0  0  0  0  0  0  0  0
  145.8157  134.4191  151.5438 N   0  0  0  0  0  0  0  0  0  0  0  0
  145.8114  135.7520  151.4665 C   0  0  0  0  0  0  0  0  0  0  0  0
  144.8328  136.2464  150.7214 N   0  0  0  0  0  0  0  0  0  0  0  0
  144.2176  135.0836  150.3533 C   0  0  0  0  0  0  0  0  0  0  0  0
  144.7584  133.9614  150.8273 N   0  0  0  0  0  0  0  0  0  0  0  0
  149.9022  137.1367  155.0001 N   0  0  0  0  0  0  0  0  0  0  0  0
  151.3227  137.3919  155.2696 C   0  0  0  0  0  0  0  0  0  0  0  0
  151.8487  138.6072  154.4872 C   0  0  0  0  0  0  0  0  0  0  0  0
  151.0662  139.7537  154.7980 O   0  0  0  0  0  0  0  0  0  0  0  0
  149.6879  139.5686  154.4987 C   0  0  0  0  0  0  0  0  0  0  0  0
  149.1458  138.3625  155.2841 C   0  0  0  0  0  0  0  0  0  0  0  0
  150.2414  132.4664  155.2896 H   0  0  0  0  0  0  0  0  0  0  0  0
  148.6023  133.0855  155.3810 H   0  0  0  0  0  0  0  0  0  0  0  0
  149.6860  133.2440  156.7624 H   0  0  0  0  0  0  0  0  0  0  0  0
  151.1943  134.7330  155.3545 H   0  0  0  0  0  0  0  0  0  0  0  0
  150.0981  134.5715  154.0362 H   0  0  0  0  0  0  0  0  0  0  0  0
  149.3537  134.9603  157.6134 H   0  0  0  0  0  0  0  0  0  0  0  0
  148.7993  136.6155  157.6228 H   0  0  0  0  0  0  0  0  0  0  0  0
  150.5117  136.2664  157.4485 H   0  0  0  0  0  0  0  0  0  0  0  0
  147.3320  135.1282  156.0532 H   0  0  0  0  0  0  0  0  0  0  0  0
  147.3301  136.6571  155.2322 H   0  0  0  0  0  0  0  0  0  0  0  0
  148.0756  135.4646  153.1828 H   0  0  0  0  0  0  0  0  0  0  0  0
  147.6838  133.6056  151.8502 H   0  0  0  0  0  0  0  0  0  0  0  0
  146.9562  131.4029  152.7284 H   0  0  0  0  0  0  0  0  0  0  0  0
  146.2450  131.7245  151.1539 H   0  0  0  0  0  0  0  0  0  0  0  0
  145.2671  131.8806  152.6089 H   0  0  0  0  0  0  0  0  0  0  0  0
  146.5368  136.3742  151.9699 H   0  0  0  0  0  0  0  0  0  0  0  0
  143.3408  135.0641  149.7230 H   0  0  0  0  0  0  0  0  0  0  0  0
  151.4819  137.5683  156.3333 H   0  0  0  0  0  0  0  0  0  0  0  0
  151.9330  136.5329  154.9966 H   0  0  0  0  0  0  0  0  0  0  0  0
  152.8884  138.8044  154.7486 H   0  0  0  0  0  0  0  0  0  0  0  0
  151.8190  138.4170  153.4132 H   0  0  0  0  0  0  0  0  0  0  0  0
  149.1413  140.4725  154.7678 H   0  0  0  0  0  0  0  0  0  0  0  0
  149.5562  139.4217  153.4254 H   0  0  0  0  0  0  0  0  0  0  0  0
  148.0949  138.2428  155.0274 H   0  0  0  0  0  0  0  0  0  0  0  0
  149.1877  138.5945  156.3483 H   0  0  0  0  0  0  0  0  0  0  0  0
  1  2  1  0  0  0  0
  1 22  1  0  0  0  0
  1 23  1  0  0  0  0
  1 24  1  0  0  0  0
  2  3  1  0  0  0  0
  2 25  1  0  0  0  0
  2 26  1  0  0  0  0
  3  4  1  0  0  0  0
  3  5  1  0  0  0  0
  3 16  1  0  0  0  0
  4 27  1  0  0  0  0
  4 28  1  0  0  0  0
  4 29  1  0  0  0  0
  5  6  1  0  0  0  0
  5 30  1  0  0  0  0
  5 31  1  0  0  0  0
  6  7  1  0  0  0  0
  6 32  1  0  0  0  0
  7  8  2  0  0  0  0
  7  9  1  0  0  0  0
  9 10  1  0  0  0  0
  9 11  1  0  0  0  0
  9 33  1  0  0  0  0
 10 34  1  0  0  0  0
 10 35  1  0  0  0  0
 10 36  1  0  0  0  0
 11 15  1  0  0  0  0
 11 12  1  0  0  0  0
 12 13  2  0  0  0  0
 12 37  1  0  0  0  0
 13 14  1  0  0  0  0
 14 15  2  0  0  0  0
 14 38  1  0  0  0  0
 16 21  1  0  0  0  0
 16 17  1  0  0  0  0
 17 18  1  0  0  0  0
 17 39  1  0  0  0  0
 17 40  1  0  0  0  0
 18 19  1  0  0  0  0
 18 41  1  0  0  0  0
 18 42  1  0  0  0  0
 19 20  1  0  0  0  0
 20 21  1  0  0  0  0
 20 43  1  0  0  0  0
 20 44  1  0  0  0  0
 21 45  1  0  0  0  0
 21 46  1  0  0  0  0
M  END
> <s_m_source_file>
AV-unprocessed.smi

> <i_m_source_file_index>
1285

> <i_lp_mmshare_version>
43012

> <i_f3d_flags>
0

> <s_epik_input>
W0NIMl0xW0NIMl1PW0NIMl1bQ0gyXU4xW0NAQF0oW0NIM10pKFtDSDJdW0NIM10pW0NIMl1bTkhdQyg9TylbQ0BIXShbQ0gzXSluMltjSF1uW2NIXW4y

> <s_epik_cmdline>
J2VwaWtfcHl0aG9uJywgJy1waCcsICc3LjAnLCAnLXRuJywgJzgnLCAnLW1hJywgJzIwMCcsICctbWV0YWxfYmluZGluZycsICctaW1hZScsICc8aW5maWxlLm1hZT4nLCAnLW9tYWUnLCAnPG91dGZpbGUubWFlPic=

> <r_lp_tautomer_probability>
1

> <r_epik_Ionization_Penalty>
0.285697

> <r_epik_Ionization_Penalty_Charging>
0

> <r_epik_Ionization_Penalty_Neutral>
0.285697

> <r_epik_State_Penalty>
0.278478

> <r_epik_Charging_Adjusted_Penalty>
0.278478

> <i_epik_Tot_Q>
0

> <i_epik_Tot_abs_Q>
0

> <r_epik_Metal_State_Penalty>
0.278477

> <b_epik_Metal_Only>
0

> <s_lp_Force_Field>
OPLS_2005

> <r_lp_Energy>
49.308

> <b_lp_Chiralities_Consistent>
1

> <s_lp_Variant>
AV-unprocessed.smi:1285-4

> <Gold.Version>
5.8.1

> <Gold.Id.Protein>
6NUR|6NUR_protein|mol2

> <Gold.PLP.Fitness>
38.3273

> <Gold.PLP.PLP>
-28.3722

> <Gold.PLP.part.hbond>
-2.0000

> <Gold.PLP.part.metal>
0.0000

> <Gold.PLP.part.buried>
-5.6788

> <Gold.PLP.part.nonpolar>
-21.8783

> <Gold.PLP.part.repulsive>
0.6806

> <Gold.PLP.ligand.clash>
0.0000

> <Gold.PLP.ligand.torsion>
1.1198

> <Gold.PLP.Chemscore.Hbond>
2.0000

> <Gold.PLP.Chemscore.CHOScore>
2.0000

> <Gold.PLP.Chemscore.Metal>
0.0000

> <Gold.Chemscore.Hbonds>
donor molecule, donor type, donor heavy atom, donor atom, acceptor molecule, acceptor atom, score
      L1  H     6    32       P1  7948  1.00
      P1  H  7989  7998       L1    19  0.95
      L1  C    12    37       P1  7948  0.94
      L1  C    14    38       P1 10186  1.00

> <Gold.PLP.Chemscore.Internal.Correction>
0.1948

> <Gold.Rescore>
     Score         DG    S(hbond)    S(metal)    S(lipo)     H(rot)  DE(clash)    DE(int)     intcor
      9.23     -10.39       1.57        0.00      55.73       2.68       0.10       1.05       ----

> <Gold.Chemscore.Fitness>
9.2327

> <Gold.Chemscore.DG>
-10.3858

> <Gold.Chemscore.ZeroCoef>
-5.4800

> <Gold.Chemscore.Hbond>
1.5723

> <Gold.Chemscore.Metal>
0.0000

> <Gold.Chemscore.Lipo>
55.7310

> <Gold.Chemscore.Internal_Hbond>
0.0000

> <Gold.Chemscore.DEClash>
0.1002

> <Gold.Chemscore.DEInternal>
1.0529

> <Gold.Chemscore.Rot>
2.6821

> <Gold.Chemscore.Internal.Correction>
   9.000000E+99

> <Gold.Chemscore.Hbonds>
donor molecule, donor type, donor heavy atom, donor atom, acceptor molecule, acceptor atom, score
      L1  H     6    32       P1  7948  1.00
      P1  H  7989  7998       L1    19  0.10

> <Gold.Chemscore.Hbond.Weighted>
-5.2514

> <Gold.Chemscore.Metal.Weighted>
-0.0000

> <Gold.Chemscore.Lipo.Weighted>
-6.5205

> <Gold.Chemscore.Internal_Hbond.Weighted>
0.0000

> <Gold.Chemscore.DEClash.Weighted>
0.1002

> <Gold.Chemscore.DEInternal.Weighted>
1.0529

> <Gold.Chemscore.Rot.Weighted>
6.8661

> <Gold.Chemscore.Internal.Correction.Weighted>
   9.000000E+99

> <Gold.Protein.RotatedTorsions>
[ 6907 6896 6895 6894 ] final  -67.01 input  -60.11 | X-H torsion
[ 7974 7965 7964 7962 ] final  153.98 input  175.53 | X-H torsion
[ 8008 7997 7996 7995 ] final -116.98 input   59.86 | X-H torsion
[ 10167 10162 10161 10158 ] final -170.12 input  -65.29 | X-H torsion
[ 10718 10713 10712 10709 ] final  163.83 input   66.30 | X-H torsion
[ 10763 10752 10751 10750 ] final  103.03 input  -60.55 | X-H torsion
[ 11005 11000 10999 10996 ] final  -92.60 input  -57.11 | X-H torsion

> <Gold.Protein.ActiveResidues>
 VAL166  LYS551  ARG553  GLY616  TRP617  ASP618  TYR619  PRO620  LYS621  CYS622 
 ASP623  PHE694  ASN695  SER759  ASP760  ASP761  ALA762  ILE779  LEU786  VAL792 
 PHE793  MET794  SER795  GLU796  ALA797  LYS798  CYS799  TRP800  GLU811  SER814 

> <Gold.Protein.RotatedAtoms>
  150.7433  134.5941  159.6002 H   0  0  0  0  0  0  0  0  0  0  0  0  # atno 6907 bound_to 6896
  152.3321  134.7243  160.0296 H   0  0  0  0  0  0  0  0  0  0  0  0  # atno 6908 bound_to 6896
  151.7723  133.3306  159.3484 H   0  0  0  0  0  0  0  0  0  0  0  0  # atno 6909 bound_to 6896
  144.8118  139.6873  143.6138 H   0  0  0  0  0  0  0  0  0  0  0  0  # atno 7974 bound_to 7965
  155.0765  140.0394  157.2625 H   0  0  0  0  0  0  0  0  0  0  0  0  # atno 8008 bound_to 7997
  154.6941  140.2659  155.6759 H   0  0  0  0  0  0  0  0  0  0  0  0  # atno 8009 bound_to 7997
  156.2738  140.2753  156.1529 H   0  0  0  0  0  0  0  0  0  0  0  0  # atno 8010 bound_to 7997
  139.5881  144.1273  152.1601 H   0  0  0  0  0  0  0  0  0  0  0  0  # atno 10167 bound_to 10162
  157.1029  131.0447  151.2490 H   0  0  0  0  0  0  0  0  0  0  0  0  # atno 10718 bound_to 10713
  153.3473  135.3990  155.1618 H   0  0  0  0  0  0  0  0  0  0  0  0  # atno 10763 bound_to 10752
  154.8655  135.3648  154.5268 H   0  0  0  0  0  0  0  0  0  0  0  0  # atno 10764 bound_to 10752
  153.5717  135.7079  153.5561 H   0  0  0  0  0  0  0  0  0  0  0  0  # atno 10765 bound_to 10752
  141.1518  133.7832  157.0043 H   0  0  0  0  0  0  0  0  0  0  0  0  # atno 11005 bound_to 11000
  146.2418  139.6016  142.9486 LP  0  0  0  0  0  0  0  0  0  0  0  0  # atno 17320 bound_to 7965
  145.5305  141.0427  143.2385 LP  0  0  0  0  0  0  0  0  0  0  0  0  # atno 17321 bound_to 7965
  140.0841  144.5675  150.7101 LP  0  0  0  0  0  0  0  0  0  0  0  0  # atno 17342 bound_to 10162
  140.7149  143.2536  151.4465 LP  0  0  0  0  0  0  0  0  0  0  0  0  # atno 17343 bound_to 10162
  157.4625  130.7661  149.7249 LP  0  0  0  0  0  0  0  0  0  0  0  0  # atno 17370 bound_to 10713
  155.9869  130.3971  150.3190 LP  0  0  0  0  0  0  0  0  0  0  0  0  # atno 17371 bound_to 10713
  140.0919  134.9587  157.1790 LP  0  0  0  0  0  0  0  0  0  0  0  0  # atno 17394 bound_to 11000
  140.3434  134.2679  155.7209 LP  0  0  0  0  0  0  0  0  0  0  0  0  # atno 17395 bound_to 11000

$$$$
