AV-unprocessed.smi:658|AV-procd|sdf|3232|dock10
  -GOLD-   22720 0173D 1   1.00000     0.00000
 Structure written by MMmdl.
 38 38  0  0  0  0  0  0  0  0  2 V2000
  145.3992  135.9921  150.6233 C   0  0  0  0  0  0  0  0  0  0  0  0
  145.6046  135.8683  152.1480 C   0  0  2  0  0  0  0  0  0  0  0  0
  146.4924  136.9502  152.6341 N   0  3  0  0  0  0  0  0  0  0  0  0
  146.1686  138.3063  152.1431 C   0  0  0  0  0  0  0  0  0  0  0  0
  147.2815  139.2976  152.5044 C   0  0  0  0  0  0  0  0  0  0  0  0
  147.4692  139.4431  154.0208 C   0  0  0  0  0  0  0  0  0  0  0  0
  149.0162  140.3615  154.4282 S   0  0  0  0  0  0  0  0  0  0  0  0
  150.2102  139.4438  153.5984 N   0  0  0  0  0  0  0  0  0  0  0  0
  148.9695  141.6912  153.8013 O   0  0  0  0  0  0  0  0  0  0  0  0
  149.2803  140.2146  155.8670 O   0  0  0  0  0  0  0  0  0  0  0  0
  146.1816  134.4892  152.5677 C   0  0  1  0  0  0  0  0  0  0  0  0
  146.0753  134.2407  154.0851 C   0  0  0  0  0  0  0  0  0  0  0  0
  145.5655  133.3863  151.8400 N   0  0  0  0  0  0  0  0  0  0  0  0
  146.1684  132.4788  150.9929 C   0  0  0  0  0  0  0  0  0  0  0  0
  145.1975  131.6286  150.5469 C   0  0  0  0  0  0  0  0  0  0  0  0
  144.0168  132.0971  151.1874 C   0  0  0  0  0  0  0  0  0  0  0  0
  144.2397  133.1471  151.9612 N   0  0  0  0  0  0  0  0  0  0  0  0
  144.7008  135.2453  150.2458 H   0  0  0  0  0  0  0  0  0  0  0  0
  146.3401  135.8654  150.0870 H   0  0  0  0  0  0  0  0  0  0  0  0
  144.9889  136.9625  150.3465 H   0  0  0  0  0  0  0  0  0  0  0  0
  144.6337  135.9848  152.6325 H   0  0  0  0  0  0  0  0  0  0  0  0
  146.4149  136.9746  153.6409 H   0  0  0  0  0  0  0  0  0  0  0  0
  146.0313  138.2889  151.0619 H   0  0  0  0  0  0  0  0  0  0  0  0
  145.2257  138.6325  152.5839 H   0  0  0  0  0  0  0  0  0  0  0  0
  148.2202  138.9709  152.0547 H   0  0  0  0  0  0  0  0  0  0  0  0
  147.0521  140.2720  152.0714 H   0  0  0  0  0  0  0  0  0  0  0  0
  146.6344  140.0022  154.4448 H   0  0  0  0  0  0  0  0  0  0  0  0
  147.5020  138.4752  154.5218 H   0  0  0  0  0  0  0  0  0  0  0  0
  149.9650  139.2517  152.6271 H   0  0  0  0  0  0  0  0  0  0  0  0
  150.5375  138.6366  154.1289 H   0  0  0  0  0  0  0  0  0  0  0  0
  147.2412  134.4778  152.3068 H   0  0  0  0  0  0  0  0  0  0  0  0
  146.6406  134.9782  154.6550 H   0  0  0  0  0  0  0  0  0  0  0  0
  146.4709  133.2591  154.3483 H   0  0  0  0  0  0  0  0  0  0  0  0
  145.0402  134.2817  154.4262 H   0  0  0  0  0  0  0  0  0  0  0  0
  147.2264  132.5129  150.7779 H   0  0  0  0  0  0  0  0  0  0  0  0
  145.3130  130.7970  149.8677 H   0  0  0  0  0  0  0  0  0  0  0  0
  143.0119  131.7080  151.1140 H   0  0  0  0  0  0  0  0  0  0  0  0
  147.4467  136.7245  152.3928 H   0  0  0  0  0  0  0  0  0  0  0  0
  1  2  1  0  0  0  0
  1 18  1  0  0  0  0
  1 19  1  0  0  0  0
  1 20  1  0  0  0  0
  2  3  1  0  0  0  0
  2 11  1  0  0  0  0
  2 21  1  0  0  0  0
  3  4  1  0  0  0  0
  3 22  1  0  0  0  0
  3 38  1  0  0  0  0
  4  5  1  0  0  0  0
  4 23  1  0  0  0  0
  4 24  1  0  0  0  0
  5  6  1  0  0  0  0
  5 25  1  0  0  0  0
  5 26  1  0  0  0  0
  6  7  1  0  0  0  0
  6 27  1  0  0  0  0
  6 28  1  0  0  0  0
  7  8  1  0  0  0  0
  7  9  2  0  0  0  0
  7 10  2  0  0  0  0
  8 29  1  0  0  0  0
  8 30  1  0  0  0  0
 11 12  1  0  0  0  0
 11 13  1  0  0  0  0
 11 31  1  0  0  0  0
 12 32  1  0  0  0  0
 12 33  1  0  0  0  0
 12 34  1  0  0  0  0
 13 17  1  0  0  0  0
 13 14  1  0  0  0  0
 14 15  2  0  0  0  0
 14 35  1  0  0  0  0
 15 16  1  0  0  0  0
 15 36  1  0  0  0  0
 16 17  2  0  0  0  0
 16 37  1  0  0  0  0
M  CHG  1   3   1
M  END
> <s_m_source_file>
AV-unprocessed.smi

> <i_m_source_file_index>
658

> <i_lp_mmshare_version>
43012

> <i_f3d_flags>
0

> <s_epik_input>
bjFbY0hdW2NIXVtjSF1uMVtDQEBIXShbQ0gzXSlbQ0BIXShbQ0gzXSlbTkhdW0NIMl1bQ0gyXVtDSDJdUyg9TykoPU8pW05IMl0=

> <s_epik_cmdline>
J2VwaWtfcHl0aG9uJywgJy1waCcsICc3LjAnLCAnLXRuJywgJzgnLCAnLW1hJywgJzIwMCcsICctbWV0YWxfYmluZGluZycsICctaW1hZScsICc8aW5maWxlLm1hZT4nLCAnLW9tYWUnLCAnPG91dGZpbGUubWFlPic=

> <r_lp_tautomer_probability>
1

> <r_epik_Ionization_Penalty>
0.00535781

> <r_epik_Ionization_Penalty_Charging>
0.00511015

> <r_epik_Ionization_Penalty_Neutral>
0.000247661

> <r_epik_State_Penalty>
-0

> <r_epik_Charging_Adjusted_Penalty>
0.00511015

> <i_epik_Tot_Q>
1

> <i_epik_Tot_abs_Q>
1

> <r_epik_Metal_State_Penalty>
0.149106

> <b_epik_Metal_Only>
0

> <s_lp_Force_Field>
OPLS_2005

> <r_lp_Energy>
7.04511

> <b_lp_Chiralities_Consistent>
1

> <s_lp_Variant>
AV-unprocessed.smi:658-3

> <Gold.Version>
5.8.1

> <Gold.Id.Protein>
6NUR|6NUR_protein|mol2

> <Gold.PLP.Fitness>
44.1964

> <Gold.PLP.PLP>
-28.5501

> <Gold.PLP.part.hbond>
-4.2935

> <Gold.PLP.part.metal>
0.0000

> <Gold.PLP.part.buried>
0.3799

> <Gold.PLP.part.nonpolar>
-25.2402

> <Gold.PLP.part.repulsive>
0.3923

> <Gold.PLP.ligand.clash>
0.0000

> <Gold.PLP.ligand.torsion>
0.4217

> <Gold.PLP.Chemscore.Hbond>
4.4160

> <Gold.PLP.Chemscore.CHOScore>
1.0000

> <Gold.PLP.Chemscore.Metal>
0.0000

> <Gold.Chemscore.Hbonds>
donor molecule, donor type, donor heavy atom, donor atom, acceptor molecule, acceptor atom, score
      L1  H     3    38       P1  7948  2.00
      L1  H     8    29       P1  7957  0.85
      P1  H  7989  7998       L1     8  0.78
      P1  H  8011  8017       L1     9  0.64
      L1  C    14    35       P1 10747  1.00

> <Gold.PLP.Chemscore.Internal.Correction>
0.2416

> <Gold.Rescore>
     Score         DG    S(hbond)    S(metal)    S(lipo)     H(rot)  DE(clash)    DE(int)     intcor
     12.57     -13.62       2.53        0.00      65.92       3.13       0.72       0.33       ----

> <Gold.Chemscore.Fitness>
12.5661

> <Gold.Chemscore.DG>
-13.6224

> <Gold.Chemscore.ZeroCoef>
-5.4800

> <Gold.Chemscore.Hbond>
2.5286

> <Gold.Chemscore.Metal>
0.0000

> <Gold.Chemscore.Lipo>
65.9223

> <Gold.Chemscore.Internal_Hbond>
0.0000

> <Gold.Chemscore.DEClash>
0.7228

> <Gold.Chemscore.DEInternal>
0.3336

> <Gold.Chemscore.Rot>
3.1312

> <Gold.Chemscore.Internal.Correction>
   9.000000E+99

> <Gold.Chemscore.Hbonds>
donor molecule, donor type, donor heavy atom, donor atom, acceptor molecule, acceptor atom, score
      L1  H     3    38       P1  7948  1.00
      L1  H     8    29       P1  7957  0.73
      P1  H  7989  7998       L1     8  0.05
      P1  H  8011  8017       L1     9  0.64

> <Gold.Chemscore.Hbond.Weighted>
-8.4455

> <Gold.Chemscore.Metal.Weighted>
-0.0000

> <Gold.Chemscore.Lipo.Weighted>
-7.7129

> <Gold.Chemscore.Internal_Hbond.Weighted>
0.0000

> <Gold.Chemscore.DEClash.Weighted>
0.7228

> <Gold.Chemscore.DEInternal.Weighted>
0.3336

> <Gold.Chemscore.Rot.Weighted>
8.0160

> <Gold.Chemscore.Internal.Correction.Weighted>
   9.000000E+99

> <Gold.Protein.RotatedTorsions>
[ 6907 6896 6895 6894 ] final -127.70 input  -60.11 | X-H torsion
[ 7974 7965 7964 7962 ] final -140.01 input  175.53 | X-H torsion
[ 8008 7997 7996 7995 ] final  149.60 input   59.86 | X-H torsion
[ 10167 10162 10161 10158 ] final -100.20 input  -65.29 | X-H torsion
[ 10718 10713 10712 10709 ] final  128.97 input   66.30 | X-H torsion
[ 10763 10752 10751 10750 ] final   22.00 input  -60.55 | X-H torsion
[ 11005 11000 10999 10996 ] final -174.87 input  -57.11 | X-H torsion

> <Gold.Protein.ActiveResidues>
 VAL166  LYS551  ARG553  GLY616  TRP617  ASP618  TYR619  PRO620  LYS621  CYS622 
 ASP623  PHE694  ASN695  SER759  ASP760  ASP761  ALA762  ILE779  LEU786  VAL792 
 PHE793  MET794  SER795  GLU796  ALA797  LYS798  CYS799  TRP800  GLU811  SER814 

> <Gold.Protein.RotatedAtoms>
  150.9101  133.7009  159.2856 H   0  0  0  0  0  0  0  0  0  0  0  0  # atno 6907 bound_to 6896
  151.4498  135.1027  159.9704 H   0  0  0  0  0  0  0  0  0  0  0  0  # atno 6908 bound_to 6896
  152.4925  133.8489  159.7246 H   0  0  0  0  0  0  0  0  0  0  0  0  # atno 6909 bound_to 6896
  144.8631  140.6250  143.5315 H   0  0  0  0  0  0  0  0  0  0  0  0  # atno 7974 bound_to 7965
  156.2748  140.2097  156.5884 H   0  0  0  0  0  0  0  0  0  0  0  0  # atno 8008 bound_to 7997
  154.7002  140.0521  157.0474 H   0  0  0  0  0  0  0  0  0  0  0  0  # atno 8009 bound_to 7997
  155.0745  140.3180  155.4623 H   0  0  0  0  0  0  0  0  0  0  0  0  # atno 8010 bound_to 7997
  140.2544  143.3450  152.0684 H   0  0  0  0  0  0  0  0  0  0  0  0  # atno 10167 bound_to 10162
  157.5197  131.1098  150.9172 H   0  0  0  0  0  0  0  0  0  0  0  0  # atno 10718 bound_to 10713
  153.0950  135.6657  153.9780 H   0  0  0  0  0  0  0  0  0  0  0  0  # atno 10763 bound_to 10752
  153.9367  135.2998  155.3445 H   0  0  0  0  0  0  0  0  0  0  0  0  # atno 10764 bound_to 10752
  154.7368  135.5098  153.9129 H   0  0  0  0  0  0  0  0  0  0  0  0  # atno 10765 bound_to 10752
  140.4697  134.6177  157.4877 H   0  0  0  0  0  0  0  0  0  0  0  0  # atno 11005 bound_to 11000
  145.4274  139.1554  143.4041 LP  0  0  0  0  0  0  0  0  0  0  0  0  # atno 17320 bound_to 7965
  146.2875  140.4388  142.8752 LP  0  0  0  0  0  0  0  0  0  0  0  0  # atno 17321 bound_to 7965
  139.5036  144.6758  151.6131 LP  0  0  0  0  0  0  0  0  0  0  0  0  # atno 17342 bound_to 10162
  140.6015  143.9601  150.6389 LP  0  0  0  0  0  0  0  0  0  0  0  0  # atno 17343 bound_to 10162
  156.9787  130.5518  149.5295 LP  0  0  0  0  0  0  0  0  0  0  0  0  # atno 17370 bound_to 10713
  156.0344  130.5433  150.8617 LP  0  0  0  0  0  0  0  0  0  0  0  0  # atno 17371 bound_to 10713
  139.9893  134.7011  155.9718 LP  0  0  0  0  0  0  0  0  0  0  0  0  # atno 17394 bound_to 11000
  141.1583  133.6541  156.4233 LP  0  0  0  0  0  0  0  0  0  0  0  0  # atno 17395 bound_to 11000

$$$$
