AV-unprocessed.smi:1901|AV-procd|sdf|7719|dock9
  -GOLD-   22720 9463D 1   1.00000     0.00000
 Structure written by MMmdl.
 27 28  0  0  0  0  0  0  0  0  2 V2000
  150.9610  141.1470  158.0011 O   0  0  0  0  0  0  0  0  0  0  0  0
  152.1141  140.7117  157.9575 C   0  0  0  0  0  0  0  0  0  0  0  0
  152.9427  140.9166  158.9900 N   0  0  0  0  0  0  0  0  0  0  0  0
  152.5993  141.6360  160.2103 C   0  0  0  0  0  0  0  0  0  0  0  0
  152.7715  143.1525  160.0257 C   0  0  1  0  0  0  0  0  0  0  0  0
  152.2323  143.6757  158.7108 C   0  0  0  0  0  0  0  0  0  0  0  0
  152.1034  145.1681  158.9979 C   0  0  0  0  0  0  0  0  0  0  0  0
  151.7851  145.2682  160.3828 O   0  0  0  0  0  0  0  0  0  0  0  0
  151.9979  144.0140  161.0263 C   0  0  0  0  0  0  0  0  0  0  0  0
  152.6722  140.0181  156.9390 N   0  5  0  0  0  0  0  0  0  0  0  0
  151.9183  139.6360  155.8951 C   0  0  0  0  0  0  0  0  0  0  0  0
  150.6620  140.0568  155.7081 N   0  0  0  0  0  0  0  0  0  0  0  0
  150.0646  139.5297  154.5617 C   0  0  0  0  0  0  0  0  0  0  0  0
  150.8815  138.6793  153.8650 C   0  0  0  0  0  0  0  0  0  0  0  0
  152.4354  138.5158  154.6318 S   0  0  0  0  0  0  0  0  0  0  0  0
  153.8790  140.5462  158.9190 H   0  0  0  0  0  0  0  0  0  0  0  0
  151.5658  141.4133  160.4799 H   0  0  0  0  0  0  0  0  0  0  0  0
  153.2279  141.2788  161.0277 H   0  0  0  0  0  0  0  0  0  0  0  0
  153.8310  143.4076  160.0890 H   0  0  0  0  0  0  0  0  0  0  0  0
  152.8847  143.4612  157.8639 H   0  0  0  0  0  0  0  0  0  0  0  0
  151.2498  143.2485  158.5036 H   0  0  0  0  0  0  0  0  0  0  0  0
  153.0551  145.6716  158.8232 H   0  0  0  0  0  0  0  0  0  0  0  0
  151.3466  145.6491  158.3778 H   0  0  0  0  0  0  0  0  0  0  0  0
  151.0246  143.5732  161.2466 H   0  0  0  0  0  0  0  0  0  0  0  0
  152.5321  144.1376  161.9685 H   0  0  0  0  0  0  0  0  0  0  0  0
  149.0514  139.8130  154.3186 H   0  0  0  0  0  0  0  0  0  0  0  0
  150.6662  138.1418  152.9539 H   0  0  0  0  0  0  0  0  0  0  0  0
  1  2  2  0  0  0  0
  2  3  1  0  0  0  0
  2 10  1  0  0  0  0
  3  4  1  0  0  0  0
  3 16  1  0  0  0  0
  4  5  1  0  0  0  0
  4 17  1  0  0  0  0
  4 18  1  0  0  0  0
  5  9  1  0  0  0  0
  5  6  1  0  0  0  0
  5 19  1  0  0  0  0
  6  7  1  0  0  0  0
  6 20  1  0  0  0  0
  6 21  1  0  0  0  0
  7  8  1  0  0  0  0
  7 22  1  0  0  0  0
  7 23  1  0  0  0  0
  8  9  1  0  0  0  0
  9 24  1  0  0  0  0
  9 25  1  0  0  0  0
 10 11  1  0  0  0  0
 11 15  1  0  0  0  0
 11 12  2  0  0  0  0
 12 13  1  0  0  0  0
 13 14  2  0  0  0  0
 13 26  1  0  0  0  0
 14 15  1  0  0  0  0
 14 27  1  0  0  0  0
M  CHG  1  10  -1
M  END
> <s_m_source_file>
AV-unprocessed.smi

> <i_m_source_file_index>
1901

> <i_lp_mmshare_version>
43012

> <i_f3d_flags>
0

> <s_epik_input>
czFbY0hdW2NIXW5jMVtOSF1DKD1PKVtOSF1bQ0gyXVtDQEBIXTJbQ0gyXVtDSDJdT1tDSDJdMg==

> <s_epik_cmdline>
J2VwaWtfcHl0aG9uJywgJy1waCcsICc3LjAnLCAnLXRuJywgJzgnLCAnLW1hJywgJzIwMCcsICctbWV0YWxfYmluZGluZycsICctaW1hZScsICc8aW5maWxlLm1hZT4nLCAnLW9tYWUnLCAnPG91dGZpbGUubWFlPic=

> <r_lp_tautomer_probability>
0.999

> <r_epik_Ionization_Penalty>
8.4411

> <r_epik_Ionization_Penalty_Charging>
6.72681

> <r_epik_Ionization_Penalty_Neutral>
1.71429

> <r_epik_State_Penalty>
6.72698

> <r_epik_Charging_Adjusted_Penalty>
13.4538

> <i_epik_Tot_Q>
-1

> <i_epik_Tot_abs_Q>
1

> <r_epik_Metal_State_Penalty>
2.64812

> <b_epik_Metal_Only>
1

> <s_lp_Force_Field>
OPLS_2005

> <r_lp_Energy>
14.3262

> <b_lp_Chiralities_Consistent>
1

> <s_lp_Variant>
AV-unprocessed.smi:1901-4

> <Gold.Version>
5.8.1

> <Gold.Id.Protein>
6NUR|6NUR_protein|mol2

> <Gold.PLP.Fitness>
44.6744

> <Gold.PLP.PLP>
-36.0778

> <Gold.PLP.part.hbond>
-1.0000

> <Gold.PLP.part.metal>
0.0000

> <Gold.PLP.part.buried>
-4.4396

> <Gold.PLP.part.nonpolar>
-30.2225

> <Gold.PLP.part.repulsive>
0.2511

> <Gold.PLP.ligand.clash>
0.0000

> <Gold.PLP.ligand.torsion>
0.3639

> <Gold.PLP.Chemscore.Hbond>
2.0000

> <Gold.PLP.Chemscore.CHOScore>
1.1060

> <Gold.PLP.Chemscore.Metal>
0.0000

> <Gold.Chemscore.Hbonds>
donor molecule, donor type, donor heavy atom, donor atom, acceptor molecule, acceptor atom, score
      P1  H  7997  8010       L1    10  2.00
      L1  C    14    27       P1  7948  0.26
      L1  C    14    27       P1  7949  0.50
      L1  C    14    27       P1  7957  0.13

> <Gold.PLP.Chemscore.Internal.Correction>
0.0063

> <Gold.Rescore>
     Score         DG    S(hbond)    S(metal)    S(lipo)     H(rot)  DE(clash)    DE(int)     intcor
     12.81     -14.76       0.93        0.00      81.08       1.30       0.00       1.95       ----

> <Gold.Chemscore.Fitness>
12.8126

> <Gold.Chemscore.DG>
-14.7577

> <Gold.Chemscore.ZeroCoef>
-5.4800

> <Gold.Chemscore.Hbond>
0.9340

> <Gold.Chemscore.Metal>
0.0000

> <Gold.Chemscore.Lipo>
81.0781

> <Gold.Chemscore.Internal_Hbond>
0.0000

> <Gold.Chemscore.DEClash>
0.0000

> <Gold.Chemscore.DEInternal>
1.9451

> <Gold.Chemscore.Rot>
1.3000

> <Gold.Chemscore.Internal.Correction>
   9.000000E+99

> <Gold.Chemscore.Hbonds>
donor molecule, donor type, donor heavy atom, donor atom, acceptor molecule, acceptor atom, score
      P1  H  7997  8010       L1    10  0.58

> <Gold.Chemscore.Hbond.Weighted>
-3.1195

> <Gold.Chemscore.Metal.Weighted>
-0.0000

> <Gold.Chemscore.Lipo.Weighted>
-9.4861

> <Gold.Chemscore.Internal_Hbond.Weighted>
0.0000

> <Gold.Chemscore.DEClash.Weighted>
0.0000

> <Gold.Chemscore.DEInternal.Weighted>
1.9451

> <Gold.Chemscore.Rot.Weighted>
3.3280

> <Gold.Chemscore.Internal.Correction.Weighted>
   9.000000E+99

> <Gold.Protein.RotatedTorsions>
[ 6907 6896 6895 6894 ] final  -25.62 input  -60.11 | X-H torsion
[ 7974 7965 7964 7962 ] final  150.16 input  175.53 | X-H torsion
[ 8008 7997 7996 7995 ] final   77.39 input   59.86 | X-H torsion
[ 10167 10162 10161 10158 ] final  -71.43 input  -65.29 | X-H torsion
[ 10718 10713 10712 10709 ] final    6.79 input   66.30 | X-H torsion
[ 10763 10752 10751 10750 ] final -177.59 input  -60.55 | X-H torsion
[ 11005 11000 10999 10996 ] final   55.12 input  -57.11 | X-H torsion

> <Gold.Protein.ActiveResidues>
 VAL166  LYS551  ARG553  GLY616  TRP617  ASP618  TYR619  PRO620  LYS621  CYS622 
 ASP623  PHE694  ASN695  SER759  ASP760  ASP761  ALA762  ILE779  LEU786  VAL792 
 PHE793  MET794  SER795  GLU796  ALA797  LYS798  CYS799  TRP800  GLU811  SER814 

> <Gold.Protein.RotatedAtoms>
  151.1726  135.0324  159.8757 H   0  0  0  0  0  0  0  0  0  0  0  0  # atno 6907 bound_to 6896
  152.5448  134.1154  159.8386 H   0  0  0  0  0  0  0  0  0  0  0  0  # atno 6908 bound_to 6896
  151.1261  133.5023  159.2633 H   0  0  0  0  0  0  0  0  0  0  0  0  # atno 6909 bound_to 6896
  144.8384  139.6373  143.6027 H   0  0  0  0  0  0  0  0  0  0  0  0  # atno 7974 bound_to 7965
  155.8409  140.3462  155.5631 H   0  0  0  0  0  0  0  0  0  0  0  0  # atno 8008 bound_to 7997
  155.8142  140.0903  157.1906 H   0  0  0  0  0  0  0  0  0  0  0  0  # atno 8009 bound_to 7997
  154.4005  140.1442  156.3410 H   0  0  0  0  0  0  0  0  0  0  0  0  # atno 8010 bound_to 7997
  140.5273  143.2325  151.7324 H   0  0  0  0  0  0  0  0  0  0  0  0  # atno 10167 bound_to 10162
  156.9274  130.5813  149.5649 H   0  0  0  0  0  0  0  0  0  0  0  0  # atno 10718 bound_to 10713
  154.5582  135.2818  155.0944 H   0  0  0  0  0  0  0  0  0  0  0  0  # atno 10763 bound_to 10752
  154.2363  135.6365  153.5196 H   0  0  0  0  0  0  0  0  0  0  0  0  # atno 10764 bound_to 10752
  153.0022  135.5549  154.6169 H   0  0  0  0  0  0  0  0  0  0  0  0  # atno 10765 bound_to 10752
  140.0632  134.5573  155.9129 H   0  0  0  0  0  0  0  0  0  0  0  0  # atno 11005 bound_to 11000
  146.2680  139.6567  142.9316 LP  0  0  0  0  0  0  0  0  0  0  0  0  # atno 17320 bound_to 7965
  145.4745  141.0437  143.2680 LP  0  0  0  0  0  0  0  0  0  0  0  0  # atno 17321 bound_to 7965
  139.4942  144.4166  152.0023 LP  0  0  0  0  0  0  0  0  0  0  0  0  # atno 17342 bound_to 10162
  140.3266  144.3366  150.5997 LP  0  0  0  0  0  0  0  0  0  0  0  0  # atno 17343 bound_to 10162
  156.0463  130.5539  150.8887 LP  0  0  0  0  0  0  0  0  0  0  0  0  # atno 17370 bound_to 10713
  157.5869  131.0945  150.9182 LP  0  0  0  0  0  0  0  0  0  0  0  0  # atno 17371 bound_to 10713
  141.1982  133.6600  156.5779 LP  0  0  0  0  0  0  0  0  0  0  0  0  # atno 17394 bound_to 11000
  140.3739  134.7582  157.4616 LP  0  0  0  0  0  0  0  0  0  0  0  0  # atno 17395 bound_to 11000

$$$$
