AV-unprocessed.smi:2448|AV-procd|sdf|9657|dock2
  -GOLD-   2272013293D 1   1.00000     0.00000
 Structure written by MMmdl.
 38 39  0  0  0  0  0  0  0  0  2 V2000
  153.0969  139.3224  156.5082 O   0  0  0  0  0  0  0  0  0  0  0  0
  151.7866  139.6581  156.9321 C   0  0  1  0  0  0  0  0  0  0  0  0
  151.9009  140.6904  158.0720 C   0  0  0  0  0  0  0  0  0  0  0  0
  152.6178  140.1328  159.2409 N   0  3  0  0  0  0  0  0  0  0  0  0
  153.7856  140.9108  159.7168 C   0  0  1  0  0  0  0  0  0  0  0  0
  153.3519  141.9354  160.7942 C   0  0  0  0  0  0  0  0  0  0  0  0
  152.6102  143.1412  160.2464 C   0  0  0  0  0  0  0  0  0  0  0  0
  152.6881  143.4750  158.8783 C   0  0  0  0  0  0  0  0  0  0  0  0
  151.9752  144.6009  158.4197 C   0  0  0  0  0  0  0  0  0  0  0  0
  151.2210  145.3791  159.2252 N   0  0  0  0  0  0  0  0  0  0  0  0
  151.1545  145.0565  160.5346 C   0  0  0  0  0  0  0  0  0  0  0  0
  151.8277  143.9521  161.0948 C   0  0  0  0  0  0  0  0  0  0  0  0
  154.8805  139.9299  160.1965 C   0  0  0  0  0  0  0  0  0  0  0  0
  155.1885  139.0923  159.2055 F   0  0  0  0  0  0  0  0  0  0  0  0
  155.9956  140.5702  160.5448 F   0  0  0  0  0  0  0  0  0  0  0  0
  154.4428  139.2177  161.2350 F   0  0  0  0  0  0  0  0  0  0  0  0
  151.0266  140.2160  155.7173 C   0  0  0  0  0  0  0  0  0  0  0  0
  150.6930  139.0410  154.7925 C   0  0  0  0  0  0  0  0  0  0  0  0
  150.3822  137.5965  155.8379 S   0  0  0  0  0  0  0  0  0  0  0  0
  151.0326  138.3784  157.3382 C   0  0  0  0  0  0  0  0  0  0  0  0
  153.0401  138.8367  155.6991 H   0  0  0  0  0  0  0  0  0  0  0  0
  152.4240  141.5790  157.7157 H   0  0  0  0  0  0  0  0  0  0  0  0
  150.9041  141.0104  158.3755 H   0  0  0  0  0  0  0  0  0  0  0  0
  151.9699  140.0102  160.0060 H   0  0  0  0  0  0  0  0  0  0  0  0
  154.1908  141.4517  158.8603 H   0  0  0  0  0  0  0  0  0  0  0  0
  152.6957  141.4644  161.5260 H   0  0  0  0  0  0  0  0  0  0  0  0
  154.2252  142.2768  161.3518 H   0  0  0  0  0  0  0  0  0  0  0  0
  153.2751  142.8835  158.1909 H   0  0  0  0  0  0  0  0  0  0  0  0
  152.0114  144.8826  157.3776 H   0  0  0  0  0  0  0  0  0  0  0  0
  150.5454  145.6973  161.1548 H   0  0  0  0  0  0  0  0  0  0  0  0
  151.7403  143.7361  162.1494 H   0  0  0  0  0  0  0  0  0  0  0  0
  150.0932  140.6709  156.0523 H   0  0  0  0  0  0  0  0  0  0  0  0
  151.5862  140.9936  155.1957 H   0  0  0  0  0  0  0  0  0  0  0  0
  149.8372  139.2521  154.1509 H   0  0  0  0  0  0  0  0  0  0  0  0
  151.5433  138.8174  154.1473 H   0  0  0  0  0  0  0  0  0  0  0  0
  151.6546  137.6821  157.9023 H   0  0  0  0  0  0  0  0  0  0  0  0
  150.1770  138.6313  157.9654 H   0  0  0  0  0  0  0  0  0  0  0  0
  152.9573  139.2211  158.9670 H   0  0  0  0  0  0  0  0  0  0  0  0
  1  2  1  0  0  0  0
  1 21  1  0  0  0  0
  2 20  1  0  0  0  0
  2  3  1  0  0  0  0
  2 17  1  0  0  0  0
  3  4  1  0  0  0  0
  3 22  1  0  0  0  0
  3 23  1  0  0  0  0
  4  5  1  0  0  0  0
  4 24  1  0  0  0  0
  4 38  1  0  0  0  0
  5  6  1  0  0  0  0
  5 13  1  0  0  0  0
  5 25  1  0  0  0  0
  6  7  1  0  0  0  0
  6 26  1  0  0  0  0
  6 27  1  0  0  0  0
  7 12  1  0  0  0  0
  7  8  2  0  0  0  0
  8  9  1  0  0  0  0
  8 28  1  0  0  0  0
  9 10  2  0  0  0  0
  9 29  1  0  0  0  0
 10 11  1  0  0  0  0
 11 12  2  0  0  0  0
 11 30  1  0  0  0  0
 12 31  1  0  0  0  0
 13 14  1  0  0  0  0
 13 15  1  0  0  0  0
 13 16  1  0  0  0  0
 17 18  1  0  0  0  0
 17 32  1  0  0  0  0
 17 33  1  0  0  0  0
 18 19  1  0  0  0  0
 18 34  1  0  0  0  0
 18 35  1  0  0  0  0
 19 20  1  0  0  0  0
 20 36  1  0  0  0  0
 20 37  1  0  0  0  0
M  CHG  1   4   1
M  END
> <s_m_source_file>
AV-unprocessed.smi

> <i_m_source_file_index>
2448

> <i_lp_mmshare_version>
43012

> <i_f3d_flags>
0

> <s_epik_input>
W0NIMl0xU1tDSDJdW0NIMl1bQ0BAXTEoW09IXSlbQ0gyXVtOSF1bQ0BASF0oQyhGKShGKUYpW0NIMl1jMltjSF1bY0hdbltjSF1bY0hdMg==

> <s_epik_cmdline>
J2VwaWtfcHl0aG9uJywgJy1waCcsICc3LjAnLCAnLXRuJywgJzgnLCAnLW1hJywgJzIwMCcsICctbWV0YWxfYmluZGluZycsICctaW1hZScsICc8aW5maWxlLm1hZT4nLCAnLW9tYWUnLCAnPG91dGZpbGUubWFlPic=

> <r_epik_Ionization_Penalty>
1.19945

> <r_epik_Ionization_Penalty_Charging>
1.19892

> <r_epik_Ionization_Penalty_Neutral>
0.000532129

> <r_epik_State_Penalty>
0.752927

> <r_epik_Charging_Adjusted_Penalty>
1.95185

> <i_epik_Tot_Q>
1

> <i_epik_Tot_abs_Q>
1

> <r_epik_Metal_State_Penalty>
0.804507

> <b_epik_Metal_Only>
0

> <s_lp_Force_Field>
OPLS_2005

> <r_lp_Energy>
21.3844

> <b_lp_Chiralities_Consistent>
1

> <s_lp_Variant>
AV-unprocessed.smi:2448-7

> <Gold.Version>
5.8.1

> <Gold.Id.Protein>
6NUR|6NUR_protein|mol2

> <Gold.PLP.Fitness>
47.3720

> <Gold.PLP.PLP>
-45.9442

> <Gold.PLP.part.hbond>
-1.8918

> <Gold.PLP.part.metal>
0.0000

> <Gold.PLP.part.buried>
-4.0442

> <Gold.PLP.part.nonpolar>
-40.4691

> <Gold.PLP.part.repulsive>
0.2400

> <Gold.PLP.ligand.clash>
0.0000

> <Gold.PLP.ligand.torsion>
1.1979

> <Gold.PLP.Chemscore.Hbond>
1.0000

> <Gold.PLP.Chemscore.CHOScore>
0.0000

> <Gold.PLP.Chemscore.Metal>
0.0000

> <Gold.Chemscore.Hbonds>
donor molecule, donor type, donor heavy atom, donor atom, acceptor molecule, acceptor atom, score
      P1  H  7997  8008       L1     1  0.84

> <Gold.PLP.Chemscore.Internal.Correction>
0.8237

> <Gold.Rescore>
     Score         DG    S(hbond)    S(metal)    S(lipo)     H(rot)  DE(clash)    DE(int)     intcor
     15.74     -17.13       0.99        0.00     123.51       2.39       0.04       1.35       ----

> <Gold.Chemscore.Fitness>
15.7375

> <Gold.Chemscore.DG>
-17.1255

> <Gold.Chemscore.ZeroCoef>
-5.4800

> <Gold.Chemscore.Hbond>
0.9894

> <Gold.Chemscore.Metal>
0.0000

> <Gold.Chemscore.Lipo>
123.5089

> <Gold.Chemscore.Internal_Hbond>
0.0000

> <Gold.Chemscore.DEClash>
0.0415

> <Gold.Chemscore.DEInternal>
1.3465

> <Gold.Chemscore.Rot>
2.3866

> <Gold.Chemscore.Internal.Correction>
   9.000000E+99

> <Gold.Chemscore.Hbonds>
donor molecule, donor type, donor heavy atom, donor atom, acceptor molecule, acceptor atom, score
      P1  H  7997  8008       L1     1  0.45

> <Gold.Chemscore.Hbond.Weighted>
-3.3046

> <Gold.Chemscore.Metal.Weighted>
-0.0000

> <Gold.Chemscore.Lipo.Weighted>
-14.4505

> <Gold.Chemscore.Internal_Hbond.Weighted>
0.0000

> <Gold.Chemscore.DEClash.Weighted>
0.0415

> <Gold.Chemscore.DEInternal.Weighted>
1.3465

> <Gold.Chemscore.Rot.Weighted>
6.1096

> <Gold.Chemscore.Internal.Correction.Weighted>
   9.000000E+99

> <Gold.Protein.RotatedTorsions>
[ 6907 6896 6895 6894 ] final  -26.51 input  -60.11 | X-H torsion
[ 7974 7965 7964 7962 ] final   72.69 input  175.53 | X-H torsion
[ 8008 7997 7996 7995 ] final  -48.56 input   59.86 | X-H torsion
[ 10167 10162 10161 10158 ] final -175.35 input  -65.29 | X-H torsion
[ 10718 10713 10712 10709 ] final   -4.63 input   66.30 | X-H torsion
[ 10763 10752 10751 10750 ] final  137.49 input  -60.55 | X-H torsion
[ 11005 11000 10999 10996 ] final  -41.61 input  -57.11 | X-H torsion

> <Gold.Protein.ActiveResidues>
 VAL166  LYS551  ARG553  GLY616  TRP617  ASP618  TYR619  PRO620  LYS621  CYS622 
 ASP623  PHE694  ASN695  SER759  ASP760  ASP761  ALA762  ILE779  LEU786  VAL792 
 PHE793  MET794  SER795  GLU796  ALA797  LYS798  CYS799  TRP800  GLU811  SER814 

> <Gold.Protein.RotatedAtoms>
  151.1600  135.0268  159.8705 H   0  0  0  0  0  0  0  0  0  0  0  0  # atno 6907 bound_to 6896
  152.5451  134.1290  159.8441 H   0  0  0  0  0  0  0  0  0  0  0  0  # atno 6908 bound_to 6896
  151.1385  133.4942  159.2630 H   0  0  0  0  0  0  0  0  0  0  0  0  # atno 6909 bound_to 6896
  145.7502  139.2757  143.1436 H   0  0  0  0  0  0  0  0  0  0  0  0  # atno 7974 bound_to 7965
  154.4031  140.1318  156.4358 H   0  0  0  0  0  0  0  0  0  0  0  0  # atno 8008 bound_to 7997
  155.7506  140.3488  155.5128 H   0  0  0  0  0  0  0  0  0  0  0  0  # atno 8009 bound_to 7997
  155.8953  140.1010  157.1379 H   0  0  0  0  0  0  0  0  0  0  0  0  # atno 8010 bound_to 7997
  139.5586  144.1927  152.1201 H   0  0  0  0  0  0  0  0  0  0  0  0  # atno 10167 bound_to 10162
  156.7584  130.5262  149.5790 H   0  0  0  0  0  0  0  0  0  0  0  0  # atno 10718 bound_to 10713
  153.8740  135.3052  155.3443 H   0  0  0  0  0  0  0  0  0  0  0  0  # atno 10763 bound_to 10752
  154.7792  135.4844  153.9812 H   0  0  0  0  0  0  0  0  0  0  0  0  # atno 10764 bound_to 10752
  153.1390  135.6820  153.9154 H   0  0  0  0  0  0  0  0  0  0  0  0  # atno 10765 bound_to 10752
  141.0258  133.6842  156.2481 H   0  0  0  0  0  0  0  0  0  0  0  0  # atno 11005 bound_to 11000
  146.0364  140.8208  142.9850 LP  0  0  0  0  0  0  0  0  0  0  0  0  # atno 17320 bound_to 7965
  144.6851  140.2845  143.7287 LP  0  0  0  0  0  0  0  0  0  0  0  0  # atno 17321 bound_to 7965
  140.1436  144.5179  150.6729 LP  0  0  0  0  0  0  0  0  0  0  0  0  # atno 17342 bound_to 10162
  140.6862  143.2351  151.5253 LP  0  0  0  0  0  0  0  0  0  0  0  0  # atno 17343 bound_to 10162
  156.1355  130.6208  151.0394 LP  0  0  0  0  0  0  0  0  0  0  0  0  # atno 17370 bound_to 10713
  157.6746  131.0853  150.7528 LP  0  0  0  0  0  0  0  0  0  0  0  0  # atno 17371 bound_to 10713
  140.6494  134.5083  157.5576 LP  0  0  0  0  0  0  0  0  0  0  0  0  # atno 17394 bound_to 11000
  139.9175  134.8216  156.1318 LP  0  0  0  0  0  0  0  0  0  0  0  0  # atno 17395 bound_to 11000

$$$$
