AV-unprocessed.smi:779|AV-procd|sdf|3705|dock3
  -GOLD-   22720 1123D 1   1.00000     0.00000
 Structure written by MMmdl.
 20 20  0  0  0  0  0  0  0  0  3 V2000
  148.9435  135.6217  159.3313 O   0  0  0  0  0  0  0  0  0  0  0  0
  148.7988  136.8397  159.5815 C   0  0  0  0  0  0  0  0  0  0  0  0
  147.9951  137.3175  160.4132 O   0  5  0  0  0  0  0  0  0  0  0  0
  149.7538  137.8106  158.7611 C   0  0  0  0  0  0  0  0  0  0  0  0
  149.3109  138.6794  157.8273 C   0  0  0  0  0  0  0  0  0  0  0  0
  150.1748  139.5167  157.1042 N   0  0  0  0  0  0  0  0  0  0  0  0
  149.5749  140.4131  156.1069 C   0  0  0  0  0  0  0  0  0  0  0  0
  149.4046  139.7041  154.7542 C   0  0  0  0  0  0  0  0  0  0  0  0
  149.6135  140.6198  153.7007 O   0  0  0  0  0  0  0  0  0  0  0  0
  151.5202  139.4571  157.3182 C   0  0  0  0  0  0  0  0  0  0  0  0
  152.2624  140.1826  156.6541 O   0  0  0  0  0  0  0  0  0  0  0  0
  151.9983  138.5906  158.2615 N   0  5  0  0  0  0  0  0  0  0  0  0
  151.2116  137.7604  159.0096 C   0  0  0  0  0  0  0  0  0  0  0  0
  151.7180  137.0160  159.8489 O   0  0  0  0  0  0  0  0  0  0  0  0
  148.2669  138.7807  157.5686 H   0  0  0  0  0  0  0  0  0  0  0  0
  148.6050  140.7651  156.4619 H   0  0  0  0  0  0  0  0  0  0  0  0
  150.1784  141.3147  155.9880 H   0  0  0  0  0  0  0  0  0  0  0  0
  150.1127  138.8808  154.6550 H   0  0  0  0  0  0  0  0  0  0  0  0
  148.4018  139.2856  154.6635 H   0  0  0  0  0  0  0  0  0  0  0  0
  149.4144  140.1858  152.8854 H   0  0  0  0  0  0  0  0  0  0  0  0
  1  2  2  0  0  0  0
  2  3  1  0  0  0  0
  2  4  1  0  0  0  0
  4 13  1  0  0  0  0
  4  5  2  0  0  0  0
  5  6  1  0  0  0  0
  5 15  1  0  0  0  0
  6  7  1  0  0  0  0
  6 10  1  0  0  0  0
  7  8  1  0  0  0  0
  7 16  1  0  0  0  0
  7 17  1  0  0  0  0
  8  9  1  0  0  0  0
  8 18  1  0  0  0  0
  8 19  1  0  0  0  0
  9 20  1  0  0  0  0
 10 11  2  0  0  0  0
 10 12  1  0  0  0  0
 12 13  1  0  0  0  0
 13 14  2  0  0  0  0
M  CHG  1   3  -1
M  CHG  1  12  -1
M  END
> <s_m_source_file>
AV-unprocessed.smi

> <i_m_source_file_index>
779

> <i_lp_mmshare_version>
43012

> <i_f3d_flags>
0

> <s_epik_input>
Tz1DKFtPSF0pYzFbY0hdbihbQ0gyXVtDSDJdW09IXSljKD1PKVtuSF1jMT1P

> <s_epik_cmdline>
J2VwaWtfcHl0aG9uJywgJy1waCcsICc3LjAnLCAnLXRuJywgJzgnLCAnLW1hJywgJzIwMCcsICctbWV0YWxfYmluZGluZycsICctaW1hZScsICc8aW5maWxlLm1hZT4nLCAnLW9tYWUnLCAnPG91dGZpbGUubWFlPic=

> <r_lp_tautomer_probability>
1

> <r_epik_Ionization_Penalty>
3.89082

> <r_epik_Ionization_Penalty_Charging>
0.00124607

> <r_epik_Ionization_Penalty_Neutral>
3.88958

> <r_epik_State_Penalty>
3.88874

> <r_epik_Charging_Adjusted_Penalty>
3.88999

> <i_epik_Tot_Q>
-2

> <i_epik_Tot_abs_Q>
2

> <r_epik_Metal_State_Penalty>
0.317414

> <b_epik_Metal_Only>
1

> <s_lp_Force_Field>
OPLS_2005

> <r_lp_Energy>
29.4188

> <b_lp_Chiralities_Consistent>
1

> <s_lp_Variant>
AV-unprocessed.smi:779-2

> <Gold.Version>
5.8.1

> <Gold.Id.Protein>
6NUR|6NUR_protein|mol2

> <Gold.PLP.Fitness>
38.6888

> <Gold.PLP.PLP>
-18.5143

> <Gold.PLP.part.hbond>
-7.3775

> <Gold.PLP.part.metal>
0.0000

> <Gold.PLP.part.buried>
-3.4867

> <Gold.PLP.part.nonpolar>
-8.9904

> <Gold.PLP.part.repulsive>
0.0000

> <Gold.PLP.ligand.clash>
0.0000

> <Gold.PLP.ligand.torsion>
1.8717

> <Gold.PLP.Chemscore.Hbond>
7.9715

> <Gold.PLP.Chemscore.CHOScore>
0.0000

> <Gold.PLP.Chemscore.Metal>
0.0000

> <Gold.Chemscore.Hbonds>
donor molecule, donor type, donor heavy atom, donor atom, acceptor molecule, acceptor atom, score
      L1  H     9    20       P1  7957  1.00
      P1  H  6896  6908       L1     1  1.79
      P1  H  6896  6909       L1    14  0.45
      P1  H  6931  6943       L1     3  1.33
      P1  H  6934  6947       L1     3  1.47
      P1  H  7989  7998       L1     9  0.47
      P1  H  7997  8008       L1    11  0.86
      P1  H  8011  8017       L1     9  0.04

> <Gold.PLP.Chemscore.Internal.Correction>
0.0034

> <Gold.Rescore>
     Score         DG    S(hbond)    S(metal)    S(lipo)     H(rot)  DE(clash)    DE(int)     intcor
     15.45     -17.40       4.68        0.00      15.59       2.17       0.01       1.94       ----

> <Gold.Chemscore.Fitness>
15.4462

> <Gold.Chemscore.DG>
-17.3975

> <Gold.Chemscore.ZeroCoef>
-5.4800

> <Gold.Chemscore.Hbond>
4.6828

> <Gold.Chemscore.Metal>
0.0000

> <Gold.Chemscore.Lipo>
15.5860

> <Gold.Chemscore.Internal_Hbond>
0.0000

> <Gold.Chemscore.DEClash>
0.0102

> <Gold.Chemscore.DEInternal>
1.9411

> <Gold.Chemscore.Rot>
2.1667

> <Gold.Chemscore.Internal.Correction>
   9.000000E+99

> <Gold.Chemscore.Hbonds>
donor molecule, donor type, donor heavy atom, donor atom, acceptor molecule, acceptor atom, score
      L1  H     9    20       P1  7957  0.94
      P1  H  6896  6908       L1     1  0.83
      P1  H  6896  6909       L1    14  0.44
      P1  H  6931  6943       L1     3  0.44
      P1  H  6934  6947       L1     3  0.73
      P1  H  7989  7998       L1     9  0.07
      P1  H  7997  8008       L1    11  0.82

> <Gold.Chemscore.Hbond.Weighted>
-15.6406

> <Gold.Chemscore.Metal.Weighted>
-0.0000

> <Gold.Chemscore.Lipo.Weighted>
-1.8236

> <Gold.Chemscore.Internal_Hbond.Weighted>
0.0000

> <Gold.Chemscore.DEClash.Weighted>
0.0102

> <Gold.Chemscore.DEInternal.Weighted>
1.9411

> <Gold.Chemscore.Rot.Weighted>
5.5467

> <Gold.Chemscore.Internal.Correction.Weighted>
   9.000000E+99

> <Gold.Protein.RotatedTorsions>
[ 6907 6896 6895 6894 ] final  159.12 input  -60.11 | X-H torsion
[ 7974 7965 7964 7962 ] final  147.15 input  175.53 | X-H torsion
[ 8008 7997 7996 7995 ] final  -50.77 input   59.86 | X-H torsion
[ 10167 10162 10161 10158 ] final  117.44 input  -65.29 | X-H torsion
[ 10718 10713 10712 10709 ] final -143.32 input   66.30 | X-H torsion
[ 10763 10752 10751 10750 ] final   95.11 input  -60.55 | X-H torsion
[ 11005 11000 10999 10996 ] final -120.33 input  -57.11 | X-H torsion

> <Gold.Protein.ActiveResidues>
 VAL166  LYS551  ARG553  GLY616  TRP617  ASP618  TYR619  PRO620  LYS621  CYS622 
 ASP623  PHE694  ASN695  SER759  ASP760  ASP761  ALA762  ILE779  LEU786  VAL792 
 PHE793  MET794  SER795  GLU796  ALA797  LYS798  CYS799  TRP800  GLU811  SER814 

> <Gold.Protein.RotatedAtoms>
  151.9903  133.3789  159.4141 H   0  0  0  0  0  0  0  0  0  0  0  0  # atno 6907 bound_to 6896
  150.6922  134.3943  159.5100 H   0  0  0  0  0  0  0  0  0  0  0  0  # atno 6908 bound_to 6896
  152.1676  134.8861  160.0587 H   0  0  0  0  0  0  0  0  0  0  0  0  # atno 6909 bound_to 6896
  144.8614  139.5993  143.5929 H   0  0  0  0  0  0  0  0  0  0  0  0  # atno 7974 bound_to 7965
  154.4069  140.1264  156.4720 H   0  0  0  0  0  0  0  0  0  0  0  0  # atno 8008 bound_to 7997
  155.7170  140.3493  155.4979 H   0  0  0  0  0  0  0  0  0  0  0  0  # atno 8009 bound_to 7997
  155.9249  140.1059  157.1168 H   0  0  0  0  0  0  0  0  0  0  0  0  # atno 8010 bound_to 7997
  139.6178  144.7095  151.2700 H   0  0  0  0  0  0  0  0  0  0  0  0  # atno 10167 bound_to 10162
  156.3565  130.7715  151.1876 H   0  0  0  0  0  0  0  0  0  0  0  0  # atno 10718 bound_to 10713
  153.2493  135.4266  155.0781 H   0  0  0  0  0  0  0  0  0  0  0  0  # atno 10763 bound_to 10752
  154.8375  135.3422  154.6535 H   0  0  0  0  0  0  0  0  0  0  0  0  # atno 10764 bound_to 10752
  153.6957  135.7031  153.5134 H   0  0  0  0  0  0  0  0  0  0  0  0  # atno 10765 bound_to 10752
  141.0151  134.0207  157.3360 H   0  0  0  0  0  0  0  0  0  0  0  0  # atno 11005 bound_to 11000
  146.2863  139.7014  142.9193 LP  0  0  0  0  0  0  0  0  0  0  0  0  # atno 17320 bound_to 7965
  145.4304  141.0414  143.2913 LP  0  0  0  0  0  0  0  0  0  0  0  0  # atno 17321 bound_to 7965
  140.7362  143.6713  150.8079 LP  0  0  0  0  0  0  0  0  0  0  0  0  # atno 17342 bound_to 10162
  140.0319  143.5435  152.2756 LP  0  0  0  0  0  0  0  0  0  0  0  0  # atno 17343 bound_to 10162
  157.7468  131.0412  150.4637 LP  0  0  0  0  0  0  0  0  0  0  0  0  # atno 17370 bound_to 10713
  156.4840  130.4080  149.6445 LP  0  0  0  0  0  0  0  0  0  0  0  0  # atno 17371 bound_to 10713
  139.9112  135.0190  156.7700 LP  0  0  0  0  0  0  0  0  0  0  0  0  # atno 17394 bound_to 11000
  140.6668  133.9595  155.7834 LP  0  0  0  0  0  0  0  0  0  0  0  0  # atno 17395 bound_to 11000

$$$$
