AV-unprocessed.smi:2502|AV-procd|sdf|9846|dock9
  -GOLD-   2272013473D 1   1.00000     0.00000
 Structure written by MMmdl.
 39 41  0  0  0  0  0  0  0  0  1 V2000
  155.4534  140.0291  159.8351 O   0  0  0  0  0  0  0  0  0  0  0  0
  154.4312  139.8951  160.8044 C   0  0  1  0  0  0  0  0  0  0  0  0
  153.8556  141.2884  161.1027 C   0  0  0  0  0  0  0  0  0  0  0  0
  153.0931  141.7188  159.9841 O   0  0  0  0  0  0  0  0  0  0  0  0
  152.8656  143.1211  159.9264 C   0  0  0  0  0  0  0  0  0  0  0  0
  151.7355  143.5511  160.8780 C   0  0  0  0  0  0  0  0  0  0  0  0
  151.3746  145.0284  160.6509 C   0  0  0  0  0  0  0  0  0  0  0  0
  151.0145  145.2413  159.2897 O   0  0  0  0  0  0  0  0  0  0  0  0
  152.0743  144.9557  158.3825 C   0  0  0  0  0  0  0  0  0  0  0  0
  152.4678  143.4736  158.4873 C   0  0  0  0  0  0  0  0  0  0  0  0
  153.3549  138.9317  160.2661 C   0  0  0  0  0  0  0  0  0  0  0  0
  153.6244  137.5458  160.6077 N   0  0  0  0  0  0  0  0  0  0  0  0
  153.7037  136.6165  159.6135 N   0  0  0  0  0  0  0  0  0  0  0  0
  153.9473  135.4566  160.1464 N   0  0  0  0  0  0  0  0  0  0  0  0
  154.0298  135.6242  161.5186 C   0  0  0  0  0  0  0  0  0  0  0  0
  154.2725  134.7085  162.5665 C   0  0  0  0  0  0  0  0  0  0  0  0
  154.3028  135.1496  163.9077 C   0  0  0  0  0  0  0  0  0  0  0  0
  154.6017  133.9988  165.1613 Cl  0  0  0  0  0  0  0  0  0  0  0  0
  154.0898  136.5152  164.2157 C   0  0  0  0  0  0  0  0  0  0  0  0
  154.1215  137.0710  165.8512 Cl  0  0  0  0  0  0  0  0  0  0  0  0
  153.8477  137.4400  163.1804 C   0  0  0  0  0  0  0  0  0  0  0  0
  153.8225  136.9803  161.8525 C   0  0  0  0  0  0  0  0  0  0  0  0
  156.2592  139.6957  160.1992 H   0  0  0  0  0  0  0  0  0  0  0  0
  154.8596  139.4765  161.7162 H   0  0  0  0  0  0  0  0  0  0  0  0
  153.2694  141.2787  162.0221 H   0  0  0  0  0  0  0  0  0  0  0  0
  154.6728  141.9963  161.2494 H   0  0  0  0  0  0  0  0  0  0  0  0
  153.7829  143.6595  160.1719 H   0  0  0  0  0  0  0  0  0  0  0  0
  150.8541  142.9321  160.7062 H   0  0  0  0  0  0  0  0  0  0  0  0
  152.0241  143.4034  161.9183 H   0  0  0  0  0  0  0  0  0  0  0  0
  150.5338  145.3100  161.2848 H   0  0  0  0  0  0  0  0  0  0  0  0
  152.2083  145.6778  160.9224 H   0  0  0  0  0  0  0  0  0  0  0  0
  151.7417  145.1843  157.3698 H   0  0  0  0  0  0  0  0  0  0  0  0
  152.9289  145.6014  158.5901 H   0  0  0  0  0  0  0  0  0  0  0  0
  153.2892  143.2534  157.8049 H   0  0  0  0  0  0  0  0  0  0  0  0
  151.6265  142.8535  158.1746 H   0  0  0  0  0  0  0  0  0  0  0  0
  152.3757  139.1978  160.6671 H   0  0  0  0  0  0  0  0  0  0  0  0
  153.2770  139.0144  159.1811 H   0  0  0  0  0  0  0  0  0  0  0  0
  154.4346  133.6652  162.3382 H   0  0  0  0  0  0  0  0  0  0  0  0
  153.6823  138.4840  163.4022 H   0  0  0  0  0  0  0  0  0  0  0  0
  1  2  1  0  0  0  0
  1 23  1  0  0  0  0
  2  3  1  0  0  0  0
  2 11  1  0  0  0  0
  2 24  1  0  0  0  0
  3  4  1  0  0  0  0
  3 25  1  0  0  0  0
  3 26  1  0  0  0  0
  4  5  1  0  0  0  0
  5 10  1  0  0  0  0
  5  6  1  0  0  0  0
  5 27  1  0  0  0  0
  6  7  1  0  0  0  0
  6 28  1  0  0  0  0
  6 29  1  0  0  0  0
  7  8  1  0  0  0  0
  7 30  1  0  0  0  0
  7 31  1  0  0  0  0
  8  9  1  0  0  0  0
  9 10  1  0  0  0  0
  9 32  1  0  0  0  0
  9 33  1  0  0  0  0
 10 34  1  0  0  0  0
 10 35  1  0  0  0  0
 11 12  1  0  0  0  0
 11 36  1  0  0  0  0
 11 37  1  0  0  0  0
 12 22  1  0  0  0  0
 12 13  1  0  0  0  0
 13 14  2  0  0  0  0
 14 15  1  0  0  0  0
 15 22  2  0  0  0  0
 15 16  1  0  0  0  0
 16 17  2  0  0  0  0
 16 38  1  0  0  0  0
 17 18  1  0  0  0  0
 17 19  1  0  0  0  0
 19 20  1  0  0  0  0
 19 21  2  0  0  0  0
 21 22  1  0  0  0  0
 21 39  1  0  0  0  0
M  END
> <s_m_source_file>
AV-unprocessed.smi

> <i_m_source_file_index>
2502

> <i_lp_mmshare_version>
43012

> <i_f3d_flags>
0

> <s_epik_input>
W2NIXTFjKENsKWMoQ2wpW2NIXWMoYzEyKW4obm4yKVtDSDJdW0NASF0oW09IXSlbQ0gyXU9bQ0hdM1tDSDJdW0NIMl1PW0NIMl1bQ0gyXTM=

> <s_epik_cmdline>
J2VwaWtfcHl0aG9uJywgJy1waCcsICc3LjAnLCAnLXRuJywgJzgnLCAnLW1hJywgJzIwMCcsICctbWV0YWxfYmluZGluZycsICctaW1hZScsICc8aW5maWxlLm1hZT4nLCAnLW9tYWUnLCAnPG91dGZpbGUubWFlPic=

> <r_lp_tautomer_probability>
1

> <r_epik_Ionization_Penalty>
2.65748e-06

> <r_epik_Ionization_Penalty_Charging>
0

> <r_epik_Ionization_Penalty_Neutral>
2.65748e-06

> <r_epik_State_Penalty>
-0

> <r_epik_Charging_Adjusted_Penalty>
0

> <i_epik_Tot_Q>
0

> <i_epik_Tot_abs_Q>
0

> <r_epik_Metal_State_Penalty>
-0

> <b_epik_Metal_Only>
0

> <s_lp_Force_Field>
OPLS_2005

> <r_lp_Energy>
14.648

> <b_lp_Chiralities_Consistent>
1

> <s_lp_Variant>
AV-unprocessed.smi:2502-2

> <Gold.Version>
5.8.1

> <Gold.Id.Protein>
6NUR|6NUR_protein|mol2

> <Gold.PLP.Fitness>
47.7739

> <Gold.PLP.PLP>
-43.1634

> <Gold.PLP.part.hbond>
-2.3741

> <Gold.PLP.part.metal>
0.0000

> <Gold.PLP.part.buried>
-2.7513

> <Gold.PLP.part.nonpolar>
-37.2941

> <Gold.PLP.part.repulsive>
0.1413

> <Gold.PLP.ligand.clash>
0.0000

> <Gold.PLP.ligand.torsion>
0.7035

> <Gold.PLP.Chemscore.Hbond>
2.0000

> <Gold.PLP.Chemscore.CHOScore>
0.0000

> <Gold.PLP.Chemscore.Metal>
0.0000

> <Gold.Chemscore.Hbonds>
donor molecule, donor type, donor heavy atom, donor atom, acceptor molecule, acceptor atom, score
      P1  H  6896  6909       L1    14  1.00

> <Gold.PLP.Chemscore.Internal.Correction>
0.0175

> <Gold.Rescore>
     Score         DG    S(hbond)    S(metal)    S(lipo)     H(rot)  DE(clash)    DE(int)     intcor
     19.13     -21.52       1.48        0.00     143.00       2.21       1.43       0.96       ----

> <Gold.Chemscore.Fitness>
19.1344

> <Gold.Chemscore.DG>
-21.5214

> <Gold.Chemscore.ZeroCoef>
-5.4800

> <Gold.Chemscore.Hbond>
1.4846

> <Gold.Chemscore.Metal>
0.0000

> <Gold.Chemscore.Lipo>
143.0033

> <Gold.Chemscore.Internal_Hbond>
0.0000

> <Gold.Chemscore.DEClash>
1.4300

> <Gold.Chemscore.DEInternal>
0.9570

> <Gold.Chemscore.Rot>
2.2065

> <Gold.Chemscore.Internal.Correction>
   9.000000E+99

> <Gold.Chemscore.Hbonds>
donor molecule, donor type, donor heavy atom, donor atom, acceptor molecule, acceptor atom, score
      P1  H  6896  6909       L1    14  0.08
      P1  H  7997  8008       L1     1  0.03

> <Gold.Chemscore.Hbond.Weighted>
-4.9586

> <Gold.Chemscore.Metal.Weighted>
-0.0000

> <Gold.Chemscore.Lipo.Weighted>
-16.7314

> <Gold.Chemscore.Internal_Hbond.Weighted>
0.0000

> <Gold.Chemscore.DEClash.Weighted>
1.4300

> <Gold.Chemscore.DEInternal.Weighted>
0.9570

> <Gold.Chemscore.Rot.Weighted>
5.6485

> <Gold.Chemscore.Internal.Correction.Weighted>
   9.000000E+99

> <Gold.Protein.RotatedTorsions>
[ 6907 6896 6895 6894 ] final  175.75 input  -60.11 | X-H torsion
[ 7974 7965 7964 7962 ] final  -71.34 input  175.53 | X-H torsion
[ 8008 7997 7996 7995 ] final -137.91 input   59.86 | X-H torsion
[ 10167 10162 10161 10158 ] final -170.05 input  -65.29 | X-H torsion
[ 10718 10713 10712 10709 ] final    2.95 input   66.30 | X-H torsion
[ 10763 10752 10751 10750 ] final   41.78 input  -60.55 | X-H torsion
[ 11005 11000 10999 10996 ] final  -72.34 input  -57.11 | X-H torsion

> <Gold.Protein.ActiveResidues>
 VAL166  LYS551  ARG553  GLY616  TRP617  ASP618  TYR619  PRO620  LYS621  CYS622 
 ASP623  PHE694  ASN695  SER759  ASP760  ASP761  ALA762  ILE779  LEU786  VAL792 
 PHE793  MET794  SER795  GLU796  ALA797  LYS798  CYS799  TRP800  GLU811  SER814 

> <Gold.Protein.RotatedAtoms>
  151.7312  133.3318  159.3340 H   0  0  0  0  0  0  0  0  0  0  0  0  # atno 6907 bound_to 6896
  150.7612  134.6361  159.6222 H   0  0  0  0  0  0  0  0  0  0  0  0  # atno 6908 bound_to 6896
  152.3590  134.6901  160.0264 H   0  0  0  0  0  0  0  0  0  0  0  0  # atno 6909 bound_to 6896
  145.6794  140.9193  143.0840 H   0  0  0  0  0  0  0  0  0  0  0  0  # atno 7974 bound_to 7965
  155.4196  140.0517  157.3026 H   0  0  0  0  0  0  0  0  0  0  0  0  # atno 8008 bound_to 7997
  154.4909  140.2119  155.9511 H   0  0  0  0  0  0  0  0  0  0  0  0  # atno 8009 bound_to 7997
  156.1340  140.3166  155.8397 H   0  0  0  0  0  0  0  0  0  0  0  0  # atno 8010 bound_to 7997
  139.5885  144.1265  152.1605 H   0  0  0  0  0  0  0  0  0  0  0  0  # atno 10167 bound_to 10162
  156.8706  130.5618  149.5657 H   0  0  0  0  0  0  0  0  0  0  0  0  # atno 10718 bound_to 10713
  152.9899  135.6151  154.2842 H   0  0  0  0  0  0  0  0  0  0  0  0  # atno 10763 bound_to 10752
  154.2570  135.2783  155.2795 H   0  0  0  0  0  0  0  0  0  0  0  0  # atno 10764 bound_to 10752
  154.5238  135.5807  153.6760 H   0  0  0  0  0  0  0  0  0  0  0  0  # atno 10765 bound_to 10752
  141.1607  133.6844  156.7045 H   0  0  0  0  0  0  0  0  0  0  0  0  # atno 11005 bound_to 11000
  144.7031  139.8676  143.7438 LP  0  0  0  0  0  0  0  0  0  0  0  0  # atno 17320 bound_to 7965
  146.0977  139.3971  143.0366 LP  0  0  0  0  0  0  0  0  0  0  0  0  # atno 17321 bound_to 7965
  140.0834  144.5681  150.7106 LP  0  0  0  0  0  0  0  0  0  0  0  0  # atno 17342 bound_to 10162
  140.7152  143.2539  151.4455 LP  0  0  0  0  0  0  0  0  0  0  0  0  # atno 17343 bound_to 10162
  156.0728  130.5757  150.9417 LP  0  0  0  0  0  0  0  0  0  0  0  0  # atno 17370 bound_to 10713
  157.6198  131.0930  150.8643 LP  0  0  0  0  0  0  0  0  0  0  0  0  # atno 17371 bound_to 10713
  140.2934  134.8222  157.4036 LP  0  0  0  0  0  0  0  0  0  0  0  0  # atno 17394 bound_to 11000
  140.1326  134.5075  155.8093 LP  0  0  0  0  0  0  0  0  0  0  0  0  # atno 17395 bound_to 11000

$$$$
