AV-unprocessed.smi:2661|AV-procd|sdf|10316|dock6
  -GOLD-   2272014333D 1   1.00000     0.00000
 Structure written by MMmdl.
 44 46  0  0  0  0  0  0  0  0  1 V2000
  146.0490  131.7530  151.8857 C   0  0  0  0  0  0  0  0  0  0  0  0
  146.9252  132.3324  152.8948 N   0  0  0  0  0  0  0  0  0  0  0  0
  148.0551  131.5936  153.4219 C   0  0  0  0  0  0  0  0  0  0  0  0
  148.8763  132.6478  154.1736 C   0  0  0  0  0  0  0  0  0  0  0  0
  147.9174  133.8201  154.4494 C   0  0  1  0  0  0  0  0  0  0  0  0
  148.5947  135.0933  154.2110 N   0  0  0  0  0  0  0  0  0  0  0  0
  148.9477  135.9698  155.1623 C   0  0  0  0  0  0  0  0  0  0  0  0
  148.7584  135.7799  156.3634 O   0  0  0  0  0  0  0  0  0  0  0  0
  149.5408  137.0514  154.6285 N   0  0  0  0  0  0  0  0  0  0  0  0
  150.0570  138.1968  155.2929 C   0  0  0  0  0  0  0  0  0  0  0  0
  150.1039  138.1795  156.7000 C   0  0  0  0  0  0  0  0  0  0  0  0
  150.6208  139.2941  157.3865 C   0  0  0  0  0  0  0  0  0  0  0  0
  151.0893  140.4046  156.6456 C   0  0  0  0  0  0  0  0  0  0  0  0
  151.6055  141.5376  157.3120 N   0  0  0  0  0  0  0  0  0  0  0  0
  151.7870  141.3959  158.7549 C   0  0  0  0  0  0  0  0  0  0  0  0
  152.6279  142.5600  159.3071 C   0  0  0  0  0  0  0  0  0  0  0  0
  152.0323  143.8011  158.9438 O   0  0  0  0  0  0  0  0  0  0  0  0
  151.9718  143.9645  157.5308 C   0  0  0  0  0  0  0  0  0  0  0  0
  151.1033  142.8530  156.9179 C   0  0  0  0  0  0  0  0  0  0  0  0
  151.0661  140.4106  155.2903 N   0  0  0  0  0  0  0  0  0  0  0  0
  150.5670  139.3411  154.6351 C   0  0  0  0  0  0  0  0  0  0  0  0
  146.8306  133.5648  153.4040 C   0  0  0  0  0  0  0  0  0  0  0  0
  145.9772  134.3995  153.1034 O   0  0  0  0  0  0  0  0  0  0  0  0
  146.1934  132.2518  150.9268 H   0  0  0  0  0  0  0  0  0  0  0  0
  145.0030  131.8595  152.1751 H   0  0  0  0  0  0  0  0  0  0  0  0
  146.2545  130.6906  151.7513 H   0  0  0  0  0  0  0  0  0  0  0  0
  147.6926  130.8202  154.1007 H   0  0  0  0  0  0  0  0  0  0  0  0
  148.6326  131.1156  152.6297 H   0  0  0  0  0  0  0  0  0  0  0  0
  149.3075  132.2482  155.0921 H   0  0  0  0  0  0  0  0  0  0  0  0
  149.7072  132.9672  153.5417 H   0  0  0  0  0  0  0  0  0  0  0  0
  147.4894  133.7516  155.4511 H   0  0  0  0  0  0  0  0  0  0  0  0
  148.7911  135.3300  153.2498 H   0  0  0  0  0  0  0  0  0  0  0  0
  149.6907  137.0272  153.6306 H   0  0  0  0  0  0  0  0  0  0  0  0
  149.7459  137.3229  157.2524 H   0  0  0  0  0  0  0  0  0  0  0  0
  150.6647  139.2776  158.4653 H   0  0  0  0  0  0  0  0  0  0  0  0
  150.8066  141.3855  159.2331 H   0  0  0  0  0  0  0  0  0  0  0  0
  152.2741  140.4564  159.0115 H   0  0  0  0  0  0  0  0  0  0  0  0
  152.6844  142.4991  160.3940 H   0  0  0  0  0  0  0  0  0  0  0  0
  153.6517  142.5114  158.9323 H   0  0  0  0  0  0  0  0  0  0  0  0
  151.5457  144.9418  157.3035 H   0  0  0  0  0  0  0  0  0  0  0  0
  152.9782  143.9499  157.1085 H   0  0  0  0  0  0  0  0  0  0  0  0
  151.1079  142.9497  155.8314 H   0  0  0  0  0  0  0  0  0  0  0  0
  150.0701  142.9603  157.2511 H   0  0  0  0  0  0  0  0  0  0  0  0
  150.6044  139.4160  153.5599 H   0  0  0  0  0  0  0  0  0  0  0  0
  1  2  1  0  0  0  0
  1 24  1  0  0  0  0
  1 25  1  0  0  0  0
  1 26  1  0  0  0  0
  2 22  1  0  0  0  0
  2  3  1  0  0  0  0
  3  4  1  0  0  0  0
  3 27  1  0  0  0  0
  3 28  1  0  0  0  0
  4  5  1  0  0  0  0
  4 29  1  0  0  0  0
  4 30  1  0  0  0  0
  5  6  1  0  0  0  0
  5 22  1  0  0  0  0
  5 31  1  0  0  0  0
  6  7  1  0  0  0  0
  6 32  1  0  0  0  0
  7  8  2  0  0  0  0
  7  9  1  0  0  0  0
  9 10  1  0  0  0  0
  9 33  1  0  0  0  0
 10 21  1  0  0  0  0
 10 11  2  0  0  0  0
 11 12  1  0  0  0  0
 11 34  1  0  0  0  0
 12 13  2  0  0  0  0
 12 35  1  0  0  0  0
 13 14  1  0  0  0  0
 13 20  1  0  0  0  0
 14 19  1  0  0  0  0
 14 15  1  0  0  0  0
 15 16  1  0  0  0  0
 15 36  1  0  0  0  0
 15 37  1  0  0  0  0
 16 17  1  0  0  0  0
 16 38  1  0  0  0  0
 16 39  1  0  0  0  0
 17 18  1  0  0  0  0
 18 19  1  0  0  0  0
 18 40  1  0  0  0  0
 18 41  1  0  0  0  0
 19 42  1  0  0  0  0
 19 43  1  0  0  0  0
 20 21  2  0  0  0  0
 21 44  1  0  0  0  0
 22 23  2  0  0  0  0
M  END
> <s_m_source_file>
AV-unprocessed.smi

> <i_m_source_file_index>
2661

> <i_lp_mmshare_version>
43012

> <i_f3d_flags>
0

> <s_epik_input>
W0NIM11OMVtDSDJdW0NIMl1bQ0BIXShDMT1PKVtOSF1DKD1PKVtOSF1jMltjSF1bY0hdYyhuW2NIXTIpTjNbQ0gyXVtDSDJdT1tDSDJdW0NIMl0z

> <s_epik_cmdline>
J2VwaWtfcHl0aG9uJywgJy1waCcsICc3LjAnLCAnLXRuJywgJzgnLCAnLW1hJywgJzIwMCcsICctbWV0YWxfYmluZGluZycsICctaW1hZScsICc8aW5maWxlLm1hZT4nLCAnLW9tYWUnLCAnPG91dGZpbGUubWFlPic=

> <r_lp_tautomer_probability>
1

> <r_epik_Ionization_Penalty>
0.00172037

> <r_epik_Ionization_Penalty_Charging>
0

> <r_epik_Ionization_Penalty_Neutral>
0.00172037

> <r_epik_State_Penalty>
0.00114015

> <r_epik_Charging_Adjusted_Penalty>
0.00114015

> <i_epik_Tot_Q>
0

> <i_epik_Tot_abs_Q>
0

> <r_epik_Metal_State_Penalty>
-0

> <b_epik_Metal_Only>
0

> <s_lp_Force_Field>
OPLS_2005

> <r_lp_Energy>
30.3032

> <b_lp_Chiralities_Consistent>
1

> <s_lp_Variant>
AV-unprocessed.smi:2661-1

> <Gold.Version>
5.8.1

> <Gold.Id.Protein>
6NUR|6NUR_protein|mol2

> <Gold.PLP.Fitness>
43.0950

> <Gold.PLP.PLP>
-34.1152

> <Gold.PLP.part.hbond>
-3.0000

> <Gold.PLP.part.metal>
0.0000

> <Gold.PLP.part.buried>
-1.9470

> <Gold.PLP.part.nonpolar>
-29.8224

> <Gold.PLP.part.repulsive>
0.2150

> <Gold.PLP.ligand.clash>
0.0000

> <Gold.PLP.ligand.torsion>
0.3567

> <Gold.PLP.Chemscore.Hbond>
2.1088

> <Gold.PLP.Chemscore.CHOScore>
0.9966

> <Gold.PLP.Chemscore.Metal>
0.0000

> <Gold.Chemscore.Hbonds>
donor molecule, donor type, donor heavy atom, donor atom, acceptor molecule, acceptor atom, score
      L1  H     6    32       P1  7948  1.00
      L1  H     9    33       P1  7948  0.87
      P1  H  7989  7998       L1    20  0.10
      L1  C    21    44       P1  7957  0.68

> <Gold.PLP.Chemscore.Internal.Correction>
0.3770

> <Gold.Rescore>
     Score         DG    S(hbond)    S(metal)    S(lipo)     H(rot)  DE(clash)    DE(int)     intcor
     16.15     -17.83       1.80        0.00      81.74       1.26       0.00       1.67       ----

> <Gold.Chemscore.Fitness>
16.1520

> <Gold.Chemscore.DG>
-17.8271

> <Gold.Chemscore.ZeroCoef>
-5.4800

> <Gold.Chemscore.Hbond>
1.8019

> <Gold.Chemscore.Metal>
0.0000

> <Gold.Chemscore.Lipo>
81.7382

> <Gold.Chemscore.Internal_Hbond>
0.0000

> <Gold.Chemscore.DEClash>
0.0004

> <Gold.Chemscore.DEInternal>
1.6746

> <Gold.Chemscore.Rot>
1.2636

> <Gold.Chemscore.Internal.Correction>
   9.000000E+99

> <Gold.Chemscore.Hbonds>
donor molecule, donor type, donor heavy atom, donor atom, acceptor molecule, acceptor atom, score
      L1  H     6    32       P1  7948  0.74
      L1  H     9    33       P1  7948  0.55

> <Gold.Chemscore.Hbond.Weighted>
-6.0185

> <Gold.Chemscore.Metal.Weighted>
-0.0000

> <Gold.Chemscore.Lipo.Weighted>
-9.5634

> <Gold.Chemscore.Internal_Hbond.Weighted>
0.0000

> <Gold.Chemscore.DEClash.Weighted>
0.0004

> <Gold.Chemscore.DEInternal.Weighted>
1.6746

> <Gold.Chemscore.Rot.Weighted>
3.2348

> <Gold.Chemscore.Internal.Correction.Weighted>
   9.000000E+99

> <Gold.Protein.RotatedTorsions>
[ 6907 6896 6895 6894 ] final   -9.80 input  -60.11 | X-H torsion
[ 7974 7965 7964 7962 ] final  121.21 input  175.53 | X-H torsion
[ 8008 7997 7996 7995 ] final -108.54 input   59.86 | X-H torsion
[ 10167 10162 10161 10158 ] final  -47.94 input  -65.29 | X-H torsion
[ 10718 10713 10712 10709 ] final -150.26 input   66.30 | X-H torsion
[ 10763 10752 10751 10750 ] final  -15.00 input  -60.55 | X-H torsion
[ 11005 11000 10999 10996 ] final  172.58 input  -57.11 | X-H torsion

> <Gold.Protein.ActiveResidues>
 VAL166  LYS551  ARG553  GLY616  TRP617  ASP618  TYR619  PRO620  LYS621  CYS622 
 ASP623  PHE694  ASN695  SER759  ASP760  ASP761  ALA762  ILE779  LEU786  VAL792 
 PHE793  MET794  SER795  GLU796  ALA797  LYS798  CYS799  TRP800  GLU811  SER814 

> <Gold.Protein.RotatedAtoms>
  151.4121  135.0986  159.9587 H   0  0  0  0  0  0  0  0  0  0  0  0  # atno 6907 bound_to 6896
  152.5016  133.8788  159.7346 H   0  0  0  0  0  0  0  0  0  0  0  0  # atno 6908 bound_to 6896
  150.9285  133.6738  159.2844 H   0  0  0  0  0  0  0  0  0  0  0  0  # atno 6909 bound_to 6896
  145.1220  139.3383  143.4709 H   0  0  0  0  0  0  0  0  0  0  0  0  # atno 7974 bound_to 7965
  154.9458  140.0402  157.2119 H   0  0  0  0  0  0  0  0  0  0  0  0  # atno 8008 bound_to 7997
  154.8025  140.2854  155.5889 H   0  0  0  0  0  0  0  0  0  0  0  0  # atno 8009 bound_to 7997
  156.2963  140.2552  156.2897 H   0  0  0  0  0  0  0  0  0  0  0  0  # atno 8010 bound_to 7997
  140.6753  143.2762  151.3999 H   0  0  0  0  0  0  0  0  0  0  0  0  # atno 10167 bound_to 10162
  156.4438  130.8134  151.2364 H   0  0  0  0  0  0  0  0  0  0  0  0  # atno 10718 bound_to 10713
  153.5367  135.7014  153.5656 H   0  0  0  0  0  0  0  0  0  0  0  0  # atno 10763 bound_to 10752
  153.3640  135.3962  155.1739 H   0  0  0  0  0  0  0  0  0  0  0  0  # atno 10764 bound_to 10752
  154.8678  135.3795  154.4868 H   0  0  0  0  0  0  0  0  0  0  0  0  # atno 10765 bound_to 10752
  140.3313  134.7355  157.4136 H   0  0  0  0  0  0  0  0  0  0  0  0  # atno 11005 bound_to 11000
  146.3520  140.1184  142.8601 LP  0  0  0  0  0  0  0  0  0  0  0  0  # atno 17320 bound_to 7965
  145.0729  140.9168  143.4871 LP  0  0  0  0  0  0  0  0  0  0  0  0  # atno 17321 bound_to 7965
  139.6042  144.1232  152.2231 LP  0  0  0  0  0  0  0  0  0  0  0  0  # atno 17342 bound_to 10162
  140.0626  144.5844  150.7252 LP  0  0  0  0  0  0  0  0  0  0  0  0  # atno 17343 bound_to 10162
  157.7505  131.0160  150.3526 LP  0  0  0  0  0  0  0  0  0  0  0  0  # atno 17370 bound_to 10713
  156.3889  130.3894  149.7044 LP  0  0  0  0  0  0  0  0  0  0  0  0  # atno 17371 bound_to 10713
  140.0858  134.5668  155.8493 LP  0  0  0  0  0  0  0  0  0  0  0  0  # atno 17394 bound_to 11000
  141.2062  133.6654  156.6231 LP  0  0  0  0  0  0  0  0  0  0  0  0  # atno 17395 bound_to 11000

$$$$
