AV-unprocessed.smi:1350|AV-procd|sdf|5522|dock4
  -GOLD-   22720 5113D 1   1.00000     0.00000
 Structure written by MMmdl.
 44 46  0  0  0  0  0  0  0  0  2 V2000
  151.5226  131.2200  157.6678 C   0  0  0  0  0  0  0  0  0  0  0  0
  151.0880  132.5493  157.4202 O   0  0  0  0  0  0  0  0  0  0  0  0
  150.4331  132.8194  156.2353 C   0  0  0  0  0  0  0  0  0  0  0  0
  150.1027  131.8183  155.2852 C   0  0  0  0  0  0  0  0  0  0  0  0
  149.4327  132.1507  154.0928 C   0  0  0  0  0  0  0  0  0  0  0  0
  149.0814  133.4859  153.8306 C   0  0  0  0  0  0  0  0  0  0  0  0
  149.4026  134.4879  154.7632 C   0  0  0  0  0  0  0  0  0  0  0  0
  150.0771  134.1640  155.9593 C   0  0  0  0  0  0  0  0  0  0  0  0
  150.3869  135.2853  156.9377 C   0  0  0  0  0  0  0  0  0  0  0  0
  150.0628  136.5535  156.3918 O   0  0  0  0  0  0  0  0  0  0  0  0
  151.1299  137.1193  155.6486 C   0  0  0  0  0  0  0  0  0  0  0  0
  150.9247  138.6375  155.5531 C   0  0  2  0  0  0  0  0  0  0  0  0
  151.5842  139.1114  154.3956 O   0  0  0  0  0  0  0  0  0  0  0  0
  151.4536  139.3839  156.7943 C   0  0  0  0  0  0  0  0  0  0  0  0
  151.2016  140.8292  156.7359 N   0  0  0  0  0  0  0  0  0  0  0  0
  150.4576  141.5557  155.8583 C   0  0  0  0  0  0  0  0  0  0  0  0
  150.5330  142.8616  156.2383 N   0  3  0  0  0  0  0  0  0  0  0  0
  151.3381  142.9707  157.3745 C   0  0  0  0  0  0  0  0  0  0  0  0
  151.7100  144.0811  158.1262 C   0  0  0  0  0  0  0  0  0  0  0  0
  152.5476  143.8421  159.2358 C   0  0  0  0  0  0  0  0  0  0  0  0
  152.9829  142.5407  159.5619 C   0  0  0  0  0  0  0  0  0  0  0  0
  152.6000  141.4222  158.7925 C   0  0  0  0  0  0  0  0  0  0  0  0
  151.7720  141.6679  157.6982 C   0  0  0  0  0  0  0  0  0  0  0  0
  152.0204  131.1799  158.6365 H   0  0  0  0  0  0  0  0  0  0  0  0
  152.2394  130.8874  156.9159 H   0  0  0  0  0  0  0  0  0  0  0  0
  150.6825  130.5251  157.7012 H   0  0  0  0  0  0  0  0  0  0  0  0
  150.3520  130.7807  155.4470 H   0  0  0  0  0  0  0  0  0  0  0  0
  149.1867  131.3781  153.3795 H   0  0  0  0  0  0  0  0  0  0  0  0
  148.5649  133.7412  152.9171 H   0  0  0  0  0  0  0  0  0  0  0  0
  149.1281  135.5125  154.5588 H   0  0  0  0  0  0  0  0  0  0  0  0
  149.8002  135.1150  157.8416 H   0  0  0  0  0  0  0  0  0  0  0  0
  151.4349  135.2754  157.2371 H   0  0  0  0  0  0  0  0  0  0  0  0
  152.0880  136.8909  156.1188 H   0  0  0  0  0  0  0  0  0  0  0  0
  151.1419  136.6819  154.6486 H   0  0  0  0  0  0  0  0  0  0  0  0
  149.8608  138.8408  155.4264 H   0  0  0  0  0  0  0  0  0  0  0  0
  152.3557  138.5848  154.2532 H   0  0  0  0  0  0  0  0  0  0  0  0
  151.0043  138.9937  157.7088 H   0  0  0  0  0  0  0  0  0  0  0  0
  152.5304  139.2412  156.8942 H   0  0  0  0  0  0  0  0  0  0  0  0
  149.9033  141.1663  155.0166 H   0  0  0  0  0  0  0  0  0  0  0  0
  151.3779  145.0788  157.8796 H   0  0  0  0  0  0  0  0  0  0  0  0
  152.8618  144.6737  159.8499 H   0  0  0  0  0  0  0  0  0  0  0  0
  153.6230  142.3968  160.4201 H   0  0  0  0  0  0  0  0  0  0  0  0
  152.9361  140.4285  159.0500 H   0  0  0  0  0  0  0  0  0  0  0  0
  150.0658  143.6197  155.7575 H   0  0  0  0  0  0  0  0  0  0  0  0
  1  2  1  0  0  0  0
  1 24  1  0  0  0  0
  1 25  1  0  0  0  0
  1 26  1  0  0  0  0
  2  3  1  0  0  0  0
  3  8  1  0  0  0  0
  3  4  2  0  0  0  0
  4  5  1  0  0  0  0
  4 27  1  0  0  0  0
  5  6  2  0  0  0  0
  5 28  1  0  0  0  0
  6  7  1  0  0  0  0
  6 29  1  0  0  0  0
  7  8  2  0  0  0  0
  7 30  1  0  0  0  0
  8  9  1  0  0  0  0
  9 10  1  0  0  0  0
  9 31  1  0  0  0  0
  9 32  1  0  0  0  0
 10 11  1  0  0  0  0
 11 12  1  0  0  0  0
 11 33  1  0  0  0  0
 11 34  1  0  0  0  0
 12 13  1  0  0  0  0
 12 14  1  0  0  0  0
 12 35  1  0  0  0  0
 13 36  1  0  0  0  0
 14 15  1  0  0  0  0
 14 37  1  0  0  0  0
 14 38  1  0  0  0  0
 15 23  1  0  0  0  0
 15 16  1  0  0  0  0
 16 17  2  0  0  0  0
 16 39  1  0  0  0  0
 17 18  1  0  0  0  0
 17 44  1  0  0  0  0
 18 23  2  0  0  0  0
 18 19  1  0  0  0  0
 19 20  2  0  0  0  0
 19 40  1  0  0  0  0
 20 21  1  0  0  0  0
 20 41  1  0  0  0  0
 21 22  2  0  0  0  0
 21 42  1  0  0  0  0
 22 23  1  0  0  0  0
 22 43  1  0  0  0  0
M  CHG  1  17   1
M  END
> <s_m_source_file>
AV-unprocessed.smi

> <i_m_source_file_index>
1350

> <i_lp_mmshare_version>
43012

> <i_f3d_flags>
0

> <s_epik_input>
W0NIM11PYzFbY0hdW2NIXVtjSF1bY0hdYzFbQ0gyXU9bQ0gyXVtDQEhdKFtPSF0pW0NIMl1uKFtjSF1uMiljKGMyMylbY0hdW2NIXVtjSF1bY0hdMw==

> <s_epik_cmdline>
J2VwaWtfcHl0aG9uJywgJy1waCcsICc3LjAnLCAnLXRuJywgJzgnLCAnLW1hJywgJzIwMCcsICctbWV0YWxfYmluZGluZycsICctaW1hZScsICc8aW5maWxlLm1hZT4nLCAnLW9tYWUnLCAnPG91dGZpbGUubWFlPic=

> <r_lp_tautomer_probability>
1

> <r_epik_Ionization_Penalty>
1.28975

> <r_epik_Ionization_Penalty_Charging>
1.28975

> <r_epik_Ionization_Penalty_Neutral>
1.07667e-06

> <r_epik_State_Penalty>
1.36276

> <r_epik_Charging_Adjusted_Penalty>
2.65251

> <i_epik_Tot_Q>
1

> <i_epik_Tot_abs_Q>
1

> <r_epik_Metal_State_Penalty>
5.39298

> <b_epik_Metal_Only>
0

> <s_lp_Force_Field>
OPLS_2005

> <r_lp_Energy>
23.7531

> <b_lp_Chiralities_Consistent>
1

> <s_lp_Variant>
AV-unprocessed.smi:1350-3

> <Gold.Version>
5.8.1

> <Gold.Id.Protein>
6NUR|6NUR_protein|mol2

> <Gold.PLP.Fitness>
56.1009

> <Gold.PLP.PLP>
-45.2176

> <Gold.PLP.part.hbond>
-2.9936

> <Gold.PLP.part.metal>
0.0000

> <Gold.PLP.part.buried>
-5.2545

> <Gold.PLP.part.nonpolar>
-38.0105

> <Gold.PLP.part.repulsive>
0.1249

> <Gold.PLP.ligand.clash>
0.0000

> <Gold.PLP.ligand.torsion>
0.6653

> <Gold.PLP.Chemscore.Hbond>
4.0000

> <Gold.PLP.Chemscore.CHOScore>
0.0000

> <Gold.PLP.Chemscore.Metal>
0.0000

> <Gold.Chemscore.Hbonds>
donor molecule, donor type, donor heavy atom, donor atom, acceptor molecule, acceptor atom, score
      L1  H    17    44       P1  8028  2.00
      P1  H  6896  6909       L1     2  1.00
      P1  H  7989  7998       L1    13  1.00

> <Gold.PLP.Chemscore.Internal.Correction>
0.2139

> <Gold.Rescore>
     Score         DG    S(hbond)    S(metal)    S(lipo)     H(rot)  DE(clash)    DE(int)     intcor
     20.25     -21.10       2.49        0.00     122.27       2.74       0.08       0.78       ----

> <Gold.Chemscore.Fitness>
20.2499

> <Gold.Chemscore.DG>
-21.1023

> <Gold.Chemscore.ZeroCoef>
-5.4800

> <Gold.Chemscore.Hbond>
2.4936

> <Gold.Chemscore.Metal>
0.0000

> <Gold.Chemscore.Lipo>
122.2697

> <Gold.Chemscore.Internal_Hbond>
0.0000

> <Gold.Chemscore.DEClash>
0.0757

> <Gold.Chemscore.DEInternal>
0.7767

> <Gold.Chemscore.Rot>
2.7390

> <Gold.Chemscore.Internal.Correction>
   9.000000E+99

> <Gold.Chemscore.Hbonds>
donor molecule, donor type, donor heavy atom, donor atom, acceptor molecule, acceptor atom, score
      L1  H    17    44       P1  8028  0.95
      P1  H  6896  6909       L1     2  0.34
      P1  H  7989  7998       L1    13  0.82

> <Gold.Chemscore.Hbond.Weighted>
-8.3285

> <Gold.Chemscore.Metal.Weighted>
-0.0000

> <Gold.Chemscore.Lipo.Weighted>
-14.3056

> <Gold.Chemscore.Internal_Hbond.Weighted>
0.0000

> <Gold.Chemscore.DEClash.Weighted>
0.0757

> <Gold.Chemscore.DEInternal.Weighted>
0.7767

> <Gold.Chemscore.Rot.Weighted>
7.0118

> <Gold.Chemscore.Internal.Correction.Weighted>
   9.000000E+99

> <Gold.Protein.RotatedTorsions>
[ 6907 6896 6895 6894 ] final  -36.50 input  -60.11 | X-H torsion
[ 7974 7965 7964 7962 ] final -147.42 input  175.53 | X-H torsion
[ 8008 7997 7996 7995 ] final  -16.02 input   59.86 | X-H torsion
[ 10167 10162 10161 10158 ] final  127.75 input  -65.29 | X-H torsion
[ 10718 10713 10712 10709 ] final -132.87 input   66.30 | X-H torsion
[ 10763 10752 10751 10750 ] final  -33.16 input  -60.55 | X-H torsion
[ 11005 11000 10999 10996 ] final   99.46 input  -57.11 | X-H torsion

> <Gold.Protein.ActiveResidues>
 VAL166  LYS551  ARG553  GLY616  TRP617  ASP618  TYR619  PRO620  LYS621  CYS622 
 ASP623  PHE694  ASN695  SER759  ASP760  ASP761  ALA762  ILE779  LEU786  VAL792 
 PHE793  MET794  SER795  GLU796  ALA797  LYS798  CYS799  TRP800  GLU811  SER814 

> <Gold.Protein.RotatedAtoms>
  151.0264  134.9507  159.8086 H   0  0  0  0  0  0  0  0  0  0  0  0  # atno 6907 bound_to 6896
  152.5336  134.2837  159.9027 H   0  0  0  0  0  0  0  0  0  0  0  0  # atno 6908 bound_to 6896
  151.2846  133.4151  159.2663 H   0  0  0  0  0  0  0  0  0  0  0  0  # atno 6909 bound_to 6896
  144.8094  140.5329  143.5652 H   0  0  0  0  0  0  0  0  0  0  0  0  # atno 7974 bound_to 7965
  154.5085  140.2181  155.9203 H   0  0  0  0  0  0  0  0  0  0  0  0  # atno 8008 bound_to 7997
  156.1523  140.3159  155.8635 H   0  0  0  0  0  0  0  0  0  0  0  0  # atno 8009 bound_to 7997
  155.3914  140.0478  157.3031 H   0  0  0  0  0  0  0  0  0  0  0  0  # atno 8010 bound_to 7997
  139.5562  144.6850  151.4176 H   0  0  0  0  0  0  0  0  0  0  0  0  # atno 10167 bound_to 10162
  156.2390  130.7084  151.0938 H   0  0  0  0  0  0  0  0  0  0  0  0  # atno 10718 bound_to 10713
  153.8257  135.6870  153.4821 H   0  0  0  0  0  0  0  0  0  0  0  0  # atno 10763 bound_to 10752
  153.1542  135.4606  154.9678 H   0  0  0  0  0  0  0  0  0  0  0  0  # atno 10764 bound_to 10752
  154.7908  135.3301  154.7725 H   0  0  0  0  0  0  0  0  0  0  0  0  # atno 10765 bound_to 10752
  139.8771  134.9097  156.4610 H   0  0  0  0  0  0  0  0  0  0  0  0  # atno 11005 bound_to 11000
  145.5359  139.1475  143.3474 LP  0  0  0  0  0  0  0  0  0  0  0  0  # atno 17320 bound_to 7965
  146.2391  140.5499  142.8942 LP  0  0  0  0  0  0  0  0  0  0  0  0  # atno 17321 bound_to 7965
  140.6835  143.8027  150.7154 LP  0  0  0  0  0  0  0  0  0  0  0  0  # atno 17342 bound_to 10162
  140.1488  143.4376  152.2145 LP  0  0  0  0  0  0  0  0  0  0  0  0  # atno 17343 bound_to 10162
  157.7167  131.0705  150.6298 LP  0  0  0  0  0  0  0  0  0  0  0  0  # atno 17370 bound_to 10713
  156.6371  130.4448  149.5766 LP  0  0  0  0  0  0  0  0  0  0  0  0  # atno 17371 bound_to 10713
  140.8864  133.7880  155.9523 LP  0  0  0  0  0  0  0  0  0  0  0  0  # atno 17394 bound_to 11000
  140.8800  134.2623  157.5149 LP  0  0  0  0  0  0  0  0  0  0  0  0  # atno 17395 bound_to 11000

$$$$
