AV-unprocessed.smi:2973|AV-procd|sdf|11341|dock5
  -GOLD-   2272016253D 1   1.00000     0.00000
 Structure written by MMmdl.
 50 52  0  0  0  0  0  0  0  0  2 V2000
  157.1917  134.6540  157.8009 C   0  0  0  0  0  0  0  0  0  0  0  0
  156.4665  134.4877  159.1535 C   0  0  2  0  0  0  0  0  0  0  0  0
  156.0021  133.0278  159.3474 C   0  0  0  0  0  0  0  0  0  0  0  0
  155.3609  132.8142  160.7274 C   0  0  0  0  0  0  0  0  0  0  0  0
  154.1908  133.7801  160.9593 C   0  0  0  0  0  0  0  0  0  0  0  0
  154.6309  135.2431  160.7720 C   0  0  0  0  0  0  0  0  0  0  0  0
  155.3069  135.5046  159.4025 C   0  0  1  0  0  0  0  0  0  0  0  0
  155.7922  136.8729  159.3511 N   0  0  0  0  0  0  0  0  0  0  0  0
  155.2040  137.6072  158.3992 C   0  0  0  0  0  0  0  0  0  0  0  0
  155.4586  138.7852  158.1529 O   0  0  0  0  0  0  0  0  0  0  0  0
  154.3072  136.8336  157.7632 N   0  0  0  0  0  0  0  0  0  0  0  0
  153.5009  137.2808  156.6206 C   0  0  0  0  0  0  0  0  0  0  0  0
  153.0215  138.7323  156.7610 C   0  0  0  0  0  0  0  0  0  0  0  0
  153.1585  139.5364  155.8375 O   0  0  0  0  0  0  0  0  0  0  0  0
  152.4481  139.0525  157.9304 N   0  0  0  0  0  0  0  0  0  0  0  0
  151.9344  140.3731  158.2743 C   0  0  0  0  0  0  0  0  0  0  0  0
  152.7546  141.0277  159.3999 C   0  0  0  0  0  0  0  0  0  0  0  0
  152.4538  142.5064  159.5438 C   0  0  0  0  0  0  0  0  0  0  0  0
  152.5967  143.4082  158.4671 C   0  0  0  0  0  0  0  0  0  0  0  0
  152.2919  144.7711  158.6650 C   0  0  0  0  0  0  0  0  0  0  0  0
  151.8507  145.2025  159.9332 C   0  0  0  0  0  0  0  0  0  0  0  0
  151.7240  144.2586  160.9727 C   0  0  0  0  0  0  0  0  0  0  0  0
  152.0250  142.9613  160.7435 N   0  3  0  0  0  0  0  0  0  0  0  0
  154.2880  135.5906  158.2639 C   0  0  0  0  0  0  0  0  0  0  0  0
  153.5874  134.6542  157.8791 O   0  0  0  0  0  0  0  0  0  0  0  0
  156.5339  134.4385  156.9586 H   0  0  0  0  0  0  0  0  0  0  0  0
  158.0409  133.9739  157.7305 H   0  0  0  0  0  0  0  0  0  0  0  0
  157.5789  135.6648  157.6716 H   0  0  0  0  0  0  0  0  0  0  0  0
  157.2183  134.6794  159.9208 H   0  0  0  0  0  0  0  0  0  0  0  0
  155.2960  132.7461  158.5660 H   0  0  0  0  0  0  0  0  0  0  0  0
  156.8524  132.3530  159.2413 H   0  0  0  0  0  0  0  0  0  0  0  0
  155.0154  131.7843  160.8207 H   0  0  0  0  0  0  0  0  0  0  0  0
  156.1120  132.9591  161.5049 H   0  0  0  0  0  0  0  0  0  0  0  0
  153.3752  133.5400  160.2774 H   0  0  0  0  0  0  0  0  0  0  0  0
  153.7933  133.6422  161.9652 H   0  0  0  0  0  0  0  0  0  0  0  0
  153.7674  135.8974  160.9027 H   0  0  0  0  0  0  0  0  0  0  0  0
  155.3256  135.5061  161.5711 H   0  0  0  0  0  0  0  0  0  0  0  0
  156.5107  137.2190  159.9704 H   0  0  0  0  0  0  0  0  0  0  0  0
  154.0700  137.1920  155.6938 H   0  0  0  0  0  0  0  0  0  0  0  0
  152.6379  136.6227  156.5031 H   0  0  0  0  0  0  0  0  0  0  0  0
  152.3656  138.3307  158.6318 H   0  0  0  0  0  0  0  0  0  0  0  0
  151.9258  141.0097  157.3878 H   0  0  0  0  0  0  0  0  0  0  0  0
  150.8956  140.2599  158.5854 H   0  0  0  0  0  0  0  0  0  0  0  0
  152.5517  140.5301  160.3493 H   0  0  0  0  0  0  0  0  0  0  0  0
  153.8224  140.9053  159.2128 H   0  0  0  0  0  0  0  0  0  0  0  0
  152.9330  143.0615  157.5004 H   0  0  0  0  0  0  0  0  0  0  0  0
  152.3948  145.4767  157.8534 H   0  0  0  0  0  0  0  0  0  0  0  0
  151.6124  146.2421  160.1054 H   0  0  0  0  0  0  0  0  0  0  0  0
  151.3939  144.4999  161.9727 H   0  0  0  0  0  0  0  0  0  0  0  0
  151.9258  142.2957  161.5105 H   0  0  0  0  0  0  0  0  0  0  0  0
  1  2  1  0  0  0  0
  1 26  1  0  0  0  0
  1 27  1  0  0  0  0
  1 28  1  0  0  0  0
  2  7  1  0  0  0  0
  2  3  1  0  0  0  0
  2 29  1  0  0  0  0
  3  4  1  0  0  0  0
  3 30  1  0  0  0  0
  3 31  1  0  0  0  0
  4  5  1  0  0  0  0
  4 32  1  0  0  0  0
  4 33  1  0  0  0  0
  5  6  1  0  0  0  0
  5 34  1  0  0  0  0
  5 35  1  0  0  0  0
  6  7  1  0  0  0  0
  6 36  1  0  0  0  0
  6 37  1  0  0  0  0
  7 24  1  0  0  0  0
  7  8  1  0  0  0  0
  8  9  1  0  0  0  0
  8 38  1  0  0  0  0
  9 10  2  0  0  0  0
  9 11  1  0  0  0  0
 11 12  1  0  0  0  0
 11 24  1  0  0  0  0
 12 13  1  0  0  0  0
 12 39  1  0  0  0  0
 12 40  1  0  0  0  0
 13 14  2  0  0  0  0
 13 15  1  0  0  0  0
 15 16  1  0  0  0  0
 15 41  1  0  0  0  0
 16 17  1  0  0  0  0
 16 42  1  0  0  0  0
 16 43  1  0  0  0  0
 17 18  1  0  0  0  0
 17 44  1  0  0  0  0
 17 45  1  0  0  0  0
 18 23  1  0  0  0  0
 18 19  2  0  0  0  0
 19 20  1  0  0  0  0
 19 46  1  0  0  0  0
 20 21  2  0  0  0  0
 20 47  1  0  0  0  0
 21 22  1  0  0  0  0
 21 48  1  0  0  0  0
 22 23  2  0  0  0  0
 22 49  1  0  0  0  0
 23 50  1  0  0  0  0
 24 25  2  0  0  0  0
M  CHG  1  23   1
M  END
> <s_m_source_file>
AV-unprocessed.smi

> <i_m_source_file_index>
2973

> <i_lp_mmshare_version>
43012

> <i_f3d_flags>
0

> <s_epik_input>
W0NIMl0xW0NIMl1bQ0gyXVtDSDJdW0NAQEhdKFtDSDNdKVtDQF0xMltOSF1DKD1PKU4oQzI9TylbQ0gyXUMoPU8pW05IXVtDSDJdW0NIMl1jM1tjSF1bY0hdW2NIXVtjSF1uMw==

> <s_epik_cmdline>
J2VwaWtfcHl0aG9uJywgJy1waCcsICc3LjAnLCAnLXRuJywgJzgnLCAnLW1hJywgJzIwMCcsICctbWV0YWxfYmluZGluZycsICctaW1hZScsICc8aW5maWxlLm1hZT4nLCAnLW9tYWUnLCAnPG91dGZpbGUubWFlPic=

> <r_lp_tautomer_probability>
1

> <r_epik_Ionization_Penalty>
1.90043

> <r_epik_Ionization_Penalty_Charging>
1.90039

> <r_epik_Ionization_Penalty_Neutral>
4.65525e-05

> <r_epik_State_Penalty>
2.02162

> <r_epik_Charging_Adjusted_Penalty>
3.922

> <i_epik_Tot_Q>
1

> <i_epik_Tot_abs_Q>
1

> <r_epik_Metal_State_Penalty>
2.06631

> <b_epik_Metal_Only>
0

> <s_lp_Force_Field>
OPLS_2005

> <r_lp_Energy>
22.6609

> <b_lp_Chiralities_Consistent>
1

> <s_lp_Variant>
AV-unprocessed.smi:2973-5

> <Gold.Version>
5.8.1

> <Gold.Id.Protein>
6NUR|6NUR_protein|mol2

> <Gold.PLP.Fitness>
43.9249

> <Gold.PLP.PLP>
-36.1205

> <Gold.PLP.part.hbond>
-3.0000

> <Gold.PLP.part.metal>
0.0000

> <Gold.PLP.part.buried>
-4.8334

> <Gold.PLP.part.nonpolar>
-28.6009

> <Gold.PLP.part.repulsive>
0.1851

> <Gold.PLP.ligand.clash>
0.0000

> <Gold.PLP.ligand.torsion>
0.5139

> <Gold.PLP.Chemscore.Hbond>
2.9360

> <Gold.PLP.Chemscore.CHOScore>
0.0000

> <Gold.PLP.Chemscore.Metal>
0.0000

> <Gold.Chemscore.Hbonds>
donor molecule, donor type, donor heavy atom, donor atom, acceptor molecule, acceptor atom, score
      P1  H  6896  6909       L1    25  0.21
      P1  H  7997  8008       L1    14  0.65
      P1  H  7997  8010       L1    10  0.83

> <Gold.PLP.Chemscore.Internal.Correction>
0.0243

> <Gold.Rescore>
     Score         DG    S(hbond)    S(metal)    S(lipo)     H(rot)  DE(clash)    DE(int)     intcor
     19.12     -20.95       2.83        0.00      94.31       1.96       0.02       1.81       ----

> <Gold.Chemscore.Fitness>
19.1238

> <Gold.Chemscore.DG>
-20.9543

> <Gold.Chemscore.ZeroCoef>
-5.4800

> <Gold.Chemscore.Hbond>
2.8346

> <Gold.Chemscore.Metal>
0.0000

> <Gold.Chemscore.Lipo>
94.3101

> <Gold.Chemscore.Internal_Hbond>
0.0000

> <Gold.Chemscore.DEClash>
0.0234

> <Gold.Chemscore.DEInternal>
1.8070

> <Gold.Chemscore.Rot>
1.9638

> <Gold.Chemscore.Internal.Correction>
   9.000000E+99

> <Gold.Chemscore.Hbonds>
donor molecule, donor type, donor heavy atom, donor atom, acceptor molecule, acceptor atom, score
      P1  H  6896  6909       L1    25  0.04
      P1  H  7997  8008       L1    14  0.36
      P1  H  7997  8010       L1    10  0.77

> <Gold.Chemscore.Hbond.Weighted>
-9.4674

> <Gold.Chemscore.Metal.Weighted>
-0.0000

> <Gold.Chemscore.Lipo.Weighted>
-11.0343

> <Gold.Chemscore.Internal_Hbond.Weighted>
0.0000

> <Gold.Chemscore.DEClash.Weighted>
0.0234

> <Gold.Chemscore.DEInternal.Weighted>
1.8070

> <Gold.Chemscore.Rot.Weighted>
5.0274

> <Gold.Chemscore.Internal.Correction.Weighted>
   9.000000E+99

> <Gold.Protein.RotatedTorsions>
[ 6907 6896 6895 6894 ] final -149.82 input  -60.11 | X-H torsion
[ 7974 7965 7964 7962 ] final  -73.12 input  175.53 | X-H torsion
[ 8008 7997 7996 7995 ] final  -25.74 input   59.86 | X-H torsion
[ 10167 10162 10161 10158 ] final  -25.03 input  -65.29 | X-H torsion
[ 10718 10713 10712 10709 ] final   88.97 input   66.30 | X-H torsion
[ 10763 10752 10751 10750 ] final  -44.65 input  -60.55 | X-H torsion
[ 11005 11000 10999 10996 ] final  108.14 input  -57.11 | X-H torsion

> <Gold.Protein.ActiveResidues>
 VAL166  LYS551  ARG553  GLY616  TRP617  ASP618  TYR619  PRO620  LYS621  CYS622 
 ASP623  PHE694  ASN695  SER759  ASP760  ASP761  ALA762  ILE779  LEU786  VAL792 
 PHE793  MET794  SER795  GLU796  ALA797  LYS798  CYS799  TRP800  GLU811  SER814 

> <Gold.Protein.RotatedAtoms>
  151.1896  133.4675  159.2594 H   0  0  0  0  0  0  0  0  0  0  0  0  # atno 6907 bound_to 6896
  151.1177  135.0062  159.8534 H   0  0  0  0  0  0  0  0  0  0  0  0  # atno 6908 bound_to 6896
  152.5454  134.1810  159.8688 H   0  0  0  0  0  0  0  0  0  0  0  0  # atno 6909 bound_to 6896
  145.6563  140.9267  143.0958 H   0  0  0  0  0  0  0  0  0  0  0  0  # atno 7974 bound_to 7965
  154.4460  140.1918  156.0667 H   0  0  0  0  0  0  0  0  0  0  0  0  # atno 8008 bound_to 7997
  156.0542  140.3305  155.7359 H   0  0  0  0  0  0  0  0  0  0  0  0  # atno 8009 bound_to 7997
  155.5511  140.0595  157.2840 H   0  0  0  0  0  0  0  0  0  0  0  0  # atno 8010 bound_to 7997
  140.7287  143.4300  151.0816 H   0  0  0  0  0  0  0  0  0  0  0  0  # atno 10167 bound_to 10162
  157.6952  131.0315  150.3355 H   0  0  0  0  0  0  0  0  0  0  0  0  # atno 10718 bound_to 10713
  154.0156  135.6676  153.4768 H   0  0  0  0  0  0  0  0  0  0  0  0  # atno 10763 bound_to 10752
  153.0602  135.5032  154.8071 H   0  0  0  0  0  0  0  0  0  0  0  0  # atno 10764 bound_to 10752
  154.6968  135.3071  154.9363 H   0  0  0  0  0  0  0  0  0  0  0  0  # atno 10765 bound_to 10752
  139.8839  134.9422  156.5927 H   0  0  0  0  0  0  0  0  0  0  0  0  # atno 11005 bound_to 11000
  144.7104  139.8391  143.7416 LP  0  0  0  0  0  0  0  0  0  0  0  0  # atno 17320 bound_to 7965
  146.1162  139.4173  143.0257 LP  0  0  0  0  0  0  0  0  0  0  0  0  # atno 17321 bound_to 7965
  139.7956  143.8156  152.3157 LP  0  0  0  0  0  0  0  0  0  0  0  0  # atno 17342 bound_to 10162
  139.8155  144.7318  150.9641 LP  0  0  0  0  0  0  0  0  0  0  0  0  # atno 17343 bound_to 10162
  156.3823  130.3882  149.7092 LP  0  0  0  0  0  0  0  0  0  0  0  0  # atno 17370 bound_to 10713
  156.4470  130.7888  151.2910 LP  0  0  0  0  0  0  0  0  0  0  0  0  # atno 17371 bound_to 10713
  140.7943  133.8557  155.8672 LP  0  0  0  0  0  0  0  0  0  0  0  0  # atno 17394 bound_to 11000
  140.9649  134.1607  157.4624 LP  0  0  0  0  0  0  0  0  0  0  0  0  # atno 17395 bound_to 11000

$$$$
