AV-unprocessed.smi:438|AV-procd|sdf|2571|dock2
  -GOLD-   2262022553D 1   1.00000     0.00000
 Structure written by MMmdl.
 47 48  0  0  0  0  0  0  0  0  2 V2000
  154.4908  136.8462  164.7904 C   0  0  0  0  0  0  0  0  0  0  0  0
  154.3999  136.3720  163.3509 C   0  0  0  0  0  0  0  0  0  0  0  0
  153.8361  137.2820  162.4407 N   0  0  0  0  0  0  0  0  0  0  0  0
  153.7263  136.9573  161.2101 C   0  0  0  0  0  0  0  0  0  0  0  0
  153.0059  138.1782  160.0963 S   0  0  0  0  0  0  0  0  0  0  0  0
  154.4114  139.2168  159.5943 C   0  0  0  0  0  0  0  0  0  0  0  0
  154.0238  140.6874  159.4722 C   0  0  0  0  0  0  0  0  0  0  0  0
  154.8753  141.5247  159.1747 O   0  0  0  0  0  0  0  0  0  0  0  0
  152.7341  140.9819  159.7125 N   0  0  0  0  0  0  0  0  0  0  0  0
  152.1046  142.3052  159.7143 C   0  0  2  0  0  0  0  0  0  0  0  0
  152.0021  142.8964  158.2909 C   0  0  0  0  0  0  0  0  0  0  0  0
  151.2587  144.2401  158.2997 C   0  0  0  0  0  0  0  0  0  0  0  0
  151.9264  145.2307  159.2648 C   0  0  0  0  0  0  0  0  0  0  0  0
  152.0186  144.6488  160.6845 C   0  0  0  0  0  0  0  0  0  0  0  0
  152.7673  143.3002  160.7060 C   0  0  1  0  0  0  0  0  0  0  0  0
  152.8436  142.7476  162.1406 C   0  0  0  0  0  0  0  0  0  0  0  0
  154.1249  135.7416  160.6996 N   0  5  0  0  0  0  0  0  0  0  0  0
  154.6819  134.8044  161.5184 C   0  0  0  0  0  0  0  0  0  0  0  0
  155.0490  133.7065  161.1015 O   0  0  0  0  0  0  0  0  0  0  0  0
  154.8297  135.1434  162.9446 C   0  0  0  0  0  0  0  0  0  0  0  0
  155.4670  134.1212  163.8829 C   0  0  0  0  0  0  0  0  0  0  0  0
  154.4974  133.6592  164.9799 C   0  0  0  0  0  0  0  0  0  0  0  0
  155.1133  132.6746  165.7819 O   0  0  0  0  0  0  0  0  0  0  0  0
  154.0497  136.1133  165.4662 H   0  0  0  0  0  0  0  0  0  0  0  0
  153.9608  137.7892  164.9297 H   0  0  0  0  0  0  0  0  0  0  0  0
  155.5321  136.9999  165.0737 H   0  0  0  0  0  0  0  0  0  0  0  0
  154.7985  138.8684  158.6359 H   0  0  0  0  0  0  0  0  0  0  0  0
  155.2139  139.1132  160.3260 H   0  0  0  0  0  0  0  0  0  0  0  0
  152.1294  140.2074  159.9454 H   0  0  0  0  0  0  0  0  0  0  0  0
  151.0859  142.1293  160.0626 H   0  0  0  0  0  0  0  0  0  0  0  0
  152.9949  143.0458  157.8659 H   0  0  0  0  0  0  0  0  0  0  0  0
  151.4859  142.1977  157.6317 H   0  0  0  0  0  0  0  0  0  0  0  0
  151.2358  144.6591  157.2935 H   0  0  0  0  0  0  0  0  0  0  0  0
  150.2201  144.0842  158.5943 H   0  0  0  0  0  0  0  0  0  0  0  0
  152.9262  145.4759  158.9041 H   0  0  0  0  0  0  0  0  0  0  0  0
  151.3661  146.1660  159.2828 H   0  0  0  0  0  0  0  0  0  0  0  0
  152.5203  145.3644  161.3366 H   0  0  0  0  0  0  0  0  0  0  0  0
  151.0132  144.5189  161.0876 H   0  0  0  0  0  0  0  0  0  0  0  0
  153.7886  143.4933  160.3761 H   0  0  0  0  0  0  0  0  0  0  0  0
  151.8522  142.5054  162.5247 H   0  0  0  0  0  0  0  0  0  0  0  0
  153.2929  143.4756  162.8165 H   0  0  0  0  0  0  0  0  0  0  0  0
  153.4512  141.8441  162.1933 H   0  0  0  0  0  0  0  0  0  0  0  0
  156.3616  134.5420  164.3411 H   0  0  0  0  0  0  0  0  0  0  0  0
  155.8192  133.2651  163.3058 H   0  0  0  0  0  0  0  0  0  0  0  0
  154.2032  134.4976  165.6114 H   0  0  0  0  0  0  0  0  0  0  0  0
  153.5884  133.2432  164.5445 H   0  0  0  0  0  0  0  0  0  0  0  0
  155.7392  133.0990  166.3481 H   0  0  0  0  0  0  0  0  0  0  0  0
  1 24  1  0  0  0  0
  1 25  1  0  0  0  0
  1 26  1  0  0  0  0
  1  2  1  0  0  0  0
  2 20  2  0  0  0  0
  2  3  1  0  0  0  0
  3  4  2  0  0  0  0
  4  5  1  0  0  0  0
  4 17  1  0  0  0  0
  5  6  1  0  0  0  0
  6  7  1  0  0  0  0
  6 27  1  0  0  0  0
  6 28  1  0  0  0  0
  7  8  2  0  0  0  0
  7  9  1  0  0  0  0
  9 10  1  0  0  0  0
  9 29  1  0  0  0  0
 10 15  1  0  0  0  0
 10 11  1  0  0  0  0
 10 30  1  0  0  0  0
 11 12  1  0  0  0  0
 11 31  1  0  0  0  0
 11 32  1  0  0  0  0
 12 13  1  0  0  0  0
 12 33  1  0  0  0  0
 12 34  1  0  0  0  0
 13 14  1  0  0  0  0
 13 35  1  0  0  0  0
 13 36  1  0  0  0  0
 14 15  1  0  0  0  0
 14 37  1  0  0  0  0
 14 38  1  0  0  0  0
 15 16  1  0  0  0  0
 15 39  1  0  0  0  0
 16 40  1  0  0  0  0
 16 41  1  0  0  0  0
 16 42  1  0  0  0  0
 17 18  1  0  0  0  0
 18 19  2  0  0  0  0
 18 20  1  0  0  0  0
 20 21  1  0  0  0  0
 21 22  1  0  0  0  0
 21 43  1  0  0  0  0
 21 44  1  0  0  0  0
 22 23  1  0  0  0  0
 22 45  1  0  0  0  0
 22 46  1  0  0  0  0
 23 47  1  0  0  0  0
M  CHG  1  17  -1
M  END
> <s_m_source_file>
AV-unprocessed.smi

> <i_m_source_file_index>
438

> <i_lp_mmshare_version>
43012

> <i_f3d_flags>
0

> <s_epik_input>
W09IXVtDSDJdW0NIMl1jMWMoW09IXSluYyhuYzFbQ0gzXSlTW0NIMl1DKD1PKVtOSF1bQ0BASF0yW0NIMl1bQ0gyXVtDSDJdW0NIMl1bQ0BIXTJbQ0gzXQ==

> <s_epik_cmdline>
J2VwaWtfcHl0aG9uJywgJy1waCcsICc3LjAnLCAnLXRuJywgJzgnLCAnLW1hJywgJzIwMCcsICctbWV0YWxfYmluZGluZycsICctaW1hZScsICc8aW5maWxlLm1hZT4nLCAnLW9tYWUnLCAnPG91dGZpbGUubWFlPic=

> <r_lp_tautomer_probability>
1

> <r_epik_Ionization_Penalty>
3.69231

> <r_epik_Ionization_Penalty_Charging>
0.00434774

> <r_epik_Ionization_Penalty_Neutral>
3.68796

> <r_epik_State_Penalty>
2.13826

> <r_epik_Charging_Adjusted_Penalty>
2.14261

> <i_epik_Tot_Q>
-1

> <i_epik_Tot_abs_Q>
1

> <r_epik_Metal_State_Penalty>
0.260979

> <b_epik_Metal_Only>
0

> <s_lp_Force_Field>
OPLS_2005

> <r_lp_Energy>
19.4347

> <b_lp_Chiralities_Consistent>
1

> <s_lp_Variant>
AV-unprocessed.smi:438-9

> <Gold.Version>
5.8.1

> <Gold.Id.Protein>
6NUR|6NUR_protein|mol2

> <Gold.PLP.Fitness>
51.3658

> <Gold.PLP.PLP>
-46.6988

> <Gold.PLP.part.hbond>
-2.0000

> <Gold.PLP.part.metal>
0.0000

> <Gold.PLP.part.buried>
-1.6628

> <Gold.PLP.part.nonpolar>
-44.4378

> <Gold.PLP.part.repulsive>
0.1213

> <Gold.PLP.ligand.clash>
0.0000

> <Gold.PLP.ligand.torsion>
0.6899

> <Gold.PLP.Chemscore.Hbond>
1.9825

> <Gold.PLP.Chemscore.CHOScore>
0.0000

> <Gold.PLP.Chemscore.Metal>
0.0000

> <Gold.Chemscore.Hbonds>
donor molecule, donor type, donor heavy atom, donor atom, acceptor molecule, acceptor atom, score
      P1  H  6896  6908       L1    17  1.66

> <Gold.PLP.Chemscore.Internal.Correction>
0.0993

> <Gold.Rescore>
     Score         DG    S(hbond)    S(metal)    S(lipo)     H(rot)  DE(clash)    DE(int)     intcor
     13.03     -15.27       0.41        0.00     133.17       2.79       1.56       0.68       ----

> <Gold.Chemscore.Fitness>
13.0277

> <Gold.Chemscore.DG>
-15.2668

> <Gold.Chemscore.ZeroCoef>
-5.4800

> <Gold.Chemscore.Hbond>
0.4058

> <Gold.Chemscore.Metal>
0.0000

> <Gold.Chemscore.Lipo>
133.1674

> <Gold.Chemscore.Internal_Hbond>
0.0000

> <Gold.Chemscore.DEClash>
1.5625

> <Gold.Chemscore.DEInternal>
0.6766

> <Gold.Chemscore.Rot>
2.7927

> <Gold.Chemscore.Internal.Correction>
   9.000000E+99

> <Gold.Chemscore.Hbonds>
donor molecule, donor type, donor heavy atom, donor atom, acceptor molecule, acceptor atom, score
      P1  H  6896  6908       L1    17  0.17

> <Gold.Chemscore.Hbond.Weighted>
-1.3555

> <Gold.Chemscore.Metal.Weighted>
-0.0000

> <Gold.Chemscore.Lipo.Weighted>
-15.5806

> <Gold.Chemscore.Internal_Hbond.Weighted>
0.0000

> <Gold.Chemscore.DEClash.Weighted>
1.5625

> <Gold.Chemscore.DEInternal.Weighted>
0.6766

> <Gold.Chemscore.Rot.Weighted>
7.1492

> <Gold.Chemscore.Internal.Correction.Weighted>
   9.000000E+99

> <Gold.Protein.RotatedTorsions>
[ 6907 6896 6895 6894 ] final  -67.44 input  -60.11 | X-H torsion
[ 7974 7965 7964 7962 ] final   41.57 input  175.53 | X-H torsion
[ 8008 7997 7996 7995 ] final  -63.21 input   59.86 | X-H torsion
[ 10167 10162 10161 10158 ] final  -88.61 input  -65.29 | X-H torsion
[ 10718 10713 10712 10709 ] final   81.86 input   66.30 | X-H torsion
[ 10763 10752 10751 10750 ] final -137.83 input  -60.55 | X-H torsion
[ 11005 11000 10999 10996 ] final -127.90 input  -57.11 | X-H torsion

> <Gold.Protein.ActiveResidues>
 VAL166  LYS551  ARG553  GLY616  TRP617  ASP618  TYR619  PRO620  LYS621  CYS622 
 ASP623  PHE694  ASN695  SER759  ASP760  ASP761  ALA762  ILE779  LEU786  VAL792 
 PHE793  MET794  SER795  GLU796  ALA797  LYS798  CYS799  TRP800  GLU811  SER814 

> <Gold.Protein.RotatedAtoms>
  150.7409  134.5880  159.5972 H   0  0  0  0  0  0  0  0  0  0  0  0  # atno 6907 bound_to 6896
  152.3276  134.7298  160.0307 H   0  0  0  0  0  0  0  0  0  0  0  0  # atno 6908 bound_to 6896
  151.7793  133.3312  159.3503 H   0  0  0  0  0  0  0  0  0  0  0  0  # atno 6909 bound_to 6896
  146.0812  139.5400  142.9535 H   0  0  0  0  0  0  0  0  0  0  0  0  # atno 7974 bound_to 7965
  154.4541  140.0980  156.6707 H   0  0  0  0  0  0  0  0  0  0  0  0  # atno 8008 bound_to 7997
  155.5191  140.3478  155.4385 H   0  0  0  0  0  0  0  0  0  0  0  0  # atno 8009 bound_to 7997
  156.0743  140.1357  156.9780 H   0  0  0  0  0  0  0  0  0  0  0  0  # atno 8010 bound_to 7997
  140.3730  143.2785  151.9477 H   0  0  0  0  0  0  0  0  0  0  0  0  # atno 10167 bound_to 10162
  157.6843  131.0022  150.2289 H   0  0  0  0  0  0  0  0  0  0  0  0  # atno 10718 bound_to 10713
  154.8652  135.3630  154.5286 H   0  0  0  0  0  0  0  0  0  0  0  0  # atno 10763 bound_to 10752
  153.5913  135.7015  153.5427 H   0  0  0  0  0  0  0  0  0  0  0  0  # atno 10764 bound_to 10752
  153.3371  135.4108  155.1504 H   0  0  0  0  0  0  0  0  0  0  0  0  # atno 10765 bound_to 10752
  140.9561  134.0999  157.4015 H   0  0  0  0  0  0  0  0  0  0  0  0  # atno 11005 bound_to 11000
  145.6213  141.0322  143.1913 LP  0  0  0  0  0  0  0  0  0  0  0  0  # atno 17320 bound_to 7965
  144.7295  139.7771  143.7352 LP  0  0  0  0  0  0  0  0  0  0  0  0  # atno 17321 bound_to 7965
  139.4802  144.5890  151.7805 LP  0  0  0  0  0  0  0  0  0  0  0  0  # atno 17342 bound_to 10162
  140.5014  144.1162  150.5972 LP  0  0  0  0  0  0  0  0  0  0  0  0  # atno 17343 bound_to 10162
  156.2925  130.3747  149.7827 LP  0  0  0  0  0  0  0  0  0  0  0  0  # atno 17370 bound_to 10713
  156.5482  130.8330  151.3291 LP  0  0  0  0  0  0  0  0  0  0  0  0  # atno 17371 bound_to 10713
  139.8863  135.0080  156.6488 LP  0  0  0  0  0  0  0  0  0  0  0  0  # atno 17394 bound_to 11000
  140.7534  133.8878  155.8364 LP  0  0  0  0  0  0  0  0  0  0  0  0  # atno 17395 bound_to 11000

$$$$
