AV-unprocessed.smi:3040|AV-procd|sdf|11596|dock9
  -GOLD-   2272016573D 1   1.00000     0.00000
 Structure written by MMmdl.
 39 40  0  0  0  0  0  0  0  0  1 V2000
  151.9233  145.1518  160.7164 C   0  0  0  0  0  0  0  0  0  0  0  0
  152.4046  143.8133  160.3693 N   0  0  0  0  0  0  0  0  0  0  0  0
  152.3839  143.4988  158.9336 C   0  0  0  0  0  0  0  0  0  0  0  0
  152.4560  141.9958  158.6356 C   0  0  0  0  0  0  0  0  0  0  0  0
  153.5932  141.3554  159.4415 C   0  0  2  0  0  0  0  0  0  0  0  0
  153.7121  139.8573  159.1343 C   0  0  0  0  0  0  0  0  0  0  0  0
  153.2890  139.4067  158.0692 O   0  0  0  0  0  0  0  0  0  0  0  0
  154.2563  139.0923  160.0948 N   0  0  0  0  0  0  0  0  0  0  0  0
  154.3069  137.6311  160.0856 C   0  0  0  0  0  0  0  0  0  0  0  0
  153.5308  137.0192  161.2698 C   0  0  0  0  0  0  0  0  0  0  0  0
  154.3046  137.0634  162.5620 C   0  0  0  0  0  0  0  0  0  0  0  0
  154.6171  135.9822  163.4351 C   0  0  0  0  0  0  0  0  0  0  0  0
  155.2668  136.3696  164.5208 N   0  0  0  0  0  0  0  0  0  0  0  0
  155.3957  137.7045  164.3770 N   0  0  0  0  0  0  0  0  0  0  0  0
  156.0477  138.4770  165.4126 C   0  0  0  0  0  0  0  0  0  0  0  0
  154.8369  138.1489  163.1991 C   0  0  0  0  0  0  0  0  0  0  0  0
  153.3543  141.5727  160.9502 C   0  0  0  0  0  0  0  0  0  0  0  0
  152.8886  142.9879  161.3288 C   0  0  0  0  0  0  0  0  0  0  0  0
  152.9476  143.3157  162.5144 O   0  0  0  0  0  0  0  0  0  0  0  0
  152.6746  145.7016  161.2855 H   0  0  0  0  0  0  0  0  0  0  0  0
  151.0181  145.0846  161.3213 H   0  0  0  0  0  0  0  0  0  0  0  0
  151.6894  145.7472  159.8330 H   0  0  0  0  0  0  0  0  0  0  0  0
  151.4829  143.9067  158.4733 H   0  0  0  0  0  0  0  0  0  0  0  0
  153.2297  144.0051  158.4664 H   0  0  0  0  0  0  0  0  0  0  0  0
  151.5020  141.5321  158.8928 H   0  0  0  0  0  0  0  0  0  0  0  0
  152.6018  141.8379  157.5662 H   0  0  0  0  0  0  0  0  0  0  0  0
  154.5291  141.8435  159.1622 H   0  0  0  0  0  0  0  0  0  0  0  0
  154.5867  139.5513  160.9311 H   0  0  0  0  0  0  0  0  0  0  0  0
  153.9154  137.2392  159.1453 H   0  0  0  0  0  0  0  0  0  0  0  0
  155.3508  137.3203  160.1297 H   0  0  0  0  0  0  0  0  0  0  0  0
  152.5791  137.5401  161.3757 H   0  0  0  0  0  0  0  0  0  0  0  0
  153.2714  135.9891  161.0226 H   0  0  0  0  0  0  0  0  0  0  0  0
  154.3744  134.9361  163.3210 H   0  0  0  0  0  0  0  0  0  0  0  0
  156.3597  139.4433  165.0152 H   0  0  0  0  0  0  0  0  0  0  0  0
  156.9263  137.9457  165.7804 H   0  0  0  0  0  0  0  0  0  0  0  0
  155.3538  138.6397  166.2380 H   0  0  0  0  0  0  0  0  0  0  0  0
  154.8414  139.1938  162.9257 H   0  0  0  0  0  0  0  0  0  0  0  0
  152.5967  140.8801  161.3212 H   0  0  0  0  0  0  0  0  0  0  0  0
  154.2682  141.3486  161.5020 H   0  0  0  0  0  0  0  0  0  0  0  0
  1  2  1  0  0  0  0
  1 20  1  0  0  0  0
  1 21  1  0  0  0  0
  1 22  1  0  0  0  0
  2 18  1  0  0  0  0
  2  3  1  0  0  0  0
  3  4  1  0  0  0  0
  3 23  1  0  0  0  0
  3 24  1  0  0  0  0
  4  5  1  0  0  0  0
  4 25  1  0  0  0  0
  4 26  1  0  0  0  0
  5  6  1  0  0  0  0
  5 17  1  0  0  0  0
  5 27  1  0  0  0  0
  6  7  2  0  0  0  0
  6  8  1  0  0  0  0
  8  9  1  0  0  0  0
  8 28  1  0  0  0  0
  9 10  1  0  0  0  0
  9 29  1  0  0  0  0
  9 30  1  0  0  0  0
 10 11  1  0  0  0  0
 10 31  1  0  0  0  0
 10 32  1  0  0  0  0
 11 16  2  0  0  0  0
 11 12  1  0  0  0  0
 12 13  2  0  0  0  0
 12 33  1  0  0  0  0
 13 14  1  0  0  0  0
 14 15  1  0  0  0  0
 14 16  1  0  0  0  0
 15 34  1  0  0  0  0
 15 35  1  0  0  0  0
 15 36  1  0  0  0  0
 16 37  1  0  0  0  0
 17 18  1  0  0  0  0
 17 38  1  0  0  0  0
 17 39  1  0  0  0  0
 18 19  2  0  0  0  0
M  END
> <s_m_source_file>
AV-unprocessed.smi

> <i_m_source_file_index>
3040

> <i_lp_mmshare_version>
43012

> <i_f3d_flags>
0

> <s_epik_input>
W0NIM11OMVtDSDJdW0NIMl1bQ0BIXShbQ0gyXUMxPU8pQyg9TylbTkhdW0NIMl1bQ0gyXWMyW2NIXW5uKFtDSDNdKVtjSF0y

> <s_epik_cmdline>
J2VwaWtfcHl0aG9uJywgJy1waCcsICc3LjAnLCAnLXRuJywgJzgnLCAnLW1hJywgJzIwMCcsICctbWV0YWxfYmluZGluZycsICctaW1hZScsICc8aW5maWxlLm1hZT4nLCAnLW9tYWUnLCAnPG91dGZpbGUubWFlPic=

> <r_lp_tautomer_probability>
1

> <r_epik_Ionization_Penalty>
0.000456436

> <r_epik_Ionization_Penalty_Charging>
0

> <r_epik_Ionization_Penalty_Neutral>
0.000456436

> <r_epik_State_Penalty>
-0

> <r_epik_Charging_Adjusted_Penalty>
0

> <i_epik_Tot_Q>
0

> <i_epik_Tot_abs_Q>
0

> <r_epik_Metal_State_Penalty>
-0

> <b_epik_Metal_Only>
0

> <s_lp_Force_Field>
OPLS_2005

> <r_lp_Energy>
9.8739

> <b_lp_Chiralities_Consistent>
1

> <s_lp_Variant>
AV-unprocessed.smi:3040-2

> <Gold.Version>
5.8.1

> <Gold.Id.Protein>
6NUR|6NUR_protein|mol2

> <Gold.PLP.Fitness>
42.8756

> <Gold.PLP.PLP>
-41.4957

> <Gold.PLP.part.hbond>
-1.0000

> <Gold.PLP.part.metal>
0.0000

> <Gold.PLP.part.buried>
-4.2631

> <Gold.PLP.part.nonpolar>
-35.3178

> <Gold.PLP.part.repulsive>
0.2888

> <Gold.PLP.ligand.clash>
0.0000

> <Gold.PLP.ligand.torsion>
0.8183

> <Gold.PLP.Chemscore.Hbond>
1.0000

> <Gold.PLP.Chemscore.CHOScore>
0.0000

> <Gold.PLP.Chemscore.Metal>
0.0000

> <Gold.Chemscore.Hbonds>
donor molecule, donor type, donor heavy atom, donor atom, acceptor molecule, acceptor atom, score
      P1  H  7997  8010       L1     7  1.00

> <Gold.PLP.Chemscore.Internal.Correction>
0.0164

> <Gold.Rescore>
     Score         DG    S(hbond)    S(metal)    S(lipo)     H(rot)  DE(clash)    DE(int)     intcor
     13.30     -14.69       0.68        0.00      95.51       1.65       0.51       0.88       ----

> <Gold.Chemscore.Fitness>
13.3016

> <Gold.Chemscore.DG>
-14.6876

> <Gold.Chemscore.ZeroCoef>
-5.4800

> <Gold.Chemscore.Hbond>
0.6785

> <Gold.Chemscore.Metal>
0.0000

> <Gold.Chemscore.Lipo>
95.5106

> <Gold.Chemscore.Internal_Hbond>
0.0000

> <Gold.Chemscore.DEClash>
0.5074

> <Gold.Chemscore.DEInternal>
0.8786

> <Gold.Chemscore.Rot>
1.6536

> <Gold.Chemscore.Internal.Correction>
   9.000000E+99

> <Gold.Chemscore.Hbonds>
donor molecule, donor type, donor heavy atom, donor atom, acceptor molecule, acceptor atom, score
      P1  H  7997  8010       L1     7  0.44

> <Gold.Chemscore.Hbond.Weighted>
-2.2660

> <Gold.Chemscore.Metal.Weighted>
-0.0000

> <Gold.Chemscore.Lipo.Weighted>
-11.1747

> <Gold.Chemscore.Internal_Hbond.Weighted>
0.0000

> <Gold.Chemscore.DEClash.Weighted>
0.5074

> <Gold.Chemscore.DEInternal.Weighted>
0.8786

> <Gold.Chemscore.Rot.Weighted>
4.2332

> <Gold.Chemscore.Internal.Correction.Weighted>
   9.000000E+99

> <Gold.Protein.RotatedTorsions>
[ 6907 6896 6895 6894 ] final   25.80 input  -60.11 | X-H torsion
[ 7974 7965 7964 7962 ] final   50.00 input  175.53 | X-H torsion
[ 8008 7997 7996 7995 ] final   50.25 input   59.86 | X-H torsion
[ 10167 10162 10161 10158 ] final   78.49 input  -65.29 | X-H torsion
[ 10718 10713 10712 10709 ] final  138.42 input   66.30 | X-H torsion
[ 10763 10752 10751 10750 ] final  178.09 input  -60.55 | X-H torsion
[ 11005 11000 10999 10996 ] final   39.32 input  -57.11 | X-H torsion

> <Gold.Protein.ActiveResidues>
 VAL166  LYS551  ARG553  GLY616  TRP617  ASP618  TYR619  PRO620  LYS621  CYS622 
 ASP623  PHE694  ASN695  SER759  ASP760  ASP761  ALA762  ILE779  LEU786  VAL792 
 PHE793  MET794  SER795  GLU796  ALA797  LYS798  CYS799  TRP800  GLU811  SER814 

> <Gold.Protein.RotatedAtoms>
  151.9780  135.0043  160.0555 H   0  0  0  0  0  0  0  0  0  0  0  0  # atno 6907 bound_to 6896
  152.1723  133.4647  159.4923 H   0  0  0  0  0  0  0  0  0  0  0  0  # atno 6908 bound_to 6896
  150.6903  134.1855  159.4308 H   0  0  0  0  0  0  0  0  0  0  0  0  # atno 6909 bound_to 6896
  146.0054  139.4485  142.9989 H   0  0  0  0  0  0  0  0  0  0  0  0  # atno 7974 bound_to 7965
  155.4156  140.3444  155.4267 H   0  0  0  0  0  0  0  0  0  0  0  0  # atno 8008 bound_to 7997
  156.1423  140.1546  156.8933 H   0  0  0  0  0  0  0  0  0  0  0  0  # atno 8009 bound_to 7997
  154.4981  140.0822  156.7721 H   0  0  0  0  0  0  0  0  0  0  0  0  # atno 8010 bound_to 7997
  139.9704  144.5898  150.7991 H   0  0  0  0  0  0  0  0  0  0  0  0  # atno 10167 bound_to 10162
  157.4255  131.1043  151.0307 H   0  0  0  0  0  0  0  0  0  0  0  0  # atno 10718 bound_to 10713
  154.5031  135.2784  155.1404 H   0  0  0  0  0  0  0  0  0  0  0  0  # atno 10763 bound_to 10752
  154.3029  135.6244  153.5436 H   0  0  0  0  0  0  0  0  0  0  0  0  # atno 10764 bound_to 10752
  152.9906  135.5701  154.5479 H   0  0  0  0  0  0  0  0  0  0  0  0  # atno 10765 bound_to 10752
  140.2039  134.3837  155.8082 H   0  0  0  0  0  0  0  0  0  0  0  0  # atno 11005 bound_to 11000
  145.7423  141.0003  143.1294 LP  0  0  0  0  0  0  0  0  0  0  0  0  # atno 17320 bound_to 7965
  144.6934  139.9114  143.7463 LP  0  0  0  0  0  0  0  0  0  0  0  0  # atno 17321 bound_to 7965
  140.7524  143.2989  151.3132 LP  0  0  0  0  0  0  0  0  0  0  0  0  # atno 17342 bound_to 10162
  139.6485  144.0405  152.2609 LP  0  0  0  0  0  0  0  0  0  0  0  0  # atno 17343 bound_to 10162
  157.1222  130.6066  149.5508 LP  0  0  0  0  0  0  0  0  0  0  0  0  # atno 17370 bound_to 10713
  155.9895  130.4943  150.7217 LP  0  0  0  0  0  0  0  0  0  0  0  0  # atno 17371 bound_to 10713
  141.2227  133.7108  156.8304 LP  0  0  0  0  0  0  0  0  0  0  0  0  # atno 17394 bound_to 11000
  140.2024  134.8887  157.3184 LP  0  0  0  0  0  0  0  0  0  0  0  0  # atno 17395 bound_to 11000

$$$$
