AV-unprocessed.smi:372|AV-procd|sdf|2448|dock6
  -GOLD-   2262022383D 1   1.00000     0.00000
 Structure written by MMmdl.
 22 23  0  0  0  0  0  0  0  0  2 V2000
  151.0781  140.0592  157.3648 C   0  0  0  0  0  0  0  0  0  0  0  0
  152.0428  139.2773  158.2804 C   0  0  2  0  0  0  0  0  0  0  0  0
  152.6160  140.1945  159.3823 C   0  0  0  0  0  0  0  0  0  0  0  0
  152.2338  141.5547  159.5076 C   0  0  0  0  0  0  0  0  0  0  0  0
  152.7858  142.3282  160.5463 C   0  0  0  0  0  0  0  0  0  0  0  0
  153.6969  141.7264  161.4329 C   0  0  0  0  0  0  0  0  0  0  0  0
  154.0144  140.3693  161.2395 C   0  0  0  0  0  0  0  0  0  0  0  0
  153.4899  139.6203  160.2473 N   0  0  0  0  0  0  0  0  0  0  0  0
  153.0663  138.6461  157.4527 N   0  5  0  0  0  0  0  0  0  0  0  0
  153.0102  137.3046  157.6180 C   0  0  0  0  0  0  0  0  0  0  0  0
  153.7295  136.4521  157.1026 O   0  0  0  0  0  0  0  0  0  0  0  0
  152.0198  136.9753  158.4504 N   0  0  0  0  0  0  0  0  0  0  0  0
  151.3608  138.0466  158.8798 C   0  0  0  0  0  0  0  0  0  0  0  0
  150.3679  138.0544  159.6079 O   0  0  0  0  0  0  0  0  0  0  0  0
  150.2504  140.4907  157.9287 H   0  0  0  0  0  0  0  0  0  0  0  0
  150.6463  139.4214  156.5920 H   0  0  0  0  0  0  0  0  0  0  0  0
  151.5935  140.8789  156.8630 H   0  0  0  0  0  0  0  0  0  0  0  0
  151.5296  142.0124  158.8292 H   0  0  0  0  0  0  0  0  0  0  0  0
  152.5124  143.3666  160.6613 H   0  0  0  0  0  0  0  0  0  0  0  0
  154.1393  142.2895  162.2410 H   0  0  0  0  0  0  0  0  0  0  0  0
  154.7081  139.8707  161.9002 H   0  0  0  0  0  0  0  0  0  0  0  0
  151.7847  136.0267  158.7011 H   0  0  0  0  0  0  0  0  0  0  0  0
  1  2  1  0  0  0  0
  1 15  1  0  0  0  0
  1 16  1  0  0  0  0
  1 17  1  0  0  0  0
  2 13  1  0  0  0  0
  2  3  1  0  0  0  0
  2  9  1  0  0  0  0
  3  8  1  0  0  0  0
  3  4  2  0  0  0  0
  4  5  1  0  0  0  0
  4 18  1  0  0  0  0
  5  6  2  0  0  0  0
  5 19  1  0  0  0  0
  6  7  1  0  0  0  0
  6 20  1  0  0  0  0
  7  8  2  0  0  0  0
  7 21  1  0  0  0  0
  9 10  1  0  0  0  0
 10 11  2  0  0  0  0
 10 12  1  0  0  0  0
 12 13  1  0  0  0  0
 12 22  1  0  0  0  0
 13 14  2  0  0  0  0
M  CHG  1   9  -1
M  END
> <s_m_source_file>
AV-unprocessed.smi

> <i_m_source_file_index>
372

> <i_lp_mmshare_version>
43012

> <i_f3d_flags>
0

> <s_epik_input>
Tz1DMVtOSF1DKD1PKVtOSF1bQ0BAXTEoW0NIM10pYzJbY0hdW2NIXVtjSF1bY0hdbjI=

> <s_epik_cmdline>
J2VwaWtfcHl0aG9uJywgJy1waCcsICc3LjAnLCAnLXRuJywgJzgnLCAnLW1hJywgJzIwMCcsICctbWV0YWxfYmluZGluZycsICctaW1hZScsICc8aW5maWxlLm1hZT4nLCAnLW9tYWUnLCAnPG91dGZpbGUubWFlPic=

> <r_lp_tautomer_probability>
1

> <r_epik_Ionization_Penalty>
4.88994

> <r_epik_Ionization_Penalty_Charging>
4.8337

> <r_epik_Ionization_Penalty_Neutral>
0.0562367

> <r_epik_State_Penalty>
4.86848

> <r_epik_Charging_Adjusted_Penalty>
9.70218

> <i_epik_Tot_Q>
-1

> <i_epik_Tot_abs_Q>
1

> <r_epik_Metal_State_Penalty>
1.42536

> <b_epik_Metal_Only>
1

> <s_lp_Force_Field>
OPLS_2005

> <r_lp_Energy>
15.0122

> <b_lp_Chiralities_Consistent>
1

> <s_lp_Variant>
AV-unprocessed.smi:372-6

> <Gold.Version>
5.8.1

> <Gold.Id.Protein>
6NUR|6NUR_protein|mol2

> <Gold.PLP.Fitness>
32.5068

> <Gold.PLP.PLP>
-23.5331

> <Gold.PLP.part.hbond>
-2.7551

> <Gold.PLP.part.metal>
0.0000

> <Gold.PLP.part.buried>
-3.7663

> <Gold.PLP.part.nonpolar>
-17.3289

> <Gold.PLP.part.repulsive>
0.1146

> <Gold.PLP.ligand.clash>
0.0000

> <Gold.PLP.ligand.torsion>
0.0280

> <Gold.PLP.Chemscore.Hbond>
2.9920

> <Gold.PLP.Chemscore.CHOScore>
0.0000

> <Gold.PLP.Chemscore.Metal>
0.0000

> <Gold.Chemscore.Hbonds>
donor molecule, donor type, donor heavy atom, donor atom, acceptor molecule, acceptor atom, score
      P1  H  7997  8008       L1     9  1.69
      P1  H 10752 10764       L1    11  0.94

> <Gold.PLP.Chemscore.Internal.Correction>
0.0536

> <Gold.Rescore>
     Score         DG    S(hbond)    S(metal)    S(lipo)     H(rot)  DE(clash)    DE(int)     intcor
     14.90     -14.94       1.71        0.00      53.79       1.00       0.00       0.04       ----

> <Gold.Chemscore.Fitness>
14.9000

> <Gold.Chemscore.DG>
-14.9370

> <Gold.Chemscore.ZeroCoef>
-5.4800

> <Gold.Chemscore.Hbond>
1.7136

> <Gold.Chemscore.Metal>
0.0000

> <Gold.Chemscore.Lipo>
53.7912

> <Gold.Chemscore.Internal_Hbond>
0.0000

> <Gold.Chemscore.DEClash>
0.0000

> <Gold.Chemscore.DEInternal>
0.0370

> <Gold.Chemscore.Rot>
1.0000

> <Gold.Chemscore.Internal.Correction>
   9.000000E+99

> <Gold.Chemscore.Hbonds>
donor molecule, donor type, donor heavy atom, donor atom, acceptor molecule, acceptor atom, score
      P1  H  7997  8008       L1     9  0.61
      P1  H 10752 10764       L1    11  0.86

> <Gold.Chemscore.Hbond.Weighted>
-5.7235

> <Gold.Chemscore.Metal.Weighted>
-0.0000

> <Gold.Chemscore.Lipo.Weighted>
-6.2936

> <Gold.Chemscore.Internal_Hbond.Weighted>
0.0000

> <Gold.Chemscore.DEClash.Weighted>
0.0000

> <Gold.Chemscore.DEInternal.Weighted>
0.0370

> <Gold.Chemscore.Rot.Weighted>
2.5600

> <Gold.Chemscore.Internal.Correction.Weighted>
   9.000000E+99

> <Gold.Protein.RotatedTorsions>
[ 6907 6896 6895 6894 ] final  -93.92 input  -60.11 | X-H torsion
[ 7974 7965 7964 7962 ] final  -49.86 input  175.53 | X-H torsion
[ 8008 7997 7996 7995 ] final  -84.89 input   59.86 | X-H torsion
[ 10167 10162 10161 10158 ] final -156.64 input  -65.29 | X-H torsion
[ 10718 10713 10712 10709 ] final  171.40 input   66.30 | X-H torsion
[ 10763 10752 10751 10750 ] final   25.75 input  -60.55 | X-H torsion
[ 11005 11000 10999 10996 ] final  -32.10 input  -57.11 | X-H torsion

> <Gold.Protein.ActiveResidues>
 VAL166  LYS551  ARG553  GLY616  TRP617  ASP618  TYR619  PRO620  LYS621  CYS622 
 ASP623  PHE694  ASN695  SER759  ASP760  ASP761  ALA762  ILE779  LEU786  VAL792 
 PHE793  MET794  SER795  GLU796  ALA797  LYS798  CYS799  TRP800  GLU811  SER814 

> <Gold.Protein.RotatedAtoms>
  150.6931  134.1892  159.4278 H   0  0  0  0  0  0  0  0  0  0  0  0  # atno 6907 bound_to 6896
  151.9864  135.0000  160.0569 H   0  0  0  0  0  0  0  0  0  0  0  0  # atno 6908 bound_to 6896
  152.1708  133.4607  159.4945 H   0  0  0  0  0  0  0  0  0  0  0  0  # atno 6909 bound_to 6896
  145.9360  140.7706  142.9576 H   0  0  0  0  0  0  0  0  0  0  0  0  # atno 7974 bound_to 7965
  154.6347  140.0599  156.9774 H   0  0  0  0  0  0  0  0  0  0  0  0  # atno 8008 bound_to 7997
  155.1610  140.3282  155.4393 H   0  0  0  0  0  0  0  0  0  0  0  0  # atno 8009 bound_to 7997
  156.2501  140.1931  156.6717 H   0  0  0  0  0  0  0  0  0  0  0  0  # atno 8010 bound_to 7997
  139.6834  143.9543  152.2348 H   0  0  0  0  0  0  0  0  0  0  0  0  # atno 10167 bound_to 10162
  156.9941  131.0156  151.2848 H   0  0  0  0  0  0  0  0  0  0  0  0  # atno 10718 bound_to 10713
  153.0670  135.6576  154.0333 H   0  0  0  0  0  0  0  0  0  0  0  0  # atno 10763 bound_to 10752
  153.9987  135.2939  155.3406 H   0  0  0  0  0  0  0  0  0  0  0  0  # atno 10764 bound_to 10752
  154.7031  135.5236  153.8624 H   0  0  0  0  0  0  0  0  0  0  0  0  # atno 10765 bound_to 10752
  140.9523  133.7213  156.1240 H   0  0  0  0  0  0  0  0  0  0  0  0  # atno 11005 bound_to 11000
  144.6772  140.2203  143.7367 LP  0  0  0  0  0  0  0  0  0  0  0  0  # atno 17320 bound_to 7965
  145.8363  139.2109  143.1853 LP  0  0  0  0  0  0  0  0  0  0  0  0  # atno 17321 bound_to 7965
  139.9339  144.6724  150.8335 LP  0  0  0  0  0  0  0  0  0  0  0  0  # atno 17342 bound_to 10162
  140.7659  143.3290  151.2452 LP  0  0  0  0  0  0  0  0  0  0  0  0  # atno 17343 bound_to 10162
  157.5437  130.8137  149.8060 LP  0  0  0  0  0  0  0  0  0  0  0  0  # atno 17370 bound_to 10713
  156.0196  130.3800  150.2004 LP  0  0  0  0  0  0  0  0  0  0  0  0  # atno 17371 bound_to 10713
  140.7584  134.3966  157.5530 LP  0  0  0  0  0  0  0  0  0  0  0  0  # atno 17394 bound_to 11000
  139.8851  134.8946  156.2661 LP  0  0  0  0  0  0  0  0  0  0  0  0  # atno 17395 bound_to 11000

$$$$
