AV-unprocessed.smi:2227|AV-procd|sdf|9021|dock9
  -GOLD-   2272012223D 1   1.00000     0.00000
 Structure written by MMmdl.
 43 45  0  0  0  0  0  0  0  0  2 V2000
  150.3124  137.6829  155.8444 C   0  0  0  0  0  0  0  0  0  0  0  0
  150.7629  138.7922  154.8836 C   0  0  0  0  0  0  0  0  0  0  0  0
  152.1429  139.3463  155.2682 C   0  0  0  0  0  0  0  0  0  0  0  0
  149.7302  139.8826  154.7934 C   0  0  0  0  0  0  0  0  0  0  0  0
  148.9793  140.1375  153.7140 N   0  3  0  0  0  0  0  0  0  0  0  0
  148.1649  141.2129  153.9364 C   0  0  0  0  0  0  0  0  0  0  0  0
  148.4357  141.6453  155.2070 C   0  0  0  0  0  0  0  0  0  0  0  0
  149.4056  140.8151  155.7106 N   0  0  0  0  0  0  0  0  0  0  0  0
  150.0111  140.9193  157.0468 C   0  0  0  0  0  0  0  0  0  0  0  0
  150.9042  142.1561  157.1706 C   0  0  0  0  0  0  0  0  0  0  0  0
  150.9919  142.9481  156.2326 O   0  0  0  0  0  0  0  0  0  0  0  0
  151.5671  142.2986  158.3285 N   0  0  0  0  0  0  0  0  0  0  0  0
  152.4789  143.3881  158.6604 C   0  0  0  0  0  0  0  0  0  0  0  0
  153.2415  143.1009  159.9413 C   0  0  0  0  0  0  0  0  0  0  0  0
  153.5087  141.6882  160.4042 C   0  0  0  0  0  0  0  0  0  0  0  0
  152.5374  142.5624  161.1640 C   0  0  0  0  0  0  0  0  0  0  0  0
  151.7688  144.7287  158.7565 C   0  0  0  0  0  0  0  0  0  0  0  0
  151.9801  145.6494  159.9355 C   0  0  0  0  0  0  0  0  0  0  0  0
  150.6495  144.9589  159.7449 C   0  0  0  0  0  0  0  0  0  0  0  0
  149.3533  137.2633  155.5391 H   0  0  0  0  0  0  0  0  0  0  0  0
  150.2009  138.0592  156.8617 H   0  0  0  0  0  0  0  0  0  0  0  0
  151.0353  136.8671  155.8694 H   0  0  0  0  0  0  0  0  0  0  0  0
  150.8549  138.3574  153.8900 H   0  0  0  0  0  0  0  0  0  0  0  0
  152.4730  140.1033  154.5562 H   0  0  0  0  0  0  0  0  0  0  0  0
  152.8930  138.5551  155.2775 H   0  0  0  0  0  0  0  0  0  0  0  0
  152.1314  139.8021  156.2588 H   0  0  0  0  0  0  0  0  0  0  0  0
  147.4759  141.5832  153.1913 H   0  0  0  0  0  0  0  0  0  0  0  0
  148.0245  142.4677  155.7747 H   0  0  0  0  0  0  0  0  0  0  0  0
  149.2072  140.9879  157.7805 H   0  0  0  0  0  0  0  0  0  0  0  0
  150.5558  139.9986  157.2606 H   0  0  0  0  0  0  0  0  0  0  0  0
  151.4286  141.5965  159.0411 H   0  0  0  0  0  0  0  0  0  0  0  0
  153.2213  143.4665  157.8633 H   0  0  0  0  0  0  0  0  0  0  0  0
  154.0428  143.8123  160.1347 H   0  0  0  0  0  0  0  0  0  0  0  0
  153.0903  140.8701  159.8216 H   0  0  0  0  0  0  0  0  0  0  0  0
  154.4723  141.4857  160.8672 H   0  0  0  0  0  0  0  0  0  0  0  0
  152.8523  142.9432  162.1333 H   0  0  0  0  0  0  0  0  0  0  0  0
  151.4802  142.3195  161.0793 H   0  0  0  0  0  0  0  0  0  0  0  0
  151.6462  145.2204  157.7930 H   0  0  0  0  0  0  0  0  0  0  0  0
  152.6101  145.2998  160.7508 H   0  0  0  0  0  0  0  0  0  0  0  0
  152.0278  146.7178  159.7348 H   0  0  0  0  0  0  0  0  0  0  0  0
  149.8084  145.5668  159.4176 H   0  0  0  0  0  0  0  0  0  0  0  0
  150.4033  144.1567  160.4374 H   0  0  0  0  0  0  0  0  0  0  0  0
  149.0153  139.6071  152.8527 H   0  0  0  0  0  0  0  0  0  0  0  0
  1  2  1  0  0  0  0
  1 20  1  0  0  0  0
  1 21  1  0  0  0  0
  1 22  1  0  0  0  0
  2  3  1  0  0  0  0
  2  4  1  0  0  0  0
  2 23  1  0  0  0  0
  3 24  1  0  0  0  0
  3 25  1  0  0  0  0
  3 26  1  0  0  0  0
  4  8  1  0  0  0  0
  4  5  2  0  0  0  0
  5  6  1  0  0  0  0
  5 43  1  0  0  0  0
  6  7  2  0  0  0  0
  6 27  1  0  0  0  0
  7  8  1  0  0  0  0
  7 28  1  0  0  0  0
  8  9  1  0  0  0  0
  9 10  1  0  0  0  0
  9 29  1  0  0  0  0
  9 30  1  0  0  0  0
 10 11  2  0  0  0  0
 10 12  1  0  0  0  0
 12 13  1  0  0  0  0
 12 31  1  0  0  0  0
 13 14  1  0  0  0  0
 13 17  1  0  0  0  0
 13 32  1  0  0  0  0
 14 16  1  0  0  0  0
 14 15  1  0  0  0  0
 14 33  1  0  0  0  0
 15 16  1  0  0  0  0
 15 34  1  0  0  0  0
 15 35  1  0  0  0  0
 16 36  1  0  0  0  0
 16 37  1  0  0  0  0
 17 19  1  0  0  0  0
 17 18  1  0  0  0  0
 17 38  1  0  0  0  0
 18 19  1  0  0  0  0
 18 39  1  0  0  0  0
 18 40  1  0  0  0  0
 19 41  1  0  0  0  0
 19 42  1  0  0  0  0
M  CHG  1   5   1
M  END
> <s_m_source_file>
AV-unprocessed.smi

> <i_m_source_file_index>
2227

> <i_lp_mmshare_version>
43012

> <i_f3d_flags>
0

> <s_epik_input>
W0NIM11bQ0hdKFtDSDNdKWMxbltjSF1bY0hdbjFbQ0gyXUMoPU8pW05IXVtDSF0oW0NIXTJbQ0gyXVtDSDJdMilbQ0hdM1tDSDJdW0NIMl0z

> <s_epik_cmdline>
J2VwaWtfcHl0aG9uJywgJy1waCcsICc3LjAnLCAnLXRuJywgJzgnLCAnLW1hJywgJzIwMCcsICctbWV0YWxfYmluZGluZycsICctaW1hZScsICc8aW5maWxlLm1hZT4nLCAnLW9tYWUnLCAnPG91dGZpbGUubWFlPic=

> <r_lp_tautomer_probability>
1

> <r_epik_Ionization_Penalty>
0.258813

> <r_epik_Ionization_Penalty_Charging>
0

> <r_epik_Ionization_Penalty_Neutral>
0.258813

> <r_epik_State_Penalty>
0.250457

> <r_epik_Charging_Adjusted_Penalty>
0.250457

> <i_epik_Tot_Q>
1

> <i_epik_Tot_abs_Q>
1

> <r_epik_Metal_State_Penalty>
0.539096

> <b_epik_Metal_Only>
0

> <s_lp_Force_Field>
OPLS_2005

> <r_lp_Energy>
28.4044

> <b_lp_Chiralities_Consistent>
1

> <s_lp_Variant>
AV-unprocessed.smi:2227-1

> <Gold.Version>
5.8.1

> <Gold.Id.Protein>
6NUR|6NUR_protein|mol2

> <Gold.PLP.Fitness>
50.3700

> <Gold.PLP.PLP>
-46.5030

> <Gold.PLP.part.hbond>
-1.0000

> <Gold.PLP.part.metal>
0.0000

> <Gold.PLP.part.buried>
-3.5380

> <Gold.PLP.part.nonpolar>
-44.4612

> <Gold.PLP.part.repulsive>
2.4957

> <Gold.PLP.ligand.clash>
0.0000

> <Gold.PLP.ligand.torsion>
1.5621

> <Gold.PLP.Chemscore.Hbond>
0.7520

> <Gold.PLP.Chemscore.CHOScore>
0.8527

> <Gold.PLP.Chemscore.Metal>
0.0000

> <Gold.Chemscore.Hbonds>
donor molecule, donor type, donor heavy atom, donor atom, acceptor molecule, acceptor atom, score
      L1  H     5    43       P1  7957  0.66
      L1  C     7    28       P1  8028  0.88

> <Gold.PLP.Chemscore.Internal.Correction>
2.1770

> <Gold.Rescore>
     Score         DG    S(hbond)    S(metal)    S(lipo)     H(rot)  DE(clash)    DE(int)     intcor
     15.17     -18.05       0.88        0.00     120.35       1.74       1.36       1.51       ----

> <Gold.Chemscore.Fitness>
15.1708

> <Gold.Chemscore.DG>
-18.0500

> <Gold.Chemscore.ZeroCoef>
-5.4800

> <Gold.Chemscore.Hbond>
0.8806

> <Gold.Chemscore.Metal>
0.0000

> <Gold.Chemscore.Lipo>
120.3525

> <Gold.Chemscore.Internal_Hbond>
0.0000

> <Gold.Chemscore.DEClash>
1.3649

> <Gold.Chemscore.DEInternal>
1.5143

> <Gold.Chemscore.Rot>
1.7392

> <Gold.Chemscore.Internal.Correction>
   9.000000E+99

> <Gold.Chemscore.Hbonds>
donor molecule, donor type, donor heavy atom, donor atom, acceptor molecule, acceptor atom, score
      L1  H     5    43       P1  7957  0.66

> <Gold.Chemscore.Hbond.Weighted>
-2.9411

> <Gold.Chemscore.Metal.Weighted>
-0.0000

> <Gold.Chemscore.Lipo.Weighted>
-14.0812

> <Gold.Chemscore.Internal_Hbond.Weighted>
0.0000

> <Gold.Chemscore.DEClash.Weighted>
1.3649

> <Gold.Chemscore.DEInternal.Weighted>
1.5143

> <Gold.Chemscore.Rot.Weighted>
4.4524

> <Gold.Chemscore.Internal.Correction.Weighted>
   9.000000E+99

> <Gold.Protein.RotatedTorsions>
[ 6907 6896 6895 6894 ] final   57.17 input  -60.11 | X-H torsion
[ 7974 7965 7964 7962 ] final   29.68 input  175.53 | X-H torsion
[ 8008 7997 7996 7995 ] final   50.33 input   59.86 | X-H torsion
[ 10167 10162 10161 10158 ] final -142.68 input  -65.29 | X-H torsion
[ 10718 10713 10712 10709 ] final   42.77 input   66.30 | X-H torsion
[ 10763 10752 10751 10750 ] final  -18.75 input  -60.55 | X-H torsion
[ 11005 11000 10999 10996 ] final  -52.00 input  -57.11 | X-H torsion

> <Gold.Protein.ActiveResidues>
 VAL166  LYS551  ARG553  GLY616  TRP617  ASP618  TYR619  PRO620  LYS621  CYS622 
 ASP623  PHE694  ASN695  SER759  ASP760  ASP761  ALA762  ILE779  LEU786  VAL792 
 PHE793  MET794  SER795  GLU796  ALA797  LYS798  CYS799  TRP800  GLU811  SER814 

> <Gold.Protein.RotatedAtoms>
  152.3706  134.6739  160.0177 H   0  0  0  0  0  0  0  0  0  0  0  0  # atno 6907 bound_to 6896
  151.7033  133.3306  159.3280 H   0  0  0  0  0  0  0  0  0  0  0  0  # atno 6908 bound_to 6896
  150.7671  134.6531  159.6343 H   0  0  0  0  0  0  0  0  0  0  0  0  # atno 6909 bound_to 6896
  146.1657  139.6889  142.9003 H   0  0  0  0  0  0  0  0  0  0  0  0  # atno 7974 bound_to 7965
  155.4170  140.3445  155.4268 H   0  0  0  0  0  0  0  0  0  0  0  0  # atno 8008 bound_to 7997
  156.1415  140.1543  156.8944 H   0  0  0  0  0  0  0  0  0  0  0  0  # atno 8009 bound_to 7997
  154.4975  140.0824  156.7709 H   0  0  0  0  0  0  0  0  0  0  0  0  # atno 8010 bound_to 7997
  139.8065  143.7761  152.2661 H   0  0  0  0  0  0  0  0  0  0  0  0  # atno 10167 bound_to 10162
  157.4086  130.7901  149.7410 H   0  0  0  0  0  0  0  0  0  0  0  0  # atno 10718 bound_to 10713
  153.5941  135.7001  153.5411 H   0  0  0  0  0  0  0  0  0  0  0  0  # atno 10763 bound_to 10752
  153.3153  135.4089  155.1370 H   0  0  0  0  0  0  0  0  0  0  0  0  # atno 10764 bound_to 10752
  154.8595  135.3682  154.5474 H   0  0  0  0  0  0  0  0  0  0  0  0  # atno 10765 bound_to 10752
  141.0901  133.6634  156.3960 H   0  0  0  0  0  0  0  0  0  0  0  0  # atno 11005 bound_to 11000
  145.4473  141.0426  143.2824 LP  0  0  0  0  0  0  0  0  0  0  0  0  # atno 17320 bound_to 7965
  144.8089  139.5999  143.7038 LP  0  0  0  0  0  0  0  0  0  0  0  0  # atno 17321 bound_to 7965
  139.7897  144.7415  150.9972 LP  0  0  0  0  0  0  0  0  0  0  0  0  # atno 17342 bound_to 10162
  140.7819  143.4455  151.0489 LP  0  0  0  0  0  0  0  0  0  0  0  0  # atno 17343 bound_to 10162
  155.9844  130.3992  150.3315 LP  0  0  0  0  0  0  0  0  0  0  0  0  # atno 17370 bound_to 10713
  157.1451  131.0306  151.2910 LP  0  0  0  0  0  0  0  0  0  0  0  0  # atno 17371 bound_to 10713
  140.5271  134.6248  157.5338 LP  0  0  0  0  0  0  0  0  0  0  0  0  # atno 17394 bound_to 11000
  139.9726  134.7268  156.0012 LP  0  0  0  0  0  0  0  0  0  0  0  0  # atno 17395 bound_to 11000

$$$$
