AV-unprocessed.smi:1279|AV-procd|sdf|5356|dock8
  -GOLD-   22720 4493D 1   1.00000     0.00000
 Structure written by MMmdl.
 46 47  0  0  0  0  0  0  0  0  2 V2000
  150.4947  142.2805  155.8059 C   0  0  0  0  0  0  0  0  0  0  0  0
  150.1484  141.0008  155.1040 C   0  0  0  0  0  0  0  0  0  0  0  0
  148.9458  140.6780  154.4105 C   0  0  0  0  0  0  0  0  0  0  0  0
  149.1809  139.4015  153.9781 C   0  0  0  0  0  0  0  0  0  0  0  0
  148.3752  138.5831  153.2504 N   0  0  0  0  0  0  0  0  0  0  0  0
  147.0427  138.6486  153.0833 C   0  0  0  0  0  0  0  0  0  0  0  0
  146.2989  139.4941  153.5810 O   0  0  0  0  0  0  0  0  0  0  0  0
  146.6026  137.6554  152.2974 N   0  0  0  0  0  0  0  0  0  0  0  0
  145.2092  137.4419  151.9229 C   0  0  0  0  0  0  0  0  0  0  0  0
  144.6874  136.0848  152.4341 C   0  0  0  0  0  0  0  0  0  0  0  0
  144.8351  135.0028  151.4280 N   0  3  2  0  0  0  0  0  0  0  0  0
  143.6263  134.1419  151.3524 C   0  0  0  0  0  0  0  0  0  0  0  0
  143.7427  133.1081  150.2178 C   0  0  0  0  0  0  0  0  0  0  0  0
  145.0113  132.2458  150.3434 C   0  0  2  0  0  0  0  0  0  0  0  0
  144.9133  131.2042  151.4721 C   0  0  0  0  0  0  0  0  0  0  0  0
  146.2391  133.1638  150.4832 C   0  0  0  0  0  0  0  0  0  0  0  0
  146.0707  134.1959  151.6129 C   0  0  0  0  0  0  0  0  0  0  0  0
  150.4360  139.0152  154.3932 N   0  0  0  0  0  0  0  0  0  0  0  0
  151.1323  137.7615  154.1786 C   0  0  0  0  0  0  0  0  0  0  0  0
  151.0307  140.0078  155.0897 N   0  0  0  0  0  0  0  0  0  0  0  0
  149.6802  143.0017  155.7353 H   0  0  0  0  0  0  0  0  0  0  0  0
  151.3823  142.7397  155.3700 H   0  0  0  0  0  0  0  0  0  0  0  0
  150.6923  142.1070  156.8639 H   0  0  0  0  0  0  0  0  0  0  0  0
  148.0722  141.2953  154.2655 H   0  0  0  0  0  0  0  0  0  0  0  0
  148.8464  137.8206  152.7864 H   0  0  0  0  0  0  0  0  0  0  0  0
  147.2802  137.0044  151.9276 H   0  0  0  0  0  0  0  0  0  0  0  0
  144.5924  138.2573  152.3047 H   0  0  0  0  0  0  0  0  0  0  0  0
  145.1572  137.4959  150.8363 H   0  0  0  0  0  0  0  0  0  0  0  0
  145.1881  135.7998  153.3609 H   0  0  0  0  0  0  0  0  0  0  0  0
  143.6303  136.1955  152.6794 H   0  0  0  0  0  0  0  0  0  0  0  0
  143.4691  133.6448  152.3106 H   0  0  0  0  0  0  0  0  0  0  0  0
  142.7462  134.7613  151.1737 H   0  0  0  0  0  0  0  0  0  0  0  0
  142.8553  132.4746  150.1956 H   0  0  0  0  0  0  0  0  0  0  0  0
  143.7613  133.6334  149.2618 H   0  0  0  0  0  0  0  0  0  0  0  0
  145.1225  131.6846  149.4147 H   0  0  0  0  0  0  0  0  0  0  0  0
  144.7976  131.6665  152.4519 H   0  0  0  0  0  0  0  0  0  0  0  0
  145.8068  130.5802  151.5063 H   0  0  0  0  0  0  0  0  0  0  0  0
  144.0603  130.5424  151.3186 H   0  0  0  0  0  0  0  0  0  0  0  0
  147.1383  132.5695  150.6494 H   0  0  0  0  0  0  0  0  0  0  0  0
  146.3975  133.6936  149.5428 H   0  0  0  0  0  0  0  0  0  0  0  0
  146.9466  134.8433  151.6234 H   0  0  0  0  0  0  0  0  0  0  0  0
  146.0418  133.6974  152.5826 H   0  0  0  0  0  0  0  0  0  0  0  0
  150.4880  136.9294  154.4633 H   0  0  0  0  0  0  0  0  0  0  0  0
  152.0438  137.7211  154.7770 H   0  0  0  0  0  0  0  0  0  0  0  0
  151.3949  137.6659  153.1248 H   0  0  0  0  0  0  0  0  0  0  0  0
  144.9103  135.4570  150.5288 H   0  0  0  0  0  0  0  0  0  0  0  0
  1  2  1  0  0  0  0
  1 21  1  0  0  0  0
  1 22  1  0  0  0  0
  1 23  1  0  0  0  0
  2 20  2  0  0  0  0
  2  3  1  0  0  0  0
  3  4  2  0  0  0  0
  3 24  1  0  0  0  0
  4  5  1  0  0  0  0
  4 18  1  0  0  0  0
  5  6  1  0  0  0  0
  5 25  1  0  0  0  0
  6  7  2  0  0  0  0
  6  8  1  0  0  0  0
  8  9  1  0  0  0  0
  8 26  1  0  0  0  0
  9 10  1  0  0  0  0
  9 27  1  0  0  0  0
  9 28  1  0  0  0  0
 10 11  1  0  0  0  0
 10 29  1  0  0  0  0
 10 30  1  0  0  0  0
 11 17  1  0  0  0  0
 11 12  1  0  0  0  0
 11 46  1  0  0  0  0
 12 13  1  0  0  0  0
 12 31  1  0  0  0  0
 12 32  1  0  0  0  0
 13 14  1  0  0  0  0
 13 33  1  0  0  0  0
 13 34  1  0  0  0  0
 14 15  1  0  0  0  0
 14 16  1  0  0  0  0
 14 35  1  0  0  0  0
 15 36  1  0  0  0  0
 15 37  1  0  0  0  0
 15 38  1  0  0  0  0
 16 17  1  0  0  0  0
 16 39  1  0  0  0  0
 16 40  1  0  0  0  0
 17 41  1  0  0  0  0
 17 42  1  0  0  0  0
 18 19  1  0  0  0  0
 18 20  1  0  0  0  0
 19 43  1  0  0  0  0
 19 44  1  0  0  0  0
 19 45  1  0  0  0  0
M  CHG  1  11   1
M  END
> <s_m_source_file>
AV-unprocessed.smi

> <i_m_source_file_index>
1279

> <i_lp_mmshare_version>
43012

> <i_f3d_flags>
0

> <s_epik_input>
W0NIM11jMVtjSF1jKG4objEpW0NIM10pW05IXUMoPU8pW05IXVtDSDJdW0NIMl1OMltDSDJdW0NIMl1bQ0hdKFtDSDNdKVtDSDJdW0NIMl0y

> <s_epik_cmdline>
J2VwaWtfcHl0aG9uJywgJy1waCcsICc3LjAnLCAnLXRuJywgJzgnLCAnLW1hJywgJzIwMCcsICctbWV0YWxfYmluZGluZycsICctaW1hZScsICc8aW5maWxlLm1hZT4nLCAnLW9tYWUnLCAnPG91dGZpbGUubWFlPic=

> <r_lp_tautomer_probability>
1

> <r_epik_Ionization_Penalty>
0.00166091

> <r_epik_Ionization_Penalty_Charging>
0.0015841

> <r_epik_Ionization_Penalty_Neutral>
7.68112e-05

> <r_epik_State_Penalty>
0.00106518

> <r_epik_Charging_Adjusted_Penalty>
0.00264928

> <i_epik_Tot_Q>
1

> <i_epik_Tot_abs_Q>
1

> <r_epik_Metal_State_Penalty>
-0

> <b_epik_Metal_Only>
0

> <s_lp_Force_Field>
OPLS_2005

> <r_lp_Energy>
19.8524

> <b_lp_Chiralities_Consistent>
1

> <s_lp_Variant>
AV-unprocessed.smi:1279-2

> <Gold.Version>
5.8.1

> <Gold.Id.Protein>
6NUR|6NUR_protein|mol2

> <Gold.PLP.Fitness>
43.2073

> <Gold.PLP.PLP>
-38.0715

> <Gold.PLP.part.hbond>
-4.0000

> <Gold.PLP.part.metal>
0.0000

> <Gold.PLP.part.buried>
-2.4464

> <Gold.PLP.part.nonpolar>
-32.5192

> <Gold.PLP.part.repulsive>
0.2678

> <Gold.PLP.ligand.clash>
0.0000

> <Gold.PLP.ligand.torsion>
0.8581

> <Gold.PLP.Chemscore.Hbond>
2.2750

> <Gold.PLP.Chemscore.CHOScore>
0.0000

> <Gold.PLP.Chemscore.Metal>
0.0000

> <Gold.Chemscore.Hbonds>
donor molecule, donor type, donor heavy atom, donor atom, acceptor molecule, acceptor atom, score
      L1  H     5    25       P1  7948  1.00
      L1  H     8    26       P1  7948  1.00
      P1  H  7989  7998       L1    20  0.10

> <Gold.PLP.Chemscore.Internal.Correction>
0.0270

> <Gold.Rescore>
     Score         DG    S(hbond)    S(metal)    S(lipo)     H(rot)  DE(clash)    DE(int)     intcor
     16.40     -18.24       1.97        0.00      85.38       1.48       0.03       1.80       ----

> <Gold.Chemscore.Fitness>
16.4031

> <Gold.Chemscore.DG>
-18.2360

> <Gold.Chemscore.ZeroCoef>
-5.4800

> <Gold.Chemscore.Hbond>
1.9656

> <Gold.Chemscore.Metal>
0.0000

> <Gold.Chemscore.Lipo>
85.3787

> <Gold.Chemscore.Internal_Hbond>
0.0000

> <Gold.Chemscore.DEClash>
0.0328

> <Gold.Chemscore.DEInternal>
1.8000

> <Gold.Chemscore.Rot>
1.4838

> <Gold.Chemscore.Internal.Correction>
   9.000000E+99

> <Gold.Chemscore.Hbonds>
donor molecule, donor type, donor heavy atom, donor atom, acceptor molecule, acceptor atom, score
      L1  H     5    25       P1  7948  0.99
      L1  H     8    26       P1  7948  0.98

> <Gold.Chemscore.Hbond.Weighted>
-6.5651

> <Gold.Chemscore.Metal.Weighted>
-0.0000

> <Gold.Chemscore.Lipo.Weighted>
-9.9893

> <Gold.Chemscore.Internal_Hbond.Weighted>
0.0000

> <Gold.Chemscore.DEClash.Weighted>
0.0328

> <Gold.Chemscore.DEInternal.Weighted>
1.8000

> <Gold.Chemscore.Rot.Weighted>
3.7985

> <Gold.Chemscore.Internal.Correction.Weighted>
   9.000000E+99

> <Gold.Protein.RotatedTorsions>
[ 6907 6896 6895 6894 ] final  -36.96 input  -60.11 | X-H torsion
[ 7974 7965 7964 7962 ] final   60.33 input  175.53 | X-H torsion
[ 8008 7997 7996 7995 ] final   22.02 input   59.86 | X-H torsion
[ 10167 10162 10161 10158 ] final  127.40 input  -65.29 | X-H torsion
[ 10718 10713 10712 10709 ] final -114.45 input   66.30 | X-H torsion
[ 10763 10752 10751 10750 ] final   68.21 input  -60.55 | X-H torsion
[ 11005 11000 10999 10996 ] final   -7.77 input  -57.11 | X-H torsion

> <Gold.Protein.ActiveResidues>
 VAL166  LYS551  ARG553  GLY616  TRP617  ASP618  TYR619  PRO620  LYS621  CYS622 
 ASP623  PHE694  ASN695  SER759  ASP760  ASP761  ALA762  ILE779  LEU786  VAL792 
 PHE793  MET794  SER795  GLU796  ALA797  LYS798  CYS799  TRP800  GLU811  SER814 

> <Gold.Protein.RotatedAtoms>
  151.0206  134.9466  159.8057 H   0  0  0  0  0  0  0  0  0  0  0  0  # atno 6907 bound_to 6896
  152.5324  134.2908  159.9052 H   0  0  0  0  0  0  0  0  0  0  0  0  # atno 6908 bound_to 6896
  151.2915  133.4121  159.2667 H   0  0  0  0  0  0  0  0  0  0  0  0  # atno 6909 bound_to 6896
  145.8972  139.3554  143.0614 H   0  0  0  0  0  0  0  0  0  0  0  0  # atno 7974 bound_to 7965
  154.9594  140.3076  155.5038 H   0  0  0  0  0  0  0  0  0  0  0  0  # atno 8008 bound_to 7997
  156.2979  140.2304  156.4616 H   0  0  0  0  0  0  0  0  0  0  0  0  # atno 8009 bound_to 7997
  154.7980  140.0436  157.1239 H   0  0  0  0  0  0  0  0  0  0  0  0  # atno 8010 bound_to 7997
  139.5580  144.6862  151.4125 H   0  0  0  0  0  0  0  0  0  0  0  0  # atno 10167 bound_to 10162
  156.0831  130.6027  150.8777 H   0  0  0  0  0  0  0  0  0  0  0  0  # atno 10718 bound_to 10713
  153.0224  135.5255  154.7099 H   0  0  0  0  0  0  0  0  0  0  0  0  # atno 10763 bound_to 10752
  154.6184  135.2886  155.0356 H   0  0  0  0  0  0  0  0  0  0  0  0  # atno 10764 bound_to 10752
  154.1351  135.6587  153.4982 H   0  0  0  0  0  0  0  0  0  0  0  0  # atno 10765 bound_to 10752
  140.7164  133.8865  155.8788 H   0  0  0  0  0  0  0  0  0  0  0  0  # atno 11005 bound_to 11000
  145.8836  140.9348  143.0589 LP  0  0  0  0  0  0  0  0  0  0  0  0  # atno 17320 bound_to 7965
  144.6733  140.0812  143.7469 LP  0  0  0  0  0  0  0  0  0  0  0  0  # atno 17321 bound_to 7965
  140.6856  143.7982  150.7181 LP  0  0  0  0  0  0  0  0  0  0  0  0  # atno 17342 bound_to 10162
  140.1448  143.4409  152.2170 LP  0  0  0  0  0  0  0  0  0  0  0  0  # atno 17343 bound_to 10162
  157.5955  131.0943  150.9047 LP  0  0  0  0  0  0  0  0  0  0  0  0  # atno 17370 bound_to 10713
  156.9215  130.5316  149.5279 LP  0  0  0  0  0  0  0  0  0  0  0  0  # atno 17371 bound_to 10713
  141.0041  134.1110  157.4288 LP  0  0  0  0  0  0  0  0  0  0  0  0  # atno 17394 bound_to 11000
  139.8859  135.0076  156.6463 LP  0  0  0  0  0  0  0  0  0  0  0  0  # atno 17395 bound_to 11000

$$$$
