AV-unprocessed.smi:72|AV-procd|sdf|686|dock4
  -GOLD-   2262017 03D 1   1.00000     0.00000
 Structure written by MMmdl.
 29 30  0  0  0  0  0  0  0  0  1 V2000
  151.3044  137.2824  159.5358 N   0  0  0  0  0  0  0  0  0  0  0  0
  150.9514  137.9830  158.5183 C   0  0  0  0  0  0  0  0  0  0  0  0
  149.6346  138.3511  158.2033 N   0  0  0  0  0  0  0  0  0  0  0  0
  149.4267  139.0578  157.1352 C   0  0  0  0  0  0  0  0  0  0  0  0
  150.5100  139.4727  156.2569 N   0  0  0  0  0  0  0  0  0  0  0  0
  150.2313  140.2925  155.0146 C   0  0  1  0  0  0  0  0  0  0  0  0
  149.2881  139.6162  154.2424 O   0  0  0  0  0  0  0  0  0  0  0  0
  148.4375  140.5637  153.6139 C   0  0  1  0  0  0  0  0  0  0  0  0
  147.1098  139.8967  153.2238 C   0  0  0  0  0  0  0  0  0  0  0  0
  147.3440  138.8550  152.3002 O   0  0  0  0  0  0  0  0  0  0  0  0
  148.2871  141.6451  154.6885 C   0  0  2  0  0  0  0  0  0  0  0  0
  147.9537  142.8859  154.1001 O   0  0  0  0  0  0  0  0  0  0  0  0
  149.6749  141.7031  155.3158 C   0  0  1  0  0  0  0  0  0  0  0  0
  149.5920  142.0274  156.6921 O   0  0  0  0  0  0  0  0  0  0  0  0
  151.8466  139.1273  156.5719 C   0  0  0  0  0  0  0  0  0  0  0  0
  152.8031  139.4821  155.8835 O   0  0  0  0  0  0  0  0  0  0  0  0
  152.0069  138.3878  157.6906 N   0  0  0  0  0  0  0  0  0  0  0  0
  151.1599  140.3272  154.4432 H   0  0  0  0  0  0  0  0  0  0  0  0
  148.9476  140.9760  152.7406 H   0  0  0  0  0  0  0  0  0  0  0  0
  147.5366  141.3483  155.4233 H   0  0  0  0  0  0  0  0  0  0  0  0
  150.3123  142.4261  154.8044 H   0  0  0  0  0  0  0  0  0  0  0  0
  150.4923  137.0303  160.0808 H   0  0  0  0  0  0  0  0  0  0  0  0
  148.4337  139.3905  156.8292 H   0  0  0  0  0  0  0  0  0  0  0  0
  146.5822  139.5185  154.0999 H   0  0  0  0  0  0  0  0  0  0  0  0
  146.4549  140.6212  152.7390 H   0  0  0  0  0  0  0  0  0  0  0  0
  148.0264  139.1276  151.7060 H   0  0  0  0  0  0  0  0  0  0  0  0
  148.2343  143.5757  154.6820 H   0  0  0  0  0  0  0  0  0  0  0  0
  149.3272  142.9312  156.7702 H   0  0  0  0  0  0  0  0  0  0  0  0
  152.9463  138.1194  157.9442 H   0  0  0  0  0  0  0  0  0  0  0  0
  1  2  2  0  0  0  0
  1 22  1  0  0  0  0
  2 17  1  0  0  0  0
  2  3  1  0  0  0  0
  3  4  2  0  0  0  0
  4  5  1  0  0  0  0
  4 23  1  0  0  0  0
  5  6  1  0  0  0  0
  5 15  1  0  0  0  0
  6 18  1  0  0  0  0
  6 13  1  0  0  0  0
  6  7  1  0  0  0  0
  7  8  1  0  0  0  0
  8 19  1  0  0  0  0
  8  9  1  0  0  0  0
  8 11  1  0  0  0  0
  9 10  1  0  0  0  0
  9 24  1  0  0  0  0
  9 25  1  0  0  0  0
 10 26  1  0  0  0  0
 11 20  1  0  0  0  0
 11 12  1  0  0  0  0
 11 13  1  0  0  0  0
 12 27  1  0  0  0  0
 13 21  1  0  0  0  0
 13 14  1  0  0  0  0
 14 28  1  0  0  0  0
 15 16  2  0  0  0  0
 15 17  1  0  0  0  0
 17 29  1  0  0  0  0
M  END
> <s_m_source_file>
AV-unprocessed.smi

> <i_m_source_file_index>
72

> <i_lp_mmshare_version>
43012

> <i_f3d_flags>
0

> <s_epik_input>
W05IMl1jMW5bY0hdbihjKD1PKW4xKVtDQEBIXTJPW0NASF0oW0NIMl1bT0hdKVtDQEBIXShbT0hdKVtDQEhdMltPSF0=

> <s_epik_cmdline>
J2VwaWtfcHl0aG9uJywgJy1waCcsICc3LjAnLCAnLXRuJywgJzgnLCAnLW1hJywgJzIwMCcsICctbWV0YWxfYmluZGluZycsICctaW1hZScsICc8aW5maWxlLm1hZT4nLCAnLW9tYWUnLCAnPG91dGZpbGUubWFlPic=

> <r_lp_tautomer_probability>
7.17554e-07

> <r_epik_Ionization_Penalty>
0.0066451

> <r_epik_Ionization_Penalty_Charging>
0.00663793

> <r_epik_Ionization_Penalty_Neutral>
7.17052e-06

> <r_epik_State_Penalty>
0.419231

> <r_epik_Charging_Adjusted_Penalty>
0.425868

> <i_epik_Tot_Q>
0

> <i_epik_Tot_abs_Q>
0

> <r_epik_Metal_State_Penalty>
1.44144

> <b_epik_Metal_Only>
0

> <s_epik_Chemistry_Notes>
This compound contains an acetal/aminal-like group ( X-CH(R)-Y where X, Y are N, S, or O) that may be acid/base labile, releasing an aldehyde.

> <s_lp_Force_Field>
OPLS_2005

> <r_lp_Energy>
42.1084

> <b_lp_Chiralities_Consistent>
1

> <s_lp_Variant>
AV-unprocessed.smi:72-24

> <Gold.Version>
5.8.1

> <Gold.Id.Protein>
6NUR|6NUR_protein|mol2

> <Gold.PLP.Fitness>
35.6442

> <Gold.PLP.PLP>
-24.6596

> <Gold.PLP.part.hbond>
-7.2967

> <Gold.PLP.part.metal>
0.0000

> <Gold.PLP.part.buried>
1.5937

> <Gold.PLP.part.nonpolar>
-17.6852

> <Gold.PLP.part.repulsive>
0.2270

> <Gold.PLP.ligand.clash>
0.0000

> <Gold.PLP.ligand.torsion>
0.0703

> <Gold.PLP.Chemscore.Hbond>
3.6669

> <Gold.PLP.Chemscore.CHOScore>
0.0000

> <Gold.PLP.Chemscore.Metal>
0.0000

> <Gold.Chemscore.Hbonds>
donor molecule, donor type, donor heavy atom, donor atom, acceptor molecule, acceptor atom, score
      L1  H    10    26       P1  7957  1.00
      L1  H    12    27       P1  8028  1.00
      L1  H    14    28       P1  8028  0.63
      P1  H  7997  8009       L1    16  1.00

> <Gold.PLP.Chemscore.Internal.Correction>
0.1245

> <Gold.Rescore>
     Score         DG    S(hbond)    S(metal)    S(lipo)     H(rot)  DE(clash)    DE(int)     intcor
      8.67     -10.93       3.66        0.00      31.09       4.06       2.00       0.26       ----

> <Gold.Chemscore.Fitness>
8.6689

> <Gold.Chemscore.DG>
-10.9321

> <Gold.Chemscore.ZeroCoef>
-5.4800

> <Gold.Chemscore.Hbond>
3.6551

> <Gold.Chemscore.Metal>
0.0000

> <Gold.Chemscore.Lipo>
31.0903

> <Gold.Chemscore.Internal_Hbond>
0.0000

> <Gold.Chemscore.DEClash>
1.9988

> <Gold.Chemscore.DEInternal>
0.2644

> <Gold.Chemscore.Rot>
4.0600

> <Gold.Chemscore.Internal.Correction>
   9.000000E+99

> <Gold.Chemscore.Hbonds>
donor molecule, donor type, donor heavy atom, donor atom, acceptor molecule, acceptor atom, score
      L1  H    10    26       P1  7957  0.95
      L1  H    12    27       P1  8028  0.91
      L1  H    14    28       P1  8028  0.62
      P1  H  7997  8009       L1    16  0.98

> <Gold.Chemscore.Hbond.Weighted>
-12.2081

> <Gold.Chemscore.Metal.Weighted>
-0.0000

> <Gold.Chemscore.Lipo.Weighted>
-3.6376

> <Gold.Chemscore.Internal_Hbond.Weighted>
0.0000

> <Gold.Chemscore.DEClash.Weighted>
1.9988

> <Gold.Chemscore.DEInternal.Weighted>
0.2644

> <Gold.Chemscore.Rot.Weighted>
10.3936

> <Gold.Chemscore.Internal.Correction.Weighted>
   9.000000E+99

> <Gold.Protein.RotatedTorsions>
[ 6907 6896 6895 6894 ] final  110.89 input  -60.11 | X-H torsion
[ 7974 7965 7964 7962 ] final   38.81 input  175.53 | X-H torsion
[ 8008 7997 7996 7995 ] final -137.94 input   59.86 | X-H torsion
[ 10167 10162 10161 10158 ] final  -22.11 input  -65.29 | X-H torsion
[ 10718 10713 10712 10709 ] final   70.84 input   66.30 | X-H torsion
[ 10763 10752 10751 10750 ] final  -50.91 input  -60.55 | X-H torsion
[ 11005 11000 10999 10996 ] final   25.14 input  -57.11 | X-H torsion

> <Gold.Protein.ActiveResidues>
 VAL166  LYS551  ARG553  GLY616  TRP617  ASP618  TYR619  PRO620  LYS621  CYS622 
 ASP623  PHE694  ASN695  SER759  ASP760  ASP761  ALA762  ILE779  LEU786  VAL792 
 PHE793  MET794  SER795  GLU796  ALA797  LYS798  CYS799  TRP800  GLU811  SER814 

> <Gold.Protein.RotatedAtoms>
  152.4997  133.8736  159.7310 H   0  0  0  0  0  0  0  0  0  0  0  0  # atno 6907 bound_to 6896
  150.9216  133.6864  159.2837 H   0  0  0  0  0  0  0  0  0  0  0  0  # atno 6908 bound_to 6896
  151.4239  135.1006  159.9674 H   0  0  0  0  0  0  0  0  0  0  0  0  # atno 6909 bound_to 6896
  146.1033  139.5727  142.9400 H   0  0  0  0  0  0  0  0  0  0  0  0  # atno 7974 bound_to 7965
  155.4200  140.0518  157.3026 H   0  0  0  0  0  0  0  0  0  0  0  0  # atno 8008 bound_to 7997
  154.4907  140.2119  155.9515 H   0  0  0  0  0  0  0  0  0  0  0  0  # atno 8009 bound_to 7997
  156.1337  140.3167  155.8394 H   0  0  0  0  0  0  0  0  0  0  0  0  # atno 8010 bound_to 7997
  140.7285  143.4565  151.0441 H   0  0  0  0  0  0  0  0  0  0  0  0  # atno 10167 bound_to 10162
  157.6421  130.9498  150.0706 H   0  0  0  0  0  0  0  0  0  0  0  0  # atno 10718 bound_to 10713
  154.1180  135.6539  153.4897 H   0  0  0  0  0  0  0  0  0  0  0  0  # atno 10763 bound_to 10752
  153.0235  135.5263  154.7125 H   0  0  0  0  0  0  0  0  0  0  0  0  # atno 10764 bound_to 10752
  154.6325  135.2978  155.0170 H   0  0  0  0  0  0  0  0  0  0  0  0  # atno 10765 bound_to 10752
  140.3511  134.2228  155.7680 H   0  0  0  0  0  0  0  0  0  0  0  0  # atno 11005 bound_to 11000
  145.5811  141.0382  143.2121 LP  0  0  0  0  0  0  0  0  0  0  0  0  # atno 17320 bound_to 7965
  144.7450  139.7344  143.7296 LP  0  0  0  0  0  0  0  0  0  0  0  0  # atno 17321 bound_to 7965
  139.8246  143.7774  152.3178 LP  0  0  0  0  0  0  0  0  0  0  0  0  # atno 17342 bound_to 10162
  139.7868  144.7425  151.0010 LP  0  0  0  0  0  0  0  0  0  0  0  0  # atno 17343 bound_to 10162
  156.1711  130.3646  149.9163 LP  0  0  0  0  0  0  0  0  0  0  0  0  # atno 17370 bound_to 10713
  156.7138  130.8980  151.3612 LP  0  0  0  0  0  0  0  0  0  0  0  0  # atno 17371 bound_to 10713
  141.2012  133.7969  157.0453 LP  0  0  0  0  0  0  0  0  0  0  0  0  # atno 17394 bound_to 11000
  140.0702  134.9706  157.1455 LP  0  0  0  0  0  0  0  0  0  0  0  0  # atno 17395 bound_to 11000

$$$$
