AV-unprocessed.smi:3158|AV-procd|sdf|12048|dock8
  -GOLD-   2272017473D 1   1.00000     0.00000
 Structure written by MMmdl.
 39 39  0  0  0  0  0  0  0  0  1 V2000
  149.0881  133.6333  153.9234 C   0  0  0  0  0  0  0  0  0  0  0  0
  149.5239  134.8338  154.7758 C   0  0  0  0  0  0  0  0  0  0  0  0
  148.3545  135.7046  155.2757 C   0  0  1  0  0  0  0  0  0  0  0  0
  148.8094  136.7035  156.3486 C   0  0  0  0  0  0  0  0  0  0  0  0
  147.7449  136.4408  154.1699 N   0  0  0  0  0  0  0  0  0  0  0  0
  146.5896  137.1238  154.2171 C   0  0  0  0  0  0  0  0  0  0  0  0
  145.8867  137.2006  155.2253 O   0  0  0  0  0  0  0  0  0  0  0  0
  146.1784  137.8596  152.9306 C   0  0  1  0  0  0  0  0  0  0  0  0
  147.1574  139.0033  152.6176 C   0  0  0  0  0  0  0  0  0  0  0  0
  146.0630  136.9681  151.7623 N   0  0  0  0  0  0  0  0  0  0  0  0
  145.0697  135.9100  151.9100 C   0  0  0  0  0  0  0  0  0  0  0  0
  144.7981  135.2700  150.5417 C   0  0  0  0  0  0  0  0  0  0  0  0
  144.8891  133.8243  150.6048 N   0  0  0  0  0  0  0  0  0  0  0  0
  143.8779  132.8956  150.4780 C   0  0  0  0  0  0  0  0  0  0  0  0
  144.4448  131.6593  150.6006 C   0  0  0  0  0  0  0  0  0  0  0  0
  145.8254  131.9390  150.8022 C   0  0  0  0  0  0  0  0  0  0  0  0
  146.0884  133.2357  150.8030 N   0  0  0  0  0  0  0  0  0  0  0  0
  149.9472  133.0195  153.6523 H   0  0  0  0  0  0  0  0  0  0  0  0
  148.6075  133.9510  152.9979 H   0  0  0  0  0  0  0  0  0  0  0  0
  148.3853  133.0005  154.4662 H   0  0  0  0  0  0  0  0  0  0  0  0
  150.0815  134.4606  155.6355 H   0  0  0  0  0  0  0  0  0  0  0  0
  150.2235  135.4456  154.2048 H   0  0  0  0  0  0  0  0  0  0  0  0
  147.6168  135.0481  155.7405 H   0  0  0  0  0  0  0  0  0  0  0  0
  149.2436  136.1879  157.2056 H   0  0  0  0  0  0  0  0  0  0  0  0
  147.9700  137.2969  156.7133 H   0  0  0  0  0  0  0  0  0  0  0  0
  149.5599  137.3921  155.9590 H   0  0  0  0  0  0  0  0  0  0  0  0
  148.2526  136.4442  153.2971 H   0  0  0  0  0  0  0  0  0  0  0  0
  145.1998  138.3126  153.1005 H   0  0  0  0  0  0  0  0  0  0  0  0
  147.2448  139.6911  153.4596 H   0  0  0  0  0  0  0  0  0  0  0  0
  146.8173  139.5830  151.7589 H   0  0  0  0  0  0  0  0  0  0  0  0
  148.1562  138.6297  152.3875 H   0  0  0  0  0  0  0  0  0  0  0  0
  146.9559  136.5696  151.5087 H   0  0  0  0  0  0  0  0  0  0  0  0
  145.4208  135.1447  152.6031 H   0  0  0  0  0  0  0  0  0  0  0  0
  144.1476  136.3267  152.3181 H   0  0  0  0  0  0  0  0  0  0  0  0
  143.8055  135.5419  150.1786 H   0  0  0  0  0  0  0  0  0  0  0  0
  145.5160  135.6290  149.8029 H   0  0  0  0  0  0  0  0  0  0  0  0
  142.8517  133.1884  150.3112 H   0  0  0  0  0  0  0  0  0  0  0  0
  143.9490  130.7013  150.5531 H   0  0  0  0  0  0  0  0  0  0  0  0
  146.6387  131.2431  150.9466 H   0  0  0  0  0  0  0  0  0  0  0  0
  1  2  1  0  0  0  0
  1 18  1  0  0  0  0
  1 19  1  0  0  0  0
  1 20  1  0  0  0  0
  2  3  1  0  0  0  0
  2 21  1  0  0  0  0
  2 22  1  0  0  0  0
  3  4  1  0  0  0  0
  3  5  1  0  0  0  0
  3 23  1  0  0  0  0
  4 24  1  0  0  0  0
  4 25  1  0  0  0  0
  4 26  1  0  0  0  0
  5  6  1  0  0  0  0
  5 27  1  0  0  0  0
  6  7  2  0  0  0  0
  6  8  1  0  0  0  0
  8  9  1  0  0  0  0
  8 10  1  0  0  0  0
  8 28  1  0  0  0  0
  9 29  1  0  0  0  0
  9 30  1  0  0  0  0
  9 31  1  0  0  0  0
 10 11  1  0  0  0  0
 10 32  1  0  0  0  0
 11 12  1  0  0  0  0
 11 33  1  0  0  0  0
 11 34  1  0  0  0  0
 12 13  1  0  0  0  0
 12 35  1  0  0  0  0
 12 36  1  0  0  0  0
 13 17  1  0  0  0  0
 13 14  1  0  0  0  0
 14 15  2  0  0  0  0
 14 37  1  0  0  0  0
 15 16  1  0  0  0  0
 15 38  1  0  0  0  0
 16 17  2  0  0  0  0
 16 39  1  0  0  0  0
M  END
> <s_m_source_file>
AV-unprocessed.smi

> <i_m_source_file_index>
3158

> <i_lp_mmshare_version>
43012

> <i_f3d_flags>
0

> <s_epik_input>
W0NIM11bQ0gyXVtDQEhdKFtDSDNdKVtOSF1DKD1PKVtDQEhdKFtDSDNdKVtOSF1bQ0gyXVtDSDJdbjFbY0hdW2NIXVtjSF1uMQ==

> <s_epik_cmdline>
J2VwaWtfcHl0aG9uJywgJy1waCcsICc3LjAnLCAnLXRuJywgJzgnLCAnLW1hJywgJzIwMCcsICctbWV0YWxfYmluZGluZycsICctaW1hZScsICc8aW5maWxlLm1hZT4nLCAnLW9tYWUnLCAnPG91dGZpbGUubWFlPic=

> <r_lp_tautomer_probability>
1

> <r_epik_Ionization_Penalty>
0.724013

> <r_epik_Ionization_Penalty_Charging>
0

> <r_epik_Ionization_Penalty_Neutral>
0.724013

> <r_epik_State_Penalty>
0.74758

> <r_epik_Charging_Adjusted_Penalty>
0.74758

> <i_epik_Tot_Q>
0

> <i_epik_Tot_abs_Q>
0

> <r_epik_Metal_State_Penalty>
0.746846

> <b_epik_Metal_Only>
0

> <s_lp_Force_Field>
OPLS_2005

> <r_lp_Energy>
5.19136

> <b_lp_Chiralities_Consistent>
1

> <s_lp_Variant>
AV-unprocessed.smi:3158-8

> <Gold.Version>
5.8.1

> <Gold.Id.Protein>
6NUR|6NUR_protein|mol2

> <Gold.PLP.Fitness>
39.7451

> <Gold.PLP.PLP>
-29.0015

> <Gold.PLP.part.hbond>
-2.0000

> <Gold.PLP.part.metal>
0.0000

> <Gold.PLP.part.buried>
-2.1218

> <Gold.PLP.part.nonpolar>
-24.6224

> <Gold.PLP.part.repulsive>
0.2059

> <Gold.PLP.ligand.clash>
0.0000

> <Gold.PLP.ligand.torsion>
0.6821

> <Gold.PLP.Chemscore.Hbond>
1.9913

> <Gold.PLP.Chemscore.CHOScore>
2.0000

> <Gold.PLP.Chemscore.Metal>
0.0000

> <Gold.Chemscore.Hbonds>
donor molecule, donor type, donor heavy atom, donor atom, acceptor molecule, acceptor atom, score
      L1  H     5    27       P1  7948  1.00
      L1  H    10    32       P1  7948  1.00
      L1  C    14    37       P1 10186  1.00
      L1  C    16    39       P1 10747  1.00

> <Gold.PLP.Chemscore.Internal.Correction>
0.1341

> <Gold.Rescore>
     Score         DG    S(hbond)    S(metal)    S(lipo)     H(rot)  DE(clash)    DE(int)     intcor
     13.90     -14.48       1.91        0.00      68.74       2.12       0.02       0.56       ----

> <Gold.Chemscore.Fitness>
13.8952

> <Gold.Chemscore.DG>
-14.4764

> <Gold.Chemscore.ZeroCoef>
-5.4800

> <Gold.Chemscore.Hbond>
1.9131

> <Gold.Chemscore.Metal>
0.0000

> <Gold.Chemscore.Lipo>
68.7397

> <Gold.Chemscore.Internal_Hbond>
0.0000

> <Gold.Chemscore.DEClash>
0.0243

> <Gold.Chemscore.DEInternal>
0.5570

> <Gold.Chemscore.Rot>
2.1234

> <Gold.Chemscore.Internal.Correction>
   9.000000E+99

> <Gold.Chemscore.Hbonds>
donor molecule, donor type, donor heavy atom, donor atom, acceptor molecule, acceptor atom, score
      L1  H     5    27       P1  7948  0.99
      L1  H    10    32       P1  7948  0.92

> <Gold.Chemscore.Hbond.Weighted>
-6.3897

> <Gold.Chemscore.Metal.Weighted>
-0.0000

> <Gold.Chemscore.Lipo.Weighted>
-8.0425

> <Gold.Chemscore.Internal_Hbond.Weighted>
0.0000

> <Gold.Chemscore.DEClash.Weighted>
0.0243

> <Gold.Chemscore.DEInternal.Weighted>
0.5570

> <Gold.Chemscore.Rot.Weighted>
5.4359

> <Gold.Chemscore.Internal.Correction.Weighted>
   9.000000E+99

> <Gold.Protein.RotatedTorsions>
[ 6907 6896 6895 6894 ] final   50.45 input  -60.11 | X-H torsion
[ 7974 7965 7964 7962 ] final  -88.24 input  175.53 | X-H torsion
[ 8008 7997 7996 7995 ] final -168.09 input   59.86 | X-H torsion
[ 10167 10162 10161 10158 ] final  -54.56 input  -65.29 | X-H torsion
[ 10718 10713 10712 10709 ] final -112.81 input   66.30 | X-H torsion
[ 10763 10752 10751 10750 ] final  -70.35 input  -60.55 | X-H torsion
[ 11005 11000 10999 10996 ] final -167.89 input  -57.11 | X-H torsion

> <Gold.Protein.ActiveResidues>
 VAL166  LYS551  ARG553  GLY616  TRP617  ASP618  TYR619  PRO620  LYS621  CYS622 
 ASP623  PHE694  ASN695  SER759  ASP760  ASP761  ALA762  ILE779  LEU786  VAL792 
 PHE793  MET794  SER795  GLU796  ALA797  LYS798  CYS799  TRP800  GLU811  SER814 

> <Gold.Protein.RotatedAtoms>
  152.3019  134.7601  160.0355 H   0  0  0  0  0  0  0  0  0  0  0  0  # atno 6907 bound_to 6896
  151.8111  133.3376  159.3564 H   0  0  0  0  0  0  0  0  0  0  0  0  # atno 6908 bound_to 6896
  150.7278  134.5593  159.5878 H   0  0  0  0  0  0  0  0  0  0  0  0  # atno 6909 bound_to 6896
  145.4558  140.9561  143.1997 H   0  0  0  0  0  0  0  0  0  0  0  0  # atno 7974 bound_to 7965
  155.8867  140.1018  157.1447 H   0  0  0  0  0  0  0  0  0  0  0  0  # atno 8008 bound_to 7997
  154.4010  140.1318  156.4328 H   0  0  0  0  0  0  0  0  0  0  0  0  # atno 8009 bound_to 7997
  155.7581  140.3463  155.5186 H   0  0  0  0  0  0  0  0  0  0  0  0  # atno 8010 bound_to 7997
  140.6424  143.2515  151.4954 H   0  0  0  0  0  0  0  0  0  0  0  0  # atno 10167 bound_to 10162
  156.0728  130.5940  150.8558 H   0  0  0  0  0  0  0  0  0  0  0  0  # atno 10718 bound_to 10713
  154.4164  135.5997  153.5983 H   0  0  0  0  0  0  0  0  0  0  0  0  # atno 10763 bound_to 10752
  152.9792  135.5941  154.4008 H   0  0  0  0  0  0  0  0  0  0  0  0  # atno 10764 bound_to 10752
  154.3827  135.2841  155.2180 H   0  0  0  0  0  0  0  0  0  0  0  0  # atno 10765 bound_to 10752
  140.5482  134.5454  157.5116 H   0  0  0  0  0  0  0  0  0  0  0  0  # atno 11005 bound_to 11000
  144.8033  139.6099  143.7062 LP  0  0  0  0  0  0  0  0  0  0  0  0  # atno 17320 bound_to 7965
  146.2479  139.6137  142.9447 LP  0  0  0  0  0  0  0  0  0  0  0  0  # atno 17321 bound_to 7965
  139.5633  144.2103  152.1726 LP  0  0  0  0  0  0  0  0  0  0  0  0  # atno 17342 bound_to 10162
  140.1377  144.5230  150.6763 LP  0  0  0  0  0  0  0  0  0  0  0  0  # atno 17343 bound_to 10162
  157.5808  131.0946  150.9274 LP  0  0  0  0  0  0  0  0  0  0  0  0  # atno 17370 bound_to 10713
  156.9470  130.5405  149.5281 LP  0  0  0  0  0  0  0  0  0  0  0  0  # atno 17371 bound_to 10713
  139.9469  134.7687  156.0541 LP  0  0  0  0  0  0  0  0  0  0  0  0  # atno 17394 bound_to 11000
  141.1187  133.6619  156.3160 LP  0  0  0  0  0  0  0  0  0  0  0  0  # atno 17395 bound_to 11000

$$$$
