AV-unprocessed.smi:652|AV-procd|sdf|3201|dock4
  -GOLD-   22720 0133D 1   1.00000     0.00000
 Structure written by MMmdl.
 49 50  0  0  0  0  0  0  0  0  3 V2000
  149.2372  132.6606  154.2153 C   0  0  0  0  0  0  0  0  0  0  0  0
  148.0512  133.4638  153.6648 C   0  0  0  0  0  0  0  0  0  0  0  0
  147.7852  133.1381  152.1863 C   0  0  0  0  0  0  0  0  0  0  0  0
  148.3095  134.8907  153.8383 N   0  0  0  0  0  0  0  0  0  0  0  0
  148.3267  135.5413  155.0122 C   0  0  0  0  0  0  0  0  0  0  0  0
  148.1158  134.9904  156.0930 O   0  0  0  0  0  0  0  0  0  0  0  0
  148.6180  137.0442  154.9422 C   0  0  0  0  0  0  0  0  0  0  0  0
  147.4420  137.9179  155.4278 C   0  0  0  0  0  0  0  0  0  0  0  0
  147.7151  139.3710  155.2935 N   0  3  2  0  0  0  0  0  0  0  0  0
  147.4840  139.8583  153.9132 C   0  0  0  0  0  0  0  0  0  0  0  0
  147.7358  141.3718  153.8261 C   0  0  0  0  0  0  0  0  0  0  0  0
  149.0579  141.6582  154.2648 O   0  0  0  0  0  0  0  0  0  0  0  0
  149.2709  141.2913  155.6231 C   0  0  2  0  0  0  0  0  0  0  0  0
  150.6919  141.7393  156.0021 C   0  0  0  0  0  0  0  0  0  0  0  0
  150.7001  143.0272  156.6808 N   0  0  0  0  0  0  0  0  0  0  0  0
  151.3612  143.1870  157.9058 C   0  0  0  0  0  0  0  0  0  0  0  0
  151.4144  144.4026  158.6268 C   0  0  0  0  0  0  0  0  0  0  0  0
  152.1128  144.4241  159.8459 C   0  0  0  0  0  0  0  0  0  0  0  0
  152.7163  143.2280  160.2724 C   0  0  0  0  0  0  0  0  0  0  0  0
  152.6542  142.0758  159.5683 N   0  0  0  0  0  0  0  0  0  0  0  0
  151.9787  142.0872  158.4057 N   0  3  0  0  0  0  0  0  0  0  0  0
  149.0674  139.7669  155.7614 C   0  0  0  0  0  0  0  0  0  0  0  0
  149.0577  131.5887  154.1284 H   0  0  0  0  0  0  0  0  0  0  0  0
  149.4065  132.8804  155.2698 H   0  0  0  0  0  0  0  0  0  0  0  0
  150.1569  132.8879  153.6751 H   0  0  0  0  0  0  0  0  0  0  0  0
  147.1680  133.1911  154.2454 H   0  0  0  0  0  0  0  0  0  0  0  0
  147.5933  132.0735  152.0494 H   0  0  0  0  0  0  0  0  0  0  0  0
  148.6375  133.4048  151.5606 H   0  0  0  0  0  0  0  0  0  0  0  0
  146.9146  133.6767  151.8108 H   0  0  0  0  0  0  0  0  0  0  0  0
  148.4901  135.4215  152.9984 H   0  0  0  0  0  0  0  0  0  0  0  0
  149.5003  137.2512  155.5496 H   0  0  0  0  0  0  0  0  0  0  0  0
  148.8785  137.2852  153.9117 H   0  0  0  0  0  0  0  0  0  0  0  0
  146.5237  137.6651  154.8947 H   0  0  0  0  0  0  0  0  0  0  0  0
  147.2593  137.6996  156.4817 H   0  0  0  0  0  0  0  0  0  0  0  0
  148.1438  139.3299  153.2231 H   0  0  0  0  0  0  0  0  0  0  0  0
  146.4599  139.6401  153.6080 H   0  0  0  0  0  0  0  0  0  0  0  0
  147.6240  141.7122  152.7966 H   0  0  0  0  0  0  0  0  0  0  0  0
  147.0103  141.9247  154.4250 H   0  0  0  0  0  0  0  0  0  0  0  0
  148.5511  141.8239  156.2480 H   0  0  0  0  0  0  0  0  0  0  0  0
  151.1647  140.9856  156.6330 H   0  0  0  0  0  0  0  0  0  0  0  0
  151.2952  141.8257  155.0974 H   0  0  0  0  0  0  0  0  0  0  0  0
  150.2451  143.8163  156.2452 H   0  0  0  0  0  0  0  0  0  0  0  0
  150.9372  145.3024  158.2680 H   0  0  0  0  0  0  0  0  0  0  0  0
  152.1841  145.3261  160.4355 H   0  0  0  0  0  0  0  0  0  0  0  0
  153.2638  143.1923  161.2029 H   0  0  0  0  0  0  0  0  0  0  0  0
  149.2008  139.4776  156.8032 H   0  0  0  0  0  0  0  0  0  0  0  0
  149.8225  139.2326  155.1823 H   0  0  0  0  0  0  0  0  0  0  0  0
  147.0440  139.8482  155.8786 H   0  0  0  0  0  0  0  0  0  0  0  0
  151.9278  141.2203  157.8704 H   0  0  0  0  0  0  0  0  0  0  0  0
  1  2  1  0  0  0  0
  1 23  1  0  0  0  0
  1 24  1  0  0  0  0
  1 25  1  0  0  0  0
  2  3  1  0  0  0  0
  2  4  1  0  0  0  0
  2 26  1  0  0  0  0
  3 27  1  0  0  0  0
  3 28  1  0  0  0  0
  3 29  1  0  0  0  0
  4  5  1  0  0  0  0
  4 30  1  0  0  0  0
  5  6  2  0  0  0  0
  5  7  1  0  0  0  0
  7  8  1  0  0  0  0
  7 31  1  0  0  0  0
  7 32  1  0  0  0  0
  8  9  1  0  0  0  0
  8 33  1  0  0  0  0
  8 34  1  0  0  0  0
  9 22  1  0  0  0  0
  9 10  1  0  0  0  0
  9 48  1  0  0  0  0
 10 11  1  0  0  0  0
 10 35  1  0  0  0  0
 10 36  1  0  0  0  0
 11 12  1  0  0  0  0
 11 37  1  0  0  0  0
 11 38  1  0  0  0  0
 12 13  1  0  0  0  0
 13 14  1  0  0  0  0
 13 22  1  0  0  0  0
 13 39  1  0  0  0  0
 14 15  1  0  0  0  0
 14 40  1  0  0  0  0
 14 41  1  0  0  0  0
 15 16  1  0  0  0  0
 15 42  1  0  0  0  0
 16 21  1  0  0  0  0
 16 17  2  0  0  0  0
 17 18  1  0  0  0  0
 17 43  1  0  0  0  0
 18 19  2  0  0  0  0
 18 44  1  0  0  0  0
 19 20  1  0  0  0  0
 19 45  1  0  0  0  0
 20 21  2  0  0  0  0
 21 49  1  0  0  0  0
 22 46  1  0  0  0  0
 22 47  1  0  0  0  0
M  CHG  1   9   1
M  CHG  1  21   1
M  END
> <s_m_source_file>
AV-unprocessed.smi

> <i_m_source_file_index>
652

> <i_lp_mmshare_version>
43012

> <i_f3d_flags>
0

> <s_epik_input>
W0NIM11bQ0hdKFtDSDNdKVtOSF1DKD1PKVtDSDJdW0NIMl1OMVtDSDJdW0NIMl1PW0NASF0oW0NIMl0xKVtDSDJdW05IXWMyW2NIXVtjSF1bY0hdbm4y

> <s_epik_cmdline>
J2VwaWtfcHl0aG9uJywgJy1waCcsICc3LjAnLCAnLXRuJywgJzgnLCAnLW1hJywgJzIwMCcsICctbWV0YWxfYmluZGluZycsICctaW1hZScsICc8aW5maWxlLm1hZT4nLCAnLW9tYWUnLCAnPG91dGZpbGUubWFlPic=

> <r_lp_tautomer_probability>
0.966961

> <r_epik_Ionization_Penalty>
2.79885

> <r_epik_Ionization_Penalty_Charging>
2.79884

> <r_epik_Ionization_Penalty_Neutral>
3.2567e-06

> <r_epik_State_Penalty>
2.43203

> <r_epik_Charging_Adjusted_Penalty>
5.23087

> <i_epik_Tot_Q>
2

> <i_epik_Tot_abs_Q>
2

> <r_epik_Metal_State_Penalty>
2.43963

> <b_epik_Metal_Only>
0

> <s_lp_Force_Field>
OPLS_2005

> <r_lp_Energy>
30.0621

> <b_lp_Chiralities_Consistent>
1

> <s_lp_Variant>
AV-unprocessed.smi:652-10

> <Gold.Version>
5.8.1

> <Gold.Id.Protein>
6NUR|6NUR_protein|mol2

> <Gold.PLP.Fitness>
47.9156

> <Gold.PLP.PLP>
-39.2235

> <Gold.PLP.part.hbond>
-3.5200

> <Gold.PLP.part.metal>
0.0000

> <Gold.PLP.part.buried>
-7.1793

> <Gold.PLP.part.nonpolar>
-30.0618

> <Gold.PLP.part.repulsive>
0.3446

> <Gold.PLP.ligand.clash>
0.0537

> <Gold.PLP.ligand.torsion>
0.8282

> <Gold.PLP.Chemscore.Hbond>
3.4376

> <Gold.PLP.Chemscore.CHOScore>
0.0000

> <Gold.PLP.Chemscore.Metal>
0.0000

> <Gold.Chemscore.Hbonds>
donor molecule, donor type, donor heavy atom, donor atom, acceptor molecule, acceptor atom, score
      L1  H     4    30       P1  7948  0.80
      L1  H    15    42       P1  8028  2.00
      P1  H  8011  8017       L1    12  0.25

> <Gold.PLP.Chemscore.Internal.Correction>
0.0893

> <Gold.Rescore>
     Score         DG    S(hbond)    S(metal)    S(lipo)     H(rot)  DE(clash)    DE(int)     intcor
     16.15     -17.21       2.20        0.00      88.53       2.33       0.19       0.86       ----

> <Gold.Chemscore.Fitness>
16.1539

> <Gold.Chemscore.DG>
-17.2055

> <Gold.Chemscore.ZeroCoef>
-5.4800

> <Gold.Chemscore.Hbond>
2.1971

> <Gold.Chemscore.Metal>
0.0000

> <Gold.Chemscore.Lipo>
88.5345

> <Gold.Chemscore.Internal_Hbond>
0.0000

> <Gold.Chemscore.DEClash>
0.1914

> <Gold.Chemscore.DEInternal>
0.8602

> <Gold.Chemscore.Rot>
2.3326

> <Gold.Chemscore.Internal.Correction>
   9.000000E+99

> <Gold.Chemscore.Hbonds>
donor molecule, donor type, donor heavy atom, donor atom, acceptor molecule, acceptor atom, score
      L1  H     4    30       P1  7948  0.75
      L1  H    15    42       P1  8028  0.99
      P1  H  8011  8017       L1    12  0.04

> <Gold.Chemscore.Hbond.Weighted>
-7.3383

> <Gold.Chemscore.Metal.Weighted>
-0.0000

> <Gold.Chemscore.Lipo.Weighted>
-10.3585

> <Gold.Chemscore.Internal_Hbond.Weighted>
0.0000

> <Gold.Chemscore.DEClash.Weighted>
0.1914

> <Gold.Chemscore.DEInternal.Weighted>
0.8602

> <Gold.Chemscore.Rot.Weighted>
5.9714

> <Gold.Chemscore.Internal.Correction.Weighted>
   9.000000E+99

> <Gold.Protein.RotatedTorsions>
[ 6907 6896 6895 6894 ] final  -12.95 input  -60.11 | X-H torsion
[ 7974 7965 7964 7962 ] final  -82.50 input  175.53 | X-H torsion
[ 8008 7997 7996 7995 ] final  -24.27 input   59.86 | X-H torsion
[ 10167 10162 10161 10158 ] final -118.94 input  -65.29 | X-H torsion
[ 10718 10713 10712 10709 ] final  125.41 input   66.30 | X-H torsion
[ 10763 10752 10751 10750 ] final   96.65 input  -60.55 | X-H torsion
[ 11005 11000 10999 10996 ] final  -77.57 input  -57.11 | X-H torsion

> <Gold.Protein.ActiveResidues>
 VAL166  LYS551  ARG553  GLY616  TRP617  ASP618  TYR619  PRO620  LYS621  CYS622 
 ASP623  PHE694  ASN695  SER759  ASP760  ASP761  ALA762  ILE779  LEU786  VAL792 
 PHE793  MET794  SER795  GLU796  ALA797  LYS798  CYS799  TRP800  GLU811  SER814 

> <Gold.Protein.RotatedAtoms>
  151.3625  135.0907  159.9438 H   0  0  0  0  0  0  0  0  0  0  0  0  # atno 6907 bound_to 6896
  152.5158  133.9244  159.7560 H   0  0  0  0  0  0  0  0  0  0  0  0  # atno 6908 bound_to 6896
  150.9641  133.6359  159.2778 H   0  0  0  0  0  0  0  0  0  0  0  0  # atno 6909 bound_to 6896
  145.5325  140.9519  143.1595 H   0  0  0  0  0  0  0  0  0  0  0  0  # atno 7974 bound_to 7965
  154.4539  140.1958  156.0438 H   0  0  0  0  0  0  0  0  0  0  0  0  # atno 8008 bound_to 7997
  156.0705  140.3285  155.7542 H   0  0  0  0  0  0  0  0  0  0  0  0  # atno 8009 bound_to 7997
  155.5271  140.0575  157.2887 H   0  0  0  0  0  0  0  0  0  0  0  0  # atno 8010 bound_to 7997
  140.0520  143.5050  152.2077 H   0  0  0  0  0  0  0  0  0  0  0  0  # atno 10167 bound_to 10162
  157.5505  131.1094  150.8710 H   0  0  0  0  0  0  0  0  0  0  0  0  # atno 10718 bound_to 10713
  153.2674  135.4211  155.0954 H   0  0  0  0  0  0  0  0  0  0  0  0  # atno 10763 bound_to 10752
  154.8443  135.3464  154.6292 H   0  0  0  0  0  0  0  0  0  0  0  0  # atno 10764 bound_to 10752
  153.6712  135.7043  153.5204 H   0  0  0  0  0  0  0  0  0  0  0  0  # atno 10765 bound_to 10752
  141.1661  133.7028  156.7841 H   0  0  0  0  0  0  0  0  0  0  0  0  # atno 11005 bound_to 11000
  144.7619  139.6937  143.7231 LP  0  0  0  0  0  0  0  0  0  0  0  0  # atno 17320 bound_to 7965
  146.2035  139.5344  142.9728 LP  0  0  0  0  0  0  0  0  0  0  0  0  # atno 17321 bound_to 7965
  139.5947  144.7563  151.3315 LP  0  0  0  0  0  0  0  0  0  0  0  0  # atno 17342 bound_to 10162
  140.7212  143.7130  150.7754 LP  0  0  0  0  0  0  0  0  0  0  0  0  # atno 17343 bound_to 10162
  156.9236  130.5324  149.5279 LP  0  0  0  0  0  0  0  0  0  0  0  0  # atno 17370 bound_to 10713
  156.0572  130.5632  150.9118 LP  0  0  0  0  0  0  0  0  0  0  0  0  # atno 17371 bound_to 10713
  140.2373  134.8640  157.3538 LP  0  0  0  0  0  0  0  0  0  0  0  0  # atno 17394 bound_to 11000
  140.1831  134.4465  155.7760 LP  0  0  0  0  0  0  0  0  0  0  0  0  # atno 17395 bound_to 11000

$$$$
