AV-unprocessed.smi:515|AV-procd|sdf|2780|dock7
  -GOLD-   2262023253D 1   1.00000     0.00000
 Structure written by MMmdl.
 47 49  0  0  0  0  0  0  0  0  1 V2000
  156.3764  139.3252  165.6895 C   0  0  0  0  0  0  0  0  0  0  0  0
  155.8941  138.8258  164.3274 C   0  0  0  0  0  0  0  0  0  0  0  0
  156.6189  139.4858  163.3027 O   0  0  0  0  0  0  0  0  0  0  0  0
  156.1160  139.1833  162.0119 C   0  0  0  0  0  0  0  0  0  0  0  0
  154.6655  139.6698  161.8693 C   0  0  0  0  0  0  0  0  0  0  0  0
  154.1354  139.4897  160.5202 N   0  0  0  0  0  0  0  0  0  0  0  0
  153.6057  140.4283  159.6899 C   0  0  0  0  0  0  0  0  0  0  0  0
  153.4565  141.8759  160.0585 C   0  0  0  0  0  0  0  0  0  0  0  0
  152.8447  142.7010  159.0180 N   0  0  0  0  0  0  0  0  0  0  0  0
  151.5211  142.2096  158.6359 C   0  0  0  0  0  0  0  0  0  0  0  0
  150.8343  143.1156  157.5985 C   0  0  0  0  0  0  0  0  0  0  0  0
  150.7797  144.4536  158.0812 O   0  0  0  0  0  0  0  0  0  0  0  0
  152.0665  144.9757  158.3928 C   0  0  0  0  0  0  0  0  0  0  0  0
  152.7315  144.0870  159.4567 C   0  0  0  0  0  0  0  0  0  0  0  0
  153.1993  139.9483  158.5096 N   0  0  0  0  0  0  0  0  0  0  0  0
  153.4880  138.5954  158.5976 C   0  0  0  0  0  0  0  0  0  0  0  0
  154.0340  138.2977  159.8028 C   0  0  0  0  0  0  0  0  0  0  0  0
  154.4041  136.9285  160.1844 C   0  0  0  0  0  0  0  0  0  0  0  0
  154.8780  136.6341  161.2795 O   0  0  0  0  0  0  0  0  0  0  0  0
  154.1574  136.0206  159.2091 N   0  0  0  0  0  0  0  0  0  0  0  0
  153.6154  136.2529  157.9744 C   0  0  0  0  0  0  0  0  0  0  0  0
  153.4401  135.3171  157.1942 O   0  0  0  0  0  0  0  0  0  0  0  0
  153.2811  137.5452  157.6581 N   0  0  0  0  0  0  0  0  0  0  0  0
  152.6903  137.8537  156.3547 C   0  0  0  0  0  0  0  0  0  0  0  0
  154.3935  135.0620  159.4201 H   0  0  0  0  0  0  0  0  0  0  0  0
  155.8302  138.8398  166.4984 H   0  0  0  0  0  0  0  0  0  0  0  0
  156.2288  140.4009  165.7850 H   0  0  0  0  0  0  0  0  0  0  0  0
  157.4365  139.1128  165.8284 H   0  0  0  0  0  0  0  0  0  0  0  0
  156.0404  137.7468  164.2578 H   0  0  0  0  0  0  0  0  0  0  0  0
  154.8265  139.0220  164.2184 H   0  0  0  0  0  0  0  0  0  0  0  0
  156.7498  139.6477  161.2566 H   0  0  0  0  0  0  0  0  0  0  0  0
  156.1533  138.1064  161.8426 H   0  0  0  0  0  0  0  0  0  0  0  0
  154.0203  139.1384  162.5691 H   0  0  0  0  0  0  0  0  0  0  0  0
  154.6093  140.7177  162.1560 H   0  0  0  0  0  0  0  0  0  0  0  0
  152.8651  141.9393  160.9733 H   0  0  0  0  0  0  0  0  0  0  0  0
  154.4359  142.2711  160.3252 H   0  0  0  0  0  0  0  0  0  0  0  0
  151.5974  141.2021  158.2271 H   0  0  0  0  0  0  0  0  0  0  0  0
  150.8854  142.1401  159.5199 H   0  0  0  0  0  0  0  0  0  0  0  0
  151.3658  143.0896  156.6485 H   0  0  0  0  0  0  0  0  0  0  0  0
  149.8204  142.7660  157.4042 H   0  0  0  0  0  0  0  0  0  0  0  0
  152.6784  145.0253  157.4908 H   0  0  0  0  0  0  0  0  0  0  0  0
  151.9575  145.9949  158.7636 H   0  0  0  0  0  0  0  0  0  0  0  0
  152.1513  144.1375  160.3796 H   0  0  0  0  0  0  0  0  0  0  0  0
  153.7210  144.4827  159.6881 H   0  0  0  0  0  0  0  0  0  0  0  0
  153.2621  137.3964  155.5457 H   0  0  0  0  0  0  0  0  0  0  0  0
  152.6588  138.9250  156.1558 H   0  0  0  0  0  0  0  0  0  0  0  0
  151.6683  137.4757  156.3057 H   0  0  0  0  0  0  0  0  0  0  0  0
  1  2  1  0  0  0  0
  1 26  1  0  0  0  0
  1 27  1  0  0  0  0
  1 28  1  0  0  0  0
  2  3  1  0  0  0  0
  2 29  1  0  0  0  0
  2 30  1  0  0  0  0
  3  4  1  0  0  0  0
  4  5  1  0  0  0  0
  4 31  1  0  0  0  0
  4 32  1  0  0  0  0
  5  6  1  0  0  0  0
  5 33  1  0  0  0  0
  5 34  1  0  0  0  0
  6 17  1  0  0  0  0
  6  7  1  0  0  0  0
  7  8  1  0  0  0  0
  7 15  2  0  0  0  0
  8  9  1  0  0  0  0
  8 35  1  0  0  0  0
  8 36  1  0  0  0  0
  9 14  1  0  0  0  0
  9 10  1  0  0  0  0
 10 11  1  0  0  0  0
 10 37  1  0  0  0  0
 10 38  1  0  0  0  0
 11 12  1  0  0  0  0
 11 39  1  0  0  0  0
 11 40  1  0  0  0  0
 12 13  1  0  0  0  0
 13 14  1  0  0  0  0
 13 41  1  0  0  0  0
 13 42  1  0  0  0  0
 14 43  1  0  0  0  0
 14 44  1  0  0  0  0
 15 16  1  0  0  0  0
 16 23  1  0  0  0  0
 16 17  2  0  0  0  0
 17 18  1  0  0  0  0
 18 19  2  0  0  0  0
 18 20  1  0  0  0  0
 20 25  1  0  0  0  0
 20 21  1  0  0  0  0
 21 22  2  0  0  0  0
 21 23  1  0  0  0  0
 23 24  1  0  0  0  0
 24 45  1  0  0  0  0
 24 46  1  0  0  0  0
 24 47  1  0  0  0  0
M  END
> <s_m_source_file>
AV-unprocessed.smi

> <i_m_source_file_index>
515

> <i_lp_mmshare_version>
43012

> <i_f3d_flags>
0

> <s_epik_input>
W0NIM11uMWMoPU8pW25IXWMoPU8pYyhjMTIpbihbQ0gyXVtDSDJdT1tDSDJdW0NIM10pYyhuMilbQ0gyXU4zW0NIMl1bQ0gyXU9bQ0gyXVtDSDJdMw==

> <s_epik_cmdline>
J2VwaWtfcHl0aG9uJywgJy1waCcsICc3LjAnLCAnLXRuJywgJzgnLCAnLW1hJywgJzIwMCcsICctbWV0YWxfYmluZGluZycsICctaW1hZScsICc8aW5maWxlLm1hZT4nLCAnLW9tYWUnLCAnPG91dGZpbGUubWFlPic=

> <r_epik_Ionization_Penalty>
0.0971954

> <r_epik_Ionization_Penalty_Charging>
0.000195337

> <r_epik_Ionization_Penalty_Neutral>
0.0970001

> <r_epik_State_Penalty>
0.0871068

> <r_epik_Charging_Adjusted_Penalty>
0.0873021

> <i_epik_Tot_Q>
0

> <i_epik_Tot_abs_Q>
0

> <r_epik_Metal_State_Penalty>
0.234549

> <b_epik_Metal_Only>
0

> <s_lp_Force_Field>
OPLS_2005

> <r_lp_Energy>
38.6843

> <b_lp_Chiralities_Consistent>
1

> <s_lp_Variant>
AV-unprocessed.smi:515-1

> <Gold.Version>
5.8.1

> <Gold.Id.Protein>
6NUR|6NUR_protein|mol2

> <Gold.PLP.Fitness>
41.0372

> <Gold.PLP.PLP>
-36.5730

> <Gold.PLP.part.hbond>
-2.0000

> <Gold.PLP.part.metal>
0.0000

> <Gold.PLP.part.buried>
-6.3229

> <Gold.PLP.part.nonpolar>
-29.1494

> <Gold.PLP.part.repulsive>
0.2550

> <Gold.PLP.ligand.clash>
0.0000

> <Gold.PLP.ligand.torsion>
0.0313

> <Gold.PLP.Chemscore.Hbond>
1.5000

> <Gold.PLP.Chemscore.CHOScore>
0.0000

> <Gold.PLP.Chemscore.Metal>
0.0000

> <Gold.Chemscore.Hbonds>
donor molecule, donor type, donor heavy atom, donor atom, acceptor molecule, acceptor atom, score
      P1  H  7997  8009       L1    15  0.28
      P1  H 10752 10764       L1    22  1.00

> <Gold.PLP.Chemscore.Internal.Correction>
0.0268

> <Gold.Rescore>
     Score         DG    S(hbond)    S(metal)    S(lipo)     H(rot)  DE(clash)    DE(int)     intcor
     13.80     -14.24       1.02        0.00      92.75       2.15       0.02       0.41       ----

> <Gold.Chemscore.Fitness>
13.8003

> <Gold.Chemscore.DG>
-14.2397

> <Gold.Chemscore.ZeroCoef>
-5.4800

> <Gold.Chemscore.Hbond>
1.0182

> <Gold.Chemscore.Metal>
0.0000

> <Gold.Chemscore.Lipo>
92.7515

> <Gold.Chemscore.Internal_Hbond>
0.0000

> <Gold.Chemscore.DEClash>
0.0244

> <Gold.Chemscore.DEInternal>
0.4150

> <Gold.Chemscore.Rot>
2.1458

> <Gold.Chemscore.Internal.Correction>
   9.000000E+99

> <Gold.Chemscore.Hbonds>
donor molecule, donor type, donor heavy atom, donor atom, acceptor molecule, acceptor atom, score
      P1  H 10752 10764       L1    22  1.00

> <Gold.Chemscore.Hbond.Weighted>
-3.4009

> <Gold.Chemscore.Metal.Weighted>
-0.0000

> <Gold.Chemscore.Lipo.Weighted>
-10.8519

> <Gold.Chemscore.Internal_Hbond.Weighted>
0.0000

> <Gold.Chemscore.DEClash.Weighted>
0.0244

> <Gold.Chemscore.DEInternal.Weighted>
0.4150

> <Gold.Chemscore.Rot.Weighted>
5.4932

> <Gold.Chemscore.Internal.Correction.Weighted>
   9.000000E+99

> <Gold.Protein.RotatedTorsions>
[ 6907 6896 6895 6894 ] final  -72.89 input  -60.11 | X-H torsion
[ 7974 7965 7964 7962 ] final  -18.52 input  175.53 | X-H torsion
[ 8008 7997 7996 7995 ] final  139.49 input   59.86 | X-H torsion
[ 10167 10162 10161 10158 ] final  -78.71 input  -65.29 | X-H torsion
[ 10718 10713 10712 10709 ] final   41.70 input   66.30 | X-H torsion
[ 10763 10752 10751 10750 ] final   10.65 input  -60.55 | X-H torsion
[ 11005 11000 10999 10996 ] final  -49.59 input  -57.11 | X-H torsion

> <Gold.Protein.ActiveResidues>
 VAL166  LYS551  ARG553  GLY616  TRP617  ASP618  TYR619  PRO620  LYS621  CYS622 
 ASP623  PHE694  ASN695  SER759  ASP760  ASP761  ALA762  ILE779  LEU786  VAL792 
 PHE793  MET794  SER795  GLU796  ALA797  LYS798  CYS799  TRP800  GLU811  SER814 

> <Gold.Protein.RotatedAtoms>
  150.7152  134.5097  159.5600 H   0  0  0  0  0  0  0  0  0  0  0  0  # atno 6907 bound_to 6896
  152.2676  134.7964  160.0429 H   0  0  0  0  0  0  0  0  0  0  0  0  # atno 6908 bound_to 6896
  151.8656  133.3430  159.3754 H   0  0  0  0  0  0  0  0  0  0  0  0  # atno 6909 bound_to 6896
  146.1888  140.3933  142.8466 H   0  0  0  0  0  0  0  0  0  0  0  0  # atno 7974 bound_to 7965
  156.2989  140.2366  156.4246 H   0  0  0  0  0  0  0  0  0  0  0  0  # atno 8008 bound_to 7997
  154.8324  140.0432  157.1506 H   0  0  0  0  0  0  0  0  0  0  0  0  # atno 8009 bound_to 7997
  154.9193  140.3001  155.5228 H   0  0  0  0  0  0  0  0  0  0  0  0  # atno 8010 bound_to 7997
  140.4658  143.2440  151.8280 H   0  0  0  0  0  0  0  0  0  0  0  0  # atno 10167 bound_to 10162
  157.3965  130.7836  149.7313 H   0  0  0  0  0  0  0  0  0  0  0  0  # atno 10718 bound_to 10713
  153.2009  135.6856  153.8232 H   0  0  0  0  0  0  0  0  0  0  0  0  # atno 10763 bound_to 10752
  153.7498  135.3225  155.3320 H   0  0  0  0  0  0  0  0  0  0  0  0  # atno 10764 bound_to 10752
  154.8171  135.4678  154.0775 H   0  0  0  0  0  0  0  0  0  0  0  0  # atno 10765 bound_to 10752
  141.0768  133.6664  156.3608 H   0  0  0  0  0  0  0  0  0  0  0  0  # atno 11005 bound_to 11000
  144.8446  140.6910  143.6207 LP  0  0  0  0  0  0  0  0  0  0  0  0  # atno 17320 bound_to 7965
  145.3858  139.1627  143.4256 LP  0  0  0  0  0  0  0  0  0  0  0  0  # atno 17321 bound_to 7965
  139.4812  144.4952  151.9132 LP  0  0  0  0  0  0  0  0  0  0  0  0  # atno 17342 bound_to 10162
  140.4038  144.2459  150.5891 LP  0  0  0  0  0  0  0  0  0  0  0  0  # atno 17343 bound_to 10162
  155.9812  130.4022  150.3486 LP  0  0  0  0  0  0  0  0  0  0  0  0  # atno 17370 bound_to 10713
  157.1608  131.0344  151.2841 LP  0  0  0  0  0  0  0  0  0  0  0  0  # atno 17371 bound_to 10713
  140.5556  134.5985  157.5420 LP  0  0  0  0  0  0  0  0  0  0  0  0  # atno 17394 bound_to 11000
  139.9580  134.7501  156.0298 LP  0  0  0  0  0  0  0  0  0  0  0  0  # atno 17395 bound_to 11000

$$$$
