AV-unprocessed.smi:92|AV-procd|sdf|841|dock2
  -GOLD-   2262017273D 1   1.00000     0.00000
 Structure written by MMmdl.
 61 64  0  0  0  0  0  0  0  0  2 V2000
  151.0679  143.4055  157.9595 C   0  0  0  0  0  0  0  0  0  0  0  0
  151.1189  142.4932  156.7255 C   0  0  0  0  0  0  0  0  0  0  0  0
  149.7763  142.0051  156.3213 N   0  3  2  0  0  0  0  0  0  0  0  0
  149.1263  141.1548  157.3510 C   0  0  0  0  0  0  0  0  0  0  0  0
  147.6951  140.7728  156.9412 C   0  0  0  0  0  0  0  0  0  0  0  0
  147.6664  140.0685  155.5603 C   0  0  1  0  0  0  0  0  0  0  0  0
  146.3203  139.6615  155.1237 N   0  0  0  0  0  0  0  0  0  0  0  0
  145.2638  140.6684  155.1918 C   0  0  0  0  0  0  0  0  0  0  0  0
  146.2844  138.9916  153.9495 C   0  0  0  0  0  0  0  0  0  0  0  0
  146.7215  139.5941  152.8126 N   0  0  0  0  0  0  0  0  0  0  0  0
  146.7165  138.9188  151.6592 C   0  0  0  0  0  0  0  0  0  0  0  0
  146.3326  137.6605  151.4299 N   0  0  0  0  0  0  0  0  0  0  0  0
  145.8956  137.0559  152.5728 C   0  0  0  0  0  0  0  0  0  0  0  0
  145.8376  137.6477  153.8645 C   0  0  0  0  0  0  0  0  0  0  0  0
  145.3540  136.7339  154.7908 N   0  0  0  0  0  0  0  0  0  0  0  0
  145.1421  135.6559  154.0859 C   0  0  0  0  0  0  0  0  0  0  0  0
  145.4342  135.7615  152.7430 N   0  0  0  0  0  0  0  0  0  0  0  0
  145.3269  134.7275  151.7534 C   0  0  0  0  0  0  0  0  0  0  0  0
  144.2996  133.5989  151.8736 C   0  0  0  0  0  0  0  0  0  0  0  0
  145.2952  132.6352  151.1864 C   0  0  0  0  0  0  0  0  0  0  0  0
  145.3409  131.2245  151.7995 C   0  0  0  0  0  0  0  0  0  0  0  0
  146.3807  130.4425  151.2487 O   0  0  0  0  0  0  0  0  0  0  0  0
  145.1003  132.5213  149.6595 C   0  0  0  0  0  0  0  0  0  0  0  0
  143.8523  131.9530  149.3193 O   0  0  0  0  0  0  0  0  0  0  0  0
  146.3813  133.6250  151.6678 C   0  0  0  0  0  0  0  0  0  0  0  0
  148.3790  140.9706  154.5165 C   0  0  1  0  0  0  0  0  0  0  0  0
  147.5841  142.2368  154.1318 C   0  0  0  0  0  0  0  0  0  0  0  0
  149.7991  141.3298  154.9984 C   0  0  0  0  0  0  0  0  0  0  0  0
  152.0544  143.8197  158.1687 H   0  0  0  0  0  0  0  0  0  0  0  0
  150.7482  142.8711  158.8536 H   0  0  0  0  0  0  0  0  0  0  0  0
  150.3857  144.2417  157.8037 H   0  0  0  0  0  0  0  0  0  0  0  0
  151.5516  143.0703  155.9071 H   0  0  0  0  0  0  0  0  0  0  0  0
  151.7897  141.6497  156.8958 H   0  0  0  0  0  0  0  0  0  0  0  0
  149.7215  140.2539  157.5087 H   0  0  0  0  0  0  0  0  0  0  0  0
  149.0880  141.6772  158.3061 H   0  0  0  0  0  0  0  0  0  0  0  0
  147.2904  140.1244  157.7188 H   0  0  0  0  0  0  0  0  0  0  0  0
  147.0631  141.6613  156.9287 H   0  0  0  0  0  0  0  0  0  0  0  0
  148.2506  139.1512  155.6528 H   0  0  0  0  0  0  0  0  0  0  0  0
  144.3664  140.3466  154.6605 H   0  0  0  0  0  0  0  0  0  0  0  0
  145.5975  141.6115  154.7573 H   0  0  0  0  0  0  0  0  0  0  0  0
  144.9759  140.8518  156.2266 H   0  0  0  0  0  0  0  0  0  0  0  0
  147.0748  139.4627  150.7977 H   0  0  0  0  0  0  0  0  0  0  0  0
  144.7726  134.7452  154.5345 H   0  0  0  0  0  0  0  0  0  0  0  0
  145.2209  135.2242  150.7876 H   0  0  0  0  0  0  0  0  0  0  0  0
  144.0845  133.3262  152.9078 H   0  0  0  0  0  0  0  0  0  0  0  0
  143.3754  133.7732  151.3216 H   0  0  0  0  0  0  0  0  0  0  0  0
  145.5102  131.2750  152.8755 H   0  0  0  0  0  0  0  0  0  0  0  0
  144.3941  130.7010  151.6634 H   0  0  0  0  0  0  0  0  0  0  0  0
  147.0826  131.0175  150.9846 H   0  0  0  0  0  0  0  0  0  0  0  0
  145.1824  133.4969  149.1793 H   0  0  0  0  0  0  0  0  0  0  0  0
  145.8744  131.8990  149.2099 H   0  0  0  0  0  0  0  0  0  0  0  0
  143.1828  132.6120  149.4216 H   0  0  0  0  0  0  0  0  0  0  0  0
  147.1796  133.8220  150.9515 H   0  0  0  0  0  0  0  0  0  0  0  0
  146.7922  133.3606  152.6439 H   0  0  0  0  0  0  0  0  0  0  0  0
  148.5072  140.3922  153.6012 H   0  0  0  0  0  0  0  0  0  0  0  0
  147.4395  142.9048  154.9804 H   0  0  0  0  0  0  0  0  0  0  0  0
  146.5987  141.9899  153.7366 H   0  0  0  0  0  0  0  0  0  0  0  0
  148.1055  142.8018  153.3587 H   0  0  0  0  0  0  0  0  0  0  0  0
  150.2797  141.9731  154.2599 H   0  0  0  0  0  0  0  0  0  0  0  0
  150.4088  140.4273  155.0675 H   0  0  0  0  0  0  0  0  0  0  0  0
  149.1974  142.8249  156.2066 H   0  0  0  0  0  0  0  0  0  0  0  0
  1  2  1  0  0  0  0
  1 29  1  0  0  0  0
  1 30  1  0  0  0  0
  1 31  1  0  0  0  0
  2  3  1  0  0  0  0
  2 32  1  0  0  0  0
  2 33  1  0  0  0  0
  3 28  1  0  0  0  0
  3  4  1  0  0  0  0
  3 61  1  0  0  0  0
  4  5  1  0  0  0  0
  4 34  1  0  0  0  0
  4 35  1  0  0  0  0
  5  6  1  0  0  0  0
  5 36  1  0  0  0  0
  5 37  1  0  0  0  0
  6  7  1  0  0  0  0
  6 26  1  0  0  0  0
  6 38  1  0  0  0  0
  7  8  1  0  0  0  0
  7  9  1  0  0  0  0
  8 39  1  0  0  0  0
  8 40  1  0  0  0  0
  8 41  1  0  0  0  0
  9 14  1  0  0  0  0
  9 10  2  0  0  0  0
 10 11  1  0  0  0  0
 11 12  2  0  0  0  0
 11 42  1  0  0  0  0
 12 13  1  0  0  0  0
 13 17  1  0  0  0  0
 13 14  2  0  0  0  0
 14 15  1  0  0  0  0
 15 16  2  0  0  0  0
 16 17  1  0  0  0  0
 16 43  1  0  0  0  0
 17 18  1  0  0  0  0
 18 25  1  0  0  0  0
 18 19  1  0  0  0  0
 18 44  1  0  0  0  0
 19 20  1  0  0  0  0
 19 45  1  0  0  0  0
 19 46  1  0  0  0  0
 20 21  1  0  0  0  0
 20 23  1  0  0  0  0
 20 25  1  0  0  0  0
 21 22  1  0  0  0  0
 21 47  1  0  0  0  0
 21 48  1  0  0  0  0
 22 49  1  0  0  0  0
 23 24  1  0  0  0  0
 23 50  1  0  0  0  0
 23 51  1  0  0  0  0
 24 52  1  0  0  0  0
 25 53  1  0  0  0  0
 25 54  1  0  0  0  0
 26 27  1  0  0  0  0
 26 28  1  0  0  0  0
 26 55  1  0  0  0  0
 27 56  1  0  0  0  0
 27 57  1  0  0  0  0
 27 58  1  0  0  0  0
 28 59  1  0  0  0  0
 28 60  1  0  0  0  0
M  CHG  1   3   1
M  END
> <s_m_source_file>
AV-unprocessed.smi

> <i_m_source_file_index>
92

> <i_lp_mmshare_version>
43012

> <i_f3d_flags>
0

> <s_epik_input>
W0NIM11bQ0gyXU4xW0NIMl1bQ0gyXVtDQEhdKFtDQEBIXShbQ0gzXSlbQ0gyXTEpTihbQ0gzXSljKG5bY0hdbjIpYyhjMjMpbltjSF1uM1tDSF0oW0NIMl00KVtDSDJdQzQoW0NIMl1bT0hdKVtDSDJdW09IXQ==

> <s_epik_cmdline>
J2VwaWtfcHl0aG9uJywgJy1waCcsICc3LjAnLCAnLXRuJywgJzgnLCAnLW1hJywgJzIwMCcsICctbWV0YWxfYmluZGluZycsICctaW1hZScsICc8aW5maWxlLm1hZT4nLCAnLW9tYWUnLCAnPG91dGZpbGUubWFlPic=

> <r_lp_tautomer_probability>
1

> <r_epik_Ionization_Penalty>
0.00235514

> <r_epik_Ionization_Penalty_Charging>
0.00137877

> <r_epik_Ionization_Penalty_Neutral>
0.000976366

> <r_epik_State_Penalty>
-0

> <r_epik_Charging_Adjusted_Penalty>
0.00137877

> <i_epik_Tot_Q>
1

> <i_epik_Tot_abs_Q>
1

> <r_epik_Metal_State_Penalty>
-0

> <b_epik_Metal_Only>
0

> <s_lp_Force_Field>
OPLS_2005

> <r_lp_Energy>
54.7459

> <b_lp_Chiralities_Consistent>
1

> <s_lp_Variant>
AV-unprocessed.smi:92-1

> <Gold.Version>
5.8.1

> <Gold.Id.Protein>
6NUR|6NUR_protein|mol2

> <Gold.PLP.Fitness>
49.6763

> <Gold.PLP.PLP>
-38.7735

> <Gold.PLP.part.hbond>
-3.0000

> <Gold.PLP.part.metal>
0.0000

> <Gold.PLP.part.buried>
-5.0961

> <Gold.PLP.part.nonpolar>
-32.3229

> <Gold.PLP.part.repulsive>
1.9403

> <Gold.PLP.ligand.clash>
0.2960

> <Gold.PLP.ligand.torsion>
1.0657

> <Gold.PLP.Chemscore.Hbond>
3.5360

> <Gold.PLP.Chemscore.CHOScore>
0.6049

> <Gold.PLP.Chemscore.Metal>
0.0000

> <Gold.Chemscore.Hbonds>
donor molecule, donor type, donor heavy atom, donor atom, acceptor molecule, acceptor atom, score
      L1  H     3    61       P1  8028  2.00
      L1  H    22    49       P1 10747  0.75
      P1  H 10785 10796       L1    24  0.80
      L1  C    11    42       P1  7957  0.56

> <Gold.PLP.Chemscore.Internal.Correction>
0.9074

> <Gold.Rescore>
     Score         DG    S(hbond)    S(metal)    S(lipo)     H(rot)  DE(clash)    DE(int)     intcor
      9.89     -15.94       2.50        0.00      95.01       3.51       2.25       3.80       ----

> <Gold.Chemscore.Fitness>
9.8892

> <Gold.Chemscore.DG>
-15.9395

> <Gold.Chemscore.ZeroCoef>
-5.4800

> <Gold.Chemscore.Hbond>
2.4973

> <Gold.Chemscore.Metal>
0.0000

> <Gold.Chemscore.Lipo>
95.0111

> <Gold.Chemscore.Internal_Hbond>
0.0000

> <Gold.Chemscore.DEClash>
2.2501

> <Gold.Chemscore.DEInternal>
3.8001

> <Gold.Chemscore.Rot>
3.5147

> <Gold.Chemscore.Internal.Correction>
   9.000000E+99

> <Gold.Chemscore.Hbonds>
donor molecule, donor type, donor heavy atom, donor atom, acceptor molecule, acceptor atom, score
      L1  H     3    61       P1  8028  0.94
      L1  H    22    49       P1 10747  0.69
      P1  H 10785 10796       L1    24  0.70

> <Gold.Chemscore.Hbond.Weighted>
-8.3409

> <Gold.Chemscore.Metal.Weighted>
-0.0000

> <Gold.Chemscore.Lipo.Weighted>
-11.1163

> <Gold.Chemscore.Internal_Hbond.Weighted>
0.0000

> <Gold.Chemscore.DEClash.Weighted>
2.2501

> <Gold.Chemscore.DEInternal.Weighted>
3.8001

> <Gold.Chemscore.Rot.Weighted>
8.9977

> <Gold.Chemscore.Internal.Correction.Weighted>
   9.000000E+99

> <Gold.Protein.RotatedTorsions>
[ 6907 6896 6895 6894 ] final  114.55 input  -60.11 | X-H torsion
[ 7974 7965 7964 7962 ] final  170.16 input  175.53 | X-H torsion
[ 8008 7997 7996 7995 ] final  148.65 input   59.86 | X-H torsion
[ 10167 10162 10161 10158 ] final  172.14 input  -65.29 | X-H torsion
[ 10718 10713 10712 10709 ] final  -32.28 input   66.30 | X-H torsion
[ 10763 10752 10751 10750 ] final  -18.50 input  -60.55 | X-H torsion
[ 11005 11000 10999 10996 ] final -121.17 input  -57.11 | X-H torsion

> <Gold.Protein.ActiveResidues>
 VAL166  LYS551  ARG553  GLY616  TRP617  ASP618  TYR619  PRO620  LYS621  CYS622 
 ASP623  PHE694  ASN695  SER759  ASP760  ASP761  ALA762  ILE779  LEU786  VAL792 
 PHE793  MET794  SER795  GLU796  ALA797  LYS798  CYS799  TRP800  GLU811  SER814 

> <Gold.Protein.RotatedAtoms>
  152.4796  133.8221  159.7058 H   0  0  0  0  0  0  0  0  0  0  0  0  # atno 6907 bound_to 6896
  150.8836  133.7329  159.2931 H   0  0  0  0  0  0  0  0  0  0  0  0  # atno 6908 bound_to 6896
  151.4825  135.1056  159.9834 H   0  0  0  0  0  0  0  0  0  0  0  0  # atno 6909 bound_to 6896
  144.7332  139.9160  143.6417 H   0  0  0  0  0  0  0  0  0  0  0  0  # atno 7974 bound_to 7965
  156.2784  140.2123  156.5731 H   0  0  0  0  0  0  0  0  0  0  0  0  # atno 8008 bound_to 7997
  154.7119  140.0511  157.0581 H   0  0  0  0  0  0  0  0  0  0  0  0  # atno 8009 bound_to 7997
  155.0594  140.3165  155.4668 H   0  0  0  0  0  0  0  0  0  0  0  0  # atno 8010 bound_to 7997
  139.5067  144.3407  152.0021 H   0  0  0  0  0  0  0  0  0  0  0  0  # atno 10167 bound_to 10162
  156.3769  130.4349  149.7500 H   0  0  0  0  0  0  0  0  0  0  0  0  # atno 10718 bound_to 10713
  153.5902  135.7002  153.5426 H   0  0  0  0  0  0  0  0  0  0  0  0  # atno 10763 bound_to 10752
  153.3185  135.4081  155.1396 H   0  0  0  0  0  0  0  0  0  0  0  0  # atno 10764 bound_to 10752
  154.8602  135.3689  154.5434 H   0  0  0  0  0  0  0  0  0  0  0  0  # atno 10765 bound_to 10752
  141.0090  134.0293  157.3439 H   0  0  0  0  0  0  0  0  0  0  0  0  # atno 11005 bound_to 11000
  146.0965  139.3958  143.0373 LP  0  0  0  0  0  0  0  0  0  0  0  0  # atno 17320 bound_to 7965
  145.7638  140.9924  143.1186 LP  0  0  0  0  0  0  0  0  0  0  0  0  # atno 17321 bound_to 7965
  140.2845  144.3823  150.6108 LP  0  0  0  0  0  0  0  0  0  0  0  0  # atno 17342 bound_to 10162
  140.5993  143.2167  151.7103 LP  0  0  0  0  0  0  0  0  0  0  0  0  # atno 17343 bound_to 10162
  156.4606  130.7950  151.2970 LP  0  0  0  0  0  0  0  0  0  0  0  0  # atno 17370 bound_to 10713
  157.7489  131.0067  150.3161 LP  0  0  0  0  0  0  0  0  0  0  0  0  # atno 17371 bound_to 10713
  139.9079  135.0184  156.7566 LP  0  0  0  0  0  0  0  0  0  0  0  0  # atno 17394 bound_to 11000
  140.6765  133.9512  155.7886 LP  0  0  0  0  0  0  0  0  0  0  0  0  # atno 17395 bound_to 11000

$$$$
