AV-unprocessed.smi:3348|AV-procd|sdf|12919|dock6
  -GOLD-   2272019343D 1   1.00000     0.00000
 Structure written by MMmdl.
 47 48  0  0  0  0  0  0  0  0  2 V2000
  145.2241  134.8046  154.4183 C   0  0  0  0  0  0  0  0  0  0  0  0
  146.2295  135.0495  153.2798 C   0  0  2  0  0  0  0  0  0  0  0  0
  146.6703  133.7437  152.5783 C   0  0  0  0  0  0  0  0  0  0  0  0
  145.6683  133.2283  151.6618 N   0  0  0  0  0  0  0  0  0  0  0  0
  145.8317  132.3183  150.6386 C   0  0  0  0  0  0  0  0  0  0  0  0
  144.6112  132.1424  150.0523 C   0  0  0  0  0  0  0  0  0  0  0  0
  143.7512  132.9952  150.7991 C   0  0  0  0  0  0  0  0  0  0  0  0
  144.3868  133.6431  151.7624 N   0  0  0  0  0  0  0  0  0  0  0  0
  147.3943  135.7897  153.8145 N   0  3  0  0  0  0  0  0  0  0  0  0
  147.1464  137.2035  154.1697 C   0  0  0  0  0  0  0  0  0  0  0  0
  148.0898  137.6552  155.2887 C   0  0  0  0  0  0  0  0  0  0  0  0
  148.1949  139.0697  155.2419 O   0  0  0  0  0  0  0  0  0  0  0  0
  149.0528  139.5688  154.2211 C   0  0  2  0  0  0  0  0  0  0  0  0
  150.4442  138.9071  154.3137 C   0  0  0  0  0  0  0  0  0  0  0  0
  151.1694  139.2850  155.6157 C   0  0  0  0  0  0  0  0  0  0  0  0
  151.2724  140.8096  155.7726 C   0  0  0  0  0  0  0  0  0  0  0  0
  149.8891  141.4744  155.6894 C   0  0  0  0  0  0  0  0  0  0  0  0
  149.1600  141.1017  154.3829 C   0  0  2  0  0  0  0  0  0  0  0  0
  147.7894  141.7892  154.2771 C   0  0  0  0  0  0  0  0  0  0  0  0
  144.2977  134.3629  154.0503 H   0  0  0  0  0  0  0  0  0  0  0  0
  144.9573  135.7384  154.9145 H   0  0  0  0  0  0  0  0  0  0  0  0
  145.6359  134.1330  155.1728 H   0  0  0  0  0  0  0  0  0  0  0  0
  145.7362  135.6905  152.5474 H   0  0  0  0  0  0  0  0  0  0  0  0
  147.5851  133.9006  152.0068 H   0  0  0  0  0  0  0  0  0  0  0  0
  146.8966  132.9753  153.3198 H   0  0  0  0  0  0  0  0  0  0  0  0
  146.7923  131.8784  150.4137 H   0  0  0  0  0  0  0  0  0  0  0  0
  144.3682  131.5010  149.2181 H   0  0  0  0  0  0  0  0  0  0  0  0
  142.6917  133.1611  150.6705 H   0  0  0  0  0  0  0  0  0  0  0  0
  147.6941  135.3172  154.6552 H   0  0  0  0  0  0  0  0  0  0  0  0
  147.2749  137.8455  153.2983 H   0  0  0  0  0  0  0  0  0  0  0  0
  146.1134  137.3114  154.5024 H   0  0  0  0  0  0  0  0  0  0  0  0
  147.6932  137.3374  156.2528 H   0  0  0  0  0  0  0  0  0  0  0  0
  149.0693  137.1902  155.1668 H   0  0  0  0  0  0  0  0  0  0  0  0
  148.6196  139.3615  153.2406 H   0  0  0  0  0  0  0  0  0  0  0  0
  150.3667  137.8234  154.2325 H   0  0  0  0  0  0  0  0  0  0  0  0
  151.0489  139.2273  153.4644 H   0  0  0  0  0  0  0  0  0  0  0  0
  150.6365  138.8638  156.4690 H   0  0  0  0  0  0  0  0  0  0  0  0
  152.1660  138.8430  155.6263 H   0  0  0  0  0  0  0  0  0  0  0  0
  151.7456  141.0547  156.7241 H   0  0  0  0  0  0  0  0  0  0  0  0
  151.9196  141.2139  154.9934 H   0  0  0  0  0  0  0  0  0  0  0  0
  149.2883  141.1748  156.5491 H   0  0  0  0  0  0  0  0  0  0  0  0
  150.0015  142.5571  155.7567 H   0  0  0  0  0  0  0  0  0  0  0  0
  149.7654  141.4744  153.5550 H   0  0  0  0  0  0  0  0  0  0  0  0
  147.1275  141.4904  155.0904 H   0  0  0  0  0  0  0  0  0  0  0  0
  147.2962  141.5398  153.3372 H   0  0  0  0  0  0  0  0  0  0  0  0
  147.8921  142.8738  154.3168 H   0  0  0  0  0  0  0  0  0  0  0  0
  148.1468  135.7473  153.1416 H   0  0  0  0  0  0  0  0  0  0  0  0
  1  2  1  0  0  0  0
  1 20  1  0  0  0  0
  1 21  1  0  0  0  0
  1 22  1  0  0  0  0
  2  3  1  0  0  0  0
  2  9  1  0  0  0  0
  2 23  1  0  0  0  0
  3  4  1  0  0  0  0
  3 24  1  0  0  0  0
  3 25  1  0  0  0  0
  4  8  1  0  0  0  0
  4  5  1  0  0  0  0
  5  6  2  0  0  0  0
  5 26  1  0  0  0  0
  6  7  1  0  0  0  0
  6 27  1  0  0  0  0
  7  8  2  0  0  0  0
  7 28  1  0  0  0  0
  9 10  1  0  0  0  0
  9 29  1  0  0  0  0
  9 47  1  0  0  0  0
 10 11  1  0  0  0  0
 10 30  1  0  0  0  0
 10 31  1  0  0  0  0
 11 12  1  0  0  0  0
 11 32  1  0  0  0  0
 11 33  1  0  0  0  0
 12 13  1  0  0  0  0
 13 18  1  0  0  0  0
 13 14  1  0  0  0  0
 13 34  1  0  0  0  0
 14 15  1  0  0  0  0
 14 35  1  0  0  0  0
 14 36  1  0  0  0  0
 15 16  1  0  0  0  0
 15 37  1  0  0  0  0
 15 38  1  0  0  0  0
 16 17  1  0  0  0  0
 16 39  1  0  0  0  0
 16 40  1  0  0  0  0
 17 18  1  0  0  0  0
 17 41  1  0  0  0  0
 17 42  1  0  0  0  0
 18 19  1  0  0  0  0
 18 43  1  0  0  0  0
 19 44  1  0  0  0  0
 19 45  1  0  0  0  0
 19 46  1  0  0  0  0
M  CHG  1   9   1
M  END
> <s_m_source_file>
AV-unprocessed.smi

> <i_m_source_file_index>
3348

> <i_lp_mmshare_version>
43012

> <i_f3d_flags>
0

> <s_epik_input>
bjFbY0hdW2NIXVtjSF1uMVtDSDJdW0NAQEhdKFtDSDNdKVtOSF1bQ0gyXVtDSDJdT1tDQEBIXTJbQ0gyXVtDSDJdW0NIMl1bQ0gyXVtDQEhdMltDSDNd

> <s_epik_cmdline>
J2VwaWtfcHl0aG9uJywgJy1waCcsICc3LjAnLCAnLXRuJywgJzgnLCAnLW1hJywgJzIwMCcsICctbWV0YWxfYmluZGluZycsICctaW1hZScsICc8aW5maWxlLm1hZT4nLCAnLW9tYWUnLCAnPG91dGZpbGUubWFlPic=

> <r_lp_tautomer_probability>
1

> <r_epik_Ionization_Penalty>
0.00925088

> <r_epik_Ionization_Penalty_Charging>
0.00924645

> <r_epik_Ionization_Penalty_Neutral>
4.42413e-06

> <r_epik_State_Penalty>
0.0070118

> <r_epik_Charging_Adjusted_Penalty>
0.0162583

> <i_epik_Tot_Q>
1

> <i_epik_Tot_abs_Q>
1

> <r_epik_Metal_State_Penalty>
0.00701222

> <b_epik_Metal_Only>
0

> <s_lp_Force_Field>
OPLS_2005

> <r_lp_Energy>
17.0128

> <b_lp_Chiralities_Consistent>
1

> <s_lp_Variant>
AV-unprocessed.smi:3348-5

> <Gold.Version>
5.8.1

> <Gold.Id.Protein>
6NUR|6NUR_protein|mol2

> <Gold.PLP.Fitness>
44.8449

> <Gold.PLP.PLP>
-34.5166

> <Gold.PLP.part.hbond>
-1.0000

> <Gold.PLP.part.metal>
0.0000

> <Gold.PLP.part.buried>
-2.5493

> <Gold.PLP.part.nonpolar>
-30.9871

> <Gold.PLP.part.repulsive>
0.1705

> <Gold.PLP.ligand.clash>
0.0000

> <Gold.PLP.ligand.torsion>
0.8832

> <Gold.PLP.Chemscore.Hbond>
2.0000

> <Gold.PLP.Chemscore.CHOScore>
2.0000

> <Gold.PLP.Chemscore.Metal>
0.0000

> <Gold.Chemscore.Hbonds>
donor molecule, donor type, donor heavy atom, donor atom, acceptor molecule, acceptor atom, score
      L1  H     9    47       P1  7948  2.00
      L1  C     5    26       P1 10747  1.00
      L1  C     7    28       P1 10186  1.00

> <Gold.PLP.Chemscore.Internal.Correction>
0.0947

> <Gold.Rescore>
     Score         DG    S(hbond)    S(metal)    S(lipo)     H(rot)  DE(clash)    DE(int)     intcor
     13.58     -14.70       0.96        0.00      90.99       1.82       0.08       1.04       ----

> <Gold.Chemscore.Fitness>
13.5781

> <Gold.Chemscore.DG>
-14.6950

> <Gold.Chemscore.ZeroCoef>
-5.4800

> <Gold.Chemscore.Hbond>
0.9637

> <Gold.Chemscore.Metal>
0.0000

> <Gold.Chemscore.Lipo>
90.9904

> <Gold.Chemscore.Internal_Hbond>
0.0000

> <Gold.Chemscore.DEClash>
0.0766

> <Gold.Chemscore.DEInternal>
1.0404

> <Gold.Chemscore.Rot>
1.8163

> <Gold.Chemscore.Internal.Correction>
   9.000000E+99

> <Gold.Chemscore.Hbonds>
donor molecule, donor type, donor heavy atom, donor atom, acceptor molecule, acceptor atom, score
      L1  H     9    47       P1  7948  0.96

> <Gold.Chemscore.Hbond.Weighted>
-3.2189

> <Gold.Chemscore.Metal.Weighted>
-0.0000

> <Gold.Chemscore.Lipo.Weighted>
-10.6459

> <Gold.Chemscore.Internal_Hbond.Weighted>
0.0000

> <Gold.Chemscore.DEClash.Weighted>
0.0766

> <Gold.Chemscore.DEInternal.Weighted>
1.0404

> <Gold.Chemscore.Rot.Weighted>
4.6497

> <Gold.Chemscore.Internal.Correction.Weighted>
   9.000000E+99

> <Gold.Protein.RotatedTorsions>
[ 6907 6896 6895 6894 ] final  -74.48 input  -60.11 | X-H torsion
[ 7974 7965 7964 7962 ] final  -18.93 input  175.53 | X-H torsion
[ 8008 7997 7996 7995 ] final  -73.87 input   59.86 | X-H torsion
[ 10167 10162 10161 10158 ] final -123.26 input  -65.29 | X-H torsion
[ 10718 10713 10712 10709 ] final  -27.84 input   66.30 | X-H torsion
[ 10763 10752 10751 10750 ] final  -86.21 input  -60.55 | X-H torsion
[ 11005 11000 10999 10996 ] final -171.28 input  -57.11 | X-H torsion

> <Gold.Protein.ActiveResidues>
 VAL166  LYS551  ARG553  GLY616  TRP617  ASP618  TYR619  PRO620  LYS621  CYS622 
 ASP623  PHE694  ASN695  SER759  ASP760  ASP761  ALA762  ILE779  LEU786  VAL792 
 PHE793  MET794  SER795  GLU796  ALA797  LYS798  CYS799  TRP800  GLU811  SER814 

> <Gold.Protein.RotatedAtoms>
  150.7092  134.4863  159.5493 H   0  0  0  0  0  0  0  0  0  0  0  0  # atno 6907 bound_to 6896
  152.2490  134.8149  160.0458 H   0  0  0  0  0  0  0  0  0  0  0  0  # atno 6908 bound_to 6896
  151.8904  133.3479  159.3833 H   0  0  0  0  0  0  0  0  0  0  0  0  # atno 6909 bound_to 6896
  146.1867  140.3991  142.8473 H   0  0  0  0  0  0  0  0  0  0  0  0  # atno 7974 bound_to 7965
  154.5283  140.0771  156.8299 H   0  0  0  0  0  0  0  0  0  0  0  0  # atno 8008 bound_to 7997
  155.3428  140.3408  155.4221 H   0  0  0  0  0  0  0  0  0  0  0  0  # atno 8009 bound_to 7997
  156.1755  140.1634  156.8357 H   0  0  0  0  0  0  0  0  0  0  0  0  # atno 8010 bound_to 7997
  140.0054  143.5497  152.2286 H   0  0  0  0  0  0  0  0  0  0  0  0  # atno 10167 bound_to 10162
  156.4329  130.4449  149.7105 H   0  0  0  0  0  0  0  0  0  0  0  0  # atno 10718 bound_to 10713
  154.6198  135.5457  153.7563 H   0  0  0  0  0  0  0  0  0  0  0  0  # atno 10763 bound_to 10752
  153.0233  135.6410  154.1457 H   0  0  0  0  0  0  0  0  0  0  0  0  # atno 10764 bound_to 10752
  154.1391  135.2909  155.3145 H   0  0  0  0  0  0  0  0  0  0  0  0  # atno 10765 bound_to 10752
  140.5100  134.5811  157.5015 H   0  0  0  0  0  0  0  0  0  0  0  0  # atno 11005 bound_to 11000
  144.8410  140.6858  143.6229 LP  0  0  0  0  0  0  0  0  0  0  0  0  # atno 17320 bound_to 7965
  145.3917  139.1615  143.4225 LP  0  0  0  0  0  0  0  0  0  0  0  0  # atno 17321 bound_to 7965
  139.6242  144.7634  151.2675 LP  0  0  0  0  0  0  0  0  0  0  0  0  # atno 17342 bound_to 10162
  140.7402  143.6594  150.8178 LP  0  0  0  0  0  0  0  0  0  0  0  0  # atno 17343 bound_to 10162
  156.4000  130.7670  151.2677 LP  0  0  0  0  0  0  0  0  0  0  0  0  # atno 17370 bound_to 10713
  157.7508  131.0242  150.3868 LP  0  0  0  0  0  0  0  0  0  0  0  0  # atno 17371 bound_to 10713
  139.9664  134.7365  156.0129 LP  0  0  0  0  0  0  0  0  0  0  0  0  # atno 17394 bound_to 11000
  141.1391  133.6568  156.3677 LP  0  0  0  0  0  0  0  0  0  0  0  0  # atno 17395 bound_to 11000

$$$$
