AV-unprocessed.smi:2061|AV-procd|sdf|8370|dock4
  -GOLD-   2272011 43D 1   1.00000     0.00000
 Structure written by MMmdl.
 46 47  0  0  0  0  0  0  0  0  2 V2000
  149.9016  141.8942  156.4983 C   0  0  0  0  0  0  0  0  0  0  0  0
  149.9577  140.5765  155.8049 C   0  0  0  0  0  0  0  0  0  0  0  0
  149.0287  139.5975  155.5901 C   0  0  0  0  0  0  0  0  0  0  0  0
  149.7571  138.6203  154.8612 C   0  0  0  0  0  0  0  0  0  0  0  0
  149.1372  137.4188  154.4326 N   0  0  0  0  0  0  0  0  0  0  0  0
  148.3623  136.5953  155.1589 C   0  0  0  0  0  0  0  0  0  0  0  0
  148.0449  136.7711  156.3356 O   0  0  0  0  0  0  0  0  0  0  0  0
  147.9694  135.5324  154.4424 N   0  0  0  0  0  0  0  0  0  0  0  0
  147.1353  134.4499  154.9561 C   0  0  0  0  0  0  0  0  0  0  0  0
  147.1333  133.1977  154.0392 C   0  0  2  0  0  0  0  0  0  0  0  0
  148.5387  132.5491  154.0209 C   0  0  0  0  0  0  0  0  0  0  0  0
  146.6155  133.5585  152.6792 N   0  3  1  0  0  0  0  0  0  0  0  0
  146.6465  132.4744  151.6607 C   0  0  0  0  0  0  0  0  0  0  0  0
  146.1752  132.9918  150.2885 C   0  0  1  0  0  0  0  0  0  0  0  0
  146.1046  131.8700  149.2461 C   0  0  0  0  0  0  0  0  0  0  0  0
  144.8753  133.5597  150.4053 O   0  0  0  0  0  0  0  0  0  0  0  0
  144.7753  134.6223  151.3504 C   0  0  2  0  0  0  0  0  0  0  0  0
  145.4765  135.9060  150.8716 C   0  0  0  0  0  0  0  0  0  0  0  0
  145.2477  134.1412  152.7348 C   0  0  0  0  0  0  0  0  0  0  0  0
  151.0164  138.9707  154.6497 N   0  0  0  0  0  0  0  0  0  0  0  0
  151.1514  140.2262  155.2537 O   0  0  0  0  0  0  0  0  0  0  0  0
  148.9406  142.0330  156.9937 H   0  0  0  0  0  0  0  0  0  0  0  0
  150.0372  142.7098  155.7881 H   0  0  0  0  0  0  0  0  0  0  0  0
  150.6845  141.9680  157.2531 H   0  0  0  0  0  0  0  0  0  0  0  0
  147.9957  139.5865  155.9044 H   0  0  0  0  0  0  0  0  0  0  0  0
  149.3122  137.1538  153.4746 H   0  0  0  0  0  0  0  0  0  0  0  0
  148.2718  135.4632  153.4816 H   0  0  0  0  0  0  0  0  0  0  0  0
  147.4689  134.2166  155.9666 H   0  0  0  0  0  0  0  0  0  0  0  0
  146.1189  134.8317  155.0584 H   0  0  0  0  0  0  0  0  0  0  0  0
  146.4547  132.4530  154.4580 H   0  0  0  0  0  0  0  0  0  0  0  0
  148.8908  132.3232  155.0272 H   0  0  0  0  0  0  0  0  0  0  0  0
  149.2761  133.2056  153.5579 H   0  0  0  0  0  0  0  0  0  0  0  0
  148.5427  131.5982  153.4879 H   0  0  0  0  0  0  0  0  0  0  0  0
  147.6583  132.0918  151.5317 H   0  0  0  0  0  0  0  0  0  0  0  0
  146.0204  131.6443  151.9922 H   0  0  0  0  0  0  0  0  0  0  0  0
  146.8734  133.7451  149.9229 H   0  0  0  0  0  0  0  0  0  0  0  0
  147.0786  131.4003  149.1058 H   0  0  0  0  0  0  0  0  0  0  0  0
  145.7813  132.2562  148.2792 H   0  0  0  0  0  0  0  0  0  0  0  0
  145.3993  131.0944  149.5469 H   0  0  0  0  0  0  0  0  0  0  0  0
  143.7128  134.8553  151.4269 H   0  0  0  0  0  0  0  0  0  0  0  0
  145.2671  136.7346  151.5486 H   0  0  0  0  0  0  0  0  0  0  0  0
  145.1246  136.1943  149.8809 H   0  0  0  0  0  0  0  0  0  0  0  0
  146.5594  135.7951  150.8238 H   0  0  0  0  0  0  0  0  0  0  0  0
  144.5571  133.3821  153.1060 H   0  0  0  0  0  0  0  0  0  0  0  0
  145.1942  134.9715  153.4369 H   0  0  0  0  0  0  0  0  0  0  0  0
  147.2298  134.2795  152.3285 H   0  0  0  0  0  0  0  0  0  0  0  0
  1  2  1  0  0  0  0
  1 22  1  0  0  0  0
  1 23  1  0  0  0  0
  1 24  1  0  0  0  0
  2 21  1  0  0  0  0
  2  3  2  0  0  0  0
  3  4  1  0  0  0  0
  3 25  1  0  0  0  0
  4  5  1  0  0  0  0
  4 20  2  0  0  0  0
  5  6  1  0  0  0  0
  5 26  1  0  0  0  0
  6  7  2  0  0  0  0
  6  8  1  0  0  0  0
  8  9  1  0  0  0  0
  8 27  1  0  0  0  0
  9 10  1  0  0  0  0
  9 28  1  0  0  0  0
  9 29  1  0  0  0  0
 10 11  1  0  0  0  0
 10 12  1  0  0  0  0
 10 30  1  0  0  0  0
 11 31  1  0  0  0  0
 11 32  1  0  0  0  0
 11 33  1  0  0  0  0
 12 19  1  0  0  0  0
 12 13  1  0  0  0  0
 12 46  1  0  0  0  0
 13 14  1  0  0  0  0
 13 34  1  0  0  0  0
 13 35  1  0  0  0  0
 14 15  1  0  0  0  0
 14 16  1  0  0  0  0
 14 36  1  0  0  0  0
 15 37  1  0  0  0  0
 15 38  1  0  0  0  0
 15 39  1  0  0  0  0
 16 17  1  0  0  0  0
 17 18  1  0  0  0  0
 17 19  1  0  0  0  0
 17 40  1  0  0  0  0
 18 41  1  0  0  0  0
 18 42  1  0  0  0  0
 18 43  1  0  0  0  0
 19 44  1  0  0  0  0
 19 45  1  0  0  0  0
 20 21  1  0  0  0  0
M  CHG  1  12   1
M  END
> <s_m_source_file>
AV-unprocessed.smi

> <i_m_source_file_index>
2061

> <i_lp_mmshare_version>
43012

> <i_f3d_flags>
0

> <s_epik_input>
W0NIM11jMVtjSF1jKG5vMSlbTkhdQyg9TylbTkhdW0NIMl1bQ0BIXShbQ0gzXSlOMltDSDJdW0NAQEhdKFtDSDNdKU9bQ0BASF0oW0NIM10pW0NIMl0y

> <s_epik_cmdline>
J2VwaWtfcHl0aG9uJywgJy1waCcsICc3LjAnLCAnLXRuJywgJzgnLCAnLW1hJywgJzIwMCcsICctbWV0YWxfYmluZGluZycsICctaW1hZScsICc8aW5maWxlLm1hZT4nLCAnLW9tYWUnLCAnPG91dGZpbGUubWFlPic=

> <r_epik_Ionization_Penalty>
0.707076

> <r_epik_Ionization_Penalty_Charging>
0.707039

> <r_epik_Ionization_Penalty_Neutral>
3.6548e-05

> <r_epik_State_Penalty>
0.730276

> <r_epik_Charging_Adjusted_Penalty>
1.43732

> <i_epik_Tot_Q>
1

> <i_epik_Tot_abs_Q>
1

> <r_epik_Metal_State_Penalty>
0.743132

> <b_epik_Metal_Only>
0

> <s_lp_Force_Field>
OPLS_2005

> <r_lp_Energy>
19.8294

> <b_lp_Chiralities_Consistent>
1

> <s_lp_Variant>
AV-unprocessed.smi:2061-11

> <Gold.Version>
5.8.1

> <Gold.Id.Protein>
6NUR|6NUR_protein|mol2

> <Gold.PLP.Fitness>
40.2534

> <Gold.PLP.PLP>
-32.6690

> <Gold.PLP.part.hbond>
-3.0893

> <Gold.PLP.part.metal>
0.0000

> <Gold.PLP.part.buried>
-4.6208

> <Gold.PLP.part.nonpolar>
-25.8094

> <Gold.PLP.part.repulsive>
0.3680

> <Gold.PLP.ligand.clash>
0.0000

> <Gold.PLP.ligand.torsion>
0.5237

> <Gold.PLP.Chemscore.Hbond>
2.8620

> <Gold.PLP.Chemscore.CHOScore>
0.0000

> <Gold.PLP.Chemscore.Metal>
0.0000

> <Gold.Chemscore.Hbonds>
donor molecule, donor type, donor heavy atom, donor atom, acceptor molecule, acceptor atom, score
      L1  H     5    26       P1  7948  1.00
      L1  H     8    27       P1  7948  1.00
      P1  H  7989  7998       L1    21  0.30

> <Gold.PLP.Chemscore.Internal.Correction>
0.0458

> <Gold.Rescore>
     Score         DG    S(hbond)    S(metal)    S(lipo)     H(rot)  DE(clash)    DE(int)     intcor
     14.40     -15.98       1.89        0.00      70.32       1.58       0.10       1.48       ----

> <Gold.Chemscore.Fitness>
14.4027

> <Gold.Chemscore.DG>
-15.9780

> <Gold.Chemscore.ZeroCoef>
-5.4800

> <Gold.Chemscore.Hbond>
1.8934

> <Gold.Chemscore.Metal>
0.0000

> <Gold.Chemscore.Lipo>
70.3218

> <Gold.Chemscore.Internal_Hbond>
0.0000

> <Gold.Chemscore.DEClash>
0.0978

> <Gold.Chemscore.DEInternal>
1.4775

> <Gold.Chemscore.Rot>
1.5834

> <Gold.Chemscore.Internal.Correction>
   9.000000E+99

> <Gold.Chemscore.Hbonds>
donor molecule, donor type, donor heavy atom, donor atom, acceptor molecule, acceptor atom, score
      L1  H     5    26       P1  7948  0.96
      L1  H     8    27       P1  7948  0.97

> <Gold.Chemscore.Hbond.Weighted>
-6.3238

> <Gold.Chemscore.Metal.Weighted>
-0.0000

> <Gold.Chemscore.Lipo.Weighted>
-8.2277

> <Gold.Chemscore.Internal_Hbond.Weighted>
0.0000

> <Gold.Chemscore.DEClash.Weighted>
0.0978

> <Gold.Chemscore.DEInternal.Weighted>
1.4775

> <Gold.Chemscore.Rot.Weighted>
4.0535

> <Gold.Chemscore.Internal.Correction.Weighted>
   9.000000E+99

> <Gold.Protein.RotatedTorsions>
[ 6907 6896 6895 6894 ] final -130.48 input  -60.11 | X-H torsion
[ 7974 7965 7964 7962 ] final   34.43 input  175.53 | X-H torsion
[ 8008 7997 7996 7995 ] final   73.51 input   59.86 | X-H torsion
[ 10167 10162 10161 10158 ] final   56.11 input  -65.29 | X-H torsion
[ 10718 10713 10712 10709 ] final  -25.00 input   66.30 | X-H torsion
[ 10763 10752 10751 10750 ] final  169.16 input  -60.55 | X-H torsion
[ 11005 11000 10999 10996 ] final -141.56 input  -57.11 | X-H torsion

> <Gold.Protein.ActiveResidues>
 VAL166  LYS551  ARG553  GLY616  TRP617  ASP618  TYR619  PRO620  LYS621  CYS622 
 ASP623  PHE694  ASN695  SER759  ASP760  ASP761  ALA762  ILE779  LEU786  VAL792 
 PHE793  MET794  SER795  GLU796  ALA797  LYS798  CYS799  TRP800  GLU811  SER814 

> <Gold.Protein.RotatedAtoms>
  150.9402  133.6665  159.2792 H   0  0  0  0  0  0  0  0  0  0  0  0  # atno 6907 bound_to 6896
  151.4057  135.0976  159.9579 H   0  0  0  0  0  0  0  0  0  0  0  0  # atno 6908 bound_to 6896
  152.5066  133.8886  159.7437 H   0  0  0  0  0  0  0  0  0  0  0  0  # atno 6909 bound_to 6896
  146.1353  139.6270  142.9199 H   0  0  0  0  0  0  0  0  0  0  0  0  # atno 7974 bound_to 7965
  155.7847  140.3481  155.5316 H   0  0  0  0  0  0  0  0  0  0  0  0  # atno 8008 bound_to 7997
  155.8694  140.0984  157.1581 H   0  0  0  0  0  0  0  0  0  0  0  0  # atno 8009 bound_to 7997
  154.4016  140.1343  156.4046 H   0  0  0  0  0  0  0  0  0  0  0  0  # atno 8010 bound_to 7997
  140.2122  144.3876  150.6484 H   0  0  0  0  0  0  0  0  0  0  0  0  # atno 10167 bound_to 10162
  156.4701  130.4522  149.6874 H   0  0  0  0  0  0  0  0  0  0  0  0  # atno 10718 bound_to 10713
  154.3791  135.2753  155.2222 H   0  0  0  0  0  0  0  0  0  0  0  0  # atno 10763 bound_to 10752
  154.4336  135.5971  153.6088 H   0  0  0  0  0  0  0  0  0  0  0  0  # atno 10764 bound_to 10752
  152.9835  135.6001  154.4032 H   0  0  0  0  0  0  0  0  0  0  0  0  # atno 10765 bound_to 10752
  140.8312  134.2515  157.4856 H   0  0  0  0  0  0  0  0  0  0  0  0  # atno 11005 bound_to 11000
  145.5169  141.0433  143.2457 LP  0  0  0  0  0  0  0  0  0  0  0  0  # atno 17320 bound_to 7965
  144.7733  139.6685  143.7185 LP  0  0  0  0  0  0  0  0  0  0  0  0  # atno 17321 bound_to 7965
  140.6315  143.2188  151.6486 LP  0  0  0  0  0  0  0  0  0  0  0  0  # atno 17342 bound_to 10162
  139.5175  144.3312  152.0824 LP  0  0  0  0  0  0  0  0  0  0  0  0  # atno 17343 bound_to 10162
  156.3627  130.7490  151.2464 LP  0  0  0  0  0  0  0  0  0  0  0  0  # atno 17370 bound_to 10713
  157.7492  131.0346  150.4323 LP  0  0  0  0  0  0  0  0  0  0  0  0  # atno 17371 bound_to 10713
  139.8705  134.9587  156.4308 LP  0  0  0  0  0  0  0  0  0  0  0  0  # atno 17394 bound_to 11000
  140.8996  133.7789  155.9665 LP  0  0  0  0  0  0  0  0  0  0  0  0  # atno 17395 bound_to 11000

$$$$
