AV-unprocessed.smi:2227|AV-procd|sdf|9021|dock10
  -GOLD-   2272012223D 1   1.00000     0.00000
 Structure written by MMmdl.
 43 45  0  0  0  0  0  0  0  0  2 V2000
  147.4752  139.1658  152.9658 C   0  0  0  0  0  0  0  0  0  0  0  0
  148.2082  140.0294  154.0021 C   0  0  0  0  0  0  0  0  0  0  0  0
  148.1646  141.5186  153.6284 C   0  0  0  0  0  0  0  0  0  0  0  0
  149.6186  139.5477  154.2078 C   0  0  0  0  0  0  0  0  0  0  0  0
  150.1342  138.4370  153.6655 N   0  3  0  0  0  0  0  0  0  0  0  0
  151.4265  138.2562  154.0738 C   0  0  0  0  0  0  0  0  0  0  0  0
  151.7144  139.2981  154.9142 C   0  0  0  0  0  0  0  0  0  0  0  0
  150.5851  140.0748  154.9852 N   0  0  0  0  0  0  0  0  0  0  0  0
  150.4374  141.2979  155.7883 C   0  0  0  0  0  0  0  0  0  0  0  0
  151.1269  141.1706  157.1488 C   0  0  0  0  0  0  0  0  0  0  0  0
  151.3726  140.0573  157.6123 O   0  0  0  0  0  0  0  0  0  0  0  0
  151.4200  142.3191  157.7777 N   0  0  0  0  0  0  0  0  0  0  0  0
  152.0624  142.4368  159.0823 C   0  0  0  0  0  0  0  0  0  0  0  0
  152.4207  143.8786  159.3949 C   0  0  0  0  0  0  0  0  0  0  0  0
  151.4261  145.0000  159.2089 C   0  0  0  0  0  0  0  0  0  0  0  0
  152.6217  144.8890  158.2907 C   0  0  0  0  0  0  0  0  0  0  0  0
  153.2893  141.5478  159.2061 C   0  0  0  0  0  0  0  0  0  0  0  0
  153.1933  140.1449  159.7584 C   0  0  0  0  0  0  0  0  0  0  0  0
  153.8951  141.2230  160.5515 C   0  0  0  0  0  0  0  0  0  0  0  0
  147.4711  138.1159  153.2606 H   0  0  0  0  0  0  0  0  0  0  0  0
  147.9488  139.2333  151.9859 H   0  0  0  0  0  0  0  0  0  0  0  0
  146.4372  139.4806  152.8555 H   0  0  0  0  0  0  0  0  0  0  0  0
  147.6920  139.9201  154.9541 H   0  0  0  0  0  0  0  0  0  0  0  0
  148.6504  142.1279  154.3911 H   0  0  0  0  0  0  0  0  0  0  0  0
  147.1360  141.8681  153.5350 H   0  0  0  0  0  0  0  0  0  0  0  0
  148.6657  141.7098  152.6790 H   0  0  0  0  0  0  0  0  0  0  0  0
  152.0264  137.4189  153.7483 H   0  0  0  0  0  0  0  0  0  0  0  0
  152.6164  139.5353  155.4600 H   0  0  0  0  0  0  0  0  0  0  0  0
  150.8898  142.1235  155.2376 H   0  0  0  0  0  0  0  0  0  0  0  0
  149.3759  141.5290  155.8879 H   0  0  0  0  0  0  0  0  0  0  0  0
  151.1810  143.1847  157.3155 H   0  0  0  0  0  0  0  0  0  0  0  0
  151.3481  142.1180  159.8444 H   0  0  0  0  0  0  0  0  0  0  0  0
  153.0820  143.9820  160.2537 H   0  0  0  0  0  0  0  0  0  0  0  0
  150.4524  144.7571  158.7886 H   0  0  0  0  0  0  0  0  0  0  0  0
  151.4294  145.8009  159.9455 H   0  0  0  0  0  0  0  0  0  0  0  0
  153.4225  145.6151  158.4142 H   0  0  0  0  0  0  0  0  0  0  0  0
  152.4337  144.5717  157.2672 H   0  0  0  0  0  0  0  0  0  0  0  0
  154.0035  141.6855  158.3961 H   0  0  0  0  0  0  0  0  0  0  0  0
  152.2273  139.8054  160.1264 H   0  0  0  0  0  0  0  0  0  0  0  0
  153.8096  139.3793  159.2917 H   0  0  0  0  0  0  0  0  0  0  0  0
  154.9804  141.1765  160.6149 H   0  0  0  0  0  0  0  0  0  0  0  0
  153.3914  141.5902  161.4432 H   0  0  0  0  0  0  0  0  0  0  0  0
  149.6321  137.8171  153.0425 H   0  0  0  0  0  0  0  0  0  0  0  0
  1  2  1  0  0  0  0
  1 20  1  0  0  0  0
  1 21  1  0  0  0  0
  1 22  1  0  0  0  0
  2  3  1  0  0  0  0
  2  4  1  0  0  0  0
  2 23  1  0  0  0  0
  3 24  1  0  0  0  0
  3 25  1  0  0  0  0
  3 26  1  0  0  0  0
  4  8  1  0  0  0  0
  4  5  2  0  0  0  0
  5  6  1  0  0  0  0
  5 43  1  0  0  0  0
  6  7  2  0  0  0  0
  6 27  1  0  0  0  0
  7  8  1  0  0  0  0
  7 28  1  0  0  0  0
  8  9  1  0  0  0  0
  9 10  1  0  0  0  0
  9 29  1  0  0  0  0
  9 30  1  0  0  0  0
 10 11  2  0  0  0  0
 10 12  1  0  0  0  0
 12 13  1  0  0  0  0
 12 31  1  0  0  0  0
 13 14  1  0  0  0  0
 13 17  1  0  0  0  0
 13 32  1  0  0  0  0
 14 16  1  0  0  0  0
 14 15  1  0  0  0  0
 14 33  1  0  0  0  0
 15 16  1  0  0  0  0
 15 34  1  0  0  0  0
 15 35  1  0  0  0  0
 16 36  1  0  0  0  0
 16 37  1  0  0  0  0
 17 19  1  0  0  0  0
 17 18  1  0  0  0  0
 17 38  1  0  0  0  0
 18 19  1  0  0  0  0
 18 39  1  0  0  0  0
 18 40  1  0  0  0  0
 19 41  1  0  0  0  0
 19 42  1  0  0  0  0
M  CHG  1   5   1
M  END
> <s_m_source_file>
AV-unprocessed.smi

> <i_m_source_file_index>
2227

> <i_lp_mmshare_version>
43012

> <i_f3d_flags>
0

> <s_epik_input>
W0NIM11bQ0hdKFtDSDNdKWMxbltjSF1bY0hdbjFbQ0gyXUMoPU8pW05IXVtDSF0oW0NIXTJbQ0gyXVtDSDJdMilbQ0hdM1tDSDJdW0NIMl0z

> <s_epik_cmdline>
J2VwaWtfcHl0aG9uJywgJy1waCcsICc3LjAnLCAnLXRuJywgJzgnLCAnLW1hJywgJzIwMCcsICctbWV0YWxfYmluZGluZycsICctaW1hZScsICc8aW5maWxlLm1hZT4nLCAnLW9tYWUnLCAnPG91dGZpbGUubWFlPic=

> <r_lp_tautomer_probability>
1

> <r_epik_Ionization_Penalty>
0.258813

> <r_epik_Ionization_Penalty_Charging>
0

> <r_epik_Ionization_Penalty_Neutral>
0.258813

> <r_epik_State_Penalty>
0.250457

> <r_epik_Charging_Adjusted_Penalty>
0.250457

> <i_epik_Tot_Q>
1

> <i_epik_Tot_abs_Q>
1

> <r_epik_Metal_State_Penalty>
0.539096

> <b_epik_Metal_Only>
0

> <s_lp_Force_Field>
OPLS_2005

> <r_lp_Energy>
28.4044

> <b_lp_Chiralities_Consistent>
1

> <s_lp_Variant>
AV-unprocessed.smi:2227-1

> <Gold.Version>
5.8.1

> <Gold.Id.Protein>
6NUR|6NUR_protein|mol2

> <Gold.PLP.Fitness>
53.2686

> <Gold.PLP.PLP>
-49.0529

> <Gold.PLP.part.hbond>
-1.5555

> <Gold.PLP.part.metal>
0.0000

> <Gold.PLP.part.buried>
-4.3871

> <Gold.PLP.part.nonpolar>
-42.6813

> <Gold.PLP.part.repulsive>
0.1053

> <Gold.PLP.ligand.clash>
0.0000

> <Gold.PLP.ligand.torsion>
1.9544

> <Gold.PLP.Chemscore.Hbond>
1.9825

> <Gold.PLP.Chemscore.CHOScore>
0.0000

> <Gold.PLP.Chemscore.Metal>
0.0000

> <Gold.Chemscore.Hbonds>
donor molecule, donor type, donor heavy atom, donor atom, acceptor molecule, acceptor atom, score
      L1  H     5    43       P1  7948  1.92

> <Gold.PLP.Chemscore.Internal.Correction>
2.1770

> <Gold.Rescore>
     Score         DG    S(hbond)    S(metal)    S(lipo)     H(rot)  DE(clash)    DE(int)     intcor
     12.67     -18.58       0.93        0.00     123.40       1.74       0.07       5.84       ----

> <Gold.Chemscore.Fitness>
12.6698

> <Gold.Chemscore.DG>
-18.5760

> <Gold.Chemscore.ZeroCoef>
-5.4800

> <Gold.Chemscore.Hbond>
0.9313

> <Gold.Chemscore.Metal>
0.0000

> <Gold.Chemscore.Lipo>
123.4001

> <Gold.Chemscore.Internal_Hbond>
0.0000

> <Gold.Chemscore.DEClash>
0.0651

> <Gold.Chemscore.DEInternal>
5.8411

> <Gold.Chemscore.Rot>
1.7392

> <Gold.Chemscore.Internal.Correction>
   9.000000E+99

> <Gold.Chemscore.Hbonds>
donor molecule, donor type, donor heavy atom, donor atom, acceptor molecule, acceptor atom, score
      L1  H     5    43       P1  7948  0.67

> <Gold.Chemscore.Hbond.Weighted>
-3.1106

> <Gold.Chemscore.Metal.Weighted>
-0.0000

> <Gold.Chemscore.Lipo.Weighted>
-14.4378

> <Gold.Chemscore.Internal_Hbond.Weighted>
0.0000

> <Gold.Chemscore.DEClash.Weighted>
0.0651

> <Gold.Chemscore.DEInternal.Weighted>
5.8411

> <Gold.Chemscore.Rot.Weighted>
4.4524

> <Gold.Chemscore.Internal.Correction.Weighted>
   9.000000E+99

> <Gold.Protein.RotatedTorsions>
[ 6907 6896 6895 6894 ] final -111.94 input  -60.11 | X-H torsion
[ 7974 7965 7964 7962 ] final -140.19 input  175.53 | X-H torsion
[ 8008 7997 7996 7995 ] final   86.51 input   59.86 | X-H torsion
[ 10167 10162 10161 10158 ] final  110.09 input  -65.29 | X-H torsion
[ 10718 10713 10712 10709 ] final  161.30 input   66.30 | X-H torsion
[ 10763 10752 10751 10750 ] final  172.60 input  -60.55 | X-H torsion
[ 11005 11000 10999 10996 ] final -171.26 input  -57.11 | X-H torsion

> <Gold.Protein.ActiveResidues>
 VAL166  LYS551  ARG553  GLY616  TRP617  ASP618  TYR619  PRO620  LYS621  CYS622 
 ASP623  PHE694  ASN695  SER759  ASP760  ASP761  ALA762  ILE779  LEU786  VAL792 
 PHE793  MET794  SER795  GLU796  ALA797  LYS798  CYS799  TRP800  GLU811  SER814 

> <Gold.Protein.RotatedAtoms>
  150.7724  133.9163  159.3384 H   0  0  0  0  0  0  0  0  0  0  0  0  # atno 6907 bound_to 6896
  151.7046  135.0922  160.0266 H   0  0  0  0  0  0  0  0  0  0  0  0  # atno 6908 bound_to 6896
  152.3747  133.6427  159.6150 H   0  0  0  0  0  0  0  0  0  0  0  0  # atno 6909 bound_to 6896
  144.8617  140.6230  143.5324 H   0  0  0  0  0  0  0  0  0  0  0  0  # atno 7974 bound_to 7965
  155.9637  140.3391  155.6513 H   0  0  0  0  0  0  0  0  0  0  0  0  # atno 8008 bound_to 7997
  155.6765  140.0733  157.2519 H   0  0  0  0  0  0  0  0  0  0  0  0  # atno 8009 bound_to 7997
  154.4149  140.1682  156.1923 H   0  0  0  0  0  0  0  0  0  0  0  0  # atno 8010 bound_to 7997
  139.6715  144.7125  151.1679 H   0  0  0  0  0  0  0  0  0  0  0  0  # atno 10167 bound_to 10162
  157.1384  131.0534  151.2338 H   0  0  0  0  0  0  0  0  0  0  0  0  # atno 10718 bound_to 10713
  154.4283  135.2759  155.1929 H   0  0  0  0  0  0  0  0  0  0  0  0  # atno 10763 bound_to 10752
  154.3846  135.6080  153.5813 H   0  0  0  0  0  0  0  0  0  0  0  0  # atno 10764 bound_to 10752
  152.9835  135.5888  154.4590 H   0  0  0  0  0  0  0  0  0  0  0  0  # atno 10765 bound_to 10752
  140.5102  134.5809  157.5016 H   0  0  0  0  0  0  0  0  0  0  0  0  # atno 11005 bound_to 11000
  145.4299  139.1550  143.4028 LP  0  0  0  0  0  0  0  0  0  0  0  0  # atno 17320 bound_to 7965
  146.2865  140.4415  142.8756 LP  0  0  0  0  0  0  0  0  0  0  0  0  # atno 17321 bound_to 7965
  140.7620  143.5837  150.8868 LP  0  0  0  0  0  0  0  0  0  0  0  0  # atno 17342 bound_to 10162
  139.9502  143.6280  152.3031 LP  0  0  0  0  0  0  0  0  0  0  0  0  # atno 17343 bound_to 10162
  157.4329  130.7501  149.7005 LP  0  0  0  0  0  0  0  0  0  0  0  0  # atno 17370 bound_to 10713
  155.9793  130.4041  150.3593 LP  0  0  0  0  0  0  0  0  0  0  0  0  # atno 17371 bound_to 10713
  139.9663  134.7367  156.0131 LP  0  0  0  0  0  0  0  0  0  0  0  0  # atno 17394 bound_to 11000
  141.1390  133.6569  156.3674 LP  0  0  0  0  0  0  0  0  0  0  0  0  # atno 17395 bound_to 11000

$$$$
