AV-unprocessed.smi:1251|AV-procd|sdf|5260|dock2
  -GOLD-   22720 4373D 1   1.00000     0.00000
 Structure written by MMmdl.
 38 39  0  0  0  0  0  0  0  0  2 V2000
  147.0795  142.2284  153.9870 C   0  0  0  0  0  0  0  0  0  0  0  0
  147.9891  141.0019  153.8563 C   0  0  0  0  0  0  0  0  0  0  0  0
  148.9477  140.8498  155.0456 C   0  0  0  0  0  0  0  0  0  0  0  0
  149.8414  139.6619  154.9138 C   0  0  0  0  0  0  0  0  0  0  0  0
  151.1530  139.7647  154.6847 N   0  0  0  0  0  0  0  0  0  0  0  0
  151.7634  138.5239  154.5757 N   0  0  0  0  0  0  0  0  0  0  0  0
  150.9043  137.5023  154.6993 C   0  0  0  0  0  0  0  0  0  0  0  0
  151.2985  136.2201  154.6272 N   0  5  0  0  0  0  0  0  0  0  0  0
  150.5192  135.2421  155.1426 C   0  0  0  0  0  0  0  0  0  0  0  0
  150.7023  134.6468  156.2067 O   0  0  0  0  0  0  0  0  0  0  0  0
  149.4641  134.9357  154.3740 N   0  0  0  0  0  0  0  0  0  0  0  0
  148.4421  133.9311  154.6632 C   0  0  2  0  0  0  0  0  0  0  0  0
  149.0768  132.5310  154.6601 C   0  0  0  0  0  0  0  0  0  0  0  0
  147.2958  134.0463  153.6399 C   0  0  2  0  0  0  0  0  0  0  0  0
  146.0486  133.2298  153.9858 C   0  0  0  0  0  0  0  0  0  0  0  0
  145.4105  133.0561  152.6271 C   0  0  0  0  0  0  0  0  0  0  0  0
  146.6307  132.8582  151.7326 C   0  0  0  0  0  0  0  0  0  0  0  0
  147.7037  133.5507  152.3661 O   0  0  0  0  0  0  0  0  0  0  0  0
  149.2407  138.0136  154.9851 S   0  0  0  0  0  0  0  0  0  0  0  0
  146.4106  142.3087  153.1300 H   0  0  0  0  0  0  0  0  0  0  0  0
  147.6640  143.1472  154.0407 H   0  0  0  0  0  0  0  0  0  0  0  0
  146.4644  142.1682  154.8852 H   0  0  0  0  0  0  0  0  0  0  0  0
  147.3739  140.1059  153.7654 H   0  0  0  0  0  0  0  0  0  0  0  0
  148.5628  141.0774  152.9318 H   0  0  0  0  0  0  0  0  0  0  0  0
  149.5655  141.7432  155.1465 H   0  0  0  0  0  0  0  0  0  0  0  0
  148.3820  140.7561  155.9731 H   0  0  0  0  0  0  0  0  0  0  0  0
  149.3594  135.4518  153.5130 H   0  0  0  0  0  0  0  0  0  0  0  0
  148.0235  134.1185  155.6536 H   0  0  0  0  0  0  0  0  0  0  0  0
  148.3407  131.7640  154.9019 H   0  0  0  0  0  0  0  0  0  0  0  0
  149.8771  132.4595  155.3972 H   0  0  0  0  0  0  0  0  0  0  0  0
  149.5004  132.2902  153.6844 H   0  0  0  0  0  0  0  0  0  0  0  0
  147.0092  135.0918  153.5119 H   0  0  0  0  0  0  0  0  0  0  0  0
  146.3266  132.2571  154.3947 H   0  0  0  0  0  0  0  0  0  0  0  0
  145.3965  133.7289  154.7033 H   0  0  0  0  0  0  0  0  0  0  0  0
  144.7097  132.2223  152.5840 H   0  0  0  0  0  0  0  0  0  0  0  0
  144.8794  133.9661  152.3448 H   0  0  0  0  0  0  0  0  0  0  0  0
  146.8912  131.8009  151.6717 H   0  0  0  0  0  0  0  0  0  0  0  0
  146.4643  133.2247  150.7195 H   0  0  0  0  0  0  0  0  0  0  0  0
  1  2  1  0  0  0  0
  1 20  1  0  0  0  0
  1 21  1  0  0  0  0
  1 22  1  0  0  0  0
  2  3  1  0  0  0  0
  2 23  1  0  0  0  0
  2 24  1  0  0  0  0
  3  4  1  0  0  0  0
  3 25  1  0  0  0  0
  3 26  1  0  0  0  0
  4 19  1  0  0  0  0
  4  5  2  0  0  0  0
  5  6  1  0  0  0  0
  6  7  2  0  0  0  0
  7  8  1  0  0  0  0
  7 19  1  0  0  0  0
  8  9  1  0  0  0  0
  9 10  2  0  0  0  0
  9 11  1  0  0  0  0
 11 12  1  0  0  0  0
 11 27  1  0  0  0  0
 12 13  1  0  0  0  0
 12 14  1  0  0  0  0
 12 28  1  0  0  0  0
 13 29  1  0  0  0  0
 13 30  1  0  0  0  0
 13 31  1  0  0  0  0
 14 18  1  0  0  0  0
 14 15  1  0  0  0  0
 14 32  1  0  0  0  0
 15 16  1  0  0  0  0
 15 33  1  0  0  0  0
 15 34  1  0  0  0  0
 16 17  1  0  0  0  0
 16 35  1  0  0  0  0
 16 36  1  0  0  0  0
 17 18  1  0  0  0  0
 17 37  1  0  0  0  0
 17 38  1  0  0  0  0
M  CHG  1   8  -1
M  END
> <s_m_source_file>
AV-unprocessed.smi

> <i_m_source_file_index>
1251

> <i_lp_mmshare_version>
43012

> <i_f3d_flags>
0

> <s_epik_input>
W0NIM11bQ0gyXVtDSDJdYzFubmMoczEpW05IXUMoPU8pW05IXVtDQEhdKFtDSDNdKVtDQEBIXTJbQ0gyXVtDSDJdW0NIMl1PMg==

> <s_epik_cmdline>
J2VwaWtfcHl0aG9uJywgJy1waCcsICc3LjAnLCAnLXRuJywgJzgnLCAnLW1hJywgJzIwMCcsICctbWV0YWxfYmluZGluZycsICctaW1hZScsICc8aW5maWxlLm1hZT4nLCAnLW9tYWUnLCAnPG91dGZpbGUubWFlPic=

> <r_lp_tautomer_probability>
1

> <r_epik_Ionization_Penalty>
4.22551

> <r_epik_Ionization_Penalty_Charging>
4.21437

> <r_epik_Ionization_Penalty_Neutral>
0.0111434

> <r_epik_State_Penalty>
4.21389

> <r_epik_Charging_Adjusted_Penalty>
8.42826

> <i_epik_Tot_Q>
-1

> <i_epik_Tot_abs_Q>
1

> <r_epik_Metal_State_Penalty>
0.69377

> <b_epik_Metal_Only>
1

> <s_lp_Force_Field>
OPLS_2005

> <r_lp_Energy>
11.2841

> <b_lp_Chiralities_Consistent>
1

> <s_lp_Variant>
AV-unprocessed.smi:1251-5

> <Gold.Version>
5.8.1

> <Gold.Id.Protein>
6NUR|6NUR_protein|mol2

> <Gold.PLP.Fitness>
39.5687

> <Gold.PLP.PLP>
-29.4377

> <Gold.PLP.part.hbond>
-3.0000

> <Gold.PLP.part.metal>
0.0000

> <Gold.PLP.part.buried>
-6.6494

> <Gold.PLP.part.nonpolar>
-22.3289

> <Gold.PLP.part.repulsive>
1.7832

> <Gold.PLP.ligand.clash>
0.0000

> <Gold.PLP.ligand.torsion>
1.0389

> <Gold.PLP.Chemscore.Hbond>
4.0000

> <Gold.PLP.Chemscore.CHOScore>
0.0000

> <Gold.PLP.Chemscore.Metal>
0.0000

> <Gold.Chemscore.Hbonds>
donor molecule, donor type, donor heavy atom, donor atom, acceptor molecule, acceptor atom, score
      L1  H    11    27       P1  7948  1.00
      P1  H  7989  7998       L1     5  1.00
      P1  H 10752 10763       L1     8  2.00

> <Gold.PLP.Chemscore.Internal.Correction>
0.2088

> <Gold.Rescore>
     Score         DG    S(hbond)    S(metal)    S(lipo)     H(rot)  DE(clash)    DE(int)     intcor
     13.90     -15.13       2.13        0.00      55.64       1.55       0.07       1.15       ----

> <Gold.Chemscore.Fitness>
13.9026

> <Gold.Chemscore.DG>
-15.1289

> <Gold.Chemscore.ZeroCoef>
-5.4800

> <Gold.Chemscore.Hbond>
2.1255

> <Gold.Chemscore.Metal>
0.0000

> <Gold.Chemscore.Lipo>
55.6381

> <Gold.Chemscore.Internal_Hbond>
0.0000

> <Gold.Chemscore.DEClash>
0.0727

> <Gold.Chemscore.DEInternal>
1.1535

> <Gold.Chemscore.Rot>
1.5469

> <Gold.Chemscore.Internal.Correction>
   9.000000E+99

> <Gold.Chemscore.Hbonds>
donor molecule, donor type, donor heavy atom, donor atom, acceptor molecule, acceptor atom, score
      L1  H    11    27       P1  7948  0.26
      P1  H  7989  7998       L1     5  0.81
      P1  H 10752 10763       L1     8  0.65

> <Gold.Chemscore.Hbond.Weighted>
-7.0992

> <Gold.Chemscore.Metal.Weighted>
-0.0000

> <Gold.Chemscore.Lipo.Weighted>
-6.5097

> <Gold.Chemscore.Internal_Hbond.Weighted>
0.0000

> <Gold.Chemscore.DEClash.Weighted>
0.0727

> <Gold.Chemscore.DEInternal.Weighted>
1.1535

> <Gold.Chemscore.Rot.Weighted>
3.9600

> <Gold.Chemscore.Internal.Correction.Weighted>
   9.000000E+99

> <Gold.Protein.RotatedTorsions>
[ 6907 6896 6895 6894 ] final   92.25 input  -60.11 | X-H torsion
[ 7974 7965 7964 7962 ] final -127.76 input  175.53 | X-H torsion
[ 8008 7997 7996 7995 ] final   60.02 input   59.86 | X-H torsion
[ 10167 10162 10161 10158 ] final -102.03 input  -65.29 | X-H torsion
[ 10718 10713 10712 10709 ] final -153.95 input   66.30 | X-H torsion
[ 10763 10752 10751 10750 ] final   53.10 input  -60.55 | X-H torsion
[ 11005 11000 10999 10996 ] final  -85.46 input  -57.11 | X-H torsion

> <Gold.Protein.ActiveResidues>
 VAL166  LYS551  ARG553  GLY616  TRP617  ASP618  TYR619  PRO620  LYS621  CYS622 
 ASP623  PHE694  ASN695  SER759  ASP760  ASP761  ALA762  ILE779  LEU786  VAL792 
 PHE793  MET794  SER795  GLU796  ALA797  LYS798  CYS799  TRP800  GLU811  SER814 

> <Gold.Protein.RotatedAtoms>
  152.5452  134.1531  159.8526 H   0  0  0  0  0  0  0  0  0  0  0  0  # atno 6907 bound_to 6896
  151.1556  133.4871  159.2602 H   0  0  0  0  0  0  0  0  0  0  0  0  # atno 6908 bound_to 6896
  151.1426  135.0198  159.8687 H   0  0  0  0  0  0  0  0  0  0  0  0  # atno 6909 bound_to 6896
  144.9739  140.7573  143.4654 H   0  0  0  0  0  0  0  0  0  0  0  0  # atno 7974 bound_to 7965
  155.5755  140.3490  155.4526 H   0  0  0  0  0  0  0  0  0  0  0  0  # atno 8008 bound_to 7997
  156.0412  140.1296  157.0178 H   0  0  0  0  0  0  0  0  0  0  0  0  # atno 8009 bound_to 7997
  154.4393  140.1023  156.6225 H   0  0  0  0  0  0  0  0  0  0  0  0  # atno 8010 bound_to 7997
  140.2350  143.3579  152.0853 H   0  0  0  0  0  0  0  0  0  0  0  0  # atno 10167 bound_to 10162
  156.4928  130.8355  151.2577 H   0  0  0  0  0  0  0  0  0  0  0  0  # atno 10718 bound_to 10713
  152.9793  135.5790  154.4687 H   0  0  0  0  0  0  0  0  0  0  0  0  # atno 10763 bound_to 10752
  154.4253  135.2772  155.1951 H   0  0  0  0  0  0  0  0  0  0  0  0  # atno 10764 bound_to 10752
  154.3682  135.6173  153.5780 H   0  0  0  0  0  0  0  0  0  0  0  0  # atno 10765 bound_to 10752
  141.1641  133.7400  156.9017 H   0  0  0  0  0  0  0  0  0  0  0  0  # atno 11005 bound_to 11000
  145.2519  139.2028  143.4938 LP  0  0  0  0  0  0  0  0  0  0  0  0  # atno 17320 bound_to 7965
  146.3390  140.2433  142.8596 LP  0  0  0  0  0  0  0  0  0  0  0  0  # atno 17321 bound_to 7965
  139.5097  144.6871  151.5858 LP  0  0  0  0  0  0  0  0  0  0  0  0  # atno 17342 bound_to 10162
  140.6157  143.9353  150.6486 LP  0  0  0  0  0  0  0  0  0  0  0  0  # atno 17343 bound_to 10162
  157.7472  131.0008  150.2939 LP  0  0  0  0  0  0  0  0  0  0  0  0  # atno 17370 bound_to 10713
  156.3410  130.3815  149.7409 LP  0  0  0  0  0  0  0  0  0  0  0  0  # atno 17371 bound_to 10713
  140.1578  134.9186  157.2675 LP  0  0  0  0  0  0  0  0  0  0  0  0  # atno 17394 bound_to 11000
  140.2647  134.3530  155.7394 LP  0  0  0  0  0  0  0  0  0  0  0  0  # atno 17395 bound_to 11000

$$$$
