AV-unprocessed.smi:2911|AV-procd|sdf|11177|dock9
  -GOLD-   2272016 73D 1   1.00000     0.00000
 Structure written by MMmdl.
 41 42  0  0  0  0  0  0  0  0  1 V2000
  152.5703  138.3882  154.6953 C   0  0  0  0  0  0  0  0  0  0  0  0
  151.1518  138.8427  154.6438 C   0  0  0  0  0  0  0  0  0  0  0  0
  150.1590  137.9823  154.4540 N   0  0  0  0  0  0  0  0  0  0  0  0
  149.0177  138.7971  154.4706 O   0  0  0  0  0  0  0  0  0  0  0  0
  149.4659  140.0562  154.6927 C   0  0  0  0  0  0  0  0  0  0  0  0
  148.4823  141.1771  154.7269 C   0  0  0  0  0  0  0  0  0  0  0  0
  148.3443  141.7948  156.1275 C   0  0  0  0  0  0  0  0  0  0  0  0
  149.6244  142.2826  156.6275 N   0  0  0  0  0  0  0  0  0  0  0  0
  150.3426  141.7113  157.6093 C   0  0  0  0  0  0  0  0  0  0  0  0
  149.9834  140.6733  158.1655 O   0  0  0  0  0  0  0  0  0  0  0  0
  151.5395  142.3140  157.8250 N   0  0  0  0  0  0  0  0  0  0  0  0
  151.6831  143.7771  157.7214 C   0  0  0  0  0  0  0  0  0  0  0  0
  151.4746  144.4018  159.1146 C   0  0  0  0  0  0  0  0  0  0  0  0
  152.4555  143.8116  160.1505 C   0  0  1  0  0  0  0  0  0  0  0  0
  152.1729  144.3388  161.5639 C   0  0  0  0  0  0  0  0  0  0  0  0
  152.4515  142.2679  160.1058 C   0  0  0  0  0  0  0  0  0  0  0  0
  152.6247  141.7554  158.6611 C   0  0  1  0  0  0  0  0  0  0  0  0
  152.7909  140.2224  158.5925 C   0  0  0  0  0  0  0  0  0  0  0  0
  150.7900  140.1468  154.7913 N   0  0  0  0  0  0  0  0  0  0  0  0
  152.8621  138.1865  155.7259 H   0  0  0  0  0  0  0  0  0  0  0  0
  153.2315  139.1553  154.2913 H   0  0  0  0  0  0  0  0  0  0  0  0
  152.7058  137.4772  154.1112 H   0  0  0  0  0  0  0  0  0  0  0  0
  148.7971  141.9331  154.0067 H   0  0  0  0  0  0  0  0  0  0  0  0
  147.5172  140.8024  154.3842 H   0  0  0  0  0  0  0  0  0  0  0  0
  147.6534  142.6374  156.0934 H   0  0  0  0  0  0  0  0  0  0  0  0
  147.9195  141.0718  156.8259 H   0  0  0  0  0  0  0  0  0  0  0  0
  150.0009  143.1101  156.1880 H   0  0  0  0  0  0  0  0  0  0  0  0
  152.6766  144.0233  157.3441 H   0  0  0  0  0  0  0  0  0  0  0  0
  150.9875  144.2300  157.0142 H   0  0  0  0  0  0  0  0  0  0  0  0
  151.5999  145.4836  159.0568 H   0  0  0  0  0  0  0  0  0  0  0  0
  150.4473  144.2279  159.4382 H   0  0  0  0  0  0  0  0  0  0  0  0
  153.4577  144.1418  159.8732 H   0  0  0  0  0  0  0  0  0  0  0  0
  151.1809  144.0428  161.9065 H   0  0  0  0  0  0  0  0  0  0  0  0
  152.2250  145.4274  161.5943 H   0  0  0  0  0  0  0  0  0  0  0  0
  152.9006  143.9538  162.2789 H   0  0  0  0  0  0  0  0  0  0  0  0
  153.2528  141.8813  160.7368 H   0  0  0  0  0  0  0  0  0  0  0  0
  151.5185  141.8850  160.5224 H   0  0  0  0  0  0  0  0  0  0  0  0
  153.5620  142.1596  158.2750 H   0  0  0  0  0  0  0  0  0  0  0  0
  153.7314  139.9218  159.0548 H   0  0  0  0  0  0  0  0  0  0  0  0
  152.8104  139.8714  157.5604 H   0  0  0  0  0  0  0  0  0  0  0  0
  151.9998  139.6905  159.1201 H   0  0  0  0  0  0  0  0  0  0  0  0
  1  2  1  0  0  0  0
  1 20  1  0  0  0  0
  1 21  1  0  0  0  0
  1 22  1  0  0  0  0
  2 19  1  0  0  0  0
  2  3  2  0  0  0  0
  3  4  1  0  0  0  0
  4  5  1  0  0  0  0
  5  6  1  0  0  0  0
  5 19  2  0  0  0  0
  6  7  1  0  0  0  0
  6 23  1  0  0  0  0
  6 24  1  0  0  0  0
  7  8  1  0  0  0  0
  7 25  1  0  0  0  0
  7 26  1  0  0  0  0
  8  9  1  0  0  0  0
  8 27  1  0  0  0  0
  9 10  2  0  0  0  0
  9 11  1  0  0  0  0
 11 17  1  0  0  0  0
 11 12  1  0  0  0  0
 12 13  1  0  0  0  0
 12 28  1  0  0  0  0
 12 29  1  0  0  0  0
 13 14  1  0  0  0  0
 13 30  1  0  0  0  0
 13 31  1  0  0  0  0
 14 15  1  0  0  0  0
 14 16  1  0  0  0  0
 14 32  1  0  0  0  0
 15 33  1  0  0  0  0
 15 34  1  0  0  0  0
 15 35  1  0  0  0  0
 16 17  1  0  0  0  0
 16 36  1  0  0  0  0
 16 37  1  0  0  0  0
 17 18  1  0  0  0  0
 17 38  1  0  0  0  0
 18 39  1  0  0  0  0
 18 40  1  0  0  0  0
 18 41  1  0  0  0  0
M  END
> <s_m_source_file>
AV-unprocessed.smi

> <i_m_source_file_index>
2911

> <i_lp_mmshare_version>
43012

> <i_f3d_flags>
0

> <s_epik_input>
W0NIM11jMW5vYyhuMSlbQ0gyXVtDSDJdW05IXUMoPU8pTjJbQ0gyXVtDSDJdW0NAQEhdKFtDSDNdKVtDSDJdW0NASF0yW0NIM10=

> <s_epik_cmdline>
J2VwaWtfcHl0aG9uJywgJy1waCcsICc3LjAnLCAnLXRuJywgJzgnLCAnLW1hJywgJzIwMCcsICctbWV0YWxfYmluZGluZycsICctaW1hZScsICc8aW5maWxlLm1hZT4nLCAnLW9tYWUnLCAnPG91dGZpbGUubWFlPic=

> <r_lp_tautomer_probability>
1

> <r_epik_Ionization_Penalty>
6.61671e-05

> <r_epik_Ionization_Penalty_Charging>
0

> <r_epik_Ionization_Penalty_Neutral>
6.61671e-05

> <r_epik_State_Penalty>
-0

> <r_epik_Charging_Adjusted_Penalty>
0

> <i_epik_Tot_Q>
0

> <i_epik_Tot_abs_Q>
0

> <r_epik_Metal_State_Penalty>
-0

> <b_epik_Metal_Only>
0

> <s_lp_Force_Field>
OPLS_2005

> <r_lp_Energy>
29.1944

> <b_lp_Chiralities_Consistent>
1

> <s_lp_Variant>
AV-unprocessed.smi:2911-1

> <Gold.Version>
5.8.1

> <Gold.Id.Protein>
6NUR|6NUR_protein|mol2

> <Gold.PLP.Fitness>
44.7410

> <Gold.PLP.PLP>
-40.5861

> <Gold.PLP.part.hbond>
-2.0000

> <Gold.PLP.part.metal>
0.0000

> <Gold.PLP.part.buried>
-4.5525

> <Gold.PLP.part.nonpolar>
-34.1283

> <Gold.PLP.part.repulsive>
0.4960

> <Gold.PLP.ligand.clash>
0.0000

> <Gold.PLP.ligand.torsion>
0.4072

> <Gold.PLP.Chemscore.Hbond>
1.5148

> <Gold.PLP.Chemscore.CHOScore>
0.0000

> <Gold.PLP.Chemscore.Metal>
0.0000

> <Gold.Chemscore.Hbonds>
donor molecule, donor type, donor heavy atom, donor atom, acceptor molecule, acceptor atom, score
      L1  H     8    27       P1  8028  0.50
      P1  H  7989  7998       L1    19  1.00

> <Gold.PLP.Chemscore.Internal.Correction>
0.4249

> <Gold.Rescore>
     Score         DG    S(hbond)    S(metal)    S(lipo)     H(rot)  DE(clash)    DE(int)     intcor
     15.64     -17.63       1.55        0.00      94.70       1.61       0.07       1.91       ----

> <Gold.Chemscore.Fitness>
15.6427

> <Gold.Chemscore.DG>
-17.6301

> <Gold.Chemscore.ZeroCoef>
-5.4800

> <Gold.Chemscore.Hbond>
1.5536

> <Gold.Chemscore.Metal>
0.0000

> <Gold.Chemscore.Lipo>
94.6983

> <Gold.Chemscore.Internal_Hbond>
0.0000

> <Gold.Chemscore.DEClash>
0.0748

> <Gold.Chemscore.DEInternal>
1.9126

> <Gold.Chemscore.Rot>
1.6088

> <Gold.Chemscore.Internal.Correction>
   9.000000E+99

> <Gold.Chemscore.Hbonds>
donor molecule, donor type, donor heavy atom, donor atom, acceptor molecule, acceptor atom, score
      L1  H     8    27       P1  8028  0.45
      P1  H  7989  7998       L1    19  0.29

> <Gold.Chemscore.Hbond.Weighted>
-5.1890

> <Gold.Chemscore.Metal.Weighted>
-0.0000

> <Gold.Chemscore.Lipo.Weighted>
-11.0797

> <Gold.Chemscore.Internal_Hbond.Weighted>
0.0000

> <Gold.Chemscore.DEClash.Weighted>
0.0748

> <Gold.Chemscore.DEInternal.Weighted>
1.9126

> <Gold.Chemscore.Rot.Weighted>
4.1186

> <Gold.Chemscore.Internal.Correction.Weighted>
   9.000000E+99

> <Gold.Protein.RotatedTorsions>
[ 6907 6896 6895 6894 ] final -158.90 input  -60.11 | X-H torsion
[ 7974 7965 7964 7962 ] final  -15.46 input  175.53 | X-H torsion
[ 8008 7997 7996 7995 ] final  -58.87 input   59.86 | X-H torsion
[ 10167 10162 10161 10158 ] final  -79.57 input  -65.29 | X-H torsion
[ 10718 10713 10712 10709 ] final -133.99 input   66.30 | X-H torsion
[ 10763 10752 10751 10750 ] final   43.33 input  -60.55 | X-H torsion
[ 11005 11000 10999 10996 ] final -109.01 input  -57.11 | X-H torsion

> <Gold.Protein.ActiveResidues>
 VAL166  LYS551  ARG553  GLY616  TRP617  ASP618  TYR619  PRO620  LYS621  CYS622 
 ASP623  PHE694  ASN695  SER759  ASP760  ASP761  ALA762  ILE779  LEU786  VAL792 
 PHE793  MET794  SER795  GLU796  ALA797  LYS798  CYS799  TRP800  GLU811  SER814 

> <Gold.Protein.RotatedAtoms>
  151.3253  133.4023  159.2657 H   0  0  0  0  0  0  0  0  0  0  0  0  # atno 6907 bound_to 6896
  151.0000  134.9315  159.7959 H   0  0  0  0  0  0  0  0  0  0  0  0  # atno 6908 bound_to 6896
  152.5272  134.3218  159.9203 H   0  0  0  0  0  0  0  0  0  0  0  0  # atno 6909 bound_to 6896
  146.2031  140.3495  142.8416 H   0  0  0  0  0  0  0  0  0  0  0  0  # atno 7974 bound_to 7965
  154.4327  140.1074  156.6025 H   0  0  0  0  0  0  0  0  0  0  0  0  # atno 8008 bound_to 7997
  155.5896  140.3492  155.4544 H   0  0  0  0  0  0  0  0  0  0  0  0  # atno 8009 bound_to 7997
  156.0257  140.1249  157.0301 H   0  0  0  0  0  0  0  0  0  0  0  0  # atno 8010 bound_to 7997
  140.4581  143.2462  151.8389 H   0  0  0  0  0  0  0  0  0  0  0  0  # atno 10167 bound_to 10162
  156.2508  130.7152  151.1049 H   0  0  0  0  0  0  0  0  0  0  0  0  # atno 10718 bound_to 10713
  152.9863  135.6104  154.3094 H   0  0  0  0  0  0  0  0  0  0  0  0  # atno 10763 bound_to 10752
  154.2810  135.2777  155.2699 H   0  0  0  0  0  0  0  0  0  0  0  0  # atno 10764 bound_to 10752
  154.5037  135.5860  153.6607 H   0  0  0  0  0  0  0  0  0  0  0  0  # atno 10765 bound_to 10752
  141.0871  133.9120  157.2161 H   0  0  0  0  0  0  0  0  0  0  0  0  # atno 11005 bound_to 11000
  144.8729  140.7297  143.6035 LP  0  0  0  0  0  0  0  0  0  0  0  0  # atno 17320 bound_to 7965
  145.3415  139.1731  143.4483 LP  0  0  0  0  0  0  0  0  0  0  0  0  # atno 17321 bound_to 7965
  139.4803  144.5040  151.9022 LP  0  0  0  0  0  0  0  0  0  0  0  0  # atno 17342 bound_to 10162
  140.4126  144.2349  150.5888 LP  0  0  0  0  0  0  0  0  0  0  0  0  # atno 17343 bound_to 10162
  157.7213  131.0679  150.6122 LP  0  0  0  0  0  0  0  0  0  0  0  0  # atno 17370 bound_to 10713
  156.6202  130.4403  149.5825 LP  0  0  0  0  0  0  0  0  0  0  0  0  # atno 17371 bound_to 10713
  139.9691  135.0133  156.9464 LP  0  0  0  0  0  0  0  0  0  0  0  0  # atno 17394 bound_to 11000
  140.5338  134.0787  155.7323 LP  0  0  0  0  0  0  0  0  0  0  0  0  # atno 17395 bound_to 11000

$$$$
