AV-unprocessed.smi:2446|AV-procd|sdf|9646|dock1
  -GOLD-   2272013283D 1   1.00000     0.00000
 Structure written by MMmdl.
 40 41  0  0  0  0  0  0  0  0  2 V2000
  146.3761  131.5468  148.7101 C   0  0  0  0  0  0  0  0  0  0  0  0
  145.3807  132.1143  149.7079 C   0  0  0  0  0  0  0  0  0  0  0  0
  144.2413  132.8032  149.2380 C   0  0  0  0  0  0  0  0  0  0  0  0
  143.3502  133.3154  150.1124 N   0  3  0  0  0  0  0  0  0  0  0  0
  143.4953  133.2076  151.4493 C   0  0  0  0  0  0  0  0  0  0  0  0
  144.6109  132.5326  151.9832 C   0  0  0  0  0  0  0  0  0  0  0  0
  145.5685  131.9617  151.1059 C   0  0  0  0  0  0  0  0  0  0  0  0
  146.7314  131.2773  151.5589 N   0  0  0  0  0  0  0  0  0  0  0  0
  147.0062  130.7771  152.7796 C   0  0  0  0  0  0  0  0  0  0  0  0
  146.2654  130.8652  153.7560 O   0  0  0  0  0  0  0  0  0  0  0  0
  148.1867  130.1354  152.8579 N   0  0  0  0  0  0  0  0  0  0  0  0
  148.7916  129.4793  154.0199 C   0  0  1  0  0  0  0  0  0  0  0  0
  148.8298  127.9582  153.7884 C   0  0  0  0  0  0  0  0  0  0  0  0
  149.5119  127.2326  154.9582 C   0  0  0  0  0  0  0  0  0  0  0  0
  150.9231  127.7857  155.2128 C   0  0  0  0  0  0  0  0  0  0  0  0
  150.8999  129.3090  155.4584 C   0  0  1  0  0  0  0  0  0  0  0  0
  152.3079  129.8749  155.7354 C   0  0  0  0  0  0  0  0  0  0  0  0
  153.1235  129.6442  154.7061 F   0  0  0  0  0  0  0  0  0  0  0  0
  152.2365  131.1899  155.9429 F   0  0  0  0  0  0  0  0  0  0  0  0
  152.8209  129.3089  156.8278 F   0  0  0  0  0  0  0  0  0  0  0  0
  150.2129  130.0244  154.2760 C   0  0  0  0  0  0  0  0  0  0  0  0
  146.0862  131.7804  147.6852 H   0  0  0  0  0  0  0  0  0  0  0  0
  146.4341  130.4621  148.8046 H   0  0  0  0  0  0  0  0  0  0  0  0
  147.3698  131.9621  148.8814 H   0  0  0  0  0  0  0  0  0  0  0  0
  144.0168  132.9611  148.1930 H   0  0  0  0  0  0  0  0  0  0  0  0
  142.7230  133.6667  152.0492 H   0  0  0  0  0  0  0  0  0  0  0  0
  144.7141  132.4790  153.0559 H   0  0  0  0  0  0  0  0  0  0  0  0
  147.4101  131.0660  150.8422 H   0  0  0  0  0  0  0  0  0  0  0  0
  148.7362  130.1098  152.0107 H   0  0  0  0  0  0  0  0  0  0  0  0
  148.1748  129.6608  154.9023 H   0  0  0  0  0  0  0  0  0  0  0  0
  147.8174  127.5735  153.6592 H   0  0  0  0  0  0  0  0  0  0  0  0
  149.3655  127.7359  152.8642 H   0  0  0  0  0  0  0  0  0  0  0  0
  148.9077  127.3433  155.8594 H   0  0  0  0  0  0  0  0  0  0  0  0
  149.5645  126.1634  154.7511 H   0  0  0  0  0  0  0  0  0  0  0  0
  151.3620  127.2735  156.0693 H   0  0  0  0  0  0  0  0  0  0  0  0
  151.5613  127.5575  154.3581 H   0  0  0  0  0  0  0  0  0  0  0  0
  150.2972  129.4910  156.3499 H   0  0  0  0  0  0  0  0  0  0  0  0
  150.8179  129.9056  153.3758 H   0  0  0  0  0  0  0  0  0  0  0  0
  150.1698  131.0953  154.4734 H   0  0  0  0  0  0  0  0  0  0  0  0
  142.5354  133.8096  149.7476 H   0  0  0  0  0  0  0  0  0  0  0  0
  1  2  1  0  0  0  0
  1 22  1  0  0  0  0
  1 23  1  0  0  0  0
  1 24  1  0  0  0  0
  2  7  1  0  0  0  0
  2  3  2  0  0  0  0
  3  4  1  0  0  0  0
  3 25  1  0  0  0  0
  4  5  2  0  0  0  0
  4 40  1  0  0  0  0
  5  6  1  0  0  0  0
  5 26  1  0  0  0  0
  6  7  2  0  0  0  0
  6 27  1  0  0  0  0
  7  8  1  0  0  0  0
  8  9  1  0  0  0  0
  8 28  1  0  0  0  0
  9 10  2  0  0  0  0
  9 11  1  0  0  0  0
 11 12  1  0  0  0  0
 11 29  1  0  0  0  0
 12 21  1  0  0  0  0
 12 13  1  0  0  0  0
 12 30  1  0  0  0  0
 13 14  1  0  0  0  0
 13 31  1  0  0  0  0
 13 32  1  0  0  0  0
 14 15  1  0  0  0  0
 14 33  1  0  0  0  0
 14 34  1  0  0  0  0
 15 16  1  0  0  0  0
 15 35  1  0  0  0  0
 15 36  1  0  0  0  0
 16 17  1  0  0  0  0
 16 21  1  0  0  0  0
 16 37  1  0  0  0  0
 17 18  1  0  0  0  0
 17 19  1  0  0  0  0
 17 20  1  0  0  0  0
 21 38  1  0  0  0  0
 21 39  1  0  0  0  0
M  CHG  1   4   1
M  END
> <s_m_source_file>
AV-unprocessed.smi

> <i_m_source_file_index>
2446

> <i_lp_mmshare_version>
43012

> <i_f3d_flags>
0

> <s_epik_input>
W0NIM11jMVtjSF1uW2NIXVtjSF1jMVtOSF1DKD1PKVtOSF1bQ0BASF0yW0NIMl1bQ0gyXVtDSDJdW0NAQEhdKEMoRikoRilGKVtDSDJdMg==

> <s_epik_cmdline>
J2VwaWtfcHl0aG9uJywgJy1waCcsICc3LjAnLCAnLXRuJywgJzgnLCAnLW1hJywgJzIwMCcsICctbWV0YWxfYmluZGluZycsICctaW1hZScsICc8aW5maWxlLm1hZT4nLCAnLW9tYWUnLCAnPG91dGZpbGUubWFlPic=

> <r_epik_Ionization_Penalty>
0.736582

> <r_epik_Ionization_Penalty_Charging>
0.736562

> <r_epik_Ionization_Penalty_Neutral>
1.98379e-05

> <r_epik_State_Penalty>
0.762314

> <r_epik_Charging_Adjusted_Penalty>
1.49888

> <i_epik_Tot_Q>
1

> <i_epik_Tot_abs_Q>
1

> <r_epik_Metal_State_Penalty>
0.914579

> <b_epik_Metal_Only>
0

> <s_lp_Force_Field>
OPLS_2005

> <r_lp_Energy>
31.4788

> <b_lp_Chiralities_Consistent>
1

> <s_lp_Variant>
AV-unprocessed.smi:2446-6

> <Gold.Version>
5.8.1

> <Gold.Id.Protein>
6NUR|6NUR_protein|mol2

> <Gold.PLP.Fitness>
46.9362

> <Gold.PLP.PLP>
-35.3222

> <Gold.PLP.part.hbond>
-3.0000

> <Gold.PLP.part.metal>
0.0000

> <Gold.PLP.part.buried>
-2.4743

> <Gold.PLP.part.nonpolar>
-28.2920

> <Gold.PLP.part.repulsive>
0.2565

> <Gold.PLP.ligand.clash>
0.0000

> <Gold.PLP.ligand.torsion>
0.1202

> <Gold.PLP.Chemscore.Hbond>
3.9440

> <Gold.PLP.Chemscore.CHOScore>
0.0000

> <Gold.PLP.Chemscore.Metal>
0.0000

> <Gold.Chemscore.Hbonds>
donor molecule, donor type, donor heavy atom, donor atom, acceptor molecule, acceptor atom, score
      L1  H     4    40       P1 10186  2.00
      L1  H     8    28       P1 10747  1.00
      L1  H    11    29       P1 10747  0.94

> <Gold.PLP.Chemscore.Internal.Correction>
0.0223

> <Gold.Rescore>
     Score         DG    S(hbond)    S(metal)    S(lipo)     H(rot)  DE(clash)    DE(int)     intcor
     19.61     -20.95       2.43        0.00      84.72       1.00       0.06       1.28       ----

> <Gold.Chemscore.Fitness>
19.6110

> <Gold.Chemscore.DG>
-20.9544

> <Gold.Chemscore.ZeroCoef>
-5.4800

> <Gold.Chemscore.Hbond>
2.4317

> <Gold.Chemscore.Metal>
0.0000

> <Gold.Chemscore.Lipo>
84.7222

> <Gold.Chemscore.Internal_Hbond>
0.0000

> <Gold.Chemscore.DEClash>
0.0638

> <Gold.Chemscore.DEInternal>
1.2795

> <Gold.Chemscore.Rot>
1.0000

> <Gold.Chemscore.Internal.Correction>
   9.000000E+99

> <Gold.Chemscore.Hbonds>
donor molecule, donor type, donor heavy atom, donor atom, acceptor molecule, acceptor atom, score
      L1  H     4    40       P1 10186  1.00
      L1  H     8    28       P1 10747  0.97
      L1  H    11    29       P1 10747  0.27

> <Gold.Chemscore.Hbond.Weighted>
-8.1219

> <Gold.Chemscore.Metal.Weighted>
-0.0000

> <Gold.Chemscore.Lipo.Weighted>
-9.9125

> <Gold.Chemscore.Internal_Hbond.Weighted>
0.0000

> <Gold.Chemscore.DEClash.Weighted>
0.0638

> <Gold.Chemscore.DEInternal.Weighted>
1.2795

> <Gold.Chemscore.Rot.Weighted>
2.5600

> <Gold.Chemscore.Internal.Correction.Weighted>
   9.000000E+99

> <Gold.Protein.RotatedTorsions>
[ 6907 6896 6895 6894 ] final  -91.87 input  -60.11 | X-H torsion
[ 7974 7965 7964 7962 ] final  -54.53 input  175.53 | X-H torsion
[ 8008 7997 7996 7995 ] final   59.27 input   59.86 | X-H torsion
[ 10167 10162 10161 10158 ] final  -73.94 input  -65.29 | X-H torsion
[ 10718 10713 10712 10709 ] final   43.20 input   66.30 | X-H torsion
[ 10763 10752 10751 10750 ] final   27.05 input  -60.55 | X-H torsion
[ 11005 11000 10999 10996 ] final  133.87 input  -57.11 | X-H torsion

> <Gold.Protein.ActiveResidues>
 VAL166  LYS551  ARG553  GLY616  TRP617  ASP618  TYR619  PRO620  LYS621  CYS622 
 ASP623  PHE694  ASN695  SER759  ASP760  ASP761  ALA762  ILE779  LEU786  VAL792 
 PHE793  MET794  SER795  GLU796  ALA797  LYS798  CYS799  TRP800  GLU811  SER814 

> <Gold.Protein.RotatedAtoms>
  150.6898  134.2210  159.4396 H   0  0  0  0  0  0  0  0  0  0  0  0  # atno 6907 bound_to 6896
  152.0167  134.9843  160.0579 H   0  0  0  0  0  0  0  0  0  0  0  0  # atno 6908 bound_to 6896
  152.1437  133.4444  159.4816 H   0  0  0  0  0  0  0  0  0  0  0  0  # atno 6909 bound_to 6896
  145.8845  140.8119  142.9823 H   0  0  0  0  0  0  0  0  0  0  0  0  # atno 7974 bound_to 7965
  155.5635  140.3488  155.4497 H   0  0  0  0  0  0  0  0  0  0  0  0  # atno 8008 bound_to 7997
  156.0497  140.1315  157.0090 H   0  0  0  0  0  0  0  0  0  0  0  0  # atno 8009 bound_to 7997
  154.4428  140.1007  156.6343 H   0  0  0  0  0  0  0  0  0  0  0  0  # atno 8010 bound_to 7997
  140.5068  143.2351  151.7660 H   0  0  0  0  0  0  0  0  0  0  0  0  # atno 10167 bound_to 10162
  157.4133  130.7927  149.7450 H   0  0  0  0  0  0  0  0  0  0  0  0  # atno 10718 bound_to 10713
  153.0581  135.6546  154.0528 H   0  0  0  0  0  0  0  0  0  0  0  0  # atno 10763 bound_to 10752
  154.0201  135.2920  155.3383 H   0  0  0  0  0  0  0  0  0  0  0  0  # atno 10764 bound_to 10752
  154.6907  135.5284  153.8455 H   0  0  0  0  0  0  0  0  0  0  0  0  # atno 10765 bound_to 10752
  139.9879  134.9526  156.9786 H   0  0  0  0  0  0  0  0  0  0  0  0  # atno 11005 bound_to 11000
  144.6728  140.1435  143.7435 LP  0  0  0  0  0  0  0  0  0  0  0  0  # atno 17320 bound_to 7965
  145.8983  139.2415  143.1509 LP  0  0  0  0  0  0  0  0  0  0  0  0  # atno 17321 bound_to 7965
  139.4886  144.4446  151.9725 LP  0  0  0  0  0  0  0  0  0  0  0  0  # atno 17342 bound_to 10162
  140.3536  144.3058  150.5945 LP  0  0  0  0  0  0  0  0  0  0  0  0  # atno 17343 bound_to 10162
  155.9857  130.3980  150.3247 LP  0  0  0  0  0  0  0  0  0  0  0  0  # atno 17370 bound_to 10713
  157.1388  131.0291  151.2937 LP  0  0  0  0  0  0  0  0  0  0  0  0  # atno 17371 bound_to 10713
  140.4967  134.1139  155.7242 LP  0  0  0  0  0  0  0  0  0  0  0  0  # atno 17394 bound_to 11000
  141.1540  133.8916  157.2025 LP  0  0  0  0  0  0  0  0  0  0  0  0  # atno 17395 bound_to 11000

$$$$
