AV-unprocessed.smi:1538|AV-procd|sdf|6192|dock4
  -GOLD-   22720 6353D 1   1.00000     0.00000
 Structure written by MMmdl.
 37 38  0  0  0  0  0  0  0  0  2 V2000
  152.4921  143.5021  161.9496 C   0  0  0  0  0  0  0  0  0  0  0  0
  152.0588  143.7639  160.5759 N   0  0  0  0  0  0  0  0  0  0  0  0
  153.0649  143.4811  159.5449 C   0  0  0  0  0  0  0  0  0  0  0  0
  152.7897  144.2021  158.2185 C   0  0  0  0  0  0  0  0  0  0  0  0
  151.3325  144.0359  157.7638 C   0  0  1  0  0  0  0  0  0  0  0  0
  151.0295  142.6281  157.2205 C   0  0  0  0  0  0  0  0  0  0  0  0
  151.6800  141.6559  157.6048 O   0  0  0  0  0  0  0  0  0  0  0  0
  150.0284  142.5286  156.3335 N   0  0  0  0  0  0  0  0  0  0  0  0
  149.5991  141.2805  155.7189 C   0  0  0  0  0  0  0  0  0  0  0  0
  148.2290  141.4493  155.0490 C   0  0  0  0  0  0  0  0  0  0  0  0
  147.8925  140.2987  154.2085 N   0  0  0  0  0  0  0  0  0  0  0  0
  146.7597  140.1222  153.4564 C   0  0  0  0  0  0  0  0  0  0  0  0
  146.8873  138.9048  152.8382 C   0  0  0  0  0  0  0  0  0  0  0  0
  148.0921  138.3914  153.2377 N   0  3  0  0  0  0  0  0  0  0  0  0
  148.7023  139.2406  154.0709 C   0  0  0  0  0  0  0  0  0  0  0  0
  150.3443  144.4560  158.8761 C   0  0  0  0  0  0  0  0  0  0  0  0
  150.7947  144.1819  160.3239 C   0  0  0  0  0  0  0  0  0  0  0  0
  149.9750  144.3719  161.2229 O   0  0  0  0  0  0  0  0  0  0  0  0
  151.7988  142.8292  162.4564 H   0  0  0  0  0  0  0  0  0  0  0  0
  152.5408  144.4325  162.5168 H   0  0  0  0  0  0  0  0  0  0  0  0
  153.4775  143.0361  161.9897 H   0  0  0  0  0  0  0  0  0  0  0  0
  154.0547  143.7713  159.9001 H   0  0  0  0  0  0  0  0  0  0  0  0
  153.1009  142.4025  159.3885 H   0  0  0  0  0  0  0  0  0  0  0  0
  153.0020  145.2652  158.3406 H   0  0  0  0  0  0  0  0  0  0  0  0
  153.4773  143.8443  157.4511 H   0  0  0  0  0  0  0  0  0  0  0  0
  151.1816  144.7267  156.9322 H   0  0  0  0  0  0  0  0  0  0  0  0
  149.5364  143.3703  156.0694 H   0  0  0  0  0  0  0  0  0  0  0  0
  150.3411  140.9680  154.9822 H   0  0  0  0  0  0  0  0  0  0  0  0
  149.5510  140.5000  156.4803 H   0  0  0  0  0  0  0  0  0  0  0  0
  147.4420  141.5695  155.7954 H   0  0  0  0  0  0  0  0  0  0  0  0
  148.2145  142.3395  154.4184 H   0  0  0  0  0  0  0  0  0  0  0  0
  145.9681  140.8566  153.4170 H   0  0  0  0  0  0  0  0  0  0  0  0
  146.2286  138.3801  152.1613 H   0  0  0  0  0  0  0  0  0  0  0  0
  149.6606  139.0994  154.5384 H   0  0  0  0  0  0  0  0  0  0  0  0
  150.1768  145.5311  158.8013 H   0  0  0  0  0  0  0  0  0  0  0  0
  149.3660  143.9975  158.7211 H   0  0  0  0  0  0  0  0  0  0  0  0
  148.4698  137.4986  152.9453 H   0  0  0  0  0  0  0  0  0  0  0  0
  1  2  1  0  0  0  0
  1 19  1  0  0  0  0
  1 20  1  0  0  0  0
  1 21  1  0  0  0  0
  2 17  1  0  0  0  0
  2  3  1  0  0  0  0
  3  4  1  0  0  0  0
  3 22  1  0  0  0  0
  3 23  1  0  0  0  0
  4  5  1  0  0  0  0
  4 24  1  0  0  0  0
  4 25  1  0  0  0  0
  5  6  1  0  0  0  0
  5 16  1  0  0  0  0
  5 26  1  0  0  0  0
  6  7  2  0  0  0  0
  6  8  1  0  0  0  0
  8  9  1  0  0  0  0
  8 27  1  0  0  0  0
  9 10  1  0  0  0  0
  9 28  1  0  0  0  0
  9 29  1  0  0  0  0
 10 11  1  0  0  0  0
 10 30  1  0  0  0  0
 10 31  1  0  0  0  0
 11 15  1  0  0  0  0
 11 12  1  0  0  0  0
 12 13  2  0  0  0  0
 12 32  1  0  0  0  0
 13 14  1  0  0  0  0
 13 33  1  0  0  0  0
 14 15  2  0  0  0  0
 14 37  1  0  0  0  0
 15 34  1  0  0  0  0
 16 17  1  0  0  0  0
 16 35  1  0  0  0  0
 16 36  1  0  0  0  0
 17 18  2  0  0  0  0
M  CHG  1  14   1
M  END
> <s_m_source_file>
AV-unprocessed.smi

> <i_m_source_file_index>
1538

> <i_lp_mmshare_version>
43012

> <i_f3d_flags>
0

> <s_epik_input>
W0NIM11OMVtDSDJdW0NIMl1bQ0BIXShbQ0gyXUMxPU8pQyg9TylbTkhdW0NIMl1bQ0gyXW4yW2NIXVtjSF1uW2NIXTI=

> <s_epik_cmdline>
J2VwaWtfcHl0aG9uJywgJy1waCcsICc3LjAnLCAnLXRuJywgJzgnLCAnLW1hJywgJzIwMCcsICctbWV0YWxfYmluZGluZycsICctaW1hZScsICc8aW5maWxlLm1hZT4nLCAnLW9tYWUnLCAnPG91dGZpbGUubWFlPic=

> <r_lp_tautomer_probability>
1

> <r_epik_Ionization_Penalty>
0.272873

> <r_epik_Ionization_Penalty_Charging>
0

> <r_epik_Ionization_Penalty_Neutral>
0.272873

> <r_epik_State_Penalty>
0.265096

> <r_epik_Charging_Adjusted_Penalty>
0.265096

> <i_epik_Tot_Q>
1

> <i_epik_Tot_abs_Q>
1

> <r_epik_Metal_State_Penalty>
0.549113

> <b_epik_Metal_Only>
0

> <s_lp_Force_Field>
OPLS_2005

> <r_lp_Energy>
17.3063

> <b_lp_Chiralities_Consistent>
1

> <s_lp_Variant>
AV-unprocessed.smi:1538-1

> <Gold.Version>
5.8.1

> <Gold.Id.Protein>
6NUR|6NUR_protein|mol2

> <Gold.PLP.Fitness>
52.0249

> <Gold.PLP.PLP>
-42.2325

> <Gold.PLP.part.hbond>
-4.0000

> <Gold.PLP.part.metal>
0.0000

> <Gold.PLP.part.buried>
-2.9799

> <Gold.PLP.part.nonpolar>
-38.0724

> <Gold.PLP.part.repulsive>
0.6898

> <Gold.PLP.ligand.clash>
0.0000

> <Gold.PLP.ligand.torsion>
0.7642

> <Gold.PLP.Chemscore.Hbond>
3.0000

> <Gold.PLP.Chemscore.CHOScore>
0.7500

> <Gold.PLP.Chemscore.Metal>
0.0000

> <Gold.Chemscore.Hbonds>
donor molecule, donor type, donor heavy atom, donor atom, acceptor molecule, acceptor atom, score
      L1  H     8    27       P1  8028  1.00
      L1  H    14    37       P1  7948  2.00
      L1  C    12    32       P1 10175  0.92

> <Gold.PLP.Chemscore.Internal.Correction>
0.0708

> <Gold.Rescore>
     Score         DG    S(hbond)    S(metal)    S(lipo)     H(rot)  DE(clash)    DE(int)     intcor
     15.12     -17.11       2.07        0.00      85.12       2.05       0.21       1.78       ----

> <Gold.Chemscore.Fitness>
15.1167

> <Gold.Chemscore.DG>
-17.1141

> <Gold.Chemscore.ZeroCoef>
-5.4800

> <Gold.Chemscore.Hbond>
2.0712

> <Gold.Chemscore.Metal>
0.0000

> <Gold.Chemscore.Lipo>
85.1180

> <Gold.Chemscore.Internal_Hbond>
0.0000

> <Gold.Chemscore.DEClash>
0.2146

> <Gold.Chemscore.DEInternal>
1.7829

> <Gold.Chemscore.Rot>
2.0478

> <Gold.Chemscore.Internal.Correction>
   9.000000E+99

> <Gold.Chemscore.Hbonds>
donor molecule, donor type, donor heavy atom, donor atom, acceptor molecule, acceptor atom, score
      L1  H     8    27       P1  8028  0.95
      L1  H    14    37       P1  7948  0.99
      P1  H  6933  6944       L1    18  0.01

> <Gold.Chemscore.Hbond.Weighted>
-6.9177

> <Gold.Chemscore.Metal.Weighted>
-0.0000

> <Gold.Chemscore.Lipo.Weighted>
-9.9588

> <Gold.Chemscore.Internal_Hbond.Weighted>
0.0000

> <Gold.Chemscore.DEClash.Weighted>
0.2146

> <Gold.Chemscore.DEInternal.Weighted>
1.7829

> <Gold.Chemscore.Rot.Weighted>
5.2423

> <Gold.Chemscore.Internal.Correction.Weighted>
   9.000000E+99

> <Gold.Protein.RotatedTorsions>
[ 6907 6896 6895 6894 ] final  -33.63 input  -60.11 | X-H torsion
[ 7974 7965 7964 7962 ] final   17.19 input  175.53 | X-H torsion
[ 8008 7997 7996 7995 ] final  -58.81 input   59.86 | X-H torsion
[ 10167 10162 10161 10158 ] final   63.94 input  -65.29 | X-H torsion
[ 10718 10713 10712 10709 ] final -113.00 input   66.30 | X-H torsion
[ 10763 10752 10751 10750 ] final  170.18 input  -60.55 | X-H torsion
[ 11005 11000 10999 10996 ] final  116.54 input  -57.11 | X-H torsion

> <Gold.Protein.ActiveResidues>
 VAL166  LYS551  ARG553  GLY616  TRP617  ASP618  TYR619  PRO620  LYS621  CYS622 
 ASP623  PHE694  ASN695  SER759  ASP760  ASP761  ALA762  ILE779  LEU786  VAL792 
 PHE793  MET794  SER795  GLU796  ALA797  LYS798  CYS799  TRP800  GLU811  SER814 

> <Gold.Protein.RotatedAtoms>
  151.0631  134.9750  159.8270 H   0  0  0  0  0  0  0  0  0  0  0  0  # atno 6907 bound_to 6896
  152.5398  134.2392  159.8865 H   0  0  0  0  0  0  0  0  0  0  0  0  # atno 6908 bound_to 6896
  151.2413  133.4355  159.2641 H   0  0  0  0  0  0  0  0  0  0  0  0  # atno 6909 bound_to 6896
  146.2226  139.8638  142.8600 H   0  0  0  0  0  0  0  0  0  0  0  0  # atno 7974 bound_to 7965
  154.4325  140.1076  156.6016 H   0  0  0  0  0  0  0  0  0  0  0  0  # atno 8008 bound_to 7997
  155.5905  140.3492  155.4546 H   0  0  0  0  0  0  0  0  0  0  0  0  # atno 8009 bound_to 7997
  156.0250  140.1248  157.0307 H   0  0  0  0  0  0  0  0  0  0  0  0  # atno 8010 bound_to 7997
  140.1276  144.4673  150.6883 H   0  0  0  0  0  0  0  0  0  0  0  0  # atno 10167 bound_to 10162
  156.0740  130.5950  150.8584 H   0  0  0  0  0  0  0  0  0  0  0  0  # atno 10718 bound_to 10713
  154.3939  135.2754  155.2138 H   0  0  0  0  0  0  0  0  0  0  0  0  # atno 10763 bound_to 10752
  154.4193  135.6004  153.6003 H   0  0  0  0  0  0  0  0  0  0  0  0  # atno 10764 bound_to 10752
  152.9831  135.5968  154.4197 H   0  0  0  0  0  0  0  0  0  0  0  0  # atno 10765 bound_to 10752
  139.9044  134.9599  156.7213 H   0  0  0  0  0  0  0  0  0  0  0  0  # atno 11005 bound_to 11000
  145.2677  141.0098  143.3790 LP  0  0  0  0  0  0  0  0  0  0  0  0  # atno 17320 bound_to 7965
  144.9248  139.4368  143.6523 LP  0  0  0  0  0  0  0  0  0  0  0  0  # atno 17321 bound_to 7965
  140.6836  143.2338  151.5320 LP  0  0  0  0  0  0  0  0  0  0  0  0  # atno 17342 bound_to 10162
  139.5536  144.2332  152.1574 LP  0  0  0  0  0  0  0  0  0  0  0  0  # atno 17343 bound_to 10162
  157.5825  131.0946  150.9248 LP  0  0  0  0  0  0  0  0  0  0  0  0  # atno 17370 bound_to 10713
  156.9440  130.5395  149.5281 LP  0  0  0  0  0  0  0  0  0  0  0  0  # atno 17371 bound_to 10713
  140.6998  133.9316  155.8017 LP  0  0  0  0  0  0  0  0  0  0  0  0  # atno 17394 bound_to 11000
  141.0380  134.0662  157.3936 LP  0  0  0  0  0  0  0  0  0  0  0  0  # atno 17395 bound_to 11000

$$$$
