AV-unprocessed.smi:2781|AV-procd|sdf|10718|dock2
  -GOLD-   2272015153D 1   1.00000     0.00000
 Structure written by MMmdl.
 35 38  0  0  0  0  0  0  0  0  1 V2000
  150.3362  140.6724  156.3203 O   0  0  0  0  0  0  0  0  0  0  0  0
  149.5835  141.6454  156.2615 C   0  0  0  0  0  0  0  0  0  0  0  0
  148.5509  141.7783  155.4102 N   0  0  0  0  0  0  0  0  0  0  0  0
  148.1038  140.8627  154.4205 C   0  0  0  0  0  0  0  0  0  0  0  0
  147.4956  141.4542  153.2897 C   0  0  0  0  0  0  0  0  0  0  0  0
  147.0182  140.6326  152.2498 C   0  0  0  0  0  0  0  0  0  0  0  0
  147.1615  139.2390  152.3701 C   0  0  0  0  0  0  0  0  0  0  0  0
  146.7174  138.4090  151.3967 F   0  0  0  0  0  0  0  0  0  0  0  0
  147.7777  138.7298  153.5280 C   0  0  0  0  0  0  0  0  0  0  0  0
  148.2363  139.5164  154.5248 N   0  0  0  0  0  0  0  0  0  0  0  0
  149.6975  142.7207  157.0535 N   0  0  0  0  0  0  0  0  0  0  0  0
  150.6870  142.9053  158.0654 C   0  0  2  0  0  0  0  0  0  0  0  0
  150.4631  144.0361  159.0483 C   0  0  1  0  0  0  0  0  0  0  0  0
  151.2350  144.2990  160.3392 C   0  0  1  0  0  0  0  0  0  0  0  0
  152.1786  143.1261  160.6771 C   0  0  0  0  0  0  0  0  0  0  0  0
  153.2673  143.2503  159.5880 C   0  0  0  0  0  0  0  0  0  0  0  0
  152.7925  144.4762  158.7808 C   0  0  2  0  0  0  0  0  0  0  0  0
  152.2405  145.3575  159.8970 C   0  0  0  0  0  0  0  0  0  0  0  0
  151.5337  144.1584  157.9771 C   0  0  1  0  0  0  0  0  0  0  0  0
  148.0226  142.6354  155.4778 H   0  0  0  0  0  0  0  0  0  0  0  0
  147.3941  142.5272  153.2149 H   0  0  0  0  0  0  0  0  0  0  0  0
  146.5507  141.0646  151.3773 H   0  0  0  0  0  0  0  0  0  0  0  0
  147.9064  137.6656  153.6586 H   0  0  0  0  0  0  0  0  0  0  0  0
  149.0329  143.4708  156.9316 H   0  0  0  0  0  0  0  0  0  0  0  0
  151.1632  142.0017  158.4380 H   0  0  0  0  0  0  0  0  0  0  0  0
  149.5829  144.6616  158.9085 H   0  0  0  0  0  0  0  0  0  0  0  0
  150.5808  144.5985  161.1584 H   0  0  0  0  0  0  0  0  0  0  0  0
  152.6159  143.2561  161.6679 H   0  0  0  0  0  0  0  0  0  0  0  0
  151.6700  142.1618  160.6675 H   0  0  0  0  0  0  0  0  0  0  0  0
  154.2398  143.4421  160.0431 H   0  0  0  0  0  0  0  0  0  0  0  0
  153.3640  142.3548  158.9734 H   0  0  0  0  0  0  0  0  0  0  0  0
  153.5680  144.9380  158.1693 H   0  0  0  0  0  0  0  0  0  0  0  0
  151.7710  146.2726  159.5315 H   0  0  0  0  0  0  0  0  0  0  0  0
  152.9771  145.6123  160.6615 H   0  0  0  0  0  0  0  0  0  0  0  0
  151.3167  144.8609  157.1741 H   0  0  0  0  0  0  0  0  0  0  0  0
  1  2  2  0  0  0  0
  2  3  1  0  0  0  0
  2 11  1  0  0  0  0
  3  4  1  0  0  0  0
  3 20  1  0  0  0  0
  4 10  1  0  0  0  0
  4  5  2  0  0  0  0
  5  6  1  0  0  0  0
  5 21  1  0  0  0  0
  6  7  2  0  0  0  0
  6 22  1  0  0  0  0
  7  8  1  0  0  0  0
  7  9  1  0  0  0  0
  9 10  2  0  0  0  0
  9 23  1  0  0  0  0
 11 12  1  0  0  0  0
 11 24  1  0  0  0  0
 12 19  1  0  0  0  0
 12 13  1  0  0  0  0
 12 25  1  0  0  0  0
 13 19  1  0  0  0  0
 13 14  1  0  0  0  0
 13 26  1  0  0  0  0
 14 18  1  0  0  0  0
 14 15  1  0  0  0  0
 14 27  1  0  0  0  0
 15 16  1  0  0  0  0
 15 28  1  0  0  0  0
 15 29  1  0  0  0  0
 16 17  1  0  0  0  0
 16 30  1  0  0  0  0
 16 31  1  0  0  0  0
 17 18  1  0  0  0  0
 17 19  1  0  0  0  0
 17 32  1  0  0  0  0
 18 33  1  0  0  0  0
 18 34  1  0  0  0  0
 19 35  1  0  0  0  0
M  END
> <s_m_source_file>
AV-unprocessed.smi

> <i_m_source_file_index>
2781

> <i_lp_mmshare_version>
43012

> <i_f3d_flags>
0

> <s_epik_input>
bjFbY0hdYyhGKVtjSF1bY0hdYzFbTkhdQyg9TylbTkhdW0NASF0yW0NAQEhdM1tDQEhdKFtDSDJdNClbQ0gyXVtDSDJdW0NASF00W0NASF0yMw==

> <s_epik_cmdline>
J2VwaWtfcHl0aG9uJywgJy1waCcsICc3LjAnLCAnLXRuJywgJzgnLCAnLW1hJywgJzIwMCcsICctbWV0YWxfYmluZGluZycsICctaW1hZScsICc8aW5maWxlLm1hZT4nLCAnLW9tYWUnLCAnPG91dGZpbGUubWFlPic=

> <r_lp_tautomer_probability>
1

> <r_epik_Ionization_Penalty>
4.05776e-05

> <r_epik_Ionization_Penalty_Charging>
0

> <r_epik_Ionization_Penalty_Neutral>
4.05776e-05

> <r_epik_State_Penalty>
-0

> <r_epik_Charging_Adjusted_Penalty>
0

> <i_epik_Tot_Q>
0

> <i_epik_Tot_abs_Q>
0

> <r_epik_Metal_State_Penalty>
-0

> <b_epik_Metal_Only>
0

> <s_lp_Force_Field>
OPLS_2005

> <r_lp_Energy>
79.6255

> <b_lp_Chiralities_Consistent>
1

> <s_lp_Variant>
AV-unprocessed.smi:2781-2

> <Gold.Version>
5.8.1

> <Gold.Id.Protein>
6NUR|6NUR_protein|mol2

> <Gold.PLP.Fitness>
44.8967

> <Gold.PLP.PLP>
-41.1206

> <Gold.PLP.part.hbond>
-2.0000

> <Gold.PLP.part.metal>
0.0000

> <Gold.PLP.part.buried>
-0.4739

> <Gold.PLP.part.nonpolar>
-38.6963

> <Gold.PLP.part.repulsive>
0.2356

> <Gold.PLP.ligand.clash>
0.0000

> <Gold.PLP.ligand.torsion>
0.2748

> <Gold.PLP.Chemscore.Hbond>
0.5130

> <Gold.PLP.Chemscore.CHOScore>
0.9168

> <Gold.PLP.Chemscore.Metal>
0.0000

> <Gold.Chemscore.Hbonds>
donor molecule, donor type, donor heavy atom, donor atom, acceptor molecule, acceptor atom, score
      L1  H     3    20       P1  8028  0.26
      L1  H    11    24       P1  8028  0.64
      L1  C     9    23       P1  7948  0.82

> <Gold.PLP.Chemscore.Internal.Correction>
0.0365

> <Gold.Rescore>
     Score         DG    S(hbond)    S(metal)    S(lipo)     H(rot)  DE(clash)    DE(int)     intcor
     17.01     -19.13       0.56        0.00     122.43       1.00       0.86       1.25       ----

> <Gold.Chemscore.Fitness>
17.0142

> <Gold.Chemscore.DG>
-19.1264

> <Gold.Chemscore.ZeroCoef>
-5.4800

> <Gold.Chemscore.Hbond>
0.5634

> <Gold.Chemscore.Metal>
0.0000

> <Gold.Chemscore.Lipo>
122.4330

> <Gold.Chemscore.Internal_Hbond>
0.0000

> <Gold.Chemscore.DEClash>
0.8577

> <Gold.Chemscore.DEInternal>
1.2545

> <Gold.Chemscore.Rot>
1.0000

> <Gold.Chemscore.Internal.Correction>
   9.000000E+99

> <Gold.Chemscore.Hbonds>
donor molecule, donor type, donor heavy atom, donor atom, acceptor molecule, acceptor atom, score
      L1  H     3    20       P1  8028  0.24
      L1  H    11    24       P1  8028  0.48

> <Gold.Chemscore.Hbond.Weighted>
-1.8818

> <Gold.Chemscore.Metal.Weighted>
-0.0000

> <Gold.Chemscore.Lipo.Weighted>
-14.3247

> <Gold.Chemscore.Internal_Hbond.Weighted>
0.0000

> <Gold.Chemscore.DEClash.Weighted>
0.8577

> <Gold.Chemscore.DEInternal.Weighted>
1.2545

> <Gold.Chemscore.Rot.Weighted>
2.5600

> <Gold.Chemscore.Internal.Correction.Weighted>
   9.000000E+99

> <Gold.Protein.RotatedTorsions>
[ 6907 6896 6895 6894 ] final  -79.37 input  -60.11 | X-H torsion
[ 7974 7965 7964 7962 ] final  172.65 input  175.53 | X-H torsion
[ 8008 7997 7996 7995 ] final  -92.34 input   59.86 | X-H torsion
[ 10167 10162 10161 10158 ] final  124.13 input  -65.29 | X-H torsion
[ 10718 10713 10712 10709 ] final   98.81 input   66.30 | X-H torsion
[ 10763 10752 10751 10750 ] final  -61.10 input  -60.55 | X-H torsion
[ 11005 11000 10999 10996 ] final  -87.84 input  -57.11 | X-H torsion

> <Gold.Protein.ActiveResidues>
 VAL166  LYS551  ARG553  GLY616  TRP617  ASP618  TYR619  PRO620  LYS621  CYS622 
 ASP623  PHE694  ASN695  SER759  ASP760  ASP761  ALA762  ILE779  LEU786  VAL792 
 PHE793  MET794  SER795  GLU796  ALA797  LYS798  CYS799  TRP800  GLU811  SER814 

> <Gold.Protein.RotatedAtoms>
  150.6951  134.4132  159.5170 H   0  0  0  0  0  0  0  0  0  0  0  0  # atno 6907 bound_to 6896
  152.1887  134.8688  160.0529 H   0  0  0  0  0  0  0  0  0  0  0  0  # atno 6908 bound_to 6896
  151.9652  133.3673  159.4087 H   0  0  0  0  0  0  0  0  0  0  0  0  # atno 6909 bound_to 6896
  144.7263  139.9530  143.6432 H   0  0  0  0  0  0  0  0  0  0  0  0  # atno 7974 bound_to 7965
  154.7219  140.0510  157.0647 H   0  0  0  0  0  0  0  0  0  0  0  0  # atno 8008 bound_to 7997
  155.0416  140.3169  155.4703 H   0  0  0  0  0  0  0  0  0  0  0  0  # atno 8009 bound_to 7997
  156.2818  140.2132  156.5540 H   0  0  0  0  0  0  0  0  0  0  0  0  # atno 8010 bound_to 7997
  139.5759  144.6963  151.3655 H   0  0  0  0  0  0  0  0  0  0  0  0  # atno 10167 bound_to 10162
  157.6888  131.0651  150.4854 H   0  0  0  0  0  0  0  0  0  0  0  0  # atno 10718 bound_to 10713
  154.2794  135.6275  153.5341 H   0  0  0  0  0  0  0  0  0  0  0  0  # atno 10763 bound_to 10752
  152.9868  135.5629  154.5512 H   0  0  0  0  0  0  0  0  0  0  0  0  # atno 10764 bound_to 10752
  154.5100  135.2876  155.1326 H   0  0  0  0  0  0  0  0  0  0  0  0  # atno 10765 bound_to 10752
  141.1611  133.7535  156.9365 H   0  0  0  0  0  0  0  0  0  0  0  0  # atno 11005 bound_to 11000
  146.0697  139.3686  143.0530 LP  0  0  0  0  0  0  0  0  0  0  0  0  # atno 17320 bound_to 7965
  145.7984  140.9782  143.1012 LP  0  0  0  0  0  0  0  0  0  0  0  0  # atno 17321 bound_to 7965
  140.7041  143.7557  150.7453 LP  0  0  0  0  0  0  0  0  0  0  0  0  # atno 17342 bound_to 10162
  140.1076  143.4729  152.2389 LP  0  0  0  0  0  0  0  0  0  0  0  0  # atno 17343 bound_to 10162
  156.5183  130.4156  149.6264 LP  0  0  0  0  0  0  0  0  0  0  0  0  # atno 17370 bound_to 10713
  156.3177  130.7264  151.2169 LP  0  0  0  0  0  0  0  0  0  0  0  0  # atno 17371 bound_to 10713
  140.1350  134.9331  157.2390 LP  0  0  0  0  0  0  0  0  0  0  0  0  # atno 17394 bound_to 11000
  140.2906  134.3245  155.7316 LP  0  0  0  0  0  0  0  0  0  0  0  0  # atno 17395 bound_to 11000

$$$$
