AV-unprocessed.smi:1632|AV-procd|sdf|6531|dock2
  -GOLD-   22720 7213D 1   1.00000     0.00000
 Structure written by MMmdl.
 43 45  0  0  0  0  0  0  0  0  2 V2000
  151.1094  135.4405  157.3374 O   0  0  0  0  0  0  0  0  0  0  0  0
  150.7881  136.0309  156.0969 C   0  0  0  0  0  0  0  0  0  0  0  0
  151.7016  137.2370  155.8461 C   0  0  0  0  0  0  0  0  0  0  0  0
  151.5467  137.8042  154.4267 C   0  0  0  0  0  0  0  0  0  0  0  0
  150.4157  138.7809  154.3297 C   0  0  0  0  0  0  0  0  0  0  0  0
  149.2849  138.6175  153.5848 N   0  3  0  0  0  0  0  0  0  0  0  0
  148.4488  139.7230  153.7401 C   0  0  0  0  0  0  0  0  0  0  0  0
  147.2082  140.0139  153.1805 C   0  0  0  0  0  0  0  0  0  0  0  0
  146.6185  141.2399  153.5527 C   0  0  0  0  0  0  0  0  0  0  0  0
  147.2591  142.1211  154.4479 C   0  0  0  0  0  0  0  0  0  0  0  0
  148.5166  141.8145  155.0085 C   0  0  0  0  0  0  0  0  0  0  0  0
  149.0928  140.6007  154.6347 C   0  0  0  0  0  0  0  0  0  0  0  0
  150.2987  139.9783  154.9772 N   0  0  0  0  0  0  0  0  0  0  0  0
  151.2082  140.6612  155.9118 C   0  0  0  0  0  0  0  0  0  0  0  0
  150.5337  141.0025  157.2560 C   0  0  1  0  0  0  0  0  0  0  0  0
  149.7845  139.8772  157.6658 O   0  0  0  0  0  0  0  0  0  0  0  0
  151.5378  141.4471  158.3138 C   0  0  0  0  0  0  0  0  0  0  0  0
  152.5102  140.5433  158.7980 C   0  0  0  0  0  0  0  0  0  0  0  0
  153.4510  140.9568  159.7604 C   0  0  0  0  0  0  0  0  0  0  0  0
  153.4255  142.2767  160.2482 C   0  0  0  0  0  0  0  0  0  0  0  0
  152.4599  143.1830  159.7708 C   0  0  0  0  0  0  0  0  0  0  0  0
  151.5210  142.7731  158.8040 C   0  0  0  0  0  0  0  0  0  0  0  0
  150.6117  143.6652  158.3420 F   0  0  0  0  0  0  0  0  0  0  0  0
  152.0412  135.5187  157.4765 H   0  0  0  0  0  0  0  0  0  0  0  0
  150.9034  135.2881  155.3073 H   0  0  0  0  0  0  0  0  0  0  0  0
  149.7414  136.3364  156.1109 H   0  0  0  0  0  0  0  0  0  0  0  0
  151.4695  138.0151  156.5738 H   0  0  0  0  0  0  0  0  0  0  0  0
  152.7403  136.9516  156.0189 H   0  0  0  0  0  0  0  0  0  0  0  0
  152.4666  138.3004  154.1163 H   0  0  0  0  0  0  0  0  0  0  0  0
  151.3830  136.9858  153.7272 H   0  0  0  0  0  0  0  0  0  0  0  0
  146.7157  139.3405  152.4945 H   0  0  0  0  0  0  0  0  0  0  0  0
  145.6555  141.5097  153.1436 H   0  0  0  0  0  0  0  0  0  0  0  0
  146.7770  143.0517  154.7102 H   0  0  0  0  0  0  0  0  0  0  0  0
  149.0002  142.4969  155.6917 H   0  0  0  0  0  0  0  0  0  0  0  0
  152.0753  140.0179  156.0671 H   0  0  0  0  0  0  0  0  0  0  0  0
  151.5883  141.5608  155.4280 H   0  0  0  0  0  0  0  0  0  0  0  0
  149.8079  141.8007  157.0995 H   0  0  0  0  0  0  0  0  0  0  0  0
  150.2688  139.0967  157.4423 H   0  0  0  0  0  0  0  0  0  0  0  0
  152.5436  139.5297  158.4261 H   0  0  0  0  0  0  0  0  0  0  0  0
  154.1938  140.2614  160.1228 H   0  0  0  0  0  0  0  0  0  0  0  0
  154.1480  142.5951  160.9852 H   0  0  0  0  0  0  0  0  0  0  0  0
  152.4443  144.1974  160.1414 H   0  0  0  0  0  0  0  0  0  0  0  0
  149.1049  137.8076  153.0053 H   0  0  0  0  0  0  0  0  0  0  0  0
  1  2  1  0  0  0  0
  1 24  1  0  0  0  0
  2  3  1  0  0  0  0
  2 25  1  0  0  0  0
  2 26  1  0  0  0  0
  3  4  1  0  0  0  0
  3 27  1  0  0  0  0
  3 28  1  0  0  0  0
  4  5  1  0  0  0  0
  4 29  1  0  0  0  0
  4 30  1  0  0  0  0
  5 13  1  0  0  0  0
  5  6  2  0  0  0  0
  6  7  1  0  0  0  0
  6 43  1  0  0  0  0
  7 12  2  0  0  0  0
  7  8  1  0  0  0  0
  8  9  2  0  0  0  0
  8 31  1  0  0  0  0
  9 10  1  0  0  0  0
  9 32  1  0  0  0  0
 10 11  2  0  0  0  0
 10 33  1  0  0  0  0
 11 12  1  0  0  0  0
 11 34  1  0  0  0  0
 12 13  1  0  0  0  0
 13 14  1  0  0  0  0
 14 15  1  0  0  0  0
 14 35  1  0  0  0  0
 14 36  1  0  0  0  0
 15 16  1  0  0  0  0
 15 17  1  0  0  0  0
 15 37  1  0  0  0  0
 16 38  1  0  0  0  0
 17 22  1  0  0  0  0
 17 18  2  0  0  0  0
 18 19  1  0  0  0  0
 18 39  1  0  0  0  0
 19 20  2  0  0  0  0
 19 40  1  0  0  0  0
 20 21  1  0  0  0  0
 20 41  1  0  0  0  0
 21 22  2  0  0  0  0
 21 42  1  0  0  0  0
 22 23  1  0  0  0  0
M  CHG  1   6   1
M  END
> <s_m_source_file>
AV-unprocessed.smi

> <i_m_source_file_index>
1632

> <i_lp_mmshare_version>
43012

> <i_f3d_flags>
0

> <s_epik_input>
W09IXVtDSDJdW0NIMl1bQ0gyXWMobjEpbihjKGMxMilbY0hdW2NIXVtjSF1bY0hdMilbQ0gyXVtDQEhdKFtPSF0pYzNbY0hdW2NIXVtjSF1bY0hdYzNG

> <s_epik_cmdline>
J2VwaWtfcHl0aG9uJywgJy1waCcsICc3LjAnLCAnLXRuJywgJzgnLCAnLW1hJywgJzIwMCcsICctbWV0YWxfYmluZGluZycsICctaW1hZScsICc8aW5maWxlLm1hZT4nLCAnLW9tYWUnLCAnPG91dGZpbGUubWFlPic=

> <r_epik_Ionization_Penalty>
0.786441

> <r_epik_Ionization_Penalty_Charging>
0.786439

> <r_epik_Ionization_Penalty_Neutral>
1.50852e-06

> <r_epik_State_Penalty>
0.816472

> <r_epik_Charging_Adjusted_Penalty>
1.60291

> <i_epik_Tot_Q>
1

> <i_epik_Tot_abs_Q>
1

> <r_epik_Metal_State_Penalty>
4.73733

> <b_epik_Metal_Only>
0

> <s_lp_Force_Field>
OPLS_2005

> <r_lp_Energy>
15.9798

> <b_lp_Chiralities_Consistent>
1

> <s_lp_Variant>
AV-unprocessed.smi:1632-4

> <Gold.Version>
5.8.1

> <Gold.Id.Protein>
6NUR|6NUR_protein|mol2

> <Gold.PLP.Fitness>
55.0483

> <Gold.PLP.PLP>
-49.4946

> <Gold.PLP.part.hbond>
-3.0000

> <Gold.PLP.part.metal>
0.0000

> <Gold.PLP.part.buried>
0.4816

> <Gold.PLP.part.nonpolar>
-47.6610

> <Gold.PLP.part.repulsive>
0.0678

> <Gold.PLP.ligand.clash>
0.0000

> <Gold.PLP.ligand.torsion>
0.3341

> <Gold.PLP.Chemscore.Hbond>
2.0568

> <Gold.PLP.Chemscore.CHOScore>
0.0000

> <Gold.PLP.Chemscore.Metal>
0.0000

> <Gold.Chemscore.Hbonds>
donor molecule, donor type, donor heavy atom, donor atom, acceptor molecule, acceptor atom, score
      L1  H     6    43       P1  7948  2.00
      P1  H  6896  6907       L1     1  0.02

> <Gold.PLP.Chemscore.Internal.Correction>
0.0515

> <Gold.Rescore>
     Score         DG    S(hbond)    S(metal)    S(lipo)     H(rot)  DE(clash)    DE(int)     intcor
     15.26     -15.71       1.00        0.00     128.03       3.16       0.27       0.17       ----

> <Gold.Chemscore.Fitness>
15.2630

> <Gold.Chemscore.DG>
-15.7056

> <Gold.Chemscore.ZeroCoef>
-5.4800

> <Gold.Chemscore.Hbond>
0.9990

> <Gold.Chemscore.Metal>
0.0000

> <Gold.Chemscore.Lipo>
128.0316

> <Gold.Chemscore.Internal_Hbond>
0.0000

> <Gold.Chemscore.DEClash>
0.2734

> <Gold.Chemscore.DEInternal>
0.1691

> <Gold.Chemscore.Rot>
3.1604

> <Gold.Chemscore.Internal.Correction>
   9.000000E+99

> <Gold.Chemscore.Hbonds>
donor molecule, donor type, donor heavy atom, donor atom, acceptor molecule, acceptor atom, score
      L1  H     6    43       P1  7948  0.99

> <Gold.Chemscore.Hbond.Weighted>
-3.3366

> <Gold.Chemscore.Metal.Weighted>
-0.0000

> <Gold.Chemscore.Lipo.Weighted>
-14.9797

> <Gold.Chemscore.Internal_Hbond.Weighted>
0.0000

> <Gold.Chemscore.DEClash.Weighted>
0.2734

> <Gold.Chemscore.DEInternal.Weighted>
0.1691

> <Gold.Chemscore.Rot.Weighted>
8.0907

> <Gold.Chemscore.Internal.Correction.Weighted>
   9.000000E+99

> <Gold.Protein.RotatedTorsions>
[ 6907 6896 6895 6894 ] final  -80.94 input  -60.11 | X-H torsion
[ 7974 7965 7964 7962 ] final  151.37 input  175.53 | X-H torsion
[ 8008 7997 7996 7995 ] final   93.45 input   59.86 | X-H torsion
[ 10167 10162 10161 10158 ] final -109.39 input  -65.29 | X-H torsion
[ 10718 10713 10712 10709 ] final -117.66 input   66.30 | X-H torsion
[ 10763 10752 10751 10750 ] final  -86.08 input  -60.55 | X-H torsion
[ 11005 11000 10999 10996 ] final  132.59 input  -57.11 | X-H torsion

> <Gold.Protein.ActiveResidues>
 VAL166  LYS551  ARG553  GLY616  TRP617  ASP618  TYR619  PRO620  LYS621  CYS622 
 ASP623  PHE694  ASN695  SER759  ASP760  ASP761  ALA762  ILE779  LEU786  VAL792 
 PHE793  MET794  SER795  GLU796  ALA797  LYS798  CYS799  TRP800  GLU811  SER814 

> <Gold.Protein.RotatedAtoms>
  150.6920  134.3893  159.5068 H   0  0  0  0  0  0  0  0  0  0  0  0  # atno 6907 bound_to 6896
  152.1684  134.8852  160.0545 H   0  0  0  0  0  0  0  0  0  0  0  0  # atno 6908 bound_to 6896
  151.9887  133.3748  159.4173 H   0  0  0  0  0  0  0  0  0  0  0  0  # atno 6909 bound_to 6896
  144.8297  139.6529  143.6064 H   0  0  0  0  0  0  0  0  0  0  0  0  # atno 7974 bound_to 7965
  156.0469  140.3312  155.7307 H   0  0  0  0  0  0  0  0  0  0  0  0  # atno 8008 bound_to 7997
  155.5660  140.0623  157.2835 H   0  0  0  0  0  0  0  0  0  0  0  0  # atno 8009 bound_to 7997
  154.4418  140.1869  156.0819 H   0  0  0  0  0  0  0  0  0  0  0  0  # atno 8010 bound_to 7997
  140.1558  143.4161  152.1462 H   0  0  0  0  0  0  0  0  0  0  0  0  # atno 10167 bound_to 10162
  156.1050  130.6203  150.9193 H   0  0  0  0  0  0  0  0  0  0  0  0  # atno 10718 bound_to 10713
  154.6184  135.5462  153.7548 H   0  0  0  0  0  0  0  0  0  0  0  0  # atno 10763 bound_to 10752
  153.0227  135.6406  154.1477 H   0  0  0  0  0  0  0  0  0  0  0  0  # atno 10764 bound_to 10752
  154.1412  135.2908  155.3140 H   0  0  0  0  0  0  0  0  0  0  0  0  # atno 10765 bound_to 10752
  139.9799  134.9551  156.9604 H   0  0  0  0  0  0  0  0  0  0  0  0  # atno 11005 bound_to 11000
  146.2601  139.6390  142.9368 LP  0  0  0  0  0  0  0  0  0  0  0  0  # atno 17320 bound_to 7965
  145.4922  141.0438  143.2587 LP  0  0  0  0  0  0  0  0  0  0  0  0  # atno 17321 bound_to 7965
  139.5404  144.7251  151.4752 LP  0  0  0  0  0  0  0  0  0  0  0  0  # atno 17342 bound_to 10162
  140.6674  143.8368  150.6958 LP  0  0  0  0  0  0  0  0  0  0  0  0  # atno 17343 bound_to 10162
  157.6226  131.0928  150.8594 LP  0  0  0  0  0  0  0  0  0  0  0  0  # atno 17370 bound_to 10713
  156.8715  130.5148  149.5296 LP  0  0  0  0  0  0  0  0  0  0  0  0  # atno 17371 bound_to 10713
  140.5117  134.0995  155.7272 LP  0  0  0  0  0  0  0  0  0  0  0  0  # atno 17394 bound_to 11000
  141.1473  133.9033  157.2185 LP  0  0  0  0  0  0  0  0  0  0  0  0  # atno 17395 bound_to 11000

$$$$
