AV-unprocessed.smi:1731|AV-procd|sdf|6974|dock9
  -GOLD-   22720 8183D 1   1.00000     0.00000
 Structure written by MMmdl.
 41 42  0  0  0  0  0  0  0  0  1 V2000
  153.0551  143.1463  163.0166 C   0  0  0  0  0  0  0  0  0  0  0  0
  152.4561  142.8928  161.6261 C   0  0  2  0  0  0  0  0  0  0  0  0
  153.4218  142.0897  160.7342 C   0  0  0  0  0  0  0  0  0  0  0  0
  152.8262  141.8336  159.3408 C   0  0  0  0  0  0  0  0  0  0  0  0
  152.4180  143.1498  158.6489 C   0  0  1  0  0  0  0  0  0  0  0  0
  151.7806  142.8759  157.3643 N   0  0  0  0  0  0  0  0  0  0  0  0
  150.6156  142.2331  157.1989 C   0  0  0  0  0  0  0  0  0  0  0  0
  149.9492  141.7789  158.1294 O   0  0  0  0  0  0  0  0  0  0  0  0
  150.2783  142.1609  155.9008 N   0  0  0  0  0  0  0  0  0  0  0  0
  149.1138  141.5724  155.3463 C   0  0  0  0  0  0  0  0  0  0  0  0
  148.9236  141.2953  153.9677 C   0  0  0  0  0  0  0  0  0  0  0  0
  147.7392  140.7449  153.7487 N   0  0  0  0  0  0  0  0  0  0  0  0
  147.1569  140.6615  154.9712 N   0  0  0  0  0  0  0  0  0  0  0  0
  145.8262  140.0935  155.0978 C   0  0  0  0  0  0  0  0  0  0  0  0
  145.7965  138.6433  154.6113 C   0  0  0  0  0  0  0  0  0  0  0  0
  145.0084  138.3648  153.5695 N   0  0  0  0  0  0  0  0  0  0  0  0
  146.4799  137.7854  155.1659 O   0  0  0  0  0  0  0  0  0  0  0  0
  147.9729  141.1549  155.9710 C   0  0  0  0  0  0  0  0  0  0  0  0
  151.4579  143.9581  159.5408 C   0  0  0  0  0  0  0  0  0  0  0  0
  152.0591  144.2100  160.9330 C   0  0  0  0  0  0  0  0  0  0  0  0
  153.9734  143.7307  162.9527 H   0  0  0  0  0  0  0  0  0  0  0  0
  153.2918  142.2077  163.5186 H   0  0  0  0  0  0  0  0  0  0  0  0
  152.3565  143.6919  163.6515 H   0  0  0  0  0  0  0  0  0  0  0  0
  151.5512  142.2985  161.7624 H   0  0  0  0  0  0  0  0  0  0  0  0
  154.3645  142.6292  160.6312 H   0  0  0  0  0  0  0  0  0  0  0  0
  153.6623  141.1371  161.2077 H   0  0  0  0  0  0  0  0  0  0  0  0
  153.5510  141.2952  158.7291 H   0  0  0  0  0  0  0  0  0  0  0  0
  151.9574  141.1803  159.4352 H   0  0  0  0  0  0  0  0  0  0  0  0
  153.3124  143.7535  158.4820 H   0  0  0  0  0  0  0  0  0  0  0  0
  152.2577  143.2127  156.5409 H   0  0  0  0  0  0  0  0  0  0  0  0
  150.9134  142.5852  155.2409 H   0  0  0  0  0  0  0  0  0  0  0  0
  149.5894  141.4723  153.1360 H   0  0  0  0  0  0  0  0  0  0  0  0
  145.5071  140.1352  156.1403 H   0  0  0  0  0  0  0  0  0  0  0  0
  145.1286  140.7064  154.5251 H   0  0  0  0  0  0  0  0  0  0  0  0
  144.9539  137.4214  153.2142 H   0  0  0  0  0  0  0  0  0  0  0  0
  144.4664  139.1016  153.1416 H   0  0  0  0  0  0  0  0  0  0  0  0
  147.6685  141.1628  157.0071 H   0  0  0  0  0  0  0  0  0  0  0  0
  151.2215  144.9115  159.0666 H   0  0  0  0  0  0  0  0  0  0  0  0
  150.5126  143.4240  159.6481 H   0  0  0  0  0  0  0  0  0  0  0  0
  151.3402  144.7529  161.5475 H   0  0  0  0  0  0  0  0  0  0  0  0
  152.9336  144.8558  160.8390 H   0  0  0  0  0  0  0  0  0  0  0  0
  1  2  1  0  0  0  0
  1 21  1  0  0  0  0
  1 22  1  0  0  0  0
  1 23  1  0  0  0  0
  2 20  1  0  0  0  0
  2  3  1  0  0  0  0
  2 24  1  0  0  0  0
  3  4  1  0  0  0  0
  3 25  1  0  0  0  0
  3 26  1  0  0  0  0
  4  5  1  0  0  0  0
  4 27  1  0  0  0  0
  4 28  1  0  0  0  0
  5  6  1  0  0  0  0
  5 19  1  0  0  0  0
  5 29  1  0  0  0  0
  6  7  1  0  0  0  0
  6 30  1  0  0  0  0
  7  8  2  0  0  0  0
  7  9  1  0  0  0  0
  9 10  1  0  0  0  0
  9 31  1  0  0  0  0
 10 18  2  0  0  0  0
 10 11  1  0  0  0  0
 11 12  2  0  0  0  0
 11 32  1  0  0  0  0
 12 13  1  0  0  0  0
 13 14  1  0  0  0  0
 13 18  1  0  0  0  0
 14 15  1  0  0  0  0
 14 33  1  0  0  0  0
 14 34  1  0  0  0  0
 15 16  1  0  0  0  0
 15 17  2  0  0  0  0
 16 35  1  0  0  0  0
 16 36  1  0  0  0  0
 18 37  1  0  0  0  0
 19 20  1  0  0  0  0
 19 38  1  0  0  0  0
 19 39  1  0  0  0  0
 20 40  1  0  0  0  0
 20 41  1  0  0  0  0
M  END
> <s_m_source_file>
AV-unprocessed.smi

> <i_m_source_file_index>
1731

> <i_lp_mmshare_version>
43012

> <i_f3d_flags>
0

> <s_epik_input>
W0NIM11bQ0BASF0xW0NIMl1bQ0gyXVtDQEhdKFtDSDJdW0NIMl0xKVtOSF1DKD1PKVtOSF1jMltjSF1ubihbY0hdMilbQ0gyXUMoPU8pW05IMl0=

> <s_epik_cmdline>
J2VwaWtfcHl0aG9uJywgJy1waCcsICc3LjAnLCAnLXRuJywgJzgnLCAnLW1hJywgJzIwMCcsICctbWV0YWxfYmluZGluZycsICctaW1hZScsICc8aW5maWxlLm1hZT4nLCAnLW9tYWUnLCAnPG91dGZpbGUubWFlPic=

> <r_lp_tautomer_probability>
1

> <r_epik_Ionization_Penalty>
4.81284e-05

> <r_epik_Ionization_Penalty_Charging>
0

> <r_epik_Ionization_Penalty_Neutral>
4.81284e-05

> <r_epik_State_Penalty>
-0

> <r_epik_Charging_Adjusted_Penalty>
0

> <i_epik_Tot_Q>
0

> <i_epik_Tot_abs_Q>
0

> <r_epik_Metal_State_Penalty>
-0

> <b_epik_Metal_Only>
0

> <s_lp_Force_Field>
OPLS_2005

> <r_lp_Energy>
12.4361

> <b_lp_Chiralities_Consistent>
1

> <s_lp_Variant>
AV-unprocessed.smi:1731-1

> <Gold.Version>
5.8.1

> <Gold.Id.Protein>
6NUR|6NUR_protein|mol2

> <Gold.PLP.Fitness>
42.2996

> <Gold.PLP.PLP>
-36.4092

> <Gold.PLP.part.hbond>
-2.0000

> <Gold.PLP.part.metal>
0.0000

> <Gold.PLP.part.buried>
-2.2410

> <Gold.PLP.part.nonpolar>
-32.3862

> <Gold.PLP.part.repulsive>
0.4084

> <Gold.PLP.ligand.clash>
0.0000

> <Gold.PLP.ligand.torsion>
0.0536

> <Gold.PLP.Chemscore.Hbond>
1.0000

> <Gold.PLP.Chemscore.CHOScore>
0.9977

> <Gold.PLP.Chemscore.Metal>
0.0000

> <Gold.Chemscore.Hbonds>
donor molecule, donor type, donor heavy atom, donor atom, acceptor molecule, acceptor atom, score
      L1  H    16    36       P1 10175  1.00
      L1  C    11    32       P1  7957  0.86

> <Gold.PLP.Chemscore.Internal.Correction>
0.0045

> <Gold.Rescore>
     Score         DG    S(hbond)    S(metal)    S(lipo)     H(rot)  DE(clash)    DE(int)     intcor
     12.87     -15.34       1.00        0.00      97.38       1.90       0.32       2.15       ----

> <Gold.Chemscore.Fitness>
12.8706

> <Gold.Chemscore.DG>
-15.3392

> <Gold.Chemscore.ZeroCoef>
-5.4800

> <Gold.Chemscore.Hbond>
0.9990

> <Gold.Chemscore.Metal>
0.0000

> <Gold.Chemscore.Lipo>
97.3837

> <Gold.Chemscore.Internal_Hbond>
0.0000

> <Gold.Chemscore.DEClash>
0.3217

> <Gold.Chemscore.DEInternal>
2.1469

> <Gold.Chemscore.Rot>
1.9029

> <Gold.Chemscore.Internal.Correction>
   9.000000E+99

> <Gold.Chemscore.Hbonds>
donor molecule, donor type, donor heavy atom, donor atom, acceptor molecule, acceptor atom, score
      L1  H    16    36       P1 10175  1.00

> <Gold.Chemscore.Hbond.Weighted>
-3.3367

> <Gold.Chemscore.Metal.Weighted>
-0.0000

> <Gold.Chemscore.Lipo.Weighted>
-11.3939

> <Gold.Chemscore.Internal_Hbond.Weighted>
0.0000

> <Gold.Chemscore.DEClash.Weighted>
0.3217

> <Gold.Chemscore.DEInternal.Weighted>
2.1469

> <Gold.Chemscore.Rot.Weighted>
4.8714

> <Gold.Chemscore.Internal.Correction.Weighted>
   9.000000E+99

> <Gold.Protein.RotatedTorsions>
[ 6907 6896 6895 6894 ] final   66.18 input  -60.11 | X-H torsion
[ 7974 7965 7964 7962 ] final   -0.25 input  175.53 | X-H torsion
[ 8008 7997 7996 7995 ] final   12.90 input   59.86 | X-H torsion
[ 10167 10162 10161 10158 ] final -175.20 input  -65.29 | X-H torsion
[ 10718 10713 10712 10709 ] final    5.84 input   66.30 | X-H torsion
[ 10763 10752 10751 10750 ] final  -72.61 input  -60.55 | X-H torsion
[ 11005 11000 10999 10996 ] final  -77.98 input  -57.11 | X-H torsion

> <Gold.Protein.ActiveResidues>
 VAL166  LYS551  ARG553  GLY616  TRP617  ASP618  TYR619  PRO620  LYS621  CYS622 
 ASP623  PHE694  ASN695  SER759  ASP760  ASP761  ALA762  ILE779  LEU786  VAL792 
 PHE793  MET794  SER795  GLU796  ALA797  LYS798  CYS799  TRP800  GLU811  SER814 

> <Gold.Protein.RotatedAtoms>
  152.4462  134.5490  159.9860 H   0  0  0  0  0  0  0  0  0  0  0  0  # atno 6907 bound_to 6896
  151.5574  133.3402  159.2972 H   0  0  0  0  0  0  0  0  0  0  0  0  # atno 6908 bound_to 6896
  150.8379  134.7692  159.6971 H   0  0  0  0  0  0  0  0  0  0  0  0  # atno 6909 bound_to 6896
  146.2429  140.1241  142.8339 H   0  0  0  0  0  0  0  0  0  0  0  0  # atno 7974 bound_to 7965
  154.8270  140.2893  155.5748 H   0  0  0  0  0  0  0  0  0  0  0  0  # atno 8008 bound_to 7997
  156.3002  140.2539  156.3119 H   0  0  0  0  0  0  0  0  0  0  0  0  # atno 8009 bound_to 7997
  154.9274  140.0384  157.2019 H   0  0  0  0  0  0  0  0  0  0  0  0  # atno 8010 bound_to 7997
  139.5593  144.1909  152.1213 H   0  0  0  0  0  0  0  0  0  0  0  0  # atno 10167 bound_to 10162
  156.9133  130.5764  149.5647 H   0  0  0  0  0  0  0  0  0  0  0  0  # atno 10718 bound_to 10713
  154.4481  135.5924  153.6173 H   0  0  0  0  0  0  0  0  0  0  0  0  # atno 10763 bound_to 10752
  152.9811  135.6014  154.3639 H   0  0  0  0  0  0  0  0  0  0  0  0  # atno 10764 bound_to 10752
  154.3497  135.2841  155.2357 H   0  0  0  0  0  0  0  0  0  0  0  0  # atno 10765 bound_to 10752
  141.1663  133.7044  156.7903 H   0  0  0  0  0  0  0  0  0  0  0  0  # atno 11005 bound_to 11000
  145.0381  140.8924  143.5069 LP  0  0  0  0  0  0  0  0  0  0  0  0  # atno 17320 bound_to 7965
  145.1317  139.2628  143.5536 LP  0  0  0  0  0  0  0  0  0  0  0  0  # atno 17321 bound_to 7965
  140.1419  144.5194  150.6739 LP  0  0  0  0  0  0  0  0  0  0  0  0  # atno 17342 bound_to 10162
  140.6871  143.2356  151.5231 LP  0  0  0  0  0  0  0  0  0  0  0  0  # atno 17343 bound_to 10162
  156.0525  130.5592  150.9021 LP  0  0  0  0  0  0  0  0  0  0  0  0  # atno 17370 bound_to 10713
  157.5954  131.0943  150.9050 LP  0  0  0  0  0  0  0  0  0  0  0  0  # atno 17371 bound_to 10713
  140.2330  134.8671  157.3496 LP  0  0  0  0  0  0  0  0  0  0  0  0  # atno 17394 bound_to 11000
  140.1872  134.4417  155.7737 LP  0  0  0  0  0  0  0  0  0  0  0  0  # atno 17395 bound_to 11000

$$$$
