AV-unprocessed.smi:1372|AV-procd|sdf|5582|dock6
  -GOLD-   22720 5183D 1   1.00000     0.00000
 Structure written by MMmdl.
 41 43  0  0  0  0  0  0  0  0  1 V2000
  151.1664  137.5541  155.2315 C   0  0  0  0  0  0  0  0  0  0  0  0
  152.5225  138.0622  156.3650 S   0  0  0  0  0  0  0  0  0  0  0  0
  153.3141  136.8681  156.6988 O   0  0  0  0  0  0  0  0  0  0  0  0
  153.1891  139.2398  155.7889 O   0  0  0  0  0  0  0  0  0  0  0  0
  151.5782  138.5856  157.8657 C   0  0  0  0  0  0  0  0  0  0  0  0
  151.7527  140.0498  158.1626 C   0  0  0  0  0  0  0  0  0  0  0  0
  152.2304  140.4963  159.3262 N   0  0  0  0  0  0  0  0  0  0  0  0
  152.2225  141.8663  159.1610 C   0  0  0  0  0  0  0  0  0  0  0  0
  152.6233  142.9003  160.0369 C   0  0  0  0  0  0  0  0  0  0  0  0
  152.5189  144.2504  159.6420 C   0  0  0  0  0  0  0  0  0  0  0  0
  152.0122  144.5845  158.3693 C   0  0  0  0  0  0  0  0  0  0  0  0
  151.6067  143.5687  157.4824 C   0  0  0  0  0  0  0  0  0  0  0  0
  151.7150  142.2230  157.8811 C   0  0  0  0  0  0  0  0  0  0  0  0
  151.4140  141.0124  157.2646 N   0  0  0  0  0  0  0  0  0  0  0  0
  150.8489  140.8627  155.9291 C   0  0  0  0  0  0  0  0  0  0  0  0
  149.4241  141.4443  155.8226 C   0  0  2  0  0  0  0  0  0  0  0  0
  148.8294  141.3924  157.1034 O   0  0  0  0  0  0  0  0  0  0  0  0
  148.5818  140.7444  154.7647 C   0  0  0  0  0  0  0  0  0  0  0  0
  148.4943  139.3357  154.7563 C   0  0  0  0  0  0  0  0  0  0  0  0
  147.7047  138.6782  153.7934 C   0  0  0  0  0  0  0  0  0  0  0  0
  146.9923  139.4257  152.8362 C   0  0  0  0  0  0  0  0  0  0  0  0
  147.0736  140.8311  152.8398 C   0  0  0  0  0  0  0  0  0  0  0  0
  147.8675  141.4890  153.7992 C   0  0  0  0  0  0  0  0  0  0  0  0
  151.5932  137.2072  154.2907 H   0  0  0  0  0  0  0  0  0  0  0  0
  150.5140  138.4057  155.0394 H   0  0  0  0  0  0  0  0  0  0  0  0
  150.5911  136.7483  155.6868 H   0  0  0  0  0  0  0  0  0  0  0  0
  150.5330  138.3525  157.6796 H   0  0  0  0  0  0  0  0  0  0  0  0
  151.9136  137.9934  158.7166 H   0  0  0  0  0  0  0  0  0  0  0  0
  153.0123  142.6536  161.0136 H   0  0  0  0  0  0  0  0  0  0  0  0
  152.8283  145.0330  160.3192 H   0  0  0  0  0  0  0  0  0  0  0  0
  151.9349  145.6209  158.0744 H   0  0  0  0  0  0  0  0  0  0  0  0
  151.2186  143.8209  156.5069 H   0  0  0  0  0  0  0  0  0  0  0  0
  151.5141  141.3003  155.1851 H   0  0  0  0  0  0  0  0  0  0  0  0
  150.8237  139.7947  155.7078 H   0  0  0  0  0  0  0  0  0  0  0  0
  149.4907  142.5018  155.5635 H   0  0  0  0  0  0  0  0  0  0  0  0
  149.1135  140.5996  157.5324 H   0  0  0  0  0  0  0  0  0  0  0  0
  149.0266  138.7542  155.4951 H   0  0  0  0  0  0  0  0  0  0  0  0
  147.6385  137.6003  153.7953 H   0  0  0  0  0  0  0  0  0  0  0  0
  146.3820  138.9208  152.1021 H   0  0  0  0  0  0  0  0  0  0  0  0
  146.5248  141.4050  152.1077 H   0  0  0  0  0  0  0  0  0  0  0  0
  147.9170  142.5681  153.7973 H   0  0  0  0  0  0  0  0  0  0  0  0
  1  2  1  0  0  0  0
  1 24  1  0  0  0  0
  1 25  1  0  0  0  0
  1 26  1  0  0  0  0
  2  3  2  0  0  0  0
  2  4  2  0  0  0  0
  2  5  1  0  0  0  0
  5  6  1  0  0  0  0
  5 27  1  0  0  0  0
  5 28  1  0  0  0  0
  6 14  1  0  0  0  0
  6  7  2  0  0  0  0
  7  8  1  0  0  0  0
  8 13  2  0  0  0  0
  8  9  1  0  0  0  0
  9 10  2  0  0  0  0
  9 29  1  0  0  0  0
 10 11  1  0  0  0  0
 10 30  1  0  0  0  0
 11 12  2  0  0  0  0
 11 31  1  0  0  0  0
 12 13  1  0  0  0  0
 12 32  1  0  0  0  0
 13 14  1  0  0  0  0
 14 15  1  0  0  0  0
 15 16  1  0  0  0  0
 15 33  1  0  0  0  0
 15 34  1  0  0  0  0
 16 17  1  0  0  0  0
 16 18  1  0  0  0  0
 16 35  1  0  0  0  0
 17 36  1  0  0  0  0
 18 23  1  0  0  0  0
 18 19  2  0  0  0  0
 19 20  1  0  0  0  0
 19 37  1  0  0  0  0
 20 21  2  0  0  0  0
 20 38  1  0  0  0  0
 21 22  1  0  0  0  0
 21 39  1  0  0  0  0
 22 23  2  0  0  0  0
 22 40  1  0  0  0  0
 23 41  1  0  0  0  0
M  END
> <s_m_source_file>
AV-unprocessed.smi

> <i_m_source_file_index>
1372

> <i_lp_mmshare_version>
43012

> <i_f3d_flags>
0

> <s_epik_input>
W2NIXTFbY0hdW2NIXVtjSF1jKGMxMiluKGMobjIpW0NIMl1TKD1PKSg9TylbQ0gzXSlbQ0gyXVtDQEhdKFtPSF0pYzNbY0hdW2NIXVtjSF1bY0hdW2NIXTM=

> <s_epik_cmdline>
J2VwaWtfcHl0aG9uJywgJy1waCcsICc3LjAnLCAnLXRuJywgJzgnLCAnLW1hJywgJzIwMCcsICctbWV0YWxfYmluZGluZycsICctaW1hZScsICc8aW5maWxlLm1hZT4nLCAnLW9tYWUnLCAnPG91dGZpbGUubWFlPic=

> <r_epik_Ionization_Penalty>
0.0151431

> <r_epik_Ionization_Penalty_Charging>
0

> <r_epik_Ionization_Penalty_Neutral>
0.0151431

> <r_epik_State_Penalty>
0.0118835

> <r_epik_Charging_Adjusted_Penalty>
0.0118835

> <i_epik_Tot_Q>
0

> <i_epik_Tot_abs_Q>
0

> <r_epik_Metal_State_Penalty>
1.20034e-05

> <b_epik_Metal_Only>
0

> <s_lp_Force_Field>
OPLS_2005

> <r_lp_Energy>
10.1971

> <b_lp_Chiralities_Consistent>
1

> <s_lp_Variant>
AV-unprocessed.smi:1372-1

> <Gold.Version>
5.8.1

> <Gold.Id.Protein>
6NUR|6NUR_protein|mol2

> <Gold.PLP.Fitness>
50.3598

> <Gold.PLP.PLP>
-46.0277

> <Gold.PLP.part.hbond>
-1.9139

> <Gold.PLP.part.metal>
0.0000

> <Gold.PLP.part.buried>
-5.4295

> <Gold.PLP.part.nonpolar>
-38.9007

> <Gold.PLP.part.repulsive>
0.0000

> <Gold.PLP.ligand.clash>
0.0000

> <Gold.PLP.ligand.torsion>
0.7101

> <Gold.PLP.Chemscore.Hbond>
1.8800

> <Gold.PLP.Chemscore.CHOScore>
0.0000

> <Gold.PLP.Chemscore.Metal>
0.0000

> <Gold.Chemscore.Hbonds>
donor molecule, donor type, donor heavy atom, donor atom, acceptor molecule, acceptor atom, score
      P1  H  7997  8009       L1     4  1.00
      P1  H 10752 10764       L1     3  0.86

> <Gold.PLP.Chemscore.Internal.Correction>
0.1123

> <Gold.Rescore>
     Score         DG    S(hbond)    S(metal)    S(lipo)     H(rot)  DE(clash)    DE(int)     intcor
     19.14     -20.72       1.84        0.00     128.60       2.33       0.01       1.56       ----

> <Gold.Chemscore.Fitness>
19.1432

> <Gold.Chemscore.DG>
-20.7152

> <Gold.Chemscore.ZeroCoef>
-5.4800

> <Gold.Chemscore.Hbond>
1.8431

> <Gold.Chemscore.Metal>
0.0000

> <Gold.Chemscore.Lipo>
128.5962

> <Gold.Chemscore.Internal_Hbond>
0.0000

> <Gold.Chemscore.DEClash>
0.0097

> <Gold.Chemscore.DEInternal>
1.5623

> <Gold.Chemscore.Rot>
2.3306

> <Gold.Chemscore.Internal.Correction>
   9.000000E+99

> <Gold.Chemscore.Hbonds>
donor molecule, donor type, donor heavy atom, donor atom, acceptor molecule, acceptor atom, score
      P1  H  7997  8009       L1     4  0.94
      P1  H 10752 10764       L1     3  0.78

> <Gold.Chemscore.Hbond.Weighted>
-6.1559

> <Gold.Chemscore.Metal.Weighted>
-0.0000

> <Gold.Chemscore.Lipo.Weighted>
-15.0458

> <Gold.Chemscore.Internal_Hbond.Weighted>
0.0000

> <Gold.Chemscore.DEClash.Weighted>
0.0097

> <Gold.Chemscore.DEInternal.Weighted>
1.5623

> <Gold.Chemscore.Rot.Weighted>
5.9664

> <Gold.Chemscore.Internal.Correction.Weighted>
   9.000000E+99

> <Gold.Protein.RotatedTorsions>
[ 6907 6896 6895 6894 ] final  111.06 input  -60.11 | X-H torsion
[ 7974 7965 7964 7962 ] final -142.93 input  175.53 | X-H torsion
[ 8008 7997 7996 7995 ] final -165.35 input   59.86 | X-H torsion
[ 10167 10162 10161 10158 ] final  -63.32 input  -65.29 | X-H torsion
[ 10718 10713 10712 10709 ] final -156.50 input   66.30 | X-H torsion
[ 10763 10752 10751 10750 ] final   -0.11 input  -60.55 | X-H torsion
[ 11005 11000 10999 10996 ] final -165.93 input  -57.11 | X-H torsion

> <Gold.Protein.ActiveResidues>
 VAL166  LYS551  ARG553  GLY616  TRP617  ASP618  TYR619  PRO620  LYS621  CYS622 
 ASP623  PHE694  ASN695  SER759  ASP760  ASP761  ALA762  ILE779  LEU786  VAL792 
 PHE793  MET794  SER795  GLU796  ALA797  LYS798  CYS799  TRP800  GLU811  SER814 

> <Gold.Protein.RotatedAtoms>
  152.4988  133.8711  159.7298 H   0  0  0  0  0  0  0  0  0  0  0  0  # atno 6907 bound_to 6896
  150.9198  133.6886  159.2841 H   0  0  0  0  0  0  0  0  0  0  0  0  # atno 6908 bound_to 6896
  151.4267  135.1009  159.9682 H   0  0  0  0  0  0  0  0  0  0  0  0  # atno 6909 bound_to 6896
  144.8407  140.5898  143.5454 H   0  0  0  0  0  0  0  0  0  0  0  0  # atno 7974 bound_to 7965
  155.8485  140.0959  157.1689 H   0  0  0  0  0  0  0  0  0  0  0  0  # atno 8008 bound_to 7997
  154.3984  140.1387  156.3877 H   0  0  0  0  0  0  0  0  0  0  0  0  # atno 8009 bound_to 7997
  155.7987  140.3453  155.5392 H   0  0  0  0  0  0  0  0  0  0  0  0  # atno 8010 bound_to 7997
  140.5879  143.2336  151.6204 H   0  0  0  0  0  0  0  0  0  0  0  0  # atno 10167 bound_to 10162
  156.5274  130.8505  151.2704 H   0  0  0  0  0  0  0  0  0  0  0  0  # atno 10718 bound_to 10713
  153.3277  135.6973  153.6975 H   0  0  0  0  0  0  0  0  0  0  0  0  # atno 10763 bound_to 10752
  153.5790  135.3501  155.2868 H   0  0  0  0  0  0  0  0  0  0  0  0  # atno 10764 bound_to 10752
  154.8611  135.4290  154.2457 H   0  0  0  0  0  0  0  0  0  0  0  0  # atno 10765 bound_to 10752
  140.5702  134.5245  157.5160 H   0  0  0  0  0  0  0  0  0  0  0  0  # atno 11005 bound_to 11000
  145.4700  139.1504  143.3819 LP  0  0  0  0  0  0  0  0  0  0  0  0  # atno 17320 bound_to 7965
  146.2700  140.4833  142.8818 LP  0  0  0  0  0  0  0  0  0  0  0  0  # atno 17321 bound_to 7965
  139.5209  144.3210  152.0911 LP  0  0  0  0  0  0  0  0  0  0  0  0  # atno 17342 bound_to 10162
  140.2370  144.4309  150.6276 LP  0  0  0  0  0  0  0  0  0  0  0  0  # atno 17343 bound_to 10162
  157.7427  130.9896  150.2538 LP  0  0  0  0  0  0  0  0  0  0  0  0  # atno 17370 bound_to 10713
  156.3092  130.3769  149.7677 LP  0  0  0  0  0  0  0  0  0  0  0  0  # atno 17371 bound_to 10713
  139.9365  134.7865  156.0789 LP  0  0  0  0  0  0  0  0  0  0  0  0  # atno 17394 bound_to 11000
  141.1061  133.6659  156.2866 LP  0  0  0  0  0  0  0  0  0  0  0  0  # atno 17395 bound_to 11000

$$$$
