AV-unprocessed.smi:169|AV-procd|sdf|1401|dock3
  -GOLD-   2262019153D 1   1.00000     0.00000
 Structure written by MMmdl.
 56 60  0  0  0  0  0  0  0  0  2 V2000
  146.2010  131.4907  160.6420 C   0  0  0  0  0  0  0  0  0  0  0  0
  145.3816  132.2206  161.7200 C   0  0  0  0  0  0  0  0  0  0  0  0
  145.6583  133.6786  161.7963 N   0  3  1  0  0  0  0  0  0  0  0  0
  144.5221  134.4519  162.4110 C   0  0  0  0  0  0  0  0  0  0  0  0
  144.4847  135.9782  162.0321 C   0  0  0  0  0  0  0  0  0  0  0  0
  145.8873  136.6146  161.9535 C   0  0  3  0  0  0  0  0  0  0  0  0
  146.8526  137.3346  162.9021 C   0  0  0  0  0  0  0  0  0  0  0  0
  148.0792  136.3642  162.8332 C   0  0  0  0  0  0  0  0  0  0  0  0
  147.6971  135.2878  161.7615 C   0  0  1  0  0  0  0  0  0  0  0  0
  147.0338  133.9851  162.3408 C   0  0  0  0  0  0  0  0  0  0  0  0
  146.7242  135.9940  160.9432 N   0  0  0  0  0  0  0  0  0  0  0  0
  147.1125  136.7492  159.8780 C   0  0  0  0  0  0  0  0  0  0  0  0
  146.1615  137.2799  159.0646 N   0  0  0  0  0  0  0  0  0  0  0  0
  146.5038  138.0280  158.0126 C   0  0  0  0  0  0  0  0  0  0  0  0
  147.7226  138.3772  157.6007 N   0  0  0  0  0  0  0  0  0  0  0  0
  148.6859  137.8684  158.4204 C   0  0  0  0  0  0  0  0  0  0  0  0
  148.4726  137.0505  159.5675 C   0  0  0  0  0  0  0  0  0  0  0  0
  149.6976  136.7272  160.1410 N   0  0  0  0  0  0  0  0  0  0  0  0
  150.5783  137.3113  159.3767 C   0  0  0  0  0  0  0  0  0  0  0  0
  150.0572  138.0343  158.3282 N   0  0  0  0  0  0  0  0  0  0  0  0
  150.8025  138.7826  157.3255 C   0  0  0  0  0  0  0  0  0  0  0  0
  150.5189  138.3725  155.8596 C   0  0  0  0  0  0  0  0  0  0  0  0
  150.3809  136.8450  155.8138 C   0  0  0  0  0  0  0  0  0  0  0  0
  151.5923  136.2105  156.1709 O   0  0  0  0  0  0  0  0  0  0  0  0
  149.4183  139.1549  155.1209 C   0  0  0  0  0  0  0  0  0  0  0  0
  150.3889  139.9635  154.4235 O   0  0  0  0  0  0  0  0  0  0  0  0
  151.4069  139.0023  154.7734 C   0  0  0  0  0  0  0  0  0  0  0  0
  145.9481  130.4304  160.6255 H   0  0  0  0  0  0  0  0  0  0  0  0
  147.2722  131.5648  160.8287 H   0  0  0  0  0  0  0  0  0  0  0  0
  146.0037  131.8869  159.6459 H   0  0  0  0  0  0  0  0  0  0  0  0
  144.3174  132.0719  161.5338 H   0  0  0  0  0  0  0  0  0  0  0  0
  145.5757  131.7709  162.6945 H   0  0  0  0  0  0  0  0  0  0  0  0
  143.5707  134.0092  162.1138 H   0  0  0  0  0  0  0  0  0  0  0  0
  144.5734  134.3428  163.4954 H   0  0  0  0  0  0  0  0  0  0  0  0
  144.0103  136.0808  161.0556 H   0  0  0  0  0  0  0  0  0  0  0  0
  143.8482  136.5251  162.7298 H   0  0  0  0  0  0  0  0  0  0  0  0
  145.9104  136.0178  162.8575 H   0  0  0  0  0  0  0  0  0  0  0  0
  147.1217  138.3072  162.4881 H   0  0  0  0  0  0  0  0  0  0  0  0
  146.4810  137.5060  163.9173 H   0  0  0  0  0  0  0  0  0  0  0  0
  148.9634  136.9178  162.5149 H   0  0  0  0  0  0  0  0  0  0  0  0
  148.3085  135.9161  163.8003 H   0  0  0  0  0  0  0  0  0  0  0  0
  148.5844  134.9916  161.2021 H   0  0  0  0  0  0  0  0  0  0  0  0
  146.9891  134.0154  163.4303 H   0  0  0  0  0  0  0  0  0  0  0  0
  147.7030  133.1567  162.1056 H   0  0  0  0  0  0  0  0  0  0  0  0
  145.6841  138.4025  157.4174 H   0  0  0  0  0  0  0  0  0  0  0  0
  151.6395  137.2311  159.5611 H   0  0  0  0  0  0  0  0  0  0  0  0
  150.5767  139.8387  157.4769 H   0  0  0  0  0  0  0  0  0  0  0  0
  151.8638  138.6729  157.5523 H   0  0  0  0  0  0  0  0  0  0  0  0
  149.5909  136.5011  156.4821 H   0  0  0  0  0  0  0  0  0  0  0  0
  150.1082  136.5075  154.8134 H   0  0  0  0  0  0  0  0  0  0  0  0
  151.7223  136.3127  157.1015 H   0  0  0  0  0  0  0  0  0  0  0  0
  148.8330  138.5474  154.4283 H   0  0  0  0  0  0  0  0  0  0  0  0
  148.7577  139.7392  155.7590 H   0  0  0  0  0  0  0  0  0  0  0  0
  152.3215  139.4631  155.1439 H   0  0  0  0  0  0  0  0  0  0  0  0
  151.6279  138.3312  153.9415 H   0  0  0  0  0  0  0  0  0  0  0  0
  145.6881  133.9733  160.8304 H   0  0  0  0  0  0  0  0  0  0  0  0
  1  2  1  0  0  0  0
  1 28  1  0  0  0  0
  1 29  1  0  0  0  0
  1 30  1  0  0  0  0
  2  3  1  0  0  0  0
  2 31  1  0  0  0  0
  2 32  1  0  0  0  0
  3 10  1  0  0  0  0
  3  4  1  0  0  0  0
  3 56  1  0  0  0  0
  4  5  1  0  0  0  0
  4 33  1  0  0  0  0
  4 34  1  0  0  0  0
  5  6  1  0  0  0  0
  5 35  1  0  0  0  0
  5 36  1  0  0  0  0
  6 11  1  0  0  0  0
  6  7  1  0  0  0  0
  6 37  1  0  0  0  0
  7  8  1  0  0  0  0
  7 38  1  0  0  0  0
  7 39  1  0  0  0  0
  8  9  1  0  0  0  0
  8 40  1  0  0  0  0
  8 41  1  0  0  0  0
  9 10  1  0  0  0  0
  9 11  1  0  0  0  0
  9 42  1  0  0  0  0
 10 43  1  0  0  0  0
 10 44  1  0  0  0  0
 11 12  1  0  0  0  0
 12 17  1  0  0  0  0
 12 13  2  0  0  0  0
 13 14  1  0  0  0  0
 14 15  2  0  0  0  0
 14 45  1  0  0  0  0
 15 16  1  0  0  0  0
 16 20  1  0  0  0  0
 16 17  2  0  0  0  0
 17 18  1  0  0  0  0
 18 19  2  0  0  0  0
 19 20  1  0  0  0  0
 19 46  1  0  0  0  0
 20 21  1  0  0  0  0
 21 22  1  0  0  0  0
 21 47  1  0  0  0  0
 21 48  1  0  0  0  0
 22 27  1  0  0  0  0
 22 23  1  0  0  0  0
 22 25  1  0  0  0  0
 23 24  1  0  0  0  0
 23 49  1  0  0  0  0
 23 50  1  0  0  0  0
 24 51  1  0  0  0  0
 25 26  1  0  0  0  0
 25 52  1  0  0  0  0
 25 53  1  0  0  0  0
 26 27  1  0  0  0  0
 27 54  1  0  0  0  0
 27 55  1  0  0  0  0
M  CHG  1   3   1
M  END
> <s_m_source_file>
AV-unprocessed.smi

> <i_m_source_file_index>
169

> <i_lp_mmshare_version>
43012

> <i_f3d_flags>
0

> <s_epik_input>
W0NASF0xMltDSDJdW0NIMl1OKFtDSDJdW0NIM10pW0NIMl1bQ0BIXShbQ0gyXVtDSDJdMSlOMmMobltjSF1uMyljKGMzNCluW2NIXW40W0NIMl1DNShbQ0gyXVtPSF0pW0NIMl1PW0NIMl01

> <s_epik_cmdline>
J2VwaWtfcHl0aG9uJywgJy1waCcsICc3LjAnLCAnLXRuJywgJzgnLCAnLW1hJywgJzIwMCcsICctbWV0YWxfYmluZGluZycsICctaW1hZScsICc8aW5maWxlLm1hZT4nLCAnLW9tYWUnLCAnPG91dGZpbGUubWFlPic=

> <r_lp_tautomer_probability>
1

> <r_epik_Ionization_Penalty>
0.00274162

> <r_epik_Ionization_Penalty_Charging>
0.00243722

> <r_epik_Ionization_Penalty_Neutral>
0.000304399

> <r_epik_State_Penalty>
-0

> <r_epik_Charging_Adjusted_Penalty>
0.00243722

> <i_epik_Tot_Q>
1

> <i_epik_Tot_abs_Q>
1

> <r_epik_Metal_State_Penalty>
-0

> <b_epik_Metal_Only>
0

> <s_lp_Force_Field>
OPLS_2005

> <r_lp_Energy>
128.509

> <b_lp_Chiralities_Consistent>
1

> <s_lp_Variant>
AV-unprocessed.smi:169-4

> <Gold.Version>
5.8.1

> <Gold.Id.Protein>
6NUR|6NUR_protein|mol2

> <Gold.PLP.Fitness>
44.0519

> <Gold.PLP.PLP>
-38.4625

> <Gold.PLP.part.hbond>
-3.2936

> <Gold.PLP.part.metal>
0.0000

> <Gold.PLP.part.buried>
-4.0495

> <Gold.PLP.part.nonpolar>
-31.4715

> <Gold.PLP.part.repulsive>
0.1943

> <Gold.PLP.ligand.clash>
0.0000

> <Gold.PLP.ligand.torsion>
0.6333

> <Gold.PLP.Chemscore.Hbond>
2.1372

> <Gold.PLP.Chemscore.CHOScore>
0.0000

> <Gold.PLP.Chemscore.Metal>
0.0000

> <Gold.Chemscore.Hbonds>
donor molecule, donor type, donor heavy atom, donor atom, acceptor molecule, acceptor atom, score
      P1  H  6931  6943       L1    18  0.01
      P1  H  7989  7998       L1    26  0.45
      P1  H 10752 10764       L1    24  0.83

> <Gold.PLP.Chemscore.Internal.Correction>
0.4444

> <Gold.Rescore>
     Score         DG    S(hbond)    S(metal)    S(lipo)     H(rot)  DE(clash)    DE(int)     intcor
     12.39     -16.20       1.86        0.00      95.99       2.62       0.66       3.16       ----

> <Gold.Chemscore.Fitness>
12.3876

> <Gold.Chemscore.DG>
-16.1996

> <Gold.Chemscore.ZeroCoef>
-5.4800

> <Gold.Chemscore.Hbond>
1.8559

> <Gold.Chemscore.Metal>
0.0000

> <Gold.Chemscore.Lipo>
95.9939

> <Gold.Chemscore.Internal_Hbond>
0.0000

> <Gold.Chemscore.DEClash>
0.6567

> <Gold.Chemscore.DEInternal>
3.1554

> <Gold.Chemscore.Rot>
2.6212

> <Gold.Chemscore.Internal.Correction>
   9.000000E+99

> <Gold.Chemscore.Hbonds>
donor molecule, donor type, donor heavy atom, donor atom, acceptor molecule, acceptor atom, score
      P1  H  7989  7998       L1    26  0.02
      P1  H 10752 10764       L1    24  0.68

> <Gold.Chemscore.Hbond.Weighted>
-6.1986

> <Gold.Chemscore.Metal.Weighted>
-0.0000

> <Gold.Chemscore.Lipo.Weighted>
-11.2313

> <Gold.Chemscore.Internal_Hbond.Weighted>
0.0000

> <Gold.Chemscore.DEClash.Weighted>
0.6567

> <Gold.Chemscore.DEInternal.Weighted>
3.1554

> <Gold.Chemscore.Rot.Weighted>
6.7102

> <Gold.Chemscore.Internal.Correction.Weighted>
   9.000000E+99

> <Gold.Protein.RotatedTorsions>
[ 6907 6896 6895 6894 ] final  109.76 input  -60.11 | X-H torsion
[ 7974 7965 7964 7962 ] final  -99.31 input  175.53 | X-H torsion
[ 8008 7997 7996 7995 ] final  -84.90 input   59.86 | X-H torsion
[ 10167 10162 10161 10158 ] final  100.33 input  -65.29 | X-H torsion
[ 10718 10713 10712 10709 ] final   79.04 input   66.30 | X-H torsion
[ 10763 10752 10751 10750 ] final  -17.80 input  -60.55 | X-H torsion
[ 11005 11000 10999 10996 ] final   58.59 input  -57.11 | X-H torsion

> <Gold.Protein.ActiveResidues>
 VAL166  LYS551  ARG553  GLY616  TRP617  ASP618  TYR619  PRO620  LYS621  CYS622 
 ASP623  PHE694  ASN695  SER759  ASP760  ASP761  ALA762  ILE779  LEU786  VAL792 
 PHE793  MET794  SER795  GLU796  ALA797  LYS798  CYS799  TRP800  GLU811  SER814 

> <Gold.Protein.RotatedAtoms>
  152.5052  133.8898  159.7387 H   0  0  0  0  0  0  0  0  0  0  0  0  # atno 6907 bound_to 6896
  150.9340  133.6725  159.2811 H   0  0  0  0  0  0  0  0  0  0  0  0  # atno 6908 bound_to 6896
  151.4060  135.0983  159.9623 H   0  0  0  0  0  0  0  0  0  0  0  0  # atno 6909 bound_to 6896
  145.3093  140.9396  143.2779 H   0  0  0  0  0  0  0  0  0  0  0  0  # atno 7974 bound_to 7965
  154.6348  140.0599  156.9776 H   0  0  0  0  0  0  0  0  0  0  0  0  # atno 8008 bound_to 7997
  155.1608  140.3282  155.4393 H   0  0  0  0  0  0  0  0  0  0  0  0  # atno 8009 bound_to 7997
  156.2501  140.1931  156.6716 H   0  0  0  0  0  0  0  0  0  0  0  0  # atno 8010 bound_to 7997
  139.7537  144.6976  151.0394 H   0  0  0  0  0  0  0  0  0  0  0  0  # atno 10167 bound_to 10162
  157.6764  130.9896  150.1874 H   0  0  0  0  0  0  0  0  0  0  0  0  # atno 10718 bound_to 10713
  153.5794  135.7005  153.5470 H   0  0  0  0  0  0  0  0  0  0  0  0  # atno 10763 bound_to 10752
  153.3274  135.4057  155.1467 H   0  0  0  0  0  0  0  0  0  0  0  0  # atno 10764 bound_to 10752
  154.8620  135.3710  154.5321 H   0  0  0  0  0  0  0  0  0  0  0  0  # atno 10765 bound_to 10752
  140.0366  134.5934  155.9436 H   0  0  0  0  0  0  0  0  0  0  0  0  # atno 11005 bound_to 11000
  144.9029  139.4626  143.6624 LP  0  0  0  0  0  0  0  0  0  0  0  0  # atno 17320 bound_to 7965
  146.3124  139.7793  142.9010 LP  0  0  0  0  0  0  0  0  0  0  0  0  # atno 17321 bound_to 7965
  140.7800  143.4778  151.0058 LP  0  0  0  0  0  0  0  0  0  0  0  0  # atno 17342 bound_to 10162
  139.8466  143.7494  152.3179 LP  0  0  0  0  0  0  0  0  0  0  0  0  # atno 17343 bound_to 10162
  156.2593  130.3709  149.8147 LP  0  0  0  0  0  0  0  0  0  0  0  0  # atno 17370 bound_to 10713
  156.5897  130.8501  151.3405 LP  0  0  0  0  0  0  0  0  0  0  0  0  # atno 17371 bound_to 10713
  141.1860  133.6556  156.5223 LP  0  0  0  0  0  0  0  0  0  0  0  0  # atno 17394 bound_to 11000
  140.4138  134.7249  157.4851 LP  0  0  0  0  0  0  0  0  0  0  0  0  # atno 17395 bound_to 11000

$$$$
