AV-unprocessed.smi:350|AV-procd|sdf|2399|dock3
  -GOLD-   2262022333D 1   1.00000     0.00000
 Structure written by MMmdl.
 35 36  0  0  0  0  0  0  0  0  1 V2000
  150.4147  144.6116  159.3779 C   0  0  0  0  0  0  0  0  0  0  0  0
  151.2872  143.3895  159.2790 C   0  0  0  0  0  0  0  0  0  0  0  0
  151.1425  142.6565  158.2244 N   0  0  0  0  0  0  0  0  0  0  0  0
  151.8889  141.5103  158.0367 N   0  0  0  0  0  0  0  0  0  0  0  0
  151.5864  140.8016  156.7868 C   0  0  0  0  0  0  0  0  0  0  0  0
  150.2410  140.0455  156.8509 C   0  0  1  0  0  0  0  0  0  0  0  0
  149.8826  139.8702  158.2077 O   0  0  0  0  0  0  0  0  0  0  0  0
  149.1583  140.7920  156.0863 C   0  0  0  0  0  0  0  0  0  0  0  0
  148.0195  141.2926  156.7558 C   0  0  0  0  0  0  0  0  0  0  0  0
  147.0251  141.9896  156.0426 C   0  0  0  0  0  0  0  0  0  0  0  0
  147.1634  142.1917  154.6557 C   0  0  0  0  0  0  0  0  0  0  0  0
  145.9456  143.0456  153.7812 Cl  0  0  0  0  0  0  0  0  0  0  0  0
  148.2982  141.6977  153.9836 C   0  0  0  0  0  0  0  0  0  0  0  0
  149.2932  141.0015  154.6970 C   0  0  0  0  0  0  0  0  0  0  0  0
  152.8274  141.0431  158.9089 C   0  0  0  0  0  0  0  0  0  0  0  0
  153.4678  140.0109  158.7030 O   0  0  0  0  0  0  0  0  0  0  0  0
  152.9897  141.8800  160.1001 C   0  0  0  0  0  0  0  0  0  0  0  0
  153.9638  141.4269  161.0400 C   0  0  0  0  0  0  0  0  0  0  0  0
  154.7592  141.0789  161.8057 N   0  0  0  0  0  0  0  0  0  0  0  0
  152.2617  143.0080  160.2962 C   0  0  0  0  0  0  0  0  0  0  0  0
  152.3914  143.9114  161.5149 C   0  0  0  0  0  0  0  0  0  0  0  0
  149.7803  144.5630  160.2629 H   0  0  0  0  0  0  0  0  0  0  0  0
  149.7605  144.7156  158.5109 H   0  0  0  0  0  0  0  0  0  0  0  0
  151.0201  145.5158  159.4432 H   0  0  0  0  0  0  0  0  0  0  0  0
  151.6014  141.4831  155.9337 H   0  0  0  0  0  0  0  0  0  0  0  0
  152.3933  140.0920  156.5931 H   0  0  0  0  0  0  0  0  0  0  0  0
  150.3466  139.0535  156.4102 H   0  0  0  0  0  0  0  0  0  0  0  0
  150.6466  140.0269  158.7413 H   0  0  0  0  0  0  0  0  0  0  0  0
  147.9061  141.1454  157.8200 H   0  0  0  0  0  0  0  0  0  0  0  0
  146.1570  142.3692  156.5614 H   0  0  0  0  0  0  0  0  0  0  0  0
  148.4075  141.8530  152.9202 H   0  0  0  0  0  0  0  0  0  0  0  0
  150.1613  140.6302  154.1721 H   0  0  0  0  0  0  0  0  0  0  0  0
  153.1212  143.5360  162.2315 H   0  0  0  0  0  0  0  0  0  0  0  0
  151.4365  143.9947  162.0348 H   0  0  0  0  0  0  0  0  0  0  0  0
  152.7093  144.9109  161.2163 H   0  0  0  0  0  0  0  0  0  0  0  0
  1  2  1  0  0  0  0
  1 22  1  0  0  0  0
  1 23  1  0  0  0  0
  1 24  1  0  0  0  0
  2 20  1  0  0  0  0
  2  3  2  0  0  0  0
  3  4  1  0  0  0  0
  4  5  1  0  0  0  0
  4 15  1  0  0  0  0
  5  6  1  0  0  0  0
  5 25  1  0  0  0  0
  5 26  1  0  0  0  0
  6  7  1  0  0  0  0
  6  8  1  0  0  0  0
  6 27  1  0  0  0  0
  7 28  1  0  0  0  0
  8 14  1  0  0  0  0
  8  9  2  0  0  0  0
  9 10  1  0  0  0  0
  9 29  1  0  0  0  0
 10 11  2  0  0  0  0
 10 30  1  0  0  0  0
 11 12  1  0  0  0  0
 11 13  1  0  0  0  0
 13 14  2  0  0  0  0
 13 31  1  0  0  0  0
 14 32  1  0  0  0  0
 15 16  2  0  0  0  0
 15 17  1  0  0  0  0
 17 18  1  0  0  0  0
 17 20  2  0  0  0  0
 18 19  3  0  0  0  0
 20 21  1  0  0  0  0
 21 33  1  0  0  0  0
 21 34  1  0  0  0  0
 21 35  1  0  0  0  0
M  END
> <s_m_source_file>
AV-unprocessed.smi

> <i_m_source_file_index>
350

> <i_lp_mmshare_version>
43012

> <i_f3d_flags>
0

> <s_epik_input>
TiNDYyhjMVtDSDNdKWMoPU8pbihuYzFbQ0gzXSlbQ0gyXVtDQEhdKFtPSF0pYzJbY0hdW2NIXWMoQ2wpW2NIXVtjSF0y

> <s_epik_cmdline>
J2VwaWtfcHl0aG9uJywgJy1waCcsICc3LjAnLCAnLXRuJywgJzgnLCAnLW1hJywgJzIwMCcsICctbWV0YWxfYmluZGluZycsICctaW1hZScsICc8aW5maWxlLm1hZT4nLCAnLW9tYWUnLCAnPG91dGZpbGUubWFlPic=

> <r_lp_tautomer_probability>
1

> <r_epik_Ionization_Penalty>
1.17315e-07

> <r_epik_Ionization_Penalty_Charging>
1.40848e-10

> <r_epik_Ionization_Penalty_Neutral>
1.17174e-07

> <r_epik_State_Penalty>
-0

> <r_epik_Charging_Adjusted_Penalty>
1.40848e-10

> <i_epik_Tot_Q>
0

> <i_epik_Tot_abs_Q>
0

> <r_epik_Metal_State_Penalty>
-0

> <b_epik_Metal_Only>
0

> <s_lp_Force_Field>
OPLS_2005

> <r_lp_Energy>
28.138

> <b_lp_Chiralities_Consistent>
1

> <s_lp_Variant>
AV-unprocessed.smi:350-2

> <Gold.Version>
5.8.1

> <Gold.Id.Protein>
6NUR|6NUR_protein|mol2

> <Gold.PLP.Fitness>
45.9739

> <Gold.PLP.PLP>
-44.5618

> <Gold.PLP.part.hbond>
-2.0000

> <Gold.PLP.part.metal>
0.0000

> <Gold.PLP.part.buried>
-5.0318

> <Gold.PLP.part.nonpolar>
-36.8324

> <Gold.PLP.part.repulsive>
0.0667

> <Gold.PLP.ligand.clash>
0.0000

> <Gold.PLP.ligand.torsion>
0.7996

> <Gold.PLP.Chemscore.Hbond>
1.0000

> <Gold.PLP.Chemscore.CHOScore>
0.0000

> <Gold.PLP.Chemscore.Metal>
0.0000

> <Gold.Chemscore.Hbonds>
donor molecule, donor type, donor heavy atom, donor atom, acceptor molecule, acceptor atom, score
      P1  H  7997  8009       L1    16  1.00

> <Gold.PLP.Chemscore.Internal.Correction>
0.0114

> <Gold.Rescore>
     Score         DG    S(hbond)    S(metal)    S(lipo)     H(rot)  DE(clash)    DE(int)     intcor
     14.54     -15.38       0.91        0.00     100.18       1.90       0.02       0.82       ----

> <Gold.Chemscore.Fitness>
14.5444

> <Gold.Chemscore.DG>
-15.3798

> <Gold.Chemscore.ZeroCoef>
-5.4800

> <Gold.Chemscore.Hbond>
0.9145

> <Gold.Chemscore.Metal>
0.0000

> <Gold.Chemscore.Lipo>
100.1843

> <Gold.Chemscore.Internal_Hbond>
0.0000

> <Gold.Chemscore.DEClash>
0.0204

> <Gold.Chemscore.DEInternal>
0.8150

> <Gold.Chemscore.Rot>
1.9047

> <Gold.Chemscore.Internal.Correction>
   9.000000E+99

> <Gold.Chemscore.Hbonds>
donor molecule, donor type, donor heavy atom, donor atom, acceptor molecule, acceptor atom, score
      P1  H  7997  8009       L1    16  0.83

> <Gold.Chemscore.Hbond.Weighted>
-3.0543

> <Gold.Chemscore.Metal.Weighted>
-0.0000

> <Gold.Chemscore.Lipo.Weighted>
-11.7216

> <Gold.Chemscore.Internal_Hbond.Weighted>
0.0000

> <Gold.Chemscore.DEClash.Weighted>
0.0204

> <Gold.Chemscore.DEInternal.Weighted>
0.8150

> <Gold.Chemscore.Rot.Weighted>
4.8760

> <Gold.Chemscore.Internal.Correction.Weighted>
   9.000000E+99

> <Gold.Protein.RotatedTorsions>
[ 6907 6896 6895 6894 ] final  135.72 input  -60.11 | X-H torsion
[ 7974 7965 7964 7962 ] final -103.43 input  175.53 | X-H torsion
[ 8008 7997 7996 7995 ] final  151.54 input   59.86 | X-H torsion
[ 10167 10162 10161 10158 ] final    9.16 input  -65.29 | X-H torsion
[ 10718 10713 10712 10709 ] final -100.74 input   66.30 | X-H torsion
[ 10763 10752 10751 10750 ] final -113.85 input  -60.55 | X-H torsion
[ 11005 11000 10999 10996 ] final -106.84 input  -57.11 | X-H torsion

> <Gold.Protein.ActiveResidues>
 VAL166  LYS551  ARG553  GLY616  TRP617  ASP618  TYR619  PRO620  LYS621  CYS622 
 ASP623  PHE694  ASN695  SER759  ASP760  ASP761  ALA762  ILE779  LEU786  VAL792 
 PHE793  MET794  SER795  GLU796  ALA797  LYS798  CYS799  TRP800  GLU811  SER814 

> <Gold.Protein.RotatedAtoms>
  152.2973  133.5620  159.5595 H   0  0  0  0  0  0  0  0  0  0  0  0  # atno 6907 bound_to 6896
  150.7261  134.0343  159.3753 H   0  0  0  0  0  0  0  0  0  0  0  0  # atno 6908 bound_to 6896
  151.8245  135.0641  160.0480 H   0  0  0  0  0  0  0  0  0  0  0  0  # atno 6909 bound_to 6896
  145.2560  140.9254  143.3068 H   0  0  0  0  0  0  0  0  0  0  0  0  # atno 7974 bound_to 7965
  156.2669  140.2045  156.6192 H   0  0  0  0  0  0  0  0  0  0  0  0  # atno 8008 bound_to 7997
  154.6770  140.0544  157.0250 H   0  0  0  0  0  0  0  0  0  0  0  0  # atno 8009 bound_to 7997
  155.1055  140.3210  155.4538 H   0  0  0  0  0  0  0  0  0  0  0  0  # atno 8010 bound_to 7997
  140.6271  143.8076  150.7248 H   0  0  0  0  0  0  0  0  0  0  0  0  # atno 10167 bound_to 10162
  156.0172  130.5341  150.6861 H   0  0  0  0  0  0  0  0  0  0  0  0  # atno 10718 bound_to 10713
  154.8414  135.4439  154.1414 H   0  0  0  0  0  0  0  0  0  0  0  0  # atno 10763 bound_to 10752
  153.2598  135.6935  153.7596 H   0  0  0  0  0  0  0  0  0  0  0  0  # atno 10764 bound_to 10752
  153.6877  135.3392  155.3170 H   0  0  0  0  0  0  0  0  0  0  0  0  # atno 10765 bound_to 10752
  141.0984  133.8928  157.1904 H   0  0  0  0  0  0  0  0  0  0  0  0  # atno 11005 bound_to 11000
  144.9460  139.4135  143.6425 LP  0  0  0  0  0  0  0  0  0  0  0  0  # atno 17320 bound_to 7965
  146.3289  139.8444  142.8884 LP  0  0  0  0  0  0  0  0  0  0  0  0  # atno 17321 bound_to 7965
  140.1679  143.4219  152.2021 LP  0  0  0  0  0  0  0  0  0  0  0  0  # atno 17342 bound_to 10162
  139.5490  144.7322  151.4493 LP  0  0  0  0  0  0  0  0  0  0  0  0  # atno 17343 bound_to 10162
  157.4552  131.0877  151.0804 LP  0  0  0  0  0  0  0  0  0  0  0  0  # atno 17370 bound_to 10713
  157.1307  130.6101  149.5529 LP  0  0  0  0  0  0  0  0  0  0  0  0  # atno 17371 bound_to 10713
  139.9828  135.0092  156.9790 LP  0  0  0  0  0  0  0  0  0  0  0  0  # atno 17394 bound_to 11000
  140.5082  134.1028  155.7264 LP  0  0  0  0  0  0  0  0  0  0  0  0  # atno 17395 bound_to 11000

$$$$
