AV-unprocessed.smi:155|AV-procd|sdf|1281|dock9
  -GOLD-   2262018553D 1   1.00000     0.00000
 Structure written by MMmdl.
 64 67  0  0  0  0  0  0  0  0  3 V2000
  145.8055  132.3651  149.9708 C   0  0  0  0  0  0  0  0  0  0  0  0
  144.7765  132.8687  150.9105 N   0  3  0  0  0  0  0  0  0  0  0  0
  143.4714  132.2088  150.6810 C   0  0  0  0  0  0  0  0  0  0  0  0
  144.6615  134.3502  150.9200 C   0  0  0  0  0  0  0  0  0  0  0  0
  146.0173  135.0522  151.1544 C   0  0  0  0  0  0  0  0  0  0  0  0
  146.4037  135.1073  152.5909 N   0  3  2  0  0  0  0  0  0  0  0  0
  146.7398  133.7690  153.1494 C   0  0  0  0  0  0  0  0  0  0  0  0
  147.9950  133.8485  154.0363 C   0  0  0  0  0  0  0  0  0  0  0  0
  147.7574  134.5322  155.3934 C   0  0  0  0  0  0  0  0  0  0  0  0
  147.1848  135.8697  155.2579 N   0  0  0  0  0  0  0  0  0  0  0  0
  147.9609  136.9663  154.9979 C   0  0  0  0  0  0  0  0  0  0  0  0
  147.4986  137.8661  154.0872 N   0  0  0  0  0  0  0  0  0  0  0  0
  148.1994  138.9582  153.7744 C   0  0  0  0  0  0  0  0  0  0  0  0
  149.3834  139.3475  154.2428 N   0  0  0  0  0  0  0  0  0  0  0  0
  149.8635  138.4616  155.1593 C   0  0  0  0  0  0  0  0  0  0  0  0
  149.2297  137.2587  155.5938 C   0  0  0  0  0  0  0  0  0  0  0  0
  150.0468  136.6320  156.5310 N   0  0  0  0  0  0  0  0  0  0  0  0
  151.0849  137.4125  156.6468 C   0  0  0  0  0  0  0  0  0  0  0  0
  151.0544  138.5366  155.8579 N   0  0  0  0  0  0  0  0  0  0  0  0
  152.0670  139.5750  155.7830 C   0  0  0  0  0  0  0  0  0  0  0  0
  151.6753  140.8332  156.5862 C   0  0  1  0  0  0  0  0  0  0  0  0
  150.3276  141.1824  156.3377 O   0  0  0  0  0  0  0  0  0  0  0  0
  151.8853  140.7078  158.1093 C   0  0  2  0  0  0  0  0  0  0  0  0
  151.8288  142.0372  158.8623 C   0  0  0  0  0  0  0  0  0  0  0  0
  152.5689  141.6939  160.1349 C   0  0  0  0  0  0  0  0  0  0  0  0
  153.6723  140.7724  159.6214 C   0  0  0  0  0  0  0  0  0  0  0  0
  153.1703  140.1773  158.4269 O   0  0  0  0  0  0  0  0  0  0  0  0
  145.7541  135.9071  154.9407 C   0  0  0  0  0  0  0  0  0  0  0  0
  145.4403  135.8809  153.4269 C   0  0  0  0  0  0  0  0  0  0  0  0
  145.5657  132.6421  148.9433 H   0  0  0  0  0  0  0  0  0  0  0  0
  145.8689  131.2776  150.0200 H   0  0  0  0  0  0  0  0  0  0  0  0
  146.7948  132.7549  150.2067 H   0  0  0  0  0  0  0  0  0  0  0  0
  143.0717  132.4638  149.6984 H   0  0  0  0  0  0  0  0  0  0  0  0
  142.7439  132.5096  151.4359 H   0  0  0  0  0  0  0  0  0  0  0  0
  143.5712  131.1241  150.7378 H   0  0  0  0  0  0  0  0  0  0  0  0
  144.2055  134.6870  149.9873 H   0  0  0  0  0  0  0  0  0  0  0  0
  143.9772  134.6355  151.7194 H   0  0  0  0  0  0  0  0  0  0  0  0
  146.8063  134.5694  150.5758 H   0  0  0  0  0  0  0  0  0  0  0  0
  145.9442  136.0745  150.7854 H   0  0  0  0  0  0  0  0  0  0  0  0
  145.8922  133.3416  153.6875 H   0  0  0  0  0  0  0  0  0  0  0  0
  146.9593  133.0660  152.3453 H   0  0  0  0  0  0  0  0  0  0  0  0
  148.3570  132.8373  154.2256 H   0  0  0  0  0  0  0  0  0  0  0  0
  148.7941  134.3523  153.4919 H   0  0  0  0  0  0  0  0  0  0  0  0
  147.0649  133.9223  155.9743 H   0  0  0  0  0  0  0  0  0  0  0  0
  148.6646  134.5506  155.9942 H   0  0  0  0  0  0  0  0  0  0  0  0
  147.7476  139.6125  153.0433 H   0  0  0  0  0  0  0  0  0  0  0  0
  151.9037  137.1902  157.3162 H   0  0  0  0  0  0  0  0  0  0  0  0
  153.0087  139.1638  156.1487 H   0  0  0  0  0  0  0  0  0  0  0  0
  152.2220  139.8213  154.7325 H   0  0  0  0  0  0  0  0  0  0  0  0
  152.2697  141.6770  156.2331 H   0  0  0  0  0  0  0  0  0  0  0  0
  149.9034  141.3471  157.1658 H   0  0  0  0  0  0  0  0  0  0  0  0
  151.1301  140.0480  158.5406 H   0  0  0  0  0  0  0  0  0  0  0  0
  152.3624  142.8200  158.3226 H   0  0  0  0  0  0  0  0  0  0  0  0
  150.8094  142.3801  159.0412 H   0  0  0  0  0  0  0  0  0  0  0  0
  152.9524  142.5687  160.6605 H   0  0  0  0  0  0  0  0  0  0  0  0
  151.9106  141.1490  160.8130 H   0  0  0  0  0  0  0  0  0  0  0  0
  154.5658  141.3453  159.3718 H   0  0  0  0  0  0  0  0  0  0  0  0
  153.9497  140.0150  160.3547 H   0  0  0  0  0  0  0  0  0  0  0  0
  145.2837  135.0388  155.4036 H   0  0  0  0  0  0  0  0  0  0  0  0
  145.2743  136.7637  155.4157 H   0  0  0  0  0  0  0  0  0  0  0  0
  145.4397  136.9130  153.0794 H   0  0  0  0  0  0  0  0  0  0  0  0
  144.4273  135.5054  153.2753 H   0  0  0  0  0  0  0  0  0  0  0  0
  145.0646  132.5926  151.8387 H   0  0  0  0  0  0  0  0  0  0  0  0
  147.2731  135.6210  152.6164 H   0  0  0  0  0  0  0  0  0  0  0  0
  1  2  1  0  0  0  0
  1 30  1  0  0  0  0
  1 31  1  0  0  0  0
  1 32  1  0  0  0  0
  2  3  1  0  0  0  0
  2  4  1  0  0  0  0
  2 63  1  0  0  0  0
  3 33  1  0  0  0  0
  3 34  1  0  0  0  0
  3 35  1  0  0  0  0
  4  5  1  0  0  0  0
  4 36  1  0  0  0  0
  4 37  1  0  0  0  0
  5  6  1  0  0  0  0
  5 38  1  0  0  0  0
  5 39  1  0  0  0  0
  6 29  1  0  0  0  0
  6  7  1  0  0  0  0
  6 64  1  0  0  0  0
  7  8  1  0  0  0  0
  7 40  1  0  0  0  0
  7 41  1  0  0  0  0
  8  9  1  0  0  0  0
  8 42  1  0  0  0  0
  8 43  1  0  0  0  0
  9 10  1  0  0  0  0
  9 44  1  0  0  0  0
  9 45  1  0  0  0  0
 10 11  1  0  0  0  0
 10 28  1  0  0  0  0
 11 16  1  0  0  0  0
 11 12  2  0  0  0  0
 12 13  1  0  0  0  0
 13 14  2  0  0  0  0
 13 46  1  0  0  0  0
 14 15  1  0  0  0  0
 15 19  1  0  0  0  0
 15 16  2  0  0  0  0
 16 17  1  0  0  0  0
 17 18  2  0  0  0  0
 18 19  1  0  0  0  0
 18 47  1  0  0  0  0
 19 20  1  0  0  0  0
 20 21  1  0  0  0  0
 20 48  1  0  0  0  0
 20 49  1  0  0  0  0
 21 22  1  0  0  0  0
 21 23  1  0  0  0  0
 21 50  1  0  0  0  0
 22 51  1  0  0  0  0
 23 27  1  0  0  0  0
 23 24  1  0  0  0  0
 23 52  1  0  0  0  0
 24 25  1  0  0  0  0
 24 53  1  0  0  0  0
 24 54  1  0  0  0  0
 25 26  1  0  0  0  0
 25 55  1  0  0  0  0
 25 56  1  0  0  0  0
 26 27  1  0  0  0  0
 26 57  1  0  0  0  0
 26 58  1  0  0  0  0
 28 29  1  0  0  0  0
 28 59  1  0  0  0  0
 28 60  1  0  0  0  0
 29 61  1  0  0  0  0
 29 62  1  0  0  0  0
M  CHG  1   2   1
M  CHG  1   6   1
M  END
> <s_m_source_file>
AV-unprocessed.smi

> <i_m_source_file_index>
155

> <i_lp_mmshare_version>
43012

> <i_f3d_flags>
0

> <s_epik_input>
W0NIM11OKFtDSDNdKVtDSDJdW0NIMl1OMVtDSDJdW0NIMl1bQ0gyXU4oW0NIMl1bQ0gyXTEpYyhuW2NIXW4yKWMoYzIzKW5bY0hdbjNbQ0gyXVtDQEhdKFtPSF0pW0NAQEhdNFtDSDJdW0NIMl1bQ0gyXU80

> <s_epik_cmdline>
J2VwaWtfcHl0aG9uJywgJy1waCcsICc3LjAnLCAnLXRuJywgJzgnLCAnLW1hJywgJzIwMCcsICctbWV0YWxfYmluZGluZycsICctaW1hZScsICc8aW5maWxlLm1hZT4nLCAnLW9tYWUnLCAnPG91dGZpbGUubWFlPic=

> <r_lp_tautomer_probability>
1

> <r_epik_Ionization_Penalty>
3.0333

> <r_epik_Ionization_Penalty_Charging>
3.03317

> <r_epik_Ionization_Penalty_Neutral>
0.000131872

> <r_epik_State_Penalty>
1.99939

> <r_epik_Charging_Adjusted_Penalty>
5.03256

> <i_epik_Tot_Q>
2

> <i_epik_Tot_abs_Q>
2

> <r_epik_Metal_State_Penalty>
2.00021

> <b_epik_Metal_Only>
0

> <s_lp_Force_Field>
OPLS_2005

> <r_lp_Energy>
62.4537

> <b_lp_Chiralities_Consistent>
1

> <s_lp_Variant>
AV-unprocessed.smi:155-15

> <Gold.Version>
5.8.1

> <Gold.Id.Protein>
6NUR|6NUR_protein|mol2

> <Gold.PLP.Fitness>
44.7616

> <Gold.PLP.PLP>
-36.8305

> <Gold.PLP.part.hbond>
-2.0000

> <Gold.PLP.part.metal>
0.0000

> <Gold.PLP.part.buried>
-5.2100

> <Gold.PLP.part.nonpolar>
-29.6686

> <Gold.PLP.part.repulsive>
0.5313

> <Gold.PLP.ligand.clash>
0.0000

> <Gold.PLP.ligand.torsion>
1.0901

> <Gold.PLP.Chemscore.Hbond>
2.9600

> <Gold.PLP.Chemscore.CHOScore>
0.2755

> <Gold.PLP.Chemscore.Metal>
0.0000

> <Gold.Chemscore.Hbonds>
donor molecule, donor type, donor heavy atom, donor atom, acceptor molecule, acceptor atom, score
      L1  H     6    64       P1  7948  2.00
      P1  H  7997  8010       L1    27  0.96
      L1  C    13    46       P1  7957  0.35

> <Gold.PLP.Chemscore.Internal.Correction>
0.4047

> <Gold.Rescore>
     Score         DG    S(hbond)    S(metal)    S(lipo)     H(rot)  DE(clash)    DE(int)     intcor
     12.89     -15.41       1.81        0.00      93.41       2.75       0.32       2.21       ----

> <Gold.Chemscore.Fitness>
12.8864

> <Gold.Chemscore.DG>
-15.4135

> <Gold.Chemscore.ZeroCoef>
-5.4800

> <Gold.Chemscore.Hbond>
1.8091

> <Gold.Chemscore.Metal>
0.0000

> <Gold.Chemscore.Lipo>
93.4135

> <Gold.Chemscore.Internal_Hbond>
0.0000

> <Gold.Chemscore.DEClash>
0.3165

> <Gold.Chemscore.DEInternal>
2.2107

> <Gold.Chemscore.Rot>
2.7493

> <Gold.Chemscore.Internal.Correction>
   9.000000E+99

> <Gold.Chemscore.Hbonds>
donor molecule, donor type, donor heavy atom, donor atom, acceptor molecule, acceptor atom, score
      L1  H     6    64       P1  7948  0.96
      P1  H  7997  8010       L1    27  0.62

> <Gold.Chemscore.Hbond.Weighted>
-6.0424

> <Gold.Chemscore.Metal.Weighted>
-0.0000

> <Gold.Chemscore.Lipo.Weighted>
-10.9294

> <Gold.Chemscore.Internal_Hbond.Weighted>
0.0000

> <Gold.Chemscore.DEClash.Weighted>
0.3165

> <Gold.Chemscore.DEInternal.Weighted>
2.2107

> <Gold.Chemscore.Rot.Weighted>
7.0383

> <Gold.Chemscore.Internal.Correction.Weighted>
   9.000000E+99

> <Gold.Protein.RotatedTorsions>
[ 6907 6896 6895 6894 ] final   96.47 input  -60.11 | X-H torsion
[ 7974 7965 7964 7962 ] final  -34.89 input  175.53 | X-H torsion
[ 8008 7997 7996 7995 ] final   29.82 input   59.86 | X-H torsion
[ 10167 10162 10161 10158 ] final  -25.11 input  -65.29 | X-H torsion
[ 10718 10713 10712 10709 ] final  134.74 input   66.30 | X-H torsion
[ 10763 10752 10751 10750 ] final   -8.61 input  -60.55 | X-H torsion
[ 11005 11000 10999 10996 ] final  -93.62 input  -57.11 | X-H torsion

> <Gold.Protein.ActiveResidues>
 VAL166  LYS551  ARG553  GLY616  TRP617  ASP618  TYR619  PRO620  LYS621  CYS622 
 ASP623  PHE694  ASN695  SER759  ASP760  ASP761  ALA762  ILE779  LEU786  VAL792 
 PHE793  MET794  SER795  GLU796  ALA797  LYS798  CYS799  TRP800  GLU811  SER814 

> <Gold.Protein.RotatedAtoms>
  152.5434  134.0882  159.8264 H   0  0  0  0  0  0  0  0  0  0  0  0  # atno 6907 bound_to 6896
  151.0975  133.5261  159.2619 H   0  0  0  0  0  0  0  0  0  0  0  0  # atno 6908 bound_to 6896
  151.2029  135.0459  159.8934 H   0  0  0  0  0  0  0  0  0  0  0  0  # atno 6909 bound_to 6896
  146.0792  140.6093  142.8916 H   0  0  0  0  0  0  0  0  0  0  0  0  # atno 7974 bound_to 7965
  155.0807  140.3210  155.4602 H   0  0  0  0  0  0  0  0  0  0  0  0  # atno 8008 bound_to 7997
  156.2768  140.2095  156.5880 H   0  0  0  0  0  0  0  0  0  0  0  0  # atno 8009 bound_to 7997
  154.6981  140.0510  157.0418 H   0  0  0  0  0  0  0  0  0  0  0  0  # atno 8010 bound_to 7997
  140.7287  143.4293  151.0826 H   0  0  0  0  0  0  0  0  0  0  0  0  # atno 10167 bound_to 10162
  157.4641  131.1075  150.9883 H   0  0  0  0  0  0  0  0  0  0  0  0  # atno 10718 bound_to 10713
  153.4429  135.7014  153.6157 H   0  0  0  0  0  0  0  0  0  0  0  0  # atno 10763 bound_to 10752
  153.4524  135.3755  155.2292 H   0  0  0  0  0  0  0  0  0  0  0  0  # atno 10764 bound_to 10752
  154.8727  135.4000  154.3831 H   0  0  0  0  0  0  0  0  0  0  0  0  # atno 10765 bound_to 10752
  141.1492  133.7900  157.0184 H   0  0  0  0  0  0  0  0  0  0  0  0  # atno 11005 bound_to 11000
  144.7282  140.4590  143.6957 LP  0  0  0  0  0  0  0  0  0  0  0  0  # atno 17320 bound_to 7965
  145.6249  139.1529  143.3001 LP  0  0  0  0  0  0  0  0  0  0  0  0  # atno 17321 bound_to 7965
  139.7948  143.8167  152.3156 LP  0  0  0  0  0  0  0  0  0  0  0  0  # atno 17342 bound_to 10162
  139.8163  144.7315  150.9631 LP  0  0  0  0  0  0  0  0  0  0  0  0  # atno 17343 bound_to 10162
  157.0670  130.5848  149.5396 LP  0  0  0  0  0  0  0  0  0  0  0  0  # atno 17370 bound_to 10713
  156.0042  130.5126  150.7772 LP  0  0  0  0  0  0  0  0  0  0  0  0  # atno 17371 bound_to 10713
  140.0832  134.9636  157.1657 LP  0  0  0  0  0  0  0  0  0  0  0  0  # atno 17394 bound_to 11000
  140.3548  134.2559  155.7194 LP  0  0  0  0  0  0  0  0  0  0  0  0  # atno 17395 bound_to 11000

$$$$
