AV-unprocessed.smi:922|AV-procd|sdf|4173|dock3
  -GOLD-   22720 2 83D 1   1.00000     0.00000
 Structure written by MMmdl.
 32 33  0  0  0  0  0  0  0  0  2 V2000
  153.0379  143.4907  162.9459 C   0  0  0  0  0  0  0  0  0  0  0  0
  152.4113  143.0650  161.6145 C   0  0  2  0  0  0  0  0  0  0  0  0
  153.1086  141.8262  161.0223 C   0  0  0  0  0  0  0  0  0  0  0  0
  152.5665  141.5200  159.7053 N   0  0  0  0  0  0  0  0  0  0  0  0
  152.0734  140.2764  159.3072 C   0  0  0  0  0  0  0  0  0  0  0  0
  150.8454  140.2134  158.4762 C   0  0  0  0  0  0  0  0  0  0  0  0
  150.3384  139.1163  158.0749 N   0  0  0  0  0  0  0  0  0  0  0  0
  150.9486  137.8504  158.4098 N   0  5  0  0  0  0  0  0  0  0  0  0
  152.0766  137.8157  159.1811 C   0  0  0  0  0  0  0  0  0  0  0  0
  152.6175  136.7563  159.4945 O   0  0  0  0  0  0  0  0  0  0  0  0
  152.6503  139.0873  159.6419 C   0  0  0  0  0  0  0  0  0  0  0  0
  154.0458  138.9981  160.6674 Cl  0  0  0  0  0  0  0  0  0  0  0  0
  152.7165  142.6555  158.8031 C   0  0  0  0  0  0  0  0  0  0  0  0
  152.0322  143.9164  159.3787 C   0  0  0  0  0  0  0  0  0  0  0  0
  152.4418  145.1482  158.5569 C   0  0  0  0  0  0  0  0  0  0  0  0
  150.4932  143.7922  159.3759 C   0  0  0  0  0  0  0  0  0  0  0  0
  152.5286  144.1570  160.7012 O   0  0  0  0  0  0  0  0  0  0  0  0
  152.9599  142.6952  163.6873 H   0  0  0  0  0  0  0  0  0  0  0  0
  152.5355  144.3707  163.3485 H   0  0  0  0  0  0  0  0  0  0  0  0
  154.0936  143.7352  162.8256 H   0  0  0  0  0  0  0  0  0  0  0  0
  151.3582  142.8530  161.7944 H   0  0  0  0  0  0  0  0  0  0  0  0
  154.1783  142.0135  160.9205 H   0  0  0  0  0  0  0  0  0  0  0  0
  153.0116  140.9700  161.6897 H   0  0  0  0  0  0  0  0  0  0  0  0
  150.3940  141.1752  158.2195 H   0  0  0  0  0  0  0  0  0  0  0  0
  153.7817  142.8359  158.6531 H   0  0  0  0  0  0  0  0  0  0  0  0
  152.2968  142.4266  157.8228 H   0  0  0  0  0  0  0  0  0  0  0  0
  152.1232  145.0555  157.5180 H   0  0  0  0  0  0  0  0  0  0  0  0
  153.5239  145.2830  158.5604 H   0  0  0  0  0  0  0  0  0  0  0  0
  151.9971  146.0582  158.9607 H   0  0  0  0  0  0  0  0  0  0  0  0
  150.1107  143.7202  158.3574 H   0  0  0  0  0  0  0  0  0  0  0  0
  150.0281  144.6609  159.8423 H   0  0  0  0  0  0  0  0  0  0  0  0
  150.1444  142.9066  159.9059 H   0  0  0  0  0  0  0  0  0  0  0  0
  1  2  1  0  0  0  0
  1 18  1  0  0  0  0
  1 19  1  0  0  0  0
  1 20  1  0  0  0  0
  2 17  1  0  0  0  0
  2  3  1  0  0  0  0
  2 21  1  0  0  0  0
  3  4  1  0  0  0  0
  3 22  1  0  0  0  0
  3 23  1  0  0  0  0
  4  5  1  0  0  0  0
  4 13  1  0  0  0  0
  5 11  2  0  0  0  0
  5  6  1  0  0  0  0
  6  7  2  0  0  0  0
  6 24  1  0  0  0  0
  7  8  1  0  0  0  0
  8  9  1  0  0  0  0
  9 10  2  0  0  0  0
  9 11  1  0  0  0  0
 11 12  1  0  0  0  0
 13 14  1  0  0  0  0
 13 25  1  0  0  0  0
 13 26  1  0  0  0  0
 14 15  1  0  0  0  0
 14 16  1  0  0  0  0
 14 17  1  0  0  0  0
 15 27  1  0  0  0  0
 15 28  1  0  0  0  0
 15 29  1  0  0  0  0
 16 30  1  0  0  0  0
 16 31  1  0  0  0  0
 16 32  1  0  0  0  0
M  CHG  1   8  -1
M  END
> <s_m_source_file>
AV-unprocessed.smi

> <i_m_source_file_index>
922

> <i_lp_mmshare_version>
43012

> <i_f3d_flags>
0

> <s_epik_input>
W0NIM11bQ0BASF0oTzEpW0NIMl1OKFtDSDJdQzEoW0NIM10pW0NIM10pYzJbY0hdbltuSF1jKD1PKWMyQ2w=

> <s_epik_cmdline>
J2VwaWtfcHl0aG9uJywgJy1waCcsICc3LjAnLCAnLXRuJywgJzgnLCAnLW1hJywgJzIwMCcsICctbWV0YWxfYmluZGluZycsICctaW1hZScsICc8aW5maWxlLm1hZT4nLCAnLW9tYWUnLCAnPG91dGZpbGUubWFlPic=

> <r_lp_tautomer_probability>
1

> <r_epik_Ionization_Penalty>
2.48086

> <r_epik_Ionization_Penalty_Charging>
0.00187014

> <r_epik_Ionization_Penalty_Neutral>
2.47899

> <r_epik_State_Penalty>
0.0455822

> <r_epik_Charging_Adjusted_Penalty>
0.0474524

> <i_epik_Tot_Q>
-1

> <i_epik_Tot_abs_Q>
1

> <r_epik_Metal_State_Penalty>
0.000768086

> <b_epik_Metal_Only>
0

> <s_lp_Force_Field>
OPLS_2005

> <r_lp_Energy>
41.3096

> <b_lp_Chiralities_Consistent>
1

> <s_lp_Variant>
AV-unprocessed.smi:922-1

> <Gold.Version>
5.8.1

> <Gold.Id.Protein>
6NUR|6NUR_protein|mol2

> <Gold.PLP.Fitness>
38.8881

> <Gold.PLP.PLP>
-36.3487

> <Gold.PLP.part.hbond>
-1.0000

> <Gold.PLP.part.metal>
0.0000

> <Gold.PLP.part.buried>
-3.8912

> <Gold.PLP.part.nonpolar>
-31.1698

> <Gold.PLP.part.repulsive>
0.0811

> <Gold.PLP.ligand.clash>
0.0000

> <Gold.PLP.ligand.torsion>
0.7082

> <Gold.PLP.Chemscore.Hbond>
1.0000

> <Gold.PLP.Chemscore.CHOScore>
0.0000

> <Gold.PLP.Chemscore.Metal>
0.0000

> <Gold.Chemscore.Hbonds>
donor molecule, donor type, donor heavy atom, donor atom, acceptor molecule, acceptor atom, score
      P1  H  6896  6908       L1    10  1.00

> <Gold.PLP.Chemscore.Internal.Correction>
0.9558

> <Gold.Rescore>
     Score         DG    S(hbond)    S(metal)    S(lipo)     H(rot)  DE(clash)    DE(int)     intcor
     19.25     -21.02       0.99        0.00     104.58       0.00       0.07       1.70       ----

> <Gold.Chemscore.Fitness>
19.2511

> <Gold.Chemscore.DG>
-21.0221

> <Gold.Chemscore.ZeroCoef>
-5.4800

> <Gold.Chemscore.Hbond>
0.9898

> <Gold.Chemscore.Metal>
0.0000

> <Gold.Chemscore.Lipo>
104.5836

> <Gold.Chemscore.Internal_Hbond>
0.0000

> <Gold.Chemscore.DEClash>
0.0736

> <Gold.Chemscore.DEInternal>
1.6974

> <Gold.Chemscore.Rot>
0.0000

> <Gold.Chemscore.Internal.Correction>
   9.000000E+99

> <Gold.Chemscore.Hbonds>
donor molecule, donor type, donor heavy atom, donor atom, acceptor molecule, acceptor atom, score
      P1  H  6896  6908       L1    10  0.98

> <Gold.Chemscore.Hbond.Weighted>
-3.3058

> <Gold.Chemscore.Metal.Weighted>
-0.0000

> <Gold.Chemscore.Lipo.Weighted>
-12.2363

> <Gold.Chemscore.Internal_Hbond.Weighted>
0.0000

> <Gold.Chemscore.DEClash.Weighted>
0.0736

> <Gold.Chemscore.DEInternal.Weighted>
1.6974

> <Gold.Chemscore.Rot.Weighted>
0.0000

> <Gold.Chemscore.Internal.Correction.Weighted>
   9.000000E+99

> <Gold.Protein.RotatedTorsions>
[ 6907 6896 6895 6894 ] final  -91.96 input  -60.11 | X-H torsion
[ 7974 7965 7964 7962 ] final  -48.88 input  175.53 | X-H torsion
[ 8008 7997 7996 7995 ] final  150.92 input   59.86 | X-H torsion
[ 10167 10162 10161 10158 ] final  -83.73 input  -65.29 | X-H torsion
[ 10718 10713 10712 10709 ] final   20.17 input   66.30 | X-H torsion
[ 10763 10752 10751 10750 ] final  167.61 input  -60.55 | X-H torsion
[ 11005 11000 10999 10996 ] final -130.30 input  -57.11 | X-H torsion

> <Gold.Protein.ActiveResidues>
 VAL166  LYS551  ARG553  GLY616  TRP617  ASP618  TYR619  PRO620  LYS621  CYS622 
 ASP623  PHE694  ASN695  SER759  ASP760  ASP761  ALA762  ILE779  LEU786  VAL792 
 PHE793  MET794  SER795  GLU796  ALA797  LYS798  CYS799  TRP800  GLU811  SER814 

> <Gold.Protein.RotatedAtoms>
  150.6899  134.2196  159.4391 H   0  0  0  0  0  0  0  0  0  0  0  0  # atno 6907 bound_to 6896
  152.0153  134.9851  160.0578 H   0  0  0  0  0  0  0  0  0  0  0  0  # atno 6908 bound_to 6896
  152.1449  133.4451  159.4822 H   0  0  0  0  0  0  0  0  0  0  0  0  # atno 6909 bound_to 6896
  145.9465  140.7613  142.9526 H   0  0  0  0  0  0  0  0  0  0  0  0  # atno 7974 bound_to 7965
  156.2696  140.2062  156.6093 H   0  0  0  0  0  0  0  0  0  0  0  0  # atno 8008 bound_to 7997
  154.6844  140.0536  157.0323 H   0  0  0  0  0  0  0  0  0  0  0  0  # atno 8009 bound_to 7997
  155.0954  140.3200  155.4564 H   0  0  0  0  0  0  0  0  0  0  0  0  # atno 8010 bound_to 7997
  140.4199  143.2589  151.8904 H   0  0  0  0  0  0  0  0  0  0  0  0  # atno 10167 bound_to 10162
  157.1208  130.6549  149.5923 H   0  0  0  0  0  0  0  0  0  0  0  0  # atno 10718 bound_to 10713
  154.3564  135.2753  155.2344 H   0  0  0  0  0  0  0  0  0  0  0  0  # atno 10763 bound_to 10752
  154.4551  135.5921  153.6221 H   0  0  0  0  0  0  0  0  0  0  0  0  # atno 10764 bound_to 10752
  152.9846  135.6051  154.3780 H   0  0  0  0  0  0  0  0  0  0  0  0  # atno 10765 bound_to 10752
  140.9357  134.1259  157.4195 H   0  0  0  0  0  0  0  0  0  0  0  0  # atno 11005 bound_to 11000
  144.6788  140.2365  143.7349 LP  0  0  0  0  0  0  0  0  0  0  0  0  # atno 17320 bound_to 7965
  145.8229  139.2051  143.1927 LP  0  0  0  0  0  0  0  0  0  0  0  0  # atno 17321 bound_to 7965
  139.4782  144.5448  151.8474 LP  0  0  0  0  0  0  0  0  0  0  0  0  # atno 17342 bound_to 10162
  140.4545  144.1808  150.5900 LP  0  0  0  0  0  0  0  0  0  0  0  0  # atno 17343 bound_to 10162
  155.9829  130.4845  150.6905 LP  0  0  0  0  0  0  0  0  0  0  0  0  # atno 17370 bound_to 10713
  157.4478  131.0869  151.0877 LP  0  0  0  0  0  0  0  0  0  0  0  0  # atno 17371 bound_to 10713
  139.8807  135.0020  156.6101 LP  0  0  0  0  0  0  0  0  0  0  0  0  # atno 17394 bound_to 11000
  140.7802  133.8666  155.8561 LP  0  0  0  0  0  0  0  0  0  0  0  0  # atno 17395 bound_to 11000

$$$$
