AV-unprocessed.smi:3021|AV-procd|sdf|11499|dock3
  -GOLD-   2272016433D 1   1.00000     0.00000
 Structure written by MMmdl.
 35 37  0  0  0  0  0  0  0  0  1 V2000
  150.1746  140.0560  153.8923 O   0  0  0  0  0  0  0  0  0  0  0  0
  149.3972  140.7061  154.8787 C   0  0  1  0  0  0  0  0  0  0  0  0
  148.8703  139.6452  155.8569 C   0  0  0  0  0  0  0  0  0  0  0  0
  148.2187  138.6246  155.1198 O   0  0  0  0  0  0  0  0  0  0  0  0
  146.8111  138.7971  155.0678 C   0  0  0  0  0  0  0  0  0  0  0  0
  146.2750  137.9084  153.9901 C   0  0  0  0  0  0  0  0  0  0  0  0
  145.8752  136.6003  153.9794 C   0  0  0  0  0  0  0  0  0  0  0  0
  145.4532  136.3170  152.6509 C   0  0  0  0  0  0  0  0  0  0  0  0
  145.6260  137.4741  151.9465 C   0  0  0  0  0  0  0  0  0  0  0  0
  146.1241  138.4546  152.7478 O   0  0  0  0  0  0  0  0  0  0  0  0
  150.2648  141.7638  155.5885 C   0  0  0  0  0  0  0  0  0  0  0  0
  151.1719  141.1779  156.5602 N   0  0  0  0  0  0  0  0  0  0  0  0
  151.6991  139.9416  156.3316 N   0  0  0  0  0  0  0  0  0  0  0  0
  152.4739  139.6291  157.3272 N   0  0  0  0  0  0  0  0  0  0  0  0
  152.4573  140.6796  158.2293 C   0  0  0  0  0  0  0  0  0  0  0  0
  153.1107  140.8695  159.4675 C   0  0  0  0  0  0  0  0  0  0  0  0
  152.9168  142.0599  160.2021 C   0  0  0  0  0  0  0  0  0  0  0  0
  153.7338  142.2554  161.7121 Cl  0  0  0  0  0  0  0  0  0  0  0  0
  152.0647  143.0757  159.7050 C   0  0  0  0  0  0  0  0  0  0  0  0
  151.8167  144.5383  160.5904 Cl  0  0  0  0  0  0  0  0  0  0  0  0
  151.4061  142.8995  158.4718 C   0  0  0  0  0  0  0  0  0  0  0  0
  151.6133  141.7078  157.7568 C   0  0  0  0  0  0  0  0  0  0  0  0
  149.6777  140.0334  153.0885 H   0  0  0  0  0  0  0  0  0  0  0  0
  148.5562  141.2044  154.3946 H   0  0  0  0  0  0  0  0  0  0  0  0
  149.6752  139.2419  156.4742 H   0  0  0  0  0  0  0  0  0  0  0  0
  148.1409  140.0969  156.5313 H   0  0  0  0  0  0  0  0  0  0  0  0
  146.3603  138.5360  156.0262 H   0  0  0  0  0  0  0  0  0  0  0  0
  146.5614  139.8368  154.8516 H   0  0  0  0  0  0  0  0  0  0  0  0
  145.8852  135.9290  154.8254 H   0  0  0  0  0  0  0  0  0  0  0  0
  145.0718  135.3852  152.2605 H   0  0  0  0  0  0  0  0  0  0  0  0
  145.4535  137.7607  150.9197 H   0  0  0  0  0  0  0  0  0  0  0  0
  150.8654  142.3069  154.8580 H   0  0  0  0  0  0  0  0  0  0  0  0
  149.6355  142.5047  156.0850 H   0  0  0  0  0  0  0  0  0  0  0  0
  153.7623  140.0986  159.8521 H   0  0  0  0  0  0  0  0  0  0  0  0
  150.7542  143.6665  158.0804 H   0  0  0  0  0  0  0  0  0  0  0  0
  1  2  1  0  0  0  0
  1 23  1  0  0  0  0
  2  3  1  0  0  0  0
  2 11  1  0  0  0  0
  2 24  1  0  0  0  0
  3  4  1  0  0  0  0
  3 25  1  0  0  0  0
  3 26  1  0  0  0  0
  4  5  1  0  0  0  0
  5  6  1  0  0  0  0
  5 27  1  0  0  0  0
  5 28  1  0  0  0  0
  6 10  1  0  0  0  0
  6  7  2  0  0  0  0
  7  8  1  0  0  0  0
  7 29  1  0  0  0  0
  8  9  2  0  0  0  0
  8 30  1  0  0  0  0
  9 10  1  0  0  0  0
  9 31  1  0  0  0  0
 11 12  1  0  0  0  0
 11 32  1  0  0  0  0
 11 33  1  0  0  0  0
 12 22  1  0  0  0  0
 12 13  1  0  0  0  0
 13 14  2  0  0  0  0
 14 15  1  0  0  0  0
 15 22  2  0  0  0  0
 15 16  1  0  0  0  0
 16 17  2  0  0  0  0
 16 34  1  0  0  0  0
 17 18  1  0  0  0  0
 17 19  1  0  0  0  0
 19 20  1  0  0  0  0
 19 21  2  0  0  0  0
 21 22  1  0  0  0  0
 21 35  1  0  0  0  0
M  END
> <s_m_source_file>
AV-unprocessed.smi

> <i_m_source_file_index>
3021

> <i_lp_mmshare_version>
43012

> <i_f3d_flags>
0

> <s_epik_input>
W2NIXTFjKENsKWMoQ2wpW2NIXWMoYzEyKW4obm4yKVtDSDJdW0NASF0oW09IXSlbQ0gyXU9bQ0gyXWMzW2NIXVtjSF1bY0hdbzM=

> <s_epik_cmdline>
J2VwaWtfcHl0aG9uJywgJy1waCcsICc3LjAnLCAnLXRuJywgJzgnLCAnLW1hJywgJzIwMCcsICctbWV0YWxfYmluZGluZycsICctaW1hZScsICc8aW5maWxlLm1hZT4nLCAnLW9tYWUnLCAnPG91dGZpbGUubWFlPic=

> <r_lp_tautomer_probability>
1

> <r_epik_Ionization_Penalty>
6.1367e-06

> <r_epik_Ionization_Penalty_Charging>
0

> <r_epik_Ionization_Penalty_Neutral>
6.1367e-06

> <r_epik_State_Penalty>
-0

> <r_epik_Charging_Adjusted_Penalty>
0

> <i_epik_Tot_Q>
0

> <i_epik_Tot_abs_Q>
0

> <r_epik_Metal_State_Penalty>
-0

> <b_epik_Metal_Only>
0

> <s_lp_Force_Field>
OPLS_2005

> <r_lp_Energy>
8.01921

> <b_lp_Chiralities_Consistent>
1

> <s_lp_Variant>
AV-unprocessed.smi:3021-2

> <Gold.Version>
5.8.1

> <Gold.Id.Protein>
6NUR|6NUR_protein|mol2

> <Gold.PLP.Fitness>
46.7384

> <Gold.PLP.PLP>
-37.1310

> <Gold.PLP.part.hbond>
-2.9978

> <Gold.PLP.part.metal>
0.0000

> <Gold.PLP.part.buried>
-3.5099

> <Gold.PLP.part.nonpolar>
-30.2193

> <Gold.PLP.part.repulsive>
0.3643

> <Gold.PLP.ligand.clash>
0.0000

> <Gold.PLP.ligand.torsion>
1.2133

> <Gold.PLP.Chemscore.Hbond>
2.9440

> <Gold.PLP.Chemscore.CHOScore>
1.0000

> <Gold.PLP.Chemscore.Metal>
0.0000

> <Gold.Chemscore.Hbonds>
donor molecule, donor type, donor heavy atom, donor atom, acceptor molecule, acceptor atom, score
      L1  H     1    23       P1  7957  0.99
      P1  H  7989  7998       L1     1  0.90
      P1  H  7997  8009       L1    14  0.63
      L1  C     9    31       P1 10171  1.00

> <Gold.PLP.Chemscore.Internal.Correction>
0.2021

> <Gold.Rescore>
     Score         DG    S(hbond)    S(metal)    S(lipo)     H(rot)  DE(clash)    DE(int)     intcor
     14.03     -18.11       1.74        0.00     112.14       2.46       0.36       3.72       ----

> <Gold.Chemscore.Fitness>
14.0323

> <Gold.Chemscore.DG>
-18.1145

> <Gold.Chemscore.ZeroCoef>
-5.4800

> <Gold.Chemscore.Hbond>
1.7435

> <Gold.Chemscore.Metal>
0.0000

> <Gold.Chemscore.Lipo>
112.1435

> <Gold.Chemscore.Internal_Hbond>
0.0000

> <Gold.Chemscore.DEClash>
0.3605

> <Gold.Chemscore.DEInternal>
3.7218

> <Gold.Chemscore.Rot>
2.4647

> <Gold.Chemscore.Internal.Correction>
   9.000000E+99

> <Gold.Chemscore.Hbonds>
donor molecule, donor type, donor heavy atom, donor atom, acceptor molecule, acceptor atom, score
      L1  H     1    23       P1  7957  0.94
      P1  H  7989  7998       L1     1  0.36
      P1  H  7997  8009       L1    14  0.02

> <Gold.Chemscore.Hbond.Weighted>
-5.8234

> <Gold.Chemscore.Metal.Weighted>
-0.0000

> <Gold.Chemscore.Lipo.Weighted>
-13.1208

> <Gold.Chemscore.Internal_Hbond.Weighted>
0.0000

> <Gold.Chemscore.DEClash.Weighted>
0.3605

> <Gold.Chemscore.DEInternal.Weighted>
3.7218

> <Gold.Chemscore.Rot.Weighted>
6.3097

> <Gold.Chemscore.Internal.Correction.Weighted>
   9.000000E+99

> <Gold.Protein.RotatedTorsions>
[ 6907 6896 6895 6894 ] final -154.91 input  -60.11 | X-H torsion
[ 7974 7965 7964 7962 ] final   41.06 input  175.53 | X-H torsion
[ 8008 7997 7996 7995 ] final -172.45 input   59.86 | X-H torsion
[ 10167 10162 10161 10158 ] final   31.82 input  -65.29 | X-H torsion
[ 10718 10713 10712 10709 ] final -133.18 input   66.30 | X-H torsion
[ 10763 10752 10751 10750 ] final  -23.67 input  -60.55 | X-H torsion
[ 11005 11000 10999 10996 ] final  132.45 input  -57.11 | X-H torsion

> <Gold.Protein.ActiveResidues>
 VAL166  LYS551  ARG553  GLY616  TRP617  ASP618  TYR619  PRO620  LYS621  CYS622 
 ASP623  PHE694  ASN695  SER759  ASP760  ASP761  ALA762  ILE779  LEU786  VAL792 
 PHE793  MET794  SER795  GLU796  ALA797  LYS798  CYS799  TRP800  GLU811  SER814 

> <Gold.Protein.RotatedAtoms>
  151.2646  133.4285  159.2617 H   0  0  0  0  0  0  0  0  0  0  0  0  # atno 6907 bound_to 6896
  151.0500  134.9666  159.8216 H   0  0  0  0  0  0  0  0  0  0  0  0  # atno 6908 bound_to 6896
  152.5381  134.2601  159.8984 H   0  0  0  0  0  0  0  0  0  0  0  0  # atno 6909 bound_to 6896
  146.0855  139.5460  142.9510 H   0  0  0  0  0  0  0  0  0  0  0  0  # atno 7974 bound_to 7965
  155.9448  140.1115  157.1026 H   0  0  0  0  0  0  0  0  0  0  0  0  # atno 8008 bound_to 7997
  154.4097  140.1212  156.5040 H   0  0  0  0  0  0  0  0  0  0  0  0  # atno 8009 bound_to 7997
  155.6917  140.3472  155.4898 H   0  0  0  0  0  0  0  0  0  0  0  0  # atno 8010 bound_to 7997
  140.4554  144.0985  150.6201 H   0  0  0  0  0  0  0  0  0  0  0  0  # atno 10167 bound_to 10162
  156.2422  130.7103  151.0968 H   0  0  0  0  0  0  0  0  0  0  0  0  # atno 10718 bound_to 10713
  153.6716  135.6971  153.5145 H   0  0  0  0  0  0  0  0  0  0  0  0  # atno 10763 bound_to 10752
  153.2554  135.4262  155.0839 H   0  0  0  0  0  0  0  0  0  0  0  0  # atno 10764 bound_to 10752
  154.8425  135.3541  154.6260 H   0  0  0  0  0  0  0  0  0  0  0  0  # atno 10765 bound_to 10752
  139.9791  134.9554  156.9584 H   0  0  0  0  0  0  0  0  0  0  0  0  # atno 11005 bound_to 11000
  145.6139  141.0335  143.1952 LP  0  0  0  0  0  0  0  0  0  0  0  0  # atno 17320 bound_to 7965
  144.7322  139.7690  143.7343 LP  0  0  0  0  0  0  0  0  0  0  0  0  # atno 17321 bound_to 7965
  140.4157  143.2635  151.9778 LP  0  0  0  0  0  0  0  0  0  0  0  0  # atno 17342 bound_to 10162
  139.4800  144.5876  151.7827 LP  0  0  0  0  0  0  0  0  0  0  0  0  # atno 17343 bound_to 10162
  157.7180  131.0698  150.6250 LP  0  0  0  0  0  0  0  0  0  0  0  0  # atno 17370 bound_to 10713
  156.6325  130.4436  149.5781 LP  0  0  0  0  0  0  0  0  0  0  0  0  # atno 17371 bound_to 10713
  140.5133  134.0980  155.7275 LP  0  0  0  0  0  0  0  0  0  0  0  0  # atno 17394 bound_to 11000
  141.1465  133.9046  157.2203 LP  0  0  0  0  0  0  0  0  0  0  0  0  # atno 17395 bound_to 11000

$$$$
