AV-unprocessed.smi:2264|AV-procd|sdf|9141|dock5
  -GOLD-   2272012343D 1   1.00000     0.00000
 Structure written by MMmdl.
 44 45  0  0  0  0  0  0  0  0  1 V2000
  151.9973  145.1479  159.5484 C   0  0  0  0  0  0  0  0  0  0  0  0
  151.7716  143.6657  159.3311 C   0  0  0  0  0  0  0  0  0  0  0  0
  150.6394  143.2117  158.6279 C   0  0  0  0  0  0  0  0  0  0  0  0
  150.4322  141.8330  158.4329 C   0  0  0  0  0  0  0  0  0  0  0  0
  151.3564  140.8856  158.9418 C   0  0  0  0  0  0  0  0  0  0  0  0
  151.2165  139.5216  158.7924 O   0  0  0  0  0  0  0  0  0  0  0  0
  150.0246  139.0196  158.2010 C   0  0  0  0  0  0  0  0  0  0  0  0
  150.0177  137.4828  158.2642 C   0  0  2  0  0  0  0  0  0  0  0  0
  150.9319  137.0071  157.2966 O   0  0  0  0  0  0  0  0  0  0  0  0
  148.6168  136.8740  158.0284 C   0  0  0  0  0  0  0  0  0  0  0  0
  148.4066  135.6428  158.8074 N   0  0  0  0  0  0  0  0  0  0  0  0
  148.5736  134.4321  158.1155 C   0  0  0  0  0  0  0  0  0  0  0  0
  148.4191  133.2892  158.7000 N   0  0  0  0  0  0  0  0  0  0  0  0
  148.0776  133.2392  160.0546 C   0  0  0  0  0  0  0  0  0  0  0  0
  147.9199  131.8473  160.6409 C   0  0  0  0  0  0  0  0  0  0  0  0
  147.9043  134.3762  160.7824 C   0  0  0  0  0  0  0  0  0  0  0  0
  147.5334  134.3841  162.2600 C   0  0  0  0  0  0  0  0  0  0  0  0
  148.0802  135.6845  160.1316 C   0  0  0  0  0  0  0  0  0  0  0  0
  147.9493  136.7530  160.7320 O   0  0  0  0  0  0  0  0  0  0  0  0
  152.4912  141.3494  159.6466 C   0  0  0  0  0  0  0  0  0  0  0  0
  153.4966  140.3584  160.2025 C   0  0  0  0  0  0  0  0  0  0  0  0
  152.6952  142.7319  159.8384 C   0  0  0  0  0  0  0  0  0  0  0  0
  151.3166  145.7461  158.9418 H   0  0  0  0  0  0  0  0  0  0  0  0
  153.0183  145.4212  159.2809 H   0  0  0  0  0  0  0  0  0  0  0  0
  151.8357  145.4029  160.5959 H   0  0  0  0  0  0  0  0  0  0  0  0
  149.9231  143.9185  158.2349 H   0  0  0  0  0  0  0  0  0  0  0  0
  149.5513  141.5281  157.8890 H   0  0  0  0  0  0  0  0  0  0  0  0
  149.1378  139.4253  158.6915 H   0  0  0  0  0  0  0  0  0  0  0  0
  149.9938  139.3257  157.1540 H   0  0  0  0  0  0  0  0  0  0  0  0
  150.3998  137.1900  159.2427 H   0  0  0  0  0  0  0  0  0  0  0  0
  150.4494  136.7561  156.5239 H   0  0  0  0  0  0  0  0  0  0  0  0
  147.8553  137.5993  158.3219 H   0  0  0  0  0  0  0  0  0  0  0  0
  148.4415  136.7214  156.9611 H   0  0  0  0  0  0  0  0  0  0  0  0
  148.8442  134.5258  157.0624 H   0  0  0  0  0  0  0  0  0  0  0  0
  146.9072  131.7044  161.0183 H   0  0  0  0  0  0  0  0  0  0  0  0
  148.6226  131.6962  161.4607 H   0  0  0  0  0  0  0  0  0  0  0  0
  148.1094  131.0767  159.8924 H   0  0  0  0  0  0  0  0  0  0  0  0
  148.3045  134.8941  162.8387 H   0  0  0  0  0  0  0  0  0  0  0  0
  147.4147  133.3862  162.6789 H   0  0  0  0  0  0  0  0  0  0  0  0
  146.5930  134.9158  162.4079 H   0  0  0  0  0  0  0  0  0  0  0  0
  154.3235  140.8645  160.7019 H   0  0  0  0  0  0  0  0  0  0  0  0
  153.9092  139.7462  159.4002 H   0  0  0  0  0  0  0  0  0  0  0  0
  153.0161  139.6989  160.9255 H   0  0  0  0  0  0  0  0  0  0  0  0
  153.5632  143.0802  160.3792 H   0  0  0  0  0  0  0  0  0  0  0  0
  1  2  1  0  0  0  0
  1 23  1  0  0  0  0
  1 24  1  0  0  0  0
  1 25  1  0  0  0  0
  2 22  1  0  0  0  0
  2  3  2  0  0  0  0
  3  4  1  0  0  0  0
  3 26  1  0  0  0  0
  4  5  2  0  0  0  0
  4 27  1  0  0  0  0
  5  6  1  0  0  0  0
  5 20  1  0  0  0  0
  6  7  1  0  0  0  0
  7  8  1  0  0  0  0
  7 28  1  0  0  0  0
  7 29  1  0  0  0  0
  8  9  1  0  0  0  0
  8 10  1  0  0  0  0
  8 30  1  0  0  0  0
  9 31  1  0  0  0  0
 10 11  1  0  0  0  0
 10 32  1  0  0  0  0
 10 33  1  0  0  0  0
 11 18  1  0  0  0  0
 11 12  1  0  0  0  0
 12 13  2  0  0  0  0
 12 34  1  0  0  0  0
 13 14  1  0  0  0  0
 14 15  1  0  0  0  0
 14 16  2  0  0  0  0
 15 35  1  0  0  0  0
 15 36  1  0  0  0  0
 15 37  1  0  0  0  0
 16 17  1  0  0  0  0
 16 18  1  0  0  0  0
 17 38  1  0  0  0  0
 17 39  1  0  0  0  0
 17 40  1  0  0  0  0
 18 19  2  0  0  0  0
 20 21  1  0  0  0  0
 20 22  2  0  0  0  0
 21 41  1  0  0  0  0
 21 42  1  0  0  0  0
 21 43  1  0  0  0  0
 22 44  1  0  0  0  0
M  END
> <s_m_source_file>
AV-unprocessed.smi

> <i_m_source_file_index>
2264

> <i_lp_mmshare_version>
43012

> <i_f3d_flags>
0

> <s_epik_input>
W0NIM11jMVtjSF1bY0hdYyhjKFtDSDNdKVtjSF0xKU9bQ0gyXVtDQEhdKFtPSF0pW0NIMl1uMltjSF1uYyhbQ0gzXSljKFtDSDNdKWMyPU8=

> <s_epik_cmdline>
J2VwaWtfcHl0aG9uJywgJy1waCcsICc3LjAnLCAnLXRuJywgJzgnLCAnLW1hJywgJzIwMCcsICctbWV0YWxfYmluZGluZycsICctaW1hZScsICc8aW5maWxlLm1hZT4nLCAnLW9tYWUnLCAnPG91dGZpbGUubWFlPic=

> <r_lp_tautomer_probability>
1

> <r_epik_Ionization_Penalty>
3.7476e-05

> <r_epik_Ionization_Penalty_Charging>
8.44705e-08

> <r_epik_Ionization_Penalty_Neutral>
3.73915e-05

> <r_epik_State_Penalty>
-0

> <r_epik_Charging_Adjusted_Penalty>
8.44705e-08

> <i_epik_Tot_Q>
0

> <i_epik_Tot_abs_Q>
0

> <r_epik_Metal_State_Penalty>
-0

> <b_epik_Metal_Only>
0

> <s_lp_Force_Field>
OPLS_2005

> <r_lp_Energy>
23.9382

> <b_lp_Chiralities_Consistent>
1

> <s_lp_Variant>
AV-unprocessed.smi:2264-1

> <Gold.Version>
5.8.1

> <Gold.Id.Protein>
6NUR|6NUR_protein|mol2

> <Gold.PLP.Fitness>
49.0135

> <Gold.PLP.PLP>
-45.3086

> <Gold.PLP.part.hbond>
-2.0000

> <Gold.PLP.part.metal>
0.0000

> <Gold.PLP.part.buried>
-5.9199

> <Gold.PLP.part.nonpolar>
-37.4312

> <Gold.PLP.part.repulsive>
0.0000

> <Gold.PLP.ligand.clash>
0.0000

> <Gold.PLP.ligand.torsion>
0.8743

> <Gold.PLP.Chemscore.Hbond>
1.7920

> <Gold.PLP.Chemscore.CHOScore>
0.0000

> <Gold.PLP.Chemscore.Metal>
0.0000

> <Gold.Chemscore.Hbonds>
donor molecule, donor type, donor heavy atom, donor atom, acceptor molecule, acceptor atom, score
      P1  H  6931  6943       L1    19  0.60
      P1  H  6934  6947       L1    19  0.07

> <Gold.PLP.Chemscore.Internal.Correction>
0.0776

> <Gold.Rescore>
     Score         DG    S(hbond)    S(metal)    S(lipo)     H(rot)  DE(clash)    DE(int)     intcor
     18.01     -18.83       1.70        0.00     116.35       2.32       0.03       0.79       ----

> <Gold.Chemscore.Fitness>
18.0102

> <Gold.Chemscore.DG>
-18.8335

> <Gold.Chemscore.ZeroCoef>
-5.4800

> <Gold.Chemscore.Hbond>
1.7033

> <Gold.Chemscore.Metal>
0.0000

> <Gold.Chemscore.Lipo>
116.3497

> <Gold.Chemscore.Internal_Hbond>
0.0000

> <Gold.Chemscore.DEClash>
0.0310

> <Gold.Chemscore.DEInternal>
0.7924

> <Gold.Chemscore.Rot>
2.3236

> <Gold.Chemscore.Internal.Correction>
   9.000000E+99

> <Gold.Chemscore.Hbonds>
donor molecule, donor type, donor heavy atom, donor atom, acceptor molecule, acceptor atom, score
      P1  H  6931  6943       L1    19  0.57
      P1  H  6934  6947       L1    19  0.10

> <Gold.Chemscore.Hbond.Weighted>
-5.6890

> <Gold.Chemscore.Metal.Weighted>
-0.0000

> <Gold.Chemscore.Lipo.Weighted>
-13.6129

> <Gold.Chemscore.Internal_Hbond.Weighted>
0.0000

> <Gold.Chemscore.DEClash.Weighted>
0.0310

> <Gold.Chemscore.DEInternal.Weighted>
0.7924

> <Gold.Chemscore.Rot.Weighted>
5.9484

> <Gold.Chemscore.Internal.Correction.Weighted>
   9.000000E+99

> <Gold.Protein.RotatedTorsions>
[ 6907 6896 6895 6894 ] final  -59.23 input  -60.11 | X-H torsion
[ 7974 7965 7964 7962 ] final   98.92 input  175.53 | X-H torsion
[ 8008 7997 7996 7995 ] final  -32.92 input   59.86 | X-H torsion
[ 10167 10162 10161 10158 ] final  -16.88 input  -65.29 | X-H torsion
[ 10718 10713 10712 10709 ] final  -64.85 input   66.30 | X-H torsion
[ 10763 10752 10751 10750 ] final -150.08 input  -60.55 | X-H torsion
[ 11005 11000 10999 10996 ] final -169.31 input  -57.11 | X-H torsion

> <Gold.Protein.ActiveResidues>
 VAL166  LYS551  ARG553  GLY616  TRP617  ASP618  TYR619  PRO620  LYS621  CYS622 
 ASP623  PHE694  ASN695  SER759  ASP760  ASP761  ALA762  ILE779  LEU786  VAL792 
 PHE793  MET794  SER795  GLU796  ALA797  LYS798  CYS799  TRP800  GLU811  SER814 

> <Gold.Protein.RotatedAtoms>
  150.7946  134.6996  159.6541 H   0  0  0  0  0  0  0  0  0  0  0  0  # atno 6907 bound_to 6896
  152.4056  134.6209  160.0060 H   0  0  0  0  0  0  0  0  0  0  0  0  # atno 6908 bound_to 6896
  151.6467  133.3286  159.3178 H   0  0  0  0  0  0  0  0  0  0  0  0  # atno 6909 bound_to 6896
  145.4058  139.2341  143.3275 H   0  0  0  0  0  0  0  0  0  0  0  0  # atno 7974 bound_to 7965
  154.4164  140.1724  156.1805 H   0  0  0  0  0  0  0  0  0  0  0  0  # atno 8008 bound_to 7997
  155.9686  140.3387  155.6531 H   0  0  0  0  0  0  0  0  0  0  0  0  # atno 8009 bound_to 7997
  155.6655  140.0706  157.2529 H   0  0  0  0  0  0  0  0  0  0  0  0  # atno 8010 bound_to 7997
  140.7240  143.5071  150.9796 H   0  0  0  0  0  0  0  0  0  0  0  0  # atno 10167 bound_to 10162
  156.0704  130.4239  150.1479 H   0  0  0  0  0  0  0  0  0  0  0  0  # atno 10718 bound_to 10713
  154.8140  135.3293  154.7228 H   0  0  0  0  0  0  0  0  0  0  0  0  # atno 10763 bound_to 10752
  153.7872  135.6914  153.4882 H   0  0  0  0  0  0  0  0  0  0  0  0  # atno 10764 bound_to 10752
  153.1940  135.4540  155.0132 H   0  0  0  0  0  0  0  0  0  0  0  0  # atno 10765 bound_to 10752
  140.5321  134.5606  157.5077 H   0  0  0  0  0  0  0  0  0  0  0  0  # atno 11005 bound_to 11000
  146.2729  140.4762  142.8807 LP  0  0  0  0  0  0  0  0  0  0  0  0  # atno 17320 bound_to 7965
  144.8343  140.6756  143.6271 LP  0  0  0  0  0  0  0  0  0  0  0  0  # atno 17321 bound_to 7965
  139.8783  143.7104  152.3159 LP  0  0  0  0  0  0  0  0  0  0  0  0  # atno 17342 bound_to 10162
  139.7377  144.7567  151.0701 LP  0  0  0  0  0  0  0  0  0  0  0  0  # atno 17343 bound_to 10162
  156.9531  130.9781  151.3494 LP  0  0  0  0  0  0  0  0  0  0  0  0  # atno 17370 bound_to 10713
  157.5772  130.8351  149.8472 LP  0  0  0  0  0  0  0  0  0  0  0  0  # atno 17371 bound_to 10713
  139.9548  134.7553  156.0365 LP  0  0  0  0  0  0  0  0  0  0  0  0  # atno 17394 bound_to 11000
  141.1275  133.6595  156.3376 LP  0  0  0  0  0  0  0  0  0  0  0  0  # atno 17395 bound_to 11000

$$$$
