AV-unprocessed.smi:1093|AV-procd|sdf|4745|dock8
  -GOLD-   22720 3283D 1   1.00000     0.00000
 Structure written by MMmdl.
 47 48  0  0  0  0  0  0  0  0  2 V2000
  143.2470  139.1831  155.7891 C   0  0  0  0  0  0  0  0  0  0  0  0
  144.1426  138.2539  154.9569 C   0  0  0  0  0  0  0  0  0  0  0  0
  145.1171  138.9986  154.1198 N   0  3  2  0  0  0  0  0  0  0  0  0
  145.8827  138.0978  153.2190 C   0  0  0  0  0  0  0  0  0  0  0  0
  146.7863  138.8981  152.2663 C   0  0  0  0  0  0  0  0  0  0  0  0
  147.7326  139.8184  153.0476 C   0  0  0  0  0  0  0  0  0  0  0  0
  146.9234  140.7236  153.9887 C   0  0  2  0  0  0  0  0  0  0  0  0
  147.8273  141.5618  154.7709 N   0  0  0  0  0  0  0  0  0  0  0  0
  148.6533  141.1176  155.7290 C   0  0  0  0  0  0  0  0  0  0  0  0
  148.7548  139.9305  156.0380 O   0  0  0  0  0  0  0  0  0  0  0  0
  149.3570  142.1249  156.2725 N   0  0  0  0  0  0  0  0  0  0  0  0
  150.2839  142.0691  157.3477 C   0  0  0  0  0  0  0  0  0  0  0  0
  150.9812  140.9020  157.7345 C   0  0  0  0  0  0  0  0  0  0  0  0
  151.8554  140.9619  158.8368 C   0  0  0  0  0  0  0  0  0  0  0  0
  152.0119  142.1856  159.5347 C   0  0  0  0  0  0  0  0  0  0  0  0
  152.8772  142.2955  160.6473 N   0  0  0  0  0  0  0  0  0  0  0  0
  154.0742  141.4680  160.7301 C   0  0  0  0  0  0  0  0  0  0  0  0
  152.6058  143.2871  161.6829 C   0  0  0  0  0  0  0  0  0  0  0  0
  151.3314  143.2978  159.1638 N   0  0  0  0  0  0  0  0  0  0  0  0
  150.4920  143.2352  158.1095 C   0  0  0  0  0  0  0  0  0  0  0  0
  146.0213  139.8761  154.9107 C   0  0  0  0  0  0  0  0  0  0  0  0
  142.4811  138.6084  156.3105 H   0  0  0  0  0  0  0  0  0  0  0  0
  142.7386  139.9111  155.1565 H   0  0  0  0  0  0  0  0  0  0  0  0
  143.8097  139.7282  156.5463 H   0  0  0  0  0  0  0  0  0  0  0  0
  144.6651  137.5440  155.5997 H   0  0  0  0  0  0  0  0  0  0  0  0
  143.4931  137.6634  154.3093 H   0  0  0  0  0  0  0  0  0  0  0  0
  146.4819  137.4081  153.8159 H   0  0  0  0  0  0  0  0  0  0  0  0
  145.1940  137.4911  152.6301 H   0  0  0  0  0  0  0  0  0  0  0  0
  147.3627  138.2171  151.6393 H   0  0  0  0  0  0  0  0  0  0  0  0
  146.1706  139.4936  151.5907 H   0  0  0  0  0  0  0  0  0  0  0  0
  148.4388  139.2159  153.6211 H   0  0  0  0  0  0  0  0  0  0  0  0
  148.3233  140.4203  152.3557 H   0  0  0  0  0  0  0  0  0  0  0  0
  146.2919  141.3693  153.3750 H   0  0  0  0  0  0  0  0  0  0  0  0
  147.8127  142.5529  154.5786 H   0  0  0  0  0  0  0  0  0  0  0  0
  149.2455  143.0323  155.8440 H   0  0  0  0  0  0  0  0  0  0  0  0
  150.8515  139.9620  157.2209 H   0  0  0  0  0  0  0  0  0  0  0  0
  152.3834  140.0662  159.1264 H   0  0  0  0  0  0  0  0  0  0  0  0
  154.7384  141.6691  159.8891 H   0  0  0  0  0  0  0  0  0  0  0  0
  153.8096  140.4102  160.7226 H   0  0  0  0  0  0  0  0  0  0  0  0
  154.6301  141.6636  161.6472 H   0  0  0  0  0  0  0  0  0  0  0  0
  152.6066  144.2916  161.2584 H   0  0  0  0  0  0  0  0  0  0  0  0
  153.3593  143.2572  162.4699 H   0  0  0  0  0  0  0  0  0  0  0  0
  151.6345  143.1061  162.1446 H   0  0  0  0  0  0  0  0  0  0  0  0
  149.9731  144.1507  157.8651 H   0  0  0  0  0  0  0  0  0  0  0  0
  145.4328  140.5400  155.5430 H   0  0  0  0  0  0  0  0  0  0  0  0
  146.6297  139.2633  155.5784 H   0  0  0  0  0  0  0  0  0  0  0  0
  144.5741  139.6022  153.5186 H   0  0  0  0  0  0  0  0  0  0  0  0
  1  2  1  0  0  0  0
  1 22  1  0  0  0  0
  1 23  1  0  0  0  0
  1 24  1  0  0  0  0
  2  3  1  0  0  0  0
  2 25  1  0  0  0  0
  2 26  1  0  0  0  0
  3 21  1  0  0  0  0
  3  4  1  0  0  0  0
  3 47  1  0  0  0  0
  4  5  1  0  0  0  0
  4 27  1  0  0  0  0
  4 28  1  0  0  0  0
  5  6  1  0  0  0  0
  5 29  1  0  0  0  0
  5 30  1  0  0  0  0
  6  7  1  0  0  0  0
  6 31  1  0  0  0  0
  6 32  1  0  0  0  0
  7  8  1  0  0  0  0
  7 21  1  0  0  0  0
  7 33  1  0  0  0  0
  8  9  1  0  0  0  0
  8 34  1  0  0  0  0
  9 10  2  0  0  0  0
  9 11  1  0  0  0  0
 11 12  1  0  0  0  0
 11 35  1  0  0  0  0
 12 20  1  0  0  0  0
 12 13  2  0  0  0  0
 13 14  1  0  0  0  0
 13 36  1  0  0  0  0
 14 15  2  0  0  0  0
 14 37  1  0  0  0  0
 15 16  1  0  0  0  0
 15 19  1  0  0  0  0
 16 17  1  0  0  0  0
 16 18  1  0  0  0  0
 17 38  1  0  0  0  0
 17 39  1  0  0  0  0
 17 40  1  0  0  0  0
 18 41  1  0  0  0  0
 18 42  1  0  0  0  0
 18 43  1  0  0  0  0
 19 20  2  0  0  0  0
 20 44  1  0  0  0  0
 21 45  1  0  0  0  0
 21 46  1  0  0  0  0
M  CHG  1   3   1
M  END
> <s_m_source_file>
AV-unprocessed.smi

> <i_m_source_file_index>
1093

> <i_lp_mmshare_version>
43012

> <i_f3d_flags>
0

> <s_epik_input>
W0NIM11bQ0gyXU4xW0NIMl1bQ0gyXVtDSDJdW0NASF0oW0NIMl0xKVtOSF1DKD1PKVtOSF1jMltjSF1bY0hdYyhOKFtDSDNdKVtDSDNdKW5bY0hdMg==

> <s_epik_cmdline>
J2VwaWtfcHl0aG9uJywgJy1waCcsICc3LjAnLCAnLXRuJywgJzgnLCAnLW1hJywgJzIwMCcsICctbWV0YWxfYmluZGluZycsICctaW1hZScsICc8aW5maWxlLm1hZT4nLCAnLW9tYWUnLCAnPG91dGZpbGUubWFlPic=

> <r_lp_tautomer_probability>
1

> <r_epik_Ionization_Penalty>
0.489418

> <r_epik_Ionization_Penalty_Charging>
0.00268196

> <r_epik_Ionization_Penalty_Neutral>
0.486736

> <r_epik_State_Penalty>
0.491157

> <r_epik_Charging_Adjusted_Penalty>
0.493839

> <i_epik_Tot_Q>
1

> <i_epik_Tot_abs_Q>
1

> <r_epik_Metal_State_Penalty>
0.266953

> <b_epik_Metal_Only>
0

> <s_lp_Force_Field>
OPLS_2005

> <r_lp_Energy>
20.183

> <b_lp_Chiralities_Consistent>
1

> <s_lp_Variant>
AV-unprocessed.smi:1093-8

> <Gold.Version>
5.8.1

> <Gold.Id.Protein>
6NUR|6NUR_protein|mol2

> <Gold.PLP.Fitness>
45.1378

> <Gold.PLP.PLP>
-33.9731

> <Gold.PLP.part.hbond>
-2.0000

> <Gold.PLP.part.metal>
0.0000

> <Gold.PLP.part.buried>
-1.6032

> <Gold.PLP.part.nonpolar>
-31.4442

> <Gold.PLP.part.repulsive>
0.2106

> <Gold.PLP.ligand.clash>
0.0000

> <Gold.PLP.ligand.torsion>
0.5459

> <Gold.PLP.Chemscore.Hbond>
3.0000

> <Gold.PLP.Chemscore.CHOScore>
1.0776

> <Gold.PLP.Chemscore.Metal>
0.0000

> <Gold.Chemscore.Hbonds>
donor molecule, donor type, donor heavy atom, donor atom, acceptor molecule, acceptor atom, score
      L1  H     3    47       P1 10175  2.00
      L1  H    11    35       P1  8028  1.00
      L1  C    20    44       P1  8028  0.96
      L1  C    20    44       P1  8029  0.11

> <Gold.PLP.Chemscore.Internal.Correction>
0.0237

> <Gold.Rescore>
     Score         DG    S(hbond)    S(metal)    S(lipo)     H(rot)  DE(clash)    DE(int)     intcor
     14.23     -18.89       2.00        0.00      83.59       1.18       1.67       2.99       ----

> <Gold.Chemscore.Fitness>
14.2291

> <Gold.Chemscore.DG>
-18.8923

> <Gold.Chemscore.ZeroCoef>
-5.4800

> <Gold.Chemscore.Hbond>
1.9952

> <Gold.Chemscore.Metal>
0.0000

> <Gold.Chemscore.Lipo>
83.5891

> <Gold.Chemscore.Internal_Hbond>
0.0000

> <Gold.Chemscore.DEClash>
1.6728

> <Gold.Chemscore.DEInternal>
2.9904

> <Gold.Chemscore.Rot>
1.1842

> <Gold.Chemscore.Internal.Correction>
   9.000000E+99

> <Gold.Chemscore.Hbonds>
donor molecule, donor type, donor heavy atom, donor atom, acceptor molecule, acceptor atom, score
      L1  H     3    47       P1 10175  0.99
      L1  H    11    35       P1  8028  1.00

> <Gold.Chemscore.Hbond.Weighted>
-6.6641

> <Gold.Chemscore.Metal.Weighted>
-0.0000

> <Gold.Chemscore.Lipo.Weighted>
-9.7799

> <Gold.Chemscore.Internal_Hbond.Weighted>
0.0000

> <Gold.Chemscore.DEClash.Weighted>
1.6728

> <Gold.Chemscore.DEInternal.Weighted>
2.9904

> <Gold.Chemscore.Rot.Weighted>
3.0317

> <Gold.Chemscore.Internal.Correction.Weighted>
   9.000000E+99

> <Gold.Protein.RotatedTorsions>
[ 6907 6896 6895 6894 ] final  -50.36 input  -60.11 | X-H torsion
[ 7974 7965 7964 7962 ] final  -74.85 input  175.53 | X-H torsion
[ 8008 7997 7996 7995 ] final   30.53 input   59.86 | X-H torsion
[ 10167 10162 10161 10158 ] final   94.27 input  -65.29 | X-H torsion
[ 10718 10713 10712 10709 ] final  -65.64 input   66.30 | X-H torsion
[ 10763 10752 10751 10750 ] final  -34.05 input  -60.55 | X-H torsion
[ 11005 11000 10999 10996 ] final   82.76 input  -57.11 | X-H torsion

> <Gold.Protein.ActiveResidues>
 VAL166  LYS551  ARG553  GLY616  TRP617  ASP618  TYR619  PRO620  LYS621  CYS622 
 ASP623  PHE694  ASN695  SER759  ASP760  ASP761  ALA762  ILE779  LEU786  VAL792 
 PHE793  MET794  SER795  GLU796  ALA797  LYS798  CYS799  TRP800  GLU811  SER814 

> <Gold.Protein.RotatedAtoms>
  150.8715  134.8090  159.7157 H   0  0  0  0  0  0  0  0  0  0  0  0  # atno 6907 bound_to 6896
  152.4718  134.4939  159.9714 H   0  0  0  0  0  0  0  0  0  0  0  0  # atno 6908 bound_to 6896
  151.5027  133.3462  159.2907 H   0  0  0  0  0  0  0  0  0  0  0  0  # atno 6909 bound_to 6896
  145.6337  140.9330  143.1073 H   0  0  0  0  0  0  0  0  0  0  0  0  # atno 7974 bound_to 7965
  155.0920  140.3221  155.4571 H   0  0  0  0  0  0  0  0  0  0  0  0  # atno 8008 bound_to 7997
  156.2740  140.2076  156.5993 H   0  0  0  0  0  0  0  0  0  0  0  0  # atno 8009 bound_to 7997
  154.6896  140.0518  157.0337 H   0  0  0  0  0  0  0  0  0  0  0  0  # atno 8010 bound_to 7997
  139.8100  144.6778  150.9653 H   0  0  0  0  0  0  0  0  0  0  0  0  # atno 10167 bound_to 10162
  156.0658  130.4250  150.1593 H   0  0  0  0  0  0  0  0  0  0  0  0  # atno 10718 bound_to 10713
  153.8404  135.6858  153.4803 H   0  0  0  0  0  0  0  0  0  0  0  0  # atno 10763 bound_to 10752
  153.1457  135.4639  154.9560 H   0  0  0  0  0  0  0  0  0  0  0  0  # atno 10764 bound_to 10752
  154.7847  135.3281  154.7858 H   0  0  0  0  0  0  0  0  0  0  0  0  # atno 10765 bound_to 10752
  139.9053  134.8095  156.2217 H   0  0  0  0  0  0  0  0  0  0  0  0  # atno 11005 bound_to 11000
  144.7184  139.8116  143.7391 LP  0  0  0  0  0  0  0  0  0  0  0  0  # atno 17320 bound_to 7965
  146.1336  139.4377  143.0153 LP  0  0  0  0  0  0  0  0  0  0  0  0  # atno 17321 bound_to 7965
  140.7818  143.4195  151.0864 LP  0  0  0  0  0  0  0  0  0  0  0  0  # atno 17342 bound_to 10162
  139.7862  143.8284  152.3145 LP  0  0  0  0  0  0  0  0  0  0  0  0  # atno 17343 bound_to 10162
  156.9653  130.9817  151.3470 LP  0  0  0  0  0  0  0  0  0  0  0  0  # atno 17370 bound_to 10713
  157.5698  130.8303  149.8377 LP  0  0  0  0  0  0  0  0  0  0  0  0  # atno 17371 bound_to 10713
  141.0401  133.6942  156.1583 LP  0  0  0  0  0  0  0  0  0  0  0  0  # atno 17394 bound_to 11000
  140.6968  134.4607  157.5587 LP  0  0  0  0  0  0  0  0  0  0  0  0  # atno 17395 bound_to 11000

$$$$
