AV-unprocessed.smi:1791|AV-procd|sdf|7218|dock6
  -GOLD-   22720 8463D 1   1.00000     0.00000
 Structure written by MMmdl.
 38 39  0  0  0  0  0  0  0  0  1 V2000
  151.8260  139.4241  155.4494 C   0  0  0  0  0  0  0  0  0  0  0  0
  150.9597  140.4801  155.0478 O   0  0  0  0  0  0  0  0  0  0  0  0
  149.6868  140.1572  154.6238 C   0  0  0  0  0  0  0  0  0  0  0  0
  148.8588  141.1849  154.1301 C   0  0  0  0  0  0  0  0  0  0  0  0
  147.5553  140.8652  153.7032 C   0  0  0  0  0  0  0  0  0  0  0  0
  147.1173  139.5218  153.7910 C   0  0  0  0  0  0  0  0  0  0  0  0
  145.8329  139.0617  153.3918 N   0  0  0  0  0  0  0  0  0  0  0  0
  145.3286  137.8166  153.4359 C   0  0  0  0  0  0  0  0  0  0  0  0
  145.9056  136.8275  153.8860 O   0  0  0  0  0  0  0  0  0  0  0  0
  144.0955  137.7827  152.9102 N   0  0  0  0  0  0  0  0  0  0  0  0
  143.2478  136.5988  152.7780 C   0  0  2  0  0  0  0  0  0  0  0  0
  142.5217  136.3580  154.1095 C   0  0  0  0  0  0  0  0  0  0  0  0
  144.0963  135.3821  152.3590 C   0  0  2  0  0  0  0  0  0  0  0  0
  144.8584  135.5481  151.0424 C   0  0  0  0  0  0  0  0  0  0  0  0
  145.0366  134.1213  150.5462 C   0  0  0  0  0  0  0  0  0  0  0  0
  144.0736  133.3013  151.4090 C   0  0  0  0  0  0  0  0  0  0  0  0
  143.2715  134.2614  152.0811 O   0  0  0  0  0  0  0  0  0  0  0  0
  148.0294  138.5665  154.2845 C   0  0  0  0  0  0  0  0  0  0  0  0
  149.2795  138.8662  154.6953 N   0  0  0  0  0  0  0  0  0  0  0  0
  152.7816  139.8413  155.7662 H   0  0  0  0  0  0  0  0  0  0  0  0
  152.0222  138.7350  154.6267 H   0  0  0  0  0  0  0  0  0  0  0  0
  151.4131  138.8675  156.2919 H   0  0  0  0  0  0  0  0  0  0  0  0
  149.2177  142.2023  154.0786 H   0  0  0  0  0  0  0  0  0  0  0  0
  146.9307  141.6525  153.3124 H   0  0  0  0  0  0  0  0  0  0  0  0
  145.2480  139.7555  152.9493 H   0  0  0  0  0  0  0  0  0  0  0  0
  143.7089  138.6493  152.5662 H   0  0  0  0  0  0  0  0  0  0  0  0
  142.4862  136.7665  152.0146 H   0  0  0  0  0  0  0  0  0  0  0  0
  141.8595  135.4940  154.0469 H   0  0  0  0  0  0  0  0  0  0  0  0
  141.9106  137.2185  154.3838 H   0  0  0  0  0  0  0  0  0  0  0  0
  143.2271  136.1772  154.9212 H   0  0  0  0  0  0  0  0  0  0  0  0
  144.7938  135.1144  153.1556 H   0  0  0  0  0  0  0  0  0  0  0  0
  144.2559  136.1091  150.3265 H   0  0  0  0  0  0  0  0  0  0  0  0
  145.8050  136.0744  151.1683 H   0  0  0  0  0  0  0  0  0  0  0  0
  144.7905  134.0468  149.4865 H   0  0  0  0  0  0  0  0  0  0  0  0
  146.0620  133.7746  150.6780 H   0  0  0  0  0  0  0  0  0  0  0  0
  143.4606  132.6182  150.8209 H   0  0  0  0  0  0  0  0  0  0  0  0
  144.6240  132.7157  152.1468 H   0  0  0  0  0  0  0  0  0  0  0  0
  147.7467  137.5266  154.3593 H   0  0  0  0  0  0  0  0  0  0  0  0
  1  2  1  0  0  0  0
  1 20  1  0  0  0  0
  1 21  1  0  0  0  0
  1 22  1  0  0  0  0
  2  3  1  0  0  0  0
  3 19  1  0  0  0  0
  3  4  2  0  0  0  0
  4  5  1  0  0  0  0
  4 23  1  0  0  0  0
  5  6  2  0  0  0  0
  5 24  1  0  0  0  0
  6  7  1  0  0  0  0
  6 18  1  0  0  0  0
  7  8  1  0  0  0  0
  7 25  1  0  0  0  0
  8  9  2  0  0  0  0
  8 10  1  0  0  0  0
 10 11  1  0  0  0  0
 10 26  1  0  0  0  0
 11 12  1  0  0  0  0
 11 13  1  0  0  0  0
 11 27  1  0  0  0  0
 12 28  1  0  0  0  0
 12 29  1  0  0  0  0
 12 30  1  0  0  0  0
 13 17  1  0  0  0  0
 13 14  1  0  0  0  0
 13 31  1  0  0  0  0
 14 15  1  0  0  0  0
 14 32  1  0  0  0  0
 14 33  1  0  0  0  0
 15 16  1  0  0  0  0
 15 34  1  0  0  0  0
 15 35  1  0  0  0  0
 16 17  1  0  0  0  0
 16 36  1  0  0  0  0
 16 37  1  0  0  0  0
 18 19  2  0  0  0  0
 18 38  1  0  0  0  0
M  END
> <s_m_source_file>
AV-unprocessed.smi

> <i_m_source_file_index>
1791

> <i_lp_mmshare_version>
43012

> <i_f3d_flags>
0

> <s_epik_input>
W0NIM11PYzFbY0hdW2NIXWMoW2NIXW4xKVtOSF1DKD1PKVtOSF1bQ0BIXShbQ0gzXSlbQ0BASF0yW0NIMl1bQ0gyXVtDSDJdTzI=

> <s_epik_cmdline>
J2VwaWtfcHl0aG9uJywgJy1waCcsICc3LjAnLCAnLXRuJywgJzgnLCAnLW1hJywgJzIwMCcsICctbWV0YWxfYmluZGluZycsICctaW1hZScsICc8aW5maWxlLm1hZT4nLCAnLW9tYWUnLCAnPG91dGZpbGUubWFlPic=

> <r_lp_tautomer_probability>
1

> <r_epik_Ionization_Penalty>
9.18737e-05

> <r_epik_Ionization_Penalty_Charging>
0

> <r_epik_Ionization_Penalty_Neutral>
9.18737e-05

> <r_epik_State_Penalty>
-0

> <r_epik_Charging_Adjusted_Penalty>
0

> <i_epik_Tot_Q>
0

> <i_epik_Tot_abs_Q>
0

> <r_epik_Metal_State_Penalty>
-0

> <b_epik_Metal_Only>
0

> <s_lp_Force_Field>
OPLS_2005

> <r_lp_Energy>
20.7661

> <b_lp_Chiralities_Consistent>
1

> <s_lp_Variant>
AV-unprocessed.smi:1791-1

> <Gold.Version>
5.8.1

> <Gold.Id.Protein>
6NUR|6NUR_protein|mol2

> <Gold.PLP.Fitness>
40.2357

> <Gold.PLP.PLP>
-31.9079

> <Gold.PLP.part.hbond>
-3.4957

> <Gold.PLP.part.metal>
0.0000

> <Gold.PLP.part.buried>
-3.9488

> <Gold.PLP.part.nonpolar>
-25.0191

> <Gold.PLP.part.repulsive>
0.5101

> <Gold.PLP.ligand.clash>
0.0000

> <Gold.PLP.ligand.torsion>
0.3464

> <Gold.PLP.Chemscore.Hbond>
3.0000

> <Gold.PLP.Chemscore.CHOScore>
0.0000

> <Gold.PLP.Chemscore.Metal>
0.0000

> <Gold.Chemscore.Hbonds>
donor molecule, donor type, donor heavy atom, donor atom, acceptor molecule, acceptor atom, score
      L1  H     7    25       P1 10175  1.00
      L1  H    10    26       P1 10175  1.00
      P1  H  7989  7998       L1     2  0.90

> <Gold.PLP.Chemscore.Internal.Correction>
0.0205

> <Gold.Rescore>
     Score         DG    S(hbond)    S(metal)    S(lipo)     H(rot)  DE(clash)    DE(int)     intcor
     12.61     -15.90       2.12        0.00      60.83       1.47       0.03       3.27       ----

> <Gold.Chemscore.Fitness>
12.6085

> <Gold.Chemscore.DG>
-15.9012

> <Gold.Chemscore.ZeroCoef>
-5.4800

> <Gold.Chemscore.Hbond>
2.1153

> <Gold.Chemscore.Metal>
0.0000

> <Gold.Chemscore.Lipo>
60.8311

> <Gold.Chemscore.Internal_Hbond>
0.0000

> <Gold.Chemscore.DEClash>
0.0253

> <Gold.Chemscore.DEInternal>
3.2674

> <Gold.Chemscore.Rot>
1.4693

> <Gold.Chemscore.Internal.Correction>
   9.000000E+99

> <Gold.Chemscore.Hbonds>
donor molecule, donor type, donor heavy atom, donor atom, acceptor molecule, acceptor atom, score
      L1  H     7    25       P1 10175  0.98
      L1  H    10    26       P1 10175  0.98
      P1  H  7989  7998       L1     2  0.05

> <Gold.Chemscore.Hbond.Weighted>
-7.0652

> <Gold.Chemscore.Metal.Weighted>
-0.0000

> <Gold.Chemscore.Lipo.Weighted>
-7.1172

> <Gold.Chemscore.Internal_Hbond.Weighted>
0.0000

> <Gold.Chemscore.DEClash.Weighted>
0.0253

> <Gold.Chemscore.DEInternal.Weighted>
3.2674

> <Gold.Chemscore.Rot.Weighted>
3.7613

> <Gold.Chemscore.Internal.Correction.Weighted>
   9.000000E+99

> <Gold.Protein.RotatedTorsions>
[ 6907 6896 6895 6894 ] final   29.39 input  -60.11 | X-H torsion
[ 7974 7965 7964 7962 ] final  -52.14 input  175.53 | X-H torsion
[ 8008 7997 7996 7995 ] final  137.75 input   59.86 | X-H torsion
[ 10167 10162 10161 10158 ] final -107.98 input  -65.29 | X-H torsion
[ 10718 10713 10712 10709 ] final  -12.55 input   66.30 | X-H torsion
[ 10763 10752 10751 10750 ] final    8.58 input  -60.55 | X-H torsion
[ 11005 11000 10999 10996 ] final  -86.51 input  -57.11 | X-H torsion

> <Gold.Protein.ActiveResidues>
 VAL166  LYS551  ARG553  GLY616  TRP617  ASP618  TYR619  PRO620  LYS621  CYS622 
 ASP623  PHE694  ASN695  SER759  ASP760  ASP761  ALA762  ILE779  LEU786  VAL792 
 PHE793  MET794  SER795  GLU796  ALA797  LYS798  CYS799  TRP800  GLU811  SER814 

> <Gold.Protein.RotatedAtoms>
  152.0309  134.9768  160.0572 H   0  0  0  0  0  0  0  0  0  0  0  0  # atno 6907 bound_to 6896
  152.1245  133.4367  159.4699 H   0  0  0  0  0  0  0  0  0  0  0  0  # atno 6908 bound_to 6896
  150.6851  134.2413  159.4517 H   0  0  0  0  0  0  0  0  0  0  0  0  # atno 6909 bound_to 6896
  145.9112  140.7913  142.9694 H   0  0  0  0  0  0  0  0  0  0  0  0  # atno 7974 bound_to 7965
  156.3001  140.2411  156.3961 H   0  0  0  0  0  0  0  0  0  0  0  0  # atno 8008 bound_to 7997
  154.8570  140.0421  157.1660 H   0  0  0  0  0  0  0  0  0  0  0  0  # atno 8009 bound_to 7997
  154.8937  140.2967  155.5360 H   0  0  0  0  0  0  0  0  0  0  0  0  # atno 8010 bound_to 7997
  140.1711  143.4042  152.1354 H   0  0  0  0  0  0  0  0  0  0  0  0  # atno 10167 bound_to 10162
  156.6430  130.4933  149.6088 H   0  0  0  0  0  0  0  0  0  0  0  0  # atno 10718 bound_to 10713
  153.2235  135.6884  153.7973 H   0  0  0  0  0  0  0  0  0  0  0  0  # atno 10763 bound_to 10752
  153.7163  135.3274  155.3258 H   0  0  0  0  0  0  0  0  0  0  0  0  # atno 10764 bound_to 10752
  154.8280  135.4602  154.1091 H   0  0  0  0  0  0  0  0  0  0  0  0  # atno 10765 bound_to 10752
  141.1629  133.7458  156.9172 H   0  0  0  0  0  0  0  0  0  0  0  0  # atno 11005 bound_to 11000
  144.6743  140.1829  143.7404 LP  0  0  0  0  0  0  0  0  0  0  0  0  # atno 17320 bound_to 7965
  145.8669  139.2251  143.1684 LP  0  0  0  0  0  0  0  0  0  0  0  0  # atno 17321 bound_to 7965
  139.5337  144.7187  151.4965 LP  0  0  0  0  0  0  0  0  0  0  0  0  # atno 17342 bound_to 10162
  140.6581  143.8556  150.6858 LP  0  0  0  0  0  0  0  0  0  0  0  0  # atno 17343 bound_to 10162
  156.2144  130.6699  151.1303 LP  0  0  0  0  0  0  0  0  0  0  0  0  # atno 17370 bound_to 10713
  157.7165  131.0707  150.6306 LP  0  0  0  0  0  0  0  0  0  0  0  0  # atno 17371 bound_to 10713
  140.1476  134.9251  157.2550 LP  0  0  0  0  0  0  0  0  0  0  0  0  # atno 17394 bound_to 11000
  140.2761  134.3404  155.7358 LP  0  0  0  0  0  0  0  0  0  0  0  0  # atno 17395 bound_to 11000

$$$$
