AV-unprocessed.smi:30|AV-procd|sdf|193|dock6
  -GOLD-   2262015463D 1   1.00000     0.00000
 Structure written by MMmdl.
 54 57  0  0  0  0  0  0  0  0  1 V2000
  150.8943  135.6586  154.6140 O   0  0  0  0  0  0  0  0  0  0  0  0
  150.3846  135.1123  155.5934 C   0  0  0  0  0  0  0  0  0  0  0  0
  149.6095  133.7943  155.4360 C   0  0  0  0  0  0  0  0  0  0  0  0
  148.3018  133.9526  154.7617 N   0  0  0  0  0  0  0  0  0  0  0  0
  147.3545  134.8410  155.3275 C   0  0  0  0  0  0  0  0  0  0  0  0
  147.6160  135.4950  156.3384 O   0  0  0  0  0  0  0  0  0  0  0  0
  146.0675  134.9034  154.6464 C   0  0  0  0  0  0  0  0  0  0  0  0
  145.0898  135.6813  155.1414 F   0  0  0  0  0  0  0  0  0  0  0  0
  145.8341  134.1765  153.5346 C   0  0  0  0  0  0  0  0  0  0  0  0
  146.7860  133.3541  152.9572 N   0  0  0  0  0  0  0  0  0  0  0  0
  146.4610  132.4736  151.7676 C   0  0  2  0  0  0  0  0  0  0  0  0
  146.2723  133.2416  150.4475 C   0  0  0  0  0  0  0  0  0  0  0  0
  144.7675  133.2080  150.2654 C   0  0  0  0  0  0  0  0  0  0  0  0
  144.4091  131.8804  150.9215 C   0  0  0  0  0  0  0  0  0  0  0  0
  145.2672  131.8077  152.0525 O   0  0  0  0  0  0  0  0  0  0  0  0
  148.0304  133.1816  153.6058 C   0  0  0  0  0  0  0  0  0  0  0  0
  148.8609  132.3775  153.1765 O   0  0  0  0  0  0  0  0  0  0  0  0
  150.4212  135.6063  156.8444 N   0  0  0  0  0  0  0  0  0  0  0  0
  151.0754  136.7761  157.3164 C   0  0  0  0  0  0  0  0  0  0  0  0
  151.9732  137.4157  156.4390 C   0  0  0  0  0  0  0  0  0  0  0  0
  152.6388  138.5922  156.8317 C   0  0  0  0  0  0  0  0  0  0  0  0
  152.4128  139.1609  158.1010 C   0  0  0  0  0  0  0  0  0  0  0  0
  153.1038  140.3151  158.4024 O   0  0  0  0  0  0  0  0  0  0  0  0
  153.2648  140.6664  159.7701 C   0  0  0  0  0  0  0  0  0  0  0  0
  152.8355  142.0975  160.0242 C   0  0  0  0  0  0  0  0  0  0  0  0
  152.6224  142.9700  158.9366 C   0  0  0  0  0  0  0  0  0  0  0  0
  152.2289  144.3032  159.1646 C   0  0  0  0  0  0  0  0  0  0  0  0
  152.0486  144.7689  160.4815 C   0  0  0  0  0  0  0  0  0  0  0  0
  152.2621  143.9010  161.5700 C   0  0  0  0  0  0  0  0  0  0  0  0
  152.6562  142.5679  161.3425 C   0  0  0  0  0  0  0  0  0  0  0  0
  151.4977  138.5264  158.9774 C   0  0  0  0  0  0  0  0  0  0  0  0
  150.8318  137.3484  158.5871 C   0  0  0  0  0  0  0  0  0  0  0  0
  150.2344  133.0825  154.8937 H   0  0  0  0  0  0  0  0  0  0  0  0
  149.4954  133.3442  156.4233 H   0  0  0  0  0  0  0  0  0  0  0  0
  144.8512  134.2489  153.0976 H   0  0  0  0  0  0  0  0  0  0  0  0
  147.2877  131.7676  151.6765 H   0  0  0  0  0  0  0  0  0  0  0  0
  146.7142  134.2378  150.4559 H   0  0  0  0  0  0  0  0  0  0  0  0
  146.7523  132.6700  149.6521 H   0  0  0  0  0  0  0  0  0  0  0  0
  144.2934  134.0299  150.8018 H   0  0  0  0  0  0  0  0  0  0  0  0
  144.4623  133.2624  149.2204 H   0  0  0  0  0  0  0  0  0  0  0  0
  143.3595  131.8208  151.2095 H   0  0  0  0  0  0  0  0  0  0  0  0
  144.6293  131.0488  150.2503 H   0  0  0  0  0  0  0  0  0  0  0  0
  149.8709  135.1110  157.5309 H   0  0  0  0  0  0  0  0  0  0  0  0
  152.1605  137.0028  155.4584 H   0  0  0  0  0  0  0  0  0  0  0  0
  153.3288  139.0658  156.1487 H   0  0  0  0  0  0  0  0  0  0  0  0
  152.6796  139.9947  160.4007 H   0  0  0  0  0  0  0  0  0  0  0  0
  154.3116  140.5705  160.0623 H   0  0  0  0  0  0  0  0  0  0  0  0
  152.7601  142.6172  157.9248 H   0  0  0  0  0  0  0  0  0  0  0  0
  152.0656  144.9684  158.3295 H   0  0  0  0  0  0  0  0  0  0  0  0
  151.7469  145.7911  160.6564 H   0  0  0  0  0  0  0  0  0  0  0  0
  152.1235  144.2576  162.5799 H   0  0  0  0  0  0  0  0  0  0  0  0
  152.8181  141.9095  162.1835 H   0  0  0  0  0  0  0  0  0  0  0  0
  151.2830  138.9271  159.9562 H   0  0  0  0  0  0  0  0  0  0  0  0
  150.1250  136.9100  159.2746 H   0  0  0  0  0  0  0  0  0  0  0  0
  1  2  2  0  0  0  0
  2  3  1  0  0  0  0
  2 18  1  0  0  0  0
  3  4  1  0  0  0  0
  3 33  1  0  0  0  0
  3 34  1  0  0  0  0
  4 16  1  0  0  0  0
  4  5  1  0  0  0  0
  5  6  2  0  0  0  0
  5  7  1  0  0  0  0
  7  8  1  0  0  0  0
  7  9  2  0  0  0  0
  9 10  1  0  0  0  0
  9 35  1  0  0  0  0
 10 11  1  0  0  0  0
 10 16  1  0  0  0  0
 11 15  1  0  0  0  0
 11 12  1  0  0  0  0
 11 36  1  0  0  0  0
 12 13  1  0  0  0  0
 12 37  1  0  0  0  0
 12 38  1  0  0  0  0
 13 14  1  0  0  0  0
 13 39  1  0  0  0  0
 13 40  1  0  0  0  0
 14 15  1  0  0  0  0
 14 41  1  0  0  0  0
 14 42  1  0  0  0  0
 16 17  2  0  0  0  0
 18 19  1  0  0  0  0
 18 43  1  0  0  0  0
 19 32  1  0  0  0  0
 19 20  2  0  0  0  0
 20 21  1  0  0  0  0
 20 44  1  0  0  0  0
 21 22  2  0  0  0  0
 21 45  1  0  0  0  0
 22 23  1  0  0  0  0
 22 31  1  0  0  0  0
 23 24  1  0  0  0  0
 24 25  1  0  0  0  0
 24 46  1  0  0  0  0
 24 47  1  0  0  0  0
 25 30  1  0  0  0  0
 25 26  2  0  0  0  0
 26 27  1  0  0  0  0
 26 48  1  0  0  0  0
 27 28  2  0  0  0  0
 27 49  1  0  0  0  0
 28 29  1  0  0  0  0
 28 50  1  0  0  0  0
 29 30  2  0  0  0  0
 29 51  1  0  0  0  0
 30 52  1  0  0  0  0
 31 32  2  0  0  0  0
 31 53  1  0  0  0  0
 32 54  1  0  0  0  0
M  END
> <s_m_source_file>
AV-unprocessed.smi

> <i_m_source_file_index>
30

> <i_lp_mmshare_version>
43012

> <i_f3d_flags>
0

> <s_epik_input>
TzFbQ0gyXVtDSDJdW0NIMl1bQ0BIXTFuKGMyPU8pW2NIXWMoRiljKD1PKW4yW0NIMl1DKD1PKVtOSF1jM1tjSF1bY0hdYyhbY0hdW2NIXTMpT1tDSDJdYzRbY0hdW2NIXVtjSF1bY0hdW2NIXTQ=

> <s_epik_cmdline>
J2VwaWtfcHl0aG9uJywgJy1waCcsICc3LjAnLCAnLXRuJywgJzgnLCAnLW1hJywgJzIwMCcsICctbWV0YWxfYmluZGluZycsICctaW1hZScsICc8aW5maWxlLm1hZT4nLCAnLW9tYWUnLCAnPG91dGZpbGUubWFlPic=

> <r_lp_tautomer_probability>
1

> <r_epik_Ionization_Penalty>
1.04818e-05

> <r_epik_Ionization_Penalty_Charging>
3.88729e-08

> <r_epik_Ionization_Penalty_Neutral>
1.04429e-05

> <r_epik_State_Penalty>
-0

> <r_epik_Charging_Adjusted_Penalty>
3.88729e-08

> <i_epik_Tot_Q>
0

> <i_epik_Tot_abs_Q>
0

> <r_epik_Metal_State_Penalty>
-0

> <b_epik_Metal_Only>
0

> <s_epik_Chemistry_Notes>
This compound contains an acetal/aminal-like group ( X-CH(R)-Y where X, Y are N, S, or O) that may be acid/base labile, releasing an aldehyde.

> <s_lp_Force_Field>
OPLS_2005

> <r_lp_Energy>
43.3432

> <b_lp_Chiralities_Consistent>
1

> <s_lp_Variant>
AV-unprocessed.smi:30-1

> <Gold.Version>
5.8.1

> <Gold.Id.Protein>
6NUR|6NUR_protein|mol2

> <Gold.PLP.Fitness>
58.7114

> <Gold.PLP.PLP>
-55.1064

> <Gold.PLP.part.hbond>
-2.0000

> <Gold.PLP.part.metal>
0.0000

> <Gold.PLP.part.buried>
-7.2601

> <Gold.PLP.part.nonpolar>
-47.4909

> <Gold.PLP.part.repulsive>
0.6399

> <Gold.PLP.ligand.clash>
0.0000

> <Gold.PLP.ligand.torsion>
1.1311

> <Gold.PLP.Chemscore.Hbond>
1.8425

> <Gold.PLP.Chemscore.CHOScore>
0.0000

> <Gold.PLP.Chemscore.Metal>
0.0000

> <Gold.Chemscore.Hbonds>
donor molecule, donor type, donor heavy atom, donor atom, acceptor molecule, acceptor atom, score
      P1  H  7997  8010       L1    23  0.76
      P1  H 10752 10765       L1     1  0.94

> <Gold.PLP.Chemscore.Internal.Correction>
0.3397

> <Gold.Rescore>
     Score         DG    S(hbond)    S(metal)    S(lipo)     H(rot)  DE(clash)    DE(int)     intcor
     16.38     -20.33       1.17        0.00     141.70       2.20       0.21       3.75       ----

> <Gold.Chemscore.Fitness>
16.3790

> <Gold.Chemscore.DG>
-20.3347

> <Gold.Chemscore.ZeroCoef>
-5.4800

> <Gold.Chemscore.Hbond>
1.1664

> <Gold.Chemscore.Metal>
0.0000

> <Gold.Chemscore.Lipo>
141.6956

> <Gold.Chemscore.Internal_Hbond>
0.0000

> <Gold.Chemscore.DEClash>
0.2086

> <Gold.Chemscore.DEInternal>
3.7471

> <Gold.Chemscore.Rot>
2.1952

> <Gold.Chemscore.Internal.Correction>
   9.000000E+99

> <Gold.Chemscore.Hbonds>
donor molecule, donor type, donor heavy atom, donor atom, acceptor molecule, acceptor atom, score
      P1  H  7997  8010       L1    23  0.14
      P1  H 10752 10765       L1     1  0.85

> <Gold.Chemscore.Hbond.Weighted>
-3.8959

> <Gold.Chemscore.Metal.Weighted>
-0.0000

> <Gold.Chemscore.Lipo.Weighted>
-16.5784

> <Gold.Chemscore.Internal_Hbond.Weighted>
0.0000

> <Gold.Chemscore.DEClash.Weighted>
0.2086

> <Gold.Chemscore.DEInternal.Weighted>
3.7471

> <Gold.Chemscore.Rot.Weighted>
5.6196

> <Gold.Chemscore.Internal.Correction.Weighted>
   9.000000E+99

> <Gold.Protein.RotatedTorsions>
[ 6907 6896 6895 6894 ] final   -5.05 input  -60.11 | X-H torsion
[ 7974 7965 7964 7962 ] final   77.81 input  175.53 | X-H torsion
[ 8008 7997 7996 7995 ] final   27.43 input   59.86 | X-H torsion
[ 10167 10162 10161 10158 ] final -110.94 input  -65.29 | X-H torsion
[ 10718 10713 10712 10709 ] final  158.00 input   66.30 | X-H torsion
[ 10763 10752 10751 10750 ] final  162.94 input  -60.55 | X-H torsion
[ 11005 11000 10999 10996 ] final   61.96 input  -57.11 | X-H torsion

> <Gold.Protein.ActiveResidues>
 VAL166  LYS551  ARG553  GLY616  TRP617  ASP618  TYR619  PRO620  LYS621  CYS622 
 ASP623  PHE694  ASN695  SER759  ASP760  ASP761  ALA762  ILE779  LEU786  VAL792 
 PHE793  MET794  SER795  GLU796  ALA797  LYS798  CYS799  TRP800  GLU811  SER814 

> <Gold.Protein.RotatedAtoms>
  151.4877  135.1056  159.9794 H   0  0  0  0  0  0  0  0  0  0  0  0  # atno 6907 bound_to 6896
  152.4753  133.8121  159.7019 H   0  0  0  0  0  0  0  0  0  0  0  0  # atno 6908 bound_to 6896
  150.8788  133.7339  159.2965 H   0  0  0  0  0  0  0  0  0  0  0  0  # atno 6909 bound_to 6896
  145.6852  139.2535  143.1791 H   0  0  0  0  0  0  0  0  0  0  0  0  # atno 7974 bound_to 7965
  155.0429  140.3171  155.4718 H   0  0  0  0  0  0  0  0  0  0  0  0  # atno 8008 bound_to 7997
  156.2851  140.2160  156.5496 H   0  0  0  0  0  0  0  0  0  0  0  0  # atno 8009 bound_to 7997
  154.7275  140.0484  157.0684 H   0  0  0  0  0  0  0  0  0  0  0  0  # atno 8010 bound_to 7997
  140.1390  143.4295  152.1575 H   0  0  0  0  0  0  0  0  0  0  0  0  # atno 10167 bound_to 10162
  157.1838  131.0639  151.2117 H   0  0  0  0  0  0  0  0  0  0  0  0  # atno 10718 bound_to 10713
  154.2861  135.2762  155.2675 H   0  0  0  0  0  0  0  0  0  0  0  0  # atno 10763 bound_to 10752
  154.5175  135.5765  153.6657 H   0  0  0  0  0  0  0  0  0  0  0  0  # atno 10764 bound_to 10752
  152.9921  135.6196  154.3023 H   0  0  0  0  0  0  0  0  0  0  0  0  # atno 10765 bound_to 10752
  140.0125  134.6274  155.9759 H   0  0  0  0  0  0  0  0  0  0  0  0  # atno 11005 bound_to 11000
  146.0930  140.7634  142.9586 LP  0  0  0  0  0  0  0  0  0  0  0  0  # atno 17320 bound_to 7965
  144.7013  140.3667  143.7153 LP  0  0  0  0  0  0  0  0  0  0  0  0  # atno 17321 bound_to 7965
  139.5481  144.7315  151.4519 LP  0  0  0  0  0  0  0  0  0  0  0  0  # atno 17342 bound_to 10162
  140.6772  143.8164  150.7073 LP  0  0  0  0  0  0  0  0  0  0  0  0  # atno 17343 bound_to 10162
  157.3926  130.7290  149.6709 LP  0  0  0  0  0  0  0  0  0  0  0  0  # atno 17370 bound_to 10713
  155.9720  130.4142  150.4121 LP  0  0  0  0  0  0  0  0  0  0  0  0  # atno 17371 bound_to 10713
  141.1721  133.6538  156.4689 LP  0  0  0  0  0  0  0  0  0  0  0  0  # atno 17394 bound_to 11000
  140.4529  134.6912  157.5048 LP  0  0  0  0  0  0  0  0  0  0  0  0  # atno 17395 bound_to 11000

$$$$
