AV-unprocessed.smi:3161|AV-procd|sdf|12062|dock2
  -GOLD-   2272017493D 1   1.00000     0.00000
 Structure written by MMmdl.
 40 41  0  0  0  0  0  0  0  0  1 V2000
  146.6497  141.0928  153.7300 C   0  0  0  0  0  0  0  0  0  0  0  0
  148.0140  140.6742  154.1971 C   0  0  0  0  0  0  0  0  0  0  0  0
  149.0992  141.5083  154.5891 C   0  0  0  0  0  0  0  0  0  0  0  0
  150.1704  140.8227  154.9518 N   0  0  0  0  0  0  0  0  0  0  0  0
  149.8133  139.5296  154.7972 N   0  0  0  0  0  0  0  0  0  0  0  0
  150.7622  138.4727  155.1102 C   0  0  0  0  0  0  0  0  0  0  0  0
  151.4125  138.6051  156.5113 C   0  0  1  0  0  0  0  0  0  0  0  0
  152.8728  138.1267  156.5273 C   0  0  0  0  0  0  0  0  0  0  0  0
  151.3427  139.9662  157.0543 N   0  0  0  0  0  0  0  0  0  0  0  0
  151.6488  140.0951  158.4779 C   0  0  0  0  0  0  0  0  0  0  0  0
  152.2553  141.4715  158.7842 C   0  0  1  0  0  0  0  0  0  0  0  0
  151.5364  142.5928  158.0091 C   0  0  0  0  0  0  0  0  0  0  0  0
  152.0928  143.9656  158.4041 C   0  0  0  0  0  0  0  0  0  0  0  0
  152.0387  144.1249  159.9268 C   0  0  0  0  0  0  0  0  0  0  0  0
  152.7199  142.9300  160.6122 C   0  0  0  0  0  0  0  0  0  0  0  0
  152.1129  141.7153  160.1828 O   0  0  0  0  0  0  0  0  0  0  0  0
  148.5142  139.4120  154.3492 C   0  0  0  0  0  0  0  0  0  0  0  0
  146.5423  142.1776  153.7107 H   0  0  0  0  0  0  0  0  0  0  0  0
  145.8656  140.7044  154.3800 H   0  0  0  0  0  0  0  0  0  0  0  0
  146.4416  140.7321  152.7225 H   0  0  0  0  0  0  0  0  0  0  0  0
  149.1386  142.5872  154.6223 H   0  0  0  0  0  0  0  0  0  0  0  0
  150.2726  137.5071  154.9845 H   0  0  0  0  0  0  0  0  0  0  0  0
  151.5451  138.4980  154.3513 H   0  0  0  0  0  0  0  0  0  0  0  0
  150.8598  137.9454  157.1813 H   0  0  0  0  0  0  0  0  0  0  0  0
  152.9580  137.1139  156.1329 H   0  0  0  0  0  0  0  0  0  0  0  0
  153.2694  138.1170  157.5430 H   0  0  0  0  0  0  0  0  0  0  0  0
  153.5166  138.7734  155.9302 H   0  0  0  0  0  0  0  0  0  0  0  0
  151.9562  140.5761  156.5230 H   0  0  0  0  0  0  0  0  0  0  0  0
  150.7380  139.9763  159.0640 H   0  0  0  0  0  0  0  0  0  0  0  0
  152.3350  139.3095  158.7966 H   0  0  0  0  0  0  0  0  0  0  0  0
  153.3135  141.4698  158.5149 H   0  0  0  0  0  0  0  0  0  0  0  0
  151.6482  142.4416  156.9349 H   0  0  0  0  0  0  0  0  0  0  0  0
  150.4667  142.5584  158.2196 H   0  0  0  0  0  0  0  0  0  0  0  0
  153.1243  144.0571  158.0615 H   0  0  0  0  0  0  0  0  0  0  0  0
  151.5275  144.7607  157.9171 H   0  0  0  0  0  0  0  0  0  0  0  0
  152.5173  145.0574  160.2270 H   0  0  0  0  0  0  0  0  0  0  0  0
  150.9992  144.1865  160.2517 H   0  0  0  0  0  0  0  0  0  0  0  0
  153.7889  142.9122  160.3944 H   0  0  0  0  0  0  0  0  0  0  0  0
  152.6170  143.0107  161.6944 H   0  0  0  0  0  0  0  0  0  0  0  0
  148.0593  138.4483  154.1735 H   0  0  0  0  0  0  0  0  0  0  0  0
  1  2  1  0  0  0  0
  1 18  1  0  0  0  0
  1 19  1  0  0  0  0
  1 20  1  0  0  0  0
  2 17  2  0  0  0  0
  2  3  1  0  0  0  0
  3  4  2  0  0  0  0
  3 21  1  0  0  0  0
  4  5  1  0  0  0  0
  5  6  1  0  0  0  0
  5 17  1  0  0  0  0
  6  7  1  0  0  0  0
  6 22  1  0  0  0  0
  6 23  1  0  0  0  0
  7  8  1  0  0  0  0
  7  9  1  0  0  0  0
  7 24  1  0  0  0  0
  8 25  1  0  0  0  0
  8 26  1  0  0  0  0
  8 27  1  0  0  0  0
  9 10  1  0  0  0  0
  9 28  1  0  0  0  0
 10 11  1  0  0  0  0
 10 29  1  0  0  0  0
 10 30  1  0  0  0  0
 11 16  1  0  0  0  0
 11 12  1  0  0  0  0
 11 31  1  0  0  0  0
 12 13  1  0  0  0  0
 12 32  1  0  0  0  0
 12 33  1  0  0  0  0
 13 14  1  0  0  0  0
 13 34  1  0  0  0  0
 13 35  1  0  0  0  0
 14 15  1  0  0  0  0
 14 36  1  0  0  0  0
 14 37  1  0  0  0  0
 15 16  1  0  0  0  0
 15 38  1  0  0  0  0
 15 39  1  0  0  0  0
 17 40  1  0  0  0  0
M  END
> <s_m_source_file>
AV-unprocessed.smi

> <i_m_source_file_index>
3161

> <i_lp_mmshare_version>
43012

> <i_f3d_flags>
0

> <s_epik_input>
W0NIM11jMVtjSF1ubihbY0hdMSlbQ0gyXVtDQEhdKFtDSDNdKVtOSF1bQ0gyXVtDQEBIXTJbQ0gyXVtDSDJdW0NIMl1bQ0gyXU8y

> <s_epik_cmdline>
J2VwaWtfcHl0aG9uJywgJy1waCcsICc3LjAnLCAnLXRuJywgJzgnLCAnLW1hJywgJzIwMCcsICctbWV0YWxfYmluZGluZycsICctaW1hZScsICc8aW5maWxlLm1hZT4nLCAnLW9tYWUnLCAnPG91dGZpbGUubWFlPic=

> <r_lp_tautomer_probability>
1

> <r_epik_Ionization_Penalty>
2.51986

> <r_epik_Ionization_Penalty_Charging>
0

> <r_epik_Ionization_Penalty_Neutral>
2.51986

> <r_epik_State_Penalty>
2.68614

> <r_epik_Charging_Adjusted_Penalty>
2.68614

> <i_epik_Tot_Q>
0

> <i_epik_Tot_abs_Q>
0

> <r_epik_Metal_State_Penalty>
2.68606

> <b_epik_Metal_Only>
0

> <s_lp_Force_Field>
OPLS_2005

> <r_lp_Energy>
14.0123

> <b_lp_Chiralities_Consistent>
1

> <s_lp_Variant>
AV-unprocessed.smi:3161-8

> <Gold.Version>
5.8.1

> <Gold.Id.Protein>
6NUR|6NUR_protein|mol2

> <Gold.PLP.Fitness>
39.5767

> <Gold.PLP.PLP>
-35.9844

> <Gold.PLP.part.hbond>
-1.0000

> <Gold.PLP.part.metal>
0.0000

> <Gold.PLP.part.buried>
-2.3376

> <Gold.PLP.part.nonpolar>
-32.4380

> <Gold.PLP.part.repulsive>
0.1034

> <Gold.PLP.ligand.clash>
0.0000

> <Gold.PLP.ligand.torsion>
0.9985

> <Gold.PLP.Chemscore.Hbond>
0.8160

> <Gold.PLP.Chemscore.CHOScore>
1.0000

> <Gold.PLP.Chemscore.Metal>
0.0000

> <Gold.Chemscore.Hbonds>
donor molecule, donor type, donor heavy atom, donor atom, acceptor molecule, acceptor atom, score
      P1  H  7989  7998       L1     4  0.67
      L1  C     3    21       P1  8028  1.00

> <Gold.PLP.Chemscore.Internal.Correction>
0.1413

> <Gold.Rescore>
     Score         DG    S(hbond)    S(metal)    S(lipo)     H(rot)  DE(clash)    DE(int)     intcor
     15.49     -16.39       0.76        0.00     104.47       1.50       0.01       0.88       ----

> <Gold.Chemscore.Fitness>
15.4880

> <Gold.Chemscore.DG>
-16.3859

> <Gold.Chemscore.ZeroCoef>
-5.4800

> <Gold.Chemscore.Hbond>
0.7578

> <Gold.Chemscore.Metal>
0.0000

> <Gold.Chemscore.Lipo>
104.4679

> <Gold.Chemscore.Internal_Hbond>
0.0000

> <Gold.Chemscore.DEClash>
0.0147

> <Gold.Chemscore.DEInternal>
0.8833

> <Gold.Chemscore.Rot>
1.5030

> <Gold.Chemscore.Internal.Correction>
   9.000000E+99

> <Gold.Chemscore.Hbonds>
donor molecule, donor type, donor heavy atom, donor atom, acceptor molecule, acceptor atom, score
      P1  H  7989  7998       L1     4  0.10

> <Gold.Chemscore.Hbond.Weighted>
-2.5309

> <Gold.Chemscore.Metal.Weighted>
-0.0000

> <Gold.Chemscore.Lipo.Weighted>
-12.2227

> <Gold.Chemscore.Internal_Hbond.Weighted>
0.0000

> <Gold.Chemscore.DEClash.Weighted>
0.0147

> <Gold.Chemscore.DEInternal.Weighted>
0.8833

> <Gold.Chemscore.Rot.Weighted>
3.8477

> <Gold.Chemscore.Internal.Correction.Weighted>
   9.000000E+99

> <Gold.Protein.RotatedTorsions>
[ 6907 6896 6895 6894 ] final -112.44 input  -60.11 | X-H torsion
[ 7974 7965 7964 7962 ] final  129.21 input  175.53 | X-H torsion
[ 8008 7997 7996 7995 ] final -108.52 input   59.86 | X-H torsion
[ 10167 10162 10161 10158 ] final  -70.92 input  -65.29 | X-H torsion
[ 10718 10713 10712 10709 ] final  -87.22 input   66.30 | X-H torsion
[ 10763 10752 10751 10750 ] final -132.59 input  -60.55 | X-H torsion
[ 11005 11000 10999 10996 ] final  -88.85 input  -57.11 | X-H torsion

> <Gold.Protein.ActiveResidues>
 VAL166  LYS551  ARG553  GLY616  TRP617  ASP618  TYR619  PRO620  LYS621  CYS622 
 ASP623  PHE694  ASN695  SER759  ASP760  ASP761  ALA762  ILE779  LEU786  VAL792 
 PHE793  MET794  SER795  GLU796  ALA797  LYS798  CYS799  TRP800  GLU811  SER814 

> <Gold.Protein.RotatedAtoms>
  150.7759  133.9089  159.3363 H   0  0  0  0  0  0  0  0  0  0  0  0  # atno 6907 bound_to 6896
  151.6964  135.0936  160.0252 H   0  0  0  0  0  0  0  0  0  0  0  0  # atno 6908 bound_to 6896
  152.3794  133.6487  159.6185 H   0  0  0  0  0  0  0  0  0  0  0  0  # atno 6909 bound_to 6896
  145.0311  139.4045  143.5149 H   0  0  0  0  0  0  0  0  0  0  0  0  # atno 7974 bound_to 7965
  154.9455  140.0402  157.2118 H   0  0  0  0  0  0  0  0  0  0  0  0  # atno 8008 bound_to 7997
  154.8028  140.2854  155.5887 H   0  0  0  0  0  0  0  0  0  0  0  0  # atno 8009 bound_to 7997
  156.2963  140.2552  156.2900 H   0  0  0  0  0  0  0  0  0  0  0  0  # atno 8010 bound_to 7997
  140.5314  143.2321  151.7255 H   0  0  0  0  0  0  0  0  0  0  0  0  # atno 10167 bound_to 10162
  155.9986  130.4792  150.4834 H   0  0  0  0  0  0  0  0  0  0  0  0  # atno 10718 bound_to 10713
  154.8741  135.3793  154.4434 H   0  0  0  0  0  0  0  0  0  0  0  0  # atno 10763 bound_to 10752
  153.5116  135.7029  153.5783 H   0  0  0  0  0  0  0  0  0  0  0  0  # atno 10764 bound_to 10752
  153.4069  135.3934  155.1991 H   0  0  0  0  0  0  0  0  0  0  0  0  # atno 10765 bound_to 10752
  141.1595  133.7595  156.9511 H   0  0  0  0  0  0  0  0  0  0  0  0  # atno 11005 bound_to 11000
  146.3498  139.9862  142.8690 LP  0  0  0  0  0  0  0  0  0  0  0  0  # atno 17320 bound_to 7965
  145.1769  140.9748  143.4289 LP  0  0  0  0  0  0  0  0  0  0  0  0  # atno 17321 bound_to 7965
  139.4955  144.4108  152.0083 LP  0  0  0  0  0  0  0  0  0  0  0  0  # atno 17342 bound_to 10162
  140.3210  144.3427  150.6009 LP  0  0  0  0  0  0  0  0  0  0  0  0  # atno 17343 bound_to 10162
  157.2837  131.0612  151.2181 LP  0  0  0  0  0  0  0  0  0  0  0  0  # atno 17370 bound_to 10713
  157.3218  130.6941  149.6273 LP  0  0  0  0  0  0  0  0  0  0  0  0  # atno 17371 bound_to 10713
  140.1256  134.9389  157.2266 LP  0  0  0  0  0  0  0  0  0  0  0  0  # atno 17394 bound_to 11000
  140.3016  134.3125  155.7288 LP  0  0  0  0  0  0  0  0  0  0  0  0  # atno 17395 bound_to 11000

$$$$
