AV-unprocessed.smi:356|AV-procd|sdf|2409|dock2
  -GOLD-   2262022343D 1   1.00000     0.00000
 Structure written by MMmdl.
 41 43  0  0  0  0  0  0  0  0  1 V2000
  151.5580  137.6595  155.0887 C   0  0  0  0  0  0  0  0  0  0  0  0
  150.4948  138.6556  154.7496 C   0  0  0  0  0  0  0  0  0  0  0  0
  149.4272  138.3327  154.0189 N   0  0  0  0  0  0  0  0  0  0  0  0
  148.7330  139.5256  153.9534 C   0  0  0  0  0  0  0  0  0  0  0  0
  147.5117  139.8445  153.3177 C   0  0  0  0  0  0  0  0  0  0  0  0
  146.9909  141.1535  153.3879 C   0  0  0  0  0  0  0  0  0  0  0  0
  147.6820  142.1601  154.0928 C   0  0  0  0  0  0  0  0  0  0  0  0
  148.9004  141.8638  154.7335 C   0  0  0  0  0  0  0  0  0  0  0  0
  149.4157  140.5558  154.6604 C   0  0  0  0  0  0  0  0  0  0  0  0
  150.5589  139.9450  155.1652 N   0  0  0  0  0  0  0  0  0  0  0  0
  151.5920  140.5878  155.9666 C   0  0  0  0  0  0  0  0  0  0  0  0
  151.0331  141.2272  157.2527 C   0  0  1  0  0  0  0  0  0  0  0  0
  150.4182  140.2298  158.0442 O   0  0  0  0  0  0  0  0  0  0  0  0
  152.1499  141.8895  158.0835 C   0  0  0  0  0  0  0  0  0  0  0  0
  151.7047  142.8744  159.0713 N   0  0  0  0  0  0  0  0  0  0  0  0
  151.4441  144.1890  158.4866 C   0  0  0  0  0  0  0  0  0  0  0  0
  151.0086  145.2139  159.5490 C   0  0  0  0  0  0  0  0  0  0  0  0
  151.9973  145.2978  160.5699 O   0  0  0  0  0  0  0  0  0  0  0  0
  152.2450  144.0440  161.1971 C   0  0  0  0  0  0  0  0  0  0  0  0
  152.6895  143.0206  160.1384 C   0  0  0  0  0  0  0  0  0  0  0  0
  151.2848  136.6688  154.7237 H   0  0  0  0  0  0  0  0  0  0  0  0
  151.6937  137.5998  156.1684 H   0  0  0  0  0  0  0  0  0  0  0  0
  152.5033  137.9468  154.6280 H   0  0  0  0  0  0  0  0  0  0  0  0
  146.9748  139.0804  152.7752 H   0  0  0  0  0  0  0  0  0  0  0  0
  146.0567  141.3859  152.8981 H   0  0  0  0  0  0  0  0  0  0  0  0
  147.2761  143.1600  154.1418 H   0  0  0  0  0  0  0  0  0  0  0  0
  149.4322  142.6317  155.2751 H   0  0  0  0  0  0  0  0  0  0  0  0
  152.3739  139.8666  156.2046 H   0  0  0  0  0  0  0  0  0  0  0  0
  152.0655  141.3524  155.3495 H   0  0  0  0  0  0  0  0  0  0  0  0
  150.2760  141.9582  156.9718 H   0  0  0  0  0  0  0  0  0  0  0  0
  150.3843  139.4306  157.5400 H   0  0  0  0  0  0  0  0  0  0  0  0
  152.7034  141.0978  158.5911 H   0  0  0  0  0  0  0  0  0  0  0  0
  152.8654  142.3620  157.4088 H   0  0  0  0  0  0  0  0  0  0  0  0
  152.3393  144.5535  157.9803 H   0  0  0  0  0  0  0  0  0  0  0  0
  150.6619  144.1242  157.7316 H   0  0  0  0  0  0  0  0  0  0  0  0
  150.8791  146.1973  159.0968 H   0  0  0  0  0  0  0  0  0  0  0  0
  150.0491  144.9330  159.9859 H   0  0  0  0  0  0  0  0  0  0  0  0
  153.0203  144.1701  161.9529 H   0  0  0  0  0  0  0  0  0  0  0  0
  151.3461  143.7018  161.7125 H   0  0  0  0  0  0  0  0  0  0  0  0
  152.8590  142.0571  160.6206 H   0  0  0  0  0  0  0  0  0  0  0  0
  153.6475  143.3310  159.7181 H   0  0  0  0  0  0  0  0  0  0  0  0
  1  2  1  0  0  0  0
  1 21  1  0  0  0  0
  1 22  1  0  0  0  0
  1 23  1  0  0  0  0
  2 10  1  0  0  0  0
  2  3  2  0  0  0  0
  3  4  1  0  0  0  0
  4  9  2  0  0  0  0
  4  5  1  0  0  0  0
  5  6  2  0  0  0  0
  5 24  1  0  0  0  0
  6  7  1  0  0  0  0
  6 25  1  0  0  0  0
  7  8  2  0  0  0  0
  7 26  1  0  0  0  0
  8  9  1  0  0  0  0
  8 27  1  0  0  0  0
  9 10  1  0  0  0  0
 10 11  1  0  0  0  0
 11 12  1  0  0  0  0
 11 28  1  0  0  0  0
 11 29  1  0  0  0  0
 12 13  1  0  0  0  0
 12 14  1  0  0  0  0
 12 30  1  0  0  0  0
 13 31  1  0  0  0  0
 14 15  1  0  0  0  0
 14 32  1  0  0  0  0
 14 33  1  0  0  0  0
 15 20  1  0  0  0  0
 15 16  1  0  0  0  0
 16 17  1  0  0  0  0
 16 34  1  0  0  0  0
 16 35  1  0  0  0  0
 17 18  1  0  0  0  0
 17 36  1  0  0  0  0
 17 37  1  0  0  0  0
 18 19  1  0  0  0  0
 19 20  1  0  0  0  0
 19 38  1  0  0  0  0
 19 39  1  0  0  0  0
 20 40  1  0  0  0  0
 20 41  1  0  0  0  0
M  END
> <s_m_source_file>
AV-unprocessed.smi

> <i_m_source_file_index>
356

> <i_lp_mmshare_version>
43012

> <i_f3d_flags>
0

> <s_epik_input>
W2NIXTFbY0hdW2NIXVtjSF1jKGMxMiluKGMobjIpW0NIM10pW0NIMl1bQ0BIXShbT0hdKVtDSDJdTjNbQ0gyXVtDSDJdT1tDSDJdW0NIMl0z

> <s_epik_cmdline>
J2VwaWtfcHl0aG9uJywgJy1waCcsICc3LjAnLCAnLXRuJywgJzgnLCAnLW1hJywgJzIwMCcsICctbWV0YWxfYmluZGluZycsICctaW1hZScsICc8aW5maWxlLm1hZT4nLCAnLW9tYWUnLCAnPG91dGZpbGUubWFlPic=

> <r_epik_Ionization_Penalty>
0.355661

> <r_epik_Ionization_Penalty_Charging>
0

> <r_epik_Ionization_Penalty_Neutral>
0.355661

> <r_epik_State_Penalty>
0.325123

> <r_epik_Charging_Adjusted_Penalty>
0.325123

> <i_epik_Tot_Q>
0

> <i_epik_Tot_abs_Q>
0

> <r_epik_Metal_State_Penalty>
0.239925

> <b_epik_Metal_Only>
0

> <s_lp_Force_Field>
OPLS_2005

> <r_lp_Energy>
29.7319

> <b_lp_Chiralities_Consistent>
1

> <s_lp_Variant>
AV-unprocessed.smi:356-2

> <Gold.Version>
5.8.1

> <Gold.Id.Protein>
6NUR|6NUR_protein|mol2

> <Gold.PLP.Fitness>
41.7191

> <Gold.PLP.PLP>
-42.5091

> <Gold.PLP.part.hbond>
0.0000

> <Gold.PLP.part.metal>
0.0000

> <Gold.PLP.part.buried>
-2.9333

> <Gold.PLP.part.nonpolar>
-40.0670

> <Gold.PLP.part.repulsive>
1.2909

> <Gold.PLP.ligand.clash>
0.0000

> <Gold.PLP.ligand.torsion>
0.4037

> <Gold.PLP.Chemscore.Hbond>
0.0000

> <Gold.PLP.Chemscore.CHOScore>
0.0000

> <Gold.PLP.Chemscore.Metal>
0.0000

> <Gold.PLP.Chemscore.Internal.Correction>
0.0174

> <Gold.Rescore>
     Score         DG    S(hbond)    S(metal)    S(lipo)     H(rot)  DE(clash)    DE(int)     intcor
     13.56     -13.87       0.00        0.00     115.20       1.99       0.08       0.24       ----

> <Gold.Chemscore.Fitness>
13.5561

> <Gold.Chemscore.DG>
-13.8734

> <Gold.Chemscore.ZeroCoef>
-5.4800

> <Gold.Chemscore.Hbond>
0.0000

> <Gold.Chemscore.Metal>
0.0000

> <Gold.Chemscore.Lipo>
115.2004

> <Gold.Chemscore.Internal_Hbond>
0.0000

> <Gold.Chemscore.DEClash>
0.0770

> <Gold.Chemscore.DEInternal>
0.2403

> <Gold.Chemscore.Rot>
1.9863

> <Gold.Chemscore.Internal.Correction>
   9.000000E+99

> <Gold.Chemscore.Hbond.Weighted>
-0.0000

> <Gold.Chemscore.Metal.Weighted>
-0.0000

> <Gold.Chemscore.Lipo.Weighted>
-13.4785

> <Gold.Chemscore.Internal_Hbond.Weighted>
0.0000

> <Gold.Chemscore.DEClash.Weighted>
0.0770

> <Gold.Chemscore.DEInternal.Weighted>
0.2403

> <Gold.Chemscore.Rot.Weighted>
5.0850

> <Gold.Chemscore.Internal.Correction.Weighted>
   9.000000E+99

> <Gold.Protein.RotatedTorsions>
[ 6907 6896 6895 6894 ] final   65.28 input  -60.11 | X-H torsion
[ 7974 7965 7964 7962 ] final    8.33 input  175.53 | X-H torsion
[ 8008 7997 7996 7995 ] final -141.13 input   59.86 | X-H torsion
[ 10167 10162 10161 10158 ] final   71.29 input  -65.29 | X-H torsion
[ 10718 10713 10712 10709 ] final    4.37 input   66.30 | X-H torsion
[ 10763 10752 10751 10750 ] final -139.31 input  -60.55 | X-H torsion
[ 11005 11000 10999 10996 ] final    2.46 input  -57.11 | X-H torsion

> <Gold.Protein.ActiveResidues>
 VAL166  LYS551  ARG553  GLY616  TRP617  ASP618  TYR619  PRO620  LYS621  CYS622 
 ASP623  PHE694  ASN695  SER759  ASP760  ASP761  ALA762  ILE779  LEU786  VAL792 
 PHE793  MET794  SER795  GLU796  ALA797  LYS798  CYS799  TRP800  GLU811  SER814 

> <Gold.Protein.RotatedAtoms>
  152.4395  134.5619  159.9896 H   0  0  0  0  0  0  0  0  0  0  0  0  # atno 6907 bound_to 6896
  151.5720  133.3383  159.2999 H   0  0  0  0  0  0  0  0  0  0  0  0  # atno 6908 bound_to 6896
  150.8299  134.7581  159.6909 H   0  0  0  0  0  0  0  0  0  0  0  0  # atno 6909 bound_to 6896
  146.2417  139.9950  142.8422 H   0  0  0  0  0  0  0  0  0  0  0  0  # atno 7974 bound_to 7965
  155.4728  140.0554  157.2977 H   0  0  0  0  0  0  0  0  0  0  0  0  # atno 8008 bound_to 7997
  154.4691  140.2032  155.9993 H   0  0  0  0  0  0  0  0  0  0  0  0  # atno 8009 bound_to 7997
  156.1026  140.3217  155.7967 H   0  0  0  0  0  0  0  0  0  0  0  0  # atno 8010 bound_to 7997
  140.0477  144.5337  150.7386 H   0  0  0  0  0  0  0  0  0  0  0  0  # atno 10167 bound_to 10162
  156.8916  130.5689  149.5650 H   0  0  0  0  0  0  0  0  0  0  0  0  # atno 10718 bound_to 10713
  154.8613  135.3586  154.5526 H   0  0  0  0  0  0  0  0  0  0  0  0  # atno 10763 bound_to 10752
  153.6143  135.7008  153.5339 H   0  0  0  0  0  0  0  0  0  0  0  0  # atno 10764 bound_to 10752
  153.3182  135.4159  155.1355 H   0  0  0  0  0  0  0  0  0  0  0  0  # atno 10765 bound_to 10752
  140.6040  133.9809  155.8145 H   0  0  0  0  0  0  0  0  0  0  0  0  # atno 11005 bound_to 11000
  145.1468  140.9601  143.4456 LP  0  0  0  0  0  0  0  0  0  0  0  0  # atno 17320 bound_to 7965
  145.0243  139.3397  143.6057 LP  0  0  0  0  0  0  0  0  0  0  0  0  # atno 17321 bound_to 7965
  140.7231  143.2608  151.4211 LP  0  0  0  0  0  0  0  0  0  0  0  0  # atno 17342 bound_to 10162
  139.5973  144.1370  152.2158 LP  0  0  0  0  0  0  0  0  0  0  0  0  # atno 17343 bound_to 10162
  156.0626  130.5675  150.9223 LP  0  0  0  0  0  0  0  0  0  0  0  0  # atno 17370 bound_to 10713
  157.6080  131.0938  150.8845 LP  0  0  0  0  0  0  0  0  0  0  0  0  # atno 17371 bound_to 10713
  141.0853  134.0000  157.3323 LP  0  0  0  0  0  0  0  0  0  0  0  0  # atno 17394 bound_to 11000
  139.9220  135.0201  156.8099 LP  0  0  0  0  0  0  0  0  0  0  0  0  # atno 17395 bound_to 11000

$$$$
