AV-unprocessed.smi:2143|AV-procd|sdf|8725|dock8
  -GOLD-   2272011493D 1   1.00000     0.00000
 Structure written by MMmdl.
 44 45  0  0  0  0  0  0  0  0  1 V2000
  153.6680  141.5803  159.5320 C   0  0  0  0  0  0  0  0  0  0  0  0
  152.2611  142.0982  159.8957 C   0  0  1  0  0  0  0  0  0  0  0  0
  152.2942  143.5808  160.3186 C   0  0  0  0  0  0  0  0  0  0  0  0
  152.5225  144.5201  159.1244 C   0  0  0  0  0  0  0  0  0  0  0  0
  151.4666  144.2940  158.0341 C   0  0  0  0  0  0  0  0  0  0  0  0
  151.4119  142.8222  157.5807 C   0  0  2  0  0  0  0  0  0  0  0  0
  150.3370  142.6810  156.5990 N   0  0  0  0  0  0  0  0  0  0  0  0
  150.2482  141.7286  155.6575 C   0  0  0  0  0  0  0  0  0  0  0  0
  151.0678  140.8174  155.5332 O   0  0  0  0  0  0  0  0  0  0  0  0
  149.0262  141.8155  154.7330 C   0  0  0  0  0  0  0  0  0  0  0  0
  147.9281  140.9304  155.1423 N   0  0  0  0  0  0  0  0  0  0  0  0
  147.3743  140.0563  154.2249 C   0  0  0  0  0  0  0  0  0  0  0  0
  146.3507  139.2234  154.5137 C   0  0  0  0  0  0  0  0  0  0  0  0
  145.7589  139.1979  155.8460 C   0  0  0  0  0  0  0  0  0  0  0  0
  144.8114  138.4705  156.1454 O   0  0  0  0  0  0  0  0  0  0  0  0
  146.3547  140.0901  156.7696 N   0  0  0  0  0  0  0  0  0  0  0  0
  145.8209  140.1520  158.1145 C   0  0  0  0  0  0  0  0  0  0  0  0
  147.4148  140.9702  156.4567 C   0  0  0  0  0  0  0  0  0  0  0  0
  147.8785  141.7545  157.2885 O   0  0  0  0  0  0  0  0  0  0  0  0
  151.1949  141.8725  158.7896 C   0  0  1  0  0  0  0  0  0  0  0  0
  151.0768  140.3893  158.3864 C   0  0  0  0  0  0  0  0  0  0  0  0
  154.0598  142.0478  158.6292 H   0  0  0  0  0  0  0  0  0  0  0  0
  153.6694  140.5024  159.3724 H   0  0  0  0  0  0  0  0  0  0  0  0
  154.3754  141.7813  160.3371 H   0  0  0  0  0  0  0  0  0  0  0  0
  151.9456  141.5299  160.7718 H   0  0  0  0  0  0  0  0  0  0  0  0
  151.3479  143.8385  160.7964 H   0  0  0  0  0  0  0  0  0  0  0  0
  153.0652  143.7426  161.0727 H   0  0  0  0  0  0  0  0  0  0  0  0
  152.4901  145.5573  159.4589 H   0  0  0  0  0  0  0  0  0  0  0  0
  153.5190  144.3648  158.7103 H   0  0  0  0  0  0  0  0  0  0  0  0
  150.4904  144.5990  158.4147 H   0  0  0  0  0  0  0  0  0  0  0  0
  151.6791  144.9396  157.1810 H   0  0  0  0  0  0  0  0  0  0  0  0
  152.3685  142.5823  157.1144 H   0  0  0  0  0  0  0  0  0  0  0  0
  149.6077  143.3786  156.6284 H   0  0  0  0  0  0  0  0  0  0  0  0
  148.6842  142.8512  154.7188 H   0  0  0  0  0  0  0  0  0  0  0  0
  149.3232  141.5891  153.7073 H   0  0  0  0  0  0  0  0  0  0  0  0
  147.7747  140.0403  153.2214 H   0  0  0  0  0  0  0  0  0  0  0  0
  145.9615  138.5695  153.7471 H   0  0  0  0  0  0  0  0  0  0  0  0
  146.6518  140.2508  158.8152 H   0  0  0  0  0  0  0  0  0  0  0  0
  145.2826  139.2347  158.3542 H   0  0  0  0  0  0  0  0  0  0  0  0
  145.1599  141.0190  158.1531 H   0  0  0  0  0  0  0  0  0  0  0  0
  150.2342  142.1401  159.2331 H   0  0  0  0  0  0  0  0  0  0  0  0
  151.9410  140.0597  157.8094 H   0  0  0  0  0  0  0  0  0  0  0  0
  150.1905  140.2107  157.7776 H   0  0  0  0  0  0  0  0  0  0  0  0
  150.9955  139.7483  159.2646 H   0  0  0  0  0  0  0  0  0  0  0  0
  1  2  1  0  0  0  0
  1 22  1  0  0  0  0
  1 23  1  0  0  0  0
  1 24  1  0  0  0  0
  2 20  1  0  0  0  0
  2  3  1  0  0  0  0
  2 25  1  0  0  0  0
  3  4  1  0  0  0  0
  3 26  1  0  0  0  0
  3 27  1  0  0  0  0
  4  5  1  0  0  0  0
  4 28  1  0  0  0  0
  4 29  1  0  0  0  0
  5  6  1  0  0  0  0
  5 30  1  0  0  0  0
  5 31  1  0  0  0  0
  6  7  1  0  0  0  0
  6 20  1  0  0  0  0
  6 32  1  0  0  0  0
  7  8  1  0  0  0  0
  7 33  1  0  0  0  0
  8  9  2  0  0  0  0
  8 10  1  0  0  0  0
 10 11  1  0  0  0  0
 10 34  1  0  0  0  0
 10 35  1  0  0  0  0
 11 18  1  0  0  0  0
 11 12  1  0  0  0  0
 12 13  2  0  0  0  0
 12 36  1  0  0  0  0
 13 14  1  0  0  0  0
 13 37  1  0  0  0  0
 14 15  2  0  0  0  0
 14 16  1  0  0  0  0
 16 17  1  0  0  0  0
 16 18  1  0  0  0  0
 17 38  1  0  0  0  0
 17 39  1  0  0  0  0
 17 40  1  0  0  0  0
 18 19  2  0  0  0  0
 20 21  1  0  0  0  0
 20 41  1  0  0  0  0
 21 42  1  0  0  0  0
 21 43  1  0  0  0  0
 21 44  1  0  0  0  0
M  END
> <s_m_source_file>
AV-unprocessed.smi

> <i_m_source_file_index>
2143

> <i_lp_mmshare_version>
43012

> <i_f3d_flags>
0

> <s_epik_input>
W0NIM11bQ0BASF0xW0NIMl1bQ0gyXVtDSDJdW0NASF0oW0NASF0xW0NIM10pW05IXUMoPU8pW0NIMl1uMltjSF1bY0hdYyg9TyluKFtDSDNdKWMyPU8=

> <s_epik_cmdline>
J2VwaWtfcHl0aG9uJywgJy1waCcsICc3LjAnLCAnLXRuJywgJzgnLCAnLW1hJywgJzIwMCcsICctbWV0YWxfYmluZGluZycsICctaW1hZScsICc8aW5maWxlLm1hZT4nLCAnLW9tYWUnLCAnPG91dGZpbGUubWFlPic=

> <r_lp_tautomer_probability>
1

> <r_epik_Ionization_Penalty>
3.18445e-08

> <r_epik_Ionization_Penalty_Charging>
1.27977e-08

> <r_epik_Ionization_Penalty_Neutral>
1.90469e-08

> <r_epik_State_Penalty>
-0

> <r_epik_Charging_Adjusted_Penalty>
1.27977e-08

> <i_epik_Tot_Q>
0

> <i_epik_Tot_abs_Q>
0

> <r_epik_Metal_State_Penalty>
-0

> <b_epik_Metal_Only>
0

> <s_lp_Force_Field>
OPLS_2005

> <r_lp_Energy>
21.4204

> <b_lp_Chiralities_Consistent>
1

> <s_lp_Variant>
AV-unprocessed.smi:2143-4

> <Gold.Version>
5.8.1

> <Gold.Id.Protein>
6NUR|6NUR_protein|mol2

> <Gold.PLP.Fitness>
43.2630

> <Gold.PLP.PLP>
-36.6721

> <Gold.PLP.part.hbond>
-2.0000

> <Gold.PLP.part.metal>
0.0000

> <Gold.PLP.part.buried>
-3.1433

> <Gold.PLP.part.nonpolar>
-29.7353

> <Gold.PLP.part.repulsive>
0.2561

> <Gold.PLP.ligand.clash>
0.0000

> <Gold.PLP.ligand.torsion>
0.6848

> <Gold.PLP.Chemscore.Hbond>
1.6518

> <Gold.PLP.Chemscore.CHOScore>
1.0000

> <Gold.PLP.Chemscore.Metal>
0.0000

> <Gold.Chemscore.Hbonds>
donor molecule, donor type, donor heavy atom, donor atom, acceptor molecule, acceptor atom, score
      L1  H     7    33       P1  8028  0.85
      P1  H  7989  7998       L1     9  0.64
      L1  C    12    36       P1  7957  0.45

> <Gold.PLP.Chemscore.Internal.Correction>
0.0050

> <Gold.Rescore>
     Score         DG    S(hbond)    S(metal)    S(lipo)     H(rot)  DE(clash)    DE(int)     intcor
     14.08     -17.24       1.04        0.00     103.85       1.51       0.22       2.93       ----

> <Gold.Chemscore.Fitness>
14.0823

> <Gold.Chemscore.DG>
-17.2373

> <Gold.Chemscore.ZeroCoef>
-5.4800

> <Gold.Chemscore.Hbond>
1.0419

> <Gold.Chemscore.Metal>
0.0000

> <Gold.Chemscore.Lipo>
103.8526

> <Gold.Chemscore.Internal_Hbond>
0.0000

> <Gold.Chemscore.DEClash>
0.2204

> <Gold.Chemscore.DEInternal>
2.9346

> <Gold.Chemscore.Rot>
1.5131

> <Gold.Chemscore.Internal.Correction>
   9.000000E+99

> <Gold.Chemscore.Hbonds>
donor molecule, donor type, donor heavy atom, donor atom, acceptor molecule, acceptor atom, score
      L1  H     7    33       P1  8028  0.83
      P1  H  7989  7998       L1     9  0.27

> <Gold.Chemscore.Hbond.Weighted>
-3.4800

> <Gold.Chemscore.Metal.Weighted>
-0.0000

> <Gold.Chemscore.Lipo.Weighted>
-12.1508

> <Gold.Chemscore.Internal_Hbond.Weighted>
0.0000

> <Gold.Chemscore.DEClash.Weighted>
0.2204

> <Gold.Chemscore.DEInternal.Weighted>
2.9346

> <Gold.Chemscore.Rot.Weighted>
3.8734

> <Gold.Chemscore.Internal.Correction.Weighted>
   9.000000E+99

> <Gold.Protein.RotatedTorsions>
[ 6907 6896 6895 6894 ] final -116.91 input  -60.11 | X-H torsion
[ 7974 7965 7964 7962 ] final   28.03 input  175.53 | X-H torsion
[ 8008 7997 7996 7995 ] final  -68.27 input   59.86 | X-H torsion
[ 10167 10162 10161 10158 ] final  124.30 input  -65.29 | X-H torsion
[ 10718 10713 10712 10709 ] final  106.37 input   66.30 | X-H torsion
[ 10763 10752 10751 10750 ] final -133.42 input  -60.55 | X-H torsion
[ 11005 11000 10999 10996 ] final  124.54 input  -57.11 | X-H torsion

> <Gold.Protein.ActiveResidues>
 VAL166  LYS551  ARG553  GLY616  TRP617  ASP618  TYR619  PRO620  LYS621  CYS622 
 ASP623  PHE694  ASN695  SER759  ASP760  ASP761  ALA762  ILE779  LEU786  VAL792 
 PHE793  MET794  SER795  GLU796  ALA797  LYS798  CYS799  TRP800  GLU811  SER814 

> <Gold.Protein.RotatedAtoms>
  150.8093  133.8451  159.3189 H   0  0  0  0  0  0  0  0  0  0  0  0  # atno 6907 bound_to 6896
  151.6241  135.1027  160.0117 H   0  0  0  0  0  0  0  0  0  0  0  0  # atno 6908 bound_to 6896
  152.4185  133.7037  159.6495 H   0  0  0  0  0  0  0  0  0  0  0  0  # atno 6909 bound_to 6896
  146.1752  139.7111  142.8940 H   0  0  0  0  0  0  0  0  0  0  0  0  # atno 7974 bound_to 7965
  154.4857  140.0876  156.7480 H   0  0  0  0  0  0  0  0  0  0  0  0  # atno 8008 bound_to 7997
  155.4357  140.3451  155.4266 H   0  0  0  0  0  0  0  0  0  0  0  0  # atno 8009 bound_to 7997
  156.1257  140.1487  156.9128 H   0  0  0  0  0  0  0  0  0  0  0  0  # atno 8010 bound_to 7997
  139.5750  144.6958  151.3678 H   0  0  0  0  0  0  0  0  0  0  0  0  # atno 10167 bound_to 10162
  157.6671  131.0849  150.5996 H   0  0  0  0  0  0  0  0  0  0  0  0  # atno 10718 bound_to 10713
  154.8732  135.3766  154.4570 H   0  0  0  0  0  0  0  0  0  0  0  0  # atno 10763 bound_to 10752
  153.5241  135.7028  153.5721 H   0  0  0  0  0  0  0  0  0  0  0  0  # atno 10764 bound_to 10752
  153.3955  135.3961  155.1918 H   0  0  0  0  0  0  0  0  0  0  0  0  # atno 10765 bound_to 10752
  139.9364  134.9639  156.8425 H   0  0  0  0  0  0  0  0  0  0  0  0  # atno 11005 bound_to 11000
  145.4232  141.0408  143.2952 LP  0  0  0  0  0  0  0  0  0  0  0  0  # atno 17320 bound_to 7965
  144.8224  139.5768  143.6981 LP  0  0  0  0  0  0  0  0  0  0  0  0  # atno 17321 bound_to 7965
  140.7033  143.7578  150.7439 LP  0  0  0  0  0  0  0  0  0  0  0  0  # atno 17342 bound_to 10162
  140.1095  143.4712  152.2378 LP  0  0  0  0  0  0  0  0  0  0  0  0  # atno 17343 bound_to 10162
  156.6297  130.4428  149.5791 LP  0  0  0  0  0  0  0  0  0  0  0  0  # atno 17370 bound_to 10713
  156.2292  130.6784  151.1446 LP  0  0  0  0  0  0  0  0  0  0  0  0  # atno 17371 bound_to 10713
  140.6066  134.0122  155.7559 LP  0  0  0  0  0  0  0  0  0  0  0  0  # atno 17394 bound_to 11000
  141.0979  133.9814  157.3129 LP  0  0  0  0  0  0  0  0  0  0  0  0  # atno 17395 bound_to 11000

$$$$
