AV-unprocessed.smi:287|AV-procd|sdf|2191|dock1
  -GOLD-   2262021583D 1   1.00000     0.00000
 Structure written by MMmdl.
 55 58  0  0  0  0  0  0  0  0  1 V2000
  154.4719  132.8218  158.5515 C   0  0  0  0  0  0  0  0  0  0  0  0
  153.5047  132.0955  157.6808 C   0  0  0  0  0  0  0  0  0  0  0  0
  153.5179  130.8780  157.0648 C   0  0  0  0  0  0  0  0  0  0  0  0
  152.2877  130.7466  156.3531 C   0  0  0  0  0  0  0  0  0  0  0  0
  151.8489  129.5476  155.5233 C   0  0  1  0  0  0  0  0  0  0  0  0
  152.8996  129.2569  154.4394 C   0  0  0  0  0  0  0  0  0  0  0  0
  151.7550  128.3602  156.2866 O   0  0  0  0  0  0  0  0  0  0  0  0
  150.4590  129.7438  154.8757 C   0  0  0  0  0  0  0  0  0  0  0  0
  150.2183  128.8344  153.7599 N   0  0  0  0  0  0  0  0  0  0  0  0
  149.0334  128.8510  153.1150 C   0  0  0  0  0  0  0  0  0  0  0  0
  148.5183  127.7194  152.5672 N   0  0  0  0  0  0  0  0  0  0  0  0
  147.3415  127.7605  151.9355 C   0  0  0  0  0  0  0  0  0  0  0  0
  146.5349  128.8060  151.7426 N   0  0  0  0  0  0  0  0  0  0  0  0
  147.0485  129.9459  152.2907 C   0  0  0  0  0  0  0  0  0  0  0  0
  148.2838  130.0487  152.9886 C   0  0  0  0  0  0  0  0  0  0  0  0
  148.4808  131.3577  153.4088 N   0  0  0  0  0  0  0  0  0  0  0  0
  147.4186  131.9882  152.9849 C   0  0  0  0  0  0  0  0  0  0  0  0
  146.5038  131.2150  152.3054 N   0  0  0  0  0  0  0  0  0  0  0  0
  145.2008  131.6553  151.7162 C   0  0  1  0  0  0  0  0  0  0  0  0
  144.9438  132.9685  152.0906 O   0  0  0  0  0  0  0  0  0  0  0  0
  144.1239  133.5856  151.1035 C   0  0  1  0  0  0  0  0  0  0  0  0
  144.5887  135.0393  150.8969 C   0  0  0  0  0  0  0  0  0  0  0  0
  145.9315  135.1107  150.4637 O   0  0  0  0  0  0  0  0  0  0  0  0
  144.1504  132.6828  149.8512 C   0  0  2  0  0  0  0  0  0  0  0  0
  142.8800  132.0826  149.6793 O   0  0  0  0  0  0  0  0  0  0  0  0
  145.1861  131.6143  150.1818 C   0  0  1  0  0  0  0  0  0  0  0  0
  146.4386  131.9193  149.5964 O   0  0  0  0  0  0  0  0  0  0  0  0
  151.6075  131.9117  156.6135 C   0  0  0  0  0  0  0  0  0  0  0  0
  150.2678  132.4383  156.2175 C   0  0  0  0  0  0  0  0  0  0  0  0
  152.3403  132.7370  157.4120 O   0  0  0  0  0  0  0  0  0  0  0  0
  144.4493  131.0007  152.1604 H   0  0  0  0  0  0  0  0  0  0  0  0
  143.1159  133.6159  151.5206 H   0  0  0  0  0  0  0  0  0  0  0  0
  144.3903  133.2247  148.9352 H   0  0  0  0  0  0  0  0  0  0  0  0
  144.8944  130.6182  149.8458 H   0  0  0  0  0  0  0  0  0  0  0  0
  155.3878  132.2450  158.6819 H   0  0  0  0  0  0  0  0  0  0  0  0
  154.0437  133.0037  159.5373 H   0  0  0  0  0  0  0  0  0  0  0  0
  154.7385  133.7842  158.1141 H   0  0  0  0  0  0  0  0  0  0  0  0
  154.3239  130.1608  157.1144 H   0  0  0  0  0  0  0  0  0  0  0  0
  153.0212  130.1090  153.7698 H   0  0  0  0  0  0  0  0  0  0  0  0
  152.6180  128.3982  153.8286 H   0  0  0  0  0  0  0  0  0  0  0  0
  153.8750  129.0446  154.8793 H   0  0  0  0  0  0  0  0  0  0  0  0
  150.8648  128.0464  156.2434 H   0  0  0  0  0  0  0  0  0  0  0  0
  149.6920  129.5446  155.6257 H   0  0  0  0  0  0  0  0  0  0  0  0
  150.3224  130.7786  154.5574 H   0  0  0  0  0  0  0  0  0  0  0  0
  150.9814  128.2197  153.5144 H   0  0  0  0  0  0  0  0  0  0  0  0
  146.9957  126.8223  151.5278 H   0  0  0  0  0  0  0  0  0  0  0  0
  147.2697  133.0435  153.1621 H   0  0  0  0  0  0  0  0  0  0  0  0
  143.9694  135.5183  150.1383 H   0  0  0  0  0  0  0  0  0  0  0  0
  144.4705  135.6145  151.8155 H   0  0  0  0  0  0  0  0  0  0  0  0
  145.9402  135.2734  149.5330 H   0  0  0  0  0  0  0  0  0  0  0  0
  142.2212  132.7595  149.7036 H   0  0  0  0  0  0  0  0  0  0  0  0
  147.0911  131.3472  149.9704 H   0  0  0  0  0  0  0  0  0  0  0  0
  149.4870  131.7100  156.4368 H   0  0  0  0  0  0  0  0  0  0  0  0
  150.2396  132.6549  155.1495 H   0  0  0  0  0  0  0  0  0  0  0  0
  150.0295  133.3571  156.7540 H   0  0  0  0  0  0  0  0  0  0  0  0
  1  2  1  0  0  0  0
  1 35  1  0  0  0  0
  1 36  1  0  0  0  0
  1 37  1  0  0  0  0
  2 30  1  0  0  0  0
  2  3  2  0  0  0  0
  3  4  1  0  0  0  0
  3 38  1  0  0  0  0
  4  5  1  0  0  0  0
  4 28  2  0  0  0  0
  5  6  1  0  0  0  0
  5  7  1  0  0  0  0
  5  8  1  0  0  0  0
  6 39  1  0  0  0  0
  6 40  1  0  0  0  0
  6 41  1  0  0  0  0
  7 42  1  0  0  0  0
  8  9  1  0  0  0  0
  8 43  1  0  0  0  0
  8 44  1  0  0  0  0
  9 10  1  0  0  0  0
  9 45  1  0  0  0  0
 10 15  1  0  0  0  0
 10 11  2  0  0  0  0
 11 12  1  0  0  0  0
 12 13  2  0  0  0  0
 12 46  1  0  0  0  0
 13 14  1  0  0  0  0
 14 18  1  0  0  0  0
 14 15  2  0  0  0  0
 15 16  1  0  0  0  0
 16 17  2  0  0  0  0
 17 18  1  0  0  0  0
 17 47  1  0  0  0  0
 18 19  1  0  0  0  0
 19 31  1  0  0  0  0
 19 26  1  0  0  0  0
 19 20  1  0  0  0  0
 20 21  1  0  0  0  0
 21 32  1  0  0  0  0
 21 22  1  0  0  0  0
 21 24  1  0  0  0  0
 22 23  1  0  0  0  0
 22 48  1  0  0  0  0
 22 49  1  0  0  0  0
 23 50  1  0  0  0  0
 24 33  1  0  0  0  0
 24 25  1  0  0  0  0
 24 26  1  0  0  0  0
 25 51  1  0  0  0  0
 26 34  1  0  0  0  0
 26 27  1  0  0  0  0
 27 52  1  0  0  0  0
 28 29  1  0  0  0  0
 28 30  1  0  0  0  0
 29 53  1  0  0  0  0
 29 54  1  0  0  0  0
 29 55  1  0  0  0  0
M  END
> <s_m_source_file>
AV-unprocessed.smi

> <i_m_source_file_index>
287

> <i_lp_mmshare_version>
43012

> <i_f3d_flags>
0

> <s_epik_input>
W0NIM11jMVtjSF1jKGMobzEpW0NIM10pW0NAQF0oW0NIM10pKFtPSF0pW0NIMl1bTkhdYyhuW2NIXW4yKWMoYzIzKW5bY0hdbjNbQ0BASF00T1tDQEhdKFtDSDJdW09IXSlbQ0BASF0oW09IXSlbQ0BIXTRbT0hd

> <s_epik_cmdline>
J2VwaWtfcHl0aG9uJywgJy1waCcsICc3LjAnLCAnLXRuJywgJzgnLCAnLW1hJywgJzIwMCcsICctbWV0YWxfYmluZGluZycsICctaW1hZScsICc8aW5maWxlLm1hZT4nLCAnLW9tYWUnLCAnPG91dGZpbGUubWFlPic=

> <r_lp_tautomer_probability>
1

> <r_epik_Ionization_Penalty>
0.000992612

> <r_epik_Ionization_Penalty_Charging>
0

> <r_epik_Ionization_Penalty_Neutral>
0.000992612

> <r_epik_State_Penalty>
-0

> <r_epik_Charging_Adjusted_Penalty>
0

> <i_epik_Tot_Q>
0

> <i_epik_Tot_abs_Q>
0

> <r_epik_Metal_State_Penalty>
-0

> <b_epik_Metal_Only>
0

> <s_epik_Chemistry_Notes>
This compound contains an acetal/aminal-like group ( X-CH(R)-Y where X, Y are N, S, or O) that may be acid/base labile, releasing an aldehyde.

> <s_lp_Force_Field>
OPLS_2005

> <r_lp_Energy>
44.0492

> <b_lp_Chiralities_Consistent>
1

> <s_lp_Variant>
AV-unprocessed.smi:287-15

> <Gold.Version>
5.8.1

> <Gold.Id.Protein>
6NUR|6NUR_protein|mol2

> <Gold.PLP.Fitness>
59.9705

> <Gold.PLP.PLP>
-45.6640

> <Gold.PLP.part.hbond>
-6.4553

> <Gold.PLP.part.metal>
0.0000

> <Gold.PLP.part.buried>
-1.6026

> <Gold.PLP.part.nonpolar>
-36.2080

> <Gold.PLP.part.repulsive>
0.4923

> <Gold.PLP.ligand.clash>
0.0000

> <Gold.PLP.ligand.torsion>
0.5936

> <Gold.PLP.Chemscore.Hbond>
5.1153

> <Gold.PLP.Chemscore.CHOScore>
0.0000

> <Gold.PLP.Chemscore.Metal>
0.0000

> <Gold.Chemscore.Hbonds>
donor molecule, donor type, donor heavy atom, donor atom, acceptor molecule, acceptor atom, score
      L1  H     9    45       P1 10737  0.53
      L1  H    23    50       P1  7921  1.00
      L1  H    25    51       P1 10186  0.94
      L1  H    27    52       P1 10747  1.00
      P1  H  6896  6907       L1    30  0.94
      P1  H 10785 10796       L1    25  0.63

> <Gold.PLP.Chemscore.Internal.Correction>
0.1479

> <Gold.Rescore>
     Score         DG    S(hbond)    S(metal)    S(lipo)     H(rot)  DE(clash)    DE(int)     intcor
     13.57     -17.31       4.89        0.00      76.70       5.27       1.97       1.76       ----

> <Gold.Chemscore.Fitness>
13.5711

> <Gold.Chemscore.DG>
-17.3105

> <Gold.Chemscore.ZeroCoef>
-5.4800

> <Gold.Chemscore.Hbond>
4.8925

> <Gold.Chemscore.Metal>
0.0000

> <Gold.Chemscore.Lipo>
76.6973

> <Gold.Chemscore.Internal_Hbond>
0.0000

> <Gold.Chemscore.DEClash>
1.9745

> <Gold.Chemscore.DEInternal>
1.7649

> <Gold.Chemscore.Rot>
5.2672

> <Gold.Chemscore.Internal.Correction>
   9.000000E+99

> <Gold.Chemscore.Hbonds>
donor molecule, donor type, donor heavy atom, donor atom, acceptor molecule, acceptor atom, score
      L1  H     9    45       P1 10737  0.52
      L1  H    23    50       P1  7921  0.90
      L1  H    25    51       P1 10186  0.90
      L1  H    27    52       P1 10747  0.93
      P1  H  6896  6907       L1    30  0.29
      P1  H 10785 10796       L1    25  0.41

> <Gold.Chemscore.Hbond.Weighted>
-16.3409

> <Gold.Chemscore.Metal.Weighted>
-0.0000

> <Gold.Chemscore.Lipo.Weighted>
-8.9736

> <Gold.Chemscore.Internal_Hbond.Weighted>
0.0000

> <Gold.Chemscore.DEClash.Weighted>
1.9745

> <Gold.Chemscore.DEInternal.Weighted>
1.7649

> <Gold.Chemscore.Rot.Weighted>
13.4839

> <Gold.Chemscore.Internal.Correction.Weighted>
   9.000000E+99

> <Gold.Protein.RotatedTorsions>
[ 6907 6896 6895 6894 ] final  176.71 input  -60.11 | X-H torsion
[ 7974 7965 7964 7962 ] final -115.57 input  175.53 | X-H torsion
[ 8008 7997 7996 7995 ] final  -68.02 input   59.86 | X-H torsion
[ 10167 10162 10161 10158 ] final -164.09 input  -65.29 | X-H torsion
[ 10718 10713 10712 10709 ] final   71.70 input   66.30 | X-H torsion
[ 10763 10752 10751 10750 ] final -129.64 input  -60.55 | X-H torsion
[ 11005 11000 10999 10996 ] final -127.40 input  -57.11 | X-H torsion

> <Gold.Protein.ActiveResidues>
 VAL166  LYS551  ARG553  GLY616  TRP617  ASP618  TYR619  PRO620  LYS621  CYS622 
 ASP623  PHE694  ASN695  SER759  ASP760  ASP761  ALA762  ILE779  LEU786  VAL792 
 PHE793  MET794  SER795  GLU796  ALA797  LYS798  CYS799  TRP800  GLU811  SER814 

> <Gold.Protein.RotatedAtoms>
  151.7158  133.3313  159.3302 H   0  0  0  0  0  0  0  0  0  0  0  0  # atno 6907 bound_to 6896
  150.7674  134.6492  159.6288 H   0  0  0  0  0  0  0  0  0  0  0  0  # atno 6908 bound_to 6896
  152.3683  134.6774  160.0236 H   0  0  0  0  0  0  0  0  0  0  0  0  # atno 6909 bound_to 6896
  145.1068  140.8587  143.3893 H   0  0  0  0  0  0  0  0  0  0  0  0  # atno 7974 bound_to 7965
  154.4839  140.0881  156.7442 H   0  0  0  0  0  0  0  0  0  0  0  0  # atno 8008 bound_to 7997
  155.4399  140.3453  155.4270 H   0  0  0  0  0  0  0  0  0  0  0  0  # atno 8009 bound_to 7997
  156.1233  140.1480  156.9161 H   0  0  0  0  0  0  0  0  0  0  0  0  # atno 8010 bound_to 7997
  139.6275  144.0504  152.1987 H   0  0  0  0  0  0  0  0  0  0  0  0  # atno 10167 bound_to 10162
  157.6465  130.9542  150.0826 H   0  0  0  0  0  0  0  0  0  0  0  0  # atno 10718 bound_to 10713
  154.8757  135.3889  154.3952 H   0  0  0  0  0  0  0  0  0  0  0  0  # atno 10763 bound_to 10752
  153.4683  135.7029  153.6014 H   0  0  0  0  0  0  0  0  0  0  0  0  # atno 10764 bound_to 10752
  153.4482  135.3840  155.2236 H   0  0  0  0  0  0  0  0  0  0  0  0  # atno 10765 bound_to 10752
  140.9602  134.0946  157.3975 H   0  0  0  0  0  0  0  0  0  0  0  0  # atno 11005 bound_to 11000
  145.0892  139.2902  143.5743 LP  0  0  0  0  0  0  0  0  0  0  0  0  # atno 17320 bound_to 7965
  146.3528  140.0424  142.8642 LP  0  0  0  0  0  0  0  0  0  0  0  0  # atno 17321 bound_to 7965
  140.0161  144.6187  150.7605 LP  0  0  0  0  0  0  0  0  0  0  0  0  # atno 17342 bound_to 10162
  140.7419  143.2825  151.3558 LP  0  0  0  0  0  0  0  0  0  0  0  0  # atno 17343 bound_to 10162
  156.1798  130.3649  149.9051 LP  0  0  0  0  0  0  0  0  0  0  0  0  # atno 17370 bound_to 10713
  156.7006  130.8931  151.3599 LP  0  0  0  0  0  0  0  0  0  0  0  0  # atno 17371 bound_to 10713
  139.8876  135.0091  156.6568 LP  0  0  0  0  0  0  0  0  0  0  0  0  # atno 17394 bound_to 11000
  140.7478  133.8923  155.8324 LP  0  0  0  0  0  0  0  0  0  0  0  0  # atno 17395 bound_to 11000

$$$$
