AV-unprocessed.smi:285|AV-procd|sdf|2165|dock10
  -GOLD-   2262021523D 1   1.00000     0.00000
 Structure written by MMmdl.
 31 33  0  0  0  0  0  0  0  0  1 V2000
  153.4295  142.6252  161.3221 N   0  0  0  0  0  0  0  0  0  0  0  0
  152.7594  142.9595  160.2106 C   0  0  0  0  0  0  0  0  0  0  0  0
  152.3694  144.2466  160.0582 N   0  0  0  0  0  0  0  0  0  0  0  0
  151.6990  144.6065  158.9591 C   0  0  0  0  0  0  0  0  0  0  0  0
  151.3274  143.8512  157.9220 N   0  0  0  0  0  0  0  0  0  0  0  0
  151.7193  142.5521  158.0764 C   0  0  0  0  0  0  0  0  0  0  0  0
  152.4409  142.0290  159.1895 C   0  0  0  0  0  0  0  0  0  0  0  0
  152.6786  140.6717  159.0130 N   0  0  0  0  0  0  0  0  0  0  0  0
  152.1196  140.4300  157.8600 C   0  0  0  0  0  0  0  0  0  0  0  0
  152.1686  138.6777  157.1155 Br  0  0  0  0  0  0  0  0  0  0  0  0
  151.5132  141.4877  157.2203 N   0  0  0  0  0  0  0  0  0  0  0  0
  150.7923  141.5076  155.9102 C   0  0  2  0  0  0  0  0  0  0  0  0
  149.2891  141.6963  156.1146 C   0  0  0  0  0  0  0  0  0  0  0  0
  148.7241  140.8915  154.9631 C   0  0  1  0  0  0  0  0  0  0  0  0
  148.6833  141.6672  153.7794 O   0  0  0  0  0  0  0  0  0  0  0  0
  149.7279  139.7305  154.8749 C   0  0  1  0  0  0  0  0  0  0  0  0
  149.8463  139.0111  153.5205 C   0  0  0  0  0  0  0  0  0  0  0  0
  148.5684  138.6417  153.0474 O   0  0  0  0  0  0  0  0  0  0  0  0
  150.9829  140.2806  155.2720 O   0  0  0  0  0  0  0  0  0  0  0  0
  153.7317  141.6714  161.4600 H   0  0  0  0  0  0  0  0  0  0  0  0
  153.6267  143.3261  162.0216 H   0  0  0  0  0  0  0  0  0  0  0  0
  151.4200  145.6483  158.9020 H   0  0  0  0  0  0  0  0  0  0  0  0
  151.2516  142.3002  155.3204 H   0  0  0  0  0  0  0  0  0  0  0  0
  148.9843  141.2543  157.0643 H   0  0  0  0  0  0  0  0  0  0  0  0
  149.0140  142.7518  156.1106 H   0  0  0  0  0  0  0  0  0  0  0  0
  147.7150  140.5367  155.1752 H   0  0  0  0  0  0  0  0  0  0  0  0
  148.9056  142.5592  153.9995 H   0  0  0  0  0  0  0  0  0  0  0  0
  149.4647  138.9975  155.6392 H   0  0  0  0  0  0  0  0  0  0  0  0
  150.3504  139.6311  152.7793 H   0  0  0  0  0  0  0  0  0  0  0  0
  150.4435  138.1060  153.6341 H   0  0  0  0  0  0  0  0  0  0  0  0
  148.5681  137.7119  152.8781 H   0  0  0  0  0  0  0  0  0  0  0  0
  1  2  1  0  0  0  0
  1 20  1  0  0  0  0
  1 21  1  0  0  0  0
  2  7  1  0  0  0  0
  2  3  2  0  0  0  0
  3  4  1  0  0  0  0
  4  5  2  0  0  0  0
  4 22  1  0  0  0  0
  5  6  1  0  0  0  0
  6 11  1  0  0  0  0
  6  7  2  0  0  0  0
  7  8  1  0  0  0  0
  8  9  2  0  0  0  0
  9 10  1  0  0  0  0
  9 11  1  0  0  0  0
 11 12  1  0  0  0  0
 12 19  1  0  0  0  0
 12 13  1  0  0  0  0
 12 23  1  0  0  0  0
 13 14  1  0  0  0  0
 13 24  1  0  0  0  0
 13 25  1  0  0  0  0
 14 15  1  0  0  0  0
 14 16  1  0  0  0  0
 14 26  1  0  0  0  0
 15 27  1  0  0  0  0
 16 17  1  0  0  0  0
 16 19  1  0  0  0  0
 16 28  1  0  0  0  0
 17 18  1  0  0  0  0
 17 29  1  0  0  0  0
 17 30  1  0  0  0  0
 18 31  1  0  0  0  0
M  END
> <s_m_source_file>
AV-unprocessed.smi

> <i_m_source_file_index>
285

> <i_lp_mmshare_version>
43012

> <i_f3d_flags>
0

> <s_epik_input>
bjFbY0hdbmMoW05IMl0pYyhjMTIpbmMoQnIpbjJbQ0BASF0zW0NIMl1bQ0BASF0oW09IXSlbQ0BIXShPMylbQ0gyXVtPSF0=

> <s_epik_cmdline>
J2VwaWtfcHl0aG9uJywgJy1waCcsICc3LjAnLCAnLXRuJywgJzgnLCAnLW1hJywgJzIwMCcsICctbWV0YWxfYmluZGluZycsICctaW1hZScsICc8aW5maWxlLm1hZT4nLCAnLW9tYWUnLCAnPG91dGZpbGUubWFlPic=

> <r_lp_tautomer_probability>
1

> <r_epik_Ionization_Penalty>
0.000103242

> <r_epik_Ionization_Penalty_Charging>
0

> <r_epik_Ionization_Penalty_Neutral>
0.000103242

> <r_epik_State_Penalty>
-0

> <r_epik_Charging_Adjusted_Penalty>
0

> <i_epik_Tot_Q>
0

> <i_epik_Tot_abs_Q>
0

> <r_epik_Metal_State_Penalty>
-0

> <b_epik_Metal_Only>
0

> <s_epik_Chemistry_Notes>
This compound contains an acetal/aminal-like group ( X-CH(R)-Y where X, Y are N, S, or O) that may be acid/base labile, releasing an aldehyde.

> <s_lp_Force_Field>
OPLS_2005

> <r_lp_Energy>
33.7508

> <b_lp_Chiralities_Consistent>
1

> <s_lp_Variant>
AV-unprocessed.smi:285-1

> <Gold.Version>
5.8.1

> <Gold.Id.Protein>
6NUR|6NUR_protein|mol2

> <Gold.PLP.Fitness>
37.9753

> <Gold.PLP.PLP>
-32.5600

> <Gold.PLP.part.hbond>
-4.4605

> <Gold.PLP.part.metal>
0.0000

> <Gold.PLP.part.buried>
-2.6767

> <Gold.PLP.part.nonpolar>
-25.2373

> <Gold.PLP.part.repulsive>
0.2439

> <Gold.PLP.ligand.clash>
0.0000

> <Gold.PLP.ligand.torsion>
0.2189

> <Gold.PLP.Chemscore.Hbond>
1.9500

> <Gold.PLP.Chemscore.CHOScore>
0.0000

> <Gold.PLP.Chemscore.Metal>
0.0000

> <Gold.Chemscore.Hbonds>
donor molecule, donor type, donor heavy atom, donor atom, acceptor molecule, acceptor atom, score
      L1  H    18    31       P1  7948  1.00
      P1  H  7989  7998       L1    19  0.95

> <Gold.PLP.Chemscore.Internal.Correction>
0.0032

> <Gold.Rescore>
     Score         DG    S(hbond)    S(metal)    S(lipo)     H(rot)  DE(clash)    DE(int)     intcor
      2.47      -5.72       1.00        0.00      40.54       3.06       1.47       1.78       ----

> <Gold.Chemscore.Fitness>
2.4672

> <Gold.Chemscore.DG>
-5.7182

> <Gold.Chemscore.ZeroCoef>
-5.4800

> <Gold.Chemscore.Hbond>
0.9971

> <Gold.Chemscore.Metal>
0.0000

> <Gold.Chemscore.Lipo>
40.5399

> <Gold.Chemscore.Internal_Hbond>
0.0000

> <Gold.Chemscore.DEClash>
1.4716

> <Gold.Chemscore.DEInternal>
1.7794

> <Gold.Chemscore.Rot>
3.0607

> <Gold.Chemscore.Internal.Correction>
   9.000000E+99

> <Gold.Chemscore.Hbonds>
donor molecule, donor type, donor heavy atom, donor atom, acceptor molecule, acceptor atom, score
      L1  H    18    31       P1  7948  0.96
      P1  H  7989  7998       L1    19  0.06

> <Gold.Chemscore.Hbond.Weighted>
-3.3304

> <Gold.Chemscore.Metal.Weighted>
-0.0000

> <Gold.Chemscore.Lipo.Weighted>
-4.7432

> <Gold.Chemscore.Internal_Hbond.Weighted>
0.0000

> <Gold.Chemscore.DEClash.Weighted>
1.4716

> <Gold.Chemscore.DEInternal.Weighted>
1.7794

> <Gold.Chemscore.Rot.Weighted>
7.8354

> <Gold.Chemscore.Internal.Correction.Weighted>
   9.000000E+99

> <Gold.Protein.RotatedTorsions>
[ 6907 6896 6895 6894 ] final -137.59 input  -60.11 | X-H torsion
[ 7974 7965 7964 7962 ] final -173.52 input  175.53 | X-H torsion
[ 8008 7997 7996 7995 ] final  -77.55 input   59.86 | X-H torsion
[ 10167 10162 10161 10158 ] final  118.30 input  -65.29 | X-H torsion
[ 10718 10713 10712 10709 ] final -163.69 input   66.30 | X-H torsion
[ 10763 10752 10751 10750 ] final  104.34 input  -60.55 | X-H torsion
[ 11005 11000 10999 10996 ] final   91.65 input  -57.11 | X-H torsion

> <Gold.Protein.ActiveResidues>
 VAL166  LYS551  ARG553  GLY616  TRP617  ASP618  TYR619  PRO620  LYS621  CYS622 
 ASP623  PHE694  ASN695  SER759  ASP760  ASP761  ALA762  ILE779  LEU786  VAL792 
 PHE793  MET794  SER795  GLU796  ALA797  LYS798  CYS799  TRP800  GLU811  SER814 

> <Gold.Protein.RotatedAtoms>
  151.0243  133.5848  159.2667 H   0  0  0  0  0  0  0  0  0  0  0  0  # atno 6907 bound_to 6896
  151.2953  135.0752  159.9229 H   0  0  0  0  0  0  0  0  0  0  0  0  # atno 6908 bound_to 6896
  152.5330  133.9934  159.7915 H   0  0  0  0  0  0  0  0  0  0  0  0  # atno 6909 bound_to 6896
  144.7137  140.1610  143.6376 H   0  0  0  0  0  0  0  0  0  0  0  0  # atno 7974 bound_to 7965
  154.5606  140.0708  156.8814 H   0  0  0  0  0  0  0  0  0  0  0  0  # atno 8008 bound_to 7997
  155.2818  140.3372  155.4239 H   0  0  0  0  0  0  0  0  0  0  0  0  # atno 8009 bound_to 7997
  156.2039  140.1732  156.7826 H   0  0  0  0  0  0  0  0  0  0  0  0  # atno 8010 bound_to 7997
  139.6121  144.7084  151.2822 H   0  0  0  0  0  0  0  0  0  0  0  0  # atno 10167 bound_to 10162
  156.6283  130.8919  151.2972 H   0  0  0  0  0  0  0  0  0  0  0  0  # atno 10718 bound_to 10713
  153.3646  135.3946  155.1744 H   0  0  0  0  0  0  0  0  0  0  0  0  # atno 10763 bound_to 10752
  154.8685  135.3688  154.5055 H   0  0  0  0  0  0  0  0  0  0  0  0  # atno 10764 bound_to 10752
  153.5517  135.7083  153.5648 H   0  0  0  0  0  0  0  0  0  0  0  0  # atno 10765 bound_to 10752
  139.8835  134.8687  156.3459 H   0  0  0  0  0  0  0  0  0  0  0  0  # atno 11005 bound_to 11000
  145.9030  139.2442  143.1482 LP  0  0  0  0  0  0  0  0  0  0  0  0  # atno 17320 bound_to 7965
  145.9791  140.8697  143.0123 LP  0  0  0  0  0  0  0  0  0  0  0  0  # atno 17321 bound_to 7965
  140.7326  143.6819  150.7994 LP  0  0  0  0  0  0  0  0  0  0  0  0  # atno 17342 bound_to 10162
  140.0416  143.5341  152.2715 LP  0  0  0  0  0  0  0  0  0  0  0  0  # atno 17343 bound_to 10162
  157.7207  130.9555  150.1429 LP  0  0  0  0  0  0  0  0  0  0  0  0  # atno 17370 bound_to 10713
  156.2255  130.3677  149.8505 LP  0  0  0  0  0  0  0  0  0  0  0  0  # atno 17371 bound_to 10713
  140.9627  133.7378  156.0424 LP  0  0  0  0  0  0  0  0  0  0  0  0  # atno 17394 bound_to 11000
  140.7969  134.3553  157.5450 LP  0  0  0  0  0  0  0  0  0  0  0  0  # atno 17395 bound_to 11000

$$$$
