AV-unprocessed.smi:672|AV-procd|sdf|3292|dock1
  -GOLD-   22720 0253D 1   1.00000     0.00000
 Structure written by MMmdl.
 36 37  0  0  0  0  0  0  0  0  1 V2000
  150.6522  141.6433  157.9057 C   0  0  0  0  0  0  0  0  0  0  0  0
  150.8039  141.8955  156.4019 C   0  0  0  0  0  0  0  0  0  0  0  0
  150.4185  140.7120  155.5785 C   0  0  0  0  0  0  0  0  0  0  0  0
  151.2946  140.0436  154.8180 N   0  0  0  0  0  0  0  0  0  0  0  0
  150.7104  138.9687  154.1630 N   0  0  0  0  0  0  0  0  0  0  0  0
  149.4095  138.8481  154.4618 C   0  0  0  0  0  0  0  0  0  0  0  0
  148.5691  137.8331  153.9325 N   0  0  0  0  0  0  0  0  0  0  0  0
  147.2733  137.5986  154.2044 C   0  0  0  0  0  0  0  0  0  0  0  0
  146.5788  138.2526  154.9830 O   0  0  0  0  0  0  0  0  0  0  0  0
  146.8165  136.5423  153.5163 N   0  0  0  0  0  0  0  0  0  0  0  0
  145.4531  136.0213  153.5867 C   0  0  1  0  0  0  0  0  0  0  0  0
  144.4715  136.9500  152.8464 C   0  0  0  0  0  0  0  0  0  0  0  0
  143.6465  136.0489  151.9255 C   0  0  0  0  0  0  0  0  0  0  0  0
  144.5837  134.8894  151.5925 C   0  0  2  0  0  0  0  0  0  0  0  0
  143.7127  133.4089  151.0030 S   0  0  0  0  0  0  0  0  0  0  0  0
  145.1221  132.3524  150.5773 C   0  0  0  0  0  0  0  0  0  0  0  0
  145.3363  134.6445  152.9023 C   0  0  0  0  0  0  0  0  0  0  0  0
  148.7885  140.0482  155.5821 S   0  0  0  0  0  0  0  0  0  0  0  0
  150.9417  142.5250  158.4776 H   0  0  0  0  0  0  0  0  0  0  0  0
  151.2806  140.8135  158.2309 H   0  0  0  0  0  0  0  0  0  0  0  0
  149.6200  141.4034  158.1623 H   0  0  0  0  0  0  0  0  0  0  0  0
  150.1873  142.7436  156.1036 H   0  0  0  0  0  0  0  0  0  0  0  0
  151.8356  142.1643  156.1723 H   0  0  0  0  0  0  0  0  0  0  0  0
  149.0089  137.2075  153.2740 H   0  0  0  0  0  0  0  0  0  0  0  0
  147.4552  136.0629  152.8990 H   0  0  0  0  0  0  0  0  0  0  0  0
  145.1506  135.9347  154.6322 H   0  0  0  0  0  0  0  0  0  0  0  0
  143.8395  137.5119  153.5347 H   0  0  0  0  0  0  0  0  0  0  0  0
  145.0116  137.6783  152.2394 H   0  0  0  0  0  0  0  0  0  0  0  0
  142.7727  135.6793  152.4639 H   0  0  0  0  0  0  0  0  0  0  0  0
  143.2932  136.5752  151.0385 H   0  0  0  0  0  0  0  0  0  0  0  0
  145.2972  135.2080  150.8311 H   0  0  0  0  0  0  0  0  0  0  0  0
  144.7696  131.3798  150.2341 H   0  0  0  0  0  0  0  0  0  0  0  0
  145.7619  132.2010  151.4467 H   0  0  0  0  0  0  0  0  0  0  0  0
  145.7145  132.8035  149.7814 H   0  0  0  0  0  0  0  0  0  0  0  0
  146.2981  134.1573  152.7353 H   0  0  0  0  0  0  0  0  0  0  0  0
  144.7528  133.9821  153.5434 H   0  0  0  0  0  0  0  0  0  0  0  0
  1  2  1  0  0  0  0
  1 19  1  0  0  0  0
  1 20  1  0  0  0  0
  1 21  1  0  0  0  0
  2  3  1  0  0  0  0
  2 22  1  0  0  0  0
  2 23  1  0  0  0  0
  3 18  1  0  0  0  0
  3  4  2  0  0  0  0
  4  5  1  0  0  0  0
  5  6  2  0  0  0  0
  6  7  1  0  0  0  0
  6 18  1  0  0  0  0
  7  8  1  0  0  0  0
  7 24  1  0  0  0  0
  8  9  2  0  0  0  0
  8 10  1  0  0  0  0
 10 11  1  0  0  0  0
 10 25  1  0  0  0  0
 11 17  1  0  0  0  0
 11 12  1  0  0  0  0
 11 26  1  0  0  0  0
 12 13  1  0  0  0  0
 12 27  1  0  0  0  0
 12 28  1  0  0  0  0
 13 14  1  0  0  0  0
 13 29  1  0  0  0  0
 13 30  1  0  0  0  0
 14 15  1  0  0  0  0
 14 17  1  0  0  0  0
 14 31  1  0  0  0  0
 15 16  1  0  0  0  0
 16 32  1  0  0  0  0
 16 33  1  0  0  0  0
 16 34  1  0  0  0  0
 17 35  1  0  0  0  0
 17 36  1  0  0  0  0
M  END
> <s_m_source_file>
AV-unprocessed.smi

> <i_m_source_file_index>
672

> <i_lp_mmshare_version>
43012

> <i_f3d_flags>
0

> <s_epik_input>
W0NIM11bQ0gyXWMxbm5jKHMxKVtOSF1DKD1PKVtOSF1bQ0BASF0yW0NIMl1bQ0gyXVtDQEhdKFtDSDJdMilTW0NIM10=

> <s_epik_cmdline>
J2VwaWtfcHl0aG9uJywgJy1waCcsICc3LjAnLCAnLXRuJywgJzgnLCAnLW1hJywgJzIwMCcsICctbWV0YWxfYmluZGluZycsICctaW1hZScsICc8aW5maWxlLm1hZT4nLCAnLW9tYWUnLCAnPG91dGZpbGUubWFlPic=

> <r_lp_tautomer_probability>
1

> <r_epik_Ionization_Penalty>
0.000422169

> <r_epik_Ionization_Penalty_Charging>
0

> <r_epik_Ionization_Penalty_Neutral>
0.000422169

> <r_epik_State_Penalty>
-0

> <r_epik_Charging_Adjusted_Penalty>
0

> <i_epik_Tot_Q>
0

> <i_epik_Tot_abs_Q>
0

> <r_epik_Metal_State_Penalty>
0.200061

> <b_epik_Metal_Only>
0

> <s_lp_Force_Field>
OPLS_2005

> <r_lp_Energy>
11.6788

> <b_lp_Chiralities_Consistent>
1

> <s_lp_Variant>
AV-unprocessed.smi:672-4

> <Gold.Version>
5.8.1

> <Gold.Id.Protein>
6NUR|6NUR_protein|mol2

> <Gold.PLP.Fitness>
34.3062

> <Gold.PLP.PLP>
-26.2420

> <Gold.PLP.part.hbond>
-3.5781

> <Gold.PLP.part.metal>
0.0000

> <Gold.PLP.part.buried>
-4.3409

> <Gold.PLP.part.nonpolar>
-18.8965

> <Gold.PLP.part.repulsive>
0.3307

> <Gold.PLP.ligand.clash>
0.0000

> <Gold.PLP.ligand.torsion>
0.1773

> <Gold.PLP.Chemscore.Hbond>
2.7960

> <Gold.PLP.Chemscore.CHOScore>
0.0000

> <Gold.PLP.Chemscore.Metal>
0.0000

> <Gold.Chemscore.Hbonds>
donor molecule, donor type, donor heavy atom, donor atom, acceptor molecule, acceptor atom, score
      L1  H     7    24       P1  7948  1.00
      L1  H    10    25       P1  7948  0.91
      P1  H  7989  7998       L1     4  0.80

> <Gold.PLP.Chemscore.Internal.Correction>
0.0307

> <Gold.Rescore>
     Score         DG    S(hbond)    S(metal)    S(lipo)     H(rot)  DE(clash)    DE(int)     intcor
     13.93     -15.35       2.02        0.00      56.51       1.37       0.06       1.36       ----

> <Gold.Chemscore.Fitness>
13.9293

> <Gold.Chemscore.DG>
-15.3514

> <Gold.Chemscore.ZeroCoef>
-5.4800

> <Gold.Chemscore.Hbond>
2.0236

> <Gold.Chemscore.Metal>
0.0000

> <Gold.Chemscore.Lipo>
56.5107

> <Gold.Chemscore.Internal_Hbond>
0.0000

> <Gold.Chemscore.DEClash>
0.0599

> <Gold.Chemscore.DEInternal>
1.3622

> <Gold.Chemscore.Rot>
1.3669

> <Gold.Chemscore.Internal.Correction>
   9.000000E+99

> <Gold.Chemscore.Hbonds>
donor molecule, donor type, donor heavy atom, donor atom, acceptor molecule, acceptor atom, score
      L1  H     7    24       P1  7948  0.96
      L1  H    10    25       P1  7948  0.90
      P1  H  7989  7998       L1     4  0.09

> <Gold.Chemscore.Hbond.Weighted>
-6.7589

> <Gold.Chemscore.Metal.Weighted>
-0.0000

> <Gold.Chemscore.Lipo.Weighted>
-6.6118

> <Gold.Chemscore.Internal_Hbond.Weighted>
0.0000

> <Gold.Chemscore.DEClash.Weighted>
0.0599

> <Gold.Chemscore.DEInternal.Weighted>
1.3622

> <Gold.Chemscore.Rot.Weighted>
3.4992

> <Gold.Chemscore.Internal.Correction.Weighted>
   9.000000E+99

> <Gold.Protein.RotatedTorsions>
[ 6907 6896 6895 6894 ] final   65.54 input  -60.11 | X-H torsion
[ 7974 7965 7964 7962 ] final -105.56 input  175.53 | X-H torsion
[ 8008 7997 7996 7995 ] final -100.47 input   59.86 | X-H torsion
[ 10167 10162 10161 10158 ] final  160.64 input  -65.29 | X-H torsion
[ 10718 10713 10712 10709 ] final  -20.86 input   66.30 | X-H torsion
[ 10763 10752 10751 10750 ] final  177.69 input  -60.55 | X-H torsion
[ 11005 11000 10999 10996 ] final -120.76 input  -57.11 | X-H torsion

> <Gold.Protein.ActiveResidues>
 VAL166  LYS551  ARG553  GLY616  TRP617  ASP618  TYR619  PRO620  LYS621  CYS622 
 ASP623  PHE694  ASN695  SER759  ASP760  ASP761  ALA762  ILE779  LEU786  VAL792 
 PHE793  MET794  SER795  GLU796  ALA797  LYS798  CYS799  TRP800  GLU811  SER814 

> <Gold.Protein.RotatedAtoms>
  152.4415  134.5581  159.9885 H   0  0  0  0  0  0  0  0  0  0  0  0  # atno 6907 bound_to 6896
  151.5677  133.3388  159.2991 H   0  0  0  0  0  0  0  0  0  0  0  0  # atno 6908 bound_to 6896
  150.8322  134.7614  159.6927 H   0  0  0  0  0  0  0  0  0  0  0  0  # atno 6909 bound_to 6896
  145.2289  140.9163  143.3216 H   0  0  0  0  0  0  0  0  0  0  0  0  # atno 7974 bound_to 7965
  154.8291  140.0440  157.1464 H   0  0  0  0  0  0  0  0  0  0  0  0  # atno 8008 bound_to 7997
  154.9172  140.3022  155.5215 H   0  0  0  0  0  0  0  0  0  0  0  0  # atno 8009 bound_to 7997
  156.2986  140.2347  156.4218 H   0  0  0  0  0  0  0  0  0  0  0  0  # atno 8010 bound_to 7997
  139.4842  144.4614  151.8700 H   0  0  0  0  0  0  0  0  0  0  0  0  # atno 10167 bound_to 10162
  156.5261  130.4644  149.6571 H   0  0  0  0  0  0  0  0  0  0  0  0  # atno 10718 bound_to 10713
  154.4978  135.2782  155.1445 H   0  0  0  0  0  0  0  0  0  0  0  0  # atno 10763 bound_to 10752
  154.3090  135.6233  153.5461 H   0  0  0  0  0  0  0  0  0  0  0  0  # atno 10764 bound_to 10752
  152.9897  135.5715  154.5414 H   0  0  0  0  0  0  0  0  0  0  0  0  # atno 10765 bound_to 10752
  141.0120  134.0250  157.3400 H   0  0  0  0  0  0  0  0  0  0  0  0  # atno 11005 bound_to 11000
  144.9695  139.3894  143.6316 LP  0  0  0  0  0  0  0  0  0  0  0  0  # atno 17320 bound_to 7965
  146.3358  139.8786  142.8828 LP  0  0  0  0  0  0  0  0  0  0  0  0  # atno 17321 bound_to 7965
  140.4076  144.2411  150.5890 LP  0  0  0  0  0  0  0  0  0  0  0  0  # atno 17342 bound_to 10162
  140.4997  143.2322  151.8697 LP  0  0  0  0  0  0  0  0  0  0  0  0  # atno 17343 bound_to 10162
  156.3103  130.7225  151.2117 LP  0  0  0  0  0  0  0  0  0  0  0  0  # atno 17370 bound_to 10713
  157.7429  131.0483  150.4987 LP  0  0  0  0  0  0  0  0  0  0  0  0  # atno 17371 bound_to 10713
  139.9095  135.0187  156.7632 LP  0  0  0  0  0  0  0  0  0  0  0  0  # atno 17394 bound_to 11000
  140.6717  133.9553  155.7860 LP  0  0  0  0  0  0  0  0  0  0  0  0  # atno 17395 bound_to 11000

$$$$
