AV-unprocessed.smi:90|AV-procd|sdf|829|dock3
  -GOLD-   2262017243D 1   1.00000     0.00000
 Structure written by MMmdl.
 64 67  0  0  0  0  0  0  0  0  2 V2000
  146.0463  143.9985  161.9209 C   0  0  0  0  0  0  0  0  0  0  0  0
  146.1376  143.8733  160.4709 N   0  0  0  0  0  0  0  0  0  0  0  0
  147.2685  144.5159  159.7992 C   0  0  0  0  0  0  0  0  0  0  0  0
  148.1074  143.5197  158.9731 C   0  0  0  0  0  0  0  0  0  0  0  0
  149.6369  143.7703  159.0197 C   0  0  2  0  0  0  0  0  0  0  0  0
  149.9504  145.2176  159.4754 C   0  0  0  0  0  0  0  0  0  0  0  0
  151.4562  145.5018  159.5111 C   0  0  0  0  0  0  0  0  0  0  0  0
  152.0734  145.1953  158.1465 C   0  0  0  0  0  0  0  0  0  0  0  0
  151.7609  143.7511  157.7352 C   0  0  0  0  0  0  0  0  0  0  0  0
  150.2962  143.4958  157.7013 N   0  3  1  0  0  0  0  0  0  0  0  0
  150.0157  142.1508  157.1411 C   0  0  0  0  0  0  0  0  0  0  0  0
  145.3958  142.9217  159.8314 C   0  0  0  0  0  0  0  0  0  0  0  0
  145.3372  141.6713  160.3657 N   0  0  0  0  0  0  0  0  0  0  0  0
  144.6168  140.7087  159.7855 C   0  0  0  0  0  0  0  0  0  0  0  0
  143.8880  140.7717  158.6723 N   0  0  0  0  0  0  0  0  0  0  0  0
  143.9480  142.0125  158.1122 C   0  0  0  0  0  0  0  0  0  0  0  0
  144.6653  143.1360  158.6207 C   0  0  0  0  0  0  0  0  0  0  0  0
  144.4762  144.2226  157.7723 N   0  0  0  0  0  0  0  0  0  0  0  0
  143.6922  143.7738  156.8325 C   0  0  0  0  0  0  0  0  0  0  0  0
  143.3393  142.4490  156.9469 N   0  0  0  0  0  0  0  0  0  0  0  0
  142.4798  141.6980  156.0405 C   0  0  0  0  0  0  0  0  0  0  0  0
  140.9638  142.0581  156.1081 C   0  0  0  0  0  0  0  0  0  0  0  0
  140.1992  141.1176  155.1278 C   0  0  0  0  0  0  0  0  0  0  0  0
  140.3764  141.4025  153.7580 O   0  0  0  0  0  0  0  0  0  0  0  0
  140.4648  141.8998  157.5685 C   0  0  0  0  0  0  0  0  0  0  0  0
  139.1556  142.6510  157.8668 C   0  0  0  0  0  0  0  0  0  0  0  0
  139.2978  144.0233  157.5266 O   0  0  0  0  0  0  0  0  0  0  0  0
  139.5190  144.2211  156.1373 C   0  0  0  0  0  0  0  0  0  0  0  0
  140.8394  143.5529  155.7064 C   0  0  0  0  0  0  0  0  0  0  0  0
  146.0887  143.0208  162.4020 H   0  0  0  0  0  0  0  0  0  0  0  0
  145.1164  144.4917  162.2037 H   0  0  0  0  0  0  0  0  0  0  0  0
  146.8681  144.5962  162.3159 H   0  0  0  0  0  0  0  0  0  0  0  0
  146.9086  145.3395  159.1830 H   0  0  0  0  0  0  0  0  0  0  0  0
  147.9001  144.9748  160.5606 H   0  0  0  0  0  0  0  0  0  0  0  0
  147.8870  142.5271  159.3627 H   0  0  0  0  0  0  0  0  0  0  0  0
  147.7691  143.5238  157.9365 H   0  0  0  0  0  0  0  0  0  0  0  0
  150.0667  143.0826  159.7502 H   0  0  0  0  0  0  0  0  0  0  0  0
  149.4609  145.9286  158.8083 H   0  0  0  0  0  0  0  0  0  0  0  0
  149.5505  145.4044  160.4714 H   0  0  0  0  0  0  0  0  0  0  0  0
  151.6385  146.5418  159.7831 H   0  0  0  0  0  0  0  0  0  0  0  0
  151.9311  144.8891  160.2786 H   0  0  0  0  0  0  0  0  0  0  0  0
  151.6830  145.8870  157.3989 H   0  0  0  0  0  0  0  0  0  0  0  0
  153.1522  145.3501  158.1815 H   0  0  0  0  0  0  0  0  0  0  0  0
  152.1906  143.5654  156.7501 H   0  0  0  0  0  0  0  0  0  0  0  0
  152.2377  143.0516  158.4240 H   0  0  0  0  0  0  0  0  0  0  0  0
  150.2547  141.3677  157.8618 H   0  0  0  0  0  0  0  0  0  0  0  0
  150.6060  141.9726  156.2415 H   0  0  0  0  0  0  0  0  0  0  0  0
  148.9725  142.0491  156.8448 H   0  0  0  0  0  0  0  0  0  0  0  0
  144.6262  139.7508  160.2844 H   0  0  0  0  0  0  0  0  0  0  0  0
  143.3555  144.3993  156.0186 H   0  0  0  0  0  0  0  0  0  0  0  0
  142.8615  141.8397  155.0284 H   0  0  0  0  0  0  0  0  0  0  0  0
  142.6175  140.6377  156.2584 H   0  0  0  0  0  0  0  0  0  0  0  0
  140.5066  140.0837  155.2869 H   0  0  0  0  0  0  0  0  0  0  0  0
  139.1268  141.1564  155.3174 H   0  0  0  0  0  0  0  0  0  0  0  0
  141.2706  141.2071  153.5235 H   0  0  0  0  0  0  0  0  0  0  0  0
  140.3533  140.8458  157.8253 H   0  0  0  0  0  0  0  0  0  0  0  0
  141.2196  142.2977  158.2478 H   0  0  0  0  0  0  0  0  0  0  0  0
  138.3042  142.2139  157.3460 H   0  0  0  0  0  0  0  0  0  0  0  0
  138.9303  142.5831  158.9313 H   0  0  0  0  0  0  0  0  0  0  0  0
  138.6661  143.8606  155.5639 H   0  0  0  0  0  0  0  0  0  0  0  0
  139.5755  145.2934  155.9490 H   0  0  0  0  0  0  0  0  0  0  0  0
  141.6459  144.1179  156.1758 H   0  0  0  0  0  0  0  0  0  0  0  0
  140.9827  143.6703  154.6316 H   0  0  0  0  0  0  0  0  0  0  0  0
  149.9109  144.1601  157.0450 H   0  0  0  0  0  0  0  0  0  0  0  0
  1  2  1  0  0  0  0
  1 30  1  0  0  0  0
  1 31  1  0  0  0  0
  1 32  1  0  0  0  0
  2  3  1  0  0  0  0
  2 12  1  0  0  0  0
  3  4  1  0  0  0  0
  3 33  1  0  0  0  0
  3 34  1  0  0  0  0
  4  5  1  0  0  0  0
  4 35  1  0  0  0  0
  4 36  1  0  0  0  0
  5 10  1  0  0  0  0
  5  6  1  0  0  0  0
  5 37  1  0  0  0  0
  6  7  1  0  0  0  0
  6 38  1  0  0  0  0
  6 39  1  0  0  0  0
  7  8  1  0  0  0  0
  7 40  1  0  0  0  0
  7 41  1  0  0  0  0
  8  9  1  0  0  0  0
  8 42  1  0  0  0  0
  8 43  1  0  0  0  0
  9 10  1  0  0  0  0
  9 44  1  0  0  0  0
  9 45  1  0  0  0  0
 10 11  1  0  0  0  0
 10 64  1  0  0  0  0
 11 46  1  0  0  0  0
 11 47  1  0  0  0  0
 11 48  1  0  0  0  0
 12 17  1  0  0  0  0
 12 13  2  0  0  0  0
 13 14  1  0  0  0  0
 14 15  2  0  0  0  0
 14 49  1  0  0  0  0
 15 16  1  0  0  0  0
 16 20  1  0  0  0  0
 16 17  2  0  0  0  0
 17 18  1  0  0  0  0
 18 19  2  0  0  0  0
 19 20  1  0  0  0  0
 19 50  1  0  0  0  0
 20 21  1  0  0  0  0
 21 22  1  0  0  0  0
 21 51  1  0  0  0  0
 21 52  1  0  0  0  0
 22 29  1  0  0  0  0
 22 23  1  0  0  0  0
 22 25  1  0  0  0  0
 23 24  1  0  0  0  0
 23 53  1  0  0  0  0
 23 54  1  0  0  0  0
 24 55  1  0  0  0  0
 25 26  1  0  0  0  0
 25 56  1  0  0  0  0
 25 57  1  0  0  0  0
 26 27  1  0  0  0  0
 26 58  1  0  0  0  0
 26 59  1  0  0  0  0
 27 28  1  0  0  0  0
 28 29  1  0  0  0  0
 28 60  1  0  0  0  0
 28 61  1  0  0  0  0
 29 62  1  0  0  0  0
 29 63  1  0  0  0  0
M  CHG  1  10   1
M  END
> <s_m_source_file>
AV-unprocessed.smi

> <i_m_source_file_index>
90

> <i_lp_mmshare_version>
43012

> <i_f3d_flags>
0

> <s_epik_input>
W0NIM11OMVtDSDJdW0NIMl1bQ0gyXVtDSDJdW0NASF0xW0NIMl1bQ0gyXU4oW0NIM10pYyhuW2NIXW4yKWMoYzIzKW5bY0hdbjNbQ0gyXUM0KFtDSDJdW09IXSlbQ0gyXVtDSDJdT1tDSDJdW0NIMl00

> <s_epik_cmdline>
J2VwaWtfcHl0aG9uJywgJy1waCcsICc3LjAnLCAnLXRuJywgJzgnLCAnLW1hJywgJzIwMCcsICctbWV0YWxfYmluZGluZycsICctaW1hZScsICc8aW5maWxlLm1hZT4nLCAnLW9tYWUnLCAnPG91dGZpbGUubWFlPic=

> <r_lp_tautomer_probability>
1

> <r_epik_Ionization_Penalty>
0.00234895

> <r_epik_Ionization_Penalty_Charging>
0.00106647

> <r_epik_Ionization_Penalty_Neutral>
0.00128248

> <r_epik_State_Penalty>
-0

> <r_epik_Charging_Adjusted_Penalty>
0.00106647

> <i_epik_Tot_Q>
1

> <i_epik_Tot_abs_Q>
1

> <r_epik_Metal_State_Penalty>
-0

> <b_epik_Metal_Only>
0

> <s_lp_Force_Field>
OPLS_2005

> <r_lp_Energy>
43.9513

> <b_lp_Chiralities_Consistent>
1

> <s_lp_Variant>
AV-unprocessed.smi:90-1

> <Gold.Version>
5.8.1

> <Gold.Id.Protein>
6NUR|6NUR_protein|mol2

> <Gold.PLP.Fitness>
45.0125

> <Gold.PLP.PLP>
-34.8023

> <Gold.PLP.part.hbond>
-5.0000

> <Gold.PLP.part.metal>
0.0000

> <Gold.PLP.part.buried>
-4.5090

> <Gold.PLP.part.nonpolar>
-26.0064

> <Gold.PLP.part.repulsive>
0.1150

> <Gold.PLP.ligand.clash>
0.0000

> <Gold.PLP.ligand.torsion>
2.1677

> <Gold.PLP.Chemscore.Hbond>
4.6720

> <Gold.PLP.Chemscore.CHOScore>
0.0000

> <Gold.PLP.Chemscore.Metal>
0.0000

> <Gold.Chemscore.Hbonds>
donor molecule, donor type, donor heavy atom, donor atom, acceptor molecule, acceptor atom, score
      L1  H    10    64       P1  8028  2.00
      L1  H    24    55       P1 10174  0.13
      P1  H  6934  6946       L1    13  1.00

> <Gold.PLP.Chemscore.Internal.Correction>
0.5297

> <Gold.Rescore>
     Score         DG    S(hbond)    S(metal)    S(lipo)     H(rot)  DE(clash)    DE(int)     intcor
     15.11     -17.32       2.66        0.00      85.03       2.73       0.12       2.08       ----

> <Gold.Chemscore.Fitness>
15.1121

> <Gold.Chemscore.DG>
-17.3161

> <Gold.Chemscore.ZeroCoef>
-5.4800

> <Gold.Chemscore.Hbond>
2.6613

> <Gold.Chemscore.Metal>
0.0000

> <Gold.Chemscore.Lipo>
85.0284

> <Gold.Chemscore.Internal_Hbond>
0.0000

> <Gold.Chemscore.DEClash>
0.1220

> <Gold.Chemscore.DEInternal>
2.0821

> <Gold.Chemscore.Rot>
2.7347

> <Gold.Chemscore.Internal.Correction>
   9.000000E+99

> <Gold.Chemscore.Hbonds>
donor molecule, donor type, donor heavy atom, donor atom, acceptor molecule, acceptor atom, score
      L1  H    10    64       P1  8028  0.78
      L1  H    24    55       P1 10174  0.01
      P1  H  6934  6946       L1    13  0.33

> <Gold.Chemscore.Hbond.Weighted>
-8.8887

> <Gold.Chemscore.Metal.Weighted>
-0.0000

> <Gold.Chemscore.Lipo.Weighted>
-9.9483

> <Gold.Chemscore.Internal_Hbond.Weighted>
0.0000

> <Gold.Chemscore.DEClash.Weighted>
0.1220

> <Gold.Chemscore.DEInternal.Weighted>
2.0821

> <Gold.Chemscore.Rot.Weighted>
7.0009

> <Gold.Chemscore.Internal.Correction.Weighted>
   9.000000E+99

> <Gold.Protein.RotatedTorsions>
[ 6907 6896 6895 6894 ] final   -6.28 input  -60.11 | X-H torsion
[ 7974 7965 7964 7962 ] final  117.77 input  175.53 | X-H torsion
[ 8008 7997 7996 7995 ] final   42.29 input   59.86 | X-H torsion
[ 10167 10162 10161 10158 ] final -108.24 input  -65.29 | X-H torsion
[ 10718 10713 10712 10709 ] final  -95.83 input   66.30 | X-H torsion
[ 10763 10752 10751 10750 ] final -112.33 input  -60.55 | X-H torsion
[ 11005 11000 10999 10996 ] final   70.39 input  -57.11 | X-H torsion

> <Gold.Protein.ActiveResidues>
 VAL166  LYS551  ARG553  GLY616  TRP617  ASP618  TYR619  PRO620  LYS621  CYS622 
 ASP623  PHE694  ASN695  SER759  ASP760  ASP761  ALA762  ILE779  LEU786  VAL792 
 PHE793  MET794  SER795  GLU796  ALA797  LYS798  CYS799  TRP800  GLU811  SER814 

> <Gold.Protein.RotatedAtoms>
  151.4681  135.1043  159.9743 H   0  0  0  0  0  0  0  0  0  0  0  0  # atno 6907 bound_to 6896
  152.4827  133.8291  159.7104 H   0  0  0  0  0  0  0  0  0  0  0  0  # atno 6908 bound_to 6896
  150.8911  133.7181  159.2931 H   0  0  0  0  0  0  0  0  0  0  0  0  # atno 6909 bound_to 6896
  145.1634  139.3142  143.4505 H   0  0  0  0  0  0  0  0  0  0  0  0  # atno 7974 bound_to 7965
  155.2836  140.3374  155.4256 H   0  0  0  0  0  0  0  0  0  0  0  0  # atno 8008 bound_to 7997
  156.2078  140.1758  156.7802 H   0  0  0  0  0  0  0  0  0  0  0  0  # atno 8009 bound_to 7997
  154.5645  140.0681  156.8854 H   0  0  0  0  0  0  0  0  0  0  0  0  # atno 8010 bound_to 7997
  140.1683  143.4064  152.1374 H   0  0  0  0  0  0  0  0  0  0  0  0  # atno 10167 bound_to 10162
  156.0050  130.5126  150.6135 H   0  0  0  0  0  0  0  0  0  0  0  0  # atno 10718 bound_to 10713
  154.8344  135.4494  154.1177 H   0  0  0  0  0  0  0  0  0  0  0  0  # atno 10763 bound_to 10752
  153.2422  135.6917  153.7777 H   0  0  0  0  0  0  0  0  0  0  0  0  # atno 10764 bound_to 10752
  153.7120  135.3355  155.3224 H   0  0  0  0  0  0  0  0  0  0  0  0  # atno 10765 bound_to 10752
  139.9600  134.7077  156.0666 H   0  0  0  0  0  0  0  0  0  0  0  0  # atno 11005 bound_to 11000
  146.3479  140.1752  142.8589 LP  0  0  0  0  0  0  0  0  0  0  0  0  # atno 17320 bound_to 7965
  145.0308  140.8869  143.5111 LP  0  0  0  0  0  0  0  0  0  0  0  0  # atno 17321 bound_to 7965
  139.5350  144.7199  151.4926 LP  0  0  0  0  0  0  0  0  0  0  0  0  # atno 17342 bound_to 10162
  140.6599  143.8521  150.6876 LP  0  0  0  0  0  0  0  0  0  0  0  0  # atno 17343 bound_to 10162
  157.3964  131.0803  151.1348 LP  0  0  0  0  0  0  0  0  0  0  0  0  # atno 17370 bound_to 10713
  157.2024  130.6400  149.5743 LP  0  0  0  0  0  0  0  0  0  0  0  0  # atno 17371 bound_to 10713
  141.1276  133.6595  156.3379 LP  0  0  0  0  0  0  0  0  0  0  0  0  # atno 17394 bound_to 11000
  140.5521  134.6017  157.5410 LP  0  0  0  0  0  0  0  0  0  0  0  0  # atno 17395 bound_to 11000

$$$$
