AV-unprocessed.smi:1665|AV-procd|sdf|6670|dock10
  -GOLD-   22720 7383D 1   1.00000     0.00000
 Structure written by MMmdl.
 37 38  0  0  0  0  0  0  0  0  1 V2000
  146.4854  132.9845  154.0363 C   0  0  0  0  0  0  0  0  0  0  0  0
  147.5914  133.0664  152.9716 C   0  0  1  0  0  0  0  0  0  0  0  0
  147.0970  133.6160  151.6161 C   0  0  0  0  0  0  0  0  0  0  0  0
  145.8439  133.0217  151.1870 N   0  0  0  0  0  0  0  0  0  0  0  0
  145.6320  131.7844  150.6157 C   0  0  0  0  0  0  0  0  0  0  0  0
  144.2902  131.6652  150.3913 C   0  0  0  0  0  0  0  0  0  0  0  0
  143.7570  132.8951  150.8690 C   0  0  0  0  0  0  0  0  0  0  0  0
  144.6889  133.7032  151.3478 N   0  0  0  0  0  0  0  0  0  0  0  0
  148.6801  133.8940  153.4809 N   0  0  0  0  0  0  0  0  0  0  0  0
  149.3567  133.6731  154.6186 C   0  0  0  0  0  0  0  0  0  0  0  0
  149.1781  132.6919  155.3394 O   0  0  0  0  0  0  0  0  0  0  0  0
  150.3833  134.7357  155.0159 C   0  0  0  0  0  0  0  0  0  0  0  0
  149.7446  136.0027  155.6252 C   0  0  0  0  0  0  0  0  0  0  0  0
  150.4791  137.2239  155.2843 N   0  0  0  0  0  0  0  0  0  0  0  0
  149.8204  138.2498  154.4889 C   0  0  0  0  0  0  0  0  0  0  0  0
  150.6498  139.5295  154.6107 C   0  0  0  0  0  0  0  0  0  0  0  0
  152.3408  139.0438  155.0126 S   0  0  0  0  0  0  0  0  0  0  0  0
  151.8232  137.4192  155.5772 C   0  0  0  0  0  0  0  0  0  0  0  0
  152.5940  136.6451  156.1415 O   0  0  0  0  0  0  0  0  0  0  0  0
  145.6893  132.3034  153.7344 H   0  0  0  0  0  0  0  0  0  0  0  0
  146.0375  133.9616  154.2196 H   0  0  0  0  0  0  0  0  0  0  0  0
  146.8825  132.6168  154.9836 H   0  0  0  0  0  0  0  0  0  0  0  0
  147.9663  132.0522  152.8206 H   0  0  0  0  0  0  0  0  0  0  0  0
  146.9614  134.6970  151.6754 H   0  0  0  0  0  0  0  0  0  0  0  0
  147.8413  133.4384  150.8381 H   0  0  0  0  0  0  0  0  0  0  0  0
  146.4443  131.1006  150.4173 H   0  0  0  0  0  0  0  0  0  0  0  0
  143.7687  130.8268  149.9540 H   0  0  0  0  0  0  0  0  0  0  0  0
  142.7276  133.2219  150.8839 H   0  0  0  0  0  0  0  0  0  0  0  0
  148.9018  134.7260  152.9537 H   0  0  0  0  0  0  0  0  0  0  0  0
  151.0593  134.2888  155.7456 H   0  0  0  0  0  0  0  0  0  0  0  0
  151.0004  135.0011  154.1559 H   0  0  0  0  0  0  0  0  0  0  0  0
  148.7021  136.0884  155.3131 H   0  0  0  0  0  0  0  0  0  0  0  0
  149.7169  135.9036  156.7111 H   0  0  0  0  0  0  0  0  0  0  0  0
  149.7902  137.9146  153.4512 H   0  0  0  0  0  0  0  0  0  0  0  0
  148.7924  138.4107  154.8160 H   0  0  0  0  0  0  0  0  0  0  0  0
  150.6157  140.1322  153.7027 H   0  0  0  0  0  0  0  0  0  0  0  0
  150.2724  140.1405  155.4313 H   0  0  0  0  0  0  0  0  0  0  0  0
  1  2  1  0  0  0  0
  1 20  1  0  0  0  0
  1 21  1  0  0  0  0
  1 22  1  0  0  0  0
  2  3  1  0  0  0  0
  2  9  1  0  0  0  0
  2 23  1  0  0  0  0
  3  4  1  0  0  0  0
  3 24  1  0  0  0  0
  3 25  1  0  0  0  0
  4  8  1  0  0  0  0
  4  5  1  0  0  0  0
  5  6  2  0  0  0  0
  5 26  1  0  0  0  0
  6  7  1  0  0  0  0
  6 27  1  0  0  0  0
  7  8  2  0  0  0  0
  7 28  1  0  0  0  0
  9 10  1  0  0  0  0
  9 29  1  0  0  0  0
 10 11  2  0  0  0  0
 10 12  1  0  0  0  0
 12 13  1  0  0  0  0
 12 30  1  0  0  0  0
 12 31  1  0  0  0  0
 13 14  1  0  0  0  0
 13 32  1  0  0  0  0
 13 33  1  0  0  0  0
 14 18  1  0  0  0  0
 14 15  1  0  0  0  0
 15 16  1  0  0  0  0
 15 34  1  0  0  0  0
 15 35  1  0  0  0  0
 16 17  1  0  0  0  0
 16 36  1  0  0  0  0
 16 37  1  0  0  0  0
 17 18  1  0  0  0  0
 18 19  2  0  0  0  0
M  END
> <s_m_source_file>
AV-unprocessed.smi

> <i_m_source_file_index>
1665

> <i_lp_mmshare_version>
43012

> <i_f3d_flags>
0

> <s_epik_input>
bjFbY0hdW2NIXVtjSF1uMVtDSDJdW0NAQEhdKFtDSDNdKVtOSF1DKD1PKVtDSDJdW0NIMl1OMltDSDJdW0NIMl1TQzI9Tw==

> <s_epik_cmdline>
J2VwaWtfcHl0aG9uJywgJy1waCcsICc3LjAnLCAnLXRuJywgJzgnLCAnLW1hJywgJzIwMCcsICctbWV0YWxfYmluZGluZycsICctaW1hZScsICc8aW5maWxlLm1hZT4nLCAnLW9tYWUnLCAnPG91dGZpbGUubWFlPic=

> <r_lp_tautomer_probability>
1

> <r_epik_Ionization_Penalty>
0.000300775

> <r_epik_Ionization_Penalty_Charging>
0

> <r_epik_Ionization_Penalty_Neutral>
0.000300775

> <r_epik_State_Penalty>
-0

> <r_epik_Charging_Adjusted_Penalty>
0

> <i_epik_Tot_Q>
0

> <i_epik_Tot_abs_Q>
0

> <r_epik_Metal_State_Penalty>
-0

> <b_epik_Metal_Only>
0

> <s_lp_Force_Field>
OPLS_2005

> <r_lp_Energy>
3.63181

> <b_lp_Chiralities_Consistent>
1

> <s_lp_Variant>
AV-unprocessed.smi:1665-2

> <Gold.Version>
5.8.1

> <Gold.Id.Protein>
6NUR|6NUR_protein|mol2

> <Gold.PLP.Fitness>
44.8564

> <Gold.PLP.PLP>
-35.1836

> <Gold.PLP.part.hbond>
-2.0000

> <Gold.PLP.part.metal>
0.0000

> <Gold.PLP.part.buried>
-2.1961

> <Gold.PLP.part.nonpolar>
-30.4454

> <Gold.PLP.part.repulsive>
0.1169

> <Gold.PLP.ligand.clash>
0.0000

> <Gold.PLP.ligand.torsion>
0.8174

> <Gold.PLP.Chemscore.Hbond>
1.7500

> <Gold.PLP.Chemscore.CHOScore>
1.9992

> <Gold.PLP.Chemscore.Metal>
0.0000

> <Gold.Chemscore.Hbonds>
donor molecule, donor type, donor heavy atom, donor atom, acceptor molecule, acceptor atom, score
      L1  H     9    29       P1  7948  0.70
      P1  H 10752 10765       L1    19  1.00
      L1  C     5    26       P1 10747  0.98
      L1  C     7    28       P1 10186  1.00

> <Gold.PLP.Chemscore.Internal.Correction>
0.0601

> <Gold.Rescore>
     Score         DG    S(hbond)    S(metal)    S(lipo)     H(rot)  DE(clash)    DE(int)     intcor
     11.51     -13.19       1.54        0.00      70.19       2.20       0.07       1.61       ----

> <Gold.Chemscore.Fitness>
11.5080

> <Gold.Chemscore.DG>
-13.1865

> <Gold.Chemscore.ZeroCoef>
-5.4800

> <Gold.Chemscore.Hbond>
1.5369

> <Gold.Chemscore.Metal>
0.0000

> <Gold.Chemscore.Lipo>
70.1884

> <Gold.Chemscore.Internal_Hbond>
0.0000

> <Gold.Chemscore.DEClash>
0.0659

> <Gold.Chemscore.DEInternal>
1.6127

> <Gold.Chemscore.Rot>
2.2026

> <Gold.Chemscore.Internal.Correction>
   9.000000E+99

> <Gold.Chemscore.Hbonds>
donor molecule, donor type, donor heavy atom, donor atom, acceptor molecule, acceptor atom, score
      L1  H     9    29       P1  7948  0.07
      P1  H 10752 10765       L1    19  0.85

> <Gold.Chemscore.Hbond.Weighted>
-5.1332

> <Gold.Chemscore.Metal.Weighted>
-0.0000

> <Gold.Chemscore.Lipo.Weighted>
-8.2120

> <Gold.Chemscore.Internal_Hbond.Weighted>
0.0000

> <Gold.Chemscore.DEClash.Weighted>
0.0659

> <Gold.Chemscore.DEInternal.Weighted>
1.6127

> <Gold.Chemscore.Rot.Weighted>
5.6387

> <Gold.Chemscore.Internal.Correction.Weighted>
   9.000000E+99

> <Gold.Protein.RotatedTorsions>
[ 6907 6896 6895 6894 ] final  -43.66 input  -60.11 | X-H torsion
[ 7974 7965 7964 7962 ] final -102.45 input  175.53 | X-H torsion
[ 8008 7997 7996 7995 ] final -162.33 input   59.86 | X-H torsion
[ 10167 10162 10161 10158 ] final -147.01 input  -65.29 | X-H torsion
[ 10718 10713 10712 10709 ] final  -35.68 input   66.30 | X-H torsion
[ 10763 10752 10751 10750 ] final -141.70 input  -60.55 | X-H torsion
[ 11005 11000 10999 10996 ] final -179.16 input  -57.11 | X-H torsion

> <Gold.Protein.ActiveResidues>
 VAL166  LYS551  ARG553  GLY616  TRP617  ASP618  TYR619  PRO620  LYS621  CYS622 
 ASP623  PHE694  ASN695  SER759  ASP760  ASP761  ALA762  ILE779  LEU786  VAL792 
 PHE793  MET794  SER795  GLU796  ALA797  LYS798  CYS799  TRP800  GLU811  SER814 

> <Gold.Protein.RotatedAtoms>
  150.9414  134.8823  159.7614 H   0  0  0  0  0  0  0  0  0  0  0  0  # atno 6907 bound_to 6896
  152.5082  134.3936  159.9402 H   0  0  0  0  0  0  0  0  0  0  0  0  # atno 6908 bound_to 6896
  151.3957  133.3734  159.2761 H   0  0  0  0  0  0  0  0  0  0  0  0  # atno 6909 bound_to 6896
  145.2686  140.9292  143.2999 H   0  0  0  0  0  0  0  0  0  0  0  0  # atno 7974 bound_to 7965
  155.8052  140.0897  157.1935 H   0  0  0  0  0  0  0  0  0  0  0  0  # atno 8008 bound_to 7997
  154.3981  140.1465  156.3380 H   0  0  0  0  0  0  0  0  0  0  0  0  # atno 8009 bound_to 7997
  155.8422  140.3438  155.5642 H   0  0  0  0  0  0  0  0  0  0  0  0  # atno 8010 bound_to 7997
  139.7661  143.8305  152.2616 H   0  0  0  0  0  0  0  0  0  0  0  0  # atno 10167 bound_to 10162
  156.3357  130.4286  149.7832 H   0  0  0  0  0  0  0  0  0  0  0  0  # atno 10718 bound_to 10713
  154.8536  135.3517  154.5910 H   0  0  0  0  0  0  0  0  0  0  0  0  # atno 10763 bound_to 10752
  153.6520  135.6993  153.5210 H   0  0  0  0  0  0  0  0  0  0  0  0  # atno 10764 bound_to 10752
  153.2886  135.4241  155.1104 H   0  0  0  0  0  0  0  0  0  0  0  0  # atno 10765 bound_to 10752
  140.4218  134.6599  157.4668 H   0  0  0  0  0  0  0  0  0  0  0  0  # atno 11005 bound_to 11000
  144.9355  139.4249  143.6474 LP  0  0  0  0  0  0  0  0  0  0  0  0  # atno 17320 bound_to 7965
  146.3253  139.8288  142.8912 LP  0  0  0  0  0  0  0  0  0  0  0  0  # atno 17321 bound_to 7965
  139.8326  144.7247  150.9431 LP  0  0  0  0  0  0  0  0  0  0  0  0  # atno 17342 bound_to 10162
  140.7811  143.4056  151.1077 LP  0  0  0  0  0  0  0  0  0  0  0  0  # atno 17343 bound_to 10162
  156.5087  130.8162  151.3160 LP  0  0  0  0  0  0  0  0  0  0  0  0  # atno 17370 bound_to 10713
  157.7438  130.9921  150.2623 LP  0  0  0  0  0  0  0  0  0  0  0  0  # atno 17371 bound_to 10713
  140.0195  134.6569  155.9260 LP  0  0  0  0  0  0  0  0  0  0  0  0  # atno 17394 bound_to 11000
  141.1781  133.6542  156.4909 LP  0  0  0  0  0  0  0  0  0  0  0  0  # atno 17395 bound_to 11000

$$$$
