AV-unprocessed.smi:2826|AV-procd|sdf|10894|dock7
  -GOLD-   2272015343D 1   1.00000     0.00000
 Structure written by MMmdl.
 50 51  0  0  0  0  0  0  0  0  1 V2000
  150.0368  128.7403  154.4334 C   0  0  0  0  0  0  0  0  0  0  0  0
  150.3745  129.6606  155.4653 O   0  0  0  0  0  0  0  0  0  0  0  0
  150.2457  131.0099  155.2071 C   0  0  0  0  0  0  0  0  0  0  0  0
  150.9493  131.9217  156.0169 C   0  0  0  0  0  0  0  0  0  0  0  0
  150.8229  133.2990  155.7577 C   0  0  0  0  0  0  0  0  0  0  0  0
  150.0018  133.7267  154.6869 C   0  0  0  0  0  0  0  0  0  0  0  0
  149.7969  135.0976  154.3645 N   0  0  0  0  0  0  0  0  0  0  0  0
  149.6854  136.1413  155.2038 C   0  0  0  0  0  0  0  0  0  0  0  0
  149.7650  136.0782  156.4306 O   0  0  0  0  0  0  0  0  0  0  0  0
  149.4978  137.2866  154.5327 N   0  0  0  0  0  0  0  0  0  0  0  0
  149.3595  138.6046  155.1455 C   0  0  2  0  0  0  0  0  0  0  0  0
  149.0574  139.6557  154.0684 C   0  0  0  0  0  0  0  0  0  0  0  0
  149.0517  141.0661  154.6781 C   0  0  0  0  0  0  0  0  0  0  0  0
  150.2943  141.3201  155.3245 O   0  0  0  0  0  0  0  0  0  0  0  0
  150.5505  140.4447  156.4203 C   0  0  2  0  0  0  0  0  0  0  0  0
  151.8563  140.8859  157.1075 C   0  0  0  0  0  0  0  0  0  0  0  0
  151.6696  141.8638  158.2881 C   0  0  0  0  0  0  0  0  0  0  0  0
  151.3963  143.2853  157.7732 C   0  0  0  0  0  0  0  0  0  0  0  0
  152.8712  141.8670  159.2487 C   0  0  0  0  0  0  0  0  0  0  0  0
  150.6437  138.9993  155.8948 C   0  0  0  0  0  0  0  0  0  0  0  0
  149.3232  132.7325  153.9413 C   0  0  0  0  0  0  0  0  0  0  0  0
  148.4047  133.0960  152.7878 C   0  0  0  0  0  0  0  0  0  0  0  0
  149.4441  131.4098  154.1897 N   0  0  0  0  0  0  0  0  0  0  0  0
  150.1964  127.7232  154.7910 H   0  0  0  0  0  0  0  0  0  0  0  0
  150.6627  128.8823  153.5513 H   0  0  0  0  0  0  0  0  0  0  0  0
  148.9880  128.8294  154.1469 H   0  0  0  0  0  0  0  0  0  0  0  0
  151.5717  131.5712  156.8270 H   0  0  0  0  0  0  0  0  0  0  0  0
  151.3442  133.9985  156.3925 H   0  0  0  0  0  0  0  0  0  0  0  0
  149.8078  135.3179  153.3794 H   0  0  0  0  0  0  0  0  0  0  0  0
  149.4508  137.2465  153.5252 H   0  0  0  0  0  0  0  0  0  0  0  0
  148.5258  138.5886  155.8505 H   0  0  0  0  0  0  0  0  0  0  0  0
  149.8118  139.6098  153.2815 H   0  0  0  0  0  0  0  0  0  0  0  0
  148.0970  139.4494  153.5947 H   0  0  0  0  0  0  0  0  0  0  0  0
  148.9033  141.8112  153.8964 H   0  0  0  0  0  0  0  0  0  0  0  0
  148.2302  141.1814  155.3868 H   0  0  0  0  0  0  0  0  0  0  0  0
  149.7264  140.5049  157.1319 H   0  0  0  0  0  0  0  0  0  0  0  0
  152.3969  140.0051  157.4568 H   0  0  0  0  0  0  0  0  0  0  0  0
  152.4975  141.3507  156.3573 H   0  0  0  0  0  0  0  0  0  0  0  0
  150.7899  141.5552  158.8538 H   0  0  0  0  0  0  0  0  0  0  0  0
  152.2385  143.6664  157.1949 H   0  0  0  0  0  0  0  0  0  0  0  0
  151.2192  143.9758  158.5985 H   0  0  0  0  0  0  0  0  0  0  0  0
  150.5142  143.3097  157.1327 H   0  0  0  0  0  0  0  0  0  0  0  0
  153.7945  142.1201  158.7269 H   0  0  0  0  0  0  0  0  0  0  0  0
  153.0107  140.8973  159.7252 H   0  0  0  0  0  0  0  0  0  0  0  0
  152.7314  142.5966  160.0468 H   0  0  0  0  0  0  0  0  0  0  0  0
  150.8214  138.3130  156.7238 H   0  0  0  0  0  0  0  0  0  0  0  0
  151.5020  138.9099  155.2269 H   0  0  0  0  0  0  0  0  0  0  0  0
  148.9457  133.6758  152.0394 H   0  0  0  0  0  0  0  0  0  0  0  0
  147.5649  133.6917  153.1458 H   0  0  0  0  0  0  0  0  0  0  0  0
  148.0040  132.2069  152.2986 H   0  0  0  0  0  0  0  0  0  0  0  0
  1  2  1  0  0  0  0
  1 24  1  0  0  0  0
  1 25  1  0  0  0  0
  1 26  1  0  0  0  0
  2  3  1  0  0  0  0
  3 23  1  0  0  0  0
  3  4  2  0  0  0  0
  4  5  1  0  0  0  0
  4 27  1  0  0  0  0
  5  6  2  0  0  0  0
  5 28  1  0  0  0  0
  6  7  1  0  0  0  0
  6 21  1  0  0  0  0
  7  8  1  0  0  0  0
  7 29  1  0  0  0  0
  8  9  2  0  0  0  0
  8 10  1  0  0  0  0
 10 11  1  0  0  0  0
 10 30  1  0  0  0  0
 11 20  1  0  0  0  0
 11 12  1  0  0  0  0
 11 31  1  0  0  0  0
 12 13  1  0  0  0  0
 12 32  1  0  0  0  0
 12 33  1  0  0  0  0
 13 14  1  0  0  0  0
 13 34  1  0  0  0  0
 13 35  1  0  0  0  0
 14 15  1  0  0  0  0
 15 16  1  0  0  0  0
 15 20  1  0  0  0  0
 15 36  1  0  0  0  0
 16 17  1  0  0  0  0
 16 37  1  0  0  0  0
 16 38  1  0  0  0  0
 17 18  1  0  0  0  0
 17 19  1  0  0  0  0
 17 39  1  0  0  0  0
 18 40  1  0  0  0  0
 18 41  1  0  0  0  0
 18 42  1  0  0  0  0
 19 43  1  0  0  0  0
 19 44  1  0  0  0  0
 19 45  1  0  0  0  0
 20 46  1  0  0  0  0
 20 47  1  0  0  0  0
 21 22  1  0  0  0  0
 21 23  2  0  0  0  0
 22 48  1  0  0  0  0
 22 49  1  0  0  0  0
 22 50  1  0  0  0  0
M  END
> <s_m_source_file>
AV-unprocessed.smi

> <i_m_source_file_index>
2826

> <i_lp_mmshare_version>
43012

> <i_f3d_flags>
0

> <s_epik_input>
W0NIM11PYzFbY0hdW2NIXWMoYyhuMSlbQ0gzXSlbTkhdQyg9TylbTkhdW0NAQEhdMltDSDJdW0NIMl1PW0NASF0oW0NIMl0yKVtDSDJdW0NIXShbQ0gzXSlbQ0gzXQ==

> <s_epik_cmdline>
J2VwaWtfcHl0aG9uJywgJy1waCcsICc3LjAnLCAnLXRuJywgJzgnLCAnLW1hJywgJzIwMCcsICctbWV0YWxfYmluZGluZycsICctaW1hZScsICc8aW5maWxlLm1hZT4nLCAnLW9tYWUnLCAnPG91dGZpbGUubWFlPic=

> <r_lp_tautomer_probability>
1

> <r_epik_Ionization_Penalty>
0.000249977

> <r_epik_Ionization_Penalty_Charging>
0

> <r_epik_Ionization_Penalty_Neutral>
0.000249977

> <r_epik_State_Penalty>
-0

> <r_epik_Charging_Adjusted_Penalty>
0

> <i_epik_Tot_Q>
0

> <i_epik_Tot_abs_Q>
0

> <r_epik_Metal_State_Penalty>
-0

> <b_epik_Metal_Only>
0

> <s_lp_Force_Field>
OPLS_2005

> <r_lp_Energy>
13.3689

> <b_lp_Chiralities_Consistent>
1

> <s_lp_Variant>
AV-unprocessed.smi:2826-3

> <Gold.Version>
5.8.1

> <Gold.Id.Protein>
6NUR|6NUR_protein|mol2

> <Gold.PLP.Fitness>
39.7999

> <Gold.PLP.PLP>
-37.1490

> <Gold.PLP.part.hbond>
-3.0000

> <Gold.PLP.part.metal>
0.0000

> <Gold.PLP.part.buried>
-2.9224

> <Gold.PLP.part.nonpolar>
-31.1947

> <Gold.PLP.part.repulsive>
0.2363

> <Gold.PLP.ligand.clash>
0.0000

> <Gold.PLP.ligand.torsion>
1.1893

> <Gold.PLP.Chemscore.Hbond>
1.6690

> <Gold.PLP.Chemscore.CHOScore>
0.0000

> <Gold.PLP.Chemscore.Metal>
0.0000

> <Gold.Chemscore.Hbonds>
donor molecule, donor type, donor heavy atom, donor atom, acceptor molecule, acceptor atom, score
      L1  H     7    29       P1  7948  0.30
      L1  H    10    30       P1  7948  0.99
      P1  H  7989  7998       L1    14  0.17

> <Gold.PLP.Chemscore.Internal.Correction>
0.0223

> <Gold.Rescore>
     Score         DG    S(hbond)    S(metal)    S(lipo)     H(rot)  DE(clash)    DE(int)     intcor
     13.85     -16.04       0.90        0.00      97.50       1.51       0.25       1.94       ----

> <Gold.Chemscore.Fitness>
13.8453

> <Gold.Chemscore.DG>
-16.0406

> <Gold.Chemscore.ZeroCoef>
-5.4800

> <Gold.Chemscore.Hbond>
0.9006

> <Gold.Chemscore.Metal>
0.0000

> <Gold.Chemscore.Lipo>
97.4992

> <Gold.Chemscore.Internal_Hbond>
0.0000

> <Gold.Chemscore.DEClash>
0.2515

> <Gold.Chemscore.DEInternal>
1.9438

> <Gold.Chemscore.Rot>
1.5057

> <Gold.Chemscore.Internal.Correction>
   9.000000E+99

> <Gold.Chemscore.Hbonds>
donor molecule, donor type, donor heavy atom, donor atom, acceptor molecule, acceptor atom, score
      L1  H    10    30       P1  7948  0.85
      P1  H  7989  7998       L1    14  0.03

> <Gold.Chemscore.Hbond.Weighted>
-3.0079

> <Gold.Chemscore.Metal.Weighted>
-0.0000

> <Gold.Chemscore.Lipo.Weighted>
-11.4074

> <Gold.Chemscore.Internal_Hbond.Weighted>
0.0000

> <Gold.Chemscore.DEClash.Weighted>
0.2515

> <Gold.Chemscore.DEInternal.Weighted>
1.9438

> <Gold.Chemscore.Rot.Weighted>
3.8547

> <Gold.Chemscore.Internal.Correction.Weighted>
   9.000000E+99

> <Gold.Protein.RotatedTorsions>
[ 6907 6896 6895 6894 ] final   23.60 input  -60.11 | X-H torsion
[ 7974 7965 7964 7962 ] final -139.15 input  175.53 | X-H torsion
[ 8008 7997 7996 7995 ] final  -63.69 input   59.86 | X-H torsion
[ 10167 10162 10161 10158 ] final   55.28 input  -65.29 | X-H torsion
[ 10718 10713 10712 10709 ] final   85.32 input   66.30 | X-H torsion
[ 10763 10752 10751 10750 ] final -141.30 input  -60.55 | X-H torsion
[ 11005 11000 10999 10996 ] final  -51.89 input  -57.11 | X-H torsion

> <Gold.Protein.ActiveResidues>
 VAL166  LYS551  ARG553  GLY616  TRP617  ASP618  TYR619  PRO620  LYS621  CYS622 
 ASP623  PHE694  ASN695  SER759  ASP760  ASP761  ALA762  ILE779  LEU786  VAL792 
 PHE793  MET794  SER795  GLU796  ALA797  LYS798  CYS799  TRP800  GLU811  SER814 

> <Gold.Protein.RotatedAtoms>
  151.9449  135.0196  160.0537 H   0  0  0  0  0  0  0  0  0  0  0  0  # atno 6907 bound_to 6896
  152.2004  133.4832  159.5064 H   0  0  0  0  0  0  0  0  0  0  0  0  # atno 6908 bound_to 6896
  150.6953  134.1514  159.4185 H   0  0  0  0  0  0  0  0  0  0  0  0  # atno 6909 bound_to 6896
  144.8700  140.6352  143.5273 H   0  0  0  0  0  0  0  0  0  0  0  0  # atno 7974 bound_to 7965
  154.4568  140.0969  156.6781 H   0  0  0  0  0  0  0  0  0  0  0  0  # atno 8008 bound_to 7997
  155.5113  140.3476  155.4370 H   0  0  0  0  0  0  0  0  0  0  0  0  # atno 8009 bound_to 7997
  156.0794  140.1369  156.9720 H   0  0  0  0  0  0  0  0  0  0  0  0  # atno 8010 bound_to 7997
  140.2211  144.3787  150.6450 H   0  0  0  0  0  0  0  0  0  0  0  0  # atno 10167 bound_to 10162
  157.6913  131.0170  150.2804 H   0  0  0  0  0  0  0  0  0  0  0  0  # atno 10718 bound_to 10713
  154.8550  135.3528  154.5846 H   0  0  0  0  0  0  0  0  0  0  0  0  # atno 10763 bound_to 10752
  153.6456  135.6996  153.5231 H   0  0  0  0  0  0  0  0  0  0  0  0  # atno 10764 bound_to 10752
  153.2935  135.4227  155.1147 H   0  0  0  0  0  0  0  0  0  0  0  0  # atno 10765 bound_to 10752
  141.0895  133.6635  156.3944 H   0  0  0  0  0  0  0  0  0  0  0  0  # atno 11005 bound_to 11000
  145.4148  139.1574  143.4106 LP  0  0  0  0  0  0  0  0  0  0  0  0  # atno 17320 bound_to 7965
  146.2923  140.4255  142.8734 LP  0  0  0  0  0  0  0  0  0  0  0  0  # atno 17321 bound_to 7965
  140.6254  143.2180  151.6608 LP  0  0  0  0  0  0  0  0  0  0  0  0  # atno 17342 bound_to 10162
  139.5144  144.3413  152.0737 LP  0  0  0  0  0  0  0  0  0  0  0  0  # atno 17343 bound_to 10162
  156.3352  130.3806  149.7456 LP  0  0  0  0  0  0  0  0  0  0  0  0  # atno 17370 bound_to 10713
  156.4983  130.8117  151.3122 LP  0  0  0  0  0  0  0  0  0  0  0  0  # atno 17371 bound_to 10713
  140.5284  134.6236  157.5342 LP  0  0  0  0  0  0  0  0  0  0  0  0  # atno 17394 bound_to 11000
  139.9719  134.7279  156.0025 LP  0  0  0  0  0  0  0  0  0  0  0  0  # atno 17395 bound_to 11000

$$$$
