AV-unprocessed.smi:21|AV-procd|sdf|148|dock2
  -GOLD-   2262015363D 1   1.00000     0.00000
 Structure written by MMmdl.
 62 65  0  0  0  0  0  0  0  0  2 V2000
  153.4229  129.3767  154.6435 C   0  0  0  0  0  0  0  0  0  0  0  0
  152.6040  130.4909  154.9619 O   0  0  0  0  0  0  0  0  0  0  0  0
  151.2388  130.1585  155.1797 C   0  0  2  0  0  0  0  0  0  0  0  0
  150.3342  131.3884  155.0944 C   0  0  0  0  0  0  0  0  0  0  0  0
  150.4168  132.0491  156.4826 C   0  0  2  0  0  0  0  0  0  0  0  0
  151.3314  133.2916  156.5267 C   0  0  0  0  0  0  0  0  0  0  0  0
  150.6802  134.5054  156.0284 N   0  0  0  0  0  0  0  0  0  0  0  0
  149.8167  134.4141  154.8568 C   0  0  0  0  0  0  0  0  0  0  0  0
  150.8092  135.6857  156.7014 C   0  0  0  0  0  0  0  0  0  0  0  0
  150.4548  135.7204  158.0149 N   0  0  0  0  0  0  0  0  0  0  0  0
  150.5509  136.8478  158.7236 C   0  0  0  0  0  0  0  0  0  0  0  0
  150.9657  138.0487  158.3232 N   0  0  0  0  0  0  0  0  0  0  0  0
  151.3229  138.0329  157.0081 C   0  0  0  0  0  0  0  0  0  0  0  0
  151.2824  136.9086  156.1314 C   0  0  0  0  0  0  0  0  0  0  0  0
  151.7209  137.2967  154.8686 N   0  0  0  0  0  0  0  0  0  0  0  0
  151.9997  138.5647  154.9910 C   0  0  0  0  0  0  0  0  0  0  0  0
  151.7685  139.0935  156.2388 N   0  0  0  0  0  0  0  0  0  0  0  0
  151.9840  140.4697  156.6497 C   0  0  0  0  0  0  0  0  0  0  0  0
  150.7990  141.1006  157.4272 C   0  0  2  0  0  0  0  0  0  0  0  0
  149.7017  141.4766  156.4011 C   0  0  0  0  0  0  0  0  0  0  0  0
  148.6280  142.1683  157.0050 O   0  0  0  0  0  0  0  0  0  0  0  0
  151.2262  142.3164  158.3074 C   0  0  1  0  0  0  0  0  0  0  0  0
  152.4952  142.1224  159.1233 C   0  0  0  0  0  0  0  0  0  0  0  0
  152.8728  143.5518  159.4798 C   0  0  0  0  0  0  0  0  0  0  0  0
  152.5806  144.2886  158.3039 O   0  0  0  0  0  0  0  0  0  0  0  0
  151.5820  143.6075  157.5493 C   0  0  0  0  0  0  0  0  0  0  0  0
  150.9507  131.0097  157.3956 N   0  3  1  0  0  0  0  0  0  0  0  0
  150.2199  130.8790  158.6739 C   0  0  0  0  0  0  0  0  0  0  0  0
  151.0813  129.7462  156.6408 C   0  0  0  0  0  0  0  0  0  0  0  0
  150.9242  129.3570  154.5092 H   0  0  0  0  0  0  0  0  0  0  0  0
  149.4081  132.3260  156.7929 H   0  0  0  0  0  0  0  0  0  0  0  0
  154.4518  129.7102  154.5089 H   0  0  0  0  0  0  0  0  0  0  0  0
  153.1092  128.8902  153.7200 H   0  0  0  0  0  0  0  0  0  0  0  0
  153.4138  128.6393  155.4470 H   0  0  0  0  0  0  0  0  0  0  0  0
  150.5815  132.0562  154.2714 H   0  0  0  0  0  0  0  0  0  0  0  0
  149.3090  131.0556  154.9260 H   0  0  0  0  0  0  0  0  0  0  0  0
  151.6830  133.4631  157.5449 H   0  0  0  0  0  0  0  0  0  0  0  0
  152.2334  133.0985  155.9451 H   0  0  0  0  0  0  0  0  0  0  0  0
  150.0512  135.2039  154.1424 H   0  0  0  0  0  0  0  0  0  0  0  0
  148.7678  134.4974  155.1419 H   0  0  0  0  0  0  0  0  0  0  0  0
  149.9445  133.4608  154.3438 H   0  0  0  0  0  0  0  0  0  0  0  0
  150.2490  136.7791  159.7584 H   0  0  0  0  0  0  0  0  0  0  0  0
  152.3712  139.1557  154.1666 H   0  0  0  0  0  0  0  0  0  0  0  0
  152.8951  140.5256  157.2464 H   0  0  0  0  0  0  0  0  0  0  0  0
  152.1821  141.0383  155.7404 H   0  0  0  0  0  0  0  0  0  0  0  0
  150.3857  140.3284  158.0780 H   0  0  0  0  0  0  0  0  0  0  0  0
  150.1153  142.0742  155.5883 H   0  0  0  0  0  0  0  0  0  0  0  0
  149.2722  140.5842  155.9454 H   0  0  0  0  0  0  0  0  0  0  0  0
  148.5596  143.0234  156.6081 H   0  0  0  0  0  0  0  0  0  0  0  0
  150.4193  142.5431  159.0066 H   0  0  0  0  0  0  0  0  0  0  0  0
  152.3481  141.5012  160.0071 H   0  0  0  0  0  0  0  0  0  0  0  0
  153.2806  141.6754  158.5123 H   0  0  0  0  0  0  0  0  0  0  0  0
  152.2511  143.9210  160.2968 H   0  0  0  0  0  0  0  0  0  0  0  0
  153.9186  143.6543  159.7699 H   0  0  0  0  0  0  0  0  0  0  0  0
  151.9946  143.3903  156.5639 H   0  0  0  0  0  0  0  0  0  0  0  0
  150.7175  144.2569  157.4208 H   0  0  0  0  0  0  0  0  0  0  0  0
  149.1886  130.5641  158.5081 H   0  0  0  0  0  0  0  0  0  0  0  0
  150.2061  131.8326  159.2032 H   0  0  0  0  0  0  0  0  0  0  0  0
  150.7052  130.1436  159.3159 H   0  0  0  0  0  0  0  0  0  0  0  0
  150.1669  129.1608  156.7512 H   0  0  0  0  0  0  0  0  0  0  0  0
  151.9111  129.1394  157.0048 H   0  0  0  0  0  0  0  0  0  0  0  0
  151.8930  131.2990  157.6176 H   0  0  0  0  0  0  0  0  0  0  0  0
  1  2  1  0  0  0  0
  1 32  1  0  0  0  0
  1 33  1  0  0  0  0
  1 34  1  0  0  0  0
  2  3  1  0  0  0  0
  3 30  1  0  0  0  0
  3 29  1  0  0  0  0
  3  4  1  0  0  0  0
  4  5  1  0  0  0  0
  4 35  1  0  0  0  0
  4 36  1  0  0  0  0
  5 31  1  0  0  0  0
  5  6  1  0  0  0  0
  5 27  1  0  0  0  0
  6  7  1  0  0  0  0
  6 37  1  0  0  0  0
  6 38  1  0  0  0  0
  7  8  1  0  0  0  0
  7  9  1  0  0  0  0
  8 39  1  0  0  0  0
  8 40  1  0  0  0  0
  8 41  1  0  0  0  0
  9 14  1  0  0  0  0
  9 10  2  0  0  0  0
 10 11  1  0  0  0  0
 11 12  2  0  0  0  0
 11 42  1  0  0  0  0
 12 13  1  0  0  0  0
 13 17  1  0  0  0  0
 13 14  2  0  0  0  0
 14 15  1  0  0  0  0
 15 16  2  0  0  0  0
 16 17  1  0  0  0  0
 16 43  1  0  0  0  0
 17 18  1  0  0  0  0
 18 19  1  0  0  0  0
 18 44  1  0  0  0  0
 18 45  1  0  0  0  0
 19 20  1  0  0  0  0
 19 22  1  0  0  0  0
 19 46  1  0  0  0  0
 20 21  1  0  0  0  0
 20 47  1  0  0  0  0
 20 48  1  0  0  0  0
 21 49  1  0  0  0  0
 22 26  1  0  0  0  0
 22 23  1  0  0  0  0
 22 50  1  0  0  0  0
 23 24  1  0  0  0  0
 23 51  1  0  0  0  0
 23 52  1  0  0  0  0
 24 25  1  0  0  0  0
 24 53  1  0  0  0  0
 24 54  1  0  0  0  0
 25 26  1  0  0  0  0
 26 55  1  0  0  0  0
 26 56  1  0  0  0  0
 27 28  1  0  0  0  0
 27 29  1  0  0  0  0
 27 62  1  0  0  0  0
 28 57  1  0  0  0  0
 28 58  1  0  0  0  0
 28 59  1  0  0  0  0
 29 60  1  0  0  0  0
 29 61  1  0  0  0  0
M  CHG  1  27   1
M  END
> <s_m_source_file>
AV-unprocessed.smi

> <i_m_source_file_index>
21

> <i_lp_mmshare_version>
43012

> <i_f3d_flags>
0

> <s_epik_input>
W0NIM11PW0NASF0xW0NIMl1bQ0BIXShOKFtDSDNdKVtDSDJdMSlbQ0gyXU4oW0NIM10pYyhuW2NIXW4yKWMoYzIzKW5bY0hdbjNbQ0gyXVtDQEhdKFtDSDJdW09IXSlbQ0BASF00W0NIMl1bQ0gyXU9bQ0gyXTQ=

> <s_epik_cmdline>
J2VwaWtfcHl0aG9uJywgJy1waCcsICc3LjAnLCAnLXRuJywgJzgnLCAnLW1hJywgJzIwMCcsICctbWV0YWxfYmluZGluZycsICctaW1hZScsICc8aW5maWxlLm1hZT4nLCAnLW9tYWUnLCAnPG91dGZpbGUubWFlPic=

> <r_lp_tautomer_probability>
1

> <r_epik_Ionization_Penalty>
0.0157465

> <r_epik_Ionization_Penalty_Charging>
0.015354

> <r_epik_Ionization_Penalty_Neutral>
0.000392529

> <r_epik_State_Penalty>
0.0120612

> <r_epik_Charging_Adjusted_Penalty>
0.0274152

> <i_epik_Tot_Q>
1

> <i_epik_Tot_abs_Q>
1

> <r_epik_Metal_State_Penalty>
0.0121253

> <b_epik_Metal_Only>
0

> <s_lp_Force_Field>
OPLS_2005

> <r_lp_Energy>
58.7805

> <b_lp_Chiralities_Consistent>
1

> <s_lp_Variant>
AV-unprocessed.smi:21-28

> <Gold.Version>
5.8.1

> <Gold.Id.Protein>
6NUR|6NUR_protein|mol2

> <Gold.PLP.Fitness>
47.0598

> <Gold.PLP.PLP>
-43.7659

> <Gold.PLP.part.hbond>
-3.0000

> <Gold.PLP.part.metal>
0.0000

> <Gold.PLP.part.buried>
-6.5185

> <Gold.PLP.part.nonpolar>
-35.7636

> <Gold.PLP.part.repulsive>
0.2070

> <Gold.PLP.ligand.clash>
0.0000

> <Gold.PLP.ligand.torsion>
2.2068

> <Gold.PLP.Chemscore.Hbond>
2.4645

> <Gold.PLP.Chemscore.CHOScore>
0.0000

> <Gold.PLP.Chemscore.Metal>
0.0000

> <Gold.Chemscore.Hbonds>
donor molecule, donor type, donor heavy atom, donor atom, acceptor molecule, acceptor atom, score
      L1  H    21    49       P1  8028  1.00
      P1  H  6896  6907       L1    10  0.52
      P1  H 10752 10763       L1    15  0.66

> <Gold.PLP.Chemscore.Internal.Correction>
0.3140

> <Gold.Rescore>
     Score         DG    S(hbond)    S(metal)    S(lipo)     H(rot)  DE(clash)    DE(int)     intcor
     13.44     -15.91       1.93        0.00     101.25       3.08       0.24       2.23       ----

> <Gold.Chemscore.Fitness>
13.4354

> <Gold.Chemscore.DG>
-15.9081

> <Gold.Chemscore.ZeroCoef>
-5.4800

> <Gold.Chemscore.Hbond>
1.9328

> <Gold.Chemscore.Metal>
0.0000

> <Gold.Chemscore.Lipo>
101.2525

> <Gold.Chemscore.Internal_Hbond>
0.0000

> <Gold.Chemscore.DEClash>
0.2421

> <Gold.Chemscore.DEInternal>
2.2307

> <Gold.Chemscore.Rot>
3.0758

> <Gold.Chemscore.Internal.Correction>
   9.000000E+99

> <Gold.Chemscore.Hbonds>
donor molecule, donor type, donor heavy atom, donor atom, acceptor molecule, acceptor atom, score
      L1  H    21    49       P1  8028  0.77
      P1  H  6896  6907       L1    10  0.09
      P1  H 10752 10763       L1    15  0.09

> <Gold.Chemscore.Hbond.Weighted>
-6.4557

> <Gold.Chemscore.Metal.Weighted>
-0.0000

> <Gold.Chemscore.Lipo.Weighted>
-11.8465

> <Gold.Chemscore.Internal_Hbond.Weighted>
0.0000

> <Gold.Chemscore.DEClash.Weighted>
0.2421

> <Gold.Chemscore.DEInternal.Weighted>
2.2307

> <Gold.Chemscore.Rot.Weighted>
7.8741

> <Gold.Chemscore.Internal.Correction.Weighted>
   9.000000E+99

> <Gold.Protein.RotatedTorsions>
[ 6907 6896 6895 6894 ] final  -77.50 input  -60.11 | X-H torsion
[ 7974 7965 7964 7962 ] final   61.38 input  175.53 | X-H torsion
[ 8008 7997 7996 7995 ] final  -26.37 input   59.86 | X-H torsion
[ 10167 10162 10161 10158 ] final   97.04 input  -65.29 | X-H torsion
[ 10718 10713 10712 10709 ] final  150.98 input   66.30 | X-H torsion
[ 10763 10752 10751 10750 ] final   57.03 input  -60.55 | X-H torsion
[ 11005 11000 10999 10996 ] final -100.73 input  -57.11 | X-H torsion

> <Gold.Protein.ActiveResidues>
 VAL166  LYS551  ARG553  GLY616  TRP617  ASP618  TYR619  PRO620  LYS621  CYS622 
 ASP623  PHE694  ASN695  SER759  ASP760  ASP761  ALA762  ILE779  LEU786  VAL792 
 PHE793  MET794  SER795  GLU796  ALA797  LYS798  CYS799  TRP800  GLU811  SER814 

> <Gold.Protein.RotatedAtoms>
  150.6997  134.4413  159.5293 H   0  0  0  0  0  0  0  0  0  0  0  0  # atno 6907 bound_to 6896
  152.2122  134.8488  160.0505 H   0  0  0  0  0  0  0  0  0  0  0  0  # atno 6908 bound_to 6896
  151.9369  133.3592  159.3988 H   0  0  0  0  0  0  0  0  0  0  0  0  # atno 6909 bound_to 6896
  145.8853  139.3472  143.0681 H   0  0  0  0  0  0  0  0  0  0  0  0  # atno 7974 bound_to 7965
  154.4428  140.1901  156.0765 H   0  0  0  0  0  0  0  0  0  0  0  0  # atno 8008 bound_to 7997
  156.0472  140.3313  155.7283 H   0  0  0  0  0  0  0  0  0  0  0  0  # atno 8009 bound_to 7997
  155.5612  140.0604  157.2819 H   0  0  0  0  0  0  0  0  0  0  0  0  # atno 8010 bound_to 7997
  139.7838  144.6878  150.9986 H   0  0  0  0  0  0  0  0  0  0  0  0  # atno 10167 bound_to 10162
  157.2765  131.0827  151.1562 H   0  0  0  0  0  0  0  0  0  0  0  0  # atno 10718 bound_to 10713
  152.9842  135.5656  154.5324 H   0  0  0  0  0  0  0  0  0  0  0  0  # atno 10763 bound_to 10752
  154.4793  135.2788  155.1585 H   0  0  0  0  0  0  0  0  0  0  0  0  # atno 10764 bound_to 10752
  154.3100  135.6290  153.5514 H   0  0  0  0  0  0  0  0  0  0  0  0  # atno 10765 bound_to 10752
  141.1259  133.8422  157.1141 H   0  0  0  0  0  0  0  0  0  0  0  0  # atno 11005 bound_to 11000
  145.8974  140.9265  143.0521 LP  0  0  0  0  0  0  0  0  0  0  0  0  # atno 17320 bound_to 7965
  144.6728  140.0986  143.7461 LP  0  0  0  0  0  0  0  0  0  0  0  0  # atno 17321 bound_to 7965
  140.7819  143.4455  151.0489 LP  0  0  0  0  0  0  0  0  0  0  0  0  # atno 17342 bound_to 10162
  139.8134  143.7919  152.3173 LP  0  0  0  0  0  0  0  0  0  0  0  0  # atno 17343 bound_to 10162
  157.3013  130.6844  149.6165 LP  0  0  0  0  0  0  0  0  0  0  0  0  # atno 17370 bound_to 10713
  155.9664  130.4391  150.5245 LP  0  0  0  0  0  0  0  0  0  0  0  0  # atno 17371 bound_to 10713
  140.0257  134.9925  157.0681 LP  0  0  0  0  0  0  0  0  0  0  0  0  # atno 17394 bound_to 11000
  140.4366  134.1724  155.7171 LP  0  0  0  0  0  0  0  0  0  0  0  0  # atno 17395 bound_to 11000

$$$$
