AV-unprocessed.smi:528|AV-procd|sdf|2834|dock2
  -GOLD-   2262023323D 1   1.00000     0.00000
 Structure written by MMmdl.
 45 47  0  0  0  0  0  0  0  0  1 V2000
  151.3361  137.2449  157.1568 C   0  0  0  0  0  0  0  0  0  0  0  0
  150.0205  137.4064  156.3775 C   0  0  1  0  0  0  0  0  0  0  0  0
  148.9172  137.3983  157.3366 N   0  0  0  0  0  0  0  0  0  0  0  0
  148.7106  136.4803  158.2941 C   0  0  0  0  0  0  0  0  0  0  0  0
  149.4696  135.5334  158.5047 O   0  0  0  0  0  0  0  0  0  0  0  0
  147.4497  136.6701  159.1476 C   0  0  0  0  0  0  0  0  0  0  0  0
  147.3493  135.6854  160.2376 N   0  0  0  0  0  0  0  0  0  0  0  0
  147.1200  134.3434  159.8757 C   0  0  0  0  0  0  0  0  0  0  0  0
  146.9910  133.3527  160.7789 C   0  0  0  0  0  0  0  0  0  0  0  0
  146.7971  131.9045  160.3566 C   0  0  0  0  0  0  0  0  0  0  0  0
  146.7906  131.0934  161.4146 F   0  0  0  0  0  0  0  0  0  0  0  0
  145.6329  131.7696  159.7234 F   0  0  0  0  0  0  0  0  0  0  0  0
  147.7668  131.5087  159.5312 F   0  0  0  0  0  0  0  0  0  0  0  0
  147.1341  133.7268  162.1722 C   0  0  0  0  0  0  0  0  0  0  0  0
  147.3605  135.0044  162.5352 C   0  0  0  0  0  0  0  0  0  0  0  0
  147.4756  136.0748  161.5422 C   0  0  0  0  0  0  0  0  0  0  0  0
  147.6744  137.2473  161.8624 O   0  0  0  0  0  0  0  0  0  0  0  0
  149.9918  138.7074  155.5353 C   0  0  1  0  0  0  0  0  0  0  0  0
  148.7182  138.8491  154.6655 C   0  0  0  0  0  0  0  0  0  0  0  0
  148.1696  140.2321  155.0584 C   0  0  2  0  0  0  0  0  0  0  0  0
  149.1059  141.3292  154.5211 C   0  0  0  0  0  0  0  0  0  0  0  0
  150.3355  141.2009  155.4387 C   0  0  0  0  0  0  0  0  0  0  0  0
  149.9543  140.0237  156.3567 C   0  0  1  0  0  0  0  0  0  0  0  0
  148.4615  140.2641  156.5526 C   0  0  0  0  0  0  0  0  0  0  0  0
  152.1956  137.1904  156.4890 H   0  0  0  0  0  0  0  0  0  0  0  0
  151.3292  136.3292  157.7488 H   0  0  0  0  0  0  0  0  0  0  0  0
  151.4989  138.0796  157.8394 H   0  0  0  0  0  0  0  0  0  0  0  0
  149.9327  136.5525  155.7041 H   0  0  0  0  0  0  0  0  0  0  0  0
  148.2379  138.1400  157.2455 H   0  0  0  0  0  0  0  0  0  0  0  0
  147.4570  137.6874  159.5408 H   0  0  0  0  0  0  0  0  0  0  0  0
  146.5612  136.6141  158.5152 H   0  0  0  0  0  0  0  0  0  0  0  0
  147.0515  134.1697  158.8116 H   0  0  0  0  0  0  0  0  0  0  0  0
  147.0525  132.9708  162.9393 H   0  0  0  0  0  0  0  0  0  0  0  0
  147.4579  135.2473  163.5832 H   0  0  0  0  0  0  0  0  0  0  0  0
  150.8761  138.7113  154.8957 H   0  0  0  0  0  0  0  0  0  0  0  0
  148.9341  138.7749  153.5991 H   0  0  0  0  0  0  0  0  0  0  0  0
  147.9811  138.0820  154.9058 H   0  0  0  0  0  0  0  0  0  0  0  0
  147.1233  140.3792  154.7895 H   0  0  0  0  0  0  0  0  0  0  0  0
  149.3535  141.1812  153.4694 H   0  0  0  0  0  0  0  0  0  0  0  0
  148.6517  142.3153  154.6242 H   0  0  0  0  0  0  0  0  0  0  0  0
  151.2557  141.0180  154.8828 H   0  0  0  0  0  0  0  0  0  0  0  0
  150.4749  142.1133  156.0201 H   0  0  0  0  0  0  0  0  0  0  0  0
  150.5372  140.0103  157.2770 H   0  0  0  0  0  0  0  0  0  0  0  0
  148.2352  141.2252  157.0176 H   0  0  0  0  0  0  0  0  0  0  0  0
  147.9617  139.4715  157.1114 H   0  0  0  0  0  0  0  0  0  0  0  0
  1  2  1  0  0  0  0
  1 25  1  0  0  0  0
  1 26  1  0  0  0  0
  1 27  1  0  0  0  0
  2  3  1  0  0  0  0
  2 18  1  0  0  0  0
  2 28  1  0  0  0  0
  3  4  1  0  0  0  0
  3 29  1  0  0  0  0
  4  5  2  0  0  0  0
  4  6  1  0  0  0  0
  6  7  1  0  0  0  0
  6 30  1  0  0  0  0
  6 31  1  0  0  0  0
  7 16  1  0  0  0  0
  7  8  1  0  0  0  0
  8  9  2  0  0  0  0
  8 32  1  0  0  0  0
  9 10  1  0  0  0  0
  9 14  1  0  0  0  0
 10 11  1  0  0  0  0
 10 12  1  0  0  0  0
 10 13  1  0  0  0  0
 14 15  2  0  0  0  0
 14 33  1  0  0  0  0
 15 16  1  0  0  0  0
 15 34  1  0  0  0  0
 16 17  2  0  0  0  0
 18 23  1  0  0  0  0
 18 19  1  0  0  0  0
 18 35  1  0  0  0  0
 19 20  1  0  0  0  0
 19 36  1  0  0  0  0
 19 37  1  0  0  0  0
 20 24  1  0  0  0  0
 20 21  1  0  0  0  0
 20 38  1  0  0  0  0
 21 22  1  0  0  0  0
 21 39  1  0  0  0  0
 21 40  1  0  0  0  0
 22 23  1  0  0  0  0
 22 41  1  0  0  0  0
 22 42  1  0  0  0  0
 23 24  1  0  0  0  0
 23 43  1  0  0  0  0
 24 44  1  0  0  0  0
 24 45  1  0  0  0  0
M  END
> <s_m_source_file>
AV-unprocessed.smi

> <i_m_source_file_index>
528

> <i_lp_mmshare_version>
43012

> <i_f3d_flags>
0

> <s_epik_input>
W0NIMl0xW0NIMl1bQ0BASF0oW0NIMl0yKVtDQEBIXShbQ0gyXVtDQEhdMTIpW0NASF0oW0NIM10pW05IXUMoPU8pW0NIMl1uM1tjSF1jKEMoRikoRilGKVtjSF1bY0hdYzM9Tw==

> <s_epik_cmdline>
J2VwaWtfcHl0aG9uJywgJy1waCcsICc3LjAnLCAnLXRuJywgJzgnLCAnLW1hJywgJzIwMCcsICctbWV0YWxfYmluZGluZycsICctaW1hZScsICc8aW5maWxlLm1hZT4nLCAnLW9tYWUnLCAnPG91dGZpbGUubWFlPic=

> <r_lp_tautomer_probability>
1

> <r_epik_Ionization_Penalty>
4.09479e-08

> <r_epik_Ionization_Penalty_Charging>
1.9321e-08

> <r_epik_Ionization_Penalty_Neutral>
2.16269e-08

> <r_epik_State_Penalty>
-0

> <r_epik_Charging_Adjusted_Penalty>
1.9321e-08

> <i_epik_Tot_Q>
0

> <i_epik_Tot_abs_Q>
0

> <r_epik_Metal_State_Penalty>
-0

> <b_epik_Metal_Only>
0

> <s_lp_Force_Field>
OPLS_2005

> <r_lp_Energy>
62.5946

> <b_lp_Chiralities_Consistent>
1

> <s_lp_Variant>
AV-unprocessed.smi:528-4

> <Gold.Version>
5.8.1

> <Gold.Id.Protein>
6NUR|6NUR_protein|mol2

> <Gold.PLP.Fitness>
43.0302

> <Gold.PLP.PLP>
-35.4317

> <Gold.PLP.part.hbond>
-3.0000

> <Gold.PLP.part.metal>
0.0000

> <Gold.PLP.part.buried>
-4.7948

> <Gold.PLP.part.nonpolar>
-28.2974

> <Gold.PLP.part.repulsive>
0.0353

> <Gold.PLP.ligand.clash>
0.0000

> <Gold.PLP.ligand.torsion>
0.2125

> <Gold.PLP.Chemscore.Hbond>
2.6480

> <Gold.PLP.Chemscore.CHOScore>
0.0000

> <Gold.PLP.Chemscore.Metal>
0.0000

> <Gold.Chemscore.Hbonds>
donor molecule, donor type, donor heavy atom, donor atom, acceptor molecule, acceptor atom, score
      P1  H  6896  6909       L1     5  1.00
      P1  H  6931  6943       L1    17  0.98
      P1  H  6934  6947       L1    17  0.62

> <Gold.PLP.Chemscore.Internal.Correction>
0.0795

> <Gold.Rescore>
     Score         DG    S(hbond)    S(metal)    S(lipo)     H(rot)  DE(clash)    DE(int)     intcor
     16.42     -18.90       2.64        0.00      76.80       1.71       0.08       2.39       ----

> <Gold.Chemscore.Fitness>
16.4246

> <Gold.Chemscore.DG>
-18.9002

> <Gold.Chemscore.ZeroCoef>
-5.4800

> <Gold.Chemscore.Hbond>
2.6403

> <Gold.Chemscore.Metal>
0.0000

> <Gold.Chemscore.Lipo>
76.8007

> <Gold.Chemscore.Internal_Hbond>
0.0000

> <Gold.Chemscore.DEClash>
0.0832

> <Gold.Chemscore.DEInternal>
2.3925

> <Gold.Chemscore.Rot>
1.7125

> <Gold.Chemscore.Internal.Correction>
   9.000000E+99

> <Gold.Chemscore.Hbonds>
donor molecule, donor type, donor heavy atom, donor atom, acceptor molecule, acceptor atom, score
      P1  H  6896  6909       L1     5  0.99
      P1  H  6931  6943       L1    17  0.93
      P1  H  6934  6947       L1    17  0.59

> <Gold.Chemscore.Hbond.Weighted>
-8.8185

> <Gold.Chemscore.Metal.Weighted>
-0.0000

> <Gold.Chemscore.Lipo.Weighted>
-8.9857

> <Gold.Chemscore.Internal_Hbond.Weighted>
0.0000

> <Gold.Chemscore.DEClash.Weighted>
0.0832

> <Gold.Chemscore.DEInternal.Weighted>
2.3925

> <Gold.Chemscore.Rot.Weighted>
4.3840

> <Gold.Chemscore.Internal.Correction.Weighted>
   9.000000E+99

> <Gold.Protein.RotatedTorsions>
[ 6907 6896 6895 6894 ] final   64.14 input  -60.11 | X-H torsion
[ 7974 7965 7964 7962 ] final   71.50 input  175.53 | X-H torsion
[ 8008 7997 7996 7995 ] final -125.17 input   59.86 | X-H torsion
[ 10167 10162 10161 10158 ] final  171.65 input  -65.29 | X-H torsion
[ 10718 10713 10712 10709 ] final  157.60 input   66.30 | X-H torsion
[ 10763 10752 10751 10750 ] final   15.66 input  -60.55 | X-H torsion
[ 11005 11000 10999 10996 ] final    8.56 input  -57.11 | X-H torsion

> <Gold.Protein.ActiveResidues>
 VAL166  LYS551  ARG553  GLY616  TRP617  ASP618  TYR619  PRO620  LYS621  CYS622 
 ASP623  PHE694  ASN695  SER759  ASP760  ASP761  ALA762  ILE779  LEU786  VAL792 
 PHE793  MET794  SER795  GLU796  ALA797  LYS798  CYS799  TRP800  GLU811  SER814 

> <Gold.Protein.RotatedAtoms>
  152.4309  134.5780  159.9939 H   0  0  0  0  0  0  0  0  0  0  0  0  # atno 6907 bound_to 6896
  151.5904  133.3361  159.3034 H   0  0  0  0  0  0  0  0  0  0  0  0  # atno 6908 bound_to 6896
  150.8201  134.7441  159.6830 H   0  0  0  0  0  0  0  0  0  0  0  0  # atno 6909 bound_to 6896
  145.7650  139.2817  143.1354 H   0  0  0  0  0  0  0  0  0  0  0  0  # atno 7974 bound_to 7965
  155.2089  140.0418  157.2930 H   0  0  0  0  0  0  0  0  0  0  0  0  # atno 8008 bound_to 7997
  154.6025  140.2455  155.7746 H   0  0  0  0  0  0  0  0  0  0  0  0  # atno 8009 bound_to 7997
  156.2329  140.2932  156.0246 H   0  0  0  0  0  0  0  0  0  0  0  0  # atno 8010 bound_to 7997
  139.5053  144.3462  151.9969 H   0  0  0  0  0  0  0  0  0  0  0  0  # atno 10167 bound_to 10162
  157.1893  131.0651  151.2088 H   0  0  0  0  0  0  0  0  0  0  0  0  # atno 10718 bound_to 10713
  153.1504  135.6777  153.8891 H   0  0  0  0  0  0  0  0  0  0  0  0  # atno 10763 bound_to 10752
  153.8320  135.3116  155.3420 H   0  0  0  0  0  0  0  0  0  0  0  0  # atno 10764 bound_to 10752
  154.7857  135.4863  154.0028 H   0  0  0  0  0  0  0  0  0  0  0  0  # atno 10765 bound_to 10752
  140.5356  134.0424  155.7887 H   0  0  0  0  0  0  0  0  0  0  0  0  # atno 11005 bound_to 11000
  146.0227  140.8333  142.9915 LP  0  0  0  0  0  0  0  0  0  0  0  0  # atno 17320 bound_to 7965
  144.6823  140.2652  143.7313 LP  0  0  0  0  0  0  0  0  0  0  0  0  # atno 17321 bound_to 7965
  140.2899  144.3765  150.6092 LP  0  0  0  0  0  0  0  0  0  0  0  0  # atno 17342 bound_to 10162
  140.5954  143.2167  151.7173 LP  0  0  0  0  0  0  0  0  0  0  0  0  # atno 17343 bound_to 10162
  157.3876  130.7265  149.6674 LP  0  0  0  0  0  0  0  0  0  0  0  0  # atno 17370 bound_to 10713
  155.9714  130.4155  150.4185 LP  0  0  0  0  0  0  0  0  0  0  0  0  # atno 17371 bound_to 10713
  141.1256  133.9388  157.2641 LP  0  0  0  0  0  0  0  0  0  0  0  0  # atno 17394 bound_to 11000
  139.9531  135.0171  156.9050 LP  0  0  0  0  0  0  0  0  0  0  0  0  # atno 17395 bound_to 11000

$$$$
