AV-unprocessed.smi:1809|AV-procd|sdf|7319|dock3
  -GOLD-   22720 8573D 1   1.00000     0.00000
 Structure written by MMmdl.
 39 41  0  0  0  0  0  0  0  0  1 V2000
  141.6673  145.8988  160.7699 C   0  0  0  0  0  0  0  0  0  0  0  0
  142.9775  145.2810  160.4184 C   0  0  0  0  0  0  0  0  0  0  0  0
  143.3358  144.0574  160.8264 N   0  0  0  0  0  0  0  0  0  0  0  0
  144.6008  143.7029  160.3788 N   0  0  0  0  0  0  0  0  0  0  0  0
  145.1616  144.6739  159.6449 C   0  0  0  0  0  0  0  0  0  0  0  0
  146.4534  144.5777  159.0631 N   0  0  0  0  0  0  0  0  0  0  0  0
  147.3839  143.6255  159.2520 C   0  0  0  0  0  0  0  0  0  0  0  0
  147.2597  142.6459  159.9872 O   0  0  0  0  0  0  0  0  0  0  0  0
  148.4864  143.8786  158.5324 N   0  0  0  0  0  0  0  0  0  0  0  0
  149.7026  143.0720  158.5356 C   0  0  0  0  0  0  0  0  0  0  0  0
  150.9634  143.9580  158.6169 C   0  0  2  0  0  0  0  0  0  0  0  0
  152.2698  143.1372  158.7393 C   0  0  0  0  0  0  0  0  0  0  0  0
  152.4252  142.6115  160.0824 N   0  0  0  0  0  0  0  0  0  0  0  0
  153.6519  141.9026  160.3651 C   0  0  0  0  0  0  0  0  0  0  0  0
  153.7096  141.8414  161.9010 C   0  0  0  0  0  0  0  0  0  0  0  0
  152.7753  142.9800  162.3665 C   0  0  0  0  0  0  0  0  0  0  0  0
  152.3989  143.6705  161.0540 C   0  0  2  0  0  0  0  0  0  0  0  0
  151.0582  144.4140  161.0061 C   0  0  0  0  0  0  0  0  0  0  0  0
  150.8702  144.9201  159.6802 O   0  0  0  0  0  0  0  0  0  0  0  0
  144.1772  146.1121  159.4357 S   0  0  0  0  0  0  0  0  0  0  0  0
  140.9989  145.1592  161.2121 H   0  0  0  0  0  0  0  0  0  0  0  0
  141.1941  146.3056  159.8761 H   0  0  0  0  0  0  0  0  0  0  0  0
  141.8180  146.7068  161.4858 H   0  0  0  0  0  0  0  0  0  0  0  0
  146.7018  145.3277  158.4353 H   0  0  0  0  0  0  0  0  0  0  0  0
  148.4959  144.7064  157.9549 H   0  0  0  0  0  0  0  0  0  0  0  0
  149.6844  142.3284  159.3336 H   0  0  0  0  0  0  0  0  0  0  0  0
  149.7173  142.5072  157.6032 H   0  0  0  0  0  0  0  0  0  0  0  0
  151.0206  144.5258  157.6875 H   0  0  0  0  0  0  0  0  0  0  0  0
  152.2811  142.3241  158.0128 H   0  0  0  0  0  0  0  0  0  0  0  0
  153.1179  143.7802  158.4997 H   0  0  0  0  0  0  0  0  0  0  0  0
  153.6619  140.9146  159.9041 H   0  0  0  0  0  0  0  0  0  0  0  0
  154.5075  142.4631  159.9844 H   0  0  0  0  0  0  0  0  0  0  0  0
  153.3458  140.8805  162.2666 H   0  0  0  0  0  0  0  0  0  0  0  0
  154.7298  141.9733  162.2624 H   0  0  0  0  0  0  0  0  0  0  0  0
  151.8917  142.5651  162.8535 H   0  0  0  0  0  0  0  0  0  0  0  0
  153.2598  143.6625  163.0654 H   0  0  0  0  0  0  0  0  0  0  0  0
  153.1899  144.3856  160.8176 H   0  0  0  0  0  0  0  0  0  0  0  0
  150.2362  143.7547  161.2848 H   0  0  0  0  0  0  0  0  0  0  0  0
  151.0538  145.2461  161.7100 H   0  0  0  0  0  0  0  0  0  0  0  0
  1  2  1  0  0  0  0
  1 21  1  0  0  0  0
  1 22  1  0  0  0  0
  1 23  1  0  0  0  0
  2 20  1  0  0  0  0
  2  3  2  0  0  0  0
  3  4  1  0  0  0  0
  4  5  2  0  0  0  0
  5  6  1  0  0  0  0
  5 20  1  0  0  0  0
  6  7  1  0  0  0  0
  6 24  1  0  0  0  0
  7  8  2  0  0  0  0
  7  9  1  0  0  0  0
  9 10  1  0  0  0  0
  9 25  1  0  0  0  0
 10 11  1  0  0  0  0
 10 26  1  0  0  0  0
 10 27  1  0  0  0  0
 11 19  1  0  0  0  0
 11 12  1  0  0  0  0
 11 28  1  0  0  0  0
 12 13  1  0  0  0  0
 12 29  1  0  0  0  0
 12 30  1  0  0  0  0
 13 17  1  0  0  0  0
 13 14  1  0  0  0  0
 14 15  1  0  0  0  0
 14 31  1  0  0  0  0
 14 32  1  0  0  0  0
 15 16  1  0  0  0  0
 15 33  1  0  0  0  0
 15 34  1  0  0  0  0
 16 17  1  0  0  0  0
 16 35  1  0  0  0  0
 16 36  1  0  0  0  0
 17 18  1  0  0  0  0
 17 37  1  0  0  0  0
 18 19  1  0  0  0  0
 18 38  1  0  0  0  0
 18 39  1  0  0  0  0
M  END
> <s_m_source_file>
AV-unprocessed.smi

> <i_m_source_file_index>
1809

> <i_lp_mmshare_version>
43012

> <i_f3d_flags>
0

> <s_epik_input>
W0NIM11jMW5uYyhzMSlbTkhdQyg9TylbTkhdW0NIMl1bQ0BIXShbQ0gyXTIpT1tDSDJdW0NAQEhdKE4yMylbQ0gyXVtDSDJdW0NIMl0z

> <s_epik_cmdline>
J2VwaWtfcHl0aG9uJywgJy1waCcsICc3LjAnLCAnLXRuJywgJzgnLCAnLW1hJywgJzIwMCcsICctbWV0YWxfYmluZGluZycsICctaW1hZScsICc8aW5maWxlLm1hZT4nLCAnLW9tYWUnLCAnPG91dGZpbGUubWFlPic=

> <r_lp_tautomer_probability>
1

> <r_epik_Ionization_Penalty>
1.05954

> <r_epik_Ionization_Penalty_Charging>
0

> <r_epik_Ionization_Penalty_Neutral>
1.05954

> <r_epik_State_Penalty>
1.4238

> <r_epik_Charging_Adjusted_Penalty>
1.4238

> <i_epik_Tot_Q>
0

> <i_epik_Tot_abs_Q>
0

> <r_epik_Metal_State_Penalty>
1.7901

> <b_epik_Metal_Only>
0

> <s_lp_Force_Field>
OPLS_2005

> <r_lp_Energy>
48.8115

> <b_lp_Chiralities_Consistent>
1

> <s_lp_Variant>
AV-unprocessed.smi:1809-11

> <Gold.Version>
5.8.1

> <Gold.Id.Protein>
6NUR|6NUR_protein|mol2

> <Gold.PLP.Fitness>
44.3469

> <Gold.PLP.PLP>
-34.3302

> <Gold.PLP.part.hbond>
-4.8547

> <Gold.PLP.part.metal>
0.0000

> <Gold.PLP.part.buried>
-0.7477

> <Gold.PLP.part.nonpolar>
-29.5654

> <Gold.PLP.part.repulsive>
0.3634

> <Gold.PLP.ligand.clash>
0.0000

> <Gold.PLP.ligand.torsion>
0.1444

> <Gold.PLP.Chemscore.Hbond>
3.4320

> <Gold.PLP.Chemscore.CHOScore>
0.0000

> <Gold.PLP.Chemscore.Metal>
0.0000

> <Gold.Chemscore.Hbonds>
donor molecule, donor type, donor heavy atom, donor atom, acceptor molecule, acceptor atom, score
      L1  H     6    24       P1  8029  0.96
      L1  H     9    25       P1  8029  1.00
      P1  H  6933  6944       L1     8  0.74
      P1  H  6934  6946       L1     8  0.74

> <Gold.PLP.Chemscore.Internal.Correction>
0.0095

> <Gold.Rescore>
     Score         DG    S(hbond)    S(metal)    S(lipo)     H(rot)  DE(clash)    DE(int)     intcor
     19.75     -21.22       2.24        0.00      99.34       1.32       0.15       1.33       ----

> <Gold.Chemscore.Fitness>
19.7454

> <Gold.Chemscore.DG>
-21.2205

> <Gold.Chemscore.ZeroCoef>
-5.4800

> <Gold.Chemscore.Hbond>
2.2442

> <Gold.Chemscore.Metal>
0.0000

> <Gold.Chemscore.Lipo>
99.3429

> <Gold.Chemscore.Internal_Hbond>
0.0000

> <Gold.Chemscore.DEClash>
0.1468

> <Gold.Chemscore.DEInternal>
1.3282

> <Gold.Chemscore.Rot>
1.3196

> <Gold.Chemscore.Internal.Correction>
   9.000000E+99

> <Gold.Chemscore.Hbonds>
donor molecule, donor type, donor heavy atom, donor atom, acceptor molecule, acceptor atom, score
      L1  H     6    24       P1  8029  0.92
      L1  H     9    25       P1  8029  0.24
      P1  H  6933  6944       L1     8  0.71
      P1  H  6934  6946       L1     8  0.71

> <Gold.Chemscore.Hbond.Weighted>
-7.4957

> <Gold.Chemscore.Metal.Weighted>
-0.0000

> <Gold.Chemscore.Lipo.Weighted>
-11.6231

> <Gold.Chemscore.Internal_Hbond.Weighted>
0.0000

> <Gold.Chemscore.DEClash.Weighted>
0.1468

> <Gold.Chemscore.DEInternal.Weighted>
1.3282

> <Gold.Chemscore.Rot.Weighted>
3.3783

> <Gold.Chemscore.Internal.Correction.Weighted>
   9.000000E+99

> <Gold.Protein.RotatedTorsions>
[ 6907 6896 6895 6894 ] final   46.63 input  -60.11 | X-H torsion
[ 7974 7965 7964 7962 ] final  -24.95 input  175.53 | X-H torsion
[ 8008 7997 7996 7995 ] final  -78.98 input   59.86 | X-H torsion
[ 10167 10162 10161 10158 ] final -155.64 input  -65.29 | X-H torsion
[ 10718 10713 10712 10709 ] final  -24.21 input   66.30 | X-H torsion
[ 10763 10752 10751 10750 ] final  -17.66 input  -60.55 | X-H torsion
[ 11005 11000 10999 10996 ] final  -78.42 input  -57.11 | X-H torsion

> <Gold.Protein.ActiveResidues>
 VAL166  LYS551  ARG553  GLY616  TRP617  ASP618  TYR619  PRO620  LYS621  CYS622 
 ASP623  PHE694  ASN695  SER759  ASP760  ASP761  ALA762  ILE779  LEU786  VAL792 
 PHE793  MET794  SER795  GLU796  ALA797  LYS798  CYS799  TRP800  GLU811  SER814 

> <Gold.Protein.RotatedAtoms>
  152.2586  134.8057  160.0434 H   0  0  0  0  0  0  0  0  0  0  0  0  # atno 6907 bound_to 6896
  151.8712  133.3471  159.3743 H   0  0  0  0  0  0  0  0  0  0  0  0  # atno 6908 bound_to 6896
  150.7109  134.5038  159.5618 H   0  0  0  0  0  0  0  0  0  0  0  0  # atno 6909 bound_to 6896
  146.1522  140.4821  142.8606 H   0  0  0  0  0  0  0  0  0  0  0  0  # atno 7974 bound_to 7965
  154.5741  140.0685  156.9007 H   0  0  0  0  0  0  0  0  0  0  0  0  # atno 8008 bound_to 7997
  155.2581  140.3356  155.4257 H   0  0  0  0  0  0  0  0  0  0  0  0  # atno 8009 bound_to 7997
  156.2140  140.1771  156.7616 H   0  0  0  0  0  0  0  0  0  0  0  0  # atno 8010 bound_to 7997
  139.6915  143.9413  152.2387 H   0  0  0  0  0  0  0  0  0  0  0  0  # atno 10167 bound_to 10162
  156.4807  130.4544  149.6813 H   0  0  0  0  0  0  0  0  0  0  0  0  # atno 10718 bound_to 10713
  153.5773  135.7006  153.5478 H   0  0  0  0  0  0  0  0  0  0  0  0  # atno 10763 bound_to 10752
  153.3291  135.4052  155.1480 H   0  0  0  0  0  0  0  0  0  0  0  0  # atno 10764 bound_to 10752
  154.8623  135.3714  154.5299 H   0  0  0  0  0  0  0  0  0  0  0  0  # atno 10765 bound_to 10752
  141.1664  133.7062  156.7968 H   0  0  0  0  0  0  0  0  0  0  0  0  # atno 11005 bound_to 11000
  144.7918  140.6046  143.6536 LP  0  0  0  0  0  0  0  0  0  0  0  0  # atno 17320 bound_to 7965
  145.4796  139.1496  143.3769 LP  0  0  0  0  0  0  0  0  0  0  0  0  # atno 17321 bound_to 7965
  139.9230  144.6788  150.8441 LP  0  0  0  0  0  0  0  0  0  0  0  0  # atno 17342 bound_to 10162
  140.7684  143.3361  151.2305 LP  0  0  0  0  0  0  0  0  0  0  0  0  # atno 17343 bound_to 10162
  156.3525  130.7439  151.2400 LP  0  0  0  0  0  0  0  0  0  0  0  0  # atno 17370 bound_to 10713
  157.7483  131.0373  150.4450 LP  0  0  0  0  0  0  0  0  0  0  0  0  # atno 17371 bound_to 10713
  140.2285  134.8704  157.3452 LP  0  0  0  0  0  0  0  0  0  0  0  0  # atno 17394 bound_to 11000
  140.1915  134.4366  155.7713 LP  0  0  0  0  0  0  0  0  0  0  0  0  # atno 17395 bound_to 11000

$$$$
