AV-unprocessed.smi:3329|AV-procd|sdf|12795|dock1
  -GOLD-   2272019143D 1   1.00000     0.00000
 Structure written by MMmdl.
 42 43  0  0  0  0  0  0  0  0  2 V2000
  145.1300  130.7524  151.6593 C   0  0  0  0  0  0  0  0  0  0  0  0
  145.2035  132.2407  151.4730 C   0  0  0  0  0  0  0  0  0  0  0  0
  146.3259  133.0139  151.0616 C   0  0  0  0  0  0  0  0  0  0  0  0
  146.0613  134.3087  150.9951 N   0  0  0  0  0  0  0  0  0  0  0  0
  144.7653  134.4078  151.3580 N   0  0  0  0  0  0  0  0  0  0  0  0
  144.1258  135.7109  151.4044 C   0  0  0  0  0  0  0  0  0  0  0  0
  144.7903  136.6575  152.4184 C   0  0  0  0  0  0  0  0  0  0  0  0
  145.0739  137.9760  151.8180 N   0  3  0  0  0  0  0  0  0  0  0  0
  146.4992  138.3623  151.8433 C   0  0  0  0  0  0  0  0  0  0  0  0
  147.0030  138.6215  153.2644 C   0  0  0  0  0  0  0  0  0  0  0  0
  146.2324  138.5662  154.2228 O   0  0  0  0  0  0  0  0  0  0  0  0
  148.3096  138.9087  153.3819 N   0  0  0  0  0  0  0  0  0  0  0  0
  149.0307  139.2050  154.6211 C   0  0  1  0  0  0  0  0  0  0  0  0
  148.4942  140.5545  155.1258 C   0  0  0  0  0  0  0  0  0  0  0  0
  148.7299  138.1841  155.6457 C   0  0  0  0  0  0  0  0  0  0  0  0
  148.4926  137.3864  156.4498 N   0  0  0  0  0  0  0  0  0  0  0  0
  150.5426  139.3272  154.4135 C   0  0  0  0  0  0  0  0  0  0  0  0
  151.4885  138.1456  154.4637 C   0  0  0  0  0  0  0  0  0  0  0  0
  151.5183  139.1829  155.5612 C   0  0  0  0  0  0  0  0  0  0  0  0
  144.2247  133.1755  151.6592 C   0  0  0  0  0  0  0  0  0  0  0  0
  145.6677  130.4332  152.5522 H   0  0  0  0  0  0  0  0  0  0  0  0
  145.5643  130.2190  150.8136 H   0  0  0  0  0  0  0  0  0  0  0  0
  144.1015  130.4054  151.7622 H   0  0  0  0  0  0  0  0  0  0  0  0
  147.3197  132.6737  150.8104 H   0  0  0  0  0  0  0  0  0  0  0  0
  144.1482  136.1488  150.4055 H   0  0  0  0  0  0  0  0  0  0  0  0
  143.0751  135.5664  151.6595 H   0  0  0  0  0  0  0  0  0  0  0  0
  144.1337  136.7923  153.2787 H   0  0  0  0  0  0  0  0  0  0  0  0
  145.7174  136.2210  152.7928 H   0  0  0  0  0  0  0  0  0  0  0  0
  144.7689  137.9590  150.8548 H   0  0  0  0  0  0  0  0  0  0  0  0
  147.0978  137.5715  151.3889 H   0  0  0  0  0  0  0  0  0  0  0  0
  146.6402  139.2657  151.2480 H   0  0  0  0  0  0  0  0  0  0  0  0
  148.8587  138.9333  152.5347 H   0  0  0  0  0  0  0  0  0  0  0  0
  148.9662  140.8402  156.0668 H   0  0  0  0  0  0  0  0  0  0  0  0
  147.4184  140.5136  155.3017 H   0  0  0  0  0  0  0  0  0  0  0  0
  148.6826  141.3542  154.4081 H   0  0  0  0  0  0  0  0  0  0  0  0
  150.8046  140.0979  153.6904 H   0  0  0  0  0  0  0  0  0  0  0  0
  151.0859  137.1661  154.7130 H   0  0  0  0  0  0  0  0  0  0  0  0
  152.3160  138.1382  153.7574 H   0  0  0  0  0  0  0  0  0  0  0  0
  152.3667  139.8636  155.5857 H   0  0  0  0  0  0  0  0  0  0  0  0
  151.1280  138.8931  156.5346 H   0  0  0  0  0  0  0  0  0  0  0  0
  143.1979  133.0646  151.9752 H   0  0  0  0  0  0  0  0  0  0  0  0
  144.5421  138.6802  152.3092 H   0  0  0  0  0  0  0  0  0  0  0  0
  1  2  1  0  0  0  0
  1 21  1  0  0  0  0
  1 22  1  0  0  0  0
  1 23  1  0  0  0  0
  2 20  2  0  0  0  0
  2  3  1  0  0  0  0
  3  4  2  0  0  0  0
  3 24  1  0  0  0  0
  4  5  1  0  0  0  0
  5  6  1  0  0  0  0
  5 20  1  0  0  0  0
  6  7  1  0  0  0  0
  6 25  1  0  0  0  0
  6 26  1  0  0  0  0
  7  8  1  0  0  0  0
  7 27  1  0  0  0  0
  7 28  1  0  0  0  0
  8  9  1  0  0  0  0
  8 29  1  0  0  0  0
  8 42  1  0  0  0  0
  9 10  1  0  0  0  0
  9 30  1  0  0  0  0
  9 31  1  0  0  0  0
 10 11  2  0  0  0  0
 10 12  1  0  0  0  0
 12 13  1  0  0  0  0
 12 32  1  0  0  0  0
 13 14  1  0  0  0  0
 13 15  1  0  0  0  0
 13 17  1  0  0  0  0
 14 33  1  0  0  0  0
 14 34  1  0  0  0  0
 14 35  1  0  0  0  0
 15 16  3  0  0  0  0
 17 19  1  0  0  0  0
 17 18  1  0  0  0  0
 17 36  1  0  0  0  0
 18 19  1  0  0  0  0
 18 37  1  0  0  0  0
 18 38  1  0  0  0  0
 19 39  1  0  0  0  0
 19 40  1  0  0  0  0
 20 41  1  0  0  0  0
M  CHG  1   8   1
M  END
> <s_m_source_file>
AV-unprocessed.smi

> <i_m_source_file_index>
3329

> <i_lp_mmshare_version>
43012

> <i_f3d_flags>
0

> <s_epik_input>
W0NIM11jMVtjSF1ubihbY0hdMSlbQ0gyXVtDSDJdW05IXVtDSDJdQyg9TylbTkhdW0NAQF0oW0NIM10pKEMjTilbQ0hdMltDSDJdW0NIMl0y

> <s_epik_cmdline>
J2VwaWtfcHl0aG9uJywgJy1waCcsICc3LjAnLCAnLXRuJywgJzgnLCAnLW1hJywgJzIwMCcsICctbWV0YWxfYmluZGluZycsICctaW1hZScsICc8aW5maWxlLm1hZT4nLCAnLW9tYWUnLCAnPG91dGZpbGUubWFlPic=

> <r_lp_tautomer_probability>
1

> <r_epik_Ionization_Penalty>
0.350291

> <r_epik_Ionization_Penalty_Charging>
0.350239

> <r_epik_Ionization_Penalty_Neutral>
5.12768e-05

> <r_epik_State_Penalty>
0.347656

> <r_epik_Charging_Adjusted_Penalty>
0.697895

> <i_epik_Tot_Q>
1

> <i_epik_Tot_abs_Q>
1

> <r_epik_Metal_State_Penalty>
0.371739

> <b_epik_Metal_Only>
0

> <s_lp_Force_Field>
OPLS_2005

> <r_lp_Energy>
10.54

> <b_lp_Chiralities_Consistent>
1

> <s_lp_Variant>
AV-unprocessed.smi:3329-1

> <Gold.Version>
5.8.1

> <Gold.Id.Protein>
6NUR|6NUR_protein|mol2

> <Gold.PLP.Fitness>
50.0623

> <Gold.PLP.PLP>
-37.0405

> <Gold.PLP.part.hbond>
-3.3628

> <Gold.PLP.part.metal>
0.0000

> <Gold.PLP.part.buried>
-5.0139

> <Gold.PLP.part.nonpolar>
-30.4269

> <Gold.PLP.part.repulsive>
0.4241

> <Gold.PLP.ligand.clash>
0.0000

> <Gold.PLP.ligand.torsion>
1.6206

> <Gold.PLP.Chemscore.Hbond>
3.8802

> <Gold.PLP.Chemscore.CHOScore>
1.0000

> <Gold.PLP.Chemscore.Metal>
0.0000

> <Gold.Chemscore.Hbonds>
donor molecule, donor type, donor heavy atom, donor atom, acceptor molecule, acceptor atom, score
      L1  H     8    29       P1 10171  0.89
      L1  H     8    42       P1 10175  2.00
      L1  H    12    32       P1  7957  0.94
      L1  C     3    24       P1 10747  1.00

> <Gold.PLP.Chemscore.Internal.Correction>
1.6226

> <Gold.Rescore>
     Score         DG    S(hbond)    S(metal)    S(lipo)     H(rot)  DE(clash)    DE(int)     intcor
     14.31     -18.40       2.84        0.00      81.69       2.40       0.16       3.92       ----

> <Gold.Chemscore.Fitness>
14.3116

> <Gold.Chemscore.DG>
-18.3975

> <Gold.Chemscore.ZeroCoef>
-5.4800

> <Gold.Chemscore.Hbond>
2.8433

> <Gold.Chemscore.Metal>
0.0000

> <Gold.Chemscore.Lipo>
81.6909

> <Gold.Chemscore.Internal_Hbond>
0.0000

> <Gold.Chemscore.DEClash>
0.1610

> <Gold.Chemscore.DEInternal>
3.9249

> <Gold.Chemscore.Rot>
2.3972

> <Gold.Chemscore.Internal.Correction>
   9.000000E+99

> <Gold.Chemscore.Hbonds>
donor molecule, donor type, donor heavy atom, donor atom, acceptor molecule, acceptor atom, score
      L1  H     8    29       P1 10171  0.82
      L1  H     8    42       P1 10175  0.95
      L1  H    12    32       P1  7957  0.90

> <Gold.Chemscore.Hbond.Weighted>
-9.4966

> <Gold.Chemscore.Metal.Weighted>
-0.0000

> <Gold.Chemscore.Lipo.Weighted>
-9.5578

> <Gold.Chemscore.Internal_Hbond.Weighted>
0.0000

> <Gold.Chemscore.DEClash.Weighted>
0.1610

> <Gold.Chemscore.DEInternal.Weighted>
3.9249

> <Gold.Chemscore.Rot.Weighted>
6.1369

> <Gold.Chemscore.Internal.Correction.Weighted>
   9.000000E+99

> <Gold.Protein.RotatedTorsions>
[ 6907 6896 6895 6894 ] final  -54.42 input  -60.11 | X-H torsion
[ 7974 7965 7964 7962 ] final -179.66 input  175.53 | X-H torsion
[ 8008 7997 7996 7995 ] final  171.70 input   59.86 | X-H torsion
[ 10167 10162 10161 10158 ] final  -49.16 input  -65.29 | X-H torsion
[ 10718 10713 10712 10709 ] final   -7.59 input   66.30 | X-H torsion
[ 10763 10752 10751 10750 ] final  -57.97 input  -60.55 | X-H torsion
[ 11005 11000 10999 10996 ] final  150.32 input  -57.11 | X-H torsion

> <Gold.Protein.ActiveResidues>
 VAL166  LYS551  ARG553  GLY616  TRP617  ASP618  TYR619  PRO620  LYS621  CYS622 
 ASP623  PHE694  ASN695  SER759  ASP760  ASP761  ALA762  ILE779  LEU786  VAL792 
 PHE793  MET794  SER795  GLU796  ALA797  LYS798  CYS799  TRP800  GLU811  SER814 

> <Gold.Protein.RotatedAtoms>
  150.8339  134.7604  159.6876 H   0  0  0  0  0  0  0  0  0  0  0  0  # atno 6907 bound_to 6896
  152.4439  134.5531  159.9882 H   0  0  0  0  0  0  0  0  0  0  0  0  # atno 6908 bound_to 6896
  151.5685  133.3355  159.3021 H   0  0  0  0  0  0  0  0  0  0  0  0  # atno 6909 bound_to 6896
  144.7138  140.0684  143.6430 H   0  0  0  0  0  0  0  0  0  0  0  0  # atno 7974 bound_to 7965
  156.1246  140.1505  156.9155 H   0  0  0  0  0  0  0  0  0  0  0  0  # atno 8008 bound_to 7997
  154.4861  140.0865  156.7531 H   0  0  0  0  0  0  0  0  0  0  0  0  # atno 8009 bound_to 7997
  155.4367  140.3429  155.4288 H   0  0  0  0  0  0  0  0  0  0  0  0  # atno 8010 bound_to 7997
  140.6698  143.2709  151.4174 H   0  0  0  0  0  0  0  0  0  0  0  0  # atno 10167 bound_to 10162
  156.7150  130.5133  149.5882 H   0  0  0  0  0  0  0  0  0  0  0  0  # atno 10718 bound_to 10713
  154.2307  135.6361  153.5174 H   0  0  0  0  0  0  0  0  0  0  0  0  # atno 10763 bound_to 10752
  152.9949  135.5519  154.6015 H   0  0  0  0  0  0  0  0  0  0  0  0  # atno 10764 bound_to 10752
  154.5498  135.2901  155.0994 H   0  0  0  0  0  0  0  0  0  0  0  0  # atno 10765 bound_to 10752
  140.1121  134.8918  157.1951 H   0  0  0  0  0  0  0  0  0  0  0  0  # atno 11005 bound_to 11000
  145.9805  139.2937  143.1045 LP  0  0  0  0  0  0  0  0  0  0  0  0  # atno 17320 bound_to 7965
  145.9016  140.9239  143.0500 LP  0  0  0  0  0  0  0  0  0  0  0  0  # atno 17321 bound_to 7965
  139.5961  144.1393  152.2146 LP  0  0  0  0  0  0  0  0  0  0  0  0  # atno 17342 bound_to 10162
  140.0763  144.5737  150.7154 LP  0  0  0  0  0  0  0  0  0  0  0  0  # atno 17343 bound_to 10162
  156.1634  130.6389  151.0747 LP  0  0  0  0  0  0  0  0  0  0  0  0  # atno 17370 bound_to 10713
  157.6921  131.0806  150.7078 LP  0  0  0  0  0  0  0  0  0  0  0  0  # atno 17371 bound_to 10713
  140.3078  134.3059  155.7274 LP  0  0  0  0  0  0  0  0  0  0  0  0  # atno 17394 bound_to 11000
  141.2132  133.7631  156.9733 LP  0  0  0  0  0  0  0  0  0  0  0  0  # atno 17395 bound_to 11000

$$$$
