AV-unprocessed.smi:34|AV-procd|sdf|245|dock1
  -GOLD-   2262016 03D 1   1.00000     0.00000
 Structure written by MMmdl.
 54 58  0  0  0  0  0  0  0  0  2 V2000
  152.6623  140.4270  157.8615 O   0  0  0  0  0  0  0  0  0  0  0  0
  151.9158  141.3730  157.6017 C   0  0  0  0  0  0  0  0  0  0  0  0
  151.0482  141.4898  156.5645 N   0  5  0  0  0  0  0  0  0  0  0  0
  150.3579  140.4188  156.1439 C   0  0  0  0  0  0  0  0  0  0  0  0
  149.8709  140.3697  154.8781 N   0  0  0  0  0  0  0  0  0  0  0  0
  149.1949  139.2949  154.4559 C   0  0  0  0  0  0  0  0  0  0  0  0
  148.9019  138.1729  155.1197 N   0  0  0  0  0  0  0  0  0  0  0  0
  149.3883  138.2068  156.3948 C   0  0  0  0  0  0  0  0  0  0  0  0
  150.1235  139.2850  156.9695 C   0  0  0  0  0  0  0  0  0  0  0  0
  150.4794  138.9975  158.2788 N   0  0  0  0  0  0  0  0  0  0  0  0
  149.9546  137.7852  158.4386 C   0  0  0  0  0  0  0  0  0  0  0  0
  149.2974  137.2469  157.3920 N   0  0  0  0  0  0  0  0  0  0  0  0
  148.6306  135.9067  157.3412 C   0  0  2  0  0  0  0  0  0  0  0  0
  149.1636  135.1852  156.2718 O   0  0  0  0  0  0  0  0  0  0  0  0
  148.1126  134.4894  155.6135 C   0  0  2  0  0  0  0  0  0  0  0  0
  148.5229  134.1092  154.1847 C   0  0  0  0  0  0  0  0  0  0  0  0
  147.3613  133.8845  153.4017 O   0  0  0  0  0  0  0  0  0  0  0  0
  147.3006  132.8201  152.5771 C   0  0  0  0  0  0  0  0  0  0  0  0
  148.0950  131.8783  152.6202 O   0  0  0  0  0  0  0  0  0  0  0  0
  146.1673  132.8969  151.6104 C   0  0  0  0  0  0  0  0  0  0  0  0
  145.4042  134.0854  151.5305 C   0  0  0  0  0  0  0  0  0  0  0  0
  144.3310  134.1898  150.6245 C   0  0  0  0  0  0  0  0  0  0  0  0
  144.0063  133.1060  149.7880 C   0  0  0  0  0  0  0  0  0  0  0  0
  144.7558  131.9172  149.8595 C   0  0  0  0  0  0  0  0  0  0  0  0
  145.8302  131.8113  150.7645 C   0  0  0  0  0  0  0  0  0  0  0  0
  146.9230  135.4454  155.7225 C   0  0  2  0  0  0  0  0  0  0  0  0
  147.0386  136.4110  154.8081 F   0  0  0  0  0  0  0  0  0  0  0  0
  147.1034  135.9960  157.1296 C   0  0  2  0  0  0  0  0  0  0  0  0
  146.5281  137.2811  157.2868 O   0  0  0  0  0  0  0  0  0  0  0  0
  151.8722  142.5440  158.5468 C   0  0  0  0  0  0  0  0  0  0  0  0
  151.3480  143.7809  158.1065 C   0  0  0  0  0  0  0  0  0  0  0  0
  151.2743  144.8807  158.9836 C   0  0  0  0  0  0  0  0  0  0  0  0
  151.7152  144.7523  160.3141 C   0  0  0  0  0  0  0  0  0  0  0  0
  152.2260  143.5219  160.7680 C   0  0  0  0  0  0  0  0  0  0  0  0
  152.3003  142.4219  159.8915 C   0  0  0  0  0  0  0  0  0  0  0  0
  148.8395  139.3393  153.4373 H   0  0  0  0  0  0  0  0  0  0  0  0
  150.0519  137.2568  159.3755 H   0  0  0  0  0  0  0  0  0  0  0  0
  148.8968  135.4347  158.2881 H   0  0  0  0  0  0  0  0  0  0  0  0
  147.9071  133.5849  156.1891 H   0  0  0  0  0  0  0  0  0  0  0  0
  149.1406  134.8890  153.7373 H   0  0  0  0  0  0  0  0  0  0  0  0
  149.1198  133.1965  154.2078 H   0  0  0  0  0  0  0  0  0  0  0  0
  145.6354  134.9313  152.1618 H   0  0  0  0  0  0  0  0  0  0  0  0
  143.7569  135.1031  150.5714 H   0  0  0  0  0  0  0  0  0  0  0  0
  143.1835  133.1865  149.0928 H   0  0  0  0  0  0  0  0  0  0  0  0
  144.5064  131.0841  149.2186 H   0  0  0  0  0  0  0  0  0  0  0  0
  146.3844  130.8845  150.7939 H   0  0  0  0  0  0  0  0  0  0  0  0
  145.9597  134.9587  155.5674 H   0  0  0  0  0  0  0  0  0  0  0  0
  146.6378  135.3153  157.8435 H   0  0  0  0  0  0  0  0  0  0  0  0
  145.6390  137.2560  156.9678 H   0  0  0  0  0  0  0  0  0  0  0  0
  151.0031  143.8950  157.0888 H   0  0  0  0  0  0  0  0  0  0  0  0
  150.8775  145.8224  158.6346 H   0  0  0  0  0  0  0  0  0  0  0  0
  151.6578  145.5949  160.9871 H   0  0  0  0  0  0  0  0  0  0  0  0
  152.5584  143.4194  161.7903 H   0  0  0  0  0  0  0  0  0  0  0  0
  152.6851  141.4831  160.2630 H   0  0  0  0  0  0  0  0  0  0  0  0
  1  2  2  0  0  0  0
  2  3  1  0  0  0  0
  2 30  1  0  0  0  0
  3  4  1  0  0  0  0
  4  9  1  0  0  0  0
  4  5  2  0  0  0  0
  5  6  1  0  0  0  0
  6  7  2  0  0  0  0
  6 36  1  0  0  0  0
  7  8  1  0  0  0  0
  8 12  1  0  0  0  0
  8  9  2  0  0  0  0
  9 10  1  0  0  0  0
 10 11  2  0  0  0  0
 11 12  1  0  0  0  0
 11 37  1  0  0  0  0
 12 13  1  0  0  0  0
 13 28  1  0  0  0  0
 13 14  1  0  0  0  0
 13 38  1  0  0  0  0
 14 15  1  0  0  0  0
 15 16  1  0  0  0  0
 15 26  1  0  0  0  0
 15 39  1  0  0  0  0
 16 17  1  0  0  0  0
 16 40  1  0  0  0  0
 16 41  1  0  0  0  0
 17 18  1  0  0  0  0
 18 19  2  0  0  0  0
 18 20  1  0  0  0  0
 20 25  1  0  0  0  0
 20 21  2  0  0  0  0
 21 22  1  0  0  0  0
 21 42  1  0  0  0  0
 22 23  2  0  0  0  0
 22 43  1  0  0  0  0
 23 24  1  0  0  0  0
 23 44  1  0  0  0  0
 24 25  2  0  0  0  0
 24 45  1  0  0  0  0
 25 46  1  0  0  0  0
 26 27  1  0  0  0  0
 26 28  1  0  0  0  0
 26 47  1  0  0  0  0
 28 29  1  0  0  0  0
 28 48  1  0  0  0  0
 29 49  1  0  0  0  0
 30 35  1  0  0  0  0
 30 31  2  0  0  0  0
 31 32  1  0  0  0  0
 31 50  1  0  0  0  0
 32 33  2  0  0  0  0
 32 51  1  0  0  0  0
 33 34  1  0  0  0  0
 33 52  1  0  0  0  0
 34 35  2  0  0  0  0
 34 53  1  0  0  0  0
 35 54  1  0  0  0  0
M  CHG  1   3  -1
M  END
> <s_m_source_file>
AV-unprocessed.smi

> <i_m_source_file_index>
34

> <i_lp_mmshare_version>
43012

> <i_f3d_flags>
0

> <s_epik_input>
W2NIXTFbY0hdW2NIXVtjSF1bY0hdYzFDKD1PKVtOSF1jKG5bY0hdbjIpYyhjMjMpbltjSF1uM1tDQEBIXTRPW0NASF0oW0NAQEhdKEYpW0NASF00W09IXSlbQ0gyXU9DKD1PKWM1W2NIXVtjSF1bY0hdW2NIXVtjSF01

> <s_epik_cmdline>
J2VwaWtfcHl0aG9uJywgJy1waCcsICc3LjAnLCAnLXRuJywgJzgnLCAnLW1hJywgJzIwMCcsICctbWV0YWxfYmluZGluZycsICctaW1hZScsICc8aW5maWxlLm1hZT4nLCAnLW9tYWUnLCAnPG91dGZpbGUubWFlPic=

> <r_lp_tautomer_probability>
1

> <r_epik_Ionization_Penalty>
4.33227

> <r_epik_Ionization_Penalty_Charging>
3.41027

> <r_epik_Ionization_Penalty_Neutral>
0.922001

> <r_epik_State_Penalty>
3.41358

> <r_epik_Charging_Adjusted_Penalty>
6.82385

> <i_epik_Tot_Q>
-1

> <i_epik_Tot_abs_Q>
1

> <r_epik_Metal_State_Penalty>
0.496292

> <b_epik_Metal_Only>
1

> <s_epik_Chemistry_Notes>
This compound has an ester and may undergo hydrolysis at high or low pH. This compound contains an acetal/aminal-like group ( X-CH(R)-Y where X, Y are N, S, or O) that may be acid/base labile, releasing an aldehyde.

> <s_lp_Force_Field>
OPLS_2005

> <r_lp_Energy>
53.545

> <b_lp_Chiralities_Consistent>
1

> <s_lp_Variant>
AV-unprocessed.smi:34-31

> <Gold.Version>
5.8.1

> <Gold.Id.Protein>
6NUR|6NUR_protein|mol2

> <Gold.PLP.Fitness>
58.4433

> <Gold.PLP.PLP>
-51.2464

> <Gold.PLP.part.hbond>
-2.0000

> <Gold.PLP.part.metal>
0.0000

> <Gold.PLP.part.buried>
-7.4086

> <Gold.PLP.part.nonpolar>
-41.7819

> <Gold.PLP.part.repulsive>
1.2068

> <Gold.PLP.ligand.clash>
0.0000

> <Gold.PLP.ligand.torsion>
1.3107

> <Gold.PLP.Chemscore.Hbond>
1.9675

> <Gold.PLP.Chemscore.CHOScore>
1.0000

> <Gold.PLP.Chemscore.Metal>
0.0000

> <Gold.Chemscore.Hbonds>
donor molecule, donor type, donor heavy atom, donor atom, acceptor molecule, acceptor atom, score
      P1  H  7989  7998       L1     5  0.34
      P1  H  7997  8009       L1     1  0.72
      L1  C     6    36       P1  7957  1.00

> <Gold.PLP.Chemscore.Internal.Correction>
0.9159

> <Gold.Rescore>
     Score         DG    S(hbond)    S(metal)    S(lipo)     H(rot)  DE(clash)    DE(int)     intcor
      9.95     -18.71       1.63        0.00     125.48       2.69       0.82       7.95       ----

> <Gold.Chemscore.Fitness>
9.9492

> <Gold.Chemscore.DG>
-18.7148

> <Gold.Chemscore.ZeroCoef>
-5.4800

> <Gold.Chemscore.Hbond>
1.6320

> <Gold.Chemscore.Metal>
0.0000

> <Gold.Chemscore.Lipo>
125.4836

> <Gold.Chemscore.Internal_Hbond>
0.0000

> <Gold.Chemscore.DEClash>
0.8188

> <Gold.Chemscore.DEInternal>
7.9467

> <Gold.Chemscore.Rot>
2.6944

> <Gold.Chemscore.Internal.Correction>
   9.000000E+99

> <Gold.Chemscore.Hbonds>
donor molecule, donor type, donor heavy atom, donor atom, acceptor molecule, acceptor atom, score
      P1  H  7989  7998       L1     5  0.17
      P1  H  7997  8009       L1     1  0.69

> <Gold.Chemscore.Hbond.Weighted>
-5.4508

> <Gold.Chemscore.Metal.Weighted>
-0.0000

> <Gold.Chemscore.Lipo.Weighted>
-14.6816

> <Gold.Chemscore.Internal_Hbond.Weighted>
0.0000

> <Gold.Chemscore.DEClash.Weighted>
0.8188

> <Gold.Chemscore.DEInternal.Weighted>
7.9467

> <Gold.Chemscore.Rot.Weighted>
6.8975

> <Gold.Chemscore.Internal.Correction.Weighted>
   9.000000E+99

> <Gold.Protein.RotatedTorsions>
[ 6907 6896 6895 6894 ] final   26.63 input  -60.11 | X-H torsion
[ 7974 7965 7964 7962 ] final -168.62 input  175.53 | X-H torsion
[ 8008 7997 7996 7995 ] final  161.86 input   59.86 | X-H torsion
[ 10167 10162 10161 10158 ] final   24.19 input  -65.29 | X-H torsion
[ 10718 10713 10712 10709 ] final  -99.66 input   66.30 | X-H torsion
[ 10763 10752 10751 10750 ] final  143.73 input  -60.55 | X-H torsion
[ 11005 11000 10999 10996 ] final   77.17 input  -57.11 | X-H torsion

> <Gold.Protein.ActiveResidues>
 VAL166  LYS551  ARG553  GLY616  TRP617  ASP618  TYR619  PRO620  LYS621  CYS622 
 ASP623  PHE694  ASN695  SER759  ASP760  ASP761  ALA762  ILE779  LEU786  VAL792 
 PHE793  MET794  SER795  GLU796  ALA797  LYS798  CYS799  TRP800  GLU811  SER814 

> <Gold.Protein.RotatedAtoms>
  151.9903  134.9982  160.0560 H   0  0  0  0  0  0  0  0  0  0  0  0  # atno 6907 bound_to 6896
  152.1614  133.4580  159.4871 H   0  0  0  0  0  0  0  0  0  0  0  0  # atno 6908 bound_to 6896
  150.6888  134.1984  159.4355 H   0  0  0  0  0  0  0  0  0  0  0  0  # atno 6909 bound_to 6896
  144.7200  140.2343  143.6300 H   0  0  0  0  0  0  0  0  0  0  0  0  # atno 7974 bound_to 7965
  156.2073  140.1766  156.7772 H   0  0  0  0  0  0  0  0  0  0  0  0  # atno 8008 bound_to 7997
  154.5673  140.0689  156.8941 H   0  0  0  0  0  0  0  0  0  0  0  0  # atno 8009 bound_to 7997
  155.2738  140.3344  155.4265 H   0  0  0  0  0  0  0  0  0  0  0  0  # atno 8010 bound_to 7997
  140.5208  144.0006  150.6416 H   0  0  0  0  0  0  0  0  0  0  0  0  # atno 10167 bound_to 10162
  156.0140  130.5292  150.6703 H   0  0  0  0  0  0  0  0  0  0  0  0  # atno 10718 bound_to 10713
  153.9772  135.2945  155.3423 H   0  0  0  0  0  0  0  0  0  0  0  0  # atno 10763 bound_to 10752
  154.7289  135.5076  153.8934 H   0  0  0  0  0  0  0  0  0  0  0  0  # atno 10764 bound_to 10752
  153.0871  135.6697  154.0040 H   0  0  0  0  0  0  0  0  0  0  0  0  # atno 10765 bound_to 10752
  139.9266  134.7661  156.1487 H   0  0  0  0  0  0  0  0  0  0  0  0  # atno 11005 bound_to 11000
  145.8380  139.2116  143.1844 LP  0  0  0  0  0  0  0  0  0  0  0  0  # atno 17320 bound_to 7965
  146.0371  140.8201  142.9847 LP  0  0  0  0  0  0  0  0  0  0  0  0  # atno 17321 bound_to 7965
  140.3354  143.3052  152.0644 LP  0  0  0  0  0  0  0  0  0  0  0  0  # atno 17342 bound_to 10162
  139.4923  144.6480  151.6737 LP  0  0  0  0  0  0  0  0  0  0  0  0  # atno 17343 bound_to 10162
  157.4427  131.0863  151.0927 LP  0  0  0  0  0  0  0  0  0  0  0  0  # atno 17370 bound_to 10713
  157.1467  130.6166  149.5570 LP  0  0  0  0  0  0  0  0  0  0  0  0  # atno 17371 bound_to 10713
  141.0828  133.6747  156.2372 LP  0  0  0  0  0  0  0  0  0  0  0  0  # atno 17394 bound_to 11000
  140.6318  134.5256  157.5560 LP  0  0  0  0  0  0  0  0  0  0  0  0  # atno 17395 bound_to 11000

$$$$
