AV-unprocessed.smi:1620|AV-procd|sdf|6491|dock2
  -GOLD-   22720 7153D 1   1.00000     0.00000
 Structure written by MMmdl.
 40 40  0  0  0  0  0  0  0  0  1 V2000
  153.0645  144.5482  158.5427 C   0  0  0  0  0  0  0  0  0  0  0  0
  151.7189  143.9646  159.0102 C   0  0  0  0  0  0  0  0  0  0  0  0
  150.8328  145.0985  159.5600 C   0  0  0  0  0  0  0  0  0  0  0  0
  151.9035  142.7983  160.0242 C   0  0  2  0  0  0  0  0  0  0  0  0
  152.1172  143.2519  161.4845 C   0  0  0  0  0  0  0  0  0  0  0  0
  152.9765  141.8581  159.6084 N   0  0  0  0  0  0  0  0  0  0  0  0
  154.1362  141.7763  160.5069 C   0  0  0  0  0  0  0  0  0  0  0  0
  152.9151  141.0011  158.5543 C   0  0  0  0  0  0  0  0  0  0  0  0
  153.7021  140.0626  158.4185 O   0  0  0  0  0  0  0  0  0  0  0  0
  151.9866  141.3157  157.6302 N   0  0  0  0  0  0  0  0  0  0  0  0
  151.6846  140.6264  156.4288 C   0  0  0  0  0  0  0  0  0  0  0  0
  150.8127  141.1087  155.4185 C   0  0  0  0  0  0  0  0  0  0  0  0
  150.7215  140.2504  154.4140 N   0  0  0  0  0  0  0  0  0  0  0  0
  151.5234  139.2131  154.7637 N   0  0  0  0  0  0  0  0  0  0  0  0
  151.6556  138.0733  153.8742 C   0  0  0  0  0  0  0  0  0  0  0  0
  151.3094  136.7687  154.5935 C   0  0  0  0  0  0  0  0  0  0  0  0
  150.2757  136.0677  154.1202 N   0  0  0  0  0  0  0  0  0  0  0  0
  151.9675  136.3987  155.5635 O   0  0  0  0  0  0  0  0  0  0  0  0
  152.1261  139.4100  155.9908 C   0  0  0  0  0  0  0  0  0  0  0  0
  153.6500  144.9199  159.3843 H   0  0  0  0  0  0  0  0  0  0  0  0
  152.9127  145.3796  157.8536 H   0  0  0  0  0  0  0  0  0  0  0  0
  153.6657  143.8085  158.0149 H   0  0  0  0  0  0  0  0  0  0  0  0
  151.2205  143.5736  158.1230 H   0  0  0  0  0  0  0  0  0  0  0  0
  151.2556  145.5261  160.4696 H   0  0  0  0  0  0  0  0  0  0  0  0
  149.8252  144.7520  159.7894 H   0  0  0  0  0  0  0  0  0  0  0  0
  150.7316  145.9043  158.8325 H   0  0  0  0  0  0  0  0  0  0  0  0
  150.9461  142.2788  160.0587 H   0  0  0  0  0  0  0  0  0  0  0  0
  151.2271  143.7355  161.8858 H   0  0  0  0  0  0  0  0  0  0  0  0
  152.9420  143.9578  161.5805 H   0  0  0  0  0  0  0  0  0  0  0  0
  152.3304  142.4000  162.1309 H   0  0  0  0  0  0  0  0  0  0  0  0
  155.0698  141.7212  159.9446 H   0  0  0  0  0  0  0  0  0  0  0  0
  154.0661  140.8884  161.1366 H   0  0  0  0  0  0  0  0  0  0  0  0
  154.2214  142.6426  161.1618 H   0  0  0  0  0  0  0  0  0  0  0  0
  151.4307  142.1379  157.8160 H   0  0  0  0  0  0  0  0  0  0  0  0
  150.2556  142.0331  155.3802 H   0  0  0  0  0  0  0  0  0  0  0  0
  151.0116  138.2100  153.0037 H   0  0  0  0  0  0  0  0  0  0  0  0
  152.6826  138.0329  153.5085 H   0  0  0  0  0  0  0  0  0  0  0  0
  150.0163  135.1956  154.5583 H   0  0  0  0  0  0  0  0  0  0  0  0
  149.7625  136.4083  153.3201 H   0  0  0  0  0  0  0  0  0  0  0  0
  152.7943  138.6800  156.4232 H   0  0  0  0  0  0  0  0  0  0  0  0
  1  2  1  0  0  0  0
  1 20  1  0  0  0  0
  1 21  1  0  0  0  0
  1 22  1  0  0  0  0
  2  3  1  0  0  0  0
  2  4  1  0  0  0  0
  2 23  1  0  0  0  0
  3 24  1  0  0  0  0
  3 25  1  0  0  0  0
  3 26  1  0  0  0  0
  4  5  1  0  0  0  0
  4  6  1  0  0  0  0
  4 27  1  0  0  0  0
  5 28  1  0  0  0  0
  5 29  1  0  0  0  0
  5 30  1  0  0  0  0
  6  7  1  0  0  0  0
  6  8  1  0  0  0  0
  7 31  1  0  0  0  0
  7 32  1  0  0  0  0
  7 33  1  0  0  0  0
  8  9  2  0  0  0  0
  8 10  1  0  0  0  0
 10 11  1  0  0  0  0
 10 34  1  0  0  0  0
 11 19  2  0  0  0  0
 11 12  1  0  0  0  0
 12 13  2  0  0  0  0
 12 35  1  0  0  0  0
 13 14  1  0  0  0  0
 14 15  1  0  0  0  0
 14 19  1  0  0  0  0
 15 16  1  0  0  0  0
 15 36  1  0  0  0  0
 15 37  1  0  0  0  0
 16 17  1  0  0  0  0
 16 18  2  0  0  0  0
 17 38  1  0  0  0  0
 17 39  1  0  0  0  0
 19 40  1  0  0  0  0
M  END
> <s_m_source_file>
AV-unprocessed.smi

> <i_m_source_file_index>
1620

> <i_lp_mmshare_version>
43012

> <i_f3d_flags>
0

> <s_epik_input>
W0NIM11bQ0hdKFtDSDNdKVtDQEhdKFtDSDNdKU4oW0NIM10pQyg9TylbTkhdYzFbY0hdbm4oW2NIXTEpW0NIMl1DKD1PKVtOSDJd

> <s_epik_cmdline>
J2VwaWtfcHl0aG9uJywgJy1waCcsICc3LjAnLCAnLXRuJywgJzgnLCAnLW1hJywgJzIwMCcsICctbWV0YWxfYmluZGluZycsICctaW1hZScsICc8aW5maWxlLm1hZT4nLCAnLW9tYWUnLCAnPG91dGZpbGUubWFlPic=

> <r_lp_tautomer_probability>
1

> <r_epik_Ionization_Penalty>
4.85642e-05

> <r_epik_Ionization_Penalty_Charging>
0

> <r_epik_Ionization_Penalty_Neutral>
4.85642e-05

> <r_epik_State_Penalty>
-0

> <r_epik_Charging_Adjusted_Penalty>
0

> <i_epik_Tot_Q>
0

> <i_epik_Tot_abs_Q>
0

> <r_epik_Metal_State_Penalty>
-0

> <b_epik_Metal_Only>
0

> <s_lp_Force_Field>
OPLS_2005

> <r_lp_Energy>
32.3257

> <b_lp_Chiralities_Consistent>
1

> <s_lp_Variant>
AV-unprocessed.smi:1620-1

> <Gold.Version>
5.8.1

> <Gold.Id.Protein>
6NUR|6NUR_protein|mol2

> <Gold.PLP.Fitness>
52.7676

> <Gold.PLP.PLP>
-45.0553

> <Gold.PLP.part.hbond>
-4.1330

> <Gold.PLP.part.metal>
0.0000

> <Gold.PLP.part.buried>
-3.6589

> <Gold.PLP.part.nonpolar>
-36.6037

> <Gold.PLP.part.repulsive>
0.2392

> <Gold.PLP.ligand.clash>
2.3774

> <Gold.PLP.ligand.torsion>
0.7028

> <Gold.PLP.Chemscore.Hbond>
3.7520

> <Gold.PLP.Chemscore.CHOScore>
0.0000

> <Gold.PLP.Chemscore.Metal>
0.0000

> <Gold.Chemscore.Hbonds>
donor molecule, donor type, donor heavy atom, donor atom, acceptor molecule, acceptor atom, score
      L1  H    17    39       P1  7948  0.95
      P1  H  7989  7998       L1    13  0.60
      P1  H  7997  8010       L1     9  1.00
      P1  H 10752 10763       L1    18  0.82

> <Gold.PLP.Chemscore.Internal.Correction>
0.2392

> <Gold.Rescore>
     Score         DG    S(hbond)    S(metal)    S(lipo)     H(rot)  DE(clash)    DE(int)     intcor
     16.69     -19.45       2.48        0.00      94.62       2.10       0.03       2.73       ----

> <Gold.Chemscore.Fitness>
16.6859

> <Gold.Chemscore.DG>
-19.4470

> <Gold.Chemscore.ZeroCoef>
-5.4800

> <Gold.Chemscore.Hbond>
2.4799

> <Gold.Chemscore.Metal>
0.0000

> <Gold.Chemscore.Lipo>
94.6168

> <Gold.Chemscore.Internal_Hbond>
0.0000

> <Gold.Chemscore.DEClash>
0.0346

> <Gold.Chemscore.DEInternal>
2.7266

> <Gold.Chemscore.Rot>
2.1039

> <Gold.Chemscore.Internal.Correction>
   9.000000E+99

> <Gold.Chemscore.Hbonds>
donor molecule, donor type, donor heavy atom, donor atom, acceptor molecule, acceptor atom, score
      L1  H    17    39       P1  7948  0.21
      P1  H  7989  7998       L1    13  0.02
      P1  H  7997  8010       L1     9  0.92
      P1  H 10752 10763       L1    18  0.69

> <Gold.Chemscore.Hbond.Weighted>
-8.2829

> <Gold.Chemscore.Metal.Weighted>
-0.0000

> <Gold.Chemscore.Lipo.Weighted>
-11.0702

> <Gold.Chemscore.Internal_Hbond.Weighted>
0.0000

> <Gold.Chemscore.DEClash.Weighted>
0.0346

> <Gold.Chemscore.DEInternal.Weighted>
2.7266

> <Gold.Chemscore.Rot.Weighted>
5.3860

> <Gold.Chemscore.Internal.Correction.Weighted>
   9.000000E+99

> <Gold.Protein.RotatedTorsions>
[ 6907 6896 6895 6894 ] final -120.83 input  -60.11 | X-H torsion
[ 7974 7965 7964 7962 ] final  -72.26 input  175.53 | X-H torsion
[ 8008 7997 7996 7995 ] final   27.51 input   59.86 | X-H torsion
[ 10167 10162 10161 10158 ] final  167.57 input  -65.29 | X-H torsion
[ 10718 10713 10712 10709 ] final -149.82 input   66.30 | X-H torsion
[ 10763 10752 10751 10750 ] final  100.57 input  -60.55 | X-H torsion
[ 11005 11000 10999 10996 ] final   -7.59 input  -57.11 | X-H torsion

> <Gold.Protein.ActiveResidues>
 VAL166  LYS551  ARG553  GLY616  TRP617  ASP618  TYR619  PRO620  LYS621  CYS622 
 ASP623  PHE694  ASN695  SER759  ASP760  ASP761  ALA762  ILE779  LEU786  VAL792 
 PHE793  MET794  SER795  GLU796  ALA797  LYS798  CYS799  TRP800  GLU811  SER814 

> <Gold.Protein.RotatedAtoms>
  150.8428  133.7908  159.3053 H   0  0  0  0  0  0  0  0  0  0  0  0  # atno 6907 bound_to 6896
  151.5604  135.1064  159.9981 H   0  0  0  0  0  0  0  0  0  0  0  0  # atno 6908 bound_to 6896
  152.4489  133.7547  159.6769 H   0  0  0  0  0  0  0  0  0  0  0  0  # atno 6909 bound_to 6896
  145.6675  140.9232  143.0901 H   0  0  0  0  0  0  0  0  0  0  0  0  # atno 7974 bound_to 7965
  155.0440  140.3172  155.4714 H   0  0  0  0  0  0  0  0  0  0  0  0  # atno 8008 bound_to 7997
  156.2849  140.2158  156.5508 H   0  0  0  0  0  0  0  0  0  0  0  0  # atno 8009 bound_to 7997
  154.7266  140.0485  157.0676 H   0  0  0  0  0  0  0  0  0  0  0  0  # atno 8010 bound_to 7997
  139.4948  144.3907  151.9520 H   0  0  0  0  0  0  0  0  0  0  0  0  # atno 10167 bound_to 10162
  156.4381  130.8108  151.2337 H   0  0  0  0  0  0  0  0  0  0  0  0  # atno 10718 bound_to 10713
  153.3156  135.4074  155.1373 H   0  0  0  0  0  0  0  0  0  0  0  0  # atno 10763 bound_to 10752
  154.8587  135.3575  154.5665 H   0  0  0  0  0  0  0  0  0  0  0  0  # atno 10764 bound_to 10752
  153.6096  135.7068  153.5411 H   0  0  0  0  0  0  0  0  0  0  0  0  # atno 10765 bound_to 10752
  140.7144  133.8881  155.8774 H   0  0  0  0  0  0  0  0  0  0  0  0  # atno 11005 bound_to 11000
  144.7068  139.8528  143.7427 LP  0  0  0  0  0  0  0  0  0  0  0  0  # atno 17320 bound_to 7965
  146.1074  139.4075  143.0309 LP  0  0  0  0  0  0  0  0  0  0  0  0  # atno 17321 bound_to 7965
  140.3345  144.3277  150.5980 LP  0  0  0  0  0  0  0  0  0  0  0  0  # atno 17342 bound_to 10162
  140.5617  143.2191  151.7753 LP  0  0  0  0  0  0  0  0  0  0  0  0  # atno 17343 bound_to 10162
  157.7507  131.0177  150.3596 LP  0  0  0  0  0  0  0  0  0  0  0  0  # atno 17370 bound_to 10713
  156.3947  130.3904  149.7003 LP  0  0  0  0  0  0  0  0  0  0  0  0  # atno 17371 bound_to 10713
  141.0057  134.1090  157.4273 LP  0  0  0  0  0  0  0  0  0  0  0  0  # atno 17394 bound_to 11000
  139.8863  135.0080  156.6492 LP  0  0  0  0  0  0  0  0  0  0  0  0  # atno 17395 bound_to 11000

$$$$
