AV-unprocessed.smi:3308|AV-procd|sdf|12710|dock6
  -GOLD-   2272019 43D 1   1.00000     0.00000
 Structure written by MMmdl.
 41 42  0  0  0  0  0  0  0  0  2 V2000
  148.2282  137.6789  156.4808 C   0  0  0  0  0  0  0  0  0  0  0  0
  149.1749  137.4621  155.2902 C   0  0  2  0  0  0  0  0  0  0  0  0
  149.1898  136.0307  154.9106 N   0  3  0  0  0  0  0  0  0  0  0  0
  147.8917  135.3349  155.0451 C   0  0  0  0  0  0  0  0  0  0  0  0
  147.9611  133.8753  154.5756 C   0  0  0  0  0  0  0  0  0  0  0  0
  148.7145  133.0857  155.1476 O   0  0  0  0  0  0  0  0  0  0  0  0
  147.1872  133.5046  153.5351 N   0  0  0  0  0  0  0  0  0  0  0  0
  147.1483  132.1453  152.9993 C   0  0  0  0  0  0  0  0  0  0  0  0
  145.9578  132.1127  152.0409 C   0  0  0  0  0  0  0  0  0  0  0  0
  145.7955  133.5601  151.5978 C   0  0  0  0  0  0  0  0  0  0  0  0
  146.2751  134.3784  152.7974 C   0  0  0  0  0  0  0  0  0  0  0  0
  150.6067  137.9991  155.5517 C   0  0  1  0  0  0  0  0  0  0  0  0
  151.5926  137.7619  154.3875 C   0  0  0  0  0  0  0  0  0  0  0  0
  150.5801  139.3987  155.9649 N   0  0  0  0  0  0  0  0  0  0  0  0
  150.7485  139.9097  157.2356 C   0  0  0  0  0  0  0  0  0  0  0  0
  150.5954  141.2642  157.1576 C   0  0  0  0  0  0  0  0  0  0  0  0
  150.3187  141.4947  155.7817 C   0  0  0  0  0  0  0  0  0  0  0  0
  150.2998  140.3777  155.0732 N   0  0  0  0  0  0  0  0  0  0  0  0
  148.2103  138.7262  156.7837 H   0  0  0  0  0  0  0  0  0  0  0  0
  148.5206  137.0851  157.3470 H   0  0  0  0  0  0  0  0  0  0  0  0
  147.2071  137.3970  156.2218 H   0  0  0  0  0  0  0  0  0  0  0  0
  148.7564  138.0371  154.4619 H   0  0  0  0  0  0  0  0  0  0  0  0
  149.4859  135.9640  153.9467 H   0  0  0  0  0  0  0  0  0  0  0  0
  147.5797  135.3723  156.0895 H   0  0  0  0  0  0  0  0  0  0  0  0
  147.1380  135.8568  154.4546 H   0  0  0  0  0  0  0  0  0  0  0  0
  148.0779  131.9486  152.4629 H   0  0  0  0  0  0  0  0  0  0  0  0
  147.0445  131.3948  153.7847 H   0  0  0  0  0  0  0  0  0  0  0  0
  146.1056  131.4282  151.2052 H   0  0  0  0  0  0  0  0  0  0  0  0
  145.0639  131.7943  152.5791 H   0  0  0  0  0  0  0  0  0  0  0  0
  146.4423  133.7531  150.7408 H   0  0  0  0  0  0  0  0  0  0  0  0
  144.7732  133.8001  151.3045 H   0  0  0  0  0  0  0  0  0  0  0  0
  145.4332  134.6406  153.4395 H   0  0  0  0  0  0  0  0  0  0  0  0
  146.7573  135.3010  152.4714 H   0  0  0  0  0  0  0  0  0  0  0  0
  151.0035  137.4465  156.4049 H   0  0  0  0  0  0  0  0  0  0  0  0
  151.7351  136.6990  154.1942 H   0  0  0  0  0  0  0  0  0  0  0  0
  152.5737  138.1774  154.6204 H   0  0  0  0  0  0  0  0  0  0  0  0
  151.2520  138.2236  153.4602 H   0  0  0  0  0  0  0  0  0  0  0  0
  150.9613  139.2737  158.0823 H   0  0  0  0  0  0  0  0  0  0  0  0
  150.6670  141.9813  157.9619 H   0  0  0  0  0  0  0  0  0  0  0  0
  150.1268  142.4323  155.2816 H   0  0  0  0  0  0  0  0  0  0  0  0
  149.8663  135.5479  155.4843 H   0  0  0  0  0  0  0  0  0  0  0  0
  1  2  1  0  0  0  0
  1 19  1  0  0  0  0
  1 20  1  0  0  0  0
  1 21  1  0  0  0  0
  2  3  1  0  0  0  0
  2 12  1  0  0  0  0
  2 22  1  0  0  0  0
  3  4  1  0  0  0  0
  3 23  1  0  0  0  0
  3 41  1  0  0  0  0
  4  5  1  0  0  0  0
  4 24  1  0  0  0  0
  4 25  1  0  0  0  0
  5  6  2  0  0  0  0
  5  7  1  0  0  0  0
  7 11  1  0  0  0  0
  7  8  1  0  0  0  0
  8  9  1  0  0  0  0
  8 26  1  0  0  0  0
  8 27  1  0  0  0  0
  9 10  1  0  0  0  0
  9 28  1  0  0  0  0
  9 29  1  0  0  0  0
 10 11  1  0  0  0  0
 10 30  1  0  0  0  0
 10 31  1  0  0  0  0
 11 32  1  0  0  0  0
 11 33  1  0  0  0  0
 12 13  1  0  0  0  0
 12 14  1  0  0  0  0
 12 34  1  0  0  0  0
 13 35  1  0  0  0  0
 13 36  1  0  0  0  0
 13 37  1  0  0  0  0
 14 18  1  0  0  0  0
 14 15  1  0  0  0  0
 15 16  2  0  0  0  0
 15 38  1  0  0  0  0
 16 17  1  0  0  0  0
 16 39  1  0  0  0  0
 17 18  2  0  0  0  0
 17 40  1  0  0  0  0
M  CHG  1   3   1
M  END
> <s_m_source_file>
AV-unprocessed.smi

> <i_m_source_file_index>
3308

> <i_lp_mmshare_version>
43012

> <i_f3d_flags>
0

> <s_epik_input>
bjFbY0hdW2NIXVtjSF1uMVtDQEBIXShbQ0gzXSlbQ0BIXShbQ0gzXSlbTkhdW0NIMl1DKD1PKU4yW0NIMl1bQ0gyXVtDSDJdW0NIMl0y

> <s_epik_cmdline>
J2VwaWtfcHl0aG9uJywgJy1waCcsICc3LjAnLCAnLXRuJywgJzgnLCAnLW1hJywgJzIwMCcsICctbWV0YWxfYmluZGluZycsICctaW1hZScsICc8aW5maWxlLm1hZT4nLCAnLW9tYWUnLCAnPG91dGZpbGUubWFlPic=

> <r_lp_tautomer_probability>
1

> <r_epik_Ionization_Penalty>
0.141739

> <r_epik_Ionization_Penalty_Charging>
0.141731

> <r_epik_Ionization_Penalty_Neutral>
8.82171e-06

> <r_epik_State_Penalty>
0.131043

> <r_epik_Charging_Adjusted_Penalty>
0.272773

> <i_epik_Tot_Q>
1

> <i_epik_Tot_abs_Q>
1

> <r_epik_Metal_State_Penalty>
0.131385

> <b_epik_Metal_Only>
0

> <s_lp_Force_Field>
OPLS_2005

> <r_lp_Energy>
34.1001

> <b_lp_Chiralities_Consistent>
1

> <s_lp_Variant>
AV-unprocessed.smi:3308-3

> <Gold.Version>
5.8.1

> <Gold.Id.Protein>
6NUR|6NUR_protein|mol2

> <Gold.PLP.Fitness>
36.3911

> <Gold.PLP.PLP>
-25.2780

> <Gold.PLP.part.hbond>
-2.0000

> <Gold.PLP.part.metal>
0.0000

> <Gold.PLP.part.buried>
-3.1799

> <Gold.PLP.part.nonpolar>
-19.7796

> <Gold.PLP.part.repulsive>
0.1493

> <Gold.PLP.ligand.clash>
0.0000

> <Gold.PLP.ligand.torsion>
0.4451

> <Gold.PLP.Chemscore.Hbond>
2.9440

> <Gold.PLP.Chemscore.CHOScore>
1.0000

> <Gold.PLP.Chemscore.Metal>
0.0000

> <Gold.Chemscore.Hbonds>
donor molecule, donor type, donor heavy atom, donor atom, acceptor molecule, acceptor atom, score
      L1  H     3    23       P1  7948  1.40
      P1  H  7989  7998       L1    18  0.78
      L1  C    17    40       P1  8028  0.76

> <Gold.PLP.Chemscore.Internal.Correction>
0.1712

> <Gold.Rescore>
     Score         DG    S(hbond)    S(metal)    S(lipo)     H(rot)  DE(clash)    DE(int)     intcor
     12.19     -13.03       1.64        0.00      56.71       1.78       0.01       0.82       ----

> <Gold.Chemscore.Fitness>
12.1913

> <Gold.Chemscore.DG>
-13.0298

> <Gold.Chemscore.ZeroCoef>
-5.4800

> <Gold.Chemscore.Hbond>
1.6410

> <Gold.Chemscore.Metal>
0.0000

> <Gold.Chemscore.Lipo>
56.7085

> <Gold.Chemscore.Internal_Hbond>
0.0000

> <Gold.Chemscore.DEClash>
0.0144

> <Gold.Chemscore.DEInternal>
0.8241

> <Gold.Chemscore.Rot>
1.7836

> <Gold.Chemscore.Internal.Correction>
   9.000000E+99

> <Gold.Chemscore.Hbonds>
donor molecule, donor type, donor heavy atom, donor atom, acceptor molecule, acceptor atom, score
      L1  H     3    23       P1  7948  0.41
      P1  H  7989  7998       L1    18  0.22

> <Gold.Chemscore.Hbond.Weighted>
-5.4810

> <Gold.Chemscore.Metal.Weighted>
-0.0000

> <Gold.Chemscore.Lipo.Weighted>
-6.6349

> <Gold.Chemscore.Internal_Hbond.Weighted>
0.0000

> <Gold.Chemscore.DEClash.Weighted>
0.0144

> <Gold.Chemscore.DEInternal.Weighted>
0.8241

> <Gold.Chemscore.Rot.Weighted>
4.5660

> <Gold.Chemscore.Internal.Correction.Weighted>
   9.000000E+99

> <Gold.Protein.RotatedTorsions>
[ 6907 6896 6895 6894 ] final -177.12 input  -60.11 | X-H torsion
[ 7974 7965 7964 7962 ] final   -7.54 input  175.53 | X-H torsion
[ 8008 7997 7996 7995 ] final  -48.38 input   59.86 | X-H torsion
[ 10167 10162 10161 10158 ] final -106.03 input  -65.29 | X-H torsion
[ 10718 10713 10712 10709 ] final  151.75 input   66.30 | X-H torsion
[ 10763 10752 10751 10750 ] final    5.94 input  -60.55 | X-H torsion
[ 11005 11000 10999 10996 ] final  115.05 input  -57.11 | X-H torsion

> <Gold.Protein.ActiveResidues>
 VAL166  LYS551  ARG553  GLY616  TRP617  ASP618  TYR619  PRO620  LYS621  CYS622 
 ASP623  PHE694  ASN695  SER759  ASP760  ASP761  ALA762  ILE779  LEU786  VAL792 
 PHE793  MET794  SER795  GLU796  ALA797  LYS798  CYS799  TRP800  GLU811  SER814 

> <Gold.Protein.RotatedAtoms>
  151.6158  133.3343  159.3077 H   0  0  0  0  0  0  0  0  0  0  0  0  # atno 6907 bound_to 6896
  150.8132  134.7302  159.6718 H   0  0  0  0  0  0  0  0  0  0  0  0  # atno 6908 bound_to 6896
  152.4228  134.5928  160.0030 H   0  0  0  0  0  0  0  0  0  0  0  0  # atno 6909 bound_to 6896
  146.2304  140.2335  142.8341 H   0  0  0  0  0  0  0  0  0  0  0  0  # atno 7974 bound_to 7965
  154.4028  140.1323  156.4329 H   0  0  0  0  0  0  0  0  0  0  0  0  # atno 8008 bound_to 7997
  155.7534  140.3487  155.5141 H   0  0  0  0  0  0  0  0  0  0  0  0  # atno 8009 bound_to 7997
  155.8928  140.1006  157.1396 H   0  0  0  0  0  0  0  0  0  0  0  0  # atno 8010 bound_to 7997
  140.1922  143.3883  152.1197 H   0  0  0  0  0  0  0  0  0  0  0  0  # atno 10167 bound_to 10162
  157.2667  131.0809  151.1628 H   0  0  0  0  0  0  0  0  0  0  0  0  # atno 10718 bound_to 10713
  153.2535  135.6916  153.7653 H   0  0  0  0  0  0  0  0  0  0  0  0  # atno 10763 bound_to 10752
  153.6739  135.3340  155.3161 H   0  0  0  0  0  0  0  0  0  0  0  0  # atno 10764 bound_to 10752
  154.8403  135.4506  154.1501 H   0  0  0  0  0  0  0  0  0  0  0  0  # atno 10765 bound_to 10752
  139.8998  134.9578  156.6985 H   0  0  0  0  0  0  0  0  0  0  0  0  # atno 11005 bound_to 11000
  144.9539  140.8207  143.5555 LP  0  0  0  0  0  0  0  0  0  0  0  0  # atno 17320 bound_to 7965
  145.2299  139.2120  143.5048 LP  0  0  0  0  0  0  0  0  0  0  0  0  # atno 17321 bound_to 7965
  139.5251  144.7092  151.5260 LP  0  0  0  0  0  0  0  0  0  0  0  0  # atno 17342 bound_to 10162
  140.6448  143.8817  150.6726 LP  0  0  0  0  0  0  0  0  0  0  0  0  # atno 17343 bound_to 10162
  157.3116  130.6893  149.6219 LP  0  0  0  0  0  0  0  0  0  0  0  0  # atno 17370 bound_to 10713
  155.9663  130.4362  150.5122 LP  0  0  0  0  0  0  0  0  0  0  0  0  # atno 17371 bound_to 10713
  140.7169  133.9175  155.8121 LP  0  0  0  0  0  0  0  0  0  0  0  0  # atno 17394 bound_to 11000
  141.0257  134.0826  157.4070 LP  0  0  0  0  0  0  0  0  0  0  0  0  # atno 17395 bound_to 11000

$$$$
