AV-unprocessed.smi:3166|AV-procd|sdf|12094|dock6
  -GOLD-   2272017523D 1   1.00000     0.00000
 Structure written by MMmdl.
 41 42  0  0  0  0  0  0  0  0  2 V2000
  145.4374  136.2477  151.1579 C   0  0  0  0  0  0  0  0  0  0  0  0
  145.6722  135.6254  152.5444 C   0  0  1  0  0  0  0  0  0  0  0  0
  146.1812  134.1757  152.4085 C   0  0  0  0  0  0  0  0  0  0  0  0
  145.4602  133.4117  151.4042 N   0  0  0  0  0  0  0  0  0  0  0  0
  145.9703  132.5581  150.4483 C   0  0  0  0  0  0  0  0  0  0  0  0
  144.9163  132.0879  149.7186 C   0  0  0  0  0  0  0  0  0  0  0  0
  143.7877  132.7262  150.3042 C   0  0  0  0  0  0  0  0  0  0  0  0
  144.1171  133.5208  151.3098 N   0  0  0  0  0  0  0  0  0  0  0  0
  146.6325  136.4281  153.3358 N   0  3  0  0  0  0  0  0  0  0  0  0
  146.2310  137.8278  153.5971 C   0  0  0  0  0  0  0  0  0  0  0  0
  147.4175  138.8082  153.4663 C   0  0  0  0  0  0  0  0  0  0  0  0
  147.8898  138.7165  152.1338 O   0  0  0  0  0  0  0  0  0  0  0  0
  146.9995  140.2699  153.7654 C   0  0  0  0  0  0  0  0  0  0  0  0
  148.1916  141.2437  153.7697 C   0  0  0  0  0  0  0  0  0  0  0  0
  149.2859  140.7848  154.7429 C   0  0  0  0  0  0  0  0  0  0  0  0
  149.7473  139.3578  154.4168 C   0  0  0  0  0  0  0  0  0  0  0  0
  148.5637  138.3736  154.4107 C   0  0  0  0  0  0  0  0  0  0  0  0
  144.7562  135.6348  150.5669 H   0  0  0  0  0  0  0  0  0  0  0  0
  146.3700  136.3371  150.5995 H   0  0  0  0  0  0  0  0  0  0  0  0
  144.9926  137.2399  151.2277 H   0  0  0  0  0  0  0  0  0  0  0  0
  144.7197  135.6058  153.0763 H   0  0  0  0  0  0  0  0  0  0  0  0
  147.2375  134.1713  152.1364 H   0  0  0  0  0  0  0  0  0  0  0  0
  146.1037  133.6555  153.3646 H   0  0  0  0  0  0  0  0  0  0  0  0
  147.0286  132.3576  150.3662 H   0  0  0  0  0  0  0  0  0  0  0  0
  144.9467  131.3972  148.8889 H   0  0  0  0  0  0  0  0  0  0  0  0
  142.7472  132.6383  150.0285 H   0  0  0  0  0  0  0  0  0  0  0  0
  146.7284  135.9818  154.2375 H   0  0  0  0  0  0  0  0  0  0  0  0
  145.4418  138.1135  152.9015 H   0  0  0  0  0  0  0  0  0  0  0  0
  145.8062  137.8927  154.6002 H   0  0  0  0  0  0  0  0  0  0  0  0
  148.4751  137.9762  152.0740 H   0  0  0  0  0  0  0  0  0  0  0  0
  146.2595  140.6151  153.0427 H   0  0  0  0  0  0  0  0  0  0  0  0
  146.5116  140.3117  154.7404 H   0  0  0  0  0  0  0  0  0  0  0  0
  148.6065  141.3256  152.7642 H   0  0  0  0  0  0  0  0  0  0  0  0
  147.8512  142.2432  154.0417 H   0  0  0  0  0  0  0  0  0  0  0  0
  150.1336  141.4693  154.6995 H   0  0  0  0  0  0  0  0  0  0  0  0
  148.9080  140.8242  155.7654 H   0  0  0  0  0  0  0  0  0  0  0  0
  150.2456  139.3456  153.4469 H   0  0  0  0  0  0  0  0  0  0  0  0
  150.4910  139.0351  155.1460 H   0  0  0  0  0  0  0  0  0  0  0  0
  148.1783  138.2909  155.4280 H   0  0  0  0  0  0  0  0  0  0  0  0
  148.9188  137.3774  154.1434 H   0  0  0  0  0  0  0  0  0  0  0  0
  147.5322  136.4182  152.8778 H   0  0  0  0  0  0  0  0  0  0  0  0
  1  2  1  0  0  0  0
  1 18  1  0  0  0  0
  1 19  1  0  0  0  0
  1 20  1  0  0  0  0
  2  3  1  0  0  0  0
  2  9  1  0  0  0  0
  2 21  1  0  0  0  0
  3  4  1  0  0  0  0
  3 22  1  0  0  0  0
  3 23  1  0  0  0  0
  4  8  1  0  0  0  0
  4  5  1  0  0  0  0
  5  6  2  0  0  0  0
  5 24  1  0  0  0  0
  6  7  1  0  0  0  0
  6 25  1  0  0  0  0
  7  8  2  0  0  0  0
  7 26  1  0  0  0  0
  9 10  1  0  0  0  0
  9 27  1  0  0  0  0
  9 41  1  0  0  0  0
 10 11  1  0  0  0  0
 10 28  1  0  0  0  0
 10 29  1  0  0  0  0
 11 17  1  0  0  0  0
 11 12  1  0  0  0  0
 11 13  1  0  0  0  0
 12 30  1  0  0  0  0
 13 14  1  0  0  0  0
 13 31  1  0  0  0  0
 13 32  1  0  0  0  0
 14 15  1  0  0  0  0
 14 33  1  0  0  0  0
 14 34  1  0  0  0  0
 15 16  1  0  0  0  0
 15 35  1  0  0  0  0
 15 36  1  0  0  0  0
 16 17  1  0  0  0  0
 16 37  1  0  0  0  0
 16 38  1  0  0  0  0
 17 39  1  0  0  0  0
 17 40  1  0  0  0  0
M  CHG  1   9   1
M  END
> <s_m_source_file>
AV-unprocessed.smi

> <i_m_source_file_index>
3166

> <i_lp_mmshare_version>
43012

> <i_f3d_flags>
0

> <s_epik_input>
bjFbY0hdW2NIXVtjSF1uMVtDSDJdW0NAQEhdKFtDSDNdKVtOSF1bQ0gyXUMyKFtPSF0pW0NIMl1bQ0gyXVtDSDJdW0NIMl1bQ0gyXTI=

> <s_epik_cmdline>
J2VwaWtfcHl0aG9uJywgJy1waCcsICc3LjAnLCAnLXRuJywgJzgnLCAnLW1hJywgJzIwMCcsICctbWV0YWxfYmluZGluZycsICctaW1hZScsICc8aW5maWxlLm1hZT4nLCAnLW9tYWUnLCAnPG91dGZpbGUubWFlPic=

> <r_lp_tautomer_probability>
1

> <r_epik_Ionization_Penalty>
0.0111521

> <r_epik_Ionization_Penalty_Charging>
0.0111472

> <r_epik_Ionization_Penalty_Neutral>
4.96355e-06

> <r_epik_State_Penalty>
0.00856328

> <r_epik_Charging_Adjusted_Penalty>
0.0197104

> <i_epik_Tot_Q>
1

> <i_epik_Tot_abs_Q>
1

> <r_epik_Metal_State_Penalty>
0.00856387

> <b_epik_Metal_Only>
0

> <s_lp_Force_Field>
OPLS_2005

> <r_lp_Energy>
16.9358

> <b_lp_Chiralities_Consistent>
1

> <s_lp_Variant>
AV-unprocessed.smi:3166-2

> <Gold.Version>
5.8.1

> <Gold.Id.Protein>
6NUR|6NUR_protein|mol2

> <Gold.PLP.Fitness>
47.5328

> <Gold.PLP.PLP>
-33.7475

> <Gold.PLP.part.hbond>
-2.6341

> <Gold.PLP.part.metal>
0.0000

> <Gold.PLP.part.buried>
-3.7889

> <Gold.PLP.part.nonpolar>
-28.0095

> <Gold.PLP.part.repulsive>
0.1464

> <Gold.PLP.ligand.clash>
0.0000

> <Gold.PLP.ligand.torsion>
0.6297

> <Gold.PLP.Chemscore.Hbond>
3.0000

> <Gold.PLP.Chemscore.CHOScore>
1.9995

> <Gold.PLP.Chemscore.Metal>
0.0000

> <Gold.Chemscore.Hbonds>
donor molecule, donor type, donor heavy atom, donor atom, acceptor molecule, acceptor atom, score
      L1  H     9    41       P1  7948  2.00
      L1  H    12    30       P1  7948  1.00
      L1  C     5    24       P1 10747  1.00
      L1  C     7    26       P1 10186  0.99

> <Gold.PLP.Chemscore.Internal.Correction>
0.0462

> <Gold.Rescore>
     Score         DG    S(hbond)    S(metal)    S(lipo)     H(rot)  DE(clash)    DE(int)     intcor
     16.50     -17.10       2.00        0.00      90.44       2.20       0.12       0.48       ----

> <Gold.Chemscore.Fitness>
16.5015

> <Gold.Chemscore.DG>
-17.1015

> <Gold.Chemscore.ZeroCoef>
-5.4800

> <Gold.Chemscore.Hbond>
1.9969

> <Gold.Chemscore.Metal>
0.0000

> <Gold.Chemscore.Lipo>
90.4397

> <Gold.Chemscore.Internal_Hbond>
0.0000

> <Gold.Chemscore.DEClash>
0.1220

> <Gold.Chemscore.DEInternal>
0.4779

> <Gold.Chemscore.Rot>
2.1991

> <Gold.Chemscore.Internal.Correction>
   9.000000E+99

> <Gold.Chemscore.Hbonds>
donor molecule, donor type, donor heavy atom, donor atom, acceptor molecule, acceptor atom, score
      L1  H     9    41       P1  7948  1.00
      L1  H    12    30       P1  7948  0.99

> <Gold.Chemscore.Hbond.Weighted>
-6.6698

> <Gold.Chemscore.Metal.Weighted>
-0.0000

> <Gold.Chemscore.Lipo.Weighted>
-10.5814

> <Gold.Chemscore.Internal_Hbond.Weighted>
0.0000

> <Gold.Chemscore.DEClash.Weighted>
0.1220

> <Gold.Chemscore.DEInternal.Weighted>
0.4779

> <Gold.Chemscore.Rot.Weighted>
5.6298

> <Gold.Chemscore.Internal.Correction.Weighted>
   9.000000E+99

> <Gold.Protein.RotatedTorsions>
[ 6907 6896 6895 6894 ] final   17.27 input  -60.11 | X-H torsion
[ 7974 7965 7964 7962 ] final   25.86 input  175.53 | X-H torsion
[ 8008 7997 7996 7995 ] final -153.55 input   59.86 | X-H torsion
[ 10167 10162 10161 10158 ] final  175.71 input  -65.29 | X-H torsion
[ 10718 10713 10712 10709 ] final   56.85 input   66.30 | X-H torsion
[ 10763 10752 10751 10750 ] final  149.31 input  -60.55 | X-H torsion
[ 11005 11000 10999 10996 ] final -142.92 input  -57.11 | X-H torsion

> <Gold.Protein.ActiveResidues>
 VAL166  LYS551  ARG553  GLY616  TRP617  ASP618  TYR619  PRO620  LYS621  CYS622 
 ASP623  PHE694  ASN695  SER759  ASP760  ASP761  ALA762  ILE779  LEU786  VAL792 
 PHE793  MET794  SER795  GLU796  ALA797  LYS798  CYS799  TRP800  GLU811  SER814 

> <Gold.Protein.RotatedAtoms>
  151.8470  135.0571  160.0454 H   0  0  0  0  0  0  0  0  0  0  0  0  # atno 6907 bound_to 6896
  152.2766  133.5426  159.5480 H   0  0  0  0  0  0  0  0  0  0  0  0  # atno 6908 bound_to 6896
  150.7172  134.0540  159.3850 H   0  0  0  0  0  0  0  0  0  0  0  0  # atno 6909 bound_to 6896
  146.1867  139.7408  142.8861 H   0  0  0  0  0  0  0  0  0  0  0  0  # atno 7974 bound_to 7965
  155.6725  140.0735  157.2515 H   0  0  0  0  0  0  0  0  0  0  0  0  # atno 8008 bound_to 7997
  154.4120  140.1696  156.1946 H   0  0  0  0  0  0  0  0  0  0  0  0  # atno 8009 bound_to 7997
  155.9604  140.3370  155.6489 H   0  0  0  0  0  0  0  0  0  0  0  0  # atno 8010 bound_to 7997
  139.5187  144.3000  152.0387 H   0  0  0  0  0  0  0  0  0  0  0  0  # atno 10167 bound_to 10162
  157.5465  130.8735  149.8899 H   0  0  0  0  0  0  0  0  0  0  0  0  # atno 10718 bound_to 10713
  154.0691  135.2868  155.3311 H   0  0  0  0  0  0  0  0  0  0  0  0  # atno 10763 bound_to 10752
  154.6758  135.5282  153.8201 H   0  0  0  0  0  0  0  0  0  0  0  0  # atno 10764 bound_to 10752
  153.0492  135.6569  154.0874 H   0  0  0  0  0  0  0  0  0  0  0  0  # atno 10765 bound_to 10752
  140.8177  134.2668  157.4914 H   0  0  0  0  0  0  0  0  0  0  0  0  # atno 11005 bound_to 11000
  145.3916  141.0373  143.3120 LP  0  0  0  0  0  0  0  0  0  0  0  0  # atno 17320 bound_to 7965
  144.8411  139.5471  143.6900 LP  0  0  0  0  0  0  0  0  0  0  0  0  # atno 17321 bound_to 7965
  140.2448  144.4231  150.6245 LP  0  0  0  0  0  0  0  0  0  0  0  0  # atno 17342 bound_to 10162
  140.6265  143.2182  151.6585 LP  0  0  0  0  0  0  0  0  0  0  0  0  # atno 17343 bound_to 10162
  156.0540  130.3712  150.1134 LP  0  0  0  0  0  0  0  0  0  0  0  0  # atno 17370 bound_to 10713
  156.9310  130.9714  151.3533 LP  0  0  0  0  0  0  0  0  0  0  0  0  # atno 17371 bound_to 10713
  139.8710  134.9518  156.4097 LP  0  0  0  0  0  0  0  0  0  0  0  0  # atno 17394 bound_to 11000
  140.9131  133.7697  155.9816 LP  0  0  0  0  0  0  0  0  0  0  0  0  # atno 17395 bound_to 11000

$$$$
