AV-unprocessed.smi:1339|AV-procd|sdf|5502|dock4
  -GOLD-   22720 5 83D 1   1.00000     0.00000
 Structure written by MMmdl.
 40 41  0  0  0  0  0  0  0  0  1 V2000
  152.5061  142.4340  159.6312 C   0  0  0  0  0  0  0  0  0  0  0  0
  151.9848  143.5341  158.6914 C   0  0  0  0  0  0  0  0  0  0  0  0
  151.8428  144.8620  159.4513 C   0  0  0  0  0  0  0  0  0  0  0  0
  150.6534  143.1473  158.0164 C   0  0  0  0  0  0  0  0  0  0  0  0
  150.7735  141.9897  157.0078 C   0  0  0  0  0  0  0  0  0  0  0  0
  149.8259  142.1465  155.9112 N   0  0  0  0  0  0  0  0  0  0  0  0
  149.6638  141.2757  154.9024 C   0  0  0  0  0  0  0  0  0  0  0  0
  150.3331  140.2502  154.7773 O   0  0  0  0  0  0  0  0  0  0  0  0
  148.5723  141.6062  153.8838 C   0  0  0  0  0  0  0  0  0  0  0  0
  147.3199  142.0286  154.5950 C   0  0  0  0  0  0  0  0  0  0  0  0
  146.7814  141.4621  155.7250 C   0  0  0  0  0  0  0  0  0  0  0  0
  145.3082  142.2532  156.2146 S   0  0  0  0  0  0  0  0  0  0  0  0
  145.4851  143.3537  154.8495 C   0  0  0  0  0  0  0  0  0  0  0  0
  144.5580  144.3985  154.5592 N   0  0  0  0  0  0  0  0  0  0  0  0
  143.4915  144.7417  155.4917 C   0  0  0  0  0  0  0  0  0  0  0  0
  142.7468  145.8767  154.7951 C   0  0  0  0  0  0  0  0  0  0  0  0
  143.4950  146.0242  153.5692 N   0  0  0  0  0  0  0  0  0  0  0  0
  144.5191  145.1755  153.4565 C   0  0  0  0  0  0  0  0  0  0  0  0
  145.2811  145.1397  152.4913 O   0  0  0  0  0  0  0  0  0  0  0  0
  146.5741  143.1083  154.1114 N   0  0  0  0  0  0  0  0  0  0  0  0
  151.7812  142.2057  160.4132 H   0  0  0  0  0  0  0  0  0  0  0  0
  153.4322  142.7416  160.1179 H   0  0  0  0  0  0  0  0  0  0  0  0
  152.7193  141.5104  159.0942 H   0  0  0  0  0  0  0  0  0  0  0  0
  152.7295  143.6879  157.9093 H   0  0  0  0  0  0  0  0  0  0  0  0
  151.1045  144.7843  160.2501 H   0  0  0  0  0  0  0  0  0  0  0  0
  151.5293  145.6667  158.7856 H   0  0  0  0  0  0  0  0  0  0  0  0
  152.7896  145.1616  159.9018 H   0  0  0  0  0  0  0  0  0  0  0  0
  149.9163  142.8994  158.7817 H   0  0  0  0  0  0  0  0  0  0  0  0
  150.2578  144.0176  157.4906 H   0  0  0  0  0  0  0  0  0  0  0  0
  151.7782  141.9671  156.5855 H   0  0  0  0  0  0  0  0  0  0  0  0
  150.6181  141.0253  157.4929 H   0  0  0  0  0  0  0  0  0  0  0  0
  149.2337  142.9640  155.9326 H   0  0  0  0  0  0  0  0  0  0  0  0
  148.9194  142.3934  153.2134 H   0  0  0  0  0  0  0  0  0  0  0  0
  148.3891  140.7302  153.2600 H   0  0  0  0  0  0  0  0  0  0  0  0
  147.1581  140.6249  156.2935 H   0  0  0  0  0  0  0  0  0  0  0  0
  142.8392  143.8843  155.6638 H   0  0  0  0  0  0  0  0  0  0  0  0
  143.9043  145.0648  156.4484 H   0  0  0  0  0  0  0  0  0  0  0  0
  141.7094  145.6170  154.5820 H   0  0  0  0  0  0  0  0  0  0  0  0
  142.7714  146.8004  155.3740 H   0  0  0  0  0  0  0  0  0  0  0  0
  143.2550  146.7097  152.8678 H   0  0  0  0  0  0  0  0  0  0  0  0
  1  2  1  0  0  0  0
  1 21  1  0  0  0  0
  1 22  1  0  0  0  0
  1 23  1  0  0  0  0
  2  3  1  0  0  0  0
  2  4  1  0  0  0  0
  2 24  1  0  0  0  0
  3 25  1  0  0  0  0
  3 26  1  0  0  0  0
  3 27  1  0  0  0  0
  4  5  1  0  0  0  0
  4 28  1  0  0  0  0
  4 29  1  0  0  0  0
  5  6  1  0  0  0  0
  5 30  1  0  0  0  0
  5 31  1  0  0  0  0
  6  7  1  0  0  0  0
  6 32  1  0  0  0  0
  7  8  2  0  0  0  0
  7  9  1  0  0  0  0
  9 10  1  0  0  0  0
  9 33  1  0  0  0  0
  9 34  1  0  0  0  0
 10 20  1  0  0  0  0
 10 11  2  0  0  0  0
 11 12  1  0  0  0  0
 11 35  1  0  0  0  0
 12 13  1  0  0  0  0
 13 14  1  0  0  0  0
 13 20  2  0  0  0  0
 14 18  1  0  0  0  0
 14 15  1  0  0  0  0
 15 16  1  0  0  0  0
 15 36  1  0  0  0  0
 15 37  1  0  0  0  0
 16 17  1  0  0  0  0
 16 38  1  0  0  0  0
 16 39  1  0  0  0  0
 17 18  1  0  0  0  0
 17 40  1  0  0  0  0
 18 19  2  0  0  0  0
M  END
> <s_m_source_file>
AV-unprocessed.smi

> <i_m_source_file_index>
1339

> <i_lp_mmshare_version>
43012

> <i_f3d_flags>
0

> <s_epik_input>
W0NIM11bQ0hdKFtDSDNdKVtDSDJdW0NIMl1bTkhdQyg9TylbQ0gyXWMxW2NIXXNjKG4xKU4yW0NIMl1bQ0gyXVtOSF1DMj1P

> <s_epik_cmdline>
J2VwaWtfcHl0aG9uJywgJy1waCcsICc3LjAnLCAnLXRuJywgJzgnLCAnLW1hJywgJzIwMCcsICctbWV0YWxfYmluZGluZycsICctaW1hZScsICc8aW5maWxlLm1hZT4nLCAnLW9tYWUnLCAnPG91dGZpbGUubWFlPic=

> <r_lp_tautomer_probability>
1

> <r_epik_Ionization_Penalty>
0.000122408

> <r_epik_Ionization_Penalty_Charging>
0

> <r_epik_Ionization_Penalty_Neutral>
0.000122408

> <r_epik_State_Penalty>
-0

> <r_epik_Charging_Adjusted_Penalty>
0

> <i_epik_Tot_Q>
0

> <i_epik_Tot_abs_Q>
0

> <r_epik_Metal_State_Penalty>
-0

> <b_epik_Metal_Only>
0

> <s_lp_Force_Field>
OPLS_2005

> <r_lp_Energy>
32.4973

> <b_lp_Chiralities_Consistent>
1

> <s_lp_Variant>
AV-unprocessed.smi:1339-1

> <Gold.Version>
5.8.1

> <Gold.Id.Protein>
6NUR|6NUR_protein|mol2

> <Gold.PLP.Fitness>
47.5781

> <Gold.PLP.PLP>
-43.1257

> <Gold.PLP.part.hbond>
-2.1763

> <Gold.PLP.part.metal>
0.0000

> <Gold.PLP.part.buried>
-5.9393

> <Gold.PLP.part.nonpolar>
-36.2841

> <Gold.PLP.part.repulsive>
1.2750

> <Gold.PLP.ligand.clash>
0.0000

> <Gold.PLP.ligand.torsion>
0.7266

> <Gold.PLP.Chemscore.Hbond>
1.9500

> <Gold.PLP.Chemscore.CHOScore>
0.0000

> <Gold.PLP.Chemscore.Metal>
0.0000

> <Gold.Chemscore.Hbonds>
donor molecule, donor type, donor heavy atom, donor atom, acceptor molecule, acceptor atom, score
      L1  H     6    32       P1  8028  1.00
      P1  H  7989  7998       L1     8  0.95

> <Gold.PLP.Chemscore.Internal.Correction>
0.0556

> <Gold.Rescore>
     Score         DG    S(hbond)    S(metal)    S(lipo)     H(rot)  DE(clash)    DE(int)     intcor
     14.02     -16.16       1.71        0.00      85.03       1.95       0.20       1.93       ----

> <Gold.Chemscore.Fitness>
14.0243

> <Gold.Chemscore.DG>
-16.1559

> <Gold.Chemscore.ZeroCoef>
-5.4800

> <Gold.Chemscore.Hbond>
1.7102

> <Gold.Chemscore.Metal>
0.0000

> <Gold.Chemscore.Lipo>
85.0317

> <Gold.Chemscore.Internal_Hbond>
0.0000

> <Gold.Chemscore.DEClash>
0.2038

> <Gold.Chemscore.DEInternal>
1.9278

> <Gold.Chemscore.Rot>
1.9472

> <Gold.Chemscore.Internal.Correction>
   9.000000E+99

> <Gold.Chemscore.Hbonds>
donor molecule, donor type, donor heavy atom, donor atom, acceptor molecule, acceptor atom, score
      L1  H     6    32       P1  8028  0.98
      P1  H  7989  7998       L1     8  0.21

> <Gold.Chemscore.Hbond.Weighted>
-5.7121

> <Gold.Chemscore.Metal.Weighted>
-0.0000

> <Gold.Chemscore.Lipo.Weighted>
-9.9487

> <Gold.Chemscore.Internal_Hbond.Weighted>
0.0000

> <Gold.Chemscore.DEClash.Weighted>
0.2038

> <Gold.Chemscore.DEInternal.Weighted>
1.9278

> <Gold.Chemscore.Rot.Weighted>
4.9849

> <Gold.Chemscore.Internal.Correction.Weighted>
   9.000000E+99

> <Gold.Protein.RotatedTorsions>
[ 6907 6896 6895 6894 ] final   72.87 input  -60.11 | X-H torsion
[ 7974 7965 7964 7962 ] final    4.22 input  175.53 | X-H torsion
[ 8008 7997 7996 7995 ] final   80.46 input   59.86 | X-H torsion
[ 10167 10162 10161 10158 ] final   74.10 input  -65.29 | X-H torsion
[ 10718 10713 10712 10709 ] final  108.52 input   66.30 | X-H torsion
[ 10763 10752 10751 10750 ] final  -46.37 input  -60.55 | X-H torsion
[ 11005 11000 10999 10996 ] final  -90.10 input  -57.11 | X-H torsion

> <Gold.Protein.ActiveResidues>
 VAL166  LYS551  ARG553  GLY616  TRP617  ASP618  TYR619  PRO620  LYS621  CYS622 
 ASP623  PHE694  ASN695  SER759  ASP760  ASP761  ALA762  ILE779  LEU786  VAL792 
 PHE793  MET794  SER795  GLU796  ALA797  LYS798  CYS799  TRP800  GLU811  SER814 

> <Gold.Protein.RotatedAtoms>
  152.4892  134.4506  159.9572 H   0  0  0  0  0  0  0  0  0  0  0  0  # atno 6907 bound_to 6896
  151.4496  133.3615  159.2801 H   0  0  0  0  0  0  0  0  0  0  0  0  # atno 6908 bound_to 6896
  150.9031  134.8468  159.7434 H   0  0  0  0  0  0  0  0  0  0  0  0  # atno 6909 bound_to 6896
  146.2444  140.0568  142.8371 H   0  0  0  0  0  0  0  0  0  0  0  0  # atno 7974 bound_to 7965
  155.8837  140.3442  155.5906 H   0  0  0  0  0  0  0  0  0  0  0  0  # atno 8008 bound_to 7997
  155.7690  140.0843  157.2136 H   0  0  0  0  0  0  0  0  0  0  0  0  # atno 8009 bound_to 7997
  154.4027  140.1522  156.2907 H   0  0  0  0  0  0  0  0  0  0  0  0  # atno 8010 bound_to 7997
  140.0173  144.5567  150.7610 H   0  0  0  0  0  0  0  0  0  0  0  0  # atno 10167 bound_to 10162
  157.6582  131.0895  150.6317 H   0  0  0  0  0  0  0  0  0  0  0  0  # atno 10718 bound_to 10713
  154.0439  135.6640  153.4793 H   0  0  0  0  0  0  0  0  0  0  0  0  # atno 10763 bound_to 10752
  153.0490  135.5096  154.7816 H   0  0  0  0  0  0  0  0  0  0  0  0  # atno 10764 bound_to 10752
  154.6801  135.3043  154.9591 H   0  0  0  0  0  0  0  0  0  0  0  0  # atno 10765 bound_to 10752
  141.1572  133.7671  156.9689 H   0  0  0  0  0  0  0  0  0  0  0  0  # atno 11005 bound_to 11000
  145.0935  140.9300  143.4755 LP  0  0  0  0  0  0  0  0  0  0  0  0  # atno 17320 bound_to 7965
  145.0746  139.3006  143.5815 LP  0  0  0  0  0  0  0  0  0  0  0  0  # atno 17321 bound_to 7965
  140.7357  143.2744  151.3788 LP  0  0  0  0  0  0  0  0  0  0  0  0  # atno 17342 bound_to 10162
  139.6163  144.0995  152.2349 LP  0  0  0  0  0  0  0  0  0  0  0  0  # atno 17343 bound_to 10162
  156.6622  130.4515  149.5684 LP  0  0  0  0  0  0  0  0  0  0  0  0  # atno 17370 bound_to 10713
  156.2059  130.6648  151.1217 LP  0  0  0  0  0  0  0  0  0  0  0  0  # atno 17371 bound_to 10713
  140.1142  134.9457  157.2110 LP  0  0  0  0  0  0  0  0  0  0  0  0  # atno 17394 bound_to 11000
  140.3154  134.2976  155.7257 LP  0  0  0  0  0  0  0  0  0  0  0  0  # atno 17395 bound_to 11000

$$$$
