AV-unprocessed.smi:1283|AV-procd|sdf|5362|dock6
  -GOLD-   22720 4503D 1   1.00000     0.00000
 Structure written by MMmdl.
 30 31  0  0  0  0  0  0  0  0  1 V2000
  151.0107  137.4968  154.4210 C   0  0  0  0  0  0  0  0  0  0  0  0
  150.7934  138.8659  154.8909 N   0  0  0  0  0  0  0  0  0  0  0  0
  151.8772  139.3884  155.5653 N   0  0  0  0  0  0  0  0  0  0  0  0
  151.8165  140.5862  156.0356 C   0  0  0  0  0  0  0  0  0  0  0  0
  150.6422  141.4310  155.8884 C   0  0  0  0  0  0  0  0  0  0  0  0
  150.5808  142.7200  156.3999 N   0  0  0  0  0  0  0  0  0  0  0  0
  151.6062  143.4418  157.1370 C   0  0  0  0  0  0  0  0  0  0  0  0
  151.1708  143.7644  158.5751 C   0  0  1  0  0  0  0  0  0  0  0  0
  152.1948  143.4466  159.6673 C   0  0  0  0  0  0  0  0  0  0  0  0
  151.7607  144.3928  160.7640 C   0  0  0  0  0  0  0  0  0  0  0  0
  151.3598  145.6303  159.9650 C   0  0  0  0  0  0  0  0  0  0  0  0
  150.8545  145.1465  158.7230 O   0  0  0  0  0  0  0  0  0  0  0  0
  149.5886  140.8937  155.2172 C   0  0  0  0  0  0  0  0  0  0  0  0
  148.1417  141.8171  154.9824 Cl  0  0  0  0  0  0  0  0  0  0  0  0
  149.6213  139.5309  154.6654 C   0  0  0  0  0  0  0  0  0  0  0  0
  148.6785  139.0278  154.0531 O   0  0  0  0  0  0  0  0  0  0  0  0
  150.1615  137.0684  153.8874 H   0  0  0  0  0  0  0  0  0  0  0  0
  151.2265  136.8413  155.2658 H   0  0  0  0  0  0  0  0  0  0  0  0
  151.8673  137.4648  153.7466 H   0  0  0  0  0  0  0  0  0  0  0  0
  152.6569  141.0238  156.5738 H   0  0  0  0  0  0  0  0  0  0  0  0
  149.7248  143.2347  156.2477 H   0  0  0  0  0  0  0  0  0  0  0  0
  152.5175  142.8434  157.1536 H   0  0  0  0  0  0  0  0  0  0  0  0
  151.8387  144.3668  156.6083 H   0  0  0  0  0  0  0  0  0  0  0  0
  150.2563  143.2116  158.7951 H   0  0  0  0  0  0  0  0  0  0  0  0
  152.1802  142.4001  159.9728 H   0  0  0  0  0  0  0  0  0  0  0  0
  153.2082  143.6947  159.3495 H   0  0  0  0  0  0  0  0  0  0  0  0
  150.8948  143.9869  161.2891 H   0  0  0  0  0  0  0  0  0  0  0  0
  152.5437  144.5921  161.4961 H   0  0  0  0  0  0  0  0  0  0  0  0
  150.6227  146.2418  160.4858 H   0  0  0  0  0  0  0  0  0  0  0  0
  152.2339  146.2508  159.7639 H   0  0  0  0  0  0  0  0  0  0  0  0
  1  2  1  0  0  0  0
  1 17  1  0  0  0  0
  1 18  1  0  0  0  0
  1 19  1  0  0  0  0
  2 15  1  0  0  0  0
  2  3  1  0  0  0  0
  3  4  2  0  0  0  0
  4  5  1  0  0  0  0
  4 20  1  0  0  0  0
  5  6  1  0  0  0  0
  5 13  2  0  0  0  0
  6  7  1  0  0  0  0
  6 21  1  0  0  0  0
  7  8  1  0  0  0  0
  7 22  1  0  0  0  0
  7 23  1  0  0  0  0
  8 12  1  0  0  0  0
  8  9  1  0  0  0  0
  8 24  1  0  0  0  0
  9 10  1  0  0  0  0
  9 25  1  0  0  0  0
  9 26  1  0  0  0  0
 10 11  1  0  0  0  0
 10 27  1  0  0  0  0
 10 28  1  0  0  0  0
 11 12  1  0  0  0  0
 11 29  1  0  0  0  0
 11 30  1  0  0  0  0
 13 14  1  0  0  0  0
 13 15  1  0  0  0  0
 15 16  2  0  0  0  0
M  END
> <s_m_source_file>
AV-unprocessed.smi

> <i_m_source_file_index>
1283

> <i_lp_mmshare_version>
43012

> <i_f3d_flags>
0

> <s_epik_input>
W0NIM11uMW5bY0hdYyhjKENsKWMxPU8pW05IXVtDSDJdW0NAQEhdMltDSDJdW0NIMl1bQ0gyXU8y

> <s_epik_cmdline>
J2VwaWtfcHl0aG9uJywgJy1waCcsICc3LjAnLCAnLXRuJywgJzgnLCAnLW1hJywgJzIwMCcsICctbWV0YWxfYmluZGluZycsICctaW1hZScsICc8aW5maWxlLm1hZT4nLCAnLW9tYWUnLCAnPG91dGZpbGUubWFlPic=

> <r_lp_tautomer_probability>
1

> <r_epik_Ionization_Penalty>
2.40876e-05

> <r_epik_Ionization_Penalty_Charging>
4.17655e-09

> <r_epik_Ionization_Penalty_Neutral>
2.40834e-05

> <r_epik_State_Penalty>
-0

> <r_epik_Charging_Adjusted_Penalty>
4.17655e-09

> <i_epik_Tot_Q>
0

> <i_epik_Tot_abs_Q>
0

> <r_epik_Metal_State_Penalty>
-0

> <b_epik_Metal_Only>
0

> <s_lp_Force_Field>
OPLS_2005

> <r_lp_Energy>
41.0811

> <b_lp_Chiralities_Consistent>
1

> <s_lp_Variant>
AV-unprocessed.smi:1283-2

> <Gold.Version>
5.8.1

> <Gold.Id.Protein>
6NUR|6NUR_protein|mol2

> <Gold.PLP.Fitness>
37.5081

> <Gold.PLP.PLP>
-35.8757

> <Gold.PLP.part.hbond>
-1.0000

> <Gold.PLP.part.metal>
0.0000

> <Gold.PLP.part.buried>
-5.2708

> <Gold.PLP.part.nonpolar>
-30.6266

> <Gold.PLP.part.repulsive>
0.4372

> <Gold.PLP.ligand.clash>
0.0000

> <Gold.PLP.ligand.torsion>
0.6720

> <Gold.PLP.Chemscore.Hbond>
0.9920

> <Gold.PLP.Chemscore.CHOScore>
0.0000

> <Gold.PLP.Chemscore.Metal>
0.0000

> <Gold.Chemscore.Hbonds>
donor molecule, donor type, donor heavy atom, donor atom, acceptor molecule, acceptor atom, score
      L1  H     6    21       P1  8028  0.99

> <Gold.PLP.Chemscore.Internal.Correction>
0.0004

> <Gold.Rescore>
     Score         DG    S(hbond)    S(metal)    S(lipo)     H(rot)  DE(clash)    DE(int)     intcor
     14.82     -15.86       0.91        0.00      89.48       1.22       0.37       0.68       ----

> <Gold.Chemscore.Fitness>
14.8163

> <Gold.Chemscore.DG>
-15.8610

> <Gold.Chemscore.ZeroCoef>
-5.4800

> <Gold.Chemscore.Hbond>
0.9093

> <Gold.Chemscore.Metal>
0.0000

> <Gold.Chemscore.Lipo>
89.4816

> <Gold.Chemscore.Internal_Hbond>
0.0000

> <Gold.Chemscore.DEClash>
0.3664

> <Gold.Chemscore.DEInternal>
0.6783

> <Gold.Chemscore.Rot>
1.2208

> <Gold.Chemscore.Internal.Correction>
   9.000000E+99

> <Gold.Chemscore.Hbonds>
donor molecule, donor type, donor heavy atom, donor atom, acceptor molecule, acceptor atom, score
      L1  H     6    21       P1  8028  0.93

> <Gold.Chemscore.Hbond.Weighted>
-3.0369

> <Gold.Chemscore.Metal.Weighted>
-0.0000

> <Gold.Chemscore.Lipo.Weighted>
-10.4693

> <Gold.Chemscore.Internal_Hbond.Weighted>
0.0000

> <Gold.Chemscore.DEClash.Weighted>
0.3664

> <Gold.Chemscore.DEInternal.Weighted>
0.6783

> <Gold.Chemscore.Rot.Weighted>
3.1253

> <Gold.Chemscore.Internal.Correction.Weighted>
   9.000000E+99

> <Gold.Protein.RotatedTorsions>
[ 6907 6896 6895 6894 ] final -135.10 input  -60.11 | X-H torsion
[ 7974 7965 7964 7962 ] final  170.48 input  175.53 | X-H torsion
[ 8008 7997 7996 7995 ] final   67.27 input   59.86 | X-H torsion
[ 10167 10162 10161 10158 ] final   64.43 input  -65.29 | X-H torsion
[ 10718 10713 10712 10709 ] final  159.81 input   66.30 | X-H torsion
[ 10763 10752 10751 10750 ] final -101.18 input  -60.55 | X-H torsion
[ 11005 11000 10999 10996 ] final  -68.23 input  -57.11 | X-H torsion

> <Gold.Protein.ActiveResidues>
 VAL166  LYS551  ARG553  GLY616  TRP617  ASP618  TYR619  PRO620  LYS621  CYS622 
 ASP623  PHE694  ASN695  SER759  ASP760  ASP761  ALA762  ILE779  LEU786  VAL792 
 PHE793  MET794  SER795  GLU796  ALA797  LYS798  CYS799  TRP800  GLU811  SER814 

> <Gold.Protein.RotatedAtoms>
  150.9938  133.6123  159.2704 H   0  0  0  0  0  0  0  0  0  0  0  0  # atno 6907 bound_to 6896
  151.3334  135.0846  159.9356 H   0  0  0  0  0  0  0  0  0  0  0  0  # atno 6908 bound_to 6896
  152.5254  133.9564  159.7750 H   0  0  0  0  0  0  0  0  0  0  0  0  # atno 6909 bound_to 6896
  144.7322  139.9208  143.6420 H   0  0  0  0  0  0  0  0  0  0  0  0  # atno 7974 bound_to 7965
  155.6903  140.3496  155.4891 H   0  0  0  0  0  0  0  0  0  0  0  0  # atno 8008 bound_to 7997
  155.9530  140.1123  157.0983 H   0  0  0  0  0  0  0  0  0  0  0  0  # atno 8009 bound_to 7997
  154.4126  140.1190  156.5064 H   0  0  0  0  0  0  0  0  0  0  0  0  # atno 8010 bound_to 7997
  140.1223  144.4720  150.6913 H   0  0  0  0  0  0  0  0  0  0  0  0  # atno 10167 bound_to 10162
  157.1591  131.0583  151.2241 H   0  0  0  0  0  0  0  0  0  0  0  0  # atno 10718 bound_to 10713
  154.7638  135.4907  153.9515 H   0  0  0  0  0  0  0  0  0  0  0  0  # atno 10763 bound_to 10752
  153.1283  135.6747  153.9228 H   0  0  0  0  0  0  0  0  0  0  0  0  # atno 10764 bound_to 10752
  153.8939  135.3117  155.3426 H   0  0  0  0  0  0  0  0  0  0  0  0  # atno 10765 bound_to 10752
  141.1527  133.6736  156.6414 H   0  0  0  0  0  0  0  0  0  0  0  0  # atno 11005 bound_to 11000
  146.0931  139.3922  143.0393 LP  0  0  0  0  0  0  0  0  0  0  0  0  # atno 17320 bound_to 7965
  145.7684  140.9907  143.1163 LP  0  0  0  0  0  0  0  0  0  0  0  0  # atno 17321 bound_to 7965
  140.6865  143.2353  151.5247 LP  0  0  0  0  0  0  0  0  0  0  0  0  # atno 17342 bound_to 10162
  139.5562  144.2269  152.1616 LP  0  0  0  0  0  0  0  0  0  0  0  0  # atno 17343 bound_to 10162
  157.4149  130.7405  149.6868 LP  0  0  0  0  0  0  0  0  0  0  0  0  # atno 17370 bound_to 10713
  155.9757  130.4085  150.3832 LP  0  0  0  0  0  0  0  0  0  0  0  0  # atno 17371 bound_to 10713
  140.3390  134.7865  157.4383 LP  0  0  0  0  0  0  0  0  0  0  0  0  # atno 17394 bound_to 11000
  140.0954  134.5545  155.8404 LP  0  0  0  0  0  0  0  0  0  0  0  0  # atno 17395 bound_to 11000

$$$$
