AV-unprocessed.smi:798|AV-procd|sdf|3781|dock1
  -GOLD-   22720 1213D 1   1.00000     0.00000
 Structure written by MMmdl.
 33 35  0  0  0  0  0  0  0  0  2 V2000
  150.8175  136.9068  159.5037 O   0  0  0  0  0  0  0  0  0  0  0  0
  149.7831  137.2388  158.9205 C   0  0  0  0  0  0  0  0  0  0  0  0
  148.6005  136.5836  158.9511 N   0  5  0  0  0  0  0  0  0  0  0  0
  148.0602  136.2268  160.1279 C   0  0  0  0  0  0  0  0  0  0  0  0
  147.7793  137.1209  161.0894 N   0  0  0  0  0  0  0  0  0  0  0  0
  147.2198  136.5465  162.2227 N   0  0  0  0  0  0  0  0  0  0  0  0
  147.0851  135.2279  162.0830 C   0  0  0  0  0  0  0  0  0  0  0  0
  147.6265  134.5686  160.5537 S   0  0  0  0  0  0  0  0  0  0  0  0
  149.7679  138.3404  158.1566 N   0  0  0  0  0  0  0  0  0  0  0  0
  150.8917  139.2513  157.9254 C   0  0  2  0  0  0  0  0  0  0  0  0
  150.6130  140.6779  158.4609 C   0  0  2  0  0  0  0  0  0  0  0  0
  149.2553  141.2133  157.9579 C   0  0  0  0  0  0  0  0  0  0  0  0
  149.5213  141.4468  156.4601 C   0  0  0  0  0  0  0  0  0  0  0  0
  151.0037  141.0463  156.3055 C   0  0  1  0  0  0  0  0  0  0  0  0
  151.5785  141.5217  157.6347 C   0  0  0  0  0  0  0  0  0  0  0  0
  151.2093  139.5159  156.4242 C   0  0  2  0  0  0  0  0  0  0  0  0
  150.4724  138.6519  155.3756 C   0  0  0  0  0  0  0  0  0  0  0  0
  150.5847  139.2311  154.0925 O   0  0  0  0  0  0  0  0  0  0  0  0
  146.6612  134.6403  162.8836 H   0  0  0  0  0  0  0  0  0  0  0  0
  148.8988  138.5692  157.6968 H   0  0  0  0  0  0  0  0  0  0  0  0
  151.7859  138.8661  158.4193 H   0  0  0  0  0  0  0  0  0  0  0  0
  150.7390  140.7677  159.5404 H   0  0  0  0  0  0  0  0  0  0  0  0
  148.4204  140.5360  158.1363 H   0  0  0  0  0  0  0  0  0  0  0  0
  149.0140  142.1568  158.4491 H   0  0  0  0  0  0  0  0  0  0  0  0
  148.8504  140.8758  155.8199 H   0  0  0  0  0  0  0  0  0  0  0  0
  149.3828  142.5002  156.2139 H   0  0  0  0  0  0  0  0  0  0  0  0
  151.4815  141.4809  155.4272 H   0  0  0  0  0  0  0  0  0  0  0  0
  151.4658  142.5952  157.7974 H   0  0  0  0  0  0  0  0  0  0  0  0
  152.6253  141.2484  157.7796 H   0  0  0  0  0  0  0  0  0  0  0  0
  152.2749  139.3228  156.2868 H   0  0  0  0  0  0  0  0  0  0  0  0
  150.9154  137.6567  155.3333 H   0  0  0  0  0  0  0  0  0  0  0  0
  149.4193  138.5166  155.6188 H   0  0  0  0  0  0  0  0  0  0  0  0
  150.2251  138.6273  153.4607 H   0  0  0  0  0  0  0  0  0  0  0  0
  1  2  2  0  0  0  0
  2  3  1  0  0  0  0
  2  9  1  0  0  0  0
  3  4  1  0  0  0  0
  4  8  1  0  0  0  0
  4  5  2  0  0  0  0
  5  6  1  0  0  0  0
  6  7  2  0  0  0  0
  7  8  1  0  0  0  0
  7 19  1  0  0  0  0
  9 10  1  0  0  0  0
  9 20  1  0  0  0  0
 10 16  1  0  0  0  0
 10 11  1  0  0  0  0
 10 21  1  0  0  0  0
 11 15  1  0  0  0  0
 11 12  1  0  0  0  0
 11 22  1  0  0  0  0
 12 13  1  0  0  0  0
 12 23  1  0  0  0  0
 12 24  1  0  0  0  0
 13 14  1  0  0  0  0
 13 25  1  0  0  0  0
 13 26  1  0  0  0  0
 14 15  1  0  0  0  0
 14 16  1  0  0  0  0
 14 27  1  0  0  0  0
 15 28  1  0  0  0  0
 15 29  1  0  0  0  0
 16 17  1  0  0  0  0
 16 30  1  0  0  0  0
 17 18  1  0  0  0  0
 17 31  1  0  0  0  0
 17 32  1  0  0  0  0
 18 33  1  0  0  0  0
M  CHG  1   3  -1
M  END
> <s_m_source_file>
AV-unprocessed.smi

> <i_m_source_file_index>
798

> <i_lp_mmshare_version>
43012

> <i_f3d_flags>
0

> <s_epik_input>
W0NIMl0xW0NIMl1bQ0BASF0oW0NIMl0yKVtDQEBIXShbQ0gyXVtPSF0pW0NAQEhdKFtDQEhdMTIpW05IXUMoPU8pW05IXWMzbm5bY0hdczM=

> <s_epik_cmdline>
J2VwaWtfcHl0aG9uJywgJy1waCcsICc3LjAnLCAnLXRuJywgJzgnLCAnLW1hJywgJzIwMCcsICctbWV0YWxfYmluZGluZycsICctaW1hZScsICc8aW5maWxlLm1hZT4nLCAnLW9tYWUnLCAnPG91dGZpbGUubWFlPic=

> <r_lp_tautomer_probability>
1

> <r_epik_Ionization_Penalty>
4.53732

> <r_epik_Ionization_Penalty_Charging>
4.48632

> <r_epik_Ionization_Penalty_Neutral>
0.0510007

> <r_epik_State_Penalty>
4.48602

> <r_epik_Charging_Adjusted_Penalty>
8.97234

> <i_epik_Tot_Q>
-1

> <i_epik_Tot_abs_Q>
1

> <r_epik_Metal_State_Penalty>
0.812492

> <b_epik_Metal_Only>
1

> <s_lp_Force_Field>
OPLS_2005

> <r_lp_Energy>
48.4267

> <b_lp_Chiralities_Consistent>
1

> <s_lp_Variant>
AV-unprocessed.smi:798-13

> <Gold.Version>
5.8.1

> <Gold.Id.Protein>
6NUR|6NUR_protein|mol2

> <Gold.PLP.Fitness>
36.9841

> <Gold.PLP.PLP>
-27.7714

> <Gold.PLP.part.hbond>
-4.5443

> <Gold.PLP.part.metal>
0.0000

> <Gold.PLP.part.buried>
-5.4758

> <Gold.PLP.part.nonpolar>
-18.8465

> <Gold.PLP.part.repulsive>
0.1202

> <Gold.PLP.ligand.clash>
0.0000

> <Gold.PLP.ligand.torsion>
1.1297

> <Gold.PLP.Chemscore.Hbond>
3.8000

> <Gold.PLP.Chemscore.CHOScore>
0.0000

> <Gold.PLP.Chemscore.Metal>
0.0000

> <Gold.Chemscore.Hbonds>
donor molecule, donor type, donor heavy atom, donor atom, acceptor molecule, acceptor atom, score
      P1  H  6896  6907       L1     1  1.00
      P1  H  6931  6943       L1     5  0.96
      P1  H  6934  6947       L1     5  0.85
      P1  H  7989  7998       L1    18  1.00

> <Gold.PLP.Chemscore.Internal.Correction>
0.0721

> <Gold.Rescore>
     Score         DG    S(hbond)    S(metal)    S(lipo)     H(rot)  DE(clash)    DE(int)     intcor
     16.49     -17.49       3.19        0.00      53.52       1.92       0.00       1.00       ----

> <Gold.Chemscore.Fitness>
16.4925

> <Gold.Chemscore.DG>
-17.4877

> <Gold.Chemscore.ZeroCoef>
-5.4800

> <Gold.Chemscore.Hbond>
3.1924

> <Gold.Chemscore.Metal>
0.0000

> <Gold.Chemscore.Lipo>
53.5198

> <Gold.Chemscore.Internal_Hbond>
0.0000

> <Gold.Chemscore.DEClash>
0.0000

> <Gold.Chemscore.DEInternal>
0.9952

> <Gold.Chemscore.Rot>
1.9207

> <Gold.Chemscore.Internal.Correction>
   9.000000E+99

> <Gold.Chemscore.Hbonds>
donor molecule, donor type, donor heavy atom, donor atom, acceptor molecule, acceptor atom, score
      P1  H  6896  6907       L1     1  1.00
      P1  H  6931  6943       L1     5  0.24
      P1  H  6934  6947       L1     5  0.60
      P1  H  7989  7998       L1    18  0.91

> <Gold.Chemscore.Hbond.Weighted>
-10.6628

> <Gold.Chemscore.Metal.Weighted>
-0.0000

> <Gold.Chemscore.Lipo.Weighted>
-6.2618

> <Gold.Chemscore.Internal_Hbond.Weighted>
0.0000

> <Gold.Chemscore.DEClash.Weighted>
0.0000

> <Gold.Chemscore.DEInternal.Weighted>
0.9952

> <Gold.Chemscore.Rot.Weighted>
4.9169

> <Gold.Chemscore.Internal.Correction.Weighted>
   9.000000E+99

> <Gold.Protein.RotatedTorsions>
[ 6907 6896 6895 6894 ] final  -15.06 input  -60.11 | X-H torsion
[ 7974 7965 7964 7962 ] final  -87.17 input  175.53 | X-H torsion
[ 8008 7997 7996 7995 ] final  152.48 input   59.86 | X-H torsion
[ 10167 10162 10161 10158 ] final   -3.89 input  -65.29 | X-H torsion
[ 10718 10713 10712 10709 ] final    3.38 input   66.30 | X-H torsion
[ 10763 10752 10751 10750 ] final  -41.84 input  -60.55 | X-H torsion
[ 11005 11000 10999 10996 ] final   70.13 input  -57.11 | X-H torsion

> <Gold.Protein.ActiveResidues>
 VAL166  LYS551  ARG553  GLY616  TRP617  ASP618  TYR619  PRO620  LYS621  CYS622 
 ASP623  PHE694  ASN695  SER759  ASP760  ASP761  ALA762  ILE779  LEU786  VAL792 
 PHE793  MET794  SER795  GLU796  ALA797  LYS798  CYS799  TRP800  GLU811  SER814 

> <Gold.Protein.RotatedAtoms>
  151.3297  135.0839  159.9334 H   0  0  0  0  0  0  0  0  0  0  0  0  # atno 6907 bound_to 6896
  152.5237  133.9555  159.7702 H   0  0  0  0  0  0  0  0  0  0  0  0  # atno 6908 bound_to 6896
  150.9891  133.6114  159.2741 H   0  0  0  0  0  0  0  0  0  0  0  0  # atno 6909 bound_to 6896
  145.4701  140.9560  143.1922 H   0  0  0  0  0  0  0  0  0  0  0  0  # atno 7974 bound_to 7965
  156.2627  140.2019  156.6340 H   0  0  0  0  0  0  0  0  0  0  0  0  # atno 8008 bound_to 7997
  154.6661  140.0555  157.0140 H   0  0  0  0  0  0  0  0  0  0  0  0  # atno 8009 bound_to 7997
  155.1205  140.3224  155.4501 H   0  0  0  0  0  0  0  0  0  0  0  0  # atno 8010 bound_to 7997
  140.6907  143.6487  150.8370 H   0  0  0  0  0  0  0  0  0  0  0  0  # atno 10167 bound_to 10162
  156.8769  130.5640  149.5654 H   0  0  0  0  0  0  0  0  0  0  0  0  # atno 10718 bound_to 10713
  153.9691  135.6730  153.4746 H   0  0  0  0  0  0  0  0  0  0  0  0  # atno 10763 bound_to 10752
  153.0801  135.4928  154.8482 H   0  0  0  0  0  0  0  0  0  0  0  0  # atno 10764 bound_to 10752
  154.7229  135.3121  154.8979 H   0  0  0  0  0  0  0  0  0  0  0  0  # atno 10765 bound_to 10752
  139.9615  134.7053  156.0637 H   0  0  0  0  0  0  0  0  0  0  0  0  # atno 11005 bound_to 11000
  144.7951  139.6251  143.7096 LP  0  0  0  0  0  0  0  0  0  0  0  0  # atno 17320 bound_to 7965
  146.2402  139.5985  142.9497 LP  0  0  0  0  0  0  0  0  0  0  0  0  # atno 17321 bound_to 7965
  140.0199  143.5553  152.2804 LP  0  0  0  0  0  0  0  0  0  0  0  0  # atno 17342 bound_to 10162
  139.6307  144.7644  151.2541 LP  0  0  0  0  0  0  0  0  0  0  0  0  # atno 17343 bound_to 10162
  156.0697  130.5733  150.9359 LP  0  0  0  0  0  0  0  0  0  0  0  0  # atno 17370 bound_to 10713
  157.6163  131.0933  150.8704 LP  0  0  0  0  0  0  0  0  0  0  0  0  # atno 17371 bound_to 10713
  141.1292  133.6591  156.3418 LP  0  0  0  0  0  0  0  0  0  0  0  0  # atno 17394 bound_to 11000
  140.5490  134.6046  157.5402 LP  0  0  0  0  0  0  0  0  0  0  0  0  # atno 17395 bound_to 11000

$$$$
