AV-unprocessed.smi:3025|AV-procd|sdf|11507|dock10
  -GOLD-   2272016443D 1   1.00000     0.00000
 Structure written by MMmdl.
 42 43  0  0  0  0  0  0  0  0  2 V2000
  150.3803  142.2046  158.0157 C   0  0  0  0  0  0  0  0  0  0  0  0
  149.5084  141.4997  156.9706 C   0  0  0  0  0  0  0  0  0  0  0  0
  150.1000  141.5905  155.5537 C   0  0  0  0  0  0  0  0  0  0  0  0
  149.2494  140.8993  154.4680 C   0  0  2  0  0  0  0  0  0  0  0  0
  147.8857  141.5898  154.2543 C   0  0  0  0  0  0  0  0  0  0  0  0
  147.0398  140.8731  153.1890 C   0  0  0  0  0  0  0  0  0  0  0  0
  146.8312  139.3843  153.5342 C   0  0  1  0  0  0  0  0  0  0  0  0
  146.0689  138.6812  152.4783 N   0  3  0  0  0  0  0  0  0  0  0  0
  145.7805  137.2577  152.7507 C   0  0  0  0  0  0  0  0  0  0  0  0
  145.6198  136.4685  151.4448 C   0  0  0  0  0  0  0  0  0  0  0  0
  144.9608  135.1478  151.6680 C   0  0  0  0  0  0  0  0  0  0  0  0
  144.5889  134.7611  152.8892 N   0  0  0  0  0  0  0  0  0  0  0  0
  144.0128  133.5647  152.6430 N   0  0  0  0  0  0  0  0  0  0  0  0
  144.0604  133.3273  151.3330 C   0  0  0  0  0  0  0  0  0  0  0  0
  144.6429  134.2992  150.6431 N   0  0  0  0  0  0  0  0  0  0  0  0
  148.1926  138.6967  153.7387 C   0  0  0  0  0  0  0  0  0  0  0  0
  149.0313  139.4116  154.8098 C   0  0  0  0  0  0  0  0  0  0  0  0
  149.9348  142.1290  159.0076 H   0  0  0  0  0  0  0  0  0  0  0  0
  150.4963  143.2637  157.7836 H   0  0  0  0  0  0  0  0  0  0  0  0
  151.3746  141.7602  158.0632 H   0  0  0  0  0  0  0  0  0  0  0  0
  149.3883  140.4570  157.2638 H   0  0  0  0  0  0  0  0  0  0  0  0
  148.5113  141.9415  156.9804 H   0  0  0  0  0  0  0  0  0  0  0  0
  150.2046  142.6456  155.2973 H   0  0  0  0  0  0  0  0  0  0  0  0
  151.1102  141.1792  155.5489 H   0  0  0  0  0  0  0  0  0  0  0  0
  149.8049  140.9434  153.5297 H   0  0  0  0  0  0  0  0  0  0  0  0
  147.3355  141.6185  155.1957 H   0  0  0  0  0  0  0  0  0  0  0  0
  148.0266  142.6260  153.9483 H   0  0  0  0  0  0  0  0  0  0  0  0
  146.0826  141.3865  153.0996 H   0  0  0  0  0  0  0  0  0  0  0  0
  147.5297  140.9623  152.2184 H   0  0  0  0  0  0  0  0  0  0  0  0
  146.2711  139.3079  154.4678 H   0  0  0  0  0  0  0  0  0  0  0  0
  145.2011  139.1737  152.3204 H   0  0  0  0  0  0  0  0  0  0  0  0
  146.5927  136.8330  153.3422 H   0  0  0  0  0  0  0  0  0  0  0  0
  144.8694  137.1701  153.3425 H   0  0  0  0  0  0  0  0  0  0  0  0
  145.0267  137.0421  150.7309 H   0  0  0  0  0  0  0  0  0  0  0  0
  146.5934  136.3072  150.9795 H   0  0  0  0  0  0  0  0  0  0  0  0
  143.6587  132.4339  150.8770 H   0  0  0  0  0  0  0  0  0  0  0  0
  148.0451  137.6555  154.0282 H   0  0  0  0  0  0  0  0  0  0  0  0
  148.7460  138.6801  152.7986 H   0  0  0  0  0  0  0  0  0  0  0  0
  149.9928  138.9071  154.9110 H   0  0  0  0  0  0  0  0  0  0  0  0
  148.5355  139.3247  155.7778 H   0  0  0  0  0  0  0  0  0  0  0  0
  146.6164  138.7186  151.6305 H   0  0  0  0  0  0  0  0  0  0  0  0
  143.6166  132.9795  153.3650 H   0  0  0  0  0  0  0  0  0  0  0  0
  1  2  1  0  0  0  0
  1 18  1  0  0  0  0
  1 19  1  0  0  0  0
  1 20  1  0  0  0  0
  2  3  1  0  0  0  0
  2 21  1  0  0  0  0
  2 22  1  0  0  0  0
  3  4  1  0  0  0  0
  3 23  1  0  0  0  0
  3 24  1  0  0  0  0
  4 17  1  0  0  0  0
  4  5  1  0  0  0  0
  4 25  1  0  0  0  0
  5  6  1  0  0  0  0
  5 26  1  0  0  0  0
  5 27  1  0  0  0  0
  6  7  1  0  0  0  0
  6 28  1  0  0  0  0
  6 29  1  0  0  0  0
  7  8  1  0  0  0  0
  7 16  1  0  0  0  0
  7 30  1  0  0  0  0
  8  9  1  0  0  0  0
  8 31  1  0  0  0  0
  8 41  1  0  0  0  0
  9 10  1  0  0  0  0
  9 32  1  0  0  0  0
  9 33  1  0  0  0  0
 10 34  1  0  0  0  0
 10 35  1  0  0  0  0
 10 11  1  0  0  0  0
 11 15  1  0  0  0  0
 11 12  2  0  0  0  0
 12 13  1  0  0  0  0
 13 14  1  0  0  0  0
 13 42  1  0  0  0  0
 14 15  2  0  0  0  0
 14 36  1  0  0  0  0
 16 17  1  0  0  0  0
 16 37  1  0  0  0  0
 16 38  1  0  0  0  0
 17 39  1  0  0  0  0
 17 40  1  0  0  0  0
M  CHG  1   8   1
M  END
> <s_m_source_file>
AV-unprocessed.smi

> <i_m_source_file_index>
3025

> <i_lp_mmshare_version>
43012

> <i_f3d_flags>
0

> <s_epik_input>
W0NIM11bQ0gyXVtDSDJdW0NAQEhdMVtDSDJdW0NIMl1bQ0BIXShbQ0gyXVtDSDJdMSlbTkhdW0NIMl1bQ0gyXWMybm5bY0hdW25IXTI=

> <s_epik_cmdline>
J2VwaWtfcHl0aG9uJywgJy1waCcsICc3LjAnLCAnLXRuJywgJzgnLCAnLW1hJywgJzIwMCcsICctbWV0YWxfYmluZGluZycsICctaW1hZScsICc8aW5maWxlLm1hZT4nLCAnLW9tYWUnLCAnPG91dGZpbGUubWFlPic=

> <r_epik_Ionization_Penalty>
0.00995411

> <r_epik_Ionization_Penalty_Charging>
0.000442289

> <r_epik_Ionization_Penalty_Neutral>
0.00951182

> <r_epik_State_Penalty>
0.448541

> <r_epik_Charging_Adjusted_Penalty>
0.448983

> <i_epik_Tot_Q>
1

> <i_epik_Tot_abs_Q>
1

> <r_epik_Metal_State_Penalty>
0.682245

> <b_epik_Metal_Only>
0

> <s_lp_Force_Field>
OPLS_2005

> <r_lp_Energy>
10.682

> <b_lp_Chiralities_Consistent>
1

> <s_lp_Variant>
AV-unprocessed.smi:3025-3

> <Gold.Version>
5.8.1

> <Gold.Id.Protein>
6NUR|6NUR_protein|mol2

> <Gold.PLP.Fitness>
38.3878

> <Gold.PLP.PLP>
-29.8257

> <Gold.PLP.part.hbond>
-2.0000

> <Gold.PLP.part.metal>
0.0000

> <Gold.PLP.part.buried>
-4.1411

> <Gold.PLP.part.nonpolar>
-24.6306

> <Gold.PLP.part.repulsive>
0.2711

> <Gold.PLP.ligand.clash>
0.0000

> <Gold.PLP.ligand.torsion>
0.2400

> <Gold.PLP.Chemscore.Hbond>
3.0000

> <Gold.PLP.Chemscore.CHOScore>
0.0000

> <Gold.PLP.Chemscore.Metal>
0.0000

> <Gold.Chemscore.Hbonds>
donor molecule, donor type, donor heavy atom, donor atom, acceptor molecule, acceptor atom, score
      L1  H     8    31       P1 10175  2.00
      L1  H    13    42       P1 10957  0.86

> <Gold.PLP.Chemscore.Internal.Correction>
0.0421

> <Gold.Rescore>
     Score         DG    S(hbond)    S(metal)    S(lipo)     H(rot)  DE(clash)    DE(int)     intcor
     13.52     -13.76       1.98        0.00      70.15       2.56       0.03       0.20       ----

> <Gold.Chemscore.Fitness>
13.5235

> <Gold.Chemscore.DG>
-13.7611

> <Gold.Chemscore.ZeroCoef>
-5.4800

> <Gold.Chemscore.Hbond>
1.9845

> <Gold.Chemscore.Metal>
0.0000

> <Gold.Chemscore.Lipo>
70.1462

> <Gold.Chemscore.Internal_Hbond>
0.0000

> <Gold.Chemscore.DEClash>
0.0330

> <Gold.Chemscore.DEInternal>
0.2046

> <Gold.Chemscore.Rot>
2.5602

> <Gold.Chemscore.Internal.Correction>
   9.000000E+99

> <Gold.Chemscore.Hbonds>
donor molecule, donor type, donor heavy atom, donor atom, acceptor molecule, acceptor atom, score
      L1  H     8    31       P1 10175  0.97
      L1  H    13    42       P1 10957  0.62

> <Gold.Chemscore.Hbond.Weighted>
-6.6282

> <Gold.Chemscore.Metal.Weighted>
-0.0000

> <Gold.Chemscore.Lipo.Weighted>
-8.2071

> <Gold.Chemscore.Internal_Hbond.Weighted>
0.0000

> <Gold.Chemscore.DEClash.Weighted>
0.0330

> <Gold.Chemscore.DEInternal.Weighted>
0.2046

> <Gold.Chemscore.Rot.Weighted>
6.5542

> <Gold.Chemscore.Internal.Correction.Weighted>
   9.000000E+99

> <Gold.Protein.RotatedTorsions>
[ 6907 6896 6895 6894 ] final  -86.62 input  -60.11 | X-H torsion
[ 7974 7965 7964 7962 ] final  172.37 input  175.53 | X-H torsion
[ 8008 7997 7996 7995 ] final -173.93 input   59.86 | X-H torsion
[ 10167 10162 10161 10158 ] final -179.36 input  -65.29 | X-H torsion
[ 10718 10713 10712 10709 ] final -102.57 input   66.30 | X-H torsion
[ 10763 10752 10751 10750 ] final -112.62 input  -60.55 | X-H torsion
[ 11005 11000 10999 10996 ] final -131.72 input  -57.11 | X-H torsion

> <Gold.Protein.ActiveResidues>
 VAL166  LYS551  ARG553  GLY616  TRP617  ASP618  TYR619  PRO620  LYS621  CYS622 
 ASP623  PHE694  ASN695  SER759  ASP760  ASP761  ALA762  ILE779  LEU786  VAL792 
 PHE793  MET794  SER795  GLU796  ALA797  LYS798  CYS799  TRP800  GLU811  SER814 

> <Gold.Protein.RotatedAtoms>
  150.6867  134.3023  159.4711 H   0  0  0  0  0  0  0  0  0  0  0  0  # atno 6907 bound_to 6896
  152.0917  134.9400  160.0581 H   0  0  0  0  0  0  0  0  0  0  0  0  # atno 6908 bound_to 6896
  152.0713  133.4073  159.4497 H   0  0  0  0  0  0  0  0  0  0  0  0  # atno 6909 bound_to 6896
  144.7270  139.9488  143.6431 H   0  0  0  0  0  0  0  0  0  0  0  0  # atno 7974 bound_to 7965
  155.9637  140.1149  157.0873 H   0  0  0  0  0  0  0  0  0  0  0  0  # atno 8008 bound_to 7997
  154.4138  140.1177  156.5280 H   0  0  0  0  0  0  0  0  0  0  0  0  # atno 8009 bound_to 7997
  155.6687  140.3473  155.4812 H   0  0  0  0  0  0  0  0  0  0  0  0  # atno 8010 bound_to 7997
  139.5390  144.2416  152.0855 H   0  0  0  0  0  0  0  0  0  0  0  0  # atno 10167 bound_to 10162
  156.0233  130.5426  150.7128 H   0  0  0  0  0  0  0  0  0  0  0  0  # atno 10718 bound_to 10713
  154.8358  135.4484  154.1223 H   0  0  0  0  0  0  0  0  0  0  0  0  # atno 10763 bound_to 10752
  153.2455  135.6921  153.7742 H   0  0  0  0  0  0  0  0  0  0  0  0  # atno 10764 bound_to 10752
  153.7073  135.3362  155.3214 H   0  0  0  0  0  0  0  0  0  0  0  0  # atno 10765 bound_to 10752
  140.9234  134.1414  157.4295 H   0  0  0  0  0  0  0  0  0  0  0  0  # atno 11005 bound_to 11000
  146.0727  139.3716  143.0513 LP  0  0  0  0  0  0  0  0  0  0  0  0  # atno 17320 bound_to 7965
  145.7946  140.9799  143.1031 LP  0  0  0  0  0  0  0  0  0  0  0  0  # atno 17321 bound_to 7965
  140.1892  144.4769  150.6488 LP  0  0  0  0  0  0  0  0  0  0  0  0  # atno 17342 bound_to 10162
  140.6611  143.2252  151.5854 LP  0  0  0  0  0  0  0  0  0  0  0  0  # atno 17343 bound_to 10162
  157.4762  131.0898  151.0588 LP  0  0  0  0  0  0  0  0  0  0  0  0  # atno 17370 bound_to 10713
  157.1034  130.5991  149.5465 LP  0  0  0  0  0  0  0  0  0  0  0  0  # atno 17371 bound_to 10713
  139.8780  134.9979  156.5874 LP  0  0  0  0  0  0  0  0  0  0  0  0  # atno 17394 bound_to 11000
  140.7958  133.8545  155.8684 LP  0  0  0  0  0  0  0  0  0  0  0  0  # atno 17395 bound_to 11000

$$$$
