AV-unprocessed.smi:121|AV-procd|sdf|1139|dock5
  -GOLD-   2262018273D 1   1.00000     0.00000
 Structure written by MMmdl.
 37 39  0  0  0  0  0  0  0  0  1 V2000
  146.2241  143.3169  153.7652 N   0  0  0  0  0  0  0  0  0  0  0  0
  146.8371  142.3370  153.8158 C   0  0  0  0  0  0  0  0  0  0  0  0
  147.6067  141.1058  153.8796 C   0  0  0  0  0  0  0  0  0  0  0  0
  147.0332  139.8908  153.4544 C   0  0  0  0  0  0  0  0  0  0  0  0
  147.7800  138.6996  153.5236 C   0  0  0  0  0  0  0  0  0  0  0  0
  149.0992  138.7215  154.0155 C   0  0  0  0  0  0  0  0  0  0  0  0
  149.6853  139.9331  154.4374 C   0  0  0  0  0  0  0  0  0  0  0  0
  151.1157  139.9118  154.9695 C   0  0  0  0  0  0  0  0  0  0  0  0
  151.2727  140.1484  156.3966 N   0  0  0  0  0  0  0  0  0  0  0  0
  151.7503  139.0729  157.1841 C   0  0  0  0  0  0  0  0  0  0  0  0
  152.0125  137.9717  156.6970 O   0  0  0  0  0  0  0  0  0  0  0  0
  151.9132  139.3848  158.5996 C   0  0  0  0  0  0  0  0  0  0  0  0
  152.3400  138.4312  159.4445 F   0  0  0  0  0  0  0  0  0  0  0  0
  151.6443  140.6189  159.0783 C   0  0  0  0  0  0  0  0  0  0  0  0
  151.2055  141.6615  158.2777 N   0  0  0  0  0  0  0  0  0  0  0  0
  150.9305  143.0434  158.8335 C   0  0  2  0  0  0  0  0  0  0  0  0
  151.8151  144.0947  158.1348 C   0  0  0  0  0  0  0  0  0  0  0  0
  152.4662  144.8150  159.2988 C   0  0  0  0  0  0  0  0  0  0  0  0
  152.5066  143.7271  160.3613 C   0  0  0  0  0  0  0  0  0  0  0  0
  151.2508  143.0818  160.1952 O   0  0  0  0  0  0  0  0  0  0  0  0
  150.9959  141.4426  156.8985 C   0  0  0  0  0  0  0  0  0  0  0  0
  150.6067  142.3578  156.1689 O   0  0  0  0  0  0  0  0  0  0  0  0
  148.9283  141.1261  154.3697 C   0  0  0  0  0  0  0  0  0  0  0  0
  146.0211  139.8654  153.0764 H   0  0  0  0  0  0  0  0  0  0  0  0
  147.3406  137.7677  153.1996 H   0  0  0  0  0  0  0  0  0  0  0  0
  149.6636  137.8017  154.0658 H   0  0  0  0  0  0  0  0  0  0  0  0
  151.5877  138.9601  154.7236 H   0  0  0  0  0  0  0  0  0  0  0  0
  151.7266  140.6570  154.4563 H   0  0  0  0  0  0  0  0  0  0  0  0
  151.7858  140.7776  160.1361 H   0  0  0  0  0  0  0  0  0  0  0  0
  149.8581  143.2037  158.7061 H   0  0  0  0  0  0  0  0  0  0  0  0
  152.5722  143.6052  157.5196 H   0  0  0  0  0  0  0  0  0  0  0  0
  151.2170  144.7524  157.5035 H   0  0  0  0  0  0  0  0  0  0  0  0
  153.4520  145.2136  159.0578 H   0  0  0  0  0  0  0  0  0  0  0  0
  151.8338  145.6390  159.6315 H   0  0  0  0  0  0  0  0  0  0  0  0
  153.3205  143.0267  160.1683 H   0  0  0  0  0  0  0  0  0  0  0  0
  152.6247  144.1241  161.3696 H   0  0  0  0  0  0  0  0  0  0  0  0
  149.3538  142.0640  154.6948 H   0  0  0  0  0  0  0  0  0  0  0  0
  1  2  3  0  0  0  0
  2  3  1  0  0  0  0
  3 23  1  0  0  0  0
  3  4  2  0  0  0  0
  4  5  1  0  0  0  0
  4 24  1  0  0  0  0
  5  6  2  0  0  0  0
  5 25  1  0  0  0  0
  6  7  1  0  0  0  0
  6 26  1  0  0  0  0
  7  8  1  0  0  0  0
  7 23  2  0  0  0  0
  8  9  1  0  0  0  0
  8 27  1  0  0  0  0
  8 28  1  0  0  0  0
  9 21  1  0  0  0  0
  9 10  1  0  0  0  0
 10 11  2  0  0  0  0
 10 12  1  0  0  0  0
 12 13  1  0  0  0  0
 12 14  2  0  0  0  0
 14 15  1  0  0  0  0
 14 29  1  0  0  0  0
 15 16  1  0  0  0  0
 15 21  1  0  0  0  0
 16 20  1  0  0  0  0
 16 17  1  0  0  0  0
 16 30  1  0  0  0  0
 17 18  1  0  0  0  0
 17 31  1  0  0  0  0
 17 32  1  0  0  0  0
 18 19  1  0  0  0  0
 18 33  1  0  0  0  0
 18 34  1  0  0  0  0
 19 20  1  0  0  0  0
 19 35  1  0  0  0  0
 19 36  1  0  0  0  0
 21 22  2  0  0  0  0
 23 37  1  0  0  0  0
M  END
> <s_m_source_file>
AV-unprocessed.smi

> <i_m_source_file_index>
121

> <i_lp_mmshare_version>
43012

> <i_f3d_flags>
0

> <s_epik_input>
TiNDYzFbY0hdW2NIXVtjSF1jKFtjSF0xKVtDSDJdbjJjKD1PKWMoRilbY0hdbihjMj1PKVtDQEBIXTNbQ0gyXVtDSDJdW0NIMl1PMw==

> <s_epik_cmdline>
J2VwaWtfcHl0aG9uJywgJy1waCcsICc3LjAnLCAnLXRuJywgJzgnLCAnLW1hJywgJzIwMCcsICctbWV0YWxfYmluZGluZycsICctaW1hZScsICc8aW5maWxlLm1hZT4nLCAnLW9tYWUnLCAnPG91dGZpbGUubWFlPic=

> <r_lp_tautomer_probability>
1

> <r_epik_Ionization_Penalty>
1.69864e-08

> <r_epik_Ionization_Penalty_Charging>
1.69802e-08

> <r_epik_Ionization_Penalty_Neutral>
6.20402e-12

> <r_epik_State_Penalty>
-0

> <r_epik_Charging_Adjusted_Penalty>
1.69802e-08

> <i_epik_Tot_Q>
0

> <i_epik_Tot_abs_Q>
0

> <r_epik_Metal_State_Penalty>
-0

> <b_epik_Metal_Only>
0

> <s_epik_Chemistry_Notes>
This compound contains an acetal/aminal-like group ( X-CH(R)-Y where X, Y are N, S, or O) that may be acid/base labile, releasing an aldehyde.

> <s_lp_Force_Field>
OPLS_2005

> <r_lp_Energy>
32.9852

> <b_lp_Chiralities_Consistent>
1

> <s_lp_Variant>
AV-unprocessed.smi:121-1

> <Gold.Version>
5.8.1

> <Gold.Id.Protein>
6NUR|6NUR_protein|mol2

> <Gold.PLP.Fitness>
45.5697

> <Gold.PLP.PLP>
-45.8814

> <Gold.PLP.part.hbond>
-1.2142

> <Gold.PLP.part.metal>
0.0000

> <Gold.PLP.part.buried>
-3.7490

> <Gold.PLP.part.nonpolar>
-41.7957

> <Gold.PLP.part.repulsive>
1.4024

> <Gold.PLP.ligand.clash>
0.0000

> <Gold.PLP.ligand.torsion>
0.1608

> <Gold.PLP.Chemscore.Hbond>
0.0000

> <Gold.PLP.Chemscore.CHOScore>
0.0000

> <Gold.PLP.Chemscore.Metal>
0.0000

> <Gold.PLP.Chemscore.Internal.Correction>
0.0099

> <Gold.Rescore>
     Score         DG    S(hbond)    S(metal)    S(lipo)     H(rot)  DE(clash)    DE(int)     intcor
      9.39     -12.42       0.00        0.00      94.08       1.59       0.25       2.78       ----

> <Gold.Chemscore.Fitness>
9.3914

> <Gold.Chemscore.DG>
-12.4221

> <Gold.Chemscore.ZeroCoef>
-5.4800

> <Gold.Chemscore.Hbond>
0.0000

> <Gold.Chemscore.Metal>
0.0000

> <Gold.Chemscore.Lipo>
94.0841

> <Gold.Chemscore.Internal_Hbond>
0.0000

> <Gold.Chemscore.DEClash>
0.2457

> <Gold.Chemscore.DEInternal>
2.7850

> <Gold.Chemscore.Rot>
1.5882

> <Gold.Chemscore.Internal.Correction>
   9.000000E+99

> <Gold.Chemscore.Hbond.Weighted>
-0.0000

> <Gold.Chemscore.Metal.Weighted>
-0.0000

> <Gold.Chemscore.Lipo.Weighted>
-11.0078

> <Gold.Chemscore.Internal_Hbond.Weighted>
0.0000

> <Gold.Chemscore.DEClash.Weighted>
0.2457

> <Gold.Chemscore.DEInternal.Weighted>
2.7850

> <Gold.Chemscore.Rot.Weighted>
4.0657

> <Gold.Chemscore.Internal.Correction.Weighted>
   9.000000E+99

> <Gold.Protein.RotatedTorsions>
[ 6907 6896 6895 6894 ] final  -80.79 input  -60.11 | X-H torsion
[ 7974 7965 7964 7962 ] final  151.94 input  175.53 | X-H torsion
[ 8008 7997 7996 7995 ] final  163.35 input   59.86 | X-H torsion
[ 10167 10162 10161 10158 ] final  105.36 input  -65.29 | X-H torsion
[ 10718 10713 10712 10709 ] final   39.65 input   66.30 | X-H torsion
[ 10763 10752 10751 10750 ] final  -19.85 input  -60.55 | X-H torsion
[ 11005 11000 10999 10996 ] final  -13.02 input  -57.11 | X-H torsion

> <Gold.Protein.ActiveResidues>
 VAL166  LYS551  ARG553  GLY616  TRP617  ASP618  TYR619  PRO620  LYS621  CYS622 
 ASP623  PHE694  ASN695  SER759  ASP760  ASP761  ALA762  ILE779  LEU786  VAL792 
 PHE793  MET794  SER795  GLU796  ALA797  LYS798  CYS799  TRP800  GLU811  SER814 

> <Gold.Protein.RotatedAtoms>
  150.6923  134.3917  159.5078 H   0  0  0  0  0  0  0  0  0  0  0  0  # atno 6907 bound_to 6896
  152.1704  134.8836  160.0544 H   0  0  0  0  0  0  0  0  0  0  0  0  # atno 6908 bound_to 6896
  151.9864  133.3741  159.4164 H   0  0  0  0  0  0  0  0  0  0  0  0  # atno 6909 bound_to 6896
  144.8257  139.6603  143.6081 H   0  0  0  0  0  0  0  0  0  0  0  0  # atno 7974 bound_to 7965
  156.1963  140.1726  156.7991 H   0  0  0  0  0  0  0  0  0  0  0  0  # atno 8008 bound_to 7997
  154.5534  140.0713  156.8736 H   0  0  0  0  0  0  0  0  0  0  0  0  # atno 8009 bound_to 7997
  155.2985  140.3360  155.4251 H   0  0  0  0  0  0  0  0  0  0  0  0  # atno 8010 bound_to 7997
  139.7099  144.7079  151.1045 H   0  0  0  0  0  0  0  0  0  0  0  0  # atno 10167 bound_to 10162
  157.3730  130.7712  149.7134 H   0  0  0  0  0  0  0  0  0  0  0  0  # atno 10718 bound_to 10713
  153.6112  135.6996  153.5346 H   0  0  0  0  0  0  0  0  0  0  0  0  # atno 10763 bound_to 10752
  153.3015  135.4127  155.1256 H   0  0  0  0  0  0  0  0  0  0  0  0  # atno 10764 bound_to 10752
  154.8563  135.3650  154.5651 H   0  0  0  0  0  0  0  0  0  0  0  0  # atno 10765 bound_to 10752
  140.7718  133.8433  155.9213 H   0  0  0  0  0  0  0  0  0  0  0  0  # atno 11005 bound_to 11000
  146.2562  139.6308  142.9393 LP  0  0  0  0  0  0  0  0  0  0  0  0  # atno 17320 bound_to 7965
  145.5006  141.0437  143.2542 LP  0  0  0  0  0  0  0  0  0  0  0  0  # atno 17321 bound_to 7965
  140.7730  143.5308  150.9426 LP  0  0  0  0  0  0  0  0  0  0  0  0  # atno 17342 bound_to 10162
  139.8992  143.6857  152.3134 LP  0  0  0  0  0  0  0  0  0  0  0  0  # atno 17343 bound_to 10162
  155.9759  130.4082  150.3814 LP  0  0  0  0  0  0  0  0  0  0  0  0  # atno 17370 bound_to 10713
  157.1907  131.0414  151.2701 LP  0  0  0  0  0  0  0  0  0  0  0  0  # atno 17371 bound_to 10713
  140.9567  134.1709  157.4686 LP  0  0  0  0  0  0  0  0  0  0  0  0  # atno 17394 bound_to 11000
  139.8755  134.9929  156.5621 LP  0  0  0  0  0  0  0  0  0  0  0  0  # atno 17395 bound_to 11000

$$$$
