AV-unprocessed.smi:730|AV-procd|sdf|3522|dock4
  -GOLD-   22720 0513D 1   1.00000     0.00000
 Structure written by MMmdl.
 40 41  0  0  0  0  0  0  0  0  1 V2000
  147.8425  134.6754  162.0786 C   0  0  0  0  0  0  0  0  0  0  0  0
  147.0500  135.9939  161.9774 C   0  0  0  0  0  0  0  0  0  0  0  0
  145.5594  135.6831  162.2087 C   0  0  0  0  0  0  0  0  0  0  0  0
  147.5475  136.9452  163.0818 C   0  0  0  0  0  0  0  0  0  0  0  0
  147.2375  136.6286  160.6276 C   0  0  0  0  0  0  0  0  0  0  0  0
  148.0254  136.3328  159.5482 C   0  0  0  0  0  0  0  0  0  0  0  0
  147.6907  137.3469  158.6125 C   0  0  0  0  0  0  0  0  0  0  0  0
  148.3054  137.3908  157.3352 N   0  0  0  0  0  0  0  0  0  0  0  0
  148.2531  138.3880  156.4360 C   0  0  0  0  0  0  0  0  0  0  0  0
  147.6457  139.4485  156.5861 O   0  0  0  0  0  0  0  0  0  0  0  0
  148.9525  138.0863  155.3325 N   0  0  0  0  0  0  0  0  0  0  0  0
  149.1038  138.9586  154.1699 C   0  0  2  0  0  0  0  0  0  0  0  0
  149.6443  140.3376  154.5934 C   0  0  0  0  0  0  0  0  0  0  0  0
  148.4231  141.2530  154.6553 C   0  0  0  0  0  0  0  0  0  0  0  0
  147.5400  140.7531  153.5171 C   0  0  0  0  0  0  0  0  0  0  0  0
  147.7289  139.2294  153.5171 C   0  0  1  0  0  0  0  0  0  0  0  0
  147.6737  138.7326  152.1957 O   0  0  0  0  0  0  0  0  0  0  0  0
  146.7806  138.1897  159.0736 N   0  0  0  0  0  0  0  0  0  0  0  0
  146.4859  137.7345  160.3633 O   0  0  0  0  0  0  0  0  0  0  0  0
  147.7110  134.2055  163.0539 H   0  0  0  0  0  0  0  0  0  0  0  0
  148.9114  134.8416  161.9382 H   0  0  0  0  0  0  0  0  0  0  0  0
  147.5184  133.9570  161.3247 H   0  0  0  0  0  0  0  0  0  0  0  0
  145.1742  135.0047  161.4468 H   0  0  0  0  0  0  0  0  0  0  0  0
  144.9525  136.5889  162.1771 H   0  0  0  0  0  0  0  0  0  0  0  0
  145.3953  135.2149  163.1797 H   0  0  0  0  0  0  0  0  0  0  0  0
  147.4309  136.5028  164.0717 H   0  0  0  0  0  0  0  0  0  0  0  0
  146.9951  137.8856  163.0787 H   0  0  0  0  0  0  0  0  0  0  0  0
  148.6033  137.1854  162.9514 H   0  0  0  0  0  0  0  0  0  0  0  0
  148.7278  135.5191  159.4450 H   0  0  0  0  0  0  0  0  0  0  0  0
  148.8420  136.5756  157.0790 H   0  0  0  0  0  0  0  0  0  0  0  0
  149.4192  137.1921  155.2930 H   0  0  0  0  0  0  0  0  0  0  0  0
  149.7916  138.4965  153.4585 H   0  0  0  0  0  0  0  0  0  0  0  0
  150.1998  140.3228  155.5322 H   0  0  0  0  0  0  0  0  0  0  0  0
  150.3257  140.7049  153.8248 H   0  0  0  0  0  0  0  0  0  0  0  0
  147.9103  141.1220  155.6090 H   0  0  0  0  0  0  0  0  0  0  0  0
  148.6830  142.3072  154.5552 H   0  0  0  0  0  0  0  0  0  0  0  0
  146.4963  141.0463  153.6340 H   0  0  0  0  0  0  0  0  0  0  0  0
  147.8990  141.1826  152.5800 H   0  0  0  0  0  0  0  0  0  0  0  0
  146.9266  138.7673  154.0950 H   0  0  0  0  0  0  0  0  0  0  0  0
  148.3172  139.1900  151.6760 H   0  0  0  0  0  0  0  0  0  0  0  0
  1  2  1  0  0  0  0
  1 20  1  0  0  0  0
  1 21  1  0  0  0  0
  1 22  1  0  0  0  0
  2  3  1  0  0  0  0
  2  4  1  0  0  0  0
  2  5  1  0  0  0  0
  3 23  1  0  0  0  0
  3 24  1  0  0  0  0
  3 25  1  0  0  0  0
  4 26  1  0  0  0  0
  4 27  1  0  0  0  0
  4 28  1  0  0  0  0
  5 19  1  0  0  0  0
  5  6  2  0  0  0  0
  6  7  1  0  0  0  0
  6 29  1  0  0  0  0
  7  8  1  0  0  0  0
  7 18  2  0  0  0  0
  8  9  1  0  0  0  0
  8 30  1  0  0  0  0
  9 10  2  0  0  0  0
  9 11  1  0  0  0  0
 11 12  1  0  0  0  0
 11 31  1  0  0  0  0
 12 16  1  0  0  0  0
 12 13  1  0  0  0  0
 12 32  1  0  0  0  0
 13 14  1  0  0  0  0
 13 33  1  0  0  0  0
 13 34  1  0  0  0  0
 14 15  1  0  0  0  0
 14 35  1  0  0  0  0
 14 36  1  0  0  0  0
 15 16  1  0  0  0  0
 15 37  1  0  0  0  0
 15 38  1  0  0  0  0
 16 17  1  0  0  0  0
 16 39  1  0  0  0  0
 17 40  1  0  0  0  0
 18 19  1  0  0  0  0
M  END
> <s_m_source_file>
AV-unprocessed.smi

> <i_m_source_file_index>
730

> <i_lp_mmshare_version>
43012

> <i_f3d_flags>
0

> <s_epik_input>
W0NIM11DKFtDSDNdKShbQ0gzXSljMVtjSF1jKG5vMSlbTkhdQyg9TylbTkhdW0NAQEhdMltDSDJdW0NIMl1bQ0gyXVtDQEhdMltPSF0=

> <s_epik_cmdline>
J2VwaWtfcHl0aG9uJywgJy1waCcsICc3LjAnLCAnLXRuJywgJzgnLCAnLW1hJywgJzIwMCcsICctbWV0YWxfYmluZGluZycsICctaW1hZScsICc8aW5maWxlLm1hZT4nLCAnLW9tYWUnLCAnPG91dGZpbGUubWFlPic=

> <r_lp_tautomer_probability>
1

> <r_epik_Ionization_Penalty>
2.23071e-05

> <r_epik_Ionization_Penalty_Charging>
0

> <r_epik_Ionization_Penalty_Neutral>
2.23071e-05

> <r_epik_State_Penalty>
-0

> <r_epik_Charging_Adjusted_Penalty>
0

> <i_epik_Tot_Q>
0

> <i_epik_Tot_abs_Q>
0

> <r_epik_Metal_State_Penalty>
-0

> <b_epik_Metal_Only>
0

> <s_lp_Force_Field>
OPLS_2005

> <r_lp_Energy>
16.5614

> <b_lp_Chiralities_Consistent>
1

> <s_lp_Variant>
AV-unprocessed.smi:730-1

> <Gold.Version>
5.8.1

> <Gold.Id.Protein>
6NUR|6NUR_protein|mol2

> <Gold.PLP.Fitness>
36.1509

> <Gold.PLP.PLP>
-32.1166

> <Gold.PLP.part.hbond>
-3.9531

> <Gold.PLP.part.metal>
0.0000

> <Gold.PLP.part.buried>
-1.3859

> <Gold.PLP.part.nonpolar>
-24.9575

> <Gold.PLP.part.repulsive>
0.0159

> <Gold.PLP.ligand.clash>
0.0000

> <Gold.PLP.ligand.torsion>
0.1550

> <Gold.PLP.Chemscore.Hbond>
1.4461

> <Gold.PLP.Chemscore.CHOScore>
0.0000

> <Gold.PLP.Chemscore.Metal>
0.0000

> <Gold.Chemscore.Hbonds>
donor molecule, donor type, donor heavy atom, donor atom, acceptor molecule, acceptor atom, score
      L1  H    17    40       P1  7957  1.00
      P1  H  6934  6947       L1    19  0.40

> <Gold.PLP.Chemscore.Internal.Correction>
0.0061

> <Gold.Rescore>
     Score         DG    S(hbond)    S(metal)    S(lipo)     H(rot)  DE(clash)    DE(int)     intcor
      9.45     -13.47       1.00        0.00      77.23       1.71       0.02       4.01       ----

> <Gold.Chemscore.Fitness>
9.4461

> <Gold.Chemscore.DG>
-13.4722

> <Gold.Chemscore.ZeroCoef>
-5.4800

> <Gold.Chemscore.Hbond>
1.0000

> <Gold.Chemscore.Metal>
0.0000

> <Gold.Chemscore.Lipo>
77.2346

> <Gold.Chemscore.Internal_Hbond>
0.0000

> <Gold.Chemscore.DEClash>
0.0154

> <Gold.Chemscore.DEInternal>
4.0107

> <Gold.Chemscore.Rot>
1.7125

> <Gold.Chemscore.Internal.Correction>
   9.000000E+99

> <Gold.Chemscore.Hbonds>
donor molecule, donor type, donor heavy atom, donor atom, acceptor molecule, acceptor atom, score
      L1  H    17    40       P1  7957  0.94
      P1  H  6934  6947       L1    19  0.01

> <Gold.Chemscore.Hbond.Weighted>
-3.3398

> <Gold.Chemscore.Metal.Weighted>
-0.0000

> <Gold.Chemscore.Lipo.Weighted>
-9.0364

> <Gold.Chemscore.Internal_Hbond.Weighted>
0.0000

> <Gold.Chemscore.DEClash.Weighted>
0.0154

> <Gold.Chemscore.DEInternal.Weighted>
4.0107

> <Gold.Chemscore.Rot.Weighted>
4.3841

> <Gold.Chemscore.Internal.Correction.Weighted>
   9.000000E+99

> <Gold.Protein.RotatedTorsions>
[ 6907 6896 6895 6894 ] final   49.14 input  -60.11 | X-H torsion
[ 7974 7965 7964 7962 ] final  -88.94 input  175.53 | X-H torsion
[ 8008 7997 7996 7995 ] final  -69.73 input   59.86 | X-H torsion
[ 10167 10162 10161 10158 ] final  -45.04 input  -65.29 | X-H torsion
[ 10718 10713 10712 10709 ] final -173.95 input   66.30 | X-H torsion
[ 10763 10752 10751 10750 ] final   68.71 input  -60.55 | X-H torsion
[ 11005 11000 10999 10996 ] final   42.64 input  -57.11 | X-H torsion

> <Gold.Protein.ActiveResidues>
 VAL166  LYS551  ARG553  GLY616  TRP617  ASP618  TYR619  PRO620  LYS621  CYS622 
 ASP623  PHE694  ASN695  SER759  ASP760  ASP761  ALA762  ILE779  LEU786  VAL792 
 PHE793  MET794  SER795  GLU796  ALA797  LYS798  CYS799  TRP800  GLU811  SER814 

> <Gold.Protein.RotatedAtoms>
  152.2874  134.7760  160.0384 H   0  0  0  0  0  0  0  0  0  0  0  0  # atno 6907 bound_to 6896
  151.8318  133.3404  159.3624 H   0  0  0  0  0  0  0  0  0  0  0  0  # atno 6908 bound_to 6896
  150.7215  134.5404  159.5788 H   0  0  0  0  0  0  0  0  0  0  0  0  # atno 6909 bound_to 6896
  145.4464  140.9560  143.2046 H   0  0  0  0  0  0  0  0  0  0  0  0  # atno 7974 bound_to 7965
  154.4960  140.0848  156.7696 H   0  0  0  0  0  0  0  0  0  0  0  0  # atno 8008 bound_to 7997
  155.4117  140.3442  155.4246 H   0  0  0  0  0  0  0  0  0  0  0  0  # atno 8009 bound_to 7997
  156.1394  140.1525  156.8932 H   0  0  0  0  0  0  0  0  0  0  0  0  # atno 8010 bound_to 7997
  140.6873  143.2899  151.3582 H   0  0  0  0  0  0  0  0  0  0  0  0  # atno 10167 bound_to 10162
  156.7779  130.9473  151.3120 H   0  0  0  0  0  0  0  0  0  0  0  0  # atno 10718 bound_to 10713
  153.0249  135.5237  154.7177 H   0  0  0  0  0  0  0  0  0  0  0  0  # atno 10763 bound_to 10752
  154.6241  135.2892  155.0294 H   0  0  0  0  0  0  0  0  0  0  0  0  # atno 10764 bound_to 10752
  154.1270  135.6599  153.4967 H   0  0  0  0  0  0  0  0  0  0  0  0  # atno 10765 bound_to 10752
  140.1720  134.4211  155.8251 H   0  0  0  0  0  0  0  0  0  0  0  0  # atno 11005 bound_to 11000
  144.8089  139.6000  143.7038 LP  0  0  0  0  0  0  0  0  0  0  0  0  # atno 17320 bound_to 7965
  146.2528  139.6237  142.9415 LP  0  0  0  0  0  0  0  0  0  0  0  0  # atno 17321 bound_to 7965
  139.6244  144.0844  152.2420 LP  0  0  0  0  0  0  0  0  0  0  0  0  # atno 17342 bound_to 10162
  140.0298  144.6089  150.7497 LP  0  0  0  0  0  0  0  0  0  0  0  0  # atno 17343 bound_to 10162
  157.6660  130.9008  149.9933 LP  0  0  0  0  0  0  0  0  0  0  0  0  # atno 17370 bound_to 10713
  156.1236  130.3645  149.9846 LP  0  0  0  0  0  0  0  0  0  0  0  0  # atno 17371 bound_to 10713
  141.2218  133.6960  156.7779 LP  0  0  0  0  0  0  0  0  0  0  0  0  # atno 17394 bound_to 11000
  140.2367  134.8645  157.3532 LP  0  0  0  0  0  0  0  0  0  0  0  0  # atno 17395 bound_to 11000

$$$$
