AV-unprocessed.smi:2520|AV-procd|sdf|9912|dock9
  -GOLD-   2272013553D 1   1.00000     0.00000
 Structure written by MMmdl.
 41 44  0  0  0  0  0  0  0  0  1 V2000
  151.8343  140.4770  155.5013 O   0  0  0  0  0  0  0  0  0  0  0  0
  151.0037  140.7646  156.3613 C   0  0  0  0  0  0  0  0  0  0  0  0
  151.3018  140.6780  157.6754 N   0  0  0  0  0  0  0  0  0  0  0  0
  152.4958  140.2798  158.3467 C   0  0  0  0  0  0  0  0  0  0  0  0
  152.7669  140.9846  159.5390 C   0  0  0  0  0  0  0  0  0  0  0  0
  153.9269  140.6578  160.2619 C   0  0  0  0  0  0  0  0  0  0  0  0
  154.7463  139.6428  159.7398 C   0  0  0  0  0  0  0  0  0  0  0  0
  154.4524  138.9942  158.5926 N   0  0  0  0  0  0  0  0  0  0  0  0
  153.3462  139.3115  157.9123 N   0  0  0  0  0  0  0  0  0  0  0  0
  149.7643  141.1823  156.0656 N   0  0  0  0  0  0  0  0  0  0  0  0
  149.2055  141.3501  154.7249 C   0  0  1  0  0  0  0  0  0  0  0  0
  148.9364  140.0009  154.0193 C   0  0  1  0  0  0  0  0  0  0  0  0
  149.4831  138.6902  154.5316 C   0  0  0  0  0  0  0  0  0  0  0  0
  148.3143  138.1278  155.3465 C   0  0  0  0  0  0  0  0  0  0  0  0
  147.4888  139.2549  155.6347 O   0  0  0  0  0  0  0  0  0  0  0  0
  147.4953  140.1078  154.4923 C   0  0  1  0  0  0  0  0  0  0  0  0
  147.6820  141.6156  154.7628 C   0  0  0  0  0  0  0  0  0  0  0  0
  147.1197  142.5425  153.6863 C   0  0  0  0  0  0  0  0  0  0  0  0
  145.6960  142.9193  154.1087 C   0  0  0  0  0  0  0  0  0  0  0  0
  145.6258  142.6562  155.6159 C   0  0  0  0  0  0  0  0  0  0  0  0
  147.0292  142.1979  156.0173 C   0  0  0  0  0  0  0  0  0  0  0  0
  150.5517  140.9557  158.2913 H   0  0  0  0  0  0  0  0  0  0  0  0
  152.1023  141.7584  159.8949 H   0  0  0  0  0  0  0  0  0  0  0  0
  154.1787  141.1657  161.1809 H   0  0  0  0  0  0  0  0  0  0  0  0
  155.6518  139.3462  160.2479 H   0  0  0  0  0  0  0  0  0  0  0  0
  149.1479  141.3986  156.8368 H   0  0  0  0  0  0  0  0  0  0  0  0
  149.7470  142.0548  154.0914 H   0  0  0  0  0  0  0  0  0  0  0  0
  149.0019  140.1118  152.9356 H   0  0  0  0  0  0  0  0  0  0  0  0
  149.7575  138.0139  153.7218 H   0  0  0  0  0  0  0  0  0  0  0  0
  150.3685  138.8282  155.1519 H   0  0  0  0  0  0  0  0  0  0  0  0
  147.7431  137.4137  154.7519 H   0  0  0  0  0  0  0  0  0  0  0  0
  148.6406  137.6292  156.2593 H   0  0  0  0  0  0  0  0  0  0  0  0
  146.7546  139.8372  153.7385 H   0  0  0  0  0  0  0  0  0  0  0  0
  147.7263  143.4470  153.6232 H   0  0  0  0  0  0  0  0  0  0  0  0
  147.1323  142.0885  152.6948 H   0  0  0  0  0  0  0  0  0  0  0  0
  145.4726  143.9585  153.8653 H   0  0  0  0  0  0  0  0  0  0  0  0
  144.9671  142.2966  153.5889 H   0  0  0  0  0  0  0  0  0  0  0  0
  145.3143  143.5386  156.1755 H   0  0  0  0  0  0  0  0  0  0  0  0
  144.9026  141.8651  155.8181 H   0  0  0  0  0  0  0  0  0  0  0  0
  146.9918  141.4887  156.8445 H   0  0  0  0  0  0  0  0  0  0  0  0
  147.6021  143.0575  156.3678 H   0  0  0  0  0  0  0  0  0  0  0  0
  1  2  2  0  0  0  0
  2  3  1  0  0  0  0
  2 10  1  0  0  0  0
  3  4  1  0  0  0  0
  3 22  1  0  0  0  0
  4  9  1  0  0  0  0
  4  5  2  0  0  0  0
  5  6  1  0  0  0  0
  5 23  1  0  0  0  0
  6  7  2  0  0  0  0
  6 24  1  0  0  0  0
  7  8  1  0  0  0  0
  7 25  1  0  0  0  0
  8  9  2  0  0  0  0
 10 11  1  0  0  0  0
 10 26  1  0  0  0  0
 11 17  1  0  0  0  0
 11 12  1  0  0  0  0
 11 27  1  0  0  0  0
 12 16  1  0  0  0  0
 12 13  1  0  0  0  0
 12 28  1  0  0  0  0
 13 14  1  0  0  0  0
 13 29  1  0  0  0  0
 13 30  1  0  0  0  0
 14 15  1  0  0  0  0
 14 31  1  0  0  0  0
 14 32  1  0  0  0  0
 15 16  1  0  0  0  0
 16 17  1  0  0  0  0
 16 33  1  0  0  0  0
 17 21  1  0  0  0  0
 17 18  1  0  0  0  0
 18 19  1  0  0  0  0
 18 34  1  0  0  0  0
 18 35  1  0  0  0  0
 19 20  1  0  0  0  0
 19 36  1  0  0  0  0
 19 37  1  0  0  0  0
 20 21  1  0  0  0  0
 20 38  1  0  0  0  0
 20 39  1  0  0  0  0
 21 40  1  0  0  0  0
 21 41  1  0  0  0  0
M  END
> <s_m_source_file>
AV-unprocessed.smi

> <i_m_source_file_index>
2520

> <i_lp_mmshare_version>
43012

> <i_f3d_flags>
0

> <s_epik_input>
bjFuW2NIXVtjSF1bY0hdYzFbTkhdQyg9TylbTkhdW0NAQEhdMltDQEBIXShbQ0gyXVtDSDJdTzMpW0NASF0zQzI0W0NIMl1bQ0gyXVtDSDJdW0NIMl00

> <s_epik_cmdline>
J2VwaWtfcHl0aG9uJywgJy1waCcsICc3LjAnLCAnLXRuJywgJzgnLCAnLW1hJywgJzIwMCcsICctbWV0YWxfYmluZGluZycsICctaW1hZScsICc8aW5maWxlLm1hZT4nLCAnLW9tYWUnLCAnPG91dGZpbGUubWFlPic=

> <r_lp_tautomer_probability>
1

> <r_epik_Ionization_Penalty>
0.00552561

> <r_epik_Ionization_Penalty_Charging>
0

> <r_epik_Ionization_Penalty_Neutral>
0.00552561

> <r_epik_State_Penalty>
-0

> <r_epik_Charging_Adjusted_Penalty>
0

> <i_epik_Tot_Q>
0

> <i_epik_Tot_abs_Q>
0

> <r_epik_Metal_State_Penalty>
-0

> <b_epik_Metal_Only>
0

> <s_lp_Force_Field>
OPLS_2005

> <r_lp_Energy>
62.4045

> <b_lp_Chiralities_Consistent>
1

> <s_lp_Variant>
AV-unprocessed.smi:2520-6

> <Gold.Version>
5.8.1

> <Gold.Id.Protein>
6NUR|6NUR_protein|mol2

> <Gold.PLP.Fitness>
35.8280

> <Gold.PLP.PLP>
-32.9623

> <Gold.PLP.part.hbond>
-3.0000

> <Gold.PLP.part.metal>
0.0000

> <Gold.PLP.part.buried>
-1.9396

> <Gold.PLP.part.nonpolar>
-27.6243

> <Gold.PLP.part.repulsive>
0.1387

> <Gold.PLP.ligand.clash>
0.0000

> <Gold.PLP.ligand.torsion>
0.3527

> <Gold.PLP.Chemscore.Hbond>
1.1218

> <Gold.PLP.Chemscore.CHOScore>
0.0000

> <Gold.PLP.Chemscore.Metal>
0.0000

> <Gold.Chemscore.Hbonds>
donor molecule, donor type, donor heavy atom, donor atom, acceptor molecule, acceptor atom, score
      P1  H  7989  7998       L1     1  0.71
      P1  H  7997  8009       L1     9  0.42

> <Gold.PLP.Chemscore.Internal.Correction>
0.2056

> <Gold.Rescore>
     Score         DG    S(hbond)    S(metal)    S(lipo)     H(rot)  DE(clash)    DE(int)     intcor
     13.42     -14.05       0.68        0.00      75.66       1.00       0.24       0.39       ----

> <Gold.Chemscore.Fitness>
13.4224

> <Gold.Chemscore.DG>
-14.0498

> <Gold.Chemscore.ZeroCoef>
-5.4800

> <Gold.Chemscore.Hbond>
0.6818

> <Gold.Chemscore.Metal>
0.0000

> <Gold.Chemscore.Lipo>
75.6640

> <Gold.Chemscore.Internal_Hbond>
0.0000

> <Gold.Chemscore.DEClash>
0.2364

> <Gold.Chemscore.DEInternal>
0.3909

> <Gold.Chemscore.Rot>
1.0000

> <Gold.Chemscore.Internal.Correction>
   9.000000E+99

> <Gold.Chemscore.Hbonds>
donor molecule, donor type, donor heavy atom, donor atom, acceptor molecule, acceptor atom, score
      P1  H  7989  7998       L1     1  0.66
      P1  H  7997  8009       L1     9  0.01

> <Gold.Chemscore.Hbond.Weighted>
-2.2771

> <Gold.Chemscore.Metal.Weighted>
-0.0000

> <Gold.Chemscore.Lipo.Weighted>
-8.8527

> <Gold.Chemscore.Internal_Hbond.Weighted>
0.0000

> <Gold.Chemscore.DEClash.Weighted>
0.2364

> <Gold.Chemscore.DEInternal.Weighted>
0.3909

> <Gold.Chemscore.Rot.Weighted>
2.5600

> <Gold.Chemscore.Internal.Correction.Weighted>
   9.000000E+99

> <Gold.Protein.RotatedTorsions>
[ 6907 6896 6895 6894 ] final -157.78 input  -60.11 | X-H torsion
[ 7974 7965 7964 7962 ] final -109.21 input  175.53 | X-H torsion
[ 8008 7997 7996 7995 ] final -176.36 input   59.86 | X-H torsion
[ 10167 10162 10161 10158 ] final  133.26 input  -65.29 | X-H torsion
[ 10718 10713 10712 10709 ] final  133.24 input   66.30 | X-H torsion
[ 10763 10752 10751 10750 ] final  -33.01 input  -60.55 | X-H torsion
[ 11005 11000 10999 10996 ] final   10.71 input  -57.11 | X-H torsion

> <Gold.Protein.ActiveResidues>
 VAL166  LYS551  ARG553  GLY616  TRP617  ASP618  TYR619  PRO620  LYS621  CYS622 
 ASP623  PHE694  ASN695  SER759  ASP760  ASP761  ALA762  ILE779  LEU786  VAL792 
 PHE793  MET794  SER795  GLU796  ALA797  LYS798  CYS799  TRP800  GLU811  SER814 

> <Gold.Protein.RotatedAtoms>
  151.3080  133.4093  159.2644 H   0  0  0  0  0  0  0  0  0  0  0  0  # atno 6907 bound_to 6896
  151.0138  134.9418  159.8032 H   0  0  0  0  0  0  0  0  0  0  0  0  # atno 6908 bound_to 6896
  152.5307  134.3044  159.9143 H   0  0  0  0  0  0  0  0  0  0  0  0  # atno 6909 bound_to 6896
  145.1834  140.8981  143.3467 H   0  0  0  0  0  0  0  0  0  0  0  0  # atno 7974 bound_to 7965
  155.9939  140.1206  157.0612 H   0  0  0  0  0  0  0  0  0  0  0  0  # atno 8008 bound_to 7997
  154.4220  140.1120  156.5672 H   0  0  0  0  0  0  0  0  0  0  0  0  # atno 8009 bound_to 7997
  155.6305  140.3473  155.4683 H   0  0  0  0  0  0  0  0  0  0  0  0  # atno 8010 bound_to 7997
  139.5304  144.6624  151.4970 H   0  0  0  0  0  0  0  0  0  0  0  0  # atno 10167 bound_to 10162
  157.4792  131.1085  150.9704 H   0  0  0  0  0  0  0  0  0  0  0  0  # atno 10718 bound_to 10713
  153.8232  135.6872  153.4824 H   0  0  0  0  0  0  0  0  0  0  0  0  # atno 10763 bound_to 10752
  153.1556  135.4600  154.9698 H   0  0  0  0  0  0  0  0  0  0  0  0  # atno 10764 bound_to 10752
  154.7918  135.3304  154.7702 H   0  0  0  0  0  0  0  0  0  0  0  0  # atno 10765 bound_to 10752
  140.5114  134.0648  155.7819 H   0  0  0  0  0  0  0  0  0  0  0  0  # atno 11005 bound_to 11000
  145.0114  139.3507  143.6118 LP  0  0  0  0  0  0  0  0  0  0  0  0  # atno 17320 bound_to 7965
  146.3449  139.9377  142.8745 LP  0  0  0  0  0  0  0  0  0  0  0  0  # atno 17321 bound_to 7965
  140.6479  143.8757  150.6755 LP  0  0  0  0  0  0  0  0  0  0  0  0  # atno 17342 bound_to 10162
  140.2112  143.3882  152.1716 LP  0  0  0  0  0  0  0  0  0  0  0  0  # atno 17343 bound_to 10162
  157.0443  130.5761  149.5360 LP  0  0  0  0  0  0  0  0  0  0  0  0  # atno 17370 bound_to 10713
  156.0112  130.5204  150.7995 LP  0  0  0  0  0  0  0  0  0  0  0  0  # atno 17371 bound_to 10713
  141.1383  133.9182  157.2383 LP  0  0  0  0  0  0  0  0  0  0  0  0  # atno 17394 bound_to 11000
  139.9657  135.0142  156.9380 LP  0  0  0  0  0  0  0  0  0  0  0  0  # atno 17395 bound_to 11000

$$$$
