AV-unprocessed.smi:466|AV-procd|sdf|2641|dock3
  -GOLD-   2262023 53D 1   1.00000     0.00000
 Structure written by MMmdl.
 43 45  0  0  0  0  0  0  0  0  1 V2000
  154.3134  140.4316  161.2077 C   0  0  0  0  0  0  0  0  0  0  0  0
  153.3600  140.7413  160.2020 O   0  0  0  0  0  0  0  0  0  0  0  0
  152.7027  141.9527  160.2733 C   0  0  0  0  0  0  0  0  0  0  0  0
  152.9130  142.8997  161.3079 C   0  0  0  0  0  0  0  0  0  0  0  0
  152.2049  144.1148  161.3192 C   0  0  0  0  0  0  0  0  0  0  0  0
  151.2810  144.3984  160.2995 C   0  0  0  0  0  0  0  0  0  0  0  0
  151.0649  143.4673  159.2677 C   0  0  0  0  0  0  0  0  0  0  0  0
  151.7724  142.2383  159.2467 C   0  0  0  0  0  0  0  0  0  0  0  0
  151.6099  141.2791  158.2682 O   0  0  0  0  0  0  0  0  0  0  0  0
  150.7835  141.5821  157.1535 C   0  0  0  0  0  0  0  0  0  0  0  0
  151.4471  141.0258  155.8884 C   0  0  0  0  0  0  0  0  0  0  0  0
  150.5847  140.0710  155.2102 N   0  0  0  0  0  0  0  0  0  0  0  0
  150.7784  138.7406  155.0192 C   0  0  0  0  0  0  0  0  0  0  0  0
  151.9906  138.0143  155.5264 C   0  0  0  0  0  0  0  0  0  0  0  0
  151.6489  136.8138  156.4231 C   0  0  0  0  0  0  0  0  0  0  0  0
  152.8051  136.0613  156.7245 O   0  0  0  0  0  0  0  0  0  0  0  0
  149.8135  138.1059  154.3514 N   0  0  0  0  0  0  0  0  0  0  0  0
  148.9135  139.1176  154.0802 C   0  0  0  0  0  0  0  0  0  0  0  0
  147.6777  139.0883  153.3949 C   0  0  0  0  0  0  0  0  0  0  0  0
  146.9224  140.2686  153.2343 C   0  0  0  0  0  0  0  0  0  0  0  0
  147.3912  141.4922  153.7548 C   0  0  0  0  0  0  0  0  0  0  0  0
  148.6191  141.5429  154.4422 C   0  0  0  0  0  0  0  0  0  0  0  0
  149.3680  140.3616  154.6015 C   0  0  0  0  0  0  0  0  0  0  0  0
  154.7304  139.4433  161.0147 H   0  0  0  0  0  0  0  0  0  0  0  0
  153.8559  140.4078  162.1977 H   0  0  0  0  0  0  0  0  0  0  0  0
  155.1396  141.1436  161.2070 H   0  0  0  0  0  0  0  0  0  0  0  0
  153.6141  142.7169  162.1078 H   0  0  0  0  0  0  0  0  0  0  0  0
  152.3711  144.8295  162.1117 H   0  0  0  0  0  0  0  0  0  0  0  0
  150.7366  145.3313  160.3078 H   0  0  0  0  0  0  0  0  0  0  0  0
  150.3486  143.7214  158.5015 H   0  0  0  0  0  0  0  0  0  0  0  0
  149.7994  141.1278  157.2812 H   0  0  0  0  0  0  0  0  0  0  0  0
  150.6534  142.6613  157.0609 H   0  0  0  0  0  0  0  0  0  0  0  0
  151.7135  141.8313  155.2049 H   0  0  0  0  0  0  0  0  0  0  0  0
  152.3815  140.5265  156.1467 H   0  0  0  0  0  0  0  0  0  0  0  0
  152.5426  137.6533  154.6579 H   0  0  0  0  0  0  0  0  0  0  0  0
  152.6691  138.6979  156.0355 H   0  0  0  0  0  0  0  0  0  0  0  0
  151.1634  137.1373  157.3444 H   0  0  0  0  0  0  0  0  0  0  0  0
  150.9500  136.1562  155.9058 H   0  0  0  0  0  0  0  0  0  0  0  0
  152.7556  135.7804  157.6255 H   0  0  0  0  0  0  0  0  0  0  0  0
  147.3111  138.1560  152.9912 H   0  0  0  0  0  0  0  0  0  0  0  0
  145.9794  140.2353  152.7086 H   0  0  0  0  0  0  0  0  0  0  0  0
  146.8078  142.3924  153.6266 H   0  0  0  0  0  0  0  0  0  0  0  0
  148.9809  142.4787  154.8417 H   0  0  0  0  0  0  0  0  0  0  0  0
  1  2  1  0  0  0  0
  1 24  1  0  0  0  0
  1 25  1  0  0  0  0
  1 26  1  0  0  0  0
  2  3  1  0  0  0  0
  3  8  1  0  0  0  0
  3  4  2  0  0  0  0
  4  5  1  0  0  0  0
  4 27  1  0  0  0  0
  5  6  2  0  0  0  0
  5 28  1  0  0  0  0
  6  7  1  0  0  0  0
  6 29  1  0  0  0  0
  7  8  2  0  0  0  0
  7 30  1  0  0  0  0
  8  9  1  0  0  0  0
  9 10  1  0  0  0  0
 10 11  1  0  0  0  0
 10 31  1  0  0  0  0
 10 32  1  0  0  0  0
 11 12  1  0  0  0  0
 11 33  1  0  0  0  0
 11 34  1  0  0  0  0
 12 23  1  0  0  0  0
 12 13  1  0  0  0  0
 13 14  1  0  0  0  0
 13 17  2  0  0  0  0
 14 15  1  0  0  0  0
 14 35  1  0  0  0  0
 14 36  1  0  0  0  0
 15 16  1  0  0  0  0
 15 37  1  0  0  0  0
 15 38  1  0  0  0  0
 16 39  1  0  0  0  0
 17 18  1  0  0  0  0
 18 23  2  0  0  0  0
 18 19  1  0  0  0  0
 19 20  2  0  0  0  0
 19 40  1  0  0  0  0
 20 21  1  0  0  0  0
 20 41  1  0  0  0  0
 21 22  2  0  0  0  0
 21 42  1  0  0  0  0
 22 23  1  0  0  0  0
 22 43  1  0  0  0  0
M  END
> <s_m_source_file>
AV-unprocessed.smi

> <i_m_source_file_index>
466

> <i_lp_mmshare_version>
43012

> <i_f3d_flags>
0

> <s_epik_input>
W0NIM11PYzFbY0hdW2NIXVtjSF1bY0hdYzFPW0NIMl1bQ0gyXW4oYyhuMilbQ0gyXVtDSDJdW09IXSljKGMyMylbY0hdW2NIXVtjSF1bY0hdMw==

> <s_epik_cmdline>
J2VwaWtfcHl0aG9uJywgJy1waCcsICc3LjAnLCAnLXRuJywgJzgnLCAnLW1hJywgJzIwMCcsICctbWV0YWxfYmluZGluZycsICctaW1hZScsICc8aW5maWxlLm1hZT4nLCAnLW9tYWUnLCAnPG91dGZpbGUubWFlPic=

> <r_lp_tautomer_probability>
1

> <r_epik_Ionization_Penalty>
0.20808

> <r_epik_Ionization_Penalty_Charging>
0

> <r_epik_Ionization_Penalty_Neutral>
0.20808

> <r_epik_State_Penalty>
0.198097

> <r_epik_Charging_Adjusted_Penalty>
0.198097

> <i_epik_Tot_Q>
0

> <i_epik_Tot_abs_Q>
0

> <r_epik_Metal_State_Penalty>
0.000235189

> <b_epik_Metal_Only>
0

> <s_lp_Force_Field>
OPLS_2005

> <r_lp_Energy>
20.5556

> <b_lp_Chiralities_Consistent>
1

> <s_lp_Variant>
AV-unprocessed.smi:466-1

> <Gold.Version>
5.8.1

> <Gold.Id.Protein>
6NUR|6NUR_protein|mol2

> <Gold.PLP.Fitness>
50.7504

> <Gold.PLP.PLP>
-49.0629

> <Gold.PLP.part.hbond>
-1.0000

> <Gold.PLP.part.metal>
0.0000

> <Gold.PLP.part.buried>
-4.5655

> <Gold.PLP.part.nonpolar>
-43.0330

> <Gold.PLP.part.repulsive>
0.2208

> <Gold.PLP.ligand.clash>
0.0000

> <Gold.PLP.ligand.torsion>
0.7635

> <Gold.PLP.Chemscore.Hbond>
1.0000

> <Gold.PLP.Chemscore.CHOScore>
0.0000

> <Gold.PLP.Chemscore.Metal>
0.0000

> <Gold.Chemscore.Hbonds>
donor molecule, donor type, donor heavy atom, donor atom, acceptor molecule, acceptor atom, score
      P1  H 10752 10763       L1    16  1.00

> <Gold.PLP.Chemscore.Internal.Correction>
0.2145

> <Gold.Rescore>
     Score         DG    S(hbond)    S(metal)    S(lipo)     H(rot)  DE(clash)    DE(int)     intcor
     17.26     -18.31       0.98        0.00     138.31       2.59       0.20       0.86       ----

> <Gold.Chemscore.Fitness>
17.2556

> <Gold.Chemscore.DG>
-18.3081

> <Gold.Chemscore.ZeroCoef>
-5.4800

> <Gold.Chemscore.Hbond>
0.9823

> <Gold.Chemscore.Metal>
0.0000

> <Gold.Chemscore.Lipo>
138.3052

> <Gold.Chemscore.Internal_Hbond>
0.0000

> <Gold.Chemscore.DEClash>
0.1951

> <Gold.Chemscore.DEInternal>
0.8574

> <Gold.Chemscore.Rot>
2.5916

> <Gold.Chemscore.Internal.Correction>
   9.000000E+99

> <Gold.Chemscore.Hbonds>
donor molecule, donor type, donor heavy atom, donor atom, acceptor molecule, acceptor atom, score
      P1  H 10752 10763       L1    16  0.60

> <Gold.Chemscore.Hbond.Weighted>
-3.2810

> <Gold.Chemscore.Metal.Weighted>
-0.0000

> <Gold.Chemscore.Lipo.Weighted>
-16.1817

> <Gold.Chemscore.Internal_Hbond.Weighted>
0.0000

> <Gold.Chemscore.DEClash.Weighted>
0.1951

> <Gold.Chemscore.DEInternal.Weighted>
0.8574

> <Gold.Chemscore.Rot.Weighted>
6.6346

> <Gold.Chemscore.Internal.Correction.Weighted>
   9.000000E+99

> <Gold.Protein.RotatedTorsions>
[ 6907 6896 6895 6894 ] final  -54.95 input  -60.11 | X-H torsion
[ 7974 7965 7964 7962 ] final   77.63 input  175.53 | X-H torsion
[ 8008 7997 7996 7995 ] final   22.86 input   59.86 | X-H torsion
[ 10167 10162 10161 10158 ] final  -29.92 input  -65.29 | X-H torsion
[ 10718 10713 10712 10709 ] final  -90.81 input   66.30 | X-H torsion
[ 10763 10752 10751 10750 ] final  105.81 input  -60.55 | X-H torsion
[ 11005 11000 10999 10996 ] final  144.32 input  -57.11 | X-H torsion

> <Gold.Protein.ActiveResidues>
 VAL166  LYS551  ARG553  GLY616  TRP617  ASP618  TYR619  PRO620  LYS621  CYS622 
 ASP623  PHE694  ASN695  SER759  ASP760  ASP761  ALA762  ILE779  LEU786  VAL792 
 PHE793  MET794  SER795  GLU796  ALA797  LYS798  CYS799  TRP800  GLU811  SER814 

> <Gold.Protein.RotatedAtoms>
  150.8294  134.7539  159.6839 H   0  0  0  0  0  0  0  0  0  0  0  0  # atno 6907 bound_to 6896
  152.4400  134.5606  159.9903 H   0  0  0  0  0  0  0  0  0  0  0  0  # atno 6908 bound_to 6896
  151.5771  133.3345  159.3037 H   0  0  0  0  0  0  0  0  0  0  0  0  # atno 6909 bound_to 6896
  145.6876  139.2542  143.1778 H   0  0  0  0  0  0  0  0  0  0  0  0  # atno 7974 bound_to 7965
  154.9721  140.3091  155.4983 H   0  0  0  0  0  0  0  0  0  0  0  0  # atno 8008 bound_to 7997
  156.2964  140.2282  156.4753 H   0  0  0  0  0  0  0  0  0  0  0  0  # atno 8009 bound_to 7997
  154.7867  140.0442  157.1158 H   0  0  0  0  0  0  0  0  0  0  0  0  # atno 8010 bound_to 7997
  140.7255  143.3890  151.1464 H   0  0  0  0  0  0  0  0  0  0  0  0  # atno 10167 bound_to 10162
  155.9990  130.4924  150.5379 H   0  0  0  0  0  0  0  0  0  0  0  0  # atno 10718 bound_to 10713
  153.3844  135.3898  155.1879 H   0  0  0  0  0  0  0  0  0  0  0  0  # atno 10763 bound_to 10752
  154.8711  135.3733  154.4816 H   0  0  0  0  0  0  0  0  0  0  0  0  # atno 10764 bound_to 10752
  153.5297  135.7086  153.5751 H   0  0  0  0  0  0  0  0  0  0  0  0  # atno 10765 bound_to 10752
  140.0623  134.9198  157.1204 H   0  0  0  0  0  0  0  0  0  0  0  0  # atno 11005 bound_to 11000
  146.0910  140.7656  142.9595 LP  0  0  0  0  0  0  0  0  0  0  0  0  # atno 17320 bound_to 7965
  144.7006  140.3637  143.7159 LP  0  0  0  0  0  0  0  0  0  0  0  0  # atno 17321 bound_to 7965
  139.7492  143.8805  152.3072 LP  0  0  0  0  0  0  0  0  0  0  0  0  # atno 17342 bound_to 10162
  139.8653  144.7096  150.9051 LP  0  0  0  0  0  0  0  0  0  0  0  0  # atno 17343 bound_to 10162
  157.3320  131.0701  151.1854 LP  0  0  0  0  0  0  0  0  0  0  0  0  # atno 17370 bound_to 10713
  157.2731  130.6714  149.6029 LP  0  0  0  0  0  0  0  0  0  0  0  0  # atno 17371 bound_to 10713
  140.3752  134.2347  155.7175 LP  0  0  0  0  0  0  0  0  0  0  0  0  # atno 17394 bound_to 11000
  141.1978  133.8050  157.0611 LP  0  0  0  0  0  0  0  0  0  0  0  0  # atno 17395 bound_to 11000

$$$$
