AV-unprocessed.smi:1356|AV-procd|sdf|5545|dock6
  -GOLD-   22720 5133D 1   1.00000     0.00000
 Structure written by MMmdl.
 42 43  0  0  0  0  0  0  0  0  2 V2000
  145.1945  135.4568  162.7455 C   0  0  0  0  0  0  0  0  0  0  0  0
  146.4771  134.6443  162.7829 C   0  0  1  0  0  0  0  0  0  0  0  0
  147.0032  133.9729  161.5370 C   0  0  0  0  0  0  0  0  0  0  0  0
  147.7975  135.0971  162.1729 C   0  0  1  0  0  0  0  0  0  0  0  0
  147.8801  136.4008  161.4411 C   0  0  0  0  0  0  0  0  0  0  0  0
  147.3610  137.4428  161.8436 O   0  0  0  0  0  0  0  0  0  0  0  0
  148.5696  136.3325  160.2933 N   0  0  0  0  0  0  0  0  0  0  0  0
  148.7959  137.4621  159.4024 C   0  0  0  0  0  0  0  0  0  0  0  0
  150.2264  137.4353  158.8410 C   0  0  0  0  0  0  0  0  0  0  0  0
  150.3694  138.3450  157.6198 C   0  0  0  0  0  0  0  0  0  0  0  0
  149.7269  138.1113  156.5965 O   0  0  0  0  0  0  0  0  0  0  0  0
  151.2297  139.3684  157.7323 N   0  0  0  0  0  0  0  0  0  0  0  0
  151.5636  140.3090  156.6661 C   0  0  0  0  0  0  0  0  0  0  0  0
  150.6981  141.5871  156.6896 C   0  0  0  0  0  0  0  0  0  0  0  0
  151.2146  142.6592  157.6341 C   0  0  0  0  0  0  0  0  0  0  0  0
  152.2459  142.4059  158.5654 C   0  0  0  0  0  0  0  0  0  0  0  0
  152.6693  143.4412  159.4242 C   0  0  0  0  0  0  0  0  0  0  0  0
  152.0557  144.7077  159.3319 C   0  0  0  0  0  0  0  0  0  0  0  0
  151.0326  144.9064  158.3823 C   0  0  0  0  0  0  0  0  0  0  0  0
  150.6537  143.8886  157.5783 N   0  3  0  0  0  0  0  0  0  0  0  0
  144.9810  135.8265  161.7430 H   0  0  0  0  0  0  0  0  0  0  0  0
  145.2682  136.3056  163.4255 H   0  0  0  0  0  0  0  0  0  0  0  0
  144.3551  134.8360  163.0589 H   0  0  0  0  0  0  0  0  0  0  0  0
  146.5874  134.0924  163.7143 H   0  0  0  0  0  0  0  0  0  0  0  0
  147.4088  132.9680  161.6330 H   0  0  0  0  0  0  0  0  0  0  0  0
  146.4817  134.1659  160.6011 H   0  0  0  0  0  0  0  0  0  0  0  0
  148.6897  134.8130  162.7292 H   0  0  0  0  0  0  0  0  0  0  0  0
  148.9682  135.4440  160.0258 H   0  0  0  0  0  0  0  0  0  0  0  0
  148.0718  137.4248  158.5861 H   0  0  0  0  0  0  0  0  0  0  0  0
  148.6180  138.3894  159.9498 H   0  0  0  0  0  0  0  0  0  0  0  0
  150.9345  137.7647  159.6025 H   0  0  0  0  0  0  0  0  0  0  0  0
  150.5040  136.4136  158.5765 H   0  0  0  0  0  0  0  0  0  0  0  0
  151.7047  139.4921  158.6150 H   0  0  0  0  0  0  0  0  0  0  0  0
  152.6232  140.5653  156.7084 H   0  0  0  0  0  0  0  0  0  0  0  0
  151.4114  139.7881  155.7204 H   0  0  0  0  0  0  0  0  0  0  0  0
  150.6376  142.0081  155.6852 H   0  0  0  0  0  0  0  0  0  0  0  0
  149.6745  141.3318  156.9663 H   0  0  0  0  0  0  0  0  0  0  0  0
  152.7024  141.4284  158.6272 H   0  0  0  0  0  0  0  0  0  0  0  0
  153.4539  143.2651  160.1457 H   0  0  0  0  0  0  0  0  0  0  0  0
  152.3652  145.5146  159.9801 H   0  0  0  0  0  0  0  0  0  0  0  0
  150.5093  145.8411  158.2434 H   0  0  0  0  0  0  0  0  0  0  0  0
  149.9103  144.0549  156.8994 H   0  0  0  0  0  0  0  0  0  0  0  0
  1  2  1  0  0  0  0
  1 21  1  0  0  0  0
  1 22  1  0  0  0  0
  1 23  1  0  0  0  0
  2  4  1  0  0  0  0
  2  3  1  0  0  0  0
  2 24  1  0  0  0  0
  3  4  1  0  0  0  0
  3 25  1  0  0  0  0
  3 26  1  0  0  0  0
  4  5  1  0  0  0  0
  4 27  1  0  0  0  0
  5  6  2  0  0  0  0
  5  7  1  0  0  0  0
  7  8  1  0  0  0  0
  7 28  1  0  0  0  0
  8  9  1  0  0  0  0
  8 29  1  0  0  0  0
  8 30  1  0  0  0  0
  9 10  1  0  0  0  0
  9 31  1  0  0  0  0
  9 32  1  0  0  0  0
 10 11  2  0  0  0  0
 10 12  1  0  0  0  0
 12 13  1  0  0  0  0
 12 33  1  0  0  0  0
 13 14  1  0  0  0  0
 13 34  1  0  0  0  0
 13 35  1  0  0  0  0
 14 15  1  0  0  0  0
 14 36  1  0  0  0  0
 14 37  1  0  0  0  0
 15 20  1  0  0  0  0
 15 16  2  0  0  0  0
 16 17  1  0  0  0  0
 16 38  1  0  0  0  0
 17 18  2  0  0  0  0
 17 39  1  0  0  0  0
 18 19  1  0  0  0  0
 18 40  1  0  0  0  0
 19 20  2  0  0  0  0
 19 41  1  0  0  0  0
 20 42  1  0  0  0  0
M  CHG  1  20   1
M  END
> <s_m_source_file>
AV-unprocessed.smi

> <i_m_source_file_index>
1356

> <i_lp_mmshare_version>
43012

> <i_f3d_flags>
0

> <s_epik_input>
W0NIM11bQ0BASF0xW0NIMl1bQ0BIXTFDKD1PKVtOSF1bQ0gyXVtDSDJdQyg9TylbTkhdW0NIMl1bQ0gyXWMyW2NIXVtjSF1bY0hdW2NIXW4y

> <s_epik_cmdline>
J2VwaWtfcHl0aG9uJywgJy1waCcsICc3LjAnLCAnLXRuJywgJzgnLCAnLW1hJywgJzIwMCcsICctbWV0YWxfYmluZGluZycsICctaW1hZScsICc8aW5maWxlLm1hZT4nLCAnLW9tYWUnLCAnPG91dGZpbGUubWFlPic=

> <r_epik_Ionization_Penalty>
1.86966

> <r_epik_Ionization_Penalty_Charging>
1.86966

> <r_epik_Ionization_Penalty_Neutral>
5.0403e-08

> <r_epik_State_Penalty>
1.98858

> <r_epik_Charging_Adjusted_Penalty>
3.85824

> <i_epik_Tot_Q>
1

> <i_epik_Tot_abs_Q>
1

> <r_epik_Metal_State_Penalty>
2.01347

> <b_epik_Metal_Only>
0

> <s_lp_Force_Field>
OPLS_2005

> <r_lp_Energy>
15.5699

> <b_lp_Chiralities_Consistent>
1

> <s_lp_Variant>
AV-unprocessed.smi:1356-6

> <Gold.Version>
5.8.1

> <Gold.Id.Protein>
6NUR|6NUR_protein|mol2

> <Gold.PLP.Fitness>
52.6287

> <Gold.PLP.PLP>
-42.8803

> <Gold.PLP.part.hbond>
-3.0000

> <Gold.PLP.part.metal>
0.0000

> <Gold.PLP.part.buried>
-6.1882

> <Gold.PLP.part.nonpolar>
-34.0612

> <Gold.PLP.part.repulsive>
0.2392

> <Gold.PLP.ligand.clash>
0.0000

> <Gold.PLP.ligand.torsion>
0.8919

> <Gold.PLP.Chemscore.Hbond>
3.7600

> <Gold.PLP.Chemscore.CHOScore>
0.0000

> <Gold.PLP.Chemscore.Metal>
0.0000

> <Gold.Chemscore.Hbonds>
donor molecule, donor type, donor heavy atom, donor atom, acceptor molecule, acceptor atom, score
      L1  H    20    42       P1  8028  2.00
      P1  H  6931  6943       L1     6  0.42
      P1  H  6934  6947       L1     6  0.72

> <Gold.PLP.Chemscore.Internal.Correction>
0.2521

> <Gold.Rescore>
     Score         DG    S(hbond)    S(metal)    S(lipo)     H(rot)  DE(clash)    DE(int)     intcor
     19.90     -20.89       2.66        0.00     106.35       2.31       0.24       0.76       ----

> <Gold.Chemscore.Fitness>
19.8956

> <Gold.Chemscore.DG>
-20.8917

> <Gold.Chemscore.ZeroCoef>
-5.4800

> <Gold.Chemscore.Hbond>
2.6626

> <Gold.Chemscore.Metal>
0.0000

> <Gold.Chemscore.Lipo>
106.3454

> <Gold.Chemscore.Internal_Hbond>
0.0000

> <Gold.Chemscore.DEClash>
0.2397

> <Gold.Chemscore.DEInternal>
0.7563

> <Gold.Chemscore.Rot>
2.3140

> <Gold.Chemscore.Internal.Correction>
   9.000000E+99

> <Gold.Chemscore.Hbonds>
donor molecule, donor type, donor heavy atom, donor atom, acceptor molecule, acceptor atom, score
      L1  H    20    42       P1  8028  0.93
      P1  H  6931  6943       L1     6  0.02
      P1  H  6934  6947       L1     6  0.72

> <Gold.Chemscore.Hbond.Weighted>
-8.8931

> <Gold.Chemscore.Metal.Weighted>
-0.0000

> <Gold.Chemscore.Lipo.Weighted>
-12.4424

> <Gold.Chemscore.Internal_Hbond.Weighted>
0.0000

> <Gold.Chemscore.DEClash.Weighted>
0.2397

> <Gold.Chemscore.DEInternal.Weighted>
0.7563

> <Gold.Chemscore.Rot.Weighted>
5.9238

> <Gold.Chemscore.Internal.Correction.Weighted>
   9.000000E+99

> <Gold.Protein.RotatedTorsions>
[ 6907 6896 6895 6894 ] final   71.40 input  -60.11 | X-H torsion
[ 7974 7965 7964 7962 ] final   95.61 input  175.53 | X-H torsion
[ 8008 7997 7996 7995 ] final -120.92 input   59.86 | X-H torsion
[ 10167 10162 10161 10158 ] final   77.11 input  -65.29 | X-H torsion
[ 10718 10713 10712 10709 ] final   50.13 input   66.30 | X-H torsion
[ 10763 10752 10751 10750 ] final  -67.03 input  -60.55 | X-H torsion
[ 11005 11000 10999 10996 ] final  123.13 input  -57.11 | X-H torsion

> <Gold.Protein.ActiveResidues>
 VAL166  LYS551  ARG553  GLY616  TRP617  ASP618  TYR619  PRO620  LYS621  CYS622 
 ASP623  PHE694  ASN695  SER759  ASP760  ASP761  ALA762  ILE779  LEU786  VAL792 
 PHE793  MET794  SER795  GLU796  ALA797  LYS798  CYS799  TRP800  GLU811  SER814 

> <Gold.Protein.RotatedAtoms>
  152.4807  134.4726  159.9639 H   0  0  0  0  0  0  0  0  0  0  0  0  # atno 6907 bound_to 6896
  151.4732  133.3558  159.2834 H   0  0  0  0  0  0  0  0  0  0  0  0  # atno 6908 bound_to 6896
  150.8878  134.8304  159.7333 H   0  0  0  0  0  0  0  0  0  0  0  0  # atno 6909 bound_to 6896
  145.4499  139.2294  143.3045 H   0  0  0  0  0  0  0  0  0  0  0  0  # atno 7974 bound_to 7965
  155.1396  140.0401  157.2795 H   0  0  0  0  0  0  0  0  0  0  0  0  # atno 8008 bound_to 7997
  154.6483  140.2563  155.7217 H   0  0  0  0  0  0  0  0  0  0  0  0  # atno 8009 bound_to 7997
  156.2565  140.2841  156.0905 H   0  0  0  0  0  0  0  0  0  0  0  0  # atno 8010 bound_to 7997
  139.9850  144.5798  150.7867 H   0  0  0  0  0  0  0  0  0  0  0  0  # atno 10167 bound_to 10162
  157.4855  130.8342  149.8142 H   0  0  0  0  0  0  0  0  0  0  0  0  # atno 10718 bound_to 10713
  154.3686  135.6100  153.5728 H   0  0  0  0  0  0  0  0  0  0  0  0  # atno 10763 bound_to 10752
  152.9791  135.5832  154.4549 H   0  0  0  0  0  0  0  0  0  0  0  0  # atno 10764 bound_to 10752
  154.4299  135.2847  155.1897 H   0  0  0  0  0  0  0  0  0  0  0  0  # atno 10765 bound_to 10752
  139.9299  134.9641  156.8214 H   0  0  0  0  0  0  0  0  0  0  0  0  # atno 11005 bound_to 11000
  146.2510  140.5257  142.8893 LP  0  0  0  0  0  0  0  0  0  0  0  0  # atno 17320 bound_to 7965
  144.8068  140.6314  143.6442 LP  0  0  0  0  0  0  0  0  0  0  0  0  # atno 17321 bound_to 7965
  140.7475  143.2908  151.3337 LP  0  0  0  0  0  0  0  0  0  0  0  0  # atno 17342 bound_to 10162
  139.6381  144.0591  152.2532 LP  0  0  0  0  0  0  0  0  0  0  0  0  # atno 17343 bound_to 10162
  156.0144  130.3819  150.2158 LP  0  0  0  0  0  0  0  0  0  0  0  0  # atno 17370 bound_to 10713
  157.0345  131.0017  151.3302 LP  0  0  0  0  0  0  0  0  0  0  0  0  # atno 17371 bound_to 10713
  140.6231  133.9975  155.7627 LP  0  0  0  0  0  0  0  0  0  0  0  0  # atno 17394 bound_to 11000
  141.0881  133.9959  157.3281 LP  0  0  0  0  0  0  0  0  0  0  0  0  # atno 17395 bound_to 11000

$$$$
