AV-unprocessed.smi:2055|AV-procd|sdf|8336|dock3
  -GOLD-   2272011 03D 1   1.00000     0.00000
 Structure written by MMmdl.
 44 45  0  0  0  0  0  0  0  0  2 V2000
  148.1426  134.3157  156.6144 C   0  0  0  0  0  0  0  0  0  0  0  0
  147.4228  135.1432  155.5386 C   0  0  2  0  0  0  0  0  0  0  0  0
  146.5598  134.2675  154.6087 C   0  0  0  0  0  0  0  0  0  0  0  0
  145.9764  135.0568  153.5943 O   0  0  0  0  0  0  0  0  0  0  0  0
  148.4149  135.8878  154.7678 N   0  0  0  0  0  0  0  0  0  0  0  0
  149.3301  136.7211  155.2825 C   0  0  0  0  0  0  0  0  0  0  0  0
  149.4310  136.9845  156.4806 O   0  0  0  0  0  0  0  0  0  0  0  0
  150.1332  137.2258  154.3354 N   0  0  0  0  0  0  0  0  0  0  0  0
  151.2171  138.1739  154.5795 C   0  0  0  0  0  0  0  0  0  0  0  0
  150.7805  139.5639  155.0299 C   0  0  0  0  0  0  0  0  0  0  0  0
  149.6948  140.1877  154.3809 C   0  0  0  0  0  0  0  0  0  0  0  0
  149.2921  141.4712  154.7934 C   0  0  0  0  0  0  0  0  0  0  0  0
  149.9460  142.0894  155.7993 N   0  3  0  0  0  0  0  0  0  0  0  0
  150.9984  141.5486  156.4605 C   0  0  0  0  0  0  0  0  0  0  0  0
  151.5827  142.2989  157.5050 N   0  0  0  0  0  0  0  0  0  0  0  0
  151.4435  143.7523  157.4743 C   0  0  0  0  0  0  0  0  0  0  0  0
  152.4007  144.4079  158.4839 C   0  0  0  0  0  0  0  0  0  0  0  0
  152.1890  143.8521  159.7763 O   0  0  0  0  0  0  0  0  0  0  0  0
  152.4684  142.4570  159.8018 C   0  0  0  0  0  0  0  0  0  0  0  0
  151.5170  141.7182  158.8454 C   0  0  0  0  0  0  0  0  0  0  0  0
  151.4408  140.2583  156.0719 C   0  0  0  0  0  0  0  0  0  0  0  0
  147.4304  133.7830  157.2448 H   0  0  0  0  0  0  0  0  0  0  0  0
  148.7410  134.9533  157.2657 H   0  0  0  0  0  0  0  0  0  0  0  0
  148.8084  133.5762  156.1682 H   0  0  0  0  0  0  0  0  0  0  0  0
  146.7774  135.8643  156.0443 H   0  0  0  0  0  0  0  0  0  0  0  0
  147.1658  133.5036  154.1206 H   0  0  0  0  0  0  0  0  0  0  0  0
  145.7792  133.7499  155.1672 H   0  0  0  0  0  0  0  0  0  0  0  0
  146.0590  135.9664  153.8362 H   0  0  0  0  0  0  0  0  0  0  0  0
  148.4114  135.7426  153.7688 H   0  0  0  0  0  0  0  0  0  0  0  0
  149.9739  136.9500  153.3771 H   0  0  0  0  0  0  0  0  0  0  0  0
  151.8654  137.7550  155.3492 H   0  0  0  0  0  0  0  0  0  0  0  0
  151.8246  138.2585  153.6767 H   0  0  0  0  0  0  0  0  0  0  0  0
  149.1725  139.6879  153.5780 H   0  0  0  0  0  0  0  0  0  0  0  0
  148.4694  142.0172  154.3552 H   0  0  0  0  0  0  0  0  0  0  0  0
  151.6704  144.1351  156.4789 H   0  0  0  0  0  0  0  0  0  0  0  0
  150.4118  144.0204  157.7053 H   0  0  0  0  0  0  0  0  0  0  0  0
  153.4401  144.2687  158.1817 H   0  0  0  0  0  0  0  0  0  0  0  0
  152.2237  145.4827  158.5251 H   0  0  0  0  0  0  0  0  0  0  0  0
  153.5101  142.2778  159.5296 H   0  0  0  0  0  0  0  0  0  0  0  0
  152.3384  142.0876  160.8192 H   0  0  0  0  0  0  0  0  0  0  0  0
  150.4912  141.7902  159.2093 H   0  0  0  0  0  0  0  0  0  0  0  0
  151.7804  140.6607  158.8386 H   0  0  0  0  0  0  0  0  0  0  0  0
  152.2836  139.7941  156.5602 H   0  0  0  0  0  0  0  0  0  0  0  0
  149.6253  143.0160  156.0809 H   0  0  0  0  0  0  0  0  0  0  0  0
  1  2  1  0  0  0  0
  1 22  1  0  0  0  0
  1 23  1  0  0  0  0
  1 24  1  0  0  0  0
  2  3  1  0  0  0  0
  2  5  1  0  0  0  0
  2 25  1  0  0  0  0
  3  4  1  0  0  0  0
  3 26  1  0  0  0  0
  3 27  1  0  0  0  0
  4 28  1  0  0  0  0
  5  6  1  0  0  0  0
  5 29  1  0  0  0  0
  6  7  2  0  0  0  0
  6  8  1  0  0  0  0
  8  9  1  0  0  0  0
  8 30  1  0  0  0  0
  9 10  1  0  0  0  0
  9 31  1  0  0  0  0
  9 32  1  0  0  0  0
 10 21  1  0  0  0  0
 10 11  2  0  0  0  0
 11 12  1  0  0  0  0
 11 33  1  0  0  0  0
 12 13  2  0  0  0  0
 12 34  1  0  0  0  0
 13 14  1  0  0  0  0
 13 44  1  0  0  0  0
 14 15  1  0  0  0  0
 14 21  2  0  0  0  0
 15 20  1  0  0  0  0
 15 16  1  0  0  0  0
 16 17  1  0  0  0  0
 16 35  1  0  0  0  0
 16 36  1  0  0  0  0
 17 18  1  0  0  0  0
 17 37  1  0  0  0  0
 17 38  1  0  0  0  0
 18 19  1  0  0  0  0
 19 20  1  0  0  0  0
 19 39  1  0  0  0  0
 19 40  1  0  0  0  0
 20 41  1  0  0  0  0
 20 42  1  0  0  0  0
 21 43  1  0  0  0  0
M  CHG  1  13   1
M  END
> <s_m_source_file>
AV-unprocessed.smi

> <i_m_source_file_index>
2055

> <i_lp_mmshare_version>
43012

> <i_f3d_flags>
0

> <s_epik_input>
W09IXVtDSDJdW0NAQEhdKFtDSDNdKVtOSF1DKD1PKVtOSF1bQ0gyXWMxW2NIXVtjSF1uYyhbY0hdMSlOMltDSDJdW0NIMl1PW0NIMl1bQ0gyXTI=

> <s_epik_cmdline>
J2VwaWtfcHl0aG9uJywgJy1waCcsICc3LjAnLCAnLXRuJywgJzgnLCAnLW1hJywgJzIwMCcsICctbWV0YWxfYmluZGluZycsICctaW1hZScsICc8aW5maWxlLm1hZT4nLCAnLW9tYWUnLCAnPG91dGZpbGUubWFlPic=

> <r_lp_tautomer_probability>
0.999994

> <r_epik_Ionization_Penalty>
2.3082

> <r_epik_Ionization_Penalty_Charging>
2.30816

> <r_epik_Ionization_Penalty_Neutral>
3.71771e-05

> <r_epik_State_Penalty>
2.45942

> <r_epik_Charging_Adjusted_Penalty>
4.76758

> <i_epik_Tot_Q>
1

> <i_epik_Tot_abs_Q>
1

> <r_epik_Metal_State_Penalty>
2.47143

> <b_epik_Metal_Only>
0

> <s_lp_Force_Field>
OPLS_2005

> <r_lp_Energy>
15.7879

> <b_lp_Chiralities_Consistent>
1

> <s_lp_Variant>
AV-unprocessed.smi:2055-3

> <Gold.Version>
5.8.1

> <Gold.Id.Protein>
6NUR|6NUR_protein|mol2

> <Gold.PLP.Fitness>
47.6641

> <Gold.PLP.PLP>
-36.4519

> <Gold.PLP.part.hbond>
-3.2961

> <Gold.PLP.part.metal>
0.0000

> <Gold.PLP.part.buried>
-1.7214

> <Gold.PLP.part.nonpolar>
-31.7726

> <Gold.PLP.part.repulsive>
0.2597

> <Gold.PLP.ligand.clash>
0.0000

> <Gold.PLP.ligand.torsion>
0.6256

> <Gold.PLP.Chemscore.Hbond>
3.9840

> <Gold.PLP.Chemscore.CHOScore>
0.0000

> <Gold.PLP.Chemscore.Metal>
0.0000

> <Gold.Chemscore.Hbonds>
donor molecule, donor type, donor heavy atom, donor atom, acceptor molecule, acceptor atom, score
      L1  H     5    29       P1  7948  1.00
      L1  H     8    30       P1  7948  0.95
      L1  H    13    44       P1  8028  2.00

> <Gold.PLP.Chemscore.Internal.Correction>
0.5113

> <Gold.Rescore>
     Score         DG    S(hbond)    S(metal)    S(lipo)     H(rot)  DE(clash)    DE(int)     intcor
     16.10     -16.85       2.42        0.00      88.53       2.76       0.11       0.63       ----

> <Gold.Chemscore.Fitness>
16.1023

> <Gold.Chemscore.DG>
-16.8458

> <Gold.Chemscore.ZeroCoef>
-5.4800

> <Gold.Chemscore.Hbond>
2.4199

> <Gold.Chemscore.Metal>
0.0000

> <Gold.Chemscore.Lipo>
88.5322

> <Gold.Chemscore.Internal_Hbond>
0.0000

> <Gold.Chemscore.DEClash>
0.1120

> <Gold.Chemscore.DEInternal>
0.6315

> <Gold.Chemscore.Rot>
2.7636

> <Gold.Chemscore.Internal.Correction>
   9.000000E+99

> <Gold.Chemscore.Hbonds>
donor molecule, donor type, donor heavy atom, donor atom, acceptor molecule, acceptor atom, score
      L1  H     5    29       P1  7948  0.91
      L1  H     8    30       P1  7948  0.21
      L1  H    13    44       P1  8028  0.95

> <Gold.Chemscore.Hbond.Weighted>
-8.0825

> <Gold.Chemscore.Metal.Weighted>
-0.0000

> <Gold.Chemscore.Lipo.Weighted>
-10.3583

> <Gold.Chemscore.Internal_Hbond.Weighted>
0.0000

> <Gold.Chemscore.DEClash.Weighted>
0.1120

> <Gold.Chemscore.DEInternal.Weighted>
0.6315

> <Gold.Chemscore.Rot.Weighted>
7.0749

> <Gold.Chemscore.Internal.Correction.Weighted>
   9.000000E+99

> <Gold.Protein.RotatedTorsions>
[ 6907 6896 6895 6894 ] final  -73.90 input  -60.11 | X-H torsion
[ 7974 7965 7964 7962 ] final  156.54 input  175.53 | X-H torsion
[ 8008 7997 7996 7995 ] final  149.03 input   59.86 | X-H torsion
[ 10167 10162 10161 10158 ] final   47.20 input  -65.29 | X-H torsion
[ 10718 10713 10712 10709 ] final -163.56 input   66.30 | X-H torsion
[ 10763 10752 10751 10750 ] final  161.04 input  -60.55 | X-H torsion
[ 11005 11000 10999 10996 ] final -143.40 input  -57.11 | X-H torsion

> <Gold.Protein.ActiveResidues>
 VAL166  LYS551  ARG553  GLY616  TRP617  ASP618  TYR619  PRO620  LYS621  CYS622 
 ASP623  PHE694  ASN695  SER759  ASP760  ASP761  ALA762  ILE779  LEU786  VAL792 
 PHE793  MET794  SER795  GLU796  ALA797  LYS798  CYS799  TRP800  GLU811  SER814 

> <Gold.Protein.RotatedAtoms>
  150.7113  134.4949  159.5533 H   0  0  0  0  0  0  0  0  0  0  0  0  # atno 6907 bound_to 6896
  152.2559  134.8082  160.0447 H   0  0  0  0  0  0  0  0  0  0  0  0  # atno 6908 bound_to 6896
  151.8813  133.3461  159.3804 H   0  0  0  0  0  0  0  0  0  0  0  0  # atno 6909 bound_to 6896
  144.7957  139.7218  143.6203 H   0  0  0  0  0  0  0  0  0  0  0  0  # atno 7974 bound_to 7965
  156.2770  140.2113  156.5793 H   0  0  0  0  0  0  0  0  0  0  0  0  # atno 8008 bound_to 7997
  154.7072  140.0515  157.0538 H   0  0  0  0  0  0  0  0  0  0  0  0  # atno 8009 bound_to 7997
  155.0655  140.3171  155.4650 H   0  0  0  0  0  0  0  0  0  0  0  0  # atno 8010 bound_to 7997
  140.3060  144.2877  150.6209 H   0  0  0  0  0  0  0  0  0  0  0  0  # atno 10167 bound_to 10162
  156.6264  130.8912  151.2968 H   0  0  0  0  0  0  0  0  0  0  0  0  # atno 10718 bound_to 10713
  154.2568  135.2769  155.2794 H   0  0  0  0  0  0  0  0  0  0  0  0  # atno 10763 bound_to 10752
  154.5418  135.5700  153.6849 H   0  0  0  0  0  0  0  0  0  0  0  0  # atno 10764 bound_to 10752
  152.9970  135.6253  154.2717 H   0  0  0  0  0  0  0  0  0  0  0  0  # atno 10765 bound_to 10752
  140.8129  134.2723  157.4933 H   0  0  0  0  0  0  0  0  0  0  0  0  # atno 11005 bound_to 11000
  146.2224  139.5660  142.9610 LP  0  0  0  0  0  0  0  0  0  0  0  0  # atno 17320 bound_to 7965
  145.5680  141.0397  143.2189 LP  0  0  0  0  0  0  0  0  0  0  0  0  # atno 17321 bound_to 7965
  140.5609  143.2192  151.7766 LP  0  0  0  0  0  0  0  0  0  0  0  0  # atno 17342 bound_to 10162
  139.4904  144.4349  151.9830 LP  0  0  0  0  0  0  0  0  0  0  0  0  # atno 17343 bound_to 10162
  157.7213  130.9562  150.1449 LP  0  0  0  0  0  0  0  0  0  0  0  0  # atno 17370 bound_to 10713
  156.2270  130.3679  149.8489 LP  0  0  0  0  0  0  0  0  0  0  0  0  # atno 17371 bound_to 10713
  139.8713  134.9493  156.4021 LP  0  0  0  0  0  0  0  0  0  0  0  0  # atno 17394 bound_to 11000
  140.9179  133.7665  155.9871 LP  0  0  0  0  0  0  0  0  0  0  0  0  # atno 17395 bound_to 11000

$$$$
