AV-unprocessed.smi:1235|AV-procd|sdf|5176|dock4
  -GOLD-   22720 4253D 1   1.00000     0.00000
 Structure written by MMmdl.
 50 51  0  0  0  0  0  0  0  0  2 V2000
  152.4375  144.8548  159.5137 C   0  0  0  0  0  0  0  0  0  0  0  0
  152.8465  143.8872  158.5628 O   0  0  0  0  0  0  0  0  0  0  0  0
  151.8264  143.5802  157.6277 C   0  0  0  0  0  0  0  0  0  0  0  0
  151.1593  142.2584  158.0370 C   0  0  0  0  0  0  0  0  0  0  0  0
  150.9246  141.3916  156.8780 N   0  0  0  0  0  0  0  0  0  0  0  0
  149.8379  141.7655  156.1056 N   0  0  0  0  0  0  0  0  0  0  0  0
  149.5214  141.0819  155.0535 C   0  0  0  0  0  0  0  0  0  0  0  0
  148.3612  141.4546  154.1967 C   0  0  0  0  0  0  0  0  0  0  0  0
  147.7840  142.5367  154.3130 O   0  0  0  0  0  0  0  0  0  0  0  0
  147.9929  140.5292  153.2941 N   0  0  0  0  0  0  0  0  0  0  0  0
  146.8853  140.6761  152.3607 C   0  0  0  0  0  0  0  0  0  0  0  0
  146.3849  139.2935  151.9093 C   0  0  0  0  0  0  0  0  0  0  0  0
  145.2527  138.7751  152.7243 N   0  3  1  0  0  0  0  0  0  0  0  0
  144.7331  137.4859  152.1924 C   0  0  0  0  0  0  0  0  0  0  0  0
  143.4348  137.0670  152.9000 C   0  0  0  0  0  0  0  0  0  0  0  0
  143.6362  136.9879  154.4169 C   0  0  0  0  0  0  0  0  0  0  0  0
  144.1877  138.3219  154.9381 C   0  0  0  0  0  0  0  0  0  0  0  0
  145.4776  138.7481  154.2047 C   0  0  1  0  0  0  0  0  0  0  0  0
  146.6973  137.9030  154.6317 C   0  0  0  0  0  0  0  0  0  0  0  0
  150.2933  139.9138  154.6650 C   0  0  0  0  0  0  0  0  0  0  0  0
  151.3471  139.5576  155.4321 C   0  0  0  0  0  0  0  0  0  0  0  0
  151.7251  140.3118  156.6285 C   0  0  0  0  0  0  0  0  0  0  0  0
  152.6745  140.0022  157.3476 O   0  0  0  0  0  0  0  0  0  0  0  0
  153.2562  145.0593  160.2038 H   0  0  0  0  0  0  0  0  0  0  0  0
  151.5864  144.5000  160.0965 H   0  0  0  0  0  0  0  0  0  0  0  0
  152.1638  145.7931  159.0294 H   0  0  0  0  0  0  0  0  0  0  0  0
  151.0906  144.3855  157.6018 H   0  0  0  0  0  0  0  0  0  0  0  0
  152.2541  143.4909  156.6275 H   0  0  0  0  0  0  0  0  0  0  0  0
  151.7924  141.7437  158.7623 H   0  0  0  0  0  0  0  0  0  0  0  0
  150.2228  142.4579  158.5608 H   0  0  0  0  0  0  0  0  0  0  0  0
  148.5164  139.6659  153.2610 H   0  0  0  0  0  0  0  0  0  0  0  0
  146.0978  141.2372  152.8636 H   0  0  0  0  0  0  0  0  0  0  0  0
  147.2038  141.2600  151.4953 H   0  0  0  0  0  0  0  0  0  0  0  0
  146.0470  139.3836  150.8758 H   0  0  0  0  0  0  0  0  0  0  0  0
  147.2025  138.5724  151.8934 H   0  0  0  0  0  0  0  0  0  0  0  0
  144.5328  137.5845  151.1249 H   0  0  0  0  0  0  0  0  0  0  0  0
  145.4894  136.7069  152.2940 H   0  0  0  0  0  0  0  0  0  0  0  0
  142.6453  137.7844  152.6721 H   0  0  0  0  0  0  0  0  0  0  0  0
  143.0963  136.1032  152.5184 H   0  0  0  0  0  0  0  0  0  0  0  0
  142.6921  136.7542  154.9097 H   0  0  0  0  0  0  0  0  0  0  0  0
  144.3217  136.1755  154.6600 H   0  0  0  0  0  0  0  0  0  0  0  0
  143.4292  139.0944  154.8035 H   0  0  0  0  0  0  0  0  0  0  0  0
  144.3650  138.2589  156.0123 H   0  0  0  0  0  0  0  0  0  0  0  0
  145.6727  139.7693  154.5294 H   0  0  0  0  0  0  0  0  0  0  0  0
  146.8003  137.8995  155.7171 H   0  0  0  0  0  0  0  0  0  0  0  0
  147.6283  138.3044  154.2328 H   0  0  0  0  0  0  0  0  0  0  0  0
  146.6166  136.8646  154.3118 H   0  0  0  0  0  0  0  0  0  0  0  0
  150.0369  139.3383  153.7873 H   0  0  0  0  0  0  0  0  0  0  0  0
  151.9296  138.6908  155.1561 H   0  0  0  0  0  0  0  0  0  0  0  0
  144.5016  139.4358  152.5836 H   0  0  0  0  0  0  0  0  0  0  0  0
  1  2  1  0  0  0  0
  1 24  1  0  0  0  0
  1 25  1  0  0  0  0
  1 26  1  0  0  0  0
  2  3  1  0  0  0  0
  3  4  1  0  0  0  0
  3 27  1  0  0  0  0
  3 28  1  0  0  0  0
  4  5  1  0  0  0  0
  4 29  1  0  0  0  0
  4 30  1  0  0  0  0
  5 22  1  0  0  0  0
  5  6  1  0  0  0  0
  6  7  2  0  0  0  0
  7  8  1  0  0  0  0
  7 20  1  0  0  0  0
  8  9  2  0  0  0  0
  8 10  1  0  0  0  0
 10 11  1  0  0  0  0
 10 31  1  0  0  0  0
 11 12  1  0  0  0  0
 11 32  1  0  0  0  0
 11 33  1  0  0  0  0
 12 13  1  0  0  0  0
 12 34  1  0  0  0  0
 12 35  1  0  0  0  0
 13 18  1  0  0  0  0
 13 14  1  0  0  0  0
 13 50  1  0  0  0  0
 14 15  1  0  0  0  0
 14 36  1  0  0  0  0
 14 37  1  0  0  0  0
 15 16  1  0  0  0  0
 15 38  1  0  0  0  0
 15 39  1  0  0  0  0
 16 17  1  0  0  0  0
 16 40  1  0  0  0  0
 16 41  1  0  0  0  0
 17 18  1  0  0  0  0
 17 42  1  0  0  0  0
 17 43  1  0  0  0  0
 18 19  1  0  0  0  0
 18 44  1  0  0  0  0
 19 45  1  0  0  0  0
 19 46  1  0  0  0  0
 19 47  1  0  0  0  0
 20 21  2  0  0  0  0
 20 48  1  0  0  0  0
 21 22  1  0  0  0  0
 21 49  1  0  0  0  0
 22 23  2  0  0  0  0
M  CHG  1  13   1
M  END
> <s_m_source_file>
AV-unprocessed.smi

> <i_m_source_file_index>
1235

> <i_lp_mmshare_version>
43012

> <i_f3d_flags>
0

> <s_epik_input>
W0NIM11PW0NIMl1bQ0gyXW4xbmMoW2NIXVtjSF1jMT1PKUMoPU8pW05IXVtDSDJdW0NIMl1OMltDSDJdW0NIMl1bQ0gyXVtDSDJdW0NASF0yW0NIM10=

> <s_epik_cmdline>
J2VwaWtfcHl0aG9uJywgJy1waCcsICc3LjAnLCAnLXRuJywgJzgnLCAnLW1hJywgJzIwMCcsICctbWV0YWxfYmluZGluZycsICctaW1hZScsICc8aW5maWxlLm1hZT4nLCAnLW9tYWUnLCAnPG91dGZpbGUubWFlPic=

> <r_lp_tautomer_probability>
1

> <r_epik_Ionization_Penalty>
0.00271975

> <r_epik_Ionization_Penalty_Charging>
0.00271407

> <r_epik_Ionization_Penalty_Neutral>
5.6803e-06

> <r_epik_State_Penalty>
0.00189271

> <r_epik_Charging_Adjusted_Penalty>
0.00460678

> <i_epik_Tot_Q>
1

> <i_epik_Tot_abs_Q>
1

> <r_epik_Metal_State_Penalty>
-0

> <b_epik_Metal_Only>
0

> <s_lp_Force_Field>
OPLS_2005

> <r_lp_Energy>
41.7034

> <b_lp_Chiralities_Consistent>
1

> <s_lp_Variant>
AV-unprocessed.smi:1235-2

> <Gold.Version>
5.8.1

> <Gold.Id.Protein>
6NUR|6NUR_protein|mol2

> <Gold.PLP.Fitness>
47.8778

> <Gold.PLP.PLP>
-41.4172

> <Gold.PLP.part.hbond>
-3.2804

> <Gold.PLP.part.metal>
0.0000

> <Gold.PLP.part.buried>
-2.3992

> <Gold.PLP.part.nonpolar>
-36.5664

> <Gold.PLP.part.repulsive>
0.3986

> <Gold.PLP.ligand.clash>
0.0825

> <Gold.PLP.ligand.torsion>
1.2816

> <Gold.PLP.Chemscore.Hbond>
3.0000

> <Gold.PLP.Chemscore.CHOScore>
0.0000

> <Gold.PLP.Chemscore.Metal>
0.0000

> <Gold.Chemscore.Hbonds>
donor molecule, donor type, donor heavy atom, donor atom, acceptor molecule, acceptor atom, score
      L1  H    13    50       P1 10175  0.94
      P1  H  7997  8010       L1    23  1.00

> <Gold.PLP.Chemscore.Internal.Correction>
0.1063

> <Gold.Rescore>
     Score         DG    S(hbond)    S(metal)    S(lipo)     H(rot)  DE(clash)    DE(int)     intcor
     14.44     -16.56       1.92        0.00      83.60       2.00       1.08       1.04       ----

> <Gold.Chemscore.Fitness>
14.4413

> <Gold.Chemscore.DG>
-16.5573

> <Gold.Chemscore.ZeroCoef>
-5.4800

> <Gold.Chemscore.Hbond>
1.9224

> <Gold.Chemscore.Metal>
0.0000

> <Gold.Chemscore.Lipo>
83.6049

> <Gold.Chemscore.Internal_Hbond>
0.0000

> <Gold.Chemscore.DEClash>
1.0797

> <Gold.Chemscore.DEInternal>
1.0363

> <Gold.Chemscore.Rot>
2.0020

> <Gold.Chemscore.Internal.Correction>
   9.000000E+99

> <Gold.Chemscore.Hbonds>
donor molecule, donor type, donor heavy atom, donor atom, acceptor molecule, acceptor atom, score
      L1  H    13    50       P1 10175  0.48
      P1  H  7997  8010       L1    23  0.98
      P1  H  8022  8030       L1     9  0.03

> <Gold.Chemscore.Hbond.Weighted>
-6.4207

> <Gold.Chemscore.Metal.Weighted>
-0.0000

> <Gold.Chemscore.Lipo.Weighted>
-9.7818

> <Gold.Chemscore.Internal_Hbond.Weighted>
0.0000

> <Gold.Chemscore.DEClash.Weighted>
1.0797

> <Gold.Chemscore.DEInternal.Weighted>
1.0363

> <Gold.Chemscore.Rot.Weighted>
5.1252

> <Gold.Chemscore.Internal.Correction.Weighted>
   9.000000E+99

> <Gold.Protein.RotatedTorsions>
[ 6907 6896 6895 6894 ] final -114.49 input  -60.11 | X-H torsion
[ 7974 7965 7964 7962 ] final   49.36 input  175.53 | X-H torsion
[ 8008 7997 7996 7995 ] final   53.41 input   59.86 | X-H torsion
[ 10167 10162 10161 10158 ] final -179.66 input  -65.29 | X-H torsion
[ 10718 10713 10712 10709 ] final   -0.06 input   66.30 | X-H torsion
[ 10763 10752 10751 10750 ] final -131.93 input  -60.55 | X-H torsion
[ 11005 11000 10999 10996 ] final  -52.60 input  -57.11 | X-H torsion

> <Gold.Protein.ActiveResidues>
 VAL166  LYS551  ARG553  GLY616  TRP617  ASP618  TYR619  PRO620  LYS621  CYS622 
 ASP623  PHE694  ASN695  SER759  ASP760  ASP761  ALA762  ILE779  LEU786  VAL792 
 PHE793  MET794  SER795  GLU796  ALA797  LYS798  CYS799  TRP800  GLU811  SER814 

> <Gold.Protein.RotatedAtoms>
  150.7906  133.8793  159.3281 H   0  0  0  0  0  0  0  0  0  0  0  0  # atno 6907 bound_to 6896
  151.6632  135.0984  160.0193 H   0  0  0  0  0  0  0  0  0  0  0  0  # atno 6908 bound_to 6896
  152.3979  133.6736  159.6327 H   0  0  0  0  0  0  0  0  0  0  0  0  # atno 6909 bound_to 6896
  146.0116  139.4550  142.9952 H   0  0  0  0  0  0  0  0  0  0  0  0  # atno 7974 bound_to 7965
  155.4677  140.3464  155.4321 H   0  0  0  0  0  0  0  0  0  0  0  0  # atno 8008 bound_to 7997
  156.1120  140.1463  156.9354 H   0  0  0  0  0  0  0  0  0  0  0  0  # atno 8009 bound_to 7997
  154.4763  140.0884  156.7248 H   0  0  0  0  0  0  0  0  0  0  0  0  # atno 8010 bound_to 7997
  139.5376  144.2453  152.0827 H   0  0  0  0  0  0  0  0  0  0  0  0  # atno 10167 bound_to 10162
  156.8259  130.5472  149.5692 H   0  0  0  0  0  0  0  0  0  0  0  0  # atno 10718 bound_to 10713
  154.8747  135.3814  154.4327 H   0  0  0  0  0  0  0  0  0  0  0  0  # atno 10763 bound_to 10752
  153.5019  135.7030  153.5832 H   0  0  0  0  0  0  0  0  0  0  0  0  # atno 10764 bound_to 10752
  153.4160  135.3913  155.2047 H   0  0  0  0  0  0  0  0  0  0  0  0  # atno 10765 bound_to 10752
  141.0933  133.6629  156.4049 H   0  0  0  0  0  0  0  0  0  0  0  0  # atno 11005 bound_to 11000
  145.7333  141.0034  143.1340 LP  0  0  0  0  0  0  0  0  0  0  0  0  # atno 17320 bound_to 7965
  144.6955  139.9010  143.7458 LP  0  0  0  0  0  0  0  0  0  0  0  0  # atno 17321 bound_to 7965
  140.1926  144.4736  150.6471 LP  0  0  0  0  0  0  0  0  0  0  0  0  # atno 17342 bound_to 10162
  140.6590  143.2246  151.5900 LP  0  0  0  0  0  0  0  0  0  0  0  0  # atno 17343 bound_to 10162
  156.0962  130.5934  150.9817 LP  0  0  0  0  0  0  0  0  0  0  0  0  # atno 17370 bound_to 10713
  157.6432  131.0907  150.8208 LP  0  0  0  0  0  0  0  0  0  0  0  0  # atno 17371 bound_to 10713
  140.5200  134.6313  157.5315 LP  0  0  0  0  0  0  0  0  0  0  0  0  # atno 17394 bound_to 11000
  139.9764  134.7209  155.9943 LP  0  0  0  0  0  0  0  0  0  0  0  0  # atno 17395 bound_to 11000

$$$$
