AV-unprocessed.smi:2245|AV-procd|sdf|9078|dock5
  -GOLD-   2272012283D 1   1.00000     0.00000
 Structure written by MMmdl.
 45 46  0  0  0  0  0  0  0  0  2 V2000
  152.8872  143.1378  161.7505 C   0  0  0  0  0  0  0  0  0  0  0  0
  153.1431  142.1096  160.6688 C   0  0  0  0  0  0  0  0  0  0  0  0
  154.3236  141.3422  160.6681 C   0  0  0  0  0  0  0  0  0  0  0  0
  154.5027  140.3986  159.6377 C   0  0  0  0  0  0  0  0  0  0  0  0
  155.7479  139.5392  159.5752 C   0  0  0  0  0  0  0  0  0  0  0  0
  153.5965  140.1979  158.6571 N   0  0  0  0  0  0  0  0  0  0  0  0
  152.4558  140.9315  158.6473 C   0  0  0  0  0  0  0  0  0  0  0  0
  151.4408  140.7959  157.6631 N   0  0  0  0  0  0  0  0  0  0  0  0
  151.5665  140.3685  156.3944 C   0  0  0  0  0  0  0  0  0  0  0  0
  152.6217  140.0351  155.8542 O   0  0  0  0  0  0  0  0  0  0  0  0
  150.3792  140.3386  155.7716 N   0  0  0  0  0  0  0  0  0  0  0  0
  150.1659  139.9142  154.3915 C   0  0  0  0  0  0  0  0  0  0  0  0
  149.6100  138.4791  154.2979 C   0  0  2  0  0  0  0  0  0  0  0  0
  148.5727  138.1411  155.3672 C   0  0  0  0  0  0  0  0  0  0  0  0
  148.6141  136.6105  155.4759 C   0  0  0  0  0  0  0  0  0  0  0  0
  149.8580  136.1647  154.8027 N   0  3  2  0  0  0  0  0  0  0  0  0
  150.6207  135.1042  155.5044 C   0  0  0  0  0  0  0  0  0  0  0  0
  149.9623  133.7194  155.3760 C   0  0  0  0  0  0  0  0  0  0  0  0
  149.6594  133.4991  154.0976 F   0  0  0  0  0  0  0  0  0  0  0  0
  150.7830  132.7539  155.7887 F   0  0  0  0  0  0  0  0  0  0  0  0
  148.8404  133.6792  156.0945 F   0  0  0  0  0  0  0  0  0  0  0  0
  150.6471  137.3735  154.4942 C   0  0  0  0  0  0  0  0  0  0  0  0
  152.1981  141.8993  159.6441 C   0  0  0  0  0  0  0  0  0  0  0  0
  153.8098  143.4005  162.2691 H   0  0  0  0  0  0  0  0  0  0  0  0
  152.1813  142.7452  162.4827 H   0  0  0  0  0  0  0  0  0  0  0  0
  152.4683  144.0484  161.3217 H   0  0  0  0  0  0  0  0  0  0  0  0
  155.0711  141.4729  161.4372 H   0  0  0  0  0  0  0  0  0  0  0  0
  156.4417  139.7878  160.3787 H   0  0  0  0  0  0  0  0  0  0  0  0
  156.2623  139.6845  158.6247 H   0  0  0  0  0  0  0  0  0  0  0  0
  155.4852  138.4848  159.6665 H   0  0  0  0  0  0  0  0  0  0  0  0
  150.5102  141.0430  157.9651 H   0  0  0  0  0  0  0  0  0  0  0  0
  149.5644  140.6379  156.2874 H   0  0  0  0  0  0  0  0  0  0  0  0
  149.4716  140.6168  153.9294 H   0  0  0  0  0  0  0  0  0  0  0  0
  151.1010  139.9942  153.8346 H   0  0  0  0  0  0  0  0  0  0  0  0
  149.1415  138.3364  153.3225 H   0  0  0  0  0  0  0  0  0  0  0  0
  148.8632  138.5797  156.3231 H   0  0  0  0  0  0  0  0  0  0  0  0
  147.5793  138.5166  155.1194 H   0  0  0  0  0  0  0  0  0  0  0  0
  148.5789  136.3057  156.5227 H   0  0  0  0  0  0  0  0  0  0  0  0
  147.7609  136.1574  154.9702 H   0  0  0  0  0  0  0  0  0  0  0  0
  151.6164  135.0511  155.0614 H   0  0  0  0  0  0  0  0  0  0  0  0
  150.7627  135.3729  156.5523 H   0  0  0  0  0  0  0  0  0  0  0  0
  151.2748  137.2253  153.6149 H   0  0  0  0  0  0  0  0  0  0  0  0
  151.2961  137.6158  155.3380 H   0  0  0  0  0  0  0  0  0  0  0  0
  151.2846  142.4763  159.6262 H   0  0  0  0  0  0  0  0  0  0  0  0
  149.5762  135.7863  153.9094 H   0  0  0  0  0  0  0  0  0  0  0  0
  1  2  1  0  0  0  0
  1 24  1  0  0  0  0
  1 25  1  0  0  0  0
  1 26  1  0  0  0  0
  2 23  1  0  0  0  0
  2  3  2  0  0  0  0
  3  4  1  0  0  0  0
  3 27  1  0  0  0  0
  4  5  1  0  0  0  0
  4  6  2  0  0  0  0
  5 28  1  0  0  0  0
  5 29  1  0  0  0  0
  5 30  1  0  0  0  0
  6  7  1  0  0  0  0
  7  8  1  0  0  0  0
  7 23  2  0  0  0  0
  8  9  1  0  0  0  0
  8 31  1  0  0  0  0
  9 10  2  0  0  0  0
  9 11  1  0  0  0  0
 11 12  1  0  0  0  0
 11 32  1  0  0  0  0
 12 13  1  0  0  0  0
 12 33  1  0  0  0  0
 12 34  1  0  0  0  0
 13 22  1  0  0  0  0
 13 14  1  0  0  0  0
 13 35  1  0  0  0  0
 14 15  1  0  0  0  0
 14 36  1  0  0  0  0
 14 37  1  0  0  0  0
 15 16  1  0  0  0  0
 15 38  1  0  0  0  0
 15 39  1  0  0  0  0
 16 17  1  0  0  0  0
 16 22  1  0  0  0  0
 16 45  1  0  0  0  0
 17 18  1  0  0  0  0
 17 40  1  0  0  0  0
 17 41  1  0  0  0  0
 18 19  1  0  0  0  0
 18 20  1  0  0  0  0
 18 21  1  0  0  0  0
 22 42  1  0  0  0  0
 22 43  1  0  0  0  0
 23 44  1  0  0  0  0
M  CHG  1  16   1
M  END
> <s_m_source_file>
AV-unprocessed.smi

> <i_m_source_file_index>
2245

> <i_lp_mmshare_version>
43012

> <i_f3d_flags>
0

> <s_epik_input>
W0NIM11jMVtjSF1jKFtDSDNdKW5jKFtjSF0xKVtOSF1DKD1PKVtOSF1bQ0gyXVtDQEBIXTJbQ0gyXVtDSDJdTihbQ0gyXTIpW0NIMl1DKEYpKEYpRg==

> <s_epik_cmdline>
J2VwaWtfcHl0aG9uJywgJy1waCcsICc3LjAnLCAnLXRuJywgJzgnLCAnLW1hJywgJzIwMCcsICctbWV0YWxfYmluZGluZycsICctaW1hZScsICc8aW5maWxlLm1hZT4nLCAnLW9tYWUnLCAnPG91dGZpbGUubWFlPic=

> <r_epik_Ionization_Penalty>
0.628315

> <r_epik_Ionization_Penalty_Charging>
0.628113

> <r_epik_Ionization_Penalty_Neutral>
0.000202271

> <r_epik_State_Penalty>
0.644725

> <r_epik_Charging_Adjusted_Penalty>
1.27284

> <i_epik_Tot_Q>
1

> <i_epik_Tot_abs_Q>
1

> <r_epik_Metal_State_Penalty>
0.644752

> <b_epik_Metal_Only>
0

> <s_lp_Force_Field>
OPLS_2005

> <r_lp_Energy>
28.9213

> <b_lp_Chiralities_Consistent>
1

> <s_lp_Variant>
AV-unprocessed.smi:2245-3

> <Gold.Version>
5.8.1

> <Gold.Id.Protein>
6NUR|6NUR_protein|mol2

> <Gold.PLP.Fitness>
48.5366

> <Gold.PLP.PLP>
-40.4504

> <Gold.PLP.part.hbond>
-3.0000

> <Gold.PLP.part.metal>
0.0000

> <Gold.PLP.part.buried>
-1.1648

> <Gold.PLP.part.nonpolar>
-35.9895

> <Gold.PLP.part.repulsive>
0.1803

> <Gold.PLP.ligand.clash>
0.0000

> <Gold.PLP.ligand.torsion>
0.7028

> <Gold.PLP.Chemscore.Hbond>
3.0000

> <Gold.PLP.Chemscore.CHOScore>
0.0000

> <Gold.PLP.Chemscore.Metal>
0.0000

> <Gold.Chemscore.Hbonds>
donor molecule, donor type, donor heavy atom, donor atom, acceptor molecule, acceptor atom, score
      L1  H    16    45       P1  7948  1.30
      P1  H  7997  8010       L1    10  1.00

> <Gold.PLP.Chemscore.Internal.Correction>
0.4919

> <Gold.Rescore>
     Score         DG    S(hbond)    S(metal)    S(lipo)     H(rot)  DE(clash)    DE(int)     intcor
     15.73     -17.45       1.86        0.00      84.66       1.61       0.20       1.52       ----

> <Gold.Chemscore.Fitness>
15.7259

> <Gold.Chemscore.DG>
-17.4529

> <Gold.Chemscore.ZeroCoef>
-5.4800

> <Gold.Chemscore.Hbond>
1.8565

> <Gold.Chemscore.Metal>
0.0000

> <Gold.Chemscore.Lipo>
84.6553

> <Gold.Chemscore.Internal_Hbond>
0.0000

> <Gold.Chemscore.DEClash>
0.2031

> <Gold.Chemscore.DEInternal>
1.5239

> <Gold.Chemscore.Rot>
1.6143

> <Gold.Chemscore.Internal.Correction>
   9.000000E+99

> <Gold.Chemscore.Hbonds>
donor molecule, donor type, donor heavy atom, donor atom, acceptor molecule, acceptor atom, score
      L1  H    16    45       P1  7948  0.25
      P1  H  7997  8010       L1    10  1.00

> <Gold.Chemscore.Hbond.Weighted>
-6.2007

> <Gold.Chemscore.Metal.Weighted>
-0.0000

> <Gold.Chemscore.Lipo.Weighted>
-9.9047

> <Gold.Chemscore.Internal_Hbond.Weighted>
0.0000

> <Gold.Chemscore.DEClash.Weighted>
0.2031

> <Gold.Chemscore.DEInternal.Weighted>
1.5239

> <Gold.Chemscore.Rot.Weighted>
4.1325

> <Gold.Chemscore.Internal.Correction.Weighted>
   9.000000E+99

> <Gold.Protein.RotatedTorsions>
[ 6907 6896 6895 6894 ] final -105.25 input  -60.11 | X-H torsion
[ 7974 7965 7964 7962 ] final   72.77 input  175.53 | X-H torsion
[ 8008 7997 7996 7995 ] final   91.59 input   59.86 | X-H torsion
[ 10167 10162 10161 10158 ] final  104.82 input  -65.29 | X-H torsion
[ 10718 10713 10712 10709 ] final  -59.08 input   66.30 | X-H torsion
[ 10763 10752 10751 10750 ] final  -77.10 input  -60.55 | X-H torsion
[ 11005 11000 10999 10996 ] final  126.49 input  -57.11 | X-H torsion

> <Gold.Protein.ActiveResidues>
 VAL166  LYS551  ARG553  GLY616  TRP617  ASP618  TYR619  PRO620  LYS621  CYS622 
 ASP623  PHE694  ASN695  SER759  ASP760  ASP761  ALA762  ILE779  LEU786  VAL792 
 PHE793  MET794  SER795  GLU796  ALA797  LYS798  CYS799  TRP800  GLU811  SER814 

> <Gold.Protein.RotatedAtoms>
  150.7327  134.0155  159.3683 H   0  0  0  0  0  0  0  0  0  0  0  0  # atno 6907 bound_to 6896
  151.8117  135.0676  160.0423 H   0  0  0  0  0  0  0  0  0  0  0  0  # atno 6908 bound_to 6896
  152.3068  133.5675  159.5691 H   0  0  0  0  0  0  0  0  0  0  0  0  # atno 6909 bound_to 6896
  145.7492  139.2753  143.1441 H   0  0  0  0  0  0  0  0  0  0  0  0  # atno 7974 bound_to 7965
  156.0255  140.3336  155.7084 H   0  0  0  0  0  0  0  0  0  0  0  0  # atno 8008 bound_to 7997
  155.5960  140.0651  157.2763 H   0  0  0  0  0  0  0  0  0  0  0  0  # atno 8009 bound_to 7997
  154.4332  140.1818  156.1112 H   0  0  0  0  0  0  0  0  0  0  0  0  # atno 8010 bound_to 7997
  139.7145  144.7071  151.0973 H   0  0  0  0  0  0  0  0  0  0  0  0  # atno 10167 bound_to 10162
  156.1088  130.4177  150.0666 H   0  0  0  0  0  0  0  0  0  0  0  0  # atno 10718 bound_to 10713
  154.5085  135.5775  153.6586 H   0  0  0  0  0  0  0  0  0  0  0  0  # atno 10763 bound_to 10752
  152.9892  135.6153  154.2910 H   0  0  0  0  0  0  0  0  0  0  0  0  # atno 10764 bound_to 10752
  154.2823  135.2850  155.2671 H   0  0  0  0  0  0  0  0  0  0  0  0  # atno 10765 bound_to 10752
  139.9458  134.9630  156.8714 H   0  0  0  0  0  0  0  0  0  0  0  0  # atno 11005 bound_to 11000
  146.0373  140.8200  142.9846 LP  0  0  0  0  0  0  0  0  0  0  0  0  # atno 17320 bound_to 7965
  144.6853  140.2857  143.7285 LP  0  0  0  0  0  0  0  0  0  0  0  0  # atno 17321 bound_to 7965
  140.7740  143.5249  150.9493 LP  0  0  0  0  0  0  0  0  0  0  0  0  # atno 17342 bound_to 10162
  139.8934  143.6925  152.3142 LP  0  0  0  0  0  0  0  0  0  0  0  0  # atno 17343 bound_to 10162
  156.8635  130.9499  151.3616 LP  0  0  0  0  0  0  0  0  0  0  0  0  # atno 17370 bound_to 10713
  157.6267  130.8697  149.9202 LP  0  0  0  0  0  0  0  0  0  0  0  0  # atno 17371 bound_to 10713
  140.5837  134.0327  155.7473 LP  0  0  0  0  0  0  0  0  0  0  0  0  # atno 17394 bound_to 11000
  141.1108  133.9619  157.2913 LP  0  0  0  0  0  0  0  0  0  0  0  0  # atno 17395 bound_to 11000

$$$$
