AV-unprocessed.smi:171|AV-procd|sdf|1420|dock2
  -GOLD-   2262019183D 1   1.00000     0.00000
 Structure written by MMmdl.
 56 59  0  0  0  0  0  0  0  0  1 V2000
  151.3748  143.5091  158.3889 C   0  0  0  0  0  0  0  0  0  0  0  0
  150.7821  142.1072  158.1778 C   0  0  0  0  0  0  0  0  0  0  0  0
  151.6076  141.0601  158.9426 C   0  0  0  0  0  0  0  0  0  0  0  0
  150.6510  141.7937  156.6701 C   0  0  0  0  0  0  0  0  0  0  0  0
  149.8956  140.4767  156.3355 C   0  0  2  0  0  0  0  0  0  0  0  0
  150.1279  140.0563  154.8622 C   0  0  0  0  0  0  0  0  0  0  0  0
  151.2176  139.6032  154.5199 O   0  0  0  0  0  0  0  0  0  0  0  0
  149.1245  140.1893  153.9758 N   0  0  0  0  0  0  0  0  0  0  0  0
  147.7815  140.6895  154.2679 C   0  0  0  0  0  0  0  0  0  0  0  0
  147.6904  141.3918  155.6336 C   0  0  0  0  0  0  0  0  0  0  0  0
  148.4643  140.6563  156.6303 N   0  0  0  0  0  0  0  0  0  0  0  0
  147.7853  139.6493  157.2389 C   0  0  0  0  0  0  0  0  0  0  0  0
  146.4291  139.5905  157.1592 N   0  0  0  0  0  0  0  0  0  0  0  0
  145.7596  138.6089  157.7704 C   0  0  0  0  0  0  0  0  0  0  0  0
  146.2393  137.6019  158.5026 N   0  0  0  0  0  0  0  0  0  0  0  0
  147.5994  137.6566  158.5882 C   0  0  0  0  0  0  0  0  0  0  0  0
  148.4419  138.6365  157.9917 C   0  0  0  0  0  0  0  0  0  0  0  0
  149.7718  138.3611  158.2860 N   0  0  0  0  0  0  0  0  0  0  0  0
  149.7182  137.2821  159.0182 C   0  0  0  0  0  0  0  0  0  0  0  0
  148.4523  136.7956  159.2567 N   0  0  0  0  0  0  0  0  0  0  0  0
  148.1021  135.6178  160.0360 C   0  0  0  0  0  0  0  0  0  0  0  0
  147.3003  135.9444  161.3234 C   0  0  2  0  0  0  0  0  0  0  0  0
  146.0822  136.5599  160.9396 O   0  0  0  0  0  0  0  0  0  0  0  0
  148.0266  136.9000  162.2667 C   0  0  0  0  0  0  0  0  0  0  0  0
  147.4986  136.5007  163.6360 C   0  0  0  0  0  0  0  0  0  0  0  0
  147.4361  135.0895  163.5368 O   0  0  0  0  0  0  0  0  0  0  0  0
  146.9507  134.7401  162.2433 C   0  0  2  0  0  0  0  0  0  0  0  0
  147.5580  133.3794  161.8667 C   0  0  0  0  0  0  0  0  0  0  0  0
  152.3848  143.5775  157.9834 H   0  0  0  0  0  0  0  0  0  0  0  0
  151.4239  143.7604  159.4487 H   0  0  0  0  0  0  0  0  0  0  0  0
  150.7676  144.2726  157.9016 H   0  0  0  0  0  0  0  0  0  0  0  0
  149.7793  142.1179  158.6071 H   0  0  0  0  0  0  0  0  0  0  0  0
  152.6011  140.9426  158.5086 H   0  0  0  0  0  0  0  0  0  0  0  0
  151.1201  140.0859  158.9379 H   0  0  0  0  0  0  0  0  0  0  0  0
  151.7333  141.3461  159.9871 H   0  0  0  0  0  0  0  0  0  0  0  0
  150.1223  142.6330  156.2147 H   0  0  0  0  0  0  0  0  0  0  0  0
  151.6386  141.8079  156.2053 H   0  0  0  0  0  0  0  0  0  0  0  0
  150.2993  139.6872  156.9713 H   0  0  0  0  0  0  0  0  0  0  0  0
  149.3045  139.9071  153.0232 H   0  0  0  0  0  0  0  0  0  0  0  0
  147.4585  141.3599  153.4712 H   0  0  0  0  0  0  0  0  0  0  0  0
  147.1052  139.8341  154.2523 H   0  0  0  0  0  0  0  0  0  0  0  0
  148.1020  142.3983  155.5544 H   0  0  0  0  0  0  0  0  0  0  0  0
  146.6469  141.5183  155.9233 H   0  0  0  0  0  0  0  0  0  0  0  0
  144.6856  138.6350  157.6578 H   0  0  0  0  0  0  0  0  0  0  0  0
  150.6076  136.8096  159.4090 H   0  0  0  0  0  0  0  0  0  0  0  0
  147.5347  134.9420  159.3949 H   0  0  0  0  0  0  0  0  0  0  0  0
  149.0301  135.1020  160.2844 H   0  0  0  0  0  0  0  0  0  0  0  0
  145.7015  136.0577  160.2353 H   0  0  0  0  0  0  0  0  0  0  0  0
  149.1002  136.7102  162.2390 H   0  0  0  0  0  0  0  0  0  0  0  0
  147.8699  137.9546  162.0351 H   0  0  0  0  0  0  0  0  0  0  0  0
  148.1497  136.8191  164.4504 H   0  0  0  0  0  0  0  0  0  0  0  0
  146.5002  136.9055  163.8089 H   0  0  0  0  0  0  0  0  0  0  0  0
  145.8681  134.6223  162.3199 H   0  0  0  0  0  0  0  0  0  0  0  0
  147.2130  133.0460  160.8879 H   0  0  0  0  0  0  0  0  0  0  0  0
  147.2685  132.6167  162.5900 H   0  0  0  0  0  0  0  0  0  0  0  0
  148.6473  133.4164  161.8520 H   0  0  0  0  0  0  0  0  0  0  0  0
  1  2  1  0  0  0  0
  1 29  1  0  0  0  0
  1 30  1  0  0  0  0
  1 31  1  0  0  0  0
  2  3  1  0  0  0  0
  2  4  1  0  0  0  0
  2 32  1  0  0  0  0
  3 33  1  0  0  0  0
  3 34  1  0  0  0  0
  3 35  1  0  0  0  0
  4  5  1  0  0  0  0
  4 36  1  0  0  0  0
  4 37  1  0  0  0  0
  5 11  1  0  0  0  0
  5  6  1  0  0  0  0
  5 38  1  0  0  0  0
  6  7  2  0  0  0  0
  6  8  1  0  0  0  0
  8  9  1  0  0  0  0
  8 39  1  0  0  0  0
  9 10  1  0  0  0  0
  9 40  1  0  0  0  0
  9 41  1  0  0  0  0
 10 11  1  0  0  0  0
 10 42  1  0  0  0  0
 10 43  1  0  0  0  0
 11 12  1  0  0  0  0
 12 17  1  0  0  0  0
 12 13  2  0  0  0  0
 13 14  1  0  0  0  0
 14 15  2  0  0  0  0
 14 44  1  0  0  0  0
 15 16  1  0  0  0  0
 16 20  1  0  0  0  0
 16 17  2  0  0  0  0
 17 18  1  0  0  0  0
 18 19  2  0  0  0  0
 19 20  1  0  0  0  0
 19 45  1  0  0  0  0
 20 21  1  0  0  0  0
 21 22  1  0  0  0  0
 21 46  1  0  0  0  0
 21 47  1  0  0  0  0
 22 27  1  0  0  0  0
 22 23  1  0  0  0  0
 22 24  1  0  0  0  0
 23 48  1  0  0  0  0
 24 25  1  0  0  0  0
 24 49  1  0  0  0  0
 24 50  1  0  0  0  0
 25 26  1  0  0  0  0
 25 51  1  0  0  0  0
 25 52  1  0  0  0  0
 26 27  1  0  0  0  0
 27 28  1  0  0  0  0
 27 53  1  0  0  0  0
 28 54  1  0  0  0  0
 28 55  1  0  0  0  0
 28 56  1  0  0  0  0
M  END
> <s_m_source_file>
AV-unprocessed.smi

> <i_m_source_file_index>
171

> <i_lp_mmshare_version>
43012

> <i_f3d_flags>
0

> <s_epik_input>
W0NIM11bQ0hdKFtDSDNdKVtDSDJdW0NAQEhdMUMoPU8pW05IXVtDSDJdW0NIMl1OMWMobltjSF1uMiljKGMyMyluW2NIXW4zW0NIMl1bQ0BAXTQoW09IXSlbQ0gyXVtDSDJdT1tDQEhdNFtDSDNd

> <s_epik_cmdline>
J2VwaWtfcHl0aG9uJywgJy1waCcsICc3LjAnLCAnLXRuJywgJzgnLCAnLW1hJywgJzIwMCcsICctbWV0YWxfYmluZGluZycsICctaW1hZScsICc8aW5maWxlLm1hZT4nLCAnLW9tYWUnLCAnPG91dGZpbGUubWFlPic=

> <r_lp_tautomer_probability>
1

> <r_epik_Ionization_Penalty>
0.000670584

> <r_epik_Ionization_Penalty_Charging>
0

> <r_epik_Ionization_Penalty_Neutral>
0.000670584

> <r_epik_State_Penalty>
0.000304767

> <r_epik_Charging_Adjusted_Penalty>
0.000304767

> <i_epik_Tot_Q>
0

> <i_epik_Tot_abs_Q>
0

> <r_epik_Metal_State_Penalty>
-0

> <b_epik_Metal_Only>
0

> <s_lp_Force_Field>
OPLS_2005

> <r_lp_Energy>
45.5381

> <b_lp_Chiralities_Consistent>
1

> <s_lp_Variant>
AV-unprocessed.smi:171-7

> <Gold.Version>
5.8.1

> <Gold.Id.Protein>
6NUR|6NUR_protein|mol2

> <Gold.PLP.Fitness>
45.0901

> <Gold.PLP.PLP>
-39.8072

> <Gold.PLP.part.hbond>
-2.9602

> <Gold.PLP.part.metal>
0.0000

> <Gold.PLP.part.buried>
-3.9086

> <Gold.PLP.part.nonpolar>
-33.5429

> <Gold.PLP.part.repulsive>
0.3361

> <Gold.PLP.ligand.clash>
0.0000

> <Gold.PLP.ligand.torsion>
0.6338

> <Gold.PLP.Chemscore.Hbond>
2.0000

> <Gold.PLP.Chemscore.CHOScore>
0.0000

> <Gold.PLP.Chemscore.Metal>
0.0000

> <Gold.Chemscore.Hbonds>
donor molecule, donor type, donor heavy atom, donor atom, acceptor molecule, acceptor atom, score
      L1  H     8    39       P1  7957  1.00
      P1  H  7989  7998       L1     7  0.85

> <Gold.PLP.Chemscore.Internal.Correction>
0.5505

> <Gold.Rescore>
     Score         DG    S(hbond)    S(metal)    S(lipo)     H(rot)  DE(clash)    DE(int)     intcor
     12.15     -15.06       1.74        0.00      89.31       2.61       0.12       2.79       ----

> <Gold.Chemscore.Fitness>
12.1489

> <Gold.Chemscore.DG>
-15.0571

> <Gold.Chemscore.ZeroCoef>
-5.4800

> <Gold.Chemscore.Hbond>
1.7374

> <Gold.Chemscore.Metal>
0.0000

> <Gold.Chemscore.Lipo>
89.3078

> <Gold.Chemscore.Internal_Hbond>
0.0000

> <Gold.Chemscore.DEClash>
0.1222

> <Gold.Chemscore.DEInternal>
2.7860

> <Gold.Chemscore.Rot>
2.6074

> <Gold.Chemscore.Internal.Correction>
   9.000000E+99

> <Gold.Chemscore.Hbonds>
donor molecule, donor type, donor heavy atom, donor atom, acceptor molecule, acceptor atom, score
      L1  H     8    39       P1  7957  0.99
      P1  H  7989  7998       L1     7  0.15

> <Gold.Chemscore.Hbond.Weighted>
-5.8029

> <Gold.Chemscore.Metal.Weighted>
-0.0000

> <Gold.Chemscore.Lipo.Weighted>
-10.4490

> <Gold.Chemscore.Internal_Hbond.Weighted>
0.0000

> <Gold.Chemscore.DEClash.Weighted>
0.1222

> <Gold.Chemscore.DEInternal.Weighted>
2.7860

> <Gold.Chemscore.Rot.Weighted>
6.6748

> <Gold.Chemscore.Internal.Correction.Weighted>
   9.000000E+99

> <Gold.Protein.RotatedTorsions>
[ 6907 6896 6895 6894 ] final   66.58 input  -60.11 | X-H torsion
[ 7974 7965 7964 7962 ] final -173.07 input  175.53 | X-H torsion
[ 8008 7997 7996 7995 ] final  -35.45 input   59.86 | X-H torsion
[ 10167 10162 10161 10158 ] final -105.91 input  -65.29 | X-H torsion
[ 10718 10713 10712 10709 ] final -176.07 input   66.30 | X-H torsion
[ 10763 10752 10751 10750 ] final -151.88 input  -60.55 | X-H torsion
[ 11005 11000 10999 10996 ] final   29.72 input  -57.11 | X-H torsion

> <Gold.Protein.ActiveResidues>
 VAL166  LYS551  ARG553  GLY616  TRP617  ASP618  TYR619  PRO620  LYS621  CYS622 
 ASP623  PHE694  ASN695  SER759  ASP760  ASP761  ALA762  ILE779  LEU786  VAL792 
 PHE793  MET794  SER795  GLU796  ALA797  LYS798  CYS799  TRP800  GLU811  SER814 

> <Gold.Protein.RotatedAtoms>
  152.4491  134.5431  159.9844 H   0  0  0  0  0  0  0  0  0  0  0  0  # atno 6907 bound_to 6896
  151.5508  133.3412  159.2960 H   0  0  0  0  0  0  0  0  0  0  0  0  # atno 6908 bound_to 6896
  150.8415  134.7741  159.7000 H   0  0  0  0  0  0  0  0  0  0  0  0  # atno 6909 bound_to 6896
  144.7141  140.1678  143.6370 H   0  0  0  0  0  0  0  0  0  0  0  0  # atno 7974 bound_to 7965
  154.4095  140.1657  156.2214 H   0  0  0  0  0  0  0  0  0  0  0  0  # atno 8008 bound_to 7997
  155.9360  140.3411  155.6265 H   0  0  0  0  0  0  0  0  0  0  0  0  # atno 8009 bound_to 7997
  155.7047  140.0749  157.2386 H   0  0  0  0  0  0  0  0  0  0  0  0  # atno 8010 bound_to 7997
  140.1935  143.3874  152.1187 H   0  0  0  0  0  0  0  0  0  0  0  0  # atno 10167 bound_to 10162
  156.8092  130.9580  151.3116 H   0  0  0  0  0  0  0  0  0  0  0  0  # atno 10718 bound_to 10713
  154.8030  135.3249  154.7502 H   0  0  0  0  0  0  0  0  0  0  0  0  # atno 10763 bound_to 10752
  153.8166  135.6891  153.4837 H   0  0  0  0  0  0  0  0  0  0  0  0  # atno 10764 bound_to 10752
  153.1758  135.4605  154.9907 H   0  0  0  0  0  0  0  0  0  0  0  0  # atno 10765 bound_to 10752
  140.3019  134.2747  155.7752 H   0  0  0  0  0  0  0  0  0  0  0  0  # atno 11005 bound_to 11000
  145.8972  139.2409  143.1515 LP  0  0  0  0  0  0  0  0  0  0  0  0  # atno 17320 bound_to 7965
  145.9846  140.8654  143.0097 LP  0  0  0  0  0  0  0  0  0  0  0  0  # atno 17321 bound_to 7965
  139.5246  144.7086  151.5277 LP  0  0  0  0  0  0  0  0  0  0  0  0  # atno 17342 bound_to 10162
  140.6440  143.8832  150.6719 LP  0  0  0  0  0  0  0  0  0  0  0  0  # atno 17343 bound_to 10162
  157.6514  130.8888  149.9642 LP  0  0  0  0  0  0  0  0  0  0  0  0  # atno 17370 bound_to 10713
  156.1055  130.3653  150.0142 LP  0  0  0  0  0  0  0  0  0  0  0  0  # atno 17371 bound_to 10713
  141.2126  133.7652  156.9780 LP  0  0  0  0  0  0  0  0  0  0  0  0  # atno 17394 bound_to 11000
  140.1101  134.9482  157.2053 LP  0  0  0  0  0  0  0  0  0  0  0  0  # atno 17395 bound_to 11000

$$$$
