AV-unprocessed.smi:37|AV-procd|sdf|310|dock7
  -GOLD-   2262016123D 1   1.00000     0.00000
 Structure written by MMmdl.
 44 45  0  0  0  0  0  0  0  0  1 V2000
  152.3677  144.3554  158.3828 C   0  0  0  0  0  0  0  0  0  0  0  0
  152.1811  144.1596  159.8936 C   0  0  0  0  0  0  0  0  0  0  0  0
  152.6686  142.7907  160.3626 C   0  0  0  0  0  0  0  0  0  0  0  0
  152.7254  142.5046  161.5587 O   0  0  0  0  0  0  0  0  0  0  0  0
  153.0003  141.9822  159.3438 O   0  0  0  0  0  0  0  0  0  0  0  0
  153.3890  140.6451  159.6088 C   0  0  0  0  0  0  0  0  0  0  0  0
  152.5282  139.6949  158.7669 C   0  0  1  0  0  0  0  0  0  0  0  0
  152.7899  139.8525  157.3770 O   0  0  0  0  0  0  0  0  0  0  0  0
  152.4859  138.6684  156.6980 C   0  0  2  0  0  0  0  0  0  0  0  0
  151.3299  138.9018  155.7514 N   0  0  0  0  0  0  0  0  0  0  0  0
  150.7037  140.1374  155.6351 C   0  0  0  0  0  0  0  0  0  0  0  0
  149.6648  140.3579  154.7950 C   0  0  0  0  0  0  0  0  0  0  0  0
  149.1060  141.5787  154.7384 F   0  0  0  0  0  0  0  0  0  0  0  0
  149.1442  139.2834  153.9546 C   0  0  0  0  0  0  0  0  0  0  0  0
  148.2088  139.3868  153.1634 O   0  0  0  0  0  0  0  0  0  0  0  0
  149.8026  138.0595  154.1079 N   0  0  0  0  0  0  0  0  0  0  0  0
  150.8726  137.8180  154.9708 C   0  0  0  0  0  0  0  0  0  0  0  0
  151.3736  136.6961  155.0366 O   0  0  0  0  0  0  0  0  0  0  0  0
  152.1907  137.5853  157.7597 C   0  0  2  0  0  0  0  0  0  0  0  0
  150.2390  137.2929  158.0854 Br  0  0  0  0  0  0  0  0  0  0  0  0
  152.7866  138.2067  159.0112 C   0  0  1  0  0  0  0  0  0  0  0  0
  154.1876  137.9615  159.0822 O   0  0  0  0  0  0  0  0  0  0  0  0
  154.6526  136.7110  159.2541 C   0  0  0  0  0  0  0  0  0  0  0  0
  153.9671  135.7048  159.4351 O   0  0  0  0  0  0  0  0  0  0  0  0
  156.1762  136.6361  159.1873 C   0  0  0  0  0  0  0  0  0  0  0  0
  156.7191  137.0731  157.8197 C   0  0  0  0  0  0  0  0  0  0  0  0
  149.4735  137.2853  153.5498 H   0  0  0  0  0  0  0  0  0  0  0  0
  152.0227  145.3437  158.0790 H   0  0  0  0  0  0  0  0  0  0  0  0
  151.8030  143.6191  157.8097 H   0  0  0  0  0  0  0  0  0  0  0  0
  153.4177  144.2709  158.0999 H   0  0  0  0  0  0  0  0  0  0  0  0
  152.7230  144.9336  160.4375 H   0  0  0  0  0  0  0  0  0  0  0  0
  151.1284  144.2663  160.1565 H   0  0  0  0  0  0  0  0  0  0  0  0
  154.4484  140.5009  159.3922 H   0  0  0  0  0  0  0  0  0  0  0  0
  153.2375  140.4384  160.6692 H   0  0  0  0  0  0  0  0  0  0  0  0
  151.4714  139.8983  158.9478 H   0  0  0  0  0  0  0  0  0  0  0  0
  153.3482  138.4320  156.0714 H   0  0  0  0  0  0  0  0  0  0  0  0
  151.0377  140.9700  156.2362 H   0  0  0  0  0  0  0  0  0  0  0  0
  152.6331  136.6283  157.4808 H   0  0  0  0  0  0  0  0  0  0  0  0
  152.2934  137.8634  159.9218 H   0  0  0  0  0  0  0  0  0  0  0  0
  156.5948  137.2692  159.9702 H   0  0  0  0  0  0  0  0  0  0  0  0
  156.4886  135.6146  159.4049 H   0  0  0  0  0  0  0  0  0  0  0  0
  157.8088  137.0471  157.8138 H   0  0  0  0  0  0  0  0  0  0  0  0
  156.4121  138.0914  157.5781 H   0  0  0  0  0  0  0  0  0  0  0  0
  156.3702  136.4177  157.0210 H   0  0  0  0  0  0  0  0  0  0  0  0
  1  2  1  0  0  0  0
  1 28  1  0  0  0  0
  1 29  1  0  0  0  0
  1 30  1  0  0  0  0
  2  3  1  0  0  0  0
  2 31  1  0  0  0  0
  2 32  1  0  0  0  0
  3  4  2  0  0  0  0
  3  5  1  0  0  0  0
  5  6  1  0  0  0  0
  6  7  1  0  0  0  0
  6 33  1  0  0  0  0
  6 34  1  0  0  0  0
  7 21  1  0  0  0  0
  7  8  1  0  0  0  0
  7 35  1  0  0  0  0
  8  9  1  0  0  0  0
  9 10  1  0  0  0  0
  9 19  1  0  0  0  0
  9 36  1  0  0  0  0
 10 17  1  0  0  0  0
 10 11  1  0  0  0  0
 11 12  2  0  0  0  0
 11 37  1  0  0  0  0
 12 13  1  0  0  0  0
 12 14  1  0  0  0  0
 14 15  2  0  0  0  0
 14 16  1  0  0  0  0
 16 27  1  0  0  0  0
 16 17  1  0  0  0  0
 17 18  2  0  0  0  0
 19 20  1  0  0  0  0
 19 21  1  0  0  0  0
 19 38  1  0  0  0  0
 21 22  1  0  0  0  0
 21 39  1  0  0  0  0
 22 23  1  0  0  0  0
 23 24  2  0  0  0  0
 23 25  1  0  0  0  0
 25 26  1  0  0  0  0
 25 40  1  0  0  0  0
 25 41  1  0  0  0  0
 26 42  1  0  0  0  0
 26 43  1  0  0  0  0
 26 44  1  0  0  0  0
M  END
> <s_m_source_file>
AV-unprocessed.smi

> <i_m_source_file_index>
37

> <i_lp_mmshare_version>
43012

> <i_f3d_flags>
0

> <s_epik_input>
W0NIM11bQ0gyXUMoPU8pT1tDSDJdW0NAQEhdMU9bQ0BASF0objJbY0hdYyhGKWMoPU8pW25IXWMyPU8pW0NAQEhdKEJyKVtDQEhdMU9DKD1PKVtDSDJdW0NIM10=

> <s_epik_cmdline>
J2VwaWtfcHl0aG9uJywgJy1waCcsICc3LjAnLCAnLXRuJywgJzgnLCAnLW1hJywgJzIwMCcsICctbWV0YWxfYmluZGluZycsICctaW1hZScsICc8aW5maWxlLm1hZT4nLCAnLW9tYWUnLCAnPG91dGZpbGUubWFlPic=

> <r_lp_tautomer_probability>
0.999537

> <r_epik_Ionization_Penalty>
0.104106

> <r_epik_Ionization_Penalty_Charging>
0.104106

> <r_epik_Ionization_Penalty_Neutral>
3.94675e-16

> <r_epik_State_Penalty>
0.0940182

> <r_epik_Charging_Adjusted_Penalty>
0.198124

> <i_epik_Tot_Q>
0

> <i_epik_Tot_abs_Q>
0

> <r_epik_Metal_State_Penalty>
3.05314

> <b_epik_Metal_Only>
0

> <s_epik_Chemistry_Notes>
This compound has an ester and may undergo hydrolysis at high or low pH. This compound contains an acetal/aminal-like group ( X-CH(R)-Y where X, Y are N, S, or O) that may be acid/base labile, releasing an aldehyde.

> <s_lp_Force_Field>
OPLS_2005

> <r_lp_Energy>
24.0333

> <b_lp_Chiralities_Consistent>
1

> <s_lp_Variant>
AV-unprocessed.smi:37-8

> <Gold.Version>
5.8.1

> <Gold.Id.Protein>
6NUR|6NUR_protein|mol2

> <Gold.PLP.Fitness>
52.1034

> <Gold.PLP.PLP>
-40.8645

> <Gold.PLP.part.hbond>
-4.0000

> <Gold.PLP.part.metal>
0.0000

> <Gold.PLP.part.buried>
-6.8486

> <Gold.PLP.part.nonpolar>
-33.6121

> <Gold.PLP.part.repulsive>
3.3237

> <Gold.PLP.ligand.clash>
0.0000

> <Gold.PLP.ligand.torsion>
0.4877

> <Gold.PLP.Chemscore.Hbond>
3.9920

> <Gold.PLP.Chemscore.CHOScore>
0.0000

> <Gold.PLP.Chemscore.Metal>
0.0000

> <Gold.Chemscore.Hbonds>
donor molecule, donor type, donor heavy atom, donor atom, acceptor molecule, acceptor atom, score
      L1  H    16    27       P1  7948  1.00
      P1  H  6896  6908       L1    24  1.00
      P1  H  7997  8009       L1     8  0.80
      P1  H 10752 10763       L1    18  1.00

> <Gold.PLP.Chemscore.Internal.Correction>
0.2383

> <Gold.Rescore>
     Score         DG    S(hbond)    S(metal)    S(lipo)     H(rot)  DE(clash)    DE(int)     intcor
     14.43     -17.36       3.74        0.00      67.74       3.33       1.39       1.54       ----

> <Gold.Chemscore.Fitness>
14.4277

> <Gold.Chemscore.DG>
-17.3574

> <Gold.Chemscore.ZeroCoef>
-5.4800

> <Gold.Chemscore.Hbond>
3.7359

> <Gold.Chemscore.Metal>
0.0000

> <Gold.Chemscore.Lipo>
67.7363

> <Gold.Chemscore.Internal_Hbond>
0.0000

> <Gold.Chemscore.DEClash>
1.3885

> <Gold.Chemscore.DEInternal>
1.5413

> <Gold.Chemscore.Rot>
3.3303

> <Gold.Chemscore.Internal.Correction>
   9.000000E+99

> <Gold.Chemscore.Hbonds>
donor molecule, donor type, donor heavy atom, donor atom, acceptor molecule, acceptor atom, score
      L1  H    16    27       P1  7948  0.86
      P1  H  6896  6908       L1    24  0.99
      P1  H  7997  8009       L1     8  0.12
      P1  H 10752 10763       L1    18  0.97

> <Gold.Chemscore.Hbond.Weighted>
-12.4779

> <Gold.Chemscore.Metal.Weighted>
-0.0000

> <Gold.Chemscore.Lipo.Weighted>
-7.9251

> <Gold.Chemscore.Internal_Hbond.Weighted>
0.0000

> <Gold.Chemscore.DEClash.Weighted>
1.3885

> <Gold.Chemscore.DEInternal.Weighted>
1.5413

> <Gold.Chemscore.Rot.Weighted>
8.5256

> <Gold.Chemscore.Internal.Correction.Weighted>
   9.000000E+99

> <Gold.Protein.RotatedTorsions>
[ 6907 6896 6895 6894 ] final  -54.72 input  -60.11 | X-H torsion
[ 7974 7965 7964 7962 ] final  -30.39 input  175.53 | X-H torsion
[ 8008 7997 7996 7995 ] final -178.69 input   59.86 | X-H torsion
[ 10167 10162 10161 10158 ] final -164.66 input  -65.29 | X-H torsion
[ 10718 10713 10712 10709 ] final  -37.75 input   66.30 | X-H torsion
[ 10763 10752 10751 10750 ] final   48.57 input  -60.55 | X-H torsion
[ 11005 11000 10999 10996 ] final   37.22 input  -57.11 | X-H torsion

> <Gold.Protein.ActiveResidues>
 VAL166  LYS551  ARG553  GLY616  TRP617  ASP618  TYR619  PRO620  LYS621  CYS622 
 ASP623  PHE694  ASN695  SER759  ASP760  ASP761  ALA762  ILE779  LEU786  VAL792 
 PHE793  MET794  SER795  GLU796  ALA797  LYS798  CYS799  TRP800  GLU811  SER814 

> <Gold.Protein.RotatedAtoms>
  150.8314  134.7568  159.6856 H   0  0  0  0  0  0  0  0  0  0  0  0  # atno 6907 bound_to 6896
  152.4417  134.5573  159.9894 H   0  0  0  0  0  0  0  0  0  0  0  0  # atno 6908 bound_to 6896
  151.5733  133.3349  159.3030 H   0  0  0  0  0  0  0  0  0  0  0  0  # atno 6909 bound_to 6896
  146.1146  140.5534  142.8762 H   0  0  0  0  0  0  0  0  0  0  0  0  # atno 7974 bound_to 7965
  156.0217  140.1262  157.0350 H   0  0  0  0  0  0  0  0  0  0  0  0  # atno 8008 bound_to 7997
  154.4314  140.1067  156.6043 H   0  0  0  0  0  0  0  0  0  0  0  0  # atno 8009 bound_to 7997
  155.5935  140.3469  155.4575 H   0  0  0  0  0  0  0  0  0  0  0  0  # atno 8010 bound_to 7997
  139.6235  144.0577  152.1954 H   0  0  0  0  0  0  0  0  0  0  0  0  # atno 10167 bound_to 10162
  156.3116  130.4253  149.8045 H   0  0  0  0  0  0  0  0  0  0  0  0  # atno 10718 bound_to 10713
  152.9791  135.5940  154.3948 H   0  0  0  0  0  0  0  0  0  0  0  0  # atno 10763 bound_to 10752
  154.3600  135.2767  155.2327 H   0  0  0  0  0  0  0  0  0  0  0  0  # atno 10764 bound_to 10752
  154.4329  135.6032  153.6135 H   0  0  0  0  0  0  0  0  0  0  0  0  # atno 10765 bound_to 10752
  140.2248  134.3598  155.7989 H   0  0  0  0  0  0  0  0  0  0  0  0  # atno 11005 bound_to 11000
  144.7542  140.5266  143.6780 LP  0  0  0  0  0  0  0  0  0  0  0  0  # atno 17320 bound_to 7965
  145.5592  139.1479  143.3351 LP  0  0  0  0  0  0  0  0  0  0  0  0  # atno 17321 bound_to 7965
  140.0225  144.6142  150.7555 LP  0  0  0  0  0  0  0  0  0  0  0  0  # atno 17342 bound_to 10162
  140.7397  143.2794  151.3643 LP  0  0  0  0  0  0  0  0  0  0  0  0  # atno 17343 bound_to 10162
  156.5386  130.8289  151.3261 LP  0  0  0  0  0  0  0  0  0  0  0  0  # atno 17370 bound_to 10713
  157.7392  130.9827  150.2300 LP  0  0  0  0  0  0  0  0  0  0  0  0  # atno 17371 bound_to 10713
  141.2221  133.7213  156.8634 LP  0  0  0  0  0  0  0  0  0  0  0  0  # atno 17394 bound_to 11000
  140.1812  134.9032  157.2951 LP  0  0  0  0  0  0  0  0  0  0  0  0  # atno 17395 bound_to 11000

$$$$
