AV-unprocessed.smi:503|AV-procd|sdf|2746|dock3
  -GOLD-   2262023213D 1   1.00000     0.00000
 Structure written by MMmdl.
 44 45  0  0  0  0  0  0  0  0  1 V2000
  149.5345  140.1141  155.8462 O   0  0  0  0  0  0  0  0  0  0  0  0
  149.6725  141.3166  155.6166 C   0  0  0  0  0  0  0  0  0  0  0  0
  151.0377  142.0002  155.7799 C   0  0  0  0  0  0  0  0  0  0  0  0
  151.5323  141.9983  157.1670 N   0  0  0  0  0  0  0  0  0  0  0  0
  151.3092  143.1626  157.9282 C   0  0  0  0  0  0  0  0  0  0  0  0
  151.7173  143.2931  159.2052 C   0  0  0  0  0  0  0  0  0  0  0  0
  151.4078  144.5384  160.0218 C   0  0  0  0  0  0  0  0  0  0  0  0
  151.9191  144.4459  161.2497 F   0  0  0  0  0  0  0  0  0  0  0  0
  151.9369  145.6091  159.4312 F   0  0  0  0  0  0  0  0  0  0  0  0
  150.0926  144.7317  160.1292 F   0  0  0  0  0  0  0  0  0  0  0  0
  152.3842  142.1460  159.7894 C   0  0  0  0  0  0  0  0  0  0  0  0
  152.5938  141.0198  159.0797 C   0  0  0  0  0  0  0  0  0  0  0  0
  152.1598  140.9003  157.6858 C   0  0  0  0  0  0  0  0  0  0  0  0
  152.3472  139.8773  157.0267 O   0  0  0  0  0  0  0  0  0  0  0  0
  148.6628  142.1128  155.2334 N   0  0  0  0  0  0  0  0  0  0  0  0
  147.2792  141.6928  155.0204 C   0  0  0  0  0  0  0  0  0  0  0  0
  146.7468  141.0362  156.3125 C   0  0  0  0  0  0  0  0  0  0  0  0
  145.3809  140.3312  156.1872 C   0  0  0  0  0  0  0  0  0  0  0  0
  145.4596  138.7926  156.1067 C   0  0  0  0  0  0  0  0  0  0  0  0
  146.0547  138.1908  154.8170 C   0  0  0  0  0  0  0  0  0  0  0  0
  147.5676  138.4278  154.6308 C   0  0  0  0  0  0  0  0  0  0  0  0
  147.9471  139.5448  153.6392 C   0  0  0  0  0  0  0  0  0  0  0  0
  147.1434  140.8575  153.7252 C   0  0  0  0  0  0  0  0  0  0  0  0
  151.7622  141.5175  155.1209 H   0  0  0  0  0  0  0  0  0  0  0  0
  150.9528  143.0222  155.4079 H   0  0  0  0  0  0  0  0  0  0  0  0
  150.7727  143.9425  157.4075 H   0  0  0  0  0  0  0  0  0  0  0  0
  152.7246  142.1913  160.8134 H   0  0  0  0  0  0  0  0  0  0  0  0
  153.0948  140.1850  159.5477 H   0  0  0  0  0  0  0  0  0  0  0  0
  148.8676  143.0889  155.0743 H   0  0  0  0  0  0  0  0  0  0  0  0
  146.6748  142.5898  154.8708 H   0  0  0  0  0  0  0  0  0  0  0  0
  147.4826  140.3582  156.7426 H   0  0  0  0  0  0  0  0  0  0  0  0
  146.6486  141.8283  157.0563 H   0  0  0  0  0  0  0  0  0  0  0  0
  144.8071  140.5703  157.0833 H   0  0  0  0  0  0  0  0  0  0  0  0
  144.7936  140.7388  155.3646 H   0  0  0  0  0  0  0  0  0  0  0  0
  146.0049  138.4112  156.9708 H   0  0  0  0  0  0  0  0  0  0  0  0
  144.4459  138.4049  156.2134 H   0  0  0  0  0  0  0  0  0  0  0  0
  145.8983  137.1130  154.8726 H   0  0  0  0  0  0  0  0  0  0  0  0
  145.4912  138.5087  153.9398 H   0  0  0  0  0  0  0  0  0  0  0  0
  148.0513  138.5855  155.5934 H   0  0  0  0  0  0  0  0  0  0  0  0
  148.0129  137.5055  154.2562 H   0  0  0  0  0  0  0  0  0  0  0  0
  149.0130  139.7566  153.7291 H   0  0  0  0  0  0  0  0  0  0  0  0
  147.8159  139.1512  152.6305 H   0  0  0  0  0  0  0  0  0  0  0  0
  146.0930  140.6646  153.5144 H   0  0  0  0  0  0  0  0  0  0  0  0
  147.4629  141.4842  152.8914 H   0  0  0  0  0  0  0  0  0  0  0  0
  1  2  2  0  0  0  0
  2  3  1  0  0  0  0
  2 15  1  0  0  0  0
  3  4  1  0  0  0  0
  3 24  1  0  0  0  0
  3 25  1  0  0  0  0
  4 13  1  0  0  0  0
  4  5  1  0  0  0  0
  5  6  2  0  0  0  0
  5 26  1  0  0  0  0
  6  7  1  0  0  0  0
  6 11  1  0  0  0  0
  7  8  1  0  0  0  0
  7  9  1  0  0  0  0
  7 10  1  0  0  0  0
 11 12  2  0  0  0  0
 11 27  1  0  0  0  0
 12 13  1  0  0  0  0
 12 28  1  0  0  0  0
 13 14  2  0  0  0  0
 15 16  1  0  0  0  0
 15 29  1  0  0  0  0
 16 23  1  0  0  0  0
 16 17  1  0  0  0  0
 16 30  1  0  0  0  0
 17 18  1  0  0  0  0
 17 31  1  0  0  0  0
 17 32  1  0  0  0  0
 18 19  1  0  0  0  0
 18 33  1  0  0  0  0
 18 34  1  0  0  0  0
 19 20  1  0  0  0  0
 19 35  1  0  0  0  0
 19 36  1  0  0  0  0
 20 21  1  0  0  0  0
 20 37  1  0  0  0  0
 20 38  1  0  0  0  0
 21 22  1  0  0  0  0
 21 39  1  0  0  0  0
 21 40  1  0  0  0  0
 22 23  1  0  0  0  0
 22 41  1  0  0  0  0
 22 42  1  0  0  0  0
 23 43  1  0  0  0  0
 23 44  1  0  0  0  0
M  END
> <s_m_source_file>
AV-unprocessed.smi

> <i_m_source_file_index>
503

> <i_lp_mmshare_version>
43012

> <i_f3d_flags>
0

> <s_epik_input>
Tz1jMVtjSF1bY0hdYyhDKEYpKEYpRilbY0hdbjFbQ0gyXUMoPU8pW05IXVtDSF0yW0NIMl1bQ0gyXVtDSDJdW0NIMl1bQ0gyXVtDSDJdW0NIMl0y

> <s_epik_cmdline>
J2VwaWtfcHl0aG9uJywgJy1waCcsICc3LjAnLCAnLXRuJywgJzgnLCAnLW1hJywgJzIwMCcsICctbWV0YWxfYmluZGluZycsICctaW1hZScsICc8aW5maWxlLm1hZT4nLCAnLW9tYWUnLCAnPG91dGZpbGUubWFlPic=

> <r_lp_tautomer_probability>
1

> <r_epik_Ionization_Penalty>
3.93819e-08

> <r_epik_Ionization_Penalty_Charging>
1.9167e-08

> <r_epik_Ionization_Penalty_Neutral>
2.02148e-08

> <r_epik_State_Penalty>
-0

> <r_epik_Charging_Adjusted_Penalty>
1.9167e-08

> <i_epik_Tot_Q>
0

> <i_epik_Tot_abs_Q>
0

> <r_epik_Metal_State_Penalty>
-0

> <b_epik_Metal_Only>
0

> <s_lp_Force_Field>
OPLS_2005

> <r_lp_Energy>
31.4462

> <b_lp_Chiralities_Consistent>
1

> <s_lp_Variant>
AV-unprocessed.smi:503-1

> <Gold.Version>
5.8.1

> <Gold.Id.Protein>
6NUR|6NUR_protein|mol2

> <Gold.PLP.Fitness>
44.9966

> <Gold.PLP.PLP>
-37.8457

> <Gold.PLP.part.hbond>
-2.0000

> <Gold.PLP.part.metal>
0.0000

> <Gold.PLP.part.buried>
-4.5018

> <Gold.PLP.part.nonpolar>
-29.7678

> <Gold.PLP.part.repulsive>
0.1651

> <Gold.PLP.ligand.clash>
0.0000

> <Gold.PLP.ligand.torsion>
0.4457

> <Gold.PLP.Chemscore.Hbond>
1.9750

> <Gold.PLP.Chemscore.CHOScore>
0.6697

> <Gold.PLP.Chemscore.Metal>
0.0000

> <Gold.Chemscore.Hbonds>
donor molecule, donor type, donor heavy atom, donor atom, acceptor molecule, acceptor atom, score
      L1  H    15    29       P1  8028  0.99
      P1  H  7997  8009       L1    14  0.91
      L1  C     5    26       P1  8028  0.67

> <Gold.PLP.Chemscore.Internal.Correction>
0.1082

> <Gold.Rescore>
     Score         DG    S(hbond)    S(metal)    S(lipo)     H(rot)  DE(clash)    DE(int)     intcor
     12.13     -17.21       1.88        0.00      79.78       1.51       0.77       4.31       ----

> <Gold.Chemscore.Fitness>
12.1314

> <Gold.Chemscore.DG>
-17.2132

> <Gold.Chemscore.ZeroCoef>
-5.4800

> <Gold.Chemscore.Hbond>
1.8780

> <Gold.Chemscore.Metal>
0.0000

> <Gold.Chemscore.Lipo>
79.7781

> <Gold.Chemscore.Internal_Hbond>
0.0000

> <Gold.Chemscore.DEClash>
0.7720

> <Gold.Chemscore.DEInternal>
4.3098

> <Gold.Chemscore.Rot>
1.5131

> <Gold.Chemscore.Internal.Correction>
   9.000000E+99

> <Gold.Chemscore.Hbonds>
donor molecule, donor type, donor heavy atom, donor atom, acceptor molecule, acceptor atom, score
      L1  H    15    29       P1  8028  0.94
      P1  H  7997  8009       L1    14  0.22

> <Gold.Chemscore.Hbond.Weighted>
-6.2726

> <Gold.Chemscore.Metal.Weighted>
-0.0000

> <Gold.Chemscore.Lipo.Weighted>
-9.3340

> <Gold.Chemscore.Internal_Hbond.Weighted>
0.0000

> <Gold.Chemscore.DEClash.Weighted>
0.7720

> <Gold.Chemscore.DEInternal.Weighted>
4.3098

> <Gold.Chemscore.Rot.Weighted>
3.8734

> <Gold.Chemscore.Internal.Correction.Weighted>
   9.000000E+99

> <Gold.Protein.RotatedTorsions>
[ 6907 6896 6895 6894 ] final  -90.55 input  -60.11 | X-H torsion
[ 7974 7965 7964 7962 ] final  -40.41 input  175.53 | X-H torsion
[ 8008 7997 7996 7995 ] final -176.40 input   59.86 | X-H torsion
[ 10167 10162 10161 10158 ] final -112.00 input  -65.29 | X-H torsion
[ 10718 10713 10712 10709 ] final -113.86 input   66.30 | X-H torsion
[ 10763 10752 10751 10750 ] final  -31.46 input  -60.55 | X-H torsion
[ 11005 11000 10999 10996 ] final  -24.71 input  -57.11 | X-H torsion

> <Gold.Protein.ActiveResidues>
 VAL166  LYS551  ARG553  GLY616  TRP617  ASP618  TYR619  PRO620  LYS621  CYS622 
 ASP623  PHE694  ASN695  SER759  ASP760  ASP761  ALA762  ILE779  LEU786  VAL792 
 PHE793  MET794  SER795  GLU796  ALA797  LYS798  CYS799  TRP800  GLU811  SER814 

> <Gold.Protein.RotatedAtoms>
  150.6883  134.2414  159.4473 H   0  0  0  0  0  0  0  0  0  0  0  0  # atno 6907 bound_to 6896
  152.0358  134.9738  160.0582 H   0  0  0  0  0  0  0  0  0  0  0  0  # atno 6908 bound_to 6896
  152.1260  133.4345  159.4735 H   0  0  0  0  0  0  0  0  0  0  0  0  # atno 6909 bound_to 6896
  146.0307  140.6735  142.9134 H   0  0  0  0  0  0  0  0  0  0  0  0  # atno 7974 bound_to 7965
  155.9944  140.1207  157.0607 H   0  0  0  0  0  0  0  0  0  0  0  0  # atno 8008 bound_to 7997
  154.4222  140.1119  156.5679 H   0  0  0  0  0  0  0  0  0  0  0  0  # atno 8009 bound_to 7997
  155.6298  140.3473  155.4681 H   0  0  0  0  0  0  0  0  0  0  0  0  # atno 8010 bound_to 7997
  140.1275  143.4390  152.1650 H   0  0  0  0  0  0  0  0  0  0  0  0  # atno 10167 bound_to 10162
  156.0793  130.5996  150.8698 H   0  0  0  0  0  0  0  0  0  0  0  0  # atno 10718 bound_to 10713
  153.7978  135.6892  153.4861 H   0  0  0  0  0  0  0  0  0  0  0  0  # atno 10763 bound_to 10752
  153.1708  135.4543  154.9898 H   0  0  0  0  0  0  0  0  0  0  0  0  # atno 10764 bound_to 10752
  154.8019  135.3341  154.7469 H   0  0  0  0  0  0  0  0  0  0  0  0  # atno 10765 bound_to 10752
  140.8871  133.7614  156.0374 H   0  0  0  0  0  0  0  0  0  0  0  0  # atno 11005 bound_to 11000
  144.7029  140.3730  143.7141 LP  0  0  0  0  0  0  0  0  0  0  0  0  # atno 17320 bound_to 7965
  145.7045  139.1669  143.2574 LP  0  0  0  0  0  0  0  0  0  0  0  0  # atno 17321 bound_to 7965
  139.5537  144.7357  151.4359 LP  0  0  0  0  0  0  0  0  0  0  0  0  # atno 17342 bound_to 10162
  140.6836  143.8024  150.7155 LP  0  0  0  0  0  0  0  0  0  0  0  0  # atno 17343 bound_to 10162
  157.5903  131.0944  150.9129 LP  0  0  0  0  0  0  0  0  0  0  0  0  # atno 17370 bound_to 10713
  156.9307  130.5348  149.5279 LP  0  0  0  0  0  0  0  0  0  0  0  0  # atno 17371 bound_to 10713
  140.8392  134.3087  157.5320 LP  0  0  0  0  0  0  0  0  0  0  0  0  # atno 17394 bound_to 11000
  139.8725  134.9406  156.3775 LP  0  0  0  0  0  0  0  0  0  0  0  0  # atno 17395 bound_to 11000

$$$$
