AV-unprocessed.smi:2663|AV-procd|sdf|10325|dock5
  -GOLD-   2272014343D 1   1.00000     0.00000
 Structure written by MMmdl.
 38 39  0  0  0  0  0  0  0  0  2 V2000
  149.3535  141.2437  156.5117 C   0  0  0  0  0  0  0  0  0  0  0  0
  150.6169  140.5366  157.0666 C   0  0  2  0  0  0  0  0  0  0  0  0
  151.6394  140.3643  155.9052 C   0  0  0  0  0  0  0  0  0  0  0  0
  151.0639  139.7575  154.7647 O   0  0  0  0  0  0  0  0  0  0  0  0
  150.2596  139.2106  157.5968 N   0  0  0  0  0  0  0  0  0  0  0  0
  149.1294  138.7965  158.1940 C   0  0  0  0  0  0  0  0  0  0  0  0
  148.1876  139.5728  158.3653 O   0  0  0  0  0  0  0  0  0  0  0  0
  149.1630  137.4943  158.5577 N   0  5  0  0  0  0  0  0  0  0  0  0
  148.3201  137.0360  159.4981 C   0  0  0  0  0  0  0  0  0  0  0  0
  147.3534  137.8019  160.0292 N   0  0  0  0  0  0  0  0  0  0  0  0
  146.5966  137.1404  160.9871 N   0  0  0  0  0  0  0  0  0  0  0  0
  147.0201  135.8888  161.1613 C   0  0  0  0  0  0  0  0  0  0  0  0
  148.3830  135.4054  160.1737 S   0  0  0  0  0  0  0  0  0  0  0  0
  151.2225  141.3667  158.2545 C   0  0  0  0  0  0  0  0  0  0  0  0
  151.5357  142.8424  157.8865 C   0  0  0  0  0  0  0  0  0  0  0  0
  152.0736  143.6407  159.0850 C   0  0  0  0  0  0  0  0  0  0  0  0
  153.3211  142.9785  159.6827 C   0  0  0  0  0  0  0  0  0  0  0  0
  153.0271  141.5248  160.0729 C   0  0  0  0  0  0  0  0  0  0  0  0
  152.4927  140.7231  158.8755 C   0  0  0  0  0  0  0  0  0  0  0  0
  149.5475  142.2970  156.3072 H   0  0  0  0  0  0  0  0  0  0  0  0
  148.5137  141.1890  157.2043 H   0  0  0  0  0  0  0  0  0  0  0  0
  149.0149  140.7996  155.5758 H   0  0  0  0  0  0  0  0  0  0  0  0
  152.0664  141.3228  155.6102 H   0  0  0  0  0  0  0  0  0  0  0  0
  152.4827  139.7459  156.2122 H   0  0  0  0  0  0  0  0  0  0  0  0
  151.4884  138.9253  154.6236 H   0  0  0  0  0  0  0  0  0  0  0  0
  150.9775  138.5074  157.4997 H   0  0  0  0  0  0  0  0  0  0  0  0
  146.5293  135.2478  161.8782 H   0  0  0  0  0  0  0  0  0  0  0  0
  150.4742  141.3925  159.0482 H   0  0  0  0  0  0  0  0  0  0  0  0
  152.2622  142.8822  157.0741 H   0  0  0  0  0  0  0  0  0  0  0  0
  150.6422  143.3494  157.5249 H   0  0  0  0  0  0  0  0  0  0  0  0
  152.3074  144.6601  158.7769 H   0  0  0  0  0  0  0  0  0  0  0  0
  151.2991  143.7193  159.8489 H   0  0  0  0  0  0  0  0  0  0  0  0
  154.1361  143.0076  158.9580 H   0  0  0  0  0  0  0  0  0  0  0  0
  153.6598  143.5383  160.5549 H   0  0  0  0  0  0  0  0  0  0  0  0
  153.9319  141.0549  160.4593 H   0  0  0  0  0  0  0  0  0  0  0  0
  152.2966  141.5025  160.8826 H   0  0  0  0  0  0  0  0  0  0  0  0
  152.2865  139.7098  159.2170 H   0  0  0  0  0  0  0  0  0  0  0  0
  153.2806  140.6407  158.1259 H   0  0  0  0  0  0  0  0  0  0  0  0
  1  2  1  0  0  0  0
  1 20  1  0  0  0  0
  1 21  1  0  0  0  0
  1 22  1  0  0  0  0
  2  3  1  0  0  0  0
  2  5  1  0  0  0  0
  2 14  1  0  0  0  0
  3  4  1  0  0  0  0
  3 23  1  0  0  0  0
  3 24  1  0  0  0  0
  4 25  1  0  0  0  0
  5  6  1  0  0  0  0
  5 26  1  0  0  0  0
  6  7  2  0  0  0  0
  6  8  1  0  0  0  0
  8  9  1  0  0  0  0
  9 13  1  0  0  0  0
  9 10  2  0  0  0  0
 10 11  1  0  0  0  0
 11 12  2  0  0  0  0
 12 13  1  0  0  0  0
 12 27  1  0  0  0  0
 14 19  1  0  0  0  0
 14 15  1  0  0  0  0
 14 28  1  0  0  0  0
 15 16  1  0  0  0  0
 15 29  1  0  0  0  0
 15 30  1  0  0  0  0
 16 17  1  0  0  0  0
 16 31  1  0  0  0  0
 16 32  1  0  0  0  0
 17 18  1  0  0  0  0
 17 33  1  0  0  0  0
 17 34  1  0  0  0  0
 18 19  1  0  0  0  0
 18 35  1  0  0  0  0
 18 36  1  0  0  0  0
 19 37  1  0  0  0  0
 19 38  1  0  0  0  0
M  CHG  1   8  -1
M  END
> <s_m_source_file>
AV-unprocessed.smi

> <i_m_source_file_index>
2663

> <i_lp_mmshare_version>
43012

> <i_f3d_flags>
0

> <s_epik_input>
W0NIMl0xW0NIMl1bQ0gyXVtDSDJdW0NIMl1bQ0hdMVtDQF0oW0NIM10pKFtDSDJdW09IXSlbTkhdQyg9TylbTkhdYzJubltjSF1zMg==

> <s_epik_cmdline>
J2VwaWtfcHl0aG9uJywgJy1waCcsICc3LjAnLCAnLXRuJywgJzgnLCAnLW1hJywgJzIwMCcsICctbWV0YWxfYmluZGluZycsICctaW1hZScsICc8aW5maWxlLm1hZT4nLCAnLW9tYWUnLCAnPG91dGZpbGUubWFlPic=

> <r_lp_tautomer_probability>
1

> <r_epik_Ionization_Penalty>
4.39194

> <r_epik_Ionization_Penalty_Charging>
4.34423

> <r_epik_Ionization_Penalty_Neutral>
0.047714

> <r_epik_State_Penalty>
4.34384

> <r_epik_Charging_Adjusted_Penalty>
8.68806

> <i_epik_Tot_Q>
-1

> <i_epik_Tot_abs_Q>
1

> <r_epik_Metal_State_Penalty>
0.746645

> <b_epik_Metal_Only>
1

> <s_lp_Force_Field>
OPLS_2005

> <r_lp_Energy>
18.1486

> <b_lp_Chiralities_Consistent>
1

> <s_lp_Variant>
AV-unprocessed.smi:2663-4

> <Gold.Version>
5.8.1

> <Gold.Id.Protein>
6NUR|6NUR_protein|mol2

> <Gold.PLP.Fitness>
35.6143

> <Gold.PLP.PLP>
-33.2026

> <Gold.PLP.part.hbond>
-3.9452

> <Gold.PLP.part.metal>
0.0000

> <Gold.PLP.part.buried>
-4.7076

> <Gold.PLP.part.nonpolar>
-25.5557

> <Gold.PLP.part.repulsive>
0.0532

> <Gold.PLP.ligand.clash>
0.0000

> <Gold.PLP.ligand.torsion>
0.7176

> <Gold.PLP.Chemscore.Hbond>
1.2592

> <Gold.PLP.Chemscore.CHOScore>
0.0000

> <Gold.PLP.Chemscore.Metal>
0.0000

> <Gold.Chemscore.Hbonds>
donor molecule, donor type, donor heavy atom, donor atom, acceptor molecule, acceptor atom, score
      P1  H  6934  6947       L1    10  0.25
      P1  H  7989  7998       L1     4  1.00

> <Gold.PLP.Chemscore.Internal.Correction>
0.0694

> <Gold.Rescore>
     Score         DG    S(hbond)    S(metal)    S(lipo)     H(rot)  DE(clash)    DE(int)     intcor
      9.01     -12.81       0.91        0.00      84.37       2.18       0.00       3.80       ----

> <Gold.Chemscore.Fitness>
9.0101

> <Gold.Chemscore.DG>
-12.8092

> <Gold.Chemscore.ZeroCoef>
-5.4800

> <Gold.Chemscore.Hbond>
0.9086

> <Gold.Chemscore.Metal>
0.0000

> <Gold.Chemscore.Lipo>
84.3661

> <Gold.Chemscore.Internal_Hbond>
0.0000

> <Gold.Chemscore.DEClash>
0.0038

> <Gold.Chemscore.DEInternal>
3.7953

> <Gold.Chemscore.Rot>
2.1783

> <Gold.Chemscore.Internal.Correction>
   9.000000E+99

> <Gold.Chemscore.Hbonds>
donor molecule, donor type, donor heavy atom, donor atom, acceptor molecule, acceptor atom, score
      P1  H  7989  7998       L1     4  0.15

> <Gold.Chemscore.Hbond.Weighted>
-3.0348

> <Gold.Chemscore.Metal.Weighted>
-0.0000

> <Gold.Chemscore.Lipo.Weighted>
-9.8708

> <Gold.Chemscore.Internal_Hbond.Weighted>
0.0000

> <Gold.Chemscore.DEClash.Weighted>
0.0038

> <Gold.Chemscore.DEInternal.Weighted>
3.7953

> <Gold.Chemscore.Rot.Weighted>
5.5765

> <Gold.Chemscore.Internal.Correction.Weighted>
   9.000000E+99

> <Gold.Protein.RotatedTorsions>
[ 6907 6896 6895 6894 ] final -103.44 input  -60.11 | X-H torsion
[ 7974 7965 7964 7962 ] final   -7.24 input  175.53 | X-H torsion
[ 8008 7997 7996 7995 ] final  139.97 input   59.86 | X-H torsion
[ 10167 10162 10161 10158 ] final   31.72 input  -65.29 | X-H torsion
[ 10718 10713 10712 10709 ] final -171.71 input   66.30 | X-H torsion
[ 10763 10752 10751 10750 ] final -174.37 input  -60.55 | X-H torsion
[ 11005 11000 10999 10996 ] final  135.50 input  -57.11 | X-H torsion

> <Gold.Protein.ActiveResidues>
 VAL166  LYS551  ARG553  GLY616  TRP617  ASP618  TYR619  PRO620  LYS621  CYS622 
 ASP623  PHE694  ASN695  SER759  ASP760  ASP761  ALA762  ILE779  LEU786  VAL792 
 PHE793  MET794  SER795  GLU796  ALA797  LYS798  CYS799  TRP800  GLU811  SER814 

> <Gold.Protein.RotatedAtoms>
  150.7241  134.0428  159.3771 H   0  0  0  0  0  0  0  0  0  0  0  0  # atno 6907 bound_to 6896
  151.8402  135.0590  160.0456 H   0  0  0  0  0  0  0  0  0  0  0  0  # atno 6908 bound_to 6896
  152.2868  133.5487  159.5568 H   0  0  0  0  0  0  0  0  0  0  0  0  # atno 6909 bound_to 6896
  146.2311  140.2291  142.8339 H   0  0  0  0  0  0  0  0  0  0  0  0  # atno 7974 bound_to 7965
  156.2984  140.2354  156.4324 H   0  0  0  0  0  0  0  0  0  0  0  0  # atno 8008 bound_to 7997
  154.8258  140.0435  157.1463 H   0  0  0  0  0  0  0  0  0  0  0  0  # atno 8009 bound_to 7997
  154.9263  140.3010  155.5194 H   0  0  0  0  0  0  0  0  0  0  0  0  # atno 8010 bound_to 7997
  140.4563  144.0973  150.6202 H   0  0  0  0  0  0  0  0  0  0  0  0  # atno 10167 bound_to 10162
  156.7448  130.9356  151.3112 H   0  0  0  0  0  0  0  0  0  0  0  0  # atno 10718 bound_to 10713
  154.5970  135.2850  155.0576 H   0  0  0  0  0  0  0  0  0  0  0  0  # atno 10763 bound_to 10752
  154.1855  135.6449  153.5049 H   0  0  0  0  0  0  0  0  0  0  0  0  # atno 10764 bound_to 10752
  153.0142  135.5434  154.6675 H   0  0  0  0  0  0  0  0  0  0  0  0  # atno 10765 bound_to 10752
  139.9984  134.9488  157.0017 H   0  0  0  0  0  0  0  0  0  0  0  0  # atno 11005 bound_to 11000
  144.9572  140.8239  143.5535 LP  0  0  0  0  0  0  0  0  0  0  0  0  # atno 17320 bound_to 7965
  145.2257  139.2138  143.5069 LP  0  0  0  0  0  0  0  0  0  0  0  0  # atno 17321 bound_to 7965
  140.4147  143.2640  151.9790 LP  0  0  0  0  0  0  0  0  0  0  0  0  # atno 17342 bound_to 10162
  139.4801  144.5884  151.7813 LP  0  0  0  0  0  0  0  0  0  0  0  0  # atno 17343 bound_to 10162
  157.6803  130.9133  150.0250 LP  0  0  0  0  0  0  0  0  0  0  0  0  # atno 17370 bound_to 10713
  156.1440  130.3642  149.9538 LP  0  0  0  0  0  0  0  0  0  0  0  0  # atno 17371 bound_to 10713
  140.4774  134.1324  155.7212 LP  0  0  0  0  0  0  0  0  0  0  0  0  # atno 17394 bound_to 11000
  141.1623  133.8770  157.1814 LP  0  0  0  0  0  0  0  0  0  0  0  0  # atno 17395 bound_to 11000

$$$$
