AV-unprocessed.smi:157|AV-procd|sdf|1311|dock2
  -GOLD-   2262019 03D 1   1.00000     0.00000
 Structure written by MMmdl.
 36 38  0  0  0  0  0  0  0  0  2 V2000
  155.1114  138.6151  154.7095 O   0  0  0  0  0  0  0  0  0  0  0  0
  153.8304  139.1256  154.4094 C   0  0  0  0  0  0  0  0  0  0  0  0
  152.7614  138.4265  155.2650 C   0  0  1  0  0  0  0  0  0  0  0  0
  152.7839  138.9311  156.6042 O   0  0  0  0  0  0  0  0  0  0  0  0
  151.4870  139.1970  157.0569 C   0  0  1  0  0  0  0  0  0  0  0  0
  151.2629  140.6822  157.0275 N   0  0  0  0  0  0  0  0  0  0  0  0
  150.5193  141.3796  156.1405 C   0  0  0  0  0  0  0  0  0  0  0  0
  150.5117  142.6866  156.3397 N   0  3  0  0  0  0  0  0  0  0  0  0
  151.3214  142.9201  157.4299 C   0  0  0  0  0  0  0  0  0  0  0  0
  151.7794  141.6658  157.8414 C   0  0  0  0  0  0  0  0  0  0  0  0
  152.6446  141.3282  158.8935 N   0  0  0  0  0  0  0  0  0  0  0  0
  152.9271  142.1394  159.8605 C   0  0  0  0  0  0  0  0  0  0  0  0
  152.5547  143.4627  160.0274 N   0  0  0  0  0  0  0  0  0  0  0  0
  152.6497  144.4510  158.9679 C   0  0  0  0  0  0  0  0  0  0  0  0
  151.5518  144.3212  157.9038 C   0  0  2  0  0  0  0  0  0  0  0  0
  150.3741  144.9283  158.3941 O   0  0  0  0  0  0  0  0  0  0  0  0
  150.5444  138.5041  156.0735 C   0  0  0  0  0  0  0  0  0  0  0  0
  151.3198  138.6220  154.7784 C   0  0  2  0  0  0  0  0  0  0  0  0
  150.9155  137.6240  153.8648 O   0  0  0  0  0  0  0  0  0  0  0  0
  152.9852  137.3606  155.3418 H   0  0  0  0  0  0  0  0  0  0  0  0
  151.3425  138.9159  158.1006 H   0  0  0  0  0  0  0  0  0  0  0  0
  151.8574  144.9148  157.0416 H   0  0  0  0  0  0  0  0  0  0  0  0
  151.1813  139.6122  154.3420 H   0  0  0  0  0  0  0  0  0  0  0  0
  155.0757  137.6713  154.6751 H   0  0  0  0  0  0  0  0  0  0  0  0
  153.8330  140.1962  154.6159 H   0  0  0  0  0  0  0  0  0  0  0  0
  153.6323  139.0010  153.3451 H   0  0  0  0  0  0  0  0  0  0  0  0
  149.9831  140.9146  155.3340 H   0  0  0  0  0  0  0  0  0  0  0  0
  153.5497  141.7833  160.6825 H   0  0  0  0  0  0  0  0  0  0  0  0
  152.6701  143.8860  160.9375 H   0  0  0  0  0  0  0  0  0  0  0  0
  152.6555  145.4528  159.3992 H   0  0  0  0  0  0  0  0  0  0  0  0
  153.6220  144.3227  158.4894 H   0  0  0  0  0  0  0  0  0  0  0  0
  149.7341  144.9558  157.6996 H   0  0  0  0  0  0  0  0  0  0  0  0
  150.4406  137.4612  156.3772 H   0  0  0  0  0  0  0  0  0  0  0  0
  149.5554  138.9615  156.0425 H   0  0  0  0  0  0  0  0  0  0  0  0
  151.6021  137.5058  153.2255 H   0  0  0  0  0  0  0  0  0  0  0  0
  150.0201  143.3763  155.7857 H   0  0  0  0  0  0  0  0  0  0  0  0
  1  2  1  0  0  0  0
  1 24  1  0  0  0  0
  2  3  1  0  0  0  0
  2 25  1  0  0  0  0
  2 26  1  0  0  0  0
  3 20  1  0  0  0  0
  3 18  1  0  0  0  0
  3  4  1  0  0  0  0
  4  5  1  0  0  0  0
  5 21  1  0  0  0  0
  5  6  1  0  0  0  0
  5 17  1  0  0  0  0
  6 10  1  0  0  0  0
  6  7  1  0  0  0  0
  7  8  2  0  0  0  0
  7 27  1  0  0  0  0
  8  9  1  0  0  0  0
  8 36  1  0  0  0  0
  9 15  1  0  0  0  0
  9 10  2  0  0  0  0
 10 11  1  0  0  0  0
 11 12  2  0  0  0  0
 12 13  1  0  0  0  0
 12 28  1  0  0  0  0
 13 14  1  0  0  0  0
 13 29  1  0  0  0  0
 14 15  1  0  0  0  0
 14 30  1  0  0  0  0
 14 31  1  0  0  0  0
 15 22  1  0  0  0  0
 15 16  1  0  0  0  0
 16 32  1  0  0  0  0
 17 18  1  0  0  0  0
 17 33  1  0  0  0  0
 17 34  1  0  0  0  0
 18 23  1  0  0  0  0
 18 19  1  0  0  0  0
 19 35  1  0  0  0  0
M  CHG  1   8   1
M  END
> <s_m_source_file>
AV-unprocessed.smi

> <i_m_source_file_index>
157

> <i_lp_mmshare_version>
43012

> <i_f3d_flags>
0

> <s_epik_input>
W09IXVtDSDJdW0NASF0xT1tDQEhdKFtDSDJdW0NAQEhdMVtPSF0pbihbY0hdbjIpYyhjMjMpTj1bQ0hdW05IXVtDSDJdW0NASF0zW09IXQ==

> <s_epik_cmdline>
J2VwaWtfcHl0aG9uJywgJy1waCcsICc3LjAnLCAnLXRuJywgJzgnLCAnLW1hJywgJzIwMCcsICctbWV0YWxfYmluZGluZycsICctaW1hZScsICc8aW5maWxlLm1hZT4nLCAnLW9tYWUnLCAnPG91dGZpbGUubWFlPic=

> <r_epik_Ionization_Penalty>
1.68594

> <r_epik_Ionization_Penalty_Charging>
0

> <r_epik_Ionization_Penalty_Neutral>
1.68594

> <r_epik_State_Penalty>
1.79006

> <r_epik_Charging_Adjusted_Penalty>
1.79006

> <i_epik_Tot_Q>
1

> <i_epik_Tot_abs_Q>
1

> <r_epik_Metal_State_Penalty>
5.85324

> <b_epik_Metal_Only>
0

> <s_epik_Chemistry_Notes>
This compound has an imine and may undergo hydrolysis. This compound contains an acetal/aminal-like group ( X-CH(R)-Y where X, Y are N, S, or O) that may be acid/base labile, releasing an aldehyde.

> <s_lp_Force_Field>
OPLS_2005

> <r_lp_Energy>
51.6948

> <b_lp_Chiralities_Consistent>
1

> <s_lp_Variant>
AV-unprocessed.smi:157-21

> <Gold.Version>
5.8.1

> <Gold.Id.Protein>
6NUR|6NUR_protein|mol2

> <Gold.PLP.Fitness>
48.2467

> <Gold.PLP.PLP>
-38.3872

> <Gold.PLP.part.hbond>
-6.6331

> <Gold.PLP.part.metal>
0.0000

> <Gold.PLP.part.buried>
-4.7437

> <Gold.PLP.part.nonpolar>
-27.6942

> <Gold.PLP.part.repulsive>
0.1361

> <Gold.PLP.ligand.clash>
0.0000

> <Gold.PLP.ligand.torsion>
0.3552

> <Gold.PLP.Chemscore.Hbond>
3.5151

> <Gold.PLP.Chemscore.CHOScore>
0.0000

> <Gold.PLP.Chemscore.Metal>
0.0000

> <Gold.Chemscore.Hbonds>
donor molecule, donor type, donor heavy atom, donor atom, acceptor molecule, acceptor atom, score
      L1  H     8    36       P1  8028  2.00
      L1  H    16    32       P1  8029  0.25
      L1  H    19    35       P1  7949  0.08
      P1  H  7997  8008       L1     4  1.00
      P1  H  7997  8009       L1     1  0.16

> <Gold.PLP.Chemscore.Internal.Correction>
0.0245

> <Gold.Rescore>
     Score         DG    S(hbond)    S(metal)    S(lipo)     H(rot)  DE(clash)    DE(int)     intcor
      9.01      -9.99       1.75        0.00      68.71       3.67       0.79       0.19       ----

> <Gold.Chemscore.Fitness>
9.0061

> <Gold.Chemscore.DG>
-9.9868

> <Gold.Chemscore.ZeroCoef>
-5.4800

> <Gold.Chemscore.Hbond>
1.7524

> <Gold.Chemscore.Metal>
0.0000

> <Gold.Chemscore.Lipo>
68.7067

> <Gold.Chemscore.Internal_Hbond>
0.0000

> <Gold.Chemscore.DEClash>
0.7920

> <Gold.Chemscore.DEInternal>
0.1887

> <Gold.Chemscore.Rot>
3.6659

> <Gold.Chemscore.Internal.Correction>
   9.000000E+99

> <Gold.Chemscore.Hbonds>
donor molecule, donor type, donor heavy atom, donor atom, acceptor molecule, acceptor atom, score
      L1  H     8    36       P1  8028  0.95
      L1  H    16    32       P1  8029  0.01
      L1  H    19    35       P1  7949  0.07
      P1  H  7997  8008       L1     4  0.25
      P1  H  7997  8009       L1     1  0.01

> <Gold.Chemscore.Hbond.Weighted>
-5.8529

> <Gold.Chemscore.Metal.Weighted>
-0.0000

> <Gold.Chemscore.Lipo.Weighted>
-8.0387

> <Gold.Chemscore.Internal_Hbond.Weighted>
0.0000

> <Gold.Chemscore.DEClash.Weighted>
0.7920

> <Gold.Chemscore.DEInternal.Weighted>
0.1887

> <Gold.Chemscore.Rot.Weighted>
9.3848

> <Gold.Chemscore.Internal.Correction.Weighted>
   9.000000E+99

> <Gold.Protein.RotatedTorsions>
[ 6907 6896 6895 6894 ] final   61.75 input  -60.11 | X-H torsion
[ 7974 7965 7964 7962 ] final  169.80 input  175.53 | X-H torsion
[ 8008 7997 7996 7995 ] final  -53.40 input   59.86 | X-H torsion
[ 10167 10162 10161 10158 ] final  150.15 input  -65.29 | X-H torsion
[ 10718 10713 10712 10709 ] final  152.12 input   66.30 | X-H torsion
[ 10763 10752 10751 10750 ] final   21.17 input  -60.55 | X-H torsion
[ 11005 11000 10999 10996 ] final  -44.36 input  -57.11 | X-H torsion

> <Gold.Protein.ActiveResidues>
 VAL166  LYS551  ARG553  GLY616  TRP617  ASP618  TYR619  PRO620  LYS621  CYS622 
 ASP623  PHE694  ASN695  SER759  ASP760  ASP761  ALA762  ILE779  LEU786  VAL792 
 PHE793  MET794  SER795  GLU796  ALA797  LYS798  CYS799  TRP800  GLU811  SER814 

> <Gold.Protein.RotatedAtoms>
  152.4115  134.6116  160.0026 H   0  0  0  0  0  0  0  0  0  0  0  0  # atno 6907 bound_to 6896
  151.6291  133.3327  159.3113 H   0  0  0  0  0  0  0  0  0  0  0  0  # atno 6908 bound_to 6896
  150.8006  134.7137  159.6663 H   0  0  0  0  0  0  0  0  0  0  0  0  # atno 6909 bound_to 6896
  144.7344  139.9107  143.6415 H   0  0  0  0  0  0  0  0  0  0  0  0  # atno 7974 bound_to 7965
  154.4132  140.1201  156.5147 H   0  0  0  0  0  0  0  0  0  0  0  0  # atno 8008 bound_to 7997
  155.6763  140.3496  155.4818 H   0  0  0  0  0  0  0  0  0  0  0  0  # atno 8009 bound_to 7997
  155.9589  140.1119  157.0902 H   0  0  0  0  0  0  0  0  0  0  0  0  # atno 8010 bound_to 7997
  139.4853  144.5545  151.7342 H   0  0  0  0  0  0  0  0  0  0  0  0  # atno 10167 bound_to 10162
  157.2619  131.0800  151.1659 H   0  0  0  0  0  0  0  0  0  0  0  0  # atno 10718 bound_to 10713
  153.1017  135.6674  153.9661 H   0  0  0  0  0  0  0  0  0  0  0  0  # atno 10763 bound_to 10752
  153.9230  135.3012  155.3448 H   0  0  0  0  0  0  0  0  0  0  0  0  # atno 10764 bound_to 10752
  154.7437  135.5067  153.9243 H   0  0  0  0  0  0  0  0  0  0  0  0  # atno 10765 bound_to 10752
  141.0445  133.6766  156.2862 H   0  0  0  0  0  0  0  0  0  0  0  0  # atno 11005 bound_to 11000
  146.1003  139.3998  143.0351 LP  0  0  0  0  0  0  0  0  0  0  0  0  # atno 17320 bound_to 7965
  145.7588  140.9943  143.1211 LP  0  0  0  0  0  0  0  0  0  0  0  0  # atno 17321 bound_to 7965
  140.5105  144.1033  150.5994 LP  0  0  0  0  0  0  0  0  0  0  0  0  # atno 17342 bound_to 10162
  140.3957  143.2729  152.0008 LP  0  0  0  0  0  0  0  0  0  0  0  0  # atno 17343 bound_to 10162
  157.3166  130.6916  149.6245 LP  0  0  0  0  0  0  0  0  0  0  0  0  # atno 17370 bound_to 10713
  155.9664  130.4348  150.5063 LP  0  0  0  0  0  0  0  0  0  0  0  0  # atno 17371 bound_to 10713
  140.6172  134.5398  157.5542 LP  0  0  0  0  0  0  0  0  0  0  0  0  # atno 17394 bound_to 11000
  139.9301  134.7980  156.0955 LP  0  0  0  0  0  0  0  0  0  0  0  0  # atno 17395 bound_to 11000

$$$$
