AV-unprocessed.smi:270|AV-procd|sdf|2047|dock2
  -GOLD-   2262021273D 1   1.00000     0.00000
 Structure written by MMmdl.
 54 57  0  0  0  0  0  0  0  0  1 V2000
  145.3667  131.7626  151.2124 C   0  0  0  0  0  0  0  0  0  0  0  0
  144.9278  133.0905  151.8511 C   0  0  2  0  0  0  0  0  0  0  0  0
  144.1513  133.8600  150.9333 O   0  0  0  0  0  0  0  0  0  0  0  0
  144.7469  135.1348  150.7381 C   0  0  0  0  0  0  0  0  0  0  0  0
  145.5124  135.3944  152.0291 C   0  0  0  0  0  0  0  0  0  0  0  0
  146.0542  134.0137  152.3725 C   0  0  2  0  0  0  0  0  0  0  0  0
  147.2537  133.8115  151.6417 O   0  0  0  0  0  0  0  0  0  0  0  0
  146.3536  133.8112  153.8767 C   0  0  0  0  0  0  0  0  0  0  0  0
  147.2187  134.8381  154.4360 N   0  0  0  0  0  0  0  0  0  0  0  0
  146.9368  136.1798  154.5538 C   0  0  0  0  0  0  0  0  0  0  0  0
  147.8839  136.9014  155.0876 N   0  0  0  0  0  0  0  0  0  0  0  0
  148.8960  135.9894  155.3664 C   0  0  0  0  0  0  0  0  0  0  0  0
  150.1948  136.1029  155.9438 C   0  0  0  0  0  0  0  0  0  0  0  0
  150.7603  137.3257  156.4089 N   0  0  0  0  0  0  0  0  0  0  0  0
  152.0666  137.6736  155.8691 C   0  0  0  0  0  0  0  0  0  0  0  0
  152.4721  138.0578  157.2954 C   0  0  0  0  0  0  0  0  0  0  0  0
  152.4643  139.4556  157.5406 O   0  0  0  0  0  0  0  0  0  0  0  0
  152.2383  139.7739  158.9047 C   0  0  0  0  0  0  0  0  0  0  0  0
  151.9103  141.2675  159.0186 C   0  0  0  0  0  0  0  0  0  0  0  0
  150.9852  141.7144  158.3390 O   0  0  0  0  0  0  0  0  0  0  0  0
  152.6357  142.0439  159.8574 N   0  0  0  0  0  0  0  0  0  0  0  0
  153.7340  141.5271  160.6799 C   0  0  0  0  0  0  0  0  0  0  0  0
  152.3385  143.4733  159.9841 C   0  0  0  0  0  0  0  0  0  0  0  0
  151.1977  137.3795  157.7993 C   0  0  0  0  0  0  0  0  0  0  0  0
  150.8923  134.9433  156.0844 N   0  0  0  0  0  0  0  0  0  0  0  0
  150.3886  133.7773  155.6703 C   0  0  0  0  0  0  0  0  0  0  0  0
  149.2080  133.5360  155.1006 N   0  0  0  0  0  0  0  0  0  0  0  0
  148.4854  134.6837  154.9716 C   0  0  0  0  0  0  0  0  0  0  0  0
  145.9748  131.1777  151.9028 H   0  0  0  0  0  0  0  0  0  0  0  0
  145.9478  131.9256  150.3044 H   0  0  0  0  0  0  0  0  0  0  0  0
  144.5000  131.1595  150.9411 H   0  0  0  0  0  0  0  0  0  0  0  0
  144.2528  132.8600  152.6764 H   0  0  0  0  0  0  0  0  0  0  0  0
  145.4294  135.0842  149.8885 H   0  0  0  0  0  0  0  0  0  0  0  0
  143.9980  135.8989  150.5294 H   0  0  0  0  0  0  0  0  0  0  0  0
  146.2843  136.1582  151.9238 H   0  0  0  0  0  0  0  0  0  0  0  0
  144.8141  135.7277  152.7982 H   0  0  0  0  0  0  0  0  0  0  0  0
  147.6964  134.6419  151.5544 H   0  0  0  0  0  0  0  0  0  0  0  0
  145.4250  133.8083  154.4491 H   0  0  0  0  0  0  0  0  0  0  0  0
  146.8166  132.8375  154.0428 H   0  0  0  0  0  0  0  0  0  0  0  0
  146.0026  136.6104  154.2239 H   0  0  0  0  0  0  0  0  0  0  0  0
  152.6240  136.8173  155.4865 H   0  0  0  0  0  0  0  0  0  0  0  0
  152.0325  138.5028  155.1622 H   0  0  0  0  0  0  0  0  0  0  0  0
  153.3769  137.5583  157.6459 H   0  0  0  0  0  0  0  0  0  0  0  0
  151.3996  139.1876  159.2841 H   0  0  0  0  0  0  0  0  0  0  0  0
  153.1021  139.5285  159.5232 H   0  0  0  0  0  0  0  0  0  0  0  0
  153.3805  140.7451  161.3525 H   0  0  0  0  0  0  0  0  0  0  0  0
  154.1920  142.2956  161.3025 H   0  0  0  0  0  0  0  0  0  0  0  0
  154.5255  141.1122  160.0549 H   0  0  0  0  0  0  0  0  0  0  0  0
  152.4302  143.9700  159.0170 H   0  0  0  0  0  0  0  0  0  0  0  0
  153.0043  143.9893  160.6757 H   0  0  0  0  0  0  0  0  0  0  0  0
  151.3193  143.6202  160.3446 H   0  0  0  0  0  0  0  0  0  0  0  0
  150.5685  138.0102  158.4278 H   0  0  0  0  0  0  0  0  0  0  0  0
  151.3947  136.4050  158.2486 H   0  0  0  0  0  0  0  0  0  0  0  0
  151.0228  132.9152  155.8161 H   0  0  0  0  0  0  0  0  0  0  0  0
  1  2  1  0  0  0  0
  1 29  1  0  0  0  0
  1 30  1  0  0  0  0
  1 31  1  0  0  0  0
  2  6  1  0  0  0  0
  2  3  1  0  0  0  0
  2 32  1  0  0  0  0
  3  4  1  0  0  0  0
  4  5  1  0  0  0  0
  4 33  1  0  0  0  0
  4 34  1  0  0  0  0
  5  6  1  0  0  0  0
  5 35  1  0  0  0  0
  5 36  1  0  0  0  0
  6  7  1  0  0  0  0
  6  8  1  0  0  0  0
  7 37  1  0  0  0  0
  8  9  1  0  0  0  0
  8 38  1  0  0  0  0
  8 39  1  0  0  0  0
  9 28  1  0  0  0  0
  9 10  1  0  0  0  0
 10 11  2  0  0  0  0
 10 40  1  0  0  0  0
 11 12  1  0  0  0  0
 12 28  2  0  0  0  0
 12 13  1  0  0  0  0
 13 14  1  0  0  0  0
 13 25  2  0  0  0  0
 14 24  1  0  0  0  0
 14 15  1  0  0  0  0
 15 16  1  0  0  0  0
 15 41  1  0  0  0  0
 15 42  1  0  0  0  0
 16 17  1  0  0  0  0
 16 24  1  0  0  0  0
 16 43  1  0  0  0  0
 17 18  1  0  0  0  0
 18 19  1  0  0  0  0
 18 44  1  0  0  0  0
 18 45  1  0  0  0  0
 19 20  2  0  0  0  0
 19 21  1  0  0  0  0
 21 22  1  0  0  0  0
 21 23  1  0  0  0  0
 22 46  1  0  0  0  0
 22 47  1  0  0  0  0
 22 48  1  0  0  0  0
 23 49  1  0  0  0  0
 23 50  1  0  0  0  0
 23 51  1  0  0  0  0
 24 52  1  0  0  0  0
 24 53  1  0  0  0  0
 25 26  1  0  0  0  0
 26 27  2  0  0  0  0
 26 54  1  0  0  0  0
 27 28  1  0  0  0  0
M  END
> <s_m_source_file>
AV-unprocessed.smi

> <i_m_source_file_index>
270

> <i_lp_mmshare_version>
43012

> <i_f3d_flags>
0

> <s_epik_input>
W0NIMl0xW0NIMl1PW0NAQEhdKFtDSDNdKVtDQEBdMShbT0hdKVtDSDJdbihbY0hdbjIpYyhjMjMpbltjSF1uYzNONFtDSDJdW0NIXShbQ0gyXTQpT1tDSDJdQyg9TylOKFtDSDNdKVtDSDNd

> <s_epik_cmdline>
J2VwaWtfcHl0aG9uJywgJy1waCcsICc3LjAnLCAnLXRuJywgJzgnLCAnLW1hJywgJzIwMCcsICctbWV0YWxfYmluZGluZycsICctaW1hZScsICc8aW5maWxlLm1hZT4nLCAnLW9tYWUnLCAnPG91dGZpbGUubWFlPic=

> <r_lp_tautomer_probability>
1

> <r_epik_Ionization_Penalty>
0.00375854

> <r_epik_Ionization_Penalty_Charging>
0

> <r_epik_Ionization_Penalty_Neutral>
0.00375854

> <r_epik_State_Penalty>
-0

> <r_epik_Charging_Adjusted_Penalty>
0

> <i_epik_Tot_Q>
0

> <i_epik_Tot_abs_Q>
0

> <r_epik_Metal_State_Penalty>
-0

> <b_epik_Metal_Only>
0

> <s_lp_Force_Field>
OPLS_2005

> <r_lp_Energy>
53.9225

> <b_lp_Chiralities_Consistent>
1

> <s_lp_Variant>
AV-unprocessed.smi:270-3

> <Gold.Version>
5.8.1

> <Gold.Id.Protein>
6NUR|6NUR_protein|mol2

> <Gold.PLP.Fitness>
42.9482

> <Gold.PLP.PLP>
-37.3722

> <Gold.PLP.part.hbond>
-2.0000

> <Gold.PLP.part.metal>
0.0000

> <Gold.PLP.part.buried>
-6.3049

> <Gold.PLP.part.nonpolar>
-30.0457

> <Gold.PLP.part.repulsive>
0.4087

> <Gold.PLP.ligand.clash>
0.0000

> <Gold.PLP.ligand.torsion>
0.3604

> <Gold.PLP.Chemscore.Hbond>
2.0000

> <Gold.PLP.Chemscore.CHOScore>
0.0000

> <Gold.PLP.Chemscore.Metal>
0.0000

> <Gold.Chemscore.Hbonds>
donor molecule, donor type, donor heavy atom, donor atom, acceptor molecule, acceptor atom, score
      L1  H     7    37       P1  7948  0.90
      P1  H  7997  8008       L1    17  0.52

> <Gold.PLP.Chemscore.Internal.Correction>
0.2969

> <Gold.Rescore>
     Score         DG    S(hbond)    S(metal)    S(lipo)     H(rot)  DE(clash)    DE(int)     intcor
     10.78     -11.68       1.76        0.00      70.98       3.12       0.11       0.78       ----

> <Gold.Chemscore.Fitness>
10.7795

> <Gold.Chemscore.DG>
-11.6778

> <Gold.Chemscore.ZeroCoef>
-5.4800

> <Gold.Chemscore.Hbond>
1.7633

> <Gold.Chemscore.Metal>
0.0000

> <Gold.Chemscore.Lipo>
70.9756

> <Gold.Chemscore.Internal_Hbond>
0.0000

> <Gold.Chemscore.DEClash>
0.1150

> <Gold.Chemscore.DEInternal>
0.7834

> <Gold.Chemscore.Rot>
3.1234

> <Gold.Chemscore.Internal.Correction>
   9.000000E+99

> <Gold.Chemscore.Hbonds>
donor molecule, donor type, donor heavy atom, donor atom, acceptor molecule, acceptor atom, score
      L1  H     7    37       P1  7948  0.17
      P1  H  7997  8008       L1    17  0.18

> <Gold.Chemscore.Hbond.Weighted>
-5.8895

> <Gold.Chemscore.Metal.Weighted>
-0.0000

> <Gold.Chemscore.Lipo.Weighted>
-8.3041

> <Gold.Chemscore.Internal_Hbond.Weighted>
0.0000

> <Gold.Chemscore.DEClash.Weighted>
0.1150

> <Gold.Chemscore.DEInternal.Weighted>
0.7834

> <Gold.Chemscore.Rot.Weighted>
7.9959

> <Gold.Chemscore.Internal.Correction.Weighted>
   9.000000E+99

> <Gold.Protein.RotatedTorsions>
[ 6907 6896 6895 6894 ] final  -54.94 input  -60.11 | X-H torsion
[ 7974 7965 7964 7962 ] final   76.92 input  175.53 | X-H torsion
[ 8008 7997 7996 7995 ] final  -54.49 input   59.86 | X-H torsion
[ 10167 10162 10161 10158 ] final  -71.85 input  -65.29 | X-H torsion
[ 10718 10713 10712 10709 ] final    6.42 input   66.30 | X-H torsion
[ 10763 10752 10751 10750 ] final   25.51 input  -60.55 | X-H torsion
[ 11005 11000 10999 10996 ] final    1.82 input  -57.11 | X-H torsion

> <Gold.Protein.ActiveResidues>
 VAL166  LYS551  ARG553  GLY616  TRP617  ASP618  TYR619  PRO620  LYS621  CYS622 
 ASP623  PHE694  ASN695  SER759  ASP760  ASP761  ALA762  ILE779  LEU786  VAL792 
 PHE793  MET794  SER795  GLU796  ALA797  LYS798  CYS799  TRP800  GLU811  SER814 

> <Gold.Protein.RotatedAtoms>
  150.8295  134.7541  159.6840 H   0  0  0  0  0  0  0  0  0  0  0  0  # atno 6907 bound_to 6896
  152.4401  134.5604  159.9902 H   0  0  0  0  0  0  0  0  0  0  0  0  # atno 6908 bound_to 6896
  151.5769  133.3345  159.3036 H   0  0  0  0  0  0  0  0  0  0  0  0  # atno 6909 bound_to 6896
  145.6967  139.2569  143.1729 H   0  0  0  0  0  0  0  0  0  0  0  0  # atno 7974 bound_to 7965
  154.4164  140.1175  156.5324 H   0  0  0  0  0  0  0  0  0  0  0  0  # atno 8008 bound_to 7997
  155.6591  140.3496  155.4757 H   0  0  0  0  0  0  0  0  0  0  0  0  # atno 8009 bound_to 7997
  155.9728  140.1145  157.0787 H   0  0  0  0  0  0  0  0  0  0  0  0  # atno 8010 bound_to 7997
  140.5239  143.2328  151.7381 H   0  0  0  0  0  0  0  0  0  0  0  0  # atno 10167 bound_to 10162
  156.9219  130.5794  149.5648 H   0  0  0  0  0  0  0  0  0  0  0  0  # atno 10718 bound_to 10713
  153.0687  135.6581  154.0296 H   0  0  0  0  0  0  0  0  0  0  0  0  # atno 10763 bound_to 10752
  153.9947  135.2942  155.3410 H   0  0  0  0  0  0  0  0  0  0  0  0  # atno 10764 bound_to 10752
  154.7054  135.5227  153.8656 H   0  0  0  0  0  0  0  0  0  0  0  0  # atno 10765 bound_to 10752
  140.6112  133.9747  155.8178 H   0  0  0  0  0  0  0  0  0  0  0  0  # atno 11005 bound_to 11000
  146.0834  140.7738  142.9630 LP  0  0  0  0  0  0  0  0  0  0  0  0  # atno 17320 bound_to 7965
  144.6980  140.3525  143.7179 LP  0  0  0  0  0  0  0  0  0  0  0  0  # atno 17321 bound_to 7965
  139.4932  144.4214  151.9974 LP  0  0  0  0  0  0  0  0  0  0  0  0  # atno 17342 bound_to 10162
  140.3312  144.3314  150.5987 LP  0  0  0  0  0  0  0  0  0  0  0  0  # atno 17343 bound_to 10162
  156.0487  130.5560  150.8940 LP  0  0  0  0  0  0  0  0  0  0  0  0  # atno 17370 bound_to 10713
  157.5902  131.0944  150.9131 LP  0  0  0  0  0  0  0  0  0  0  0  0  # atno 17371 bound_to 10713
  141.0807  134.0067  157.3390 LP  0  0  0  0  0  0  0  0  0  0  0  0  # atno 17394 bound_to 11000
  139.9191  135.0199  156.7998 LP  0  0  0  0  0  0  0  0  0  0  0  0  # atno 17395 bound_to 11000

$$$$
