AV-unprocessed.smi:1525|AV-procd|sdf|6145|dock7
  -GOLD-   22720 6293D 1   1.00000     0.00000
 Structure written by MMmdl.
 49 51  0  0  0  0  0  0  0  0  4 V2000
  152.2712  138.3263  159.2778 O   0  0  0  0  0  0  0  0  0  0  0  0
  151.1260  138.1288  158.8557 C   0  0  0  0  0  0  0  0  0  0  0  0
  150.4182  136.9683  158.8797 N   0  5  0  0  0  0  0  0  0  0  0  0
  148.9888  136.8670  159.1686 C   0  0  0  0  0  0  0  0  0  0  0  0
  148.5703  135.3847  159.2502 C   0  0  0  0  0  0  0  0  0  0  0  0
  147.6043  135.1375  160.3528 N   0  3  0  0  0  0  0  0  0  0  0  0
  147.5191  133.7135  160.7713 C   0  0  0  0  0  0  0  0  0  0  0  0
  146.4539  133.5396  161.8662 C   0  0  0  0  0  0  0  0  0  0  0  0
  146.7613  134.3828  162.9697 O   0  0  0  0  0  0  0  0  0  0  0  0
  146.7657  135.7573  162.6045 C   0  0  0  0  0  0  0  0  0  0  0  0
  147.8397  136.0052  161.5323 C   0  0  0  0  0  0  0  0  0  0  0  0
  150.4240  139.1320  158.3040 N   0  0  0  0  0  0  0  0  0  0  0  0
  150.7890  140.4988  158.1621 C   0  0  0  0  0  0  0  0  0  0  0  0
  151.8487  141.0664  158.9130 C   0  0  0  0  0  0  0  0  0  0  0  0
  152.2037  142.4149  158.7138 C   0  0  0  0  0  0  0  0  0  0  0  0
  151.5025  143.1719  157.7573 C   0  0  0  0  0  0  0  0  0  0  0  0
  150.5096  142.5981  157.0458 N   0  3  0  0  0  0  0  0  0  0  0  0
  150.1259  141.3105  157.1996 C   0  0  0  0  0  0  0  0  0  0  0  0
  149.0709  140.8873  156.3730 N   0  0  0  0  0  0  0  0  0  0  0  0
  149.3461  140.8322  154.9401 C   0  0  0  0  0  0  0  0  0  0  0  0
  148.2240  141.6145  154.2510 C   0  0  0  0  0  0  0  0  0  0  0  0
  147.0740  141.5314  155.2488 C   0  0  0  0  0  0  0  0  0  0  0  0
  147.7919  141.5496  156.5976 C   0  0  0  0  0  0  0  0  0  0  0  0
  148.7161  137.3684  160.0984 H   0  0  0  0  0  0  0  0  0  0  0  0
  148.4005  137.3584  158.3935 H   0  0  0  0  0  0  0  0  0  0  0  0
  148.1534  135.0425  158.3015 H   0  0  0  0  0  0  0  0  0  0  0  0
  149.4690  134.7879  159.4149 H   0  0  0  0  0  0  0  0  0  0  0  0
  147.2713  133.0810  159.9182 H   0  0  0  0  0  0  0  0  0  0  0  0
  148.4902  133.3818  161.1423 H   0  0  0  0  0  0  0  0  0  0  0  0
  145.4588  133.7691  161.4816 H   0  0  0  0  0  0  0  0  0  0  0  0
  146.4326  132.5047  162.2078 H   0  0  0  0  0  0  0  0  0  0  0  0
  145.7796  136.0535  162.2431 H   0  0  0  0  0  0  0  0  0  0  0  0
  146.9738  136.3578  163.4900 H   0  0  0  0  0  0  0  0  0  0  0  0
  148.8321  135.8075  161.9406 H   0  0  0  0  0  0  0  0  0  0  0  0
  147.8176  137.0533  161.2308 H   0  0  0  0  0  0  0  0  0  0  0  0
  149.4664  138.9096  158.0744 H   0  0  0  0  0  0  0  0  0  0  0  0
  152.4045  140.4800  159.6292 H   0  0  0  0  0  0  0  0  0  0  0  0
  153.0075  142.8588  159.2826 H   0  0  0  0  0  0  0  0  0  0  0  0
  151.7081  144.2091  157.5363 H   0  0  0  0  0  0  0  0  0  0  0  0
  150.3301  141.2221  154.6763 H   0  0  0  0  0  0  0  0  0  0  0  0
  149.3180  139.7864  154.6332 H   0  0  0  0  0  0  0  0  0  0  0  0
  148.5219  142.6554  154.1191 H   0  0  0  0  0  0  0  0  0  0  0  0
  147.9687  141.2136  153.2699 H   0  0  0  0  0  0  0  0  0  0  0  0
  146.3532  142.3422  155.1396 H   0  0  0  0  0  0  0  0  0  0  0  0
  146.5437  140.5863  155.1230 H   0  0  0  0  0  0  0  0  0  0  0  0
  147.2146  141.0295  157.3623 H   0  0  0  0  0  0  0  0  0  0  0  0
  147.9381  142.5762  156.9348 H   0  0  0  0  0  0  0  0  0  0  0  0
  146.6976  135.3967  159.9905 H   0  0  0  0  0  0  0  0  0  0  0  0
  150.0199  143.1667  156.3546 H   0  0  0  0  0  0  0  0  0  0  0  0
  1  2  2  0  0  0  0
  2  3  1  0  0  0  0
  2 12  1  0  0  0  0
  3  4  1  0  0  0  0
  4  5  1  0  0  0  0
  4 24  1  0  0  0  0
  4 25  1  0  0  0  0
  5  6  1  0  0  0  0
  5 26  1  0  0  0  0
  5 27  1  0  0  0  0
  6 11  1  0  0  0  0
  6  7  1  0  0  0  0
  6 48  1  0  0  0  0
  7  8  1  0  0  0  0
  7 28  1  0  0  0  0
  7 29  1  0  0  0  0
  8  9  1  0  0  0  0
  8 30  1  0  0  0  0
  8 31  1  0  0  0  0
  9 10  1  0  0  0  0
 10 11  1  0  0  0  0
 10 32  1  0  0  0  0
 10 33  1  0  0  0  0
 11 34  1  0  0  0  0
 11 35  1  0  0  0  0
 12 13  1  0  0  0  0
 12 36  1  0  0  0  0
 13 18  1  0  0  0  0
 13 14  2  0  0  0  0
 14 15  1  0  0  0  0
 14 37  1  0  0  0  0
 15 16  2  0  0  0  0
 15 38  1  0  0  0  0
 16 17  1  0  0  0  0
 16 39  1  0  0  0  0
 17 18  2  0  0  0  0
 17 49  1  0  0  0  0
 18 19  1  0  0  0  0
 19 23  1  0  0  0  0
 19 20  1  0  0  0  0
 20 21  1  0  0  0  0
 20 40  1  0  0  0  0
 20 41  1  0  0  0  0
 21 22  1  0  0  0  0
 21 42  1  0  0  0  0
 21 43  1  0  0  0  0
 22 23  1  0  0  0  0
 22 44  1  0  0  0  0
 22 45  1  0  0  0  0
 23 46  1  0  0  0  0
 23 47  1  0  0  0  0
M  CHG  1   3  -1
M  CHG  1   6   1
M  CHG  1  17   1
M  END
> <s_m_source_file>
AV-unprocessed.smi

> <i_m_source_file_index>
1525

> <i_lp_mmshare_version>
43012

> <i_f3d_flags>
0

> <s_epik_input>
W0NIMl0xW0NIMl1PW0NIMl1bQ0gyXU4xW0NIMl1bQ0gyXVtOSF1DKD1PKVtOSF1jMltjSF1bY0hdW2NIXW5jMk4zW0NIMl1bQ0gyXVtDSDJdW0NIMl0z

> <s_epik_cmdline>
J2VwaWtfcHl0aG9uJywgJy1waCcsICc3LjAnLCAnLXRuJywgJzgnLCAnLW1hJywgJzIwMCcsICctbWV0YWxfYmluZGluZycsICctaW1hZScsICc8aW5maWxlLm1hZT4nLCAnLW9tYWUnLCAnPG91dGZpbGUubWFlPic=

> <r_lp_tautomer_probability>
0.999994

> <r_epik_Ionization_Penalty>
8.59159

> <r_epik_Ionization_Penalty_Charging>
8.59159

> <r_epik_Ionization_Penalty_Neutral>
3.55275e-06

> <r_epik_State_Penalty>
8.58545

> <r_epik_Charging_Adjusted_Penalty>
17.177

> <i_epik_Tot_Q>
1

> <i_epik_Tot_abs_Q>
3

> <r_epik_Metal_State_Penalty>
4.58086

> <b_epik_Metal_Only>
1

> <s_lp_Force_Field>
OPLS_2005

> <r_lp_Energy>
45.7376

> <b_lp_Chiralities_Consistent>
1

> <s_lp_Variant>
AV-unprocessed.smi:1525-5

> <Gold.Version>
5.8.1

> <Gold.Id.Protein>
6NUR|6NUR_protein|mol2

> <Gold.PLP.Fitness>
46.2369

> <Gold.PLP.PLP>
-38.9440

> <Gold.PLP.part.hbond>
-2.4671

> <Gold.PLP.part.metal>
0.0000

> <Gold.PLP.part.buried>
-7.2954

> <Gold.PLP.part.nonpolar>
-30.8384

> <Gold.PLP.part.repulsive>
0.3216

> <Gold.PLP.ligand.clash>
0.0000

> <Gold.PLP.ligand.torsion>
0.9752

> <Gold.PLP.Chemscore.Hbond>
3.0225

> <Gold.PLP.Chemscore.CHOScore>
0.0000

> <Gold.PLP.Chemscore.Metal>
0.0000

> <Gold.Chemscore.Hbonds>
donor molecule, donor type, donor heavy atom, donor atom, acceptor molecule, acceptor atom, score
      L1  H    17    49       P1  8028  1.95
      P1  H  6896  6907       L1     3  0.88

> <Gold.PLP.Chemscore.Internal.Correction>
0.1756

> <Gold.Rescore>
     Score         DG    S(hbond)    S(metal)    S(lipo)     H(rot)  DE(clash)    DE(int)     intcor
     13.57     -15.90       1.09        0.00      94.28       1.66       0.06       2.28       ----

> <Gold.Chemscore.Fitness>
13.5665

> <Gold.Chemscore.DG>
-15.9049

> <Gold.Chemscore.ZeroCoef>
-5.4800

> <Gold.Chemscore.Hbond>
1.0934

> <Gold.Chemscore.Metal>
0.0000

> <Gold.Chemscore.Lipo>
94.2780

> <Gold.Chemscore.Internal_Hbond>
0.0000

> <Gold.Chemscore.DEClash>
0.0580

> <Gold.Chemscore.DEInternal>
2.2804

> <Gold.Chemscore.Rot>
1.6632

> <Gold.Chemscore.Internal.Correction>
   9.000000E+99

> <Gold.Chemscore.Hbonds>
donor molecule, donor type, donor heavy atom, donor atom, acceptor molecule, acceptor atom, score
      L1  H    17    49       P1  8028  0.90
      P1  H  6896  6907       L1     3  0.15

> <Gold.Chemscore.Hbond.Weighted>
-3.6521

> <Gold.Chemscore.Metal.Weighted>
-0.0000

> <Gold.Chemscore.Lipo.Weighted>
-11.0305

> <Gold.Chemscore.Internal_Hbond.Weighted>
0.0000

> <Gold.Chemscore.DEClash.Weighted>
0.0580

> <Gold.Chemscore.DEInternal.Weighted>
2.2804

> <Gold.Chemscore.Rot.Weighted>
4.2577

> <Gold.Chemscore.Internal.Correction.Weighted>
   9.000000E+99

> <Gold.Protein.RotatedTorsions>
[ 6907 6896 6895 6894 ] final  -19.58 input  -60.11 | X-H torsion
[ 7974 7965 7964 7962 ] final -131.31 input  175.53 | X-H torsion
[ 8008 7997 7996 7995 ] final   51.83 input   59.86 | X-H torsion
[ 10167 10162 10161 10158 ] final  132.44 input  -65.29 | X-H torsion
[ 10718 10713 10712 10709 ] final -134.81 input   66.30 | X-H torsion
[ 10763 10752 10751 10750 ] final  137.26 input  -60.55 | X-H torsion
[ 11005 11000 10999 10996 ] final    5.95 input  -57.11 | X-H torsion

> <Gold.Protein.ActiveResidues>
 VAL166  LYS551  ARG553  GLY616  TRP617  ASP618  TYR619  PRO620  LYS621  CYS622 
 ASP623  PHE694  ASN695  SER759  ASP760  ASP761  ALA762  ILE779  LEU786  VAL792 
 PHE793  MET794  SER795  GLU796  ALA797  LYS798  CYS799  TRP800  GLU811  SER814 

> <Gold.Protein.RotatedAtoms>
  151.2610  135.0654  159.9097 H   0  0  0  0  0  0  0  0  0  0  0  0  # atno 6907 bound_to 6896
  152.5366  134.0231  159.8001 H   0  0  0  0  0  0  0  0  0  0  0  0  # atno 6908 bound_to 6896
  151.0454  133.5620  159.2678 H   0  0  0  0  0  0  0  0  0  0  0  0  # atno 6909 bound_to 6896
  144.9391  140.7218  143.4858 H   0  0  0  0  0  0  0  0  0  0  0  0  # atno 7974 bound_to 7965
  155.4418  140.3455  155.4291 H   0  0  0  0  0  0  0  0  0  0  0  0  # atno 8008 bound_to 7997
  156.1274  140.1504  156.9146 H   0  0  0  0  0  0  0  0  0  0  0  0  # atno 8009 bound_to 7997
  154.4868  140.0853  156.7485 H   0  0  0  0  0  0  0  0  0  0  0  0  # atno 8010 bound_to 7997
  139.5340  144.6662  151.4851 H   0  0  0  0  0  0  0  0  0  0  0  0  # atno 10167 bound_to 10162
  156.2594  130.7200  151.1129 H   0  0  0  0  0  0  0  0  0  0  0  0  # atno 10718 bound_to 10713
  153.8701  135.3057  155.3441 H   0  0  0  0  0  0  0  0  0  0  0  0  # atno 10763 bound_to 10752
  154.7809  135.4836  153.9846 H   0  0  0  0  0  0  0  0  0  0  0  0  # atno 10764 bound_to 10752
  153.1411  135.6824  153.9122 H   0  0  0  0  0  0  0  0  0  0  0  0  # atno 10765 bound_to 10752
  140.5650  134.0156  155.7986 H   0  0  0  0  0  0  0  0  0  0  0  0  # atno 11005 bound_to 11000
  145.3019  139.1847  143.4685 LP  0  0  0  0  0  0  0  0  0  0  0  0  # atno 17320 bound_to 7965
  146.3278  140.3011  142.8621 LP  0  0  0  0  0  0  0  0  0  0  0  0  # atno 17321 bound_to 7965
  140.6535  143.8647  150.6810 LP  0  0  0  0  0  0  0  0  0  0  0  0  # atno 17342 bound_to 10162
  140.2020  143.3952  152.1784 LP  0  0  0  0  0  0  0  0  0  0  0  0  # atno 17343 bound_to 10162
  157.7245  131.0659  150.5993 LP  0  0  0  0  0  0  0  0  0  0  0  0  # atno 17370 bound_to 10713
  156.6080  130.4372  149.5870 LP  0  0  0  0  0  0  0  0  0  0  0  0  # atno 17371 bound_to 10713
  141.1091  133.9645  157.2943 LP  0  0  0  0  0  0  0  0  0  0  0  0  # atno 17394 bound_to 11000
  139.9389  135.0193  156.8646 LP  0  0  0  0  0  0  0  0  0  0  0  0  # atno 17395 bound_to 11000

$$$$
