AV-unprocessed.smi:1643|AV-procd|sdf|6572|dock7
  -GOLD-   22720 7253D 1   1.00000     0.00000
 Structure written by MMmdl.
 54 56  0  0  0  0  0  0  0  0  2 V2000
  149.3587  138.7187  155.0001 C   0  0  0  0  0  0  0  0  0  0  0  0
  150.8519  138.8588  155.3080 C   0  0  0  0  0  0  0  0  0  0  0  0
  151.4283  139.8764  154.9235 O   0  0  0  0  0  0  0  0  0  0  0  0
  151.4833  137.8752  155.9956 N   0  0  0  0  0  0  0  0  0  0  0  0
  150.7908  136.6283  156.3532 C   0  0  0  0  0  0  0  0  0  0  0  0
  150.3260  136.6162  157.8268 C   0  0  0  0  0  0  0  0  0  0  0  0
  150.9487  137.6970  158.7395 C   0  0  0  0  0  0  0  0  0  0  0  0
  152.4248  137.5924  158.9330 N   0  3  2  0  0  0  0  0  0  0  0  0
  153.0056  138.7889  159.6017 C   0  0  0  0  0  0  0  0  0  0  0  0
  154.2690  138.4804  160.4322 C   0  0  2  0  0  0  0  0  0  0  0  0
  153.8445  138.0337  161.7041 O   0  0  0  0  0  0  0  0  0  0  0  0
  155.1910  139.7055  160.6024 C   0  0  0  0  0  0  0  0  0  0  0  0
  154.5552  140.7790  161.3452 N   0  0  0  0  0  0  0  0  0  0  0  0
  154.6954  141.0493  162.6572 C   0  0  0  0  0  0  0  0  0  0  0  0
  154.0161  142.0842  163.1419 N   0  0  0  0  0  0  0  0  0  0  0  0
  153.3593  142.5411  162.0121 C   0  0  0  0  0  0  0  0  0  0  0  0
  152.4673  143.6226  161.8448 C   0  0  0  0  0  0  0  0  0  0  0  0
  151.9046  143.9088  160.5806 C   0  0  0  0  0  0  0  0  0  0  0  0
  150.9481  145.0808  160.4460 C   0  0  0  0  0  0  0  0  0  0  0  0
  152.2334  143.1067  159.4584 C   0  0  0  0  0  0  0  0  0  0  0  0
  151.6408  143.3954  158.0904 C   0  0  0  0  0  0  0  0  0  0  0  0
  153.1232  142.0224  159.6080 C   0  0  0  0  0  0  0  0  0  0  0  0
  153.6761  141.7473  160.8712 C   0  0  0  0  0  0  0  0  0  0  0  0
  153.2132  137.1806  157.7348 C   0  0  0  0  0  0  0  0  0  0  0  0
  152.8898  137.9598  156.4326 C   0  0  0  0  0  0  0  0  0  0  0  0
  148.7957  138.4574  155.8966 H   0  0  0  0  0  0  0  0  0  0  0  0
  149.1917  137.9550  154.2403 H   0  0  0  0  0  0  0  0  0  0  0  0
  148.9567  139.6588  154.6207 H   0  0  0  0  0  0  0  0  0  0  0  0
  149.9375  136.4320  155.7020 H   0  0  0  0  0  0  0  0  0  0  0  0
  151.4553  135.7862  156.1586 H   0  0  0  0  0  0  0  0  0  0  0  0
  149.2450  136.7609  157.8393 H   0  0  0  0  0  0  0  0  0  0  0  0
  150.4910  135.6262  158.2535 H   0  0  0  0  0  0  0  0  0  0  0  0
  150.6918  138.6898  158.3670 H   0  0  0  0  0  0  0  0  0  0  0  0
  150.4718  137.6185  159.7161 H   0  0  0  0  0  0  0  0  0  0  0  0
  153.2696  139.5369  158.8525 H   0  0  0  0  0  0  0  0  0  0  0  0
  152.2418  139.2476  160.2321 H   0  0  0  0  0  0  0  0  0  0  0  0
  154.8268  137.6585  159.9844 H   0  0  0  0  0  0  0  0  0  0  0  0
  153.4899  137.1616  161.6151 H   0  0  0  0  0  0  0  0  0  0  0  0
  156.1022  139.4253  161.1318 H   0  0  0  0  0  0  0  0  0  0  0  0
  155.5032  140.0897  159.6304 H   0  0  0  0  0  0  0  0  0  0  0  0
  155.3306  140.4503  163.2935 H   0  0  0  0  0  0  0  0  0  0  0  0
  152.2167  144.2328  162.7001 H   0  0  0  0  0  0  0  0  0  0  0  0
  151.3345  145.8101  159.7337 H   0  0  0  0  0  0  0  0  0  0  0  0
  150.8037  145.5886  161.4001 H   0  0  0  0  0  0  0  0  0  0  0  0
  149.9726  144.7396  160.0984 H   0  0  0  0  0  0  0  0  0  0  0  0
  151.9840  142.6743  157.3481 H   0  0  0  0  0  0  0  0  0  0  0  0
  151.9313  144.3896  157.7504 H   0  0  0  0  0  0  0  0  0  0  0  0
  150.5523  143.3451  158.1264 H   0  0  0  0  0  0  0  0  0  0  0  0
  153.3800  141.4026  158.7618 H   0  0  0  0  0  0  0  0  0  0  0  0
  154.2783  137.2774  157.9480 H   0  0  0  0  0  0  0  0  0  0  0  0
  153.0796  136.1091  157.5904 H   0  0  0  0  0  0  0  0  0  0  0  0
  153.5182  137.5863  155.6231 H   0  0  0  0  0  0  0  0  0  0  0  0
  153.1888  138.9947  156.5976 H   0  0  0  0  0  0  0  0  0  0  0  0
  152.5599  136.8348  159.5871 H   0  0  0  0  0  0  0  0  0  0  0  0
  1  2  1  0  0  0  0
  1 26  1  0  0  0  0
  1 27  1  0  0  0  0
  1 28  1  0  0  0  0
  2  3  2  0  0  0  0
  2  4  1  0  0  0  0
  4 25  1  0  0  0  0
  4  5  1  0  0  0  0
  5  6  1  0  0  0  0
  5 29  1  0  0  0  0
  5 30  1  0  0  0  0
  6  7  1  0  0  0  0
  6 31  1  0  0  0  0
  6 32  1  0  0  0  0
  7  8  1  0  0  0  0
  7 33  1  0  0  0  0
  7 34  1  0  0  0  0
  8  9  1  0  0  0  0
  8 24  1  0  0  0  0
  8 54  1  0  0  0  0
  9 10  1  0  0  0  0
  9 35  1  0  0  0  0
  9 36  1  0  0  0  0
 10 11  1  0  0  0  0
 10 12  1  0  0  0  0
 10 37  1  0  0  0  0
 11 38  1  0  0  0  0
 12 13  1  0  0  0  0
 12 39  1  0  0  0  0
 12 40  1  0  0  0  0
 13 23  1  0  0  0  0
 13 14  1  0  0  0  0
 14 15  2  0  0  0  0
 14 41  1  0  0  0  0
 15 16  1  0  0  0  0
 16 23  2  0  0  0  0
 16 17  1  0  0  0  0
 17 18  2  0  0  0  0
 17 42  1  0  0  0  0
 18 19  1  0  0  0  0
 18 20  1  0  0  0  0
 19 43  1  0  0  0  0
 19 44  1  0  0  0  0
 19 45  1  0  0  0  0
 20 21  1  0  0  0  0
 20 22  2  0  0  0  0
 21 46  1  0  0  0  0
 21 47  1  0  0  0  0
 21 48  1  0  0  0  0
 22 23  1  0  0  0  0
 22 49  1  0  0  0  0
 24 25  1  0  0  0  0
 24 50  1  0  0  0  0
 24 51  1  0  0  0  0
 25 52  1  0  0  0  0
 25 53  1  0  0  0  0
M  CHG  1   8   1
M  END
> <s_m_source_file>
AV-unprocessed.smi

> <i_m_source_file_index>
1643

> <i_lp_mmshare_version>
43012

> <i_f3d_flags>
0

> <s_epik_input>
W0NIM11DKD1PKU4xW0NIMl1bQ0gyXVtDSDJdTihbQ0gyXVtDSDJdMSlbQ0gyXVtDQEhdKFtPSF0pW0NIMl1uKFtjSF1uMiljKGMyMylbY0hdYyhbQ0gzXSljKFtjSF0zKVtDSDNd

> <s_epik_cmdline>
J2VwaWtfcHl0aG9uJywgJy1waCcsICc3LjAnLCAnLXRuJywgJzgnLCAnLW1hJywgJzIwMCcsICctbWV0YWxfYmluZGluZycsICctaW1hZScsICc8aW5maWxlLm1hZT4nLCAnLW9tYWUnLCAnPG91dGZpbGUubWFlPic=

> <r_epik_Ionization_Penalty>
0.189467

> <r_epik_Ionization_Penalty_Charging>
0.101761

> <r_epik_Ionization_Penalty_Neutral>
0.0877056

> <r_epik_State_Penalty>
0.170758

> <r_epik_Charging_Adjusted_Penalty>
0.272519

> <i_epik_Tot_Q>
1

> <i_epik_Tot_abs_Q>
1

> <r_epik_Metal_State_Penalty>
0.0948013

> <b_epik_Metal_Only>
0

> <s_lp_Force_Field>
OPLS_2005

> <r_lp_Energy>
49.989

> <b_lp_Chiralities_Consistent>
1

> <s_lp_Variant>
AV-unprocessed.smi:1643-1

> <Gold.Version>
5.8.1

> <Gold.Id.Protein>
6NUR|6NUR_protein|mol2

> <Gold.PLP.Fitness>
50.6148

> <Gold.PLP.PLP>
-49.1988

> <Gold.PLP.part.hbond>
-1.4103

> <Gold.PLP.part.metal>
0.0000

> <Gold.PLP.part.buried>
-5.3232

> <Gold.PLP.part.nonpolar>
-42.3902

> <Gold.PLP.part.repulsive>
0.2037

> <Gold.PLP.ligand.clash>
0.0000

> <Gold.PLP.ligand.torsion>
0.8432

> <Gold.PLP.Chemscore.Hbond>
1.0000

> <Gold.PLP.Chemscore.CHOScore>
0.0000

> <Gold.PLP.Chemscore.Metal>
0.0000

> <Gold.Chemscore.Hbonds>
donor molecule, donor type, donor heavy atom, donor atom, acceptor molecule, acceptor atom, score
      P1  H  7989  7998       L1     3  1.00

> <Gold.PLP.Chemscore.Internal.Correction>
0.1023

> <Gold.Rescore>
     Score         DG    S(hbond)    S(metal)    S(lipo)     H(rot)  DE(clash)    DE(int)     intcor
     18.17     -19.35       0.98        0.00     137.08       2.12       0.16       1.03       ----

> <Gold.Chemscore.Fitness>
18.1697

> <Gold.Chemscore.DG>
-19.3547

> <Gold.Chemscore.ZeroCoef>
-5.4800

> <Gold.Chemscore.Hbond>
0.9755

> <Gold.Chemscore.Metal>
0.0000

> <Gold.Chemscore.Lipo>
137.0775

> <Gold.Chemscore.Internal_Hbond>
0.0000

> <Gold.Chemscore.DEClash>
0.1564

> <Gold.Chemscore.DEInternal>
1.0286

> <Gold.Chemscore.Rot>
2.1178

> <Gold.Chemscore.Internal.Correction>
   9.000000E+99

> <Gold.Chemscore.Hbonds>
donor molecule, donor type, donor heavy atom, donor atom, acceptor molecule, acceptor atom, score
      P1  H  7989  7998       L1     3  1.00

> <Gold.Chemscore.Hbond.Weighted>
-3.2581

> <Gold.Chemscore.Metal.Weighted>
-0.0000

> <Gold.Chemscore.Lipo.Weighted>
-16.0381

> <Gold.Chemscore.Internal_Hbond.Weighted>
0.0000

> <Gold.Chemscore.DEClash.Weighted>
0.1564

> <Gold.Chemscore.DEInternal.Weighted>
1.0286

> <Gold.Chemscore.Rot.Weighted>
5.4215

> <Gold.Chemscore.Internal.Correction.Weighted>
   9.000000E+99

> <Gold.Protein.RotatedTorsions>
[ 6907 6896 6895 6894 ] final  -57.08 input  -60.11 | X-H torsion
[ 7974 7965 7964 7962 ] final  -68.20 input  175.53 | X-H torsion
[ 8008 7997 7996 7995 ] final  -96.78 input   59.86 | X-H torsion
[ 10167 10162 10161 10158 ] final    8.41 input  -65.29 | X-H torsion
[ 10718 10713 10712 10709 ] final   18.43 input   66.30 | X-H torsion
[ 10763 10752 10751 10750 ] final  165.99 input  -60.55 | X-H torsion
[ 11005 11000 10999 10996 ] final -152.96 input  -57.11 | X-H torsion

> <Gold.Protein.ActiveResidues>
 VAL166  LYS551  ARG553  GLY616  TRP617  ASP618  TYR619  PRO620  LYS621  CYS622 
 ASP623  PHE694  ASN695  SER759  ASP760  ASP761  ALA762  ILE779  LEU786  VAL792 
 PHE793  MET794  SER795  GLU796  ALA797  LYS798  CYS799  TRP800  GLU811  SER814 

> <Gold.Protein.RotatedAtoms>
  150.8115  134.7272  159.6691 H   0  0  0  0  0  0  0  0  0  0  0  0  # atno 6907 bound_to 6896
  152.4235  134.5908  159.9983 H   0  0  0  0  0  0  0  0  0  0  0  0  # atno 6908 bound_to 6896
  151.6117  133.3309  159.3105 H   0  0  0  0  0  0  0  0  0  0  0  0  # atno 6909 bound_to 6896
  145.7195  140.9044  143.0638 H   0  0  0  0  0  0  0  0  0  0  0  0  # atno 7974 bound_to 7965
  154.7790  140.0468  157.1112 H   0  0  0  0  0  0  0  0  0  0  0  0  # atno 8008 bound_to 7997
  154.9728  140.3091  155.4961 H   0  0  0  0  0  0  0  0  0  0  0  0  # atno 8009 bound_to 7997
  156.2933  140.2250  156.4821 H   0  0  0  0  0  0  0  0  0  0  0  0  # atno 8010 bound_to 7997
  140.6316  143.7981  150.7303 H   0  0  0  0  0  0  0  0  0  0  0  0  # atno 10167 bound_to 10162
  157.0962  130.6449  149.5861 H   0  0  0  0  0  0  0  0  0  0  0  0  # atno 10718 bound_to 10713
  154.3323  135.2754  155.2465 H   0  0  0  0  0  0  0  0  0  0  0  0  # atno 10763 bound_to 10752
  154.4771  135.5868  153.6366 H   0  0  0  0  0  0  0  0  0  0  0  0  # atno 10764 bound_to 10752
  152.9865  135.6102  154.3517 H   0  0  0  0  0  0  0  0  0  0  0  0  # atno 10765 bound_to 10752
  140.7133  134.3809  157.5194 H   0  0  0  0  0  0  0  0  0  0  0  0  # atno 11005 bound_to 11000
  144.6920  139.9183  143.7466 LP  0  0  0  0  0  0  0  0  0  0  0  0  # atno 17320 bound_to 7965
  146.0639  139.3631  143.0564 LP  0  0  0  0  0  0  0  0  0  0  0  0  # atno 17321 bound_to 7965
  140.1594  143.4289  152.2077 LP  0  0  0  0  0  0  0  0  0  0  0  0  # atno 17342 bound_to 10162
  139.5529  144.7351  151.4380 LP  0  0  0  0  0  0  0  0  0  0  0  0  # atno 17343 bound_to 10162
  155.9885  130.4929  150.7173 LP  0  0  0  0  0  0  0  0  0  0  0  0  # atno 17370 bound_to 10713
  157.4679  131.0890  151.0674 LP  0  0  0  0  0  0  0  0  0  0  0  0  # atno 17371 bound_to 10713
  139.8866  134.8905  156.2575 LP  0  0  0  0  0  0  0  0  0  0  0  0  # atno 17394 bound_to 11000
  141.0066  133.7120  156.1044 LP  0  0  0  0  0  0  0  0  0  0  0  0  # atno 17395 bound_to 11000

$$$$
