AV-unprocessed.smi:2744|AV-procd|sdf|10569|dock8
  -GOLD-   2272015 23D 1   1.00000     0.00000
 Structure written by MMmdl.
 40 41  0  0  0  0  0  0  0  0  1 V2000
  154.3181  141.5906  160.8712 C   0  0  0  0  0  0  0  0  0  0  0  0
  153.2093  142.6536  160.9428 C   0  0  0  0  0  0  0  0  0  0  0  0
  152.1919  142.6409  159.7722 C   0  0  2  0  0  0  0  0  0  0  0  0
  152.6547  143.5079  158.5861 C   0  0  0  0  0  0  0  0  0  0  0  0
  150.9780  143.1917  160.2476 O   0  0  0  0  0  0  0  0  0  0  0  0
  151.9044  141.2024  159.2684 C   0  0  0  0  0  0  0  0  0  0  0  0
  151.0358  141.1344  158.1029 N   0  0  0  0  0  0  0  0  0  0  0  0
  149.7499  141.6180  158.0031 C   0  0  0  0  0  0  0  0  0  0  0  0
  149.1731  141.4361  156.8463 N   0  0  0  0  0  0  0  0  0  0  0  0
  150.1307  140.7657  156.0963 C   0  0  0  0  0  0  0  0  0  0  0  0
  150.1673  140.2656  154.7689 C   0  0  0  0  0  0  0  0  0  0  0  0
  149.1054  140.4050  153.9439 N   0  0  0  0  0  0  0  0  0  0  0  0
  147.7487  140.5475  154.4650 C   0  0  0  0  0  0  0  0  0  0  0  0
  146.8140  139.4720  153.8867 C   0  0  0  0  0  0  0  0  0  0  0  0
  147.2185  141.9552  154.1637 C   0  0  0  0  0  0  0  0  0  0  0  0
  151.3020  139.6382  154.3612 N   0  0  0  0  0  0  0  0  0  0  0  0
  152.3360  139.5118  155.1989 C   0  0  0  0  0  0  0  0  0  0  0  0
  152.4437  139.9307  156.4621 N   0  0  0  0  0  0  0  0  0  0  0  0
  151.3059  140.5615  156.8723 C   0  0  0  0  0  0  0  0  0  0  0  0
  155.0217  141.7176  161.6942 H   0  0  0  0  0  0  0  0  0  0  0  0
  154.8843  141.6640  159.9423 H   0  0  0  0  0  0  0  0  0  0  0  0
  153.9159  140.5806  160.9452 H   0  0  0  0  0  0  0  0  0  0  0  0
  152.6738  142.5310  161.8849 H   0  0  0  0  0  0  0  0  0  0  0  0
  153.6919  143.6297  160.9992 H   0  0  0  0  0  0  0  0  0  0  0  0
  153.6242  143.1770  158.2126 H   0  0  0  0  0  0  0  0  0  0  0  0
  152.7448  144.5598  158.8577 H   0  0  0  0  0  0  0  0  0  0  0  0
  151.9481  143.4537  157.7571 H   0  0  0  0  0  0  0  0  0  0  0  0
  150.8769  144.0582  159.8843 H   0  0  0  0  0  0  0  0  0  0  0  0
  152.8367  140.6904  159.0258 H   0  0  0  0  0  0  0  0  0  0  0  0
  151.4408  140.6189  160.0650 H   0  0  0  0  0  0  0  0  0  0  0  0
  149.2530  142.1212  158.8197 H   0  0  0  0  0  0  0  0  0  0  0  0
  149.1837  140.3426  152.9389 H   0  0  0  0  0  0  0  0  0  0  0  0
  147.7739  140.4395  155.5501 H   0  0  0  0  0  0  0  0  0  0  0  0
  145.8056  139.5748  154.2882 H   0  0  0  0  0  0  0  0  0  0  0  0
  147.1587  138.4668  154.1297 H   0  0  0  0  0  0  0  0  0  0  0  0
  146.7488  139.5468  152.8007 H   0  0  0  0  0  0  0  0  0  0  0  0
  146.2166  142.0927  154.5717 H   0  0  0  0  0  0  0  0  0  0  0  0
  147.1693  142.1410  153.0900 H   0  0  0  0  0  0  0  0  0  0  0  0
  147.8600  142.7186  154.6051 H   0  0  0  0  0  0  0  0  0  0  0  0
  153.2005  139.0022  154.8000 H   0  0  0  0  0  0  0  0  0  0  0  0
  1  2  1  0  0  0  0
  1 20  1  0  0  0  0
  1 21  1  0  0  0  0
  1 22  1  0  0  0  0
  2  3  1  0  0  0  0
  2 23  1  0  0  0  0
  2 24  1  0  0  0  0
  3  4  1  0  0  0  0
  3  5  1  0  0  0  0
  3  6  1  0  0  0  0
  4 25  1  0  0  0  0
  4 26  1  0  0  0  0
  4 27  1  0  0  0  0
  5 28  1  0  0  0  0
  6  7  1  0  0  0  0
  6 29  1  0  0  0  0
  6 30  1  0  0  0  0
  7 19  1  0  0  0  0
  7  8  1  0  0  0  0
  8  9  2  0  0  0  0
  8 31  1  0  0  0  0
  9 10  1  0  0  0  0
 10 19  2  0  0  0  0
 10 11  1  0  0  0  0
 11 12  1  0  0  0  0
 11 16  2  0  0  0  0
 12 13  1  0  0  0  0
 12 32  1  0  0  0  0
 13 14  1  0  0  0  0
 13 15  1  0  0  0  0
 13 33  1  0  0  0  0
 14 34  1  0  0  0  0
 14 35  1  0  0  0  0
 14 36  1  0  0  0  0
 15 37  1  0  0  0  0
 15 38  1  0  0  0  0
 15 39  1  0  0  0  0
 16 17  1  0  0  0  0
 17 18  2  0  0  0  0
 17 40  1  0  0  0  0
 18 19  1  0  0  0  0
M  END
> <s_m_source_file>
AV-unprocessed.smi

> <i_m_source_file_index>
2744

> <i_lp_mmshare_version>
43012

> <i_f3d_flags>
0

> <s_epik_input>
W0NIM11bQ0gyXVtDQEBdKFtDSDNdKShbT0hdKVtDSDJdbihbY0hdbjEpYyhjMTIpbltjSF1uYzJbTkhdW0NIXShbQ0gzXSlbQ0gzXQ==

> <s_epik_cmdline>
J2VwaWtfcHl0aG9uJywgJy1waCcsICc3LjAnLCAnLXRuJywgJzgnLCAnLW1hJywgJzIwMCcsICctbWV0YWxfYmluZGluZycsICctaW1hZScsICc8aW5maWxlLm1hZT4nLCAnLW9tYWUnLCAnPG91dGZpbGUubWFlPic=

> <r_lp_tautomer_probability>
1

> <r_epik_Ionization_Penalty>
0.00217876

> <r_epik_Ionization_Penalty_Charging>
0

> <r_epik_Ionization_Penalty_Neutral>
0.00217876

> <r_epik_State_Penalty>
-0

> <r_epik_Charging_Adjusted_Penalty>
0

> <i_epik_Tot_Q>
0

> <i_epik_Tot_abs_Q>
0

> <r_epik_Metal_State_Penalty>
-0

> <b_epik_Metal_Only>
0

> <s_lp_Force_Field>
OPLS_2005

> <r_lp_Energy>
9.28896

> <b_lp_Chiralities_Consistent>
1

> <s_lp_Variant>
AV-unprocessed.smi:2744-2

> <Gold.Version>
5.8.1

> <Gold.Id.Protein>
6NUR|6NUR_protein|mol2

> <Gold.PLP.Fitness>
45.2335

> <Gold.PLP.PLP>
-39.4752

> <Gold.PLP.part.hbond>
-4.0000

> <Gold.PLP.part.metal>
0.0000

> <Gold.PLP.part.buried>
-2.8284

> <Gold.PLP.part.nonpolar>
-32.7404

> <Gold.PLP.part.repulsive>
0.3892

> <Gold.PLP.ligand.clash>
0.0000

> <Gold.PLP.ligand.torsion>
0.6717

> <Gold.PLP.Chemscore.Hbond>
2.3500

> <Gold.PLP.Chemscore.CHOScore>
0.0000

> <Gold.PLP.Chemscore.Metal>
0.0000

> <Gold.Chemscore.Hbonds>
donor molecule, donor type, donor heavy atom, donor atom, acceptor molecule, acceptor atom, score
      L1  H    12    32       P1  7957  1.00
      P1  H  7989  7998       L1    16  0.50
      P1  H  7997  8009       L1    18  1.00

> <Gold.PLP.Chemscore.Internal.Correction>
0.0518

> <Gold.Rescore>
     Score         DG    S(hbond)    S(metal)    S(lipo)     H(rot)  DE(clash)    DE(int)     intcor
     11.06     -13.16       1.50        0.00      74.96       2.38       0.27       1.83       ----

> <Gold.Chemscore.Fitness>
11.0591

> <Gold.Chemscore.DG>
-13.1563

> <Gold.Chemscore.ZeroCoef>
-5.4800

> <Gold.Chemscore.Hbond>
1.4968

> <Gold.Chemscore.Metal>
0.0000

> <Gold.Chemscore.Lipo>
74.9583

> <Gold.Chemscore.Internal_Hbond>
0.0000

> <Gold.Chemscore.DEClash>
0.2675

> <Gold.Chemscore.DEInternal>
1.8296

> <Gold.Chemscore.Rot>
2.3802

> <Gold.Chemscore.Internal.Correction>
   9.000000E+99

> <Gold.Chemscore.Hbonds>
donor molecule, donor type, donor heavy atom, donor atom, acceptor molecule, acceptor atom, score
      L1  H    12    32       P1  7957  1.00
      P1  H  7989  7998       L1    16  0.01
      P1  H  7997  8009       L1    18  0.32

> <Gold.Chemscore.Hbond.Weighted>
-4.9995

> <Gold.Chemscore.Metal.Weighted>
-0.0000

> <Gold.Chemscore.Lipo.Weighted>
-8.7701

> <Gold.Chemscore.Internal_Hbond.Weighted>
0.0000

> <Gold.Chemscore.DEClash.Weighted>
0.2675

> <Gold.Chemscore.DEInternal.Weighted>
1.8296

> <Gold.Chemscore.Rot.Weighted>
6.0933

> <Gold.Chemscore.Internal.Correction.Weighted>
   9.000000E+99

> <Gold.Protein.RotatedTorsions>
[ 6907 6896 6895 6894 ] final  109.82 input  -60.11 | X-H torsion
[ 7974 7965 7964 7962 ] final   25.69 input  175.53 | X-H torsion
[ 8008 7997 7996 7995 ] final  176.96 input   59.86 | X-H torsion
[ 10167 10162 10161 10158 ] final -168.81 input  -65.29 | X-H torsion
[ 10718 10713 10712 10709 ] final -165.10 input   66.30 | X-H torsion
[ 10763 10752 10751 10750 ] final  133.82 input  -60.55 | X-H torsion
[ 11005 11000 10999 10996 ] final  -97.58 input  -57.11 | X-H torsion

> <Gold.Protein.ActiveResidues>
 VAL166  LYS551  ARG553  GLY616  TRP617  ASP618  TYR619  PRO620  LYS621  CYS622 
 ASP623  PHE694  ASN695  SER759  ASP760  ASP761  ALA762  ILE779  LEU786  VAL792 
 PHE793  MET794  SER795  GLU796  ALA797  LYS798  CYS799  TRP800  GLU811  SER814 

> <Gold.Protein.RotatedAtoms>
  152.5049  133.8889  159.7383 H   0  0  0  0  0  0  0  0  0  0  0  0  # atno 6907 bound_to 6896
  150.9333  133.6733  159.2813 H   0  0  0  0  0  0  0  0  0  0  0  0  # atno 6908 bound_to 6896
  151.4069  135.0984  159.9626 H   0  0  0  0  0  0  0  0  0  0  0  0  # atno 6909 bound_to 6896
  146.1875  139.7430  142.8856 H   0  0  0  0  0  0  0  0  0  0  0  0  # atno 7974 bound_to 7965
  156.0708  140.1370  156.9831 H   0  0  0  0  0  0  0  0  0  0  0  0  # atno 8008 bound_to 7997
  154.4531  140.0972  156.6728 H   0  0  0  0  0  0  0  0  0  0  0  0  # atno 8009 bound_to 7997
  155.5231  140.3457  155.4413 H   0  0  0  0  0  0  0  0  0  0  0  0  # atno 8010 bound_to 7997
  139.5962  144.1107  152.1691 H   0  0  0  0  0  0  0  0  0  0  0  0  # atno 10167 bound_to 10162
  156.6485  130.8998  151.3009 H   0  0  0  0  0  0  0  0  0  0  0  0  # atno 10718 bound_to 10713
  153.8134  135.3126  155.3403 H   0  0  0  0  0  0  0  0  0  0  0  0  # atno 10763 bound_to 10752
  154.8042  135.4708  154.0353 H   0  0  0  0  0  0  0  0  0  0  0  0  # atno 10764 bound_to 10752
  153.1739  135.6882  153.8659 H   0  0  0  0  0  0  0  0  0  0  0  0  # atno 10765 bound_to 10752
  141.1374  133.8181  157.0725 H   0  0  0  0  0  0  0  0  0  0  0  0  # atno 11005 bound_to 11000
  145.3893  141.0370  143.3133 LP  0  0  0  0  0  0  0  0  0  0  0  0  # atno 17320 bound_to 7965
  144.8425  139.5449  143.6894 LP  0  0  0  0  0  0  0  0  0  0  0  0  # atno 17321 bound_to 7965
  140.0693  144.5792  150.7204 LP  0  0  0  0  0  0  0  0  0  0  0  0  # atno 17342 bound_to 10162
  140.7213  143.2592  151.4267 LP  0  0  0  0  0  0  0  0  0  0  0  0  # atno 17343 bound_to 10162
  157.7148  130.9484  150.1217 LP  0  0  0  0  0  0  0  0  0  0  0  0  # atno 17370 bound_to 10713
  156.2103  130.3666  149.8679 LP  0  0  0  0  0  0  0  0  0  0  0  0  # atno 17371 bound_to 10713
  140.0502  134.9809  157.1122 LP  0  0  0  0  0  0  0  0  0  0  0  0  # atno 17394 bound_to 11000
  140.4001  134.2091  155.7163 LP  0  0  0  0  0  0  0  0  0  0  0  0  # atno 17395 bound_to 11000

$$$$
