AV-unprocessed.smi:861|AV-procd|sdf|3966|dock5
  -GOLD-   22720 1443D 1   1.00000     0.00000
 Structure written by MMmdl.
 44 45  0  0  0  0  0  0  0  0  2 V2000
  154.0628  142.0393  160.5518 C   0  0  0  0  0  0  0  0  0  0  0  0
  153.1868  142.6198  159.4288 C   0  0  0  0  0  0  0  0  0  0  0  0
  152.4410  143.8686  159.9234 C   0  0  0  0  0  0  0  0  0  0  0  0
  152.1962  141.5842  158.8586 C   0  0  0  0  0  0  0  0  0  0  0  0
  151.2889  142.1361  157.7417 C   0  0  0  0  0  0  0  0  0  0  0  0
  150.8164  141.0766  156.8151 N   0  3  1  0  0  0  0  0  0  0  0  0
  149.9459  141.6150  155.7434 C   0  0  0  0  0  0  0  0  0  0  0  0
  149.4384  140.4798  154.8398 C   0  0  0  0  0  0  0  0  0  0  0  0
  150.5469  139.7677  154.3056 O   0  0  0  0  0  0  0  0  0  0  0  0
  151.3376  139.1576  155.3192 C   0  0  1  0  0  0  0  0  0  0  0  0
  152.4323  138.3341  154.6161 C   0  0  0  0  0  0  0  0  0  0  0  0
  153.4118  139.1611  153.9195 N   0  0  0  0  0  0  0  0  0  0  0  0
  154.7815  138.8596  153.9422 C   0  0  0  0  0  0  0  0  0  0  0  0
  155.5763  139.2202  152.8356 C   0  0  0  0  0  0  0  0  0  0  0  0
  156.9463  138.9091  152.8862 C   0  0  0  0  0  0  0  0  0  0  0  0
  157.4187  138.2612  154.0422 C   0  0  0  0  0  0  0  0  0  0  0  0
  156.6105  137.9389  155.0772 N   0  0  0  0  0  0  0  0  0  0  0  0
  155.3067  138.2338  155.0256 N   0  0  0  0  0  0  0  0  0  0  0  0
  151.9113  140.2633  156.2300 C   0  0  0  0  0  0  0  0  0  0  0  0
  153.4552  141.6607  161.3743 H   0  0  0  0  0  0  0  0  0  0  0  0
  154.7315  142.7990  160.9577 H   0  0  0  0  0  0  0  0  0  0  0  0
  154.6889  141.2224  160.1936 H   0  0  0  0  0  0  0  0  0  0  0  0
  153.8470  142.9386  158.6209 H   0  0  0  0  0  0  0  0  0  0  0  0
  151.7602  143.6266  160.7402 H   0  0  0  0  0  0  0  0  0  0  0  0
  151.8539  144.3207  159.1236 H   0  0  0  0  0  0  0  0  0  0  0  0
  153.1376  144.6258  160.2851 H   0  0  0  0  0  0  0  0  0  0  0  0
  152.7549  140.7183  158.5034 H   0  0  0  0  0  0  0  0  0  0  0  0
  151.5619  141.2239  159.6698 H   0  0  0  0  0  0  0  0  0  0  0  0
  150.4206  142.6037  158.2082 H   0  0  0  0  0  0  0  0  0  0  0  0
  151.7942  142.9173  157.1727 H   0  0  0  0  0  0  0  0  0  0  0  0
  149.0969  142.1410  156.1816 H   0  0  0  0  0  0  0  0  0  0  0  0
  150.5034  142.3422  155.1508 H   0  0  0  0  0  0  0  0  0  0  0  0
  148.7839  139.8029  155.3914 H   0  0  0  0  0  0  0  0  0  0  0  0
  148.8522  140.8884  154.0167 H   0  0  0  0  0  0  0  0  0  0  0  0
  150.7006  138.4921  155.9043 H   0  0  0  0  0  0  0  0  0  0  0  0
  152.9453  137.6984  155.3390 H   0  0  0  0  0  0  0  0  0  0  0  0
  151.9769  137.6585  153.8916 H   0  0  0  0  0  0  0  0  0  0  0  0
  153.0807  139.9257  153.3486 H   0  0  0  0  0  0  0  0  0  0  0  0
  155.1537  139.7180  151.9751 H   0  0  0  0  0  0  0  0  0  0  0  0
  157.6105  139.1572  152.0716 H   0  0  0  0  0  0  0  0  0  0  0  0
  158.4612  137.9973  154.1405 H   0  0  0  0  0  0  0  0  0  0  0  0
  152.5834  140.9090  155.6625 H   0  0  0  0  0  0  0  0  0  0  0  0
  152.5008  139.8057  157.0234 H   0  0  0  0  0  0  0  0  0  0  0  0
  150.2413  140.4499  157.3601 H   0  0  0  0  0  0  0  0  0  0  0  0
  1  2  1  0  0  0  0
  1 20  1  0  0  0  0
  1 21  1  0  0  0  0
  1 22  1  0  0  0  0
  2  3  1  0  0  0  0
  2  4  1  0  0  0  0
  2 23  1  0  0  0  0
  3 24  1  0  0  0  0
  3 25  1  0  0  0  0
  3 26  1  0  0  0  0
  4  5  1  0  0  0  0
  4 27  1  0  0  0  0
  4 28  1  0  0  0  0
  5  6  1  0  0  0  0
  5 29  1  0  0  0  0
  5 30  1  0  0  0  0
  6 19  1  0  0  0  0
  6  7  1  0  0  0  0
  6 44  1  0  0  0  0
  7  8  1  0  0  0  0
  7 31  1  0  0  0  0
  7 32  1  0  0  0  0
  8  9  1  0  0  0  0
  8 33  1  0  0  0  0
  8 34  1  0  0  0  0
  9 10  1  0  0  0  0
 10 11  1  0  0  0  0
 10 19  1  0  0  0  0
 10 35  1  0  0  0  0
 11 12  1  0  0  0  0
 11 36  1  0  0  0  0
 11 37  1  0  0  0  0
 12 13  1  0  0  0  0
 12 38  1  0  0  0  0
 13 18  1  0  0  0  0
 13 14  2  0  0  0  0
 14 15  1  0  0  0  0
 14 39  1  0  0  0  0
 15 16  2  0  0  0  0
 15 40  1  0  0  0  0
 16 17  1  0  0  0  0
 16 41  1  0  0  0  0
 17 18  2  0  0  0  0
 19 42  1  0  0  0  0
 19 43  1  0  0  0  0
M  CHG  1   6   1
M  END
> <s_m_source_file>
AV-unprocessed.smi

> <i_m_source_file_index>
861

> <i_lp_mmshare_version>
43012

> <i_f3d_flags>
0

> <s_epik_input>
W0NIM11bQ0hdKFtDSDNdKVtDSDJdW0NIMl1OMVtDSDJdW0NIMl1PW0NASF0oW0NIMl0xKVtDSDJdW05IXWMyW2NIXVtjSF1bY0hdbm4y

> <s_epik_cmdline>
J2VwaWtfcHl0aG9uJywgJy1waCcsICc3LjAnLCAnLXRuJywgJzgnLCAnLW1hJywgJzIwMCcsICctbWV0YWxfYmluZGluZycsICctaW1hZScsICc8aW5maWxlLm1hZT4nLCAnLW9tYWUnLCAnPG91dGZpbGUubWFlPic=

> <r_lp_tautomer_probability>
0.999978

> <r_epik_Ionization_Penalty>
0.114704

> <r_epik_Ionization_Penalty_Charging>
0.0953451

> <r_epik_Ionization_Penalty_Neutral>
0.0193593

> <r_epik_State_Penalty>
0.104983

> <r_epik_Charging_Adjusted_Penalty>
0.200328

> <i_epik_Tot_Q>
1

> <i_epik_Tot_abs_Q>
1

> <r_epik_Metal_State_Penalty>
0.100113

> <b_epik_Metal_Only>
0

> <s_lp_Force_Field>
OPLS_2005

> <r_lp_Energy>
24.1259

> <b_lp_Chiralities_Consistent>
1

> <s_lp_Variant>
AV-unprocessed.smi:861-1

> <Gold.Version>
5.8.1

> <Gold.Id.Protein>
6NUR|6NUR_protein|mol2

> <Gold.PLP.Fitness>
41.3163

> <Gold.PLP.PLP>
-39.2822

> <Gold.PLP.part.hbond>
-2.7447

> <Gold.PLP.part.metal>
0.0000

> <Gold.PLP.part.buried>
-0.6260

> <Gold.PLP.part.nonpolar>
-37.0566

> <Gold.PLP.part.repulsive>
0.4856

> <Gold.PLP.ligand.clash>
0.0000

> <Gold.PLP.ligand.torsion>
0.5239

> <Gold.PLP.Chemscore.Hbond>
1.0000

> <Gold.PLP.Chemscore.CHOScore>
0.0000

> <Gold.PLP.Chemscore.Metal>
0.0000

> <Gold.Chemscore.Hbonds>
donor molecule, donor type, donor heavy atom, donor atom, acceptor molecule, acceptor atom, score
      P1  H  7989  7998       L1     9  1.00

> <Gold.PLP.Chemscore.Internal.Correction>
0.0819

> <Gold.Rescore>
     Score         DG    S(hbond)    S(metal)    S(lipo)     H(rot)  DE(clash)    DE(int)     intcor
     14.43     -16.86       0.67        0.00     115.52       1.71       1.62       0.81       ----

> <Gold.Chemscore.Fitness>
14.4332

> <Gold.Chemscore.DG>
-16.8613

> <Gold.Chemscore.ZeroCoef>
-5.4800

> <Gold.Chemscore.Hbond>
0.6738

> <Gold.Chemscore.Metal>
0.0000

> <Gold.Chemscore.Lipo>
115.5158

> <Gold.Chemscore.Internal_Hbond>
0.0000

> <Gold.Chemscore.DEClash>
1.6162

> <Gold.Chemscore.DEInternal>
0.8118

> <Gold.Chemscore.Rot>
1.7127

> <Gold.Chemscore.Internal.Correction>
   9.000000E+99

> <Gold.Chemscore.Hbonds>
donor molecule, donor type, donor heavy atom, donor atom, acceptor molecule, acceptor atom, score
      P1  H  7989  7998       L1     9  0.37

> <Gold.Chemscore.Hbond.Weighted>
-2.2503

> <Gold.Chemscore.Metal.Weighted>
-0.0000

> <Gold.Chemscore.Lipo.Weighted>
-13.5154

> <Gold.Chemscore.Internal_Hbond.Weighted>
0.0000

> <Gold.Chemscore.DEClash.Weighted>
1.6162

> <Gold.Chemscore.DEInternal.Weighted>
0.8118

> <Gold.Chemscore.Rot.Weighted>
4.3844

> <Gold.Chemscore.Internal.Correction.Weighted>
   9.000000E+99

> <Gold.Protein.RotatedTorsions>
[ 6907 6896 6895 6894 ] final  -17.67 input  -60.11 | X-H torsion
[ 7974 7965 7964 7962 ] final -111.88 input  175.53 | X-H torsion
[ 8008 7997 7996 7995 ] final  -61.63 input   59.86 | X-H torsion
[ 10167 10162 10161 10158 ] final -118.08 input  -65.29 | X-H torsion
[ 10718 10713 10712 10709 ] final  173.31 input   66.30 | X-H torsion
[ 10763 10752 10751 10750 ] final  -13.31 input  -60.55 | X-H torsion
[ 11005 11000 10999 10996 ] final  134.89 input  -57.11 | X-H torsion

> <Gold.Protein.ActiveResidues>
 VAL166  LYS551  ARG553  GLY616  TRP617  ASP618  TYR619  PRO620  LYS621  CYS622 
 ASP623  PHE694  ASN695  SER759  ASP760  ASP761  ALA762  ILE779  LEU786  VAL792 
 PHE793  MET794  SER795  GLU796  ALA797  LYS798  CYS799  TRP800  GLU811  SER814 

> <Gold.Protein.RotatedAtoms>
  151.2898  135.0738  159.9199 H   0  0  0  0  0  0  0  0  0  0  0  0  # atno 6907 bound_to 6896
  152.5318  133.9943  159.7876 H   0  0  0  0  0  0  0  0  0  0  0  0  # atno 6908 bound_to 6896
  151.0212  133.5824  159.2702 H   0  0  0  0  0  0  0  0  0  0  0  0  # atno 6909 bound_to 6896
  145.1508  140.8828  143.3648 H   0  0  0  0  0  0  0  0  0  0  0  0  # atno 7974 bound_to 7965
  154.4458  140.1013  156.6461 H   0  0  0  0  0  0  0  0  0  0  0  0  # atno 8008 bound_to 7997
  155.5448  140.3484  155.4436 H   0  0  0  0  0  0  0  0  0  0  0  0  # atno 8009 bound_to 7997
  156.0571  140.1317  156.9973 H   0  0  0  0  0  0  0  0  0  0  0  0  # atno 8010 bound_to 7997
  140.0614  143.4965  152.2030 H   0  0  0  0  0  0  0  0  0  0  0  0  # atno 10167 bound_to 10162
  156.9662  131.0076  151.2916 H   0  0  0  0  0  0  0  0  0  0  0  0  # atno 10718 bound_to 10713
  153.5114  135.7016  153.5779 H   0  0  0  0  0  0  0  0  0  0  0  0  # atno 10763 bound_to 10752
  153.3867  135.3906  155.1895 H   0  0  0  0  0  0  0  0  0  0  0  0  # atno 10764 bound_to 10752
  154.8703  135.3848  154.4595 H   0  0  0  0  0  0  0  0  0  0  0  0  # atno 10765 bound_to 10752
  139.9944  134.9503  156.9930 H   0  0  0  0  0  0  0  0  0  0  0  0  # atno 11005 bound_to 11000
  145.0433  139.3242  143.5965 LP  0  0  0  0  0  0  0  0  0  0  0  0  # atno 17320 bound_to 7965
  146.3495  139.9815  142.8695 LP  0  0  0  0  0  0  0  0  0  0  0  0  # atno 17321 bound_to 7965
  139.5892  144.7543  151.3444 LP  0  0  0  0  0  0  0  0  0  0  0  0  # atno 17342 bound_to 10162
  140.7170  143.7239  150.7675 LP  0  0  0  0  0  0  0  0  0  0  0  0  # atno 17343 bound_to 10162
  157.5624  130.8255  149.8283 LP  0  0  0  0  0  0  0  0  0  0  0  0  # atno 17370 bound_to 10713
  156.0302  130.3767  150.1710 LP  0  0  0  0  0  0  0  0  0  0  0  0  # atno 17371 bound_to 10713
  140.4846  134.1254  155.7222 LP  0  0  0  0  0  0  0  0  0  0  0  0  # atno 17394 bound_to 11000
  141.1592  133.8824  157.1893 LP  0  0  0  0  0  0  0  0  0  0  0  0  # atno 17395 bound_to 11000

$$$$
