AV-unprocessed.smi:1406|AV-procd|sdf|5717|dock7
  -GOLD-   22720 5353D 1   1.00000     0.00000
 Structure written by MMmdl.
 41 43  0  0  0  0  0  0  0  0  2 V2000
  150.7337  141.1210  155.7224 C   0  0  0  0  0  0  0  0  0  0  0  0
  150.8757  139.8579  156.5961 C   0  0  2  0  0  0  0  0  0  0  0  0
  151.9643  139.9953  157.6727 C   0  0  0  0  0  0  0  0  0  0  0  0
  152.6828  139.0404  157.9696 O   0  0  0  0  0  0  0  0  0  0  0  0
  152.0819  141.2032  158.2480 N   0  0  0  0  0  0  0  0  0  0  0  0
  153.0232  141.5428  159.3133 C   0  0  2  0  0  0  0  0  0  0  0  0
  152.9406  140.5843  160.5163 C   0  0  0  0  0  0  0  0  0  0  0  0
  153.0945  141.4901  161.7423 C   0  0  0  0  0  0  0  0  0  0  0  0
  152.4420  142.7328  161.3140 N   0  3  1  0  0  0  0  0  0  0  0  0
  152.5983  143.9398  162.1502 C   0  0  0  0  0  0  0  0  0  0  0  0
  151.6699  145.0405  161.5933 C   0  0  0  0  0  0  0  0  0  0  0  0
  151.8818  145.2763  160.0800 C   0  0  0  0  0  0  0  0  0  0  0  0
  151.8373  143.9564  159.2797 C   0  0  0  0  0  0  0  0  0  0  0  0
  152.8247  142.9575  159.9092 C   0  0  2  0  0  0  0  0  0  0  0  0
  151.1031  138.6612  155.7956 N   0  0  0  0  0  0  0  0  0  0  0  0
  151.2155  137.3855  156.1720 C   0  0  0  0  0  0  0  0  0  0  0  0
  151.4659  136.5495  155.1744 N   0  0  0  0  0  0  0  0  0  0  0  0
  151.5065  137.4376  154.1372 C   0  0  0  0  0  0  0  0  0  0  0  0
  151.3063  138.7163  154.4555 N   0  0  0  0  0  0  0  0  0  0  0  0
  150.5066  141.9966  156.3313 H   0  0  0  0  0  0  0  0  0  0  0  0
  149.9225  141.0057  155.0031 H   0  0  0  0  0  0  0  0  0  0  0  0
  151.6437  141.3362  155.1605 H   0  0  0  0  0  0  0  0  0  0  0  0
  149.9262  139.7191  157.1161 H   0  0  0  0  0  0  0  0  0  0  0  0
  151.4536  141.9328  157.9439 H   0  0  0  0  0  0  0  0  0  0  0  0
  154.0379  141.4820  158.9140 H   0  0  0  0  0  0  0  0  0  0  0  0
  151.9629  140.1005  160.5489 H   0  0  0  0  0  0  0  0  0  0  0  0
  153.6955  139.7981  160.4809 H   0  0  0  0  0  0  0  0  0  0  0  0
  152.6317  141.0719  162.6366 H   0  0  0  0  0  0  0  0  0  0  0  0
  154.1486  141.6795  161.9516 H   0  0  0  0  0  0  0  0  0  0  0  0
  152.3325  143.7106  163.1826 H   0  0  0  0  0  0  0  0  0  0  0  0
  153.6390  144.2677  162.1476 H   0  0  0  0  0  0  0  0  0  0  0  0
  150.6320  144.7517  161.7643 H   0  0  0  0  0  0  0  0  0  0  0  0
  151.8222  145.9707  162.1416 H   0  0  0  0  0  0  0  0  0  0  0  0
  151.1314  145.9702  159.6998 H   0  0  0  0  0  0  0  0  0  0  0  0
  152.8488  145.7570  159.9258 H   0  0  0  0  0  0  0  0  0  0  0  0
  150.8258  143.5480  159.2852 H   0  0  0  0  0  0  0  0  0  0  0  0
  152.0976  144.1510  158.2389 H   0  0  0  0  0  0  0  0  0  0  0  0
  153.8120  143.4250  159.9107 H   0  0  0  0  0  0  0  0  0  0  0  0
  151.1161  137.0616  157.1978 H   0  0  0  0  0  0  0  0  0  0  0  0
  151.6954  137.1336  153.1181 H   0  0  0  0  0  0  0  0  0  0  0  0
  151.4541  142.5230  161.3009 H   0  0  0  0  0  0  0  0  0  0  0  0
  1  2  1  0  0  0  0
  1 20  1  0  0  0  0
  1 21  1  0  0  0  0
  1 22  1  0  0  0  0
  2  3  1  0  0  0  0
  2 15  1  0  0  0  0
  2 23  1  0  0  0  0
  3  4  2  0  0  0  0
  3  5  1  0  0  0  0
  5  6  1  0  0  0  0
  5 24  1  0  0  0  0
  6 14  1  0  0  0  0
  6  7  1  0  0  0  0
  6 25  1  0  0  0  0
  7  8  1  0  0  0  0
  7 26  1  0  0  0  0
  7 27  1  0  0  0  0
  8  9  1  0  0  0  0
  8 28  1  0  0  0  0
  8 29  1  0  0  0  0
  9 14  1  0  0  0  0
  9 10  1  0  0  0  0
  9 41  1  0  0  0  0
 10 11  1  0  0  0  0
 10 30  1  0  0  0  0
 10 31  1  0  0  0  0
 11 12  1  0  0  0  0
 11 32  1  0  0  0  0
 11 33  1  0  0  0  0
 12 13  1  0  0  0  0
 12 34  1  0  0  0  0
 12 35  1  0  0  0  0
 13 14  1  0  0  0  0
 13 36  1  0  0  0  0
 13 37  1  0  0  0  0
 14 38  1  0  0  0  0
 15 19  1  0  0  0  0
 15 16  1  0  0  0  0
 16 17  2  0  0  0  0
 16 39  1  0  0  0  0
 17 18  1  0  0  0  0
 18 19  2  0  0  0  0
 18 40  1  0  0  0  0
M  CHG  1   9   1
M  END
> <s_m_source_file>
AV-unprocessed.smi

> <i_m_source_file_index>
1406

> <i_lp_mmshare_version>
43012

> <i_f3d_flags>
0

> <s_epik_input>
bjFbY0hdbltjSF1uMVtDQEhdKFtDSDNdKUMoPU8pW05IXVtDQEhdKFtDSDJdW0NIMl0yKVtDQEBIXShOMjMpW0NIMl1bQ0gyXVtDSDJdW0NIMl0z

> <s_epik_cmdline>
J2VwaWtfcHl0aG9uJywgJy1waCcsICc3LjAnLCAnLXRuJywgJzgnLCAnLW1hJywgJzIwMCcsICctbWV0YWxfYmluZGluZycsICctaW1hZScsICc8aW5maWxlLm1hZT4nLCAnLW9tYWUnLCAnPG91dGZpbGUubWFlPic=

> <r_lp_tautomer_probability>
1

> <r_epik_Ionization_Penalty>
0.00197066

> <r_epik_Ionization_Penalty_Charging>
0.00196223

> <r_epik_Ionization_Penalty_Neutral>
8.43107e-06

> <r_epik_State_Penalty>
0.00133866

> <r_epik_Charging_Adjusted_Penalty>
0.00330089

> <i_epik_Tot_Q>
1

> <i_epik_Tot_abs_Q>
1

> <r_epik_Metal_State_Penalty>
-0

> <b_epik_Metal_Only>
0

> <s_lp_Force_Field>
OPLS_2005

> <r_lp_Energy>
47.4686

> <b_lp_Chiralities_Consistent>
1

> <s_lp_Variant>
AV-unprocessed.smi:1406-9

> <Gold.Version>
5.8.1

> <Gold.Id.Protein>
6NUR|6NUR_protein|mol2

> <Gold.PLP.Fitness>
45.5647

> <Gold.PLP.PLP>
-34.7028

> <Gold.PLP.part.hbond>
-3.0000

> <Gold.PLP.part.metal>
0.0000

> <Gold.PLP.part.buried>
2.2429

> <Gold.PLP.part.nonpolar>
-32.8443

> <Gold.PLP.part.repulsive>
0.4498

> <Gold.PLP.ligand.clash>
0.0000

> <Gold.PLP.ligand.torsion>
0.6173

> <Gold.PLP.Chemscore.Hbond>
3.0000

> <Gold.PLP.Chemscore.CHOScore>
1.0000

> <Gold.PLP.Chemscore.Metal>
0.0000

> <Gold.Chemscore.Hbonds>
donor molecule, donor type, donor heavy atom, donor atom, acceptor molecule, acceptor atom, score
      P1  H  7989  7998       L1    19  0.16
      P1  H  7997  8008       L1     4  0.14
      P1  H 10752 10763       L1    17  0.55
      L1  C    18    40       P1  7949  1.00

> <Gold.PLP.Chemscore.Internal.Correction>
0.0966

> <Gold.Rescore>
     Score         DG    S(hbond)    S(metal)    S(lipo)     H(rot)  DE(clash)    DE(int)     intcor
     14.66     -21.73       2.91        0.00      97.21       1.89       3.32       3.76       ----

> <Gold.Chemscore.Fitness>
14.6605

> <Gold.Chemscore.DG>
-21.7330

> <Gold.Chemscore.ZeroCoef>
-5.4800

> <Gold.Chemscore.Hbond>
2.9068

> <Gold.Chemscore.Metal>
0.0000

> <Gold.Chemscore.Lipo>
97.2124

> <Gold.Chemscore.Internal_Hbond>
0.0000

> <Gold.Chemscore.DEClash>
3.3158

> <Gold.Chemscore.DEInternal>
3.7567

> <Gold.Chemscore.Rot>
1.8865

> <Gold.Chemscore.Internal.Correction>
   9.000000E+99

> <Gold.Chemscore.Hbonds>
donor molecule, donor type, donor heavy atom, donor atom, acceptor molecule, acceptor atom, score
      P1  H  7989  7998       L1    19  0.17
      P1  H  7997  8008       L1     4  0.01
      P1  H 10752 10763       L1    17  0.03

> <Gold.Chemscore.Hbond.Weighted>
-9.7087

> <Gold.Chemscore.Metal.Weighted>
-0.0000

> <Gold.Chemscore.Lipo.Weighted>
-11.3739

> <Gold.Chemscore.Internal_Hbond.Weighted>
0.0000

> <Gold.Chemscore.DEClash.Weighted>
3.3158

> <Gold.Chemscore.DEInternal.Weighted>
3.7567

> <Gold.Chemscore.Rot.Weighted>
4.8295

> <Gold.Chemscore.Internal.Correction.Weighted>
   9.000000E+99

> <Gold.Protein.RotatedTorsions>
[ 6907 6896 6895 6894 ] final -115.07 input  -60.11 | X-H torsion
[ 7974 7965 7964 7962 ] final -119.18 input  175.53 | X-H torsion
[ 8008 7997 7996 7995 ] final  -81.22 input   59.86 | X-H torsion
[ 10167 10162 10161 10158 ] final    2.46 input  -65.29 | X-H torsion
[ 10718 10713 10712 10709 ] final   32.49 input   66.30 | X-H torsion
[ 10763 10752 10751 10750 ] final   51.55 input  -60.55 | X-H torsion
[ 11005 11000 10999 10996 ] final  -22.16 input  -57.11 | X-H torsion

> <Gold.Protein.ActiveResidues>
 VAL166  LYS551  ARG553  GLY616  TRP617  ASP618  TYR619  PRO620  LYS621  CYS622 
 ASP623  PHE694  ASN695  SER759  ASP760  ASP761  ALA762  ILE779  LEU786  VAL792 
 PHE793  MET794  SER795  GLU796  ALA797  LYS798  CYS799  TRP800  GLU811  SER814 

> <Gold.Protein.RotatedAtoms>
  150.7950  133.8711  159.3258 H   0  0  0  0  0  0  0  0  0  0  0  0  # atno 6907 bound_to 6896
  151.6539  135.0996  160.0175 H   0  0  0  0  0  0  0  0  0  0  0  0  # atno 6908 bound_to 6896
  152.4030  133.6807  159.6367 H   0  0  0  0  0  0  0  0  0  0  0  0  # atno 6909 bound_to 6896
  145.0654  140.8321  143.4127 H   0  0  0  0  0  0  0  0  0  0  0  0  # atno 7974 bound_to 7965
  154.5961  140.0651  156.9305 H   0  0  0  0  0  0  0  0  0  0  0  0  # atno 8008 bound_to 7997
  155.2211  140.3330  155.4297 H   0  0  0  0  0  0  0  0  0  0  0  0  # atno 8009 bound_to 7997
  156.2288  140.1831  156.7279 H   0  0  0  0  0  0  0  0  0  0  0  0  # atno 8010 bound_to 7997
  140.6634  143.7245  150.7780 H   0  0  0  0  0  0  0  0  0  0  0  0  # atno 10167 bound_to 10162
  157.2859  130.7278  149.6583 H   0  0  0  0  0  0  0  0  0  0  0  0  # atno 10718 bound_to 10713
  152.9785  135.5842  154.4433 H   0  0  0  0  0  0  0  0  0  0  0  0  # atno 10763 bound_to 10752
  154.4031  135.2769  155.2086 H   0  0  0  0  0  0  0  0  0  0  0  0  # atno 10764 bound_to 10752
  154.3908  135.6126  153.5896 H   0  0  0  0  0  0  0  0  0  0  0  0  # atno 10765 bound_to 10752
  140.8630  133.7774  156.0097 H   0  0  0  0  0  0  0  0  0  0  0  0  # atno 11005 bound_to 11000
  145.1357  139.2604  143.5516 LP  0  0  0  0  0  0  0  0  0  0  0  0  # atno 17320 bound_to 7965
  146.3526  140.1020  142.8607 LP  0  0  0  0  0  0  0  0  0  0  0  0  # atno 17321 bound_to 7965
  140.0917  143.4871  152.2475 LP  0  0  0  0  0  0  0  0  0  0  0  0  # atno 17342 bound_to 10162
  139.5874  144.7536  151.3485 LP  0  0  0  0  0  0  0  0  0  0  0  0  # atno 17343 bound_to 10162
  155.9665  130.4324  150.4961 LP  0  0  0  0  0  0  0  0  0  0  0  0  # atno 17370 bound_to 10713
  157.2913  131.0627  151.2131 LP  0  0  0  0  0  0  0  0  0  0  0  0  # atno 17371 bound_to 10713
  140.8660  134.2783  157.5212 LP  0  0  0  0  0  0  0  0  0  0  0  0  # atno 17394 bound_to 11000
  139.8708  134.9543  156.4171 LP  0  0  0  0  0  0  0  0  0  0  0  0  # atno 17395 bound_to 11000

$$$$
