AV-unprocessed.smi:3303|AV-procd|sdf|12687|dock5
  -GOLD-   2272019 23D 1   1.00000     0.00000
 Structure written by MMmdl.
 44 45  0  0  0  0  0  0  0  0  2 V2000
  146.0036  142.7743  154.1289 C   0  0  0  0  0  0  0  0  0  0  0  0
  147.1974  141.8699  154.4810 C   0  0  2  0  0  0  0  0  0  0  0  0
  147.5385  140.9040  153.3290 C   0  0  0  0  0  0  0  0  0  0  0  0
  146.5225  139.8318  153.1669 N   0  3  1  0  0  0  0  0  0  0  0  0
  146.7991  139.0257  151.9533 C   0  0  0  0  0  0  0  0  0  0  0  0
  146.3612  139.0220  154.4112 C   0  0  2  0  0  0  0  0  0  0  0  0
  145.3002  137.9135  154.2665 C   0  0  0  0  0  0  0  0  0  0  0  0
  145.9966  139.9281  155.6087 C   0  0  0  0  0  0  0  0  0  0  0  0
  146.9702  141.1039  155.8063 C   0  0  1  0  0  0  0  0  0  0  0  0
  148.2203  140.5936  156.3562 N   0  0  0  0  0  0  0  0  0  0  0  0
  149.0496  141.6340  156.9498 C   0  0  0  0  0  0  0  0  0  0  0  0
  150.4419  141.0778  157.2933 C   0  0  0  0  0  0  0  0  0  0  0  0
  151.2365  141.9928  158.2121 C   0  0  0  0  0  0  0  0  0  0  0  0
  151.4386  143.3477  157.8727 C   0  0  0  0  0  0  0  0  0  0  0  0
  152.2033  144.1512  158.7405 C   0  0  0  0  0  0  0  0  0  0  0  0
  152.7365  143.5718  159.9081 C   0  0  0  0  0  0  0  0  0  0  0  0
  152.4778  142.2096  160.1580 C   0  0  0  0  0  0  0  0  0  0  0  0
  151.7466  141.4306  159.3323 N   0  0  0  0  0  0  0  0  0  0  0  0
  145.0934  142.2000  153.9562 H   0  0  0  0  0  0  0  0  0  0  0  0
  146.2037  143.3531  153.2266 H   0  0  0  0  0  0  0  0  0  0  0  0
  145.8007  143.4830  154.9323 H   0  0  0  0  0  0  0  0  0  0  0  0
  148.0469  142.5427  154.5939 H   0  0  0  0  0  0  0  0  0  0  0  0
  147.6326  141.4697  152.4011 H   0  0  0  0  0  0  0  0  0  0  0  0
  148.5129  140.4453  153.5074 H   0  0  0  0  0  0  0  0  0  0  0  0
  147.6854  138.4047  152.0898 H   0  0  0  0  0  0  0  0  0  0  0  0
  146.9683  139.6708  151.0906 H   0  0  0  0  0  0  0  0  0  0  0  0
  145.9577  138.3820  151.6984 H   0  0  0  0  0  0  0  0  0  0  0  0
  147.3180  138.5408  154.6221 H   0  0  0  0  0  0  0  0  0  0  0  0
  145.1374  137.4055  155.2176 H   0  0  0  0  0  0  0  0  0  0  0  0
  145.6028  137.1457  153.5547 H   0  0  0  0  0  0  0  0  0  0  0  0
  144.3414  138.3193  153.9424 H   0  0  0  0  0  0  0  0  0  0  0  0
  144.9927  140.3273  155.4578 H   0  0  0  0  0  0  0  0  0  0  0  0
  145.9399  139.3368  156.5239 H   0  0  0  0  0  0  0  0  0  0  0  0
  146.5372  141.7749  156.5501 H   0  0  0  0  0  0  0  0  0  0  0  0
  148.0313  139.8907  157.0571 H   0  0  0  0  0  0  0  0  0  0  0  0
  149.1601  142.4864  156.2808 H   0  0  0  0  0  0  0  0  0  0  0  0
  148.5585  141.9994  157.8522 H   0  0  0  0  0  0  0  0  0  0  0  0
  150.3330  140.1071  157.7779 H   0  0  0  0  0  0  0  0  0  0  0  0
  151.0112  140.8954  156.3805 H   0  0  0  0  0  0  0  0  0  0  0  0
  151.0220  143.7623  156.9663 H   0  0  0  0  0  0  0  0  0  0  0  0
  152.3797  145.1923  158.5132 H   0  0  0  0  0  0  0  0  0  0  0  0
  153.3282  144.1574  160.5960 H   0  0  0  0  0  0  0  0  0  0  0  0
  152.8711  141.7317  161.0430 H   0  0  0  0  0  0  0  0  0  0  0  0
  145.6406  140.2971  153.0058 H   0  0  0  0  0  0  0  0  0  0  0  0
  1  2  1  0  0  0  0
  1 19  1  0  0  0  0
  1 20  1  0  0  0  0
  1 21  1  0  0  0  0
  2  9  1  0  0  0  0
  2  3  1  0  0  0  0
  2 22  1  0  0  0  0
  3  4  1  0  0  0  0
  3 23  1  0  0  0  0
  3 24  1  0  0  0  0
  4  5  1  0  0  0  0
  4  6  1  0  0  0  0
  4 44  1  0  0  0  0
  5 25  1  0  0  0  0
  5 26  1  0  0  0  0
  5 27  1  0  0  0  0
  6  7  1  0  0  0  0
  6  8  1  0  0  0  0
  6 28  1  0  0  0  0
  7 29  1  0  0  0  0
  7 30  1  0  0  0  0
  7 31  1  0  0  0  0
  8  9  1  0  0  0  0
  8 32  1  0  0  0  0
  8 33  1  0  0  0  0
  9 10  1  0  0  0  0
  9 34  1  0  0  0  0
 10 11  1  0  0  0  0
 10 35  1  0  0  0  0
 11 12  1  0  0  0  0
 11 36  1  0  0  0  0
 11 37  1  0  0  0  0
 12 13  1  0  0  0  0
 12 38  1  0  0  0  0
 12 39  1  0  0  0  0
 13 18  1  0  0  0  0
 13 14  2  0  0  0  0
 14 15  1  0  0  0  0
 14 40  1  0  0  0  0
 15 16  2  0  0  0  0
 15 41  1  0  0  0  0
 16 17  1  0  0  0  0
 16 42  1  0  0  0  0
 17 18  2  0  0  0  0
 17 43  1  0  0  0  0
M  CHG  1   4   1
M  END
> <s_m_source_file>
AV-unprocessed.smi

> <i_m_source_file_index>
3303

> <i_lp_mmshare_version>
43012

> <i_f3d_flags>
0

> <s_epik_input>
W0NIM11bQ0BASF0xW0NIMl1OKFtDSDNdKVtDQEBIXShbQ0gzXSlbQ0gyXVtDQEhdMVtOSF1bQ0gyXVtDSDJdYzJbY0hdW2NIXVtjSF1bY0hdbjI=

> <s_epik_cmdline>
J2VwaWtfcHl0aG9uJywgJy1waCcsICc3LjAnLCAnLXRuJywgJzgnLCAnLW1hJywgJzIwMCcsICctbWV0YWxfYmluZGluZycsICctaW1hZScsICc8aW5maWxlLm1hZT4nLCAnLW9tYWUnLCAnPG91dGZpbGUubWFlPic=

> <r_epik_Ionization_Penalty>
2.31085

> <r_epik_Ionization_Penalty_Charging>
0.000313057

> <r_epik_Ionization_Penalty_Neutral>
2.31054

> <r_epik_State_Penalty>
2.4087

> <r_epik_Charging_Adjusted_Penalty>
2.40902

> <i_epik_Tot_Q>
1

> <i_epik_Tot_abs_Q>
1

> <r_epik_Metal_State_Penalty>
2.30979

> <b_epik_Metal_Only>
0

> <s_lp_Force_Field>
OPLS_2005

> <r_lp_Energy>
26.8033

> <b_lp_Chiralities_Consistent>
1

> <s_lp_Variant>
AV-unprocessed.smi:3303-31

> <Gold.Version>
5.8.1

> <Gold.Id.Protein>
6NUR|6NUR_protein|mol2

> <Gold.PLP.Fitness>
42.5498

> <Gold.PLP.PLP>
-37.0041

> <Gold.PLP.part.hbond>
-1.0000

> <Gold.PLP.part.metal>
0.0000

> <Gold.PLP.part.buried>
-2.0669

> <Gold.PLP.part.nonpolar>
-33.8507

> <Gold.PLP.part.repulsive>
0.0000

> <Gold.PLP.ligand.clash>
0.0000

> <Gold.PLP.ligand.torsion>
0.2382

> <Gold.PLP.Chemscore.Hbond>
2.0000

> <Gold.PLP.Chemscore.CHOScore>
0.0000

> <Gold.PLP.Chemscore.Metal>
0.0000

> <Gold.Chemscore.Hbonds>
donor molecule, donor type, donor heavy atom, donor atom, acceptor molecule, acceptor atom, score
      L1  H     4    44       P1 10175  1.98

> <Gold.PLP.Chemscore.Internal.Correction>
0.0220

> <Gold.Rescore>
     Score         DG    S(hbond)    S(metal)    S(lipo)     H(rot)  DE(clash)    DE(int)     intcor
     17.38     -17.85       0.98        0.00     106.80       1.33       0.24       0.22       ----

> <Gold.Chemscore.Fitness>
17.3842

> <Gold.Chemscore.DG>
-17.8467

> <Gold.Chemscore.ZeroCoef>
-5.4800

> <Gold.Chemscore.Hbond>
0.9785

> <Gold.Chemscore.Metal>
0.0000

> <Gold.Chemscore.Lipo>
106.8043

> <Gold.Chemscore.Internal_Hbond>
0.0000

> <Gold.Chemscore.DEClash>
0.2450

> <Gold.Chemscore.DEInternal>
0.2176

> <Gold.Chemscore.Rot>
1.3272

> <Gold.Chemscore.Internal.Correction>
   9.000000E+99

> <Gold.Chemscore.Hbonds>
donor molecule, donor type, donor heavy atom, donor atom, acceptor molecule, acceptor atom, score
      L1  H     4    44       P1 10175  0.86

> <Gold.Chemscore.Hbond.Weighted>
-3.2683

> <Gold.Chemscore.Metal.Weighted>
-0.0000

> <Gold.Chemscore.Lipo.Weighted>
-12.4961

> <Gold.Chemscore.Internal_Hbond.Weighted>
0.0000

> <Gold.Chemscore.DEClash.Weighted>
0.2450

> <Gold.Chemscore.DEInternal.Weighted>
0.2176

> <Gold.Chemscore.Rot.Weighted>
3.3976

> <Gold.Chemscore.Internal.Correction.Weighted>
   9.000000E+99

> <Gold.Protein.RotatedTorsions>
[ 6907 6896 6895 6894 ] final  119.80 input  -60.11 | X-H torsion
[ 7974 7965 7964 7962 ] final  118.21 input  175.53 | X-H torsion
[ 8008 7997 7996 7995 ] final   58.79 input   59.86 | X-H torsion
[ 10167 10162 10161 10158 ] final -105.21 input  -65.29 | X-H torsion
[ 10718 10713 10712 10709 ] final  104.79 input   66.30 | X-H torsion
[ 10763 10752 10751 10750 ] final  153.99 input  -60.55 | X-H torsion
[ 11005 11000 10999 10996 ] final   77.14 input  -57.11 | X-H torsion

> <Gold.Protein.ActiveResidues>
 VAL166  LYS551  ARG553  GLY616  TRP617  ASP618  TYR619  PRO620  LYS621  CYS622 
 ASP623  PHE694  ASN695  SER759  ASP760  ASP761  ALA762  ILE779  LEU786  VAL792 
 PHE793  MET794  SER795  GLU796  ALA797  LYS798  CYS799  TRP800  GLU811  SER814 

> <Gold.Protein.RotatedAtoms>
  152.4445  133.7510  159.6693 H   0  0  0  0  0  0  0  0  0  0  0  0  # atno 6907 bound_to 6896
  150.8342  133.8030  159.3092 H   0  0  0  0  0  0  0  0  0  0  0  0  # atno 6908 bound_to 6896
  151.5675  135.1066  160.0039 H   0  0  0  0  0  0  0  0  0  0  0  0  # atno 6909 bound_to 6896
  145.1579  139.3172  143.4532 H   0  0  0  0  0  0  0  0  0  0  0  0  # atno 7974 bound_to 7965
  155.5556  140.3487  155.4479 H   0  0  0  0  0  0  0  0  0  0  0  0  # atno 8008 bound_to 7997
  156.0551  140.1327  157.0031 H   0  0  0  0  0  0  0  0  0  0  0  0  # atno 8009 bound_to 7997
  154.4453  140.0997  156.6419 H   0  0  0  0  0  0  0  0  0  0  0  0  # atno 8010 bound_to 7997
  140.2010  143.3819  152.1129 H   0  0  0  0  0  0  0  0  0  0  0  0  # atno 10167 bound_to 10162
  157.6728  131.0812  150.5759 H   0  0  0  0  0  0  0  0  0  0  0  0  # atno 10718 bound_to 10713
  154.1451  135.2818  155.3150 H   0  0  0  0  0  0  0  0  0  0  0  0  # atno 10763 bound_to 10752
  154.6258  135.5452  153.7629 H   0  0  0  0  0  0  0  0  0  0  0  0  # atno 10764 bound_to 10752
  153.0238  135.6450  154.1597 H   0  0  0  0  0  0  0  0  0  0  0  0  # atno 10765 bound_to 10752
  139.9267  134.7658  156.1484 H   0  0  0  0  0  0  0  0  0  0  0  0  # atno 11005 bound_to 11000
  146.3486  140.1678  142.8590 LP  0  0  0  0  0  0  0  0  0  0  0  0  # atno 17320 bound_to 7965
  145.0361  140.8909  143.5080 LP  0  0  0  0  0  0  0  0  0  0  0  0  # atno 17321 bound_to 7965
  139.5217  144.7050  151.5382 LP  0  0  0  0  0  0  0  0  0  0  0  0  # atno 17342 bound_to 10162
  140.6390  143.8926  150.6674 LP  0  0  0  0  0  0  0  0  0  0  0  0  # atno 17343 bound_to 10162
  156.6060  130.4367  149.5878 LP  0  0  0  0  0  0  0  0  0  0  0  0  # atno 17370 bound_to 10713
  156.2468  130.6884  151.1608 LP  0  0  0  0  0  0  0  0  0  0  0  0  # atno 17371 bound_to 10713
  141.0830  133.6746  156.2376 LP  0  0  0  0  0  0  0  0  0  0  0  0  # atno 17394 bound_to 11000
  140.6315  134.5259  157.5560 LP  0  0  0  0  0  0  0  0  0  0  0  0  # atno 17395 bound_to 11000

$$$$
