AV-unprocessed.smi:2528|AV-procd|sdf|9948|dock5
  -GOLD-   2272013593D 1   1.00000     0.00000
 Structure written by MMmdl.
 44 46  0  0  0  0  0  0  0  0  2 V2000
  150.4499  140.4483  156.2848 O   0  0  0  0  0  0  0  0  0  0  0  0
  150.0760  141.6008  156.0664 C   0  0  0  0  0  0  0  0  0  0  0  0
  149.2243  141.9261  155.0831 N   0  0  0  0  0  0  0  0  0  0  0  0
  148.6216  140.9815  154.1458 C   0  0  0  0  0  0  0  0  0  0  0  0
  147.0979  140.8264  154.3327 C   0  0  2  0  0  0  0  0  0  0  0  0
  146.3692  142.1528  154.6329 C   0  0  0  0  0  0  0  0  0  0  0  0
  144.9190  141.9180  154.8213 N   0  3  2  0  0  0  0  0  0  0  0  0
  144.1721  143.1757  155.0761 C   0  0  0  0  0  0  0  0  0  0  0  0
  142.6615  142.9113  155.1755 C   0  0  0  0  0  0  0  0  0  0  0  0
  142.3625  141.8689  156.2600 C   0  0  0  0  0  0  0  0  0  0  0  0
  143.1643  140.5885  155.9914 C   0  0  0  0  0  0  0  0  0  0  0  0
  144.6723  140.8847  155.8641 C   0  0  1  0  0  0  0  0  0  0  0  0
  145.4638  139.6047  155.5313 C   0  0  0  0  0  0  0  0  0  0  0  0
  146.8452  139.9072  155.3893 O   0  0  0  0  0  0  0  0  0  0  0  0
  150.4543  142.6867  156.7632 N   0  0  0  0  0  0  0  0  0  0  0  0
  151.3179  142.7486  157.8894 C   0  0  0  0  0  0  0  0  0  0  0  0
  151.6344  144.0535  158.3305 C   0  0  0  0  0  0  0  0  0  0  0  0
  152.4829  144.2221  159.4421 C   0  0  0  0  0  0  0  0  0  0  0  0
  152.9928  143.0801  160.0851 C   0  0  0  0  0  0  0  0  0  0  0  0
  152.6266  141.8176  159.5835 C   0  0  0  0  0  0  0  0  0  0  0  0
  151.8134  141.6536  158.5188 N   0  0  0  0  0  0  0  0  0  0  0  0
  148.9772  142.8985  154.9710 H   0  0  0  0  0  0  0  0  0  0  0  0
  148.8240  141.3494  153.1397 H   0  0  0  0  0  0  0  0  0  0  0  0
  149.1131  140.0096  154.2161 H   0  0  0  0  0  0  0  0  0  0  0  0
  146.6977  140.4025  153.4098 H   0  0  0  0  0  0  0  0  0  0  0  0
  146.7722  142.6193  155.5332 H   0  0  0  0  0  0  0  0  0  0  0  0
  146.5220  142.8540  153.8116 H   0  0  0  0  0  0  0  0  0  0  0  0
  144.5329  143.6355  155.9976 H   0  0  0  0  0  0  0  0  0  0  0  0
  144.3663  143.8848  154.2704 H   0  0  0  0  0  0  0  0  0  0  0  0
  142.1331  143.8396  155.3942 H   0  0  0  0  0  0  0  0  0  0  0  0
  142.2858  142.5599  154.2136 H   0  0  0  0  0  0  0  0  0  0  0  0
  142.6232  142.2699  157.2403 H   0  0  0  0  0  0  0  0  0  0  0  0
  141.2951  141.6470  156.2862 H   0  0  0  0  0  0  0  0  0  0  0  0
  142.9907  139.8718  156.7951 H   0  0  0  0  0  0  0  0  0  0  0  0
  142.8005  140.1194  155.0761 H   0  0  0  0  0  0  0  0  0  0  0  0
  145.0337  141.2739  156.8181 H   0  0  0  0  0  0  0  0  0  0  0  0
  145.3502  138.8731  156.3315 H   0  0  0  0  0  0  0  0  0  0  0  0
  145.0902  139.1369  154.6189 H   0  0  0  0  0  0  0  0  0  0  0  0
  150.0804  143.5718  156.4552 H   0  0  0  0  0  0  0  0  0  0  0  0
  151.2354  144.9208  157.8248 H   0  0  0  0  0  0  0  0  0  0  0  0
  152.7377  145.2109  159.7938 H   0  0  0  0  0  0  0  0  0  0  0  0
  153.6467  143.1689  160.9401 H   0  0  0  0  0  0  0  0  0  0  0  0
  152.9958  140.9155  160.0486 H   0  0  0  0  0  0  0  0  0  0  0  0
  144.5691  141.5418  153.9518 H   0  0  0  0  0  0  0  0  0  0  0  0
  1  2  2  0  0  0  0
  2  3  1  0  0  0  0
  2 15  1  0  0  0  0
  3  4  1  0  0  0  0
  3 22  1  0  0  0  0
  4  5  1  0  0  0  0
  4 23  1  0  0  0  0
  4 24  1  0  0  0  0
  5 14  1  0  0  0  0
  5  6  1  0  0  0  0
  5 25  1  0  0  0  0
  6  7  1  0  0  0  0
  6 26  1  0  0  0  0
  6 27  1  0  0  0  0
  7 12  1  0  0  0  0
  7  8  1  0  0  0  0
  7 44  1  0  0  0  0
  8  9  1  0  0  0  0
  8 28  1  0  0  0  0
  8 29  1  0  0  0  0
  9 10  1  0  0  0  0
  9 30  1  0  0  0  0
  9 31  1  0  0  0  0
 10 11  1  0  0  0  0
 10 32  1  0  0  0  0
 10 33  1  0  0  0  0
 11 12  1  0  0  0  0
 11 34  1  0  0  0  0
 11 35  1  0  0  0  0
 12 13  1  0  0  0  0
 12 36  1  0  0  0  0
 13 14  1  0  0  0  0
 13 37  1  0  0  0  0
 13 38  1  0  0  0  0
 15 16  1  0  0  0  0
 15 39  1  0  0  0  0
 16 21  1  0  0  0  0
 16 17  2  0  0  0  0
 17 18  1  0  0  0  0
 17 40  1  0  0  0  0
 18 19  2  0  0  0  0
 18 41  1  0  0  0  0
 19 20  1  0  0  0  0
 19 42  1  0  0  0  0
 20 21  2  0  0  0  0
 20 43  1  0  0  0  0
M  CHG  1   7   1
M  END
> <s_m_source_file>
AV-unprocessed.smi

> <i_m_source_file_index>
2528

> <i_lp_mmshare_version>
43012

> <i_f3d_flags>
0

> <s_epik_input>
bjFbY0hdW2NIXVtjSF1bY0hdYzFbTkhdQyg9TylbTkhdW0NIMl1bQ0BIXShbQ0gyXTIpT1tDSDJdW0NAQEhdKE4yMylbQ0gyXVtDSDJdW0NIMl1bQ0gyXTM=

> <s_epik_cmdline>
J2VwaWtfcHl0aG9uJywgJy1waCcsICc3LjAnLCAnLXRuJywgJzgnLCAnLW1hJywgJzIwMCcsICctbWV0YWxfYmluZGluZycsICctaW1hZScsICc8aW5maWxlLm1hZT4nLCAnLW9tYWUnLCAnPG91dGZpbGUubWFlPic=

> <r_epik_Ionization_Penalty>
0.0932337

> <r_epik_Ionization_Penalty_Charging>
0.0931942

> <r_epik_Ionization_Penalty_Neutral>
3.9565e-05

> <r_epik_State_Penalty>
0.0834605

> <r_epik_Charging_Adjusted_Penalty>
0.176655

> <i_epik_Tot_Q>
1

> <i_epik_Tot_abs_Q>
1

> <r_epik_Metal_State_Penalty>
0.0834607

> <b_epik_Metal_Only>
0

> <s_lp_Force_Field>
OPLS_2005

> <r_lp_Energy>
24.6959

> <b_lp_Chiralities_Consistent>
1

> <s_lp_Variant>
AV-unprocessed.smi:2528-1

> <Gold.Version>
5.8.1

> <Gold.Id.Protein>
6NUR|6NUR_protein|mol2

> <Gold.PLP.Fitness>
47.7912

> <Gold.PLP.PLP>
-36.3501

> <Gold.PLP.part.hbond>
-3.0000

> <Gold.PLP.part.metal>
0.0000

> <Gold.PLP.part.buried>
-5.2419

> <Gold.PLP.part.nonpolar>
-29.4941

> <Gold.PLP.part.repulsive>
0.3235

> <Gold.PLP.ligand.clash>
0.0000

> <Gold.PLP.ligand.torsion>
0.2444

> <Gold.PLP.Chemscore.Hbond>
3.9760

> <Gold.PLP.Chemscore.CHOScore>
0.0000

> <Gold.PLP.Chemscore.Metal>
0.0000

> <Gold.Chemscore.Hbonds>
donor molecule, donor type, donor heavy atom, donor atom, acceptor molecule, acceptor atom, score
      L1  H     3    22       P1  8028  1.00
      L1  H     7    44       P1 10175  1.80
      L1  H    15    39       P1  8028  1.00

> <Gold.PLP.Chemscore.Internal.Correction>
0.0020

> <Gold.Rescore>
     Score         DG    S(hbond)    S(metal)    S(lipo)     H(rot)  DE(clash)    DE(int)     intcor
     18.72     -20.21       2.85        0.00      72.71       1.29       0.03       1.47       ----

> <Gold.Chemscore.Fitness>
18.7167

> <Gold.Chemscore.DG>
-20.2131

> <Gold.Chemscore.ZeroCoef>
-5.4800

> <Gold.Chemscore.Hbond>
2.8507

> <Gold.Chemscore.Metal>
0.0000

> <Gold.Chemscore.Lipo>
72.7069

> <Gold.Chemscore.Internal_Hbond>
0.0000

> <Gold.Chemscore.DEClash>
0.0310

> <Gold.Chemscore.DEInternal>
1.4654

> <Gold.Chemscore.Rot>
1.2870

> <Gold.Chemscore.Internal.Correction>
   9.000000E+99

> <Gold.Chemscore.Hbonds>
donor molecule, donor type, donor heavy atom, donor atom, acceptor molecule, acceptor atom, score
      L1  H     3    22       P1  8028  0.96
      L1  H     7    44       P1 10175  0.17
      L1  H    15    39       P1  8028  0.99

> <Gold.Chemscore.Hbond.Weighted>
-9.5212

> <Gold.Chemscore.Metal.Weighted>
-0.0000

> <Gold.Chemscore.Lipo.Weighted>
-8.5067

> <Gold.Chemscore.Internal_Hbond.Weighted>
0.0000

> <Gold.Chemscore.DEClash.Weighted>
0.0310

> <Gold.Chemscore.DEInternal.Weighted>
1.4654

> <Gold.Chemscore.Rot.Weighted>
3.2948

> <Gold.Chemscore.Internal.Correction.Weighted>
   9.000000E+99

> <Gold.Protein.RotatedTorsions>
[ 6907 6896 6895 6894 ] final -127.47 input  -60.11 | X-H torsion
[ 7974 7965 7964 7962 ] final  -58.66 input  175.53 | X-H torsion
[ 8008 7997 7996 7995 ] final -171.82 input   59.86 | X-H torsion
[ 10167 10162 10161 10158 ] final   26.40 input  -65.29 | X-H torsion
[ 10718 10713 10712 10709 ] final   24.06 input   66.30 | X-H torsion
[ 10763 10752 10751 10750 ] final -107.79 input  -60.55 | X-H torsion
[ 11005 11000 10999 10996 ] final  -91.94 input  -57.11 | X-H torsion

> <Gold.Protein.ActiveResidues>
 VAL166  LYS551  ARG553  GLY616  TRP617  ASP618  TYR619  PRO620  LYS621  CYS622 
 ASP623  PHE694  ASN695  SER759  ASP760  ASP761  ALA762  ILE779  LEU786  VAL792 
 PHE793  MET794  SER795  GLU796  ALA797  LYS798  CYS799  TRP800  GLU811  SER814 

> <Gold.Protein.RotatedAtoms>
  150.9076  133.7038  159.2862 H   0  0  0  0  0  0  0  0  0  0  0  0  # atno 6907 bound_to 6896
  151.4536  135.1031  159.9714 H   0  0  0  0  0  0  0  0  0  0  0  0  # atno 6908 bound_to 6896
  152.4912  133.8456  159.7230 H   0  0  0  0  0  0  0  0  0  0  0  0  # atno 6909 bound_to 6896
  145.8367  140.8444  143.0055 H   0  0  0  0  0  0  0  0  0  0  0  0  # atno 7974 bound_to 7965
  155.9365  140.1101  157.1090 H   0  0  0  0  0  0  0  0  0  0  0  0  # atno 8008 bound_to 7997
  154.4081  140.1227  156.4937 H   0  0  0  0  0  0  0  0  0  0  0  0  # atno 8009 bound_to 7997
  155.7015  140.3472  155.4937 H   0  0  0  0  0  0  0  0  0  0  0  0  # atno 8010 bound_to 7997
  140.5026  144.0290  150.6339 H   0  0  0  0  0  0  0  0  0  0  0  0  # atno 10167 bound_to 10162
  157.1746  130.6775  149.6090 H   0  0  0  0  0  0  0  0  0  0  0  0  # atno 10718 bound_to 10713
  154.8096  135.4662  154.0483 H   0  0  0  0  0  0  0  0  0  0  0  0  # atno 10763 bound_to 10752
  153.1924  135.6857  153.8343 H   0  0  0  0  0  0  0  0  0  0  0  0  # atno 10764 bound_to 10752
  153.7856  135.3250  155.3349 H   0  0  0  0  0  0  0  0  0  0  0  0  # atno 10765 bound_to 10752
  141.1533  133.7788  156.9950 H   0  0  0  0  0  0  0  0  0  0  0  0  # atno 11005 bound_to 11000
  144.6736  140.0752  143.7471 LP  0  0  0  0  0  0  0  0  0  0  0  0  # atno 17320 bound_to 7965
  145.9510  139.2734  143.1212 LP  0  0  0  0  0  0  0  0  0  0  0  0  # atno 17321 bound_to 7965
  140.3590  143.2919  152.0404 LP  0  0  0  0  0  0  0  0  0  0  0  0  # atno 17342 bound_to 10162
  139.4876  144.6317  151.7057 LP  0  0  0  0  0  0  0  0  0  0  0  0  # atno 17343 bound_to 10162
  155.9733  130.4667  150.6300 LP  0  0  0  0  0  0  0  0  0  0  0  0  # atno 17370 bound_to 10713
  157.4011  131.0810  151.1308 LP  0  0  0  0  0  0  0  0  0  0  0  0  # atno 17371 bound_to 10713
  140.0978  134.9554  157.1876 LP  0  0  0  0  0  0  0  0  0  0  0  0  # atno 17394 bound_to 11000
  140.3359  134.2757  155.7220 LP  0  0  0  0  0  0  0  0  0  0  0  0  # atno 17395 bound_to 11000

$$$$
