AV-unprocessed.smi:256|AV-procd|sdf|1962|dock3
  -GOLD-   2262021113D 1   1.00000     0.00000
 Structure written by MMmdl.
 61 64  0  0  0  0  0  0  0  0  1 V2000
  151.0584  144.9035  159.3213 C   0  0  0  0  0  0  0  0  0  0  0  0
  151.5512  143.9664  158.2076 C   0  0  0  0  0  0  0  0  0  0  0  0
  151.4658  142.4509  158.5370 C   0  0  1  0  0  0  0  0  0  0  0  0
  151.4748  141.6430  157.2121 C   0  0  0  0  0  0  0  0  0  0  0  0
  151.3760  140.2062  157.4581 N   0  0  0  0  0  0  0  0  0  0  0  0
  151.1174  139.3924  156.4030 C   0  0  0  0  0  0  0  0  0  0  0  0
  150.9467  139.9198  155.1607 N   0  0  0  0  0  0  0  0  0  0  0  0
  150.6974  139.1240  154.1166 C   0  0  0  0  0  0  0  0  0  0  0  0
  150.5744  137.7958  154.0906 N   0  0  0  0  0  0  0  0  0  0  0  0
  150.7357  137.2606  155.3345 C   0  0  0  0  0  0  0  0  0  0  0  0
  151.0087  137.9788  156.5329 C   0  0  0  0  0  0  0  0  0  0  0  0
  151.0966  137.0953  157.6027 N   0  0  0  0  0  0  0  0  0  0  0  0
  150.8930  135.9231  157.0668 C   0  0  0  0  0  0  0  0  0  0  0  0
  150.6602  135.9306  155.7101 N   0  0  0  0  0  0  0  0  0  0  0  0
  150.3951  134.7759  154.8658 C   0  0  0  0  0  0  0  0  0  0  0  0
  150.3985  133.4285  155.6299 C   0  0  0  0  0  0  0  0  0  0  0  0
  150.1443  132.4002  154.6876 O   0  0  0  0  0  0  0  0  0  0  0  0
  151.7499  133.1382  156.3196 C   0  0  0  0  0  0  0  0  0  0  0  0
  151.6783  131.9045  157.2369 C   0  0  0  0  0  0  0  0  0  0  0  0
  150.6311  132.0601  158.1870 O   0  0  0  0  0  0  0  0  0  0  0  0
  149.3477  132.1543  157.5809 C   0  0  0  0  0  0  0  0  0  0  0  0
  149.2771  133.4057  156.6876 C   0  0  0  0  0  0  0  0  0  0  0  0
  152.4045  139.7198  158.3665 C   0  0  0  0  0  0  0  0  0  0  0  0
  152.3588  140.5262  159.6687 C   0  0  0  0  0  0  0  0  0  0  0  0
  152.5271  141.9694  159.4544 N   0  0  0  0  0  0  0  0  0  0  0  0
  152.5427  142.6813  160.7423 C   0  0  0  0  0  0  0  0  0  0  0  0
  153.5443  142.1598  161.7878 C   0  0  0  0  0  0  0  0  0  0  0  0
  153.4661  142.9574  162.9584 O   0  0  0  0  0  0  0  0  0  0  0  0
  154.3462  142.5156  163.9766 C   0  0  0  0  0  0  0  0  0  0  0  0
  151.2884  145.9406  159.0770 H   0  0  0  0  0  0  0  0  0  0  0  0
  151.5396  144.6743  160.2725 H   0  0  0  0  0  0  0  0  0  0  0  0
  149.9793  144.8422  159.4602 H   0  0  0  0  0  0  0  0  0  0  0  0
  151.0044  144.1780  157.2881 H   0  0  0  0  0  0  0  0  0  0  0  0
  152.5842  144.2544  158.0230 H   0  0  0  0  0  0  0  0  0  0  0  0
  150.5007  142.2786  159.0165 H   0  0  0  0  0  0  0  0  0  0  0  0
  150.6307  141.9357  156.5881 H   0  0  0  0  0  0  0  0  0  0  0  0
  152.3858  141.8542  156.6498 H   0  0  0  0  0  0  0  0  0  0  0  0
  150.5788  139.6232  153.1662 H   0  0  0  0  0  0  0  0  0  0  0  0
  150.8979  135.0145  157.6514 H   0  0  0  0  0  0  0  0  0  0  0  0
  149.4307  134.9272  154.3793 H   0  0  0  0  0  0  0  0  0  0  0  0
  151.1375  134.7606  154.0664 H   0  0  0  0  0  0  0  0  0  0  0  0
  150.1919  131.5675  155.1319 H   0  0  0  0  0  0  0  0  0  0  0  0
  152.5429  133.0008  155.5834 H   0  0  0  0  0  0  0  0  0  0  0  0
  152.0372  134.0011  156.9220 H   0  0  0  0  0  0  0  0  0  0  0  0
  151.5270  130.9922  156.6581 H   0  0  0  0  0  0  0  0  0  0  0  0
  152.6210  131.7843  157.7712 H   0  0  0  0  0  0  0  0  0  0  0  0
  149.1348  131.2493  157.0097 H   0  0  0  0  0  0  0  0  0  0  0  0
  148.5939  132.2150  158.3661 H   0  0  0  0  0  0  0  0  0  0  0  0
  149.3638  134.2872  157.3242 H   0  0  0  0  0  0  0  0  0  0  0  0
  148.2985  133.4702  156.2098 H   0  0  0  0  0  0  0  0  0  0  0  0
  152.2729  138.6622  158.5914 H   0  0  0  0  0  0  0  0  0  0  0  0
  153.3817  139.8242  157.8924 H   0  0  0  0  0  0  0  0  0  0  0  0
  151.4173  140.3341  160.1857 H   0  0  0  0  0  0  0  0  0  0  0  0
  153.1505  140.1426  160.3101 H   0  0  0  0  0  0  0  0  0  0  0  0
  152.8182  143.7212  160.5847 H   0  0  0  0  0  0  0  0  0  0  0  0
  151.5405  142.6912  161.1727 H   0  0  0  0  0  0  0  0  0  0  0  0
  153.3001  141.1256  162.0341 H   0  0  0  0  0  0  0  0  0  0  0  0
  154.5607  142.1522  161.3932 H   0  0  0  0  0  0  0  0  0  0  0  0
  154.2422  143.1549  164.8533 H   0  0  0  0  0  0  0  0  0  0  0  0
  155.3847  142.5637  163.6467 H   0  0  0  0  0  0  0  0  0  0  0  0
  154.1204  141.4917  164.2773 H   0  0  0  0  0  0  0  0  0  0  0  0
  1  2  1  0  0  0  0
  1 30  1  0  0  0  0
  1 31  1  0  0  0  0
  1 32  1  0  0  0  0
  2  3  1  0  0  0  0
  2 33  1  0  0  0  0
  2 34  1  0  0  0  0
  3 25  1  0  0  0  0
  3  4  1  0  0  0  0
  3 35  1  0  0  0  0
  4  5  1  0  0  0  0
  4 36  1  0  0  0  0
  4 37  1  0  0  0  0
  5  6  1  0  0  0  0
  5 23  1  0  0  0  0
  6 11  1  0  0  0  0
  6  7  2  0  0  0  0
  7  8  1  0  0  0  0
  8  9  2  0  0  0  0
  8 38  1  0  0  0  0
  9 10  1  0  0  0  0
 10 14  1  0  0  0  0
 10 11  2  0  0  0  0
 11 12  1  0  0  0  0
 12 13  2  0  0  0  0
 13 14  1  0  0  0  0
 13 39  1  0  0  0  0
 14 15  1  0  0  0  0
 15 16  1  0  0  0  0
 15 40  1  0  0  0  0
 15 41  1  0  0  0  0
 16 22  1  0  0  0  0
 16 17  1  0  0  0  0
 16 18  1  0  0  0  0
 17 42  1  0  0  0  0
 18 19  1  0  0  0  0
 18 43  1  0  0  0  0
 18 44  1  0  0  0  0
 19 20  1  0  0  0  0
 19 45  1  0  0  0  0
 19 46  1  0  0  0  0
 20 21  1  0  0  0  0
 21 22  1  0  0  0  0
 21 47  1  0  0  0  0
 21 48  1  0  0  0  0
 22 49  1  0  0  0  0
 22 50  1  0  0  0  0
 23 24  1  0  0  0  0
 23 51  1  0  0  0  0
 23 52  1  0  0  0  0
 24 25  1  0  0  0  0
 24 53  1  0  0  0  0
 24 54  1  0  0  0  0
 25 26  1  0  0  0  0
 26 27  1  0  0  0  0
 26 55  1  0  0  0  0
 26 56  1  0  0  0  0
 27 28  1  0  0  0  0
 27 57  1  0  0  0  0
 27 58  1  0  0  0  0
 28 29  1  0  0  0  0
 29 59  1  0  0  0  0
 29 60  1  0  0  0  0
 29 61  1  0  0  0  0
M  END
> <s_m_source_file>
AV-unprocessed.smi

> <i_m_source_file_index>
256

> <i_lp_mmshare_version>
43012

> <i_f3d_flags>
0

> <s_epik_input>
W0NIM11PW0NIMl1bQ0gyXU4xW0NIMl1bQ0gyXU4oW0NIMl1bQ0BIXTFbQ0gyXVtDSDNdKWMobltjSF1uMiljKGMyMyluW2NIXW4zW0NIMl1DNChbT0hdKVtDSDJdW0NIMl1PW0NIMl1bQ0gyXTQ=

> <s_epik_cmdline>
J2VwaWtfcHl0aG9uJywgJy1waCcsICc3LjAnLCAnLXRuJywgJzgnLCAnLW1hJywgJzIwMCcsICctbWV0YWxfYmluZGluZycsICctaW1hZScsICc8aW5maWxlLm1hZT4nLCAnLW9tYWUnLCAnPG91dGZpbGUubWFlPic=

> <r_lp_tautomer_probability>
1

> <r_epik_Ionization_Penalty>
0.676279

> <r_epik_Ionization_Penalty_Charging>
0

> <r_epik_Ionization_Penalty_Neutral>
0.676279

> <r_epik_State_Penalty>
0.6855

> <r_epik_Charging_Adjusted_Penalty>
0.6855

> <i_epik_Tot_Q>
0

> <i_epik_Tot_abs_Q>
0

> <r_epik_Metal_State_Penalty>
0.678557

> <b_epik_Metal_Only>
0

> <s_lp_Force_Field>
OPLS_2005

> <r_lp_Energy>
58.0034

> <b_lp_Chiralities_Consistent>
1

> <s_lp_Variant>
AV-unprocessed.smi:256-6

> <Gold.Version>
5.8.1

> <Gold.Id.Protein>
6NUR|6NUR_protein|mol2

> <Gold.PLP.Fitness>
49.0007

> <Gold.PLP.PLP>
-43.4331

> <Gold.PLP.part.hbond>
-2.0000

> <Gold.PLP.part.metal>
0.0000

> <Gold.PLP.part.buried>
-6.0530

> <Gold.PLP.part.nonpolar>
-35.2479

> <Gold.PLP.part.repulsive>
0.5120

> <Gold.PLP.ligand.clash>
0.0000

> <Gold.PLP.ligand.torsion>
0.4190

> <Gold.PLP.Chemscore.Hbond>
1.0000

> <Gold.PLP.Chemscore.CHOScore>
1.0000

> <Gold.PLP.Chemscore.Metal>
0.0000

> <Gold.Chemscore.Hbonds>
donor molecule, donor type, donor heavy atom, donor atom, acceptor molecule, acceptor atom, score
      P1  H  6896  6908       L1    20  1.00
      L1  C     8    38       P1  7957  1.00

> <Gold.PLP.Chemscore.Internal.Correction>
0.4057

> <Gold.Rescore>
     Score         DG    S(hbond)    S(metal)    S(lipo)     H(rot)  DE(clash)    DE(int)     intcor
      9.14     -13.07       0.51        0.00     113.05       2.87       0.73       3.20       ----

> <Gold.Chemscore.Fitness>
9.1361

> <Gold.Chemscore.DG>
-13.0662

> <Gold.Chemscore.ZeroCoef>
-5.4800

> <Gold.Chemscore.Hbond>
0.5110

> <Gold.Chemscore.Metal>
0.0000

> <Gold.Chemscore.Lipo>
113.0482

> <Gold.Chemscore.Internal_Hbond>
0.0000

> <Gold.Chemscore.DEClash>
0.7350

> <Gold.Chemscore.DEInternal>
3.1952

> <Gold.Chemscore.Rot>
2.8700

> <Gold.Chemscore.Internal.Correction>
   9.000000E+99

> <Gold.Chemscore.Hbonds>
donor molecule, donor type, donor heavy atom, donor atom, acceptor molecule, acceptor atom, score
      P1  H  6896  6908       L1    20  0.53

> <Gold.Chemscore.Hbond.Weighted>
-1.7068

> <Gold.Chemscore.Metal.Weighted>
-0.0000

> <Gold.Chemscore.Lipo.Weighted>
-13.2266

> <Gold.Chemscore.Internal_Hbond.Weighted>
0.0000

> <Gold.Chemscore.DEClash.Weighted>
0.7350

> <Gold.Chemscore.DEInternal.Weighted>
3.1952

> <Gold.Chemscore.Rot.Weighted>
7.3472

> <Gold.Chemscore.Internal.Correction.Weighted>
   9.000000E+99

> <Gold.Protein.RotatedTorsions>
[ 6907 6896 6895 6894 ] final   98.06 input  -60.11 | X-H torsion
[ 7974 7965 7964 7962 ] final   84.32 input  175.53 | X-H torsion
[ 8008 7997 7996 7995 ] final  -68.01 input   59.86 | X-H torsion
[ 10167 10162 10161 10158 ] final -125.78 input  -65.29 | X-H torsion
[ 10718 10713 10712 10709 ] final -122.78 input   66.30 | X-H torsion
[ 10763 10752 10751 10750 ] final   92.77 input  -60.55 | X-H torsion
[ 11005 11000 10999 10996 ] final  177.66 input  -57.11 | X-H torsion

> <Gold.Protein.ActiveResidues>
 VAL166  LYS551  ARG553  GLY616  TRP617  ASP618  TYR619  PRO620  LYS621  CYS622 
 ASP623  PHE694  ASN695  SER759  ASP760  ASP761  ALA762  ILE779  LEU786  VAL792 
 PHE793  MET794  SER795  GLU796  ALA797  LYS798  CYS799  TRP800  GLU811  SER814 

> <Gold.Protein.RotatedAtoms>
  152.5415  134.0638  159.8163 H   0  0  0  0  0  0  0  0  0  0  0  0  # atno 6907 bound_to 6896
  151.0762  133.5418  159.2631 H   0  0  0  0  0  0  0  0  0  0  0  0  # atno 6908 bound_to 6896
  151.2263  135.0546  159.9024 H   0  0  0  0  0  0  0  0  0  0  0  0  # atno 6909 bound_to 6896
  145.6002  139.2351  143.2250 H   0  0  0  0  0  0  0  0  0  0  0  0  # atno 7974 bound_to 7965
  154.4839  140.0881  156.7441 H   0  0  0  0  0  0  0  0  0  0  0  0  # atno 8008 bound_to 7997
  155.4400  140.3453  155.4271 H   0  0  0  0  0  0  0  0  0  0  0  0  # atno 8009 bound_to 7997
  156.1232  140.1480  156.9162 H   0  0  0  0  0  0  0  0  0  0  0  0  # atno 8010 bound_to 7997
  139.9785  143.5768  152.2387 H   0  0  0  0  0  0  0  0  0  0  0  0  # atno 10167 bound_to 10162
  156.1447  130.6491  150.9825 H   0  0  0  0  0  0  0  0  0  0  0  0  # atno 10718 bound_to 10713
  153.2228  135.4349  155.0508 H   0  0  0  0  0  0  0  0  0  0  0  0  # atno 10763 bound_to 10752
  154.8258  135.3360  154.6902 H   0  0  0  0  0  0  0  0  0  0  0  0  # atno 10764 bound_to 10752
  153.7333  135.7009  153.5040 H   0  0  0  0  0  0  0  0  0  0  0  0  # atno 10765 bound_to 10752
  140.3865  134.6900  157.4482 H   0  0  0  0  0  0  0  0  0  0  0  0  # atno 11005 bound_to 11000
  146.1582  140.6827  142.9290 LP  0  0  0  0  0  0  0  0  0  0  0  0  # atno 17320 bound_to 7965
  144.7313  140.4680  143.6936 LP  0  0  0  0  0  0  0  0  0  0  0  0  # atno 17321 bound_to 7965
  139.6428  144.7656  151.2305 LP  0  0  0  0  0  0  0  0  0  0  0  0  # atno 17342 bound_to 10162
  140.7497  143.6289  150.8442 LP  0  0  0  0  0  0  0  0  0  0  0  0  # atno 17343 bound_to 10162
  157.6606  131.0881  150.7846 LP  0  0  0  0  0  0  0  0  0  0  0  0  # atno 17370 bound_to 10713
  156.7918  130.4892  149.5383 LP  0  0  0  0  0  0  0  0  0  0  0  0  # atno 17371 bound_to 10713
  140.0439  134.6228  155.8946 LP  0  0  0  0  0  0  0  0  0  0  0  0  # atno 17394 bound_to 11000
  141.1906  133.6569  156.5417 LP  0  0  0  0  0  0  0  0  0  0  0  0  # atno 17395 bound_to 11000

$$$$
