AV-unprocessed.smi:3232|AV-procd|sdf|12339|dock8
  -GOLD-   2272018203D 1   1.00000     0.00000
 Structure written by MMmdl.
 40 41  0  0  0  0  0  0  0  0  2 V2000
  147.2055  139.8604  152.8625 C   0  0  0  0  0  0  0  0  0  0  0  0
  146.8340  139.1913  151.5325 C   0  0  0  0  0  0  0  0  0  0  0  0
  146.5968  137.7353  151.6847 N   0  3  2  0  0  0  0  0  0  0  0  0
  145.8694  137.1060  150.5626 C   0  0  0  0  0  0  0  0  0  0  0  0
  145.2623  135.8394  151.1505 C   0  0  0  0  0  0  0  0  0  0  0  0
  144.8761  136.2710  152.5608 C   0  0  0  0  0  0  0  0  0  0  0  0
  145.9019  137.3579  152.9419 C   0  0  1  0  0  0  0  0  0  0  0  0
  146.9236  136.8962  154.0018 C   0  0  0  0  0  0  0  0  0  0  0  0
  147.4433  135.5610  153.7259 N   0  0  0  0  0  0  0  0  0  0  0  0
  147.2569  134.4862  154.5093 C   0  0  0  0  0  0  0  0  0  0  0  0
  146.6024  134.5284  155.5519 O   0  0  0  0  0  0  0  0  0  0  0  0
  147.8958  133.1709  154.0296 C   0  0  2  0  0  0  0  0  0  0  0  0
  149.4007  133.3075  153.7202 C   0  0  0  0  0  0  0  0  0  0  0  0
  147.1599  132.6227  152.8964 N   0  0  0  0  0  0  0  0  0  0  0  0
  146.9370  133.1394  151.6860 C   0  0  0  0  0  0  0  0  0  0  0  0
  146.2509  132.3431  150.8786 N   0  0  0  0  0  0  0  0  0  0  0  0
  146.0736  131.2736  151.7095 C   0  0  0  0  0  0  0  0  0  0  0  0
  146.6064  131.3847  152.9262 N   0  0  0  0  0  0  0  0  0  0  0  0
  147.3172  140.9372  152.7334 H   0  0  0  0  0  0  0  0  0  0  0  0
  148.1484  139.4797  153.2553 H   0  0  0  0  0  0  0  0  0  0  0  0
  146.4346  139.6954  153.6157 H   0  0  0  0  0  0  0  0  0  0  0  0
  145.9234  139.6561  151.1520 H   0  0  0  0  0  0  0  0  0  0  0  0
  147.6108  139.3681  150.7873 H   0  0  0  0  0  0  0  0  0  0  0  0
  145.0728  137.7675  150.2177 H   0  0  0  0  0  0  0  0  0  0  0  0
  146.5266  136.8977  149.7178 H   0  0  0  0  0  0  0  0  0  0  0  0
  144.4170  135.4645  150.5727 H   0  0  0  0  0  0  0  0  0  0  0  0
  146.0166  135.0526  151.1961 H   0  0  0  0  0  0  0  0  0  0  0  0
  143.8759  136.7063  152.5447 H   0  0  0  0  0  0  0  0  0  0  0  0
  144.8505  135.4283  153.2523 H   0  0  0  0  0  0  0  0  0  0  0  0
  145.3531  138.2214  153.3228 H   0  0  0  0  0  0  0  0  0  0  0  0
  147.7664  137.5876  154.0349 H   0  0  0  0  0  0  0  0  0  0  0  0
  146.4759  136.9129  154.9972 H   0  0  0  0  0  0  0  0  0  0  0  0
  147.9944  135.4475  152.8873 H   0  0  0  0  0  0  0  0  0  0  0  0
  147.7988  132.4572  154.8494 H   0  0  0  0  0  0  0  0  0  0  0  0
  149.9548  133.6470  154.5961 H   0  0  0  0  0  0  0  0  0  0  0  0
  149.5894  134.0173  152.9135 H   0  0  0  0  0  0  0  0  0  0  0  0
  149.8234  132.3483  153.4201 H   0  0  0  0  0  0  0  0  0  0  0  0
  147.2876  134.1165  151.3870 H   0  0  0  0  0  0  0  0  0  0  0  0
  145.5417  130.3838  151.4061 H   0  0  0  0  0  0  0  0  0  0  0  0
  147.5001  137.2852  151.7243 H   0  0  0  0  0  0  0  0  0  0  0  0
  1  2  1  0  0  0  0
  1 19  1  0  0  0  0
  1 20  1  0  0  0  0
  1 21  1  0  0  0  0
  2  3  1  0  0  0  0
  2 22  1  0  0  0  0
  2 23  1  0  0  0  0
  3  7  1  0  0  0  0
  3  4  1  0  0  0  0
  3 40  1  0  0  0  0
  4  5  1  0  0  0  0
  4 24  1  0  0  0  0
  4 25  1  0  0  0  0
  5  6  1  0  0  0  0
  5 26  1  0  0  0  0
  5 27  1  0  0  0  0
  6  7  1  0  0  0  0
  6 28  1  0  0  0  0
  6 29  1  0  0  0  0
  7  8  1  0  0  0  0
  7 30  1  0  0  0  0
  8  9  1  0  0  0  0
  8 31  1  0  0  0  0
  8 32  1  0  0  0  0
  9 10  1  0  0  0  0
  9 33  1  0  0  0  0
 10 11  2  0  0  0  0
 10 12  1  0  0  0  0
 12 13  1  0  0  0  0
 12 14  1  0  0  0  0
 12 34  1  0  0  0  0
 13 35  1  0  0  0  0
 13 36  1  0  0  0  0
 13 37  1  0  0  0  0
 14 18  1  0  0  0  0
 14 15  1  0  0  0  0
 15 16  2  0  0  0  0
 15 38  1  0  0  0  0
 16 17  1  0  0  0  0
 17 18  2  0  0  0  0
 17 39  1  0  0  0  0
M  CHG  1   3   1
M  END
> <s_m_source_file>
AV-unprocessed.smi

> <i_m_source_file_index>
3232

> <i_lp_mmshare_version>
43012

> <i_f3d_flags>
0

> <s_epik_input>
W0NIM11bQ0gyXU4xW0NIMl1bQ0gyXVtDSDJdW0NASF0xW0NIMl1bTkhdQyg9TylbQ0BIXShbQ0gzXSluMltjSF1uW2NIXW4y

> <s_epik_cmdline>
J2VwaWtfcHl0aG9uJywgJy1waCcsICc3LjAnLCAnLXRuJywgJzgnLCAnLW1hJywgJzIwMCcsICctbWV0YWxfYmluZGluZycsICctaW1hZScsICc8aW5maWxlLm1hZT4nLCAnLW9tYWUnLCAnPG91dGZpbGUubWFlPic=

> <r_lp_tautomer_probability>
1

> <r_epik_Ionization_Penalty>
0.00177695

> <r_epik_Ionization_Penalty_Charging>
0.00176881

> <r_epik_Ionization_Penalty_Neutral>
8.13528e-06

> <r_epik_State_Penalty>
0.00119827

> <r_epik_Charging_Adjusted_Penalty>
0.00296709

> <i_epik_Tot_Q>
1

> <i_epik_Tot_abs_Q>
1

> <r_epik_Metal_State_Penalty>
-0

> <b_epik_Metal_Only>
0

> <s_lp_Force_Field>
OPLS_2005

> <r_lp_Energy>
33.6963

> <b_lp_Chiralities_Consistent>
1

> <s_lp_Variant>
AV-unprocessed.smi:3232-1

> <Gold.Version>
5.8.1

> <Gold.Id.Protein>
6NUR|6NUR_protein|mol2

> <Gold.PLP.Fitness>
37.6035

> <Gold.PLP.PLP>
-26.8675

> <Gold.PLP.part.hbond>
-2.0000

> <Gold.PLP.part.metal>
0.0000

> <Gold.PLP.part.buried>
4.1112

> <Gold.PLP.part.nonpolar>
-29.0346

> <Gold.PLP.part.repulsive>
0.4451

> <Gold.PLP.ligand.clash>
0.0000

> <Gold.PLP.ligand.torsion>
0.5741

> <Gold.PLP.Chemscore.Hbond>
3.0000

> <Gold.PLP.Chemscore.CHOScore>
0.9213

> <Gold.PLP.Chemscore.Metal>
0.0000

> <Gold.Chemscore.Hbonds>
donor molecule, donor type, donor heavy atom, donor atom, acceptor molecule, acceptor atom, score
      L1  H     3    40       P1  7948  2.00
      L1  H     9    33       P1  7948  0.90
      L1  C    15    38       P1  7948  0.56

> <Gold.PLP.Chemscore.Internal.Correction>
0.1203

> <Gold.Rescore>
     Score         DG    S(hbond)    S(metal)    S(lipo)     H(rot)  DE(clash)    DE(int)     intcor
      9.51     -12.09       1.94        0.00      55.50       2.49       1.77       0.81       ----

> <Gold.Chemscore.Fitness>
9.5129

> <Gold.Chemscore.DG>
-12.0936

> <Gold.Chemscore.ZeroCoef>
-5.4800

> <Gold.Chemscore.Hbond>
1.9431

> <Gold.Chemscore.Metal>
0.0000

> <Gold.Chemscore.Lipo>
55.4983

> <Gold.Chemscore.Internal_Hbond>
0.0000

> <Gold.Chemscore.DEClash>
1.7669

> <Gold.Chemscore.DEInternal>
0.8139

> <Gold.Chemscore.Rot>
2.4882

> <Gold.Chemscore.Internal.Correction>
   9.000000E+99

> <Gold.Chemscore.Hbonds>
donor molecule, donor type, donor heavy atom, donor atom, acceptor molecule, acceptor atom, score
      L1  H     3    40       P1  7948  1.00
      L1  H     9    33       P1  7948  0.87

> <Gold.Chemscore.Hbond.Weighted>
-6.4900

> <Gold.Chemscore.Metal.Weighted>
-0.0000

> <Gold.Chemscore.Lipo.Weighted>
-6.4933

> <Gold.Chemscore.Internal_Hbond.Weighted>
0.0000

> <Gold.Chemscore.DEClash.Weighted>
1.7669

> <Gold.Chemscore.DEInternal.Weighted>
0.8139

> <Gold.Chemscore.Rot.Weighted>
6.3697

> <Gold.Chemscore.Internal.Correction.Weighted>
   9.000000E+99

> <Gold.Protein.RotatedTorsions>
[ 6907 6896 6895 6894 ] final -117.94 input  -60.11 | X-H torsion
[ 7974 7965 7964 7962 ] final   21.25 input  175.53 | X-H torsion
[ 8008 7997 7996 7995 ] final  -41.59 input   59.86 | X-H torsion
[ 10167 10162 10161 10158 ] final  142.78 input  -65.29 | X-H torsion
[ 10718 10713 10712 10709 ] final   66.85 input   66.30 | X-H torsion
[ 10763 10752 10751 10750 ] final  114.88 input  -60.55 | X-H torsion
[ 11005 11000 10999 10996 ] final   72.77 input  -57.11 | X-H torsion

> <Gold.Protein.ActiveResidues>
 VAL166  LYS551  ARG553  GLY616  TRP617  ASP618  TYR619  PRO620  LYS621  CYS622 
 ASP623  PHE694  ASN695  SER759  ASP760  ASP761  ALA762  ILE779  LEU786  VAL792 
 PHE793  MET794  SER795  GLU796  ALA797  LYS798  CYS799  TRP800  GLU811  SER814 

> <Gold.Protein.RotatedAtoms>
  150.8178  133.8305  159.3152 H   0  0  0  0  0  0  0  0  0  0  0  0  # atno 6907 bound_to 6896
  151.6072  135.1041  160.0083 H   0  0  0  0  0  0  0  0  0  0  0  0  # atno 6908 bound_to 6896
  152.4269  133.7170  159.6568 H   0  0  0  0  0  0  0  0  0  0  0  0  # atno 6909 bound_to 6896
  146.2079  139.8054  142.8712 H   0  0  0  0  0  0  0  0  0  0  0  0  # atno 7974 bound_to 7965
  154.4003  140.1495  156.3216 H   0  0  0  0  0  0  0  0  0  0  0  0  # atno 8008 bound_to 7997
  155.8524  140.3457  155.5681 H   0  0  0  0  0  0  0  0  0  0  0  0  # atno 8009 bound_to 7997
  155.7970  140.0864  157.1969 H   0  0  0  0  0  0  0  0  0  0  0  0  # atno 8010 bound_to 7997
  139.4985  144.6084  151.6327 H   0  0  0  0  0  0  0  0  0  0  0  0  # atno 10167 bound_to 10162
  157.6194  130.9289  150.0164 H   0  0  0  0  0  0  0  0  0  0  0  0  # atno 10718 bound_to 10713
  153.5139  135.3612  155.2599 H   0  0  0  0  0  0  0  0  0  0  0  0  # atno 10763 bound_to 10752
  154.8740  135.4029  154.3337 H   0  0  0  0  0  0  0  0  0  0  0  0  # atno 10764 bound_to 10752
  153.3995  135.7074  153.6503 H   0  0  0  0  0  0  0  0  0  0  0  0  # atno 10765 bound_to 10752
  139.9474  134.7288  156.0946 H   0  0  0  0  0  0  0  0  0  0  0  0  # atno 11005 bound_to 11000
  145.3252  141.0253  143.3478 LP  0  0  0  0  0  0  0  0  0  0  0  0  # atno 17320 bound_to 7965
  144.8838  139.4867  143.6710 LP  0  0  0  0  0  0  0  0  0  0  0  0  # atno 17321 bound_to 7965
  140.5752  144.0041  150.6238 LP  0  0  0  0  0  0  0  0  0  0  0  0  # atno 17342 bound_to 10162
  140.3172  143.3160  152.0820 LP  0  0  0  0  0  0  0  0  0  0  0  0  # atno 17343 bound_to 10162
  156.1332  130.3643  149.9698 LP  0  0  0  0  0  0  0  0  0  0  0  0  # atno 17370 bound_to 10713
  156.7755  130.9202  151.3645 LP  0  0  0  0  0  0  0  0  0  0  0  0  # atno 17371 bound_to 10713
  141.1128  133.6637  156.3020 LP  0  0  0  0  0  0  0  0  0  0  0  0  # atno 17394 bound_to 11000
  140.5802  134.5753  157.5478 LP  0  0  0  0  0  0  0  0  0  0  0  0  # atno 17395 bound_to 11000

$$$$
