AV-unprocessed.smi:2867|AV-procd|sdf|11023|dock10
  -GOLD-   2272015483D 1   1.00000     0.00000
 Structure written by MMmdl.
 40 42  0  0  0  0  0  0  0  0  1 V2000
  151.9492  138.0563  154.5406 C   0  0  0  0  0  0  0  0  0  0  0  0
  151.5639  139.4194  154.5690 O   0  0  0  0  0  0  0  0  0  0  0  0
  151.2550  139.8661  155.8773 C   0  0  0  0  0  0  0  0  0  0  0  0
  150.8518  141.3437  155.8160 C   0  0  0  0  0  0  0  0  0  0  0  0
  149.7181  141.6193  156.6838 N   0  0  0  0  0  0  0  0  0  0  0  0
  149.7326  142.2154  157.9032 C   0  0  0  0  0  0  0  0  0  0  0  0
  150.9408  142.6821  158.5682 C   0  0  0  0  0  0  0  0  0  0  0  0
  151.1679  144.0628  158.7488 C   0  0  0  0  0  0  0  0  0  0  0  0
  152.3378  144.5070  159.3954 C   0  0  0  0  0  0  0  0  0  0  0  0
  153.2847  143.5731  159.8589 C   0  0  0  0  0  0  0  0  0  0  0  0
  153.0632  142.1944  159.6739 C   0  0  0  0  0  0  0  0  0  0  0  0
  153.9744  141.2966  160.1182 F   0  0  0  0  0  0  0  0  0  0  0  0
  151.8937  141.7491  159.0277 C   0  0  0  0  0  0  0  0  0  0  0  0
  148.5336  142.3716  158.4686 N   0  0  0  0  0  0  0  0  0  0  0  0
  147.6716  141.8297  157.5361 C   0  0  0  0  0  0  0  0  0  0  0  0
  146.2646  141.7024  157.5508 C   0  0  0  0  0  0  0  0  0  0  0  0
  145.5987  141.1114  156.4562 C   0  0  0  0  0  0  0  0  0  0  0  0
  143.8172  140.9619  156.4900 S   0  0  0  0  0  0  0  0  0  0  0  0
  143.3540  141.9675  155.1745 N   0  0  0  0  0  0  0  0  0  0  0  0
  143.4390  139.5808  156.1529 O   0  0  0  0  0  0  0  0  0  0  0  0
  143.3265  141.5971  157.7228 O   0  0  0  0  0  0  0  0  0  0  0  0
  146.3175  140.6402  155.3374 C   0  0  0  0  0  0  0  0  0  0  0  0
  147.7202  140.7596  155.3089 C   0  0  0  0  0  0  0  0  0  0  0  0
  148.3836  141.3491  156.4022 C   0  0  0  0  0  0  0  0  0  0  0  0
  152.1679  137.7587  153.5152 H   0  0  0  0  0  0  0  0  0  0  0  0
  151.1520  137.4125  154.9151 H   0  0  0  0  0  0  0  0  0  0  0  0
  152.8456  137.8878  155.1391 H   0  0  0  0  0  0  0  0  0  0  0  0
  150.4397  139.2702  156.2913 H   0  0  0  0  0  0  0  0  0  0  0  0
  152.1208  139.7405  156.5300 H   0  0  0  0  0  0  0  0  0  0  0  0
  151.6875  141.9754  156.1179 H   0  0  0  0  0  0  0  0  0  0  0  0
  150.6054  141.6304  154.7939 H   0  0  0  0  0  0  0  0  0  0  0  0
  150.4448  144.7829  158.3942 H   0  0  0  0  0  0  0  0  0  0  0  0
  152.5090  145.5641  159.5358 H   0  0  0  0  0  0  0  0  0  0  0  0
  154.1814  143.9142  160.3546 H   0  0  0  0  0  0  0  0  0  0  0  0
  151.7268  140.6906  158.8893 H   0  0  0  0  0  0  0  0  0  0  0  0
  145.7042  142.0626  158.4008 H   0  0  0  0  0  0  0  0  0  0  0  0
  143.3117  141.4399  154.3031 H   0  0  0  0  0  0  0  0  0  0  0  0
  143.9748  142.7720  155.0891 H   0  0  0  0  0  0  0  0  0  0  0  0
  145.8001  140.1922  154.5017 H   0  0  0  0  0  0  0  0  0  0  0  0
  148.2783  140.4047  154.4552 H   0  0  0  0  0  0  0  0  0  0  0  0
  1  2  1  0  0  0  0
  1 25  1  0  0  0  0
  1 26  1  0  0  0  0
  1 27  1  0  0  0  0
  2  3  1  0  0  0  0
  3  4  1  0  0  0  0
  3 28  1  0  0  0  0
  3 29  1  0  0  0  0
  4  5  1  0  0  0  0
  4 30  1  0  0  0  0
  4 31  1  0  0  0  0
  5 24  1  0  0  0  0
  5  6  1  0  0  0  0
  6  7  1  0  0  0  0
  6 14  2  0  0  0  0
  7 13  1  0  0  0  0
  7  8  2  0  0  0  0
  8  9  1  0  0  0  0
  8 32  1  0  0  0  0
  9 10  2  0  0  0  0
  9 33  1  0  0  0  0
 10 11  1  0  0  0  0
 10 34  1  0  0  0  0
 11 12  1  0  0  0  0
 11 13  2  0  0  0  0
 13 35  1  0  0  0  0
 14 15  1  0  0  0  0
 15 24  2  0  0  0  0
 15 16  1  0  0  0  0
 16 17  2  0  0  0  0
 16 36  1  0  0  0  0
 17 18  1  0  0  0  0
 17 22  1  0  0  0  0
 18 19  1  0  0  0  0
 18 20  2  0  0  0  0
 18 21  2  0  0  0  0
 19 37  1  0  0  0  0
 19 38  1  0  0  0  0
 22 23  2  0  0  0  0
 22 39  1  0  0  0  0
 23 24  1  0  0  0  0
 23 40  1  0  0  0  0
M  END
> <s_m_source_file>
AV-unprocessed.smi

> <i_m_source_file_index>
2867

> <i_lp_mmshare_version>
43012

> <i_f3d_flags>
0

> <s_epik_input>
W05IMl1TKD1PKSg9TyljKFtjSF0xKVtjSF1bY0hdYyhjMTIpbihbQ0gyXVtDSDJdT1tDSDNdKWMobjIpLWMzW2NIXVtjSF1bY0hdYyhGKVtjSF0z

> <s_epik_cmdline>
J2VwaWtfcHl0aG9uJywgJy1waCcsICc3LjAnLCAnLXRuJywgJzgnLCAnLW1hJywgJzIwMCcsICctbWV0YWxfYmluZGluZycsICctaW1hZScsICc8aW5maWxlLm1hZT4nLCAnLW9tYWUnLCAnPG91dGZpbGUubWFlPic=

> <r_epik_Ionization_Penalty>
0.0786023

> <r_epik_Ionization_Penalty_Charging>
0

> <r_epik_Ionization_Penalty_Neutral>
0.0786023

> <r_epik_State_Penalty>
0.0592545

> <r_epik_Charging_Adjusted_Penalty>
0.0592545

> <i_epik_Tot_Q>
0

> <i_epik_Tot_abs_Q>
0

> <r_epik_Metal_State_Penalty>
0.300641

> <b_epik_Metal_Only>
0

> <s_lp_Force_Field>
OPLS_2005

> <r_lp_Energy>
19.4946

> <b_lp_Chiralities_Consistent>
1

> <s_lp_Variant>
AV-unprocessed.smi:2867-1

> <Gold.Version>
5.8.1

> <Gold.Id.Protein>
6NUR|6NUR_protein|mol2

> <Gold.PLP.Fitness>
44.5146

> <Gold.PLP.PLP>
-41.2174

> <Gold.PLP.part.hbond>
-3.0602

> <Gold.PLP.part.metal>
0.0000

> <Gold.PLP.part.buried>
-6.4298

> <Gold.PLP.part.nonpolar>
-32.0086

> <Gold.PLP.part.repulsive>
0.2601

> <Gold.PLP.ligand.clash>
0.0000

> <Gold.PLP.ligand.torsion>
2.8689

> <Gold.PLP.Chemscore.Hbond>
2.0000

> <Gold.PLP.Chemscore.CHOScore>
0.0000

> <Gold.PLP.Chemscore.Metal>
0.0000

> <Gold.Chemscore.Hbonds>
donor molecule, donor type, donor heavy atom, donor atom, acceptor molecule, acceptor atom, score
      L1  H    19    37       P1 10175  0.83
      P1  H  7989  7998       L1     2  1.00

> <Gold.PLP.Chemscore.Internal.Correction>
3.0349

> <Gold.Rescore>
     Score         DG    S(hbond)    S(metal)    S(lipo)     H(rot)  DE(clash)    DE(int)     intcor
     16.68     -19.19       1.91        0.00      94.48       1.45       0.02       2.50       ----

> <Gold.Chemscore.Fitness>
16.6828

> <Gold.Chemscore.DG>
-19.1932

> <Gold.Chemscore.ZeroCoef>
-5.4800

> <Gold.Chemscore.Hbond>
1.9098

> <Gold.Chemscore.Metal>
0.0000

> <Gold.Chemscore.Lipo>
94.4804

> <Gold.Chemscore.Internal_Hbond>
0.0000

> <Gold.Chemscore.DEClash>
0.0152

> <Gold.Chemscore.DEInternal>
2.4953

> <Gold.Chemscore.Rot>
1.4530

> <Gold.Chemscore.Internal.Correction>
   9.000000E+99

> <Gold.Chemscore.Hbonds>
donor molecule, donor type, donor heavy atom, donor atom, acceptor molecule, acceptor atom, score
      L1  H    19    37       P1 10175  0.14
      P1  H  7989  7998       L1     2  0.65

> <Gold.Chemscore.Hbond.Weighted>
-6.3787

> <Gold.Chemscore.Metal.Weighted>
-0.0000

> <Gold.Chemscore.Lipo.Weighted>
-11.0542

> <Gold.Chemscore.Internal_Hbond.Weighted>
0.0000

> <Gold.Chemscore.DEClash.Weighted>
0.0152

> <Gold.Chemscore.DEInternal.Weighted>
2.4953

> <Gold.Chemscore.Rot.Weighted>
3.7196

> <Gold.Chemscore.Internal.Correction.Weighted>
   9.000000E+99

> <Gold.Protein.RotatedTorsions>
[ 6907 6896 6895 6894 ] final  -27.86 input  -60.11 | X-H torsion
[ 7974 7965 7964 7962 ] final -109.69 input  175.53 | X-H torsion
[ 8008 7997 7996 7995 ] final  134.42 input   59.86 | X-H torsion
[ 10167 10162 10161 10158 ] final -124.69 input  -65.29 | X-H torsion
[ 10718 10713 10712 10709 ] final  -91.60 input   66.30 | X-H torsion
[ 10763 10752 10751 10750 ] final   51.32 input  -60.55 | X-H torsion
[ 11005 11000 10999 10996 ] final   49.34 input  -57.11 | X-H torsion

> <Gold.Protein.ActiveResidues>
 VAL166  LYS551  ARG553  GLY616  TRP617  ASP618  TYR619  PRO620  LYS621  CYS622 
 ASP623  PHE694  ASN695  SER759  ASP760  ASP761  ALA762  ILE779  LEU786  VAL792 
 PHE793  MET794  SER795  GLU796  ALA797  LYS798  CYS799  TRP800  GLU811  SER814 

> <Gold.Protein.RotatedAtoms>
  151.1410  135.0179  159.8625 H   0  0  0  0  0  0  0  0  0  0  0  0  # atno 6907 bound_to 6896
  152.5452  134.1499  159.8524 H   0  0  0  0  0  0  0  0  0  0  0  0  # atno 6908 bound_to 6896
  151.1575  133.4821  159.2627 H   0  0  0  0  0  0  0  0  0  0  0  0  # atno 6909 bound_to 6896
  145.1775  140.8955  143.3499 H   0  0  0  0  0  0  0  0  0  0  0  0  # atno 7974 bound_to 7965
  156.2999  140.2496  156.3414 H   0  0  0  0  0  0  0  0  0  0  0  0  # atno 8008 bound_to 7997
  154.9051  140.0405  157.1934 H   0  0  0  0  0  0  0  0  0  0  0  0  # atno 8009 bound_to 7997
  154.8461  140.2898  155.5632 H   0  0  0  0  0  0  0  0  0  0  0  0  # atno 8010 bound_to 7997
  139.9901  143.5650  152.2345 H   0  0  0  0  0  0  0  0  0  0  0  0  # atno 10167 bound_to 10162
  155.9995  130.4954  150.5498 H   0  0  0  0  0  0  0  0  0  0  0  0  # atno 10718 bound_to 10713
  152.9785  135.5849  154.4397 H   0  0  0  0  0  0  0  0  0  0  0  0  # atno 10763 bound_to 10752
  154.4000  135.2768  155.2104 H   0  0  0  0  0  0  0  0  0  0  0  0  # atno 10764 bound_to 10752
  154.3940  135.6119  153.5913 H   0  0  0  0  0  0  0  0  0  0  0  0  # atno 10765 bound_to 10752
  140.1112  134.4952  155.8676 H   0  0  0  0  0  0  0  0  0  0  0  0  # atno 11005 bound_to 11000
  145.0170  139.3458  143.6091 LP  0  0  0  0  0  0  0  0  0  0  0  0  # atno 17320 bound_to 7965
  146.3459  139.9456  142.8735 LP  0  0  0  0  0  0  0  0  0  0  0  0  # atno 17321 bound_to 7965
  139.6346  144.7648  151.2464 LP  0  0  0  0  0  0  0  0  0  0  0  0  # atno 17342 bound_to 10162
  140.7458  143.6420  150.8326 LP  0  0  0  0  0  0  0  0  0  0  0  0  # atno 17343 bound_to 10162
  157.3423  131.0719  151.1778 LP  0  0  0  0  0  0  0  0  0  0  0  0  # atno 17370 bound_to 10713
  157.2623  130.6665  149.5980 LP  0  0  0  0  0  0  0  0  0  0  0  0  # atno 17371 bound_to 10713
  141.2130  133.6728  156.6708 LP  0  0  0  0  0  0  0  0  0  0  0  0  # atno 17394 bound_to 11000
  140.3089  134.8102  157.4160 LP  0  0  0  0  0  0  0  0  0  0  0  0  # atno 17395 bound_to 11000

$$$$
