AV-unprocessed.smi:1405|AV-procd|sdf|5708|dock4
  -GOLD-   22720 5343D 1   1.00000     0.00000
 Structure written by MMmdl.
 48 51  0  0  0  0  0  0  0  0  2 V2000
  149.0652  141.5074  153.6466 O   0  0  0  0  0  0  0  0  0  0  0  0
  148.9270  140.6524  154.5209 C   0  0  0  0  0  0  0  0  0  0  0  0
  150.0855  139.6807  154.8077 C   0  0  0  0  0  0  0  0  0  0  0  0
  150.8977  140.0179  155.9915 N   0  0  0  0  0  0  0  0  0  0  0  0
  150.4949  141.1257  156.7582 C   0  0  0  0  0  0  0  0  0  0  0  0
  151.1790  141.5228  157.8480 C   0  0  0  0  0  0  0  0  0  0  0  0
  152.3679  140.7706  158.2284 C   0  0  0  0  0  0  0  0  0  0  0  0
  153.0054  141.1192  159.2200 O   0  0  0  0  0  0  0  0  0  0  0  0
  152.7188  139.7037  157.4522 N   0  5  0  0  0  0  0  0  0  0  0  0
  152.0147  139.3125  156.3451 C   0  0  0  0  0  0  0  0  0  0  0  0
  152.3557  138.3539  155.6520 O   0  0  0  0  0  0  0  0  0  0  0  0
  147.7967  140.5178  155.2330 N   0  0  0  0  0  0  0  0  0  0  0  0
  146.5998  141.3313  155.0796 C   0  0  0  0  0  0  0  0  0  0  0  0
  146.3471  142.1407  156.3652 C   0  0  0  0  0  0  0  0  0  0  0  0
  145.0156  142.9314  156.4306 C   0  0  0  0  0  0  0  0  0  0  0  0
  143.8060  141.9863  156.6662 C   0  0  0  0  0  0  0  0  0  0  0  0
  142.5002  142.8014  156.7868 C   0  0  2  0  0  0  0  0  0  0  0  0
  142.2690  143.5991  155.4861 C   0  0  0  0  0  0  0  0  0  0  0  0
  143.4537  144.5633  155.2619 C   0  0  1  0  0  0  0  0  0  0  0  0
  143.5584  145.5397  156.4513 C   0  0  0  0  0  0  0  0  0  0  0  0
  143.7867  144.7351  157.7470 C   0  0  1  0  0  0  0  0  0  0  0  0
  142.6030  143.7744  157.9791 C   0  0  0  0  0  0  0  0  0  0  0  0
  145.0925  143.9222  157.6239 C   0  0  0  0  0  0  0  0  0  0  0  0
  144.7626  143.7528  155.1371 C   0  0  0  0  0  0  0  0  0  0  0  0
  149.6665  138.6800  154.9208 H   0  0  0  0  0  0  0  0  0  0  0  0
  150.7148  139.6213  153.9181 H   0  0  0  0  0  0  0  0  0  0  0  0
  149.6083  141.6311  156.4041 H   0  0  0  0  0  0  0  0  0  0  0  0
  150.8576  142.3782  158.4238 H   0  0  0  0  0  0  0  0  0  0  0  0
  147.7705  139.7935  155.9367 H   0  0  0  0  0  0  0  0  0  0  0  0
  146.7179  142.0009  154.2269 H   0  0  0  0  0  0  0  0  0  0  0  0
  145.7654  140.6658  154.8609 H   0  0  0  0  0  0  0  0  0  0  0  0
  146.3924  141.4625  157.2189 H   0  0  0  0  0  0  0  0  0  0  0  0
  147.1787  142.8346  156.4980 H   0  0  0  0  0  0  0  0  0  0  0  0
  143.7046  141.2748  155.8468 H   0  0  0  0  0  0  0  0  0  0  0  0
  143.9586  141.3933  157.5689 H   0  0  0  0  0  0  0  0  0  0  0  0
  141.6636  142.1209  156.9476 H   0  0  0  0  0  0  0  0  0  0  0  0
  142.1688  142.9193  154.6389 H   0  0  0  0  0  0  0  0  0  0  0  0
  141.3334  144.1565  155.5463 H   0  0  0  0  0  0  0  0  0  0  0  0
  143.2901  145.1290  154.3443 H   0  0  0  0  0  0  0  0  0  0  0  0
  144.3772  146.2426  156.2929 H   0  0  0  0  0  0  0  0  0  0  0  0
  142.6500  146.1377  156.5323 H   0  0  0  0  0  0  0  0  0  0  0  0
  143.8658  145.4220  158.5901 H   0  0  0  0  0  0  0  0  0  0  0  0
  141.6750  144.3369  158.0897 H   0  0  0  0  0  0  0  0  0  0  0  0
  142.7410  143.2207  158.9086 H   0  0  0  0  0  0  0  0  0  0  0  0
  145.2775  143.3816  158.5532 H   0  0  0  0  0  0  0  0  0  0  0  0
  145.9359  144.6025  157.4965 H   0  0  0  0  0  0  0  0  0  0  0  0
  145.6005  144.4241  154.9437 H   0  0  0  0  0  0  0  0  0  0  0  0
  144.6897  143.0962  154.2700 H   0  0  0  0  0  0  0  0  0  0  0  0
  1  2  2  0  0  0  0
  2  3  1  0  0  0  0
  2 12  1  0  0  0  0
  3  4  1  0  0  0  0
  3 25  1  0  0  0  0
  3 26  1  0  0  0  0
  4 10  1  0  0  0  0
  4  5  1  0  0  0  0
  5  6  2  0  0  0  0
  5 27  1  0  0  0  0
  6  7  1  0  0  0  0
  6 28  1  0  0  0  0
  7  8  2  0  0  0  0
  7  9  1  0  0  0  0
  9 10  1  0  0  0  0
 10 11  2  0  0  0  0
 12 13  1  0  0  0  0
 12 29  1  0  0  0  0
 13 14  1  0  0  0  0
 13 30  1  0  0  0  0
 13 31  1  0  0  0  0
 14 15  1  0  0  0  0
 14 32  1  0  0  0  0
 14 33  1  0  0  0  0
 15 23  1  0  0  0  0
 15 24  1  0  0  0  0
 15 16  1  0  0  0  0
 16 17  1  0  0  0  0
 16 34  1  0  0  0  0
 16 35  1  0  0  0  0
 17 22  1  0  0  0  0
 17 18  1  0  0  0  0
 17 36  1  0  0  0  0
 18 19  1  0  0  0  0
 18 37  1  0  0  0  0
 18 38  1  0  0  0  0
 19 20  1  0  0  0  0
 19 24  1  0  0  0  0
 19 39  1  0  0  0  0
 20 21  1  0  0  0  0
 20 40  1  0  0  0  0
 20 41  1  0  0  0  0
 21 22  1  0  0  0  0
 21 23  1  0  0  0  0
 21 42  1  0  0  0  0
 22 43  1  0  0  0  0
 22 44  1  0  0  0  0
 23 45  1  0  0  0  0
 23 46  1  0  0  0  0
 24 47  1  0  0  0  0
 24 48  1  0  0  0  0
M  CHG  1   9  -1
M  END
> <s_m_source_file>
AV-unprocessed.smi

> <i_m_source_file_index>
1405

> <i_lp_mmshare_version>
43012

> <i_f3d_flags>
0

> <s_epik_input>
Tz1jMVtuSF1jKD1PKVtjSF1bY0hdbjFbQ0gyXUMoPU8pW05IXVtDSDJdW0NIMl1DMjNbQ0gyXVtDQEBIXTRbQ0gyXVtDQEhdKFtDSDJdMylbQ0gyXVtDQEBIXShbQ0gyXTQpW0NIMl0y

> <s_epik_cmdline>
J2VwaWtfcHl0aG9uJywgJy1waCcsICc3LjAnLCAnLXRuJywgJzgnLCAnLW1hJywgJzIwMCcsICctbWV0YWxfYmluZGluZycsICctaW1hZScsICc8aW5maWxlLm1hZT4nLCAnLW9tYWUnLCAnPG91dGZpbGUubWFlPic=

> <r_lp_tautomer_probability>
0.999537

> <r_epik_Ionization_Penalty>
3.12935

> <r_epik_Ionization_Penalty_Charging>
2.8866e-08

> <r_epik_Ionization_Penalty_Neutral>
3.12935

> <r_epik_State_Penalty>
3.12845

> <r_epik_Charging_Adjusted_Penalty>
3.12845

> <i_epik_Tot_Q>
-1

> <i_epik_Tot_abs_Q>
1

> <r_epik_Metal_State_Penalty>
0.464346

> <b_epik_Metal_Only>
1

> <s_lp_Force_Field>
OPLS_2005

> <r_lp_Energy>
42.9683

> <b_lp_Chiralities_Consistent>
1

> <s_lp_Variant>
AV-unprocessed.smi:1405-2

> <Gold.Version>
5.8.1

> <Gold.Id.Protein>
6NUR|6NUR_protein|mol2

> <Gold.PLP.Fitness>
38.4942

> <Gold.PLP.PLP>
-30.7694

> <Gold.PLP.part.hbond>
-2.8459

> <Gold.PLP.part.metal>
0.0000

> <Gold.PLP.part.buried>
-4.1894

> <Gold.PLP.part.nonpolar>
-24.9812

> <Gold.PLP.part.repulsive>
2.3036

> <Gold.PLP.ligand.clash>
0.0000

> <Gold.PLP.ligand.torsion>
0.4404

> <Gold.PLP.Chemscore.Hbond>
2.8480

> <Gold.PLP.Chemscore.CHOScore>
0.0000

> <Gold.PLP.Chemscore.Metal>
0.0000

> <Gold.Chemscore.Hbonds>
donor molecule, donor type, donor heavy atom, donor atom, acceptor molecule, acceptor atom, score
      P1  H  7997  8009       L1     9  2.00
      P1  H  8011  8017       L1     1  0.78

> <Gold.PLP.Chemscore.Internal.Correction>
0.0616

> <Gold.Rescore>
     Score         DG    S(hbond)    S(metal)    S(lipo)     H(rot)  DE(clash)    DE(int)     intcor
      9.47     -11.35       1.43        0.00      55.86       2.12       1.36       0.51       ----

> <Gold.Chemscore.Fitness>
9.4741

> <Gold.Chemscore.DG>
-11.3532

> <Gold.Chemscore.ZeroCoef>
-5.4800

> <Gold.Chemscore.Hbond>
1.4278

> <Gold.Chemscore.Metal>
0.0000

> <Gold.Chemscore.Lipo>
55.8627

> <Gold.Chemscore.Internal_Hbond>
0.0000

> <Gold.Chemscore.DEClash>
1.3643

> <Gold.Chemscore.DEInternal>
0.5149

> <Gold.Chemscore.Rot>
2.1216

> <Gold.Chemscore.Internal.Correction>
   9.000000E+99

> <Gold.Chemscore.Hbonds>
donor molecule, donor type, donor heavy atom, donor atom, acceptor molecule, acceptor atom, score
      P1  H  7997  8009       L1     9  0.34
      P1  H  8011  8017       L1     1  0.78

> <Gold.Chemscore.Hbond.Weighted>
-4.7687

> <Gold.Chemscore.Metal.Weighted>
-0.0000

> <Gold.Chemscore.Lipo.Weighted>
-6.5359

> <Gold.Chemscore.Internal_Hbond.Weighted>
0.0000

> <Gold.Chemscore.DEClash.Weighted>
1.3643

> <Gold.Chemscore.DEInternal.Weighted>
0.5149

> <Gold.Chemscore.Rot.Weighted>
5.4314

> <Gold.Chemscore.Internal.Correction.Weighted>
   9.000000E+99

> <Gold.Protein.RotatedTorsions>
[ 6907 6896 6895 6894 ] final -153.27 input  -60.11 | X-H torsion
[ 7974 7965 7964 7962 ] final  -93.75 input  175.53 | X-H torsion
[ 8008 7997 7996 7995 ] final  159.23 input   59.86 | X-H torsion
[ 10167 10162 10161 10158 ] final  -71.57 input  -65.29 | X-H torsion
[ 10718 10713 10712 10709 ] final  -12.46 input   66.30 | X-H torsion
[ 10763 10752 10751 10750 ] final   56.11 input  -60.55 | X-H torsion
[ 11005 11000 10999 10996 ] final   57.56 input  -57.11 | X-H torsion

> <Gold.Protein.ActiveResidues>
 VAL166  LYS551  ARG553  GLY616  TRP617  ASP618  TYR619  PRO620  LYS621  CYS622 
 ASP623  PHE694  ASN695  SER759  ASP760  ASP761  ALA762  ILE779  LEU786  VAL792 
 PHE793  MET794  SER795  GLU796  ALA797  LYS798  CYS799  TRP800  GLU811  SER814 

> <Gold.Protein.RotatedAtoms>
  151.2401  133.4404  159.2606 H   0  0  0  0  0  0  0  0  0  0  0  0  # atno 6907 bound_to 6896
  151.0713  134.9800  159.8320 H   0  0  0  0  0  0  0  0  0  0  0  0  # atno 6908 bound_to 6896
  152.5412  134.2346  159.8891 H   0  0  0  0  0  0  0  0  0  0  0  0  # atno 6909 bound_to 6896
  145.3823  140.9519  143.2387 H   0  0  0  0  0  0  0  0  0  0  0  0  # atno 7974 bound_to 7965
  156.2252  140.1837  156.7379 H   0  0  0  0  0  0  0  0  0  0  0  0  # atno 8008 bound_to 7997
  154.5930  140.0648  156.9293 H   0  0  0  0  0  0  0  0  0  0  0  0  # atno 8009 bound_to 7997
  155.2304  140.3314  155.4306 H   0  0  0  0  0  0  0  0  0  0  0  0  # atno 8010 bound_to 7997
  140.5262  143.2326  151.7342 H   0  0  0  0  0  0  0  0  0  0  0  0  # atno 10167 bound_to 10162
  156.6443  130.4937  149.6084 H   0  0  0  0  0  0  0  0  0  0  0  0  # atno 10718 bound_to 10713
  152.9827  135.5687  154.5176 H   0  0  0  0  0  0  0  0  0  0  0  0  # atno 10763 bound_to 10752
  154.4669  135.2783  155.1673 H   0  0  0  0  0  0  0  0  0  0  0  0  # atno 10764 bound_to 10752
  154.3238  135.6263  153.5573 H   0  0  0  0  0  0  0  0  0  0  0  0  # atno 10765 bound_to 10752
  140.0444  134.5827  155.9342 H   0  0  0  0  0  0  0  0  0  0  0  0  # atno 11005 bound_to 11000
  144.8499  139.5339  143.6861 LP  0  0  0  0  0  0  0  0  0  0  0  0  # atno 17320 bound_to 7965
  146.2836  139.6944  142.9211 LP  0  0  0  0  0  0  0  0  0  0  0  0  # atno 17321 bound_to 7965
  139.4939  144.4181  152.0007 LP  0  0  0  0  0  0  0  0  0  0  0  0  # atno 17342 bound_to 10162
  140.3281  144.3349  150.5993 LP  0  0  0  0  0  0  0  0  0  0  0  0  # atno 17343 bound_to 10162
  156.2134  130.6693  151.1293 LP  0  0  0  0  0  0  0  0  0  0  0  0  # atno 17370 bound_to 10713
  157.7161  131.0709  150.6321 LP  0  0  0  0  0  0  0  0  0  0  0  0  # atno 17371 bound_to 10713
  141.1899  133.6567  156.5389 LP  0  0  0  0  0  0  0  0  0  0  0  0  # atno 17394 bound_to 11000
  140.4018  134.7350  157.4784 LP  0  0  0  0  0  0  0  0  0  0  0  0  # atno 17395 bound_to 11000

$$$$
