AV-unprocessed.smi:1931|AV-procd|sdf|7811|dock2
  -GOLD-   22720 9553D 1   1.00000     0.00000
 Structure written by MMmdl.
 48 49  0  0  0  0  0  0  0  0  1 V2000
  146.2760  133.2209  151.4988 C   0  0  0  0  0  0  0  0  0  0  0  0
  146.5885  134.5959  151.3612 O   0  0  0  0  0  0  0  0  0  0  0  0
  145.4434  135.4258  151.4622 C   0  0  0  0  0  0  0  0  0  0  0  0
  145.8359  136.8674  151.1244 C   0  0  0  0  0  0  0  0  0  0  0  0
  146.2861  137.5152  152.3025 O   0  0  0  0  0  0  0  0  0  0  0  0
  146.7958  138.8157  152.0497 C   0  0  0  0  0  0  0  0  0  0  0  0
  147.3293  139.4100  153.3528 C   0  0  0  0  0  0  0  0  0  0  0  0
  146.5442  139.6657  154.2647 O   0  0  0  0  0  0  0  0  0  0  0  0
  148.6591  139.6134  153.4033 N   0  0  0  0  0  0  0  0  0  0  0  0
  149.4389  140.1634  154.4566 C   0  0  0  0  0  0  0  0  0  0  0  0
  150.8212  139.9258  154.6377 C   0  0  0  0  0  0  0  0  0  0  0  0
  151.4754  140.5110  155.7386 C   0  0  0  0  0  0  0  0  0  0  0  0
  150.7357  141.3134  156.6391 C   0  0  0  0  0  0  0  0  0  0  0  0
  151.3736  141.9041  157.7514 N   0  0  0  0  0  0  0  0  0  0  0  0
  151.4908  143.3590  157.7084 C   0  0  0  0  0  0  0  0  0  0  0  0
  151.9097  143.9071  159.0859 C   0  0  2  0  0  0  0  0  0  0  0  0
  152.1626  145.4180  159.0504 C   0  0  0  0  0  0  0  0  0  0  0  0
  153.1103  143.2623  159.5024 O   0  0  0  0  0  0  0  0  0  0  0  0
  152.9492  141.8540  159.6484 C   0  0  2  0  0  0  0  0  0  0  0  0
  154.2606  141.2732  160.1871 C   0  0  0  0  0  0  0  0  0  0  0  0
  152.5636  141.2461  158.2868 C   0  0  0  0  0  0  0  0  0  0  0  0
  149.4097  141.5354  156.4640 N   0  0  0  0  0  0  0  0  0  0  0  0
  148.7861  140.9710  155.4089 C   0  0  0  0  0  0  0  0  0  0  0  0
  147.1871  132.6282  151.4174 H   0  0  0  0  0  0  0  0  0  0  0  0
  145.5896  132.8924  150.7172 H   0  0  0  0  0  0  0  0  0  0  0  0
  145.8256  133.0139  152.4704 H   0  0  0  0  0  0  0  0  0  0  0  0
  144.6479  135.0804  150.7998 H   0  0  0  0  0  0  0  0  0  0  0  0
  145.0612  135.3841  152.4833 H   0  0  0  0  0  0  0  0  0  0  0  0
  146.6437  136.8613  150.3911 H   0  0  0  0  0  0  0  0  0  0  0  0
  144.9933  137.3990  150.6794 H   0  0  0  0  0  0  0  0  0  0  0  0
  147.6064  138.7758  151.3205 H   0  0  0  0  0  0  0  0  0  0  0  0
  146.0112  139.4567  151.6440 H   0  0  0  0  0  0  0  0  0  0  0  0
  149.1820  139.2787  152.6067 H   0  0  0  0  0  0  0  0  0  0  0  0
  151.3902  139.3007  153.9676 H   0  0  0  0  0  0  0  0  0  0  0  0
  152.5338  140.3453  155.8734 H   0  0  0  0  0  0  0  0  0  0  0  0
  152.2339  143.6266  156.9558 H   0  0  0  0  0  0  0  0  0  0  0  0
  150.5547  143.8284  157.4089 H   0  0  0  0  0  0  0  0  0  0  0  0
  151.1235  143.7050  159.8156 H   0  0  0  0  0  0  0  0  0  0  0  0
  151.2640  145.9590  158.7533 H   0  0  0  0  0  0  0  0  0  0  0  0
  152.9541  145.6695  158.3439 H   0  0  0  0  0  0  0  0  0  0  0  0
  152.4626  145.7861  160.0317 H   0  0  0  0  0  0  0  0  0  0  0  0
  152.1591  141.6577  160.3754 H   0  0  0  0  0  0  0  0  0  0  0  0
  154.1862  140.1935  160.3206 H   0  0  0  0  0  0  0  0  0  0  0  0
  154.5123  141.7112  161.1532 H   0  0  0  0  0  0  0  0  0  0  0  0
  155.0887  141.4704  159.5056 H   0  0  0  0  0  0  0  0  0  0  0  0
  152.3787  140.1778  158.4066 H   0  0  0  0  0  0  0  0  0  0  0  0
  153.3856  141.3581  157.5784 H   0  0  0  0  0  0  0  0  0  0  0  0
  147.7289  141.1751  155.3224 H   0  0  0  0  0  0  0  0  0  0  0  0
  1  2  1  0  0  0  0
  1 24  1  0  0  0  0
  1 25  1  0  0  0  0
  1 26  1  0  0  0  0
  2  3  1  0  0  0  0
  3  4  1  0  0  0  0
  3 27  1  0  0  0  0
  3 28  1  0  0  0  0
  4  5  1  0  0  0  0
  4 29  1  0  0  0  0
  4 30  1  0  0  0  0
  5  6  1  0  0  0  0
  6  7  1  0  0  0  0
  6 31  1  0  0  0  0
  6 32  1  0  0  0  0
  7  8  2  0  0  0  0
  7  9  1  0  0  0  0
  9 10  1  0  0  0  0
  9 33  1  0  0  0  0
 10 23  1  0  0  0  0
 10 11  2  0  0  0  0
 11 12  1  0  0  0  0
 11 34  1  0  0  0  0
 12 13  2  0  0  0  0
 12 35  1  0  0  0  0
 13 14  1  0  0  0  0
 13 22  1  0  0  0  0
 14 21  1  0  0  0  0
 14 15  1  0  0  0  0
 15 16  1  0  0  0  0
 15 36  1  0  0  0  0
 15 37  1  0  0  0  0
 16 17  1  0  0  0  0
 16 18  1  0  0  0  0
 16 38  1  0  0  0  0
 17 39  1  0  0  0  0
 17 40  1  0  0  0  0
 17 41  1  0  0  0  0
 18 19  1  0  0  0  0
 19 20  1  0  0  0  0
 19 21  1  0  0  0  0
 19 42  1  0  0  0  0
 20 43  1  0  0  0  0
 20 44  1  0  0  0  0
 20 45  1  0  0  0  0
 21 46  1  0  0  0  0
 21 47  1  0  0  0  0
 22 23  2  0  0  0  0
 23 48  1  0  0  0  0
M  END
> <s_m_source_file>
AV-unprocessed.smi

> <i_m_source_file_index>
1931

> <i_lp_mmshare_version>
43012

> <i_f3d_flags>
0

> <s_epik_input>
W0NIM11PW0NIMl1bQ0gyXU9bQ0gyXUMoPU8pW05IXWMxW2NIXVtjSF1jKG5bY0hdMSlOMltDSDJdW0NAQEhdKFtDSDNdKU9bQ0BASF0oW0NIM10pW0NIMl0y

> <s_epik_cmdline>
J2VwaWtfcHl0aG9uJywgJy1waCcsICc3LjAnLCAnLXRuJywgJzgnLCAnLW1hJywgJzIwMCcsICctbWV0YWxfYmluZGluZycsICctaW1hZScsICc8aW5maWxlLm1hZT4nLCAnLW9tYWUnLCAnPG91dGZpbGUubWFlPic=

> <r_lp_tautomer_probability>
1

> <r_epik_Ionization_Penalty>
0.000582342

> <r_epik_Ionization_Penalty_Charging>
0

> <r_epik_Ionization_Penalty_Neutral>
0.000582342

> <r_epik_State_Penalty>
0.00036524

> <r_epik_Charging_Adjusted_Penalty>
0.00036524

> <i_epik_Tot_Q>
0

> <i_epik_Tot_abs_Q>
0

> <r_epik_Metal_State_Penalty>
-0

> <b_epik_Metal_Only>
0

> <s_lp_Force_Field>
OPLS_2005

> <r_lp_Energy>
23.8066

> <b_lp_Chiralities_Consistent>
1

> <s_lp_Variant>
AV-unprocessed.smi:1931-1

> <Gold.Version>
5.8.1

> <Gold.Id.Protein>
6NUR|6NUR_protein|mol2

> <Gold.PLP.Fitness>
45.6672

> <Gold.PLP.PLP>
-45.2334

> <Gold.PLP.part.hbond>
-0.9370

> <Gold.PLP.part.metal>
0.0000

> <Gold.PLP.part.buried>
-2.1753

> <Gold.PLP.part.nonpolar>
-44.0863

> <Gold.PLP.part.repulsive>
2.0635

> <Gold.PLP.ligand.clash>
0.0000

> <Gold.PLP.ligand.torsion>
0.7647

> <Gold.PLP.Chemscore.Hbond>
0.5280

> <Gold.PLP.Chemscore.CHOScore>
0.0000

> <Gold.PLP.Chemscore.Metal>
0.0000

> <Gold.Chemscore.Hbonds>
donor molecule, donor type, donor heavy atom, donor atom, acceptor molecule, acceptor atom, score
      L1  H     9    33       P1  7957  0.64

> <Gold.PLP.Chemscore.Internal.Correction>
0.3792

> <Gold.Rescore>
     Score         DG    S(hbond)    S(metal)    S(lipo)     H(rot)  DE(clash)    DE(int)     intcor
     12.82     -16.47       0.72        0.00     115.79       1.93       1.38       2.28       ----

> <Gold.Chemscore.Fitness>
12.8154

> <Gold.Chemscore.DG>
-16.4704

> <Gold.Chemscore.ZeroCoef>
-5.4800

> <Gold.Chemscore.Hbond>
0.7173

> <Gold.Chemscore.Metal>
0.0000

> <Gold.Chemscore.Lipo>
115.7945

> <Gold.Chemscore.Internal_Hbond>
0.0000

> <Gold.Chemscore.DEClash>
1.3799

> <Gold.Chemscore.DEInternal>
2.2751

> <Gold.Chemscore.Rot>
1.9349

> <Gold.Chemscore.Internal.Correction>
   9.000000E+99

> <Gold.Chemscore.Hbonds>
donor molecule, donor type, donor heavy atom, donor atom, acceptor molecule, acceptor atom, score
      L1  H     9    33       P1  7957  0.64

> <Gold.Chemscore.Hbond.Weighted>
-2.3958

> <Gold.Chemscore.Metal.Weighted>
-0.0000

> <Gold.Chemscore.Lipo.Weighted>
-13.5480

> <Gold.Chemscore.Internal_Hbond.Weighted>
0.0000

> <Gold.Chemscore.DEClash.Weighted>
1.3799

> <Gold.Chemscore.DEInternal.Weighted>
2.2751

> <Gold.Chemscore.Rot.Weighted>
4.9534

> <Gold.Chemscore.Internal.Correction.Weighted>
   9.000000E+99

> <Gold.Protein.RotatedTorsions>
[ 6907 6896 6895 6894 ] final  -95.81 input  -60.11 | X-H torsion
[ 7974 7965 7964 7962 ] final   95.96 input  175.53 | X-H torsion
[ 8008 7997 7996 7995 ] final -125.13 input   59.86 | X-H torsion
[ 10167 10162 10161 10158 ] final   20.45 input  -65.29 | X-H torsion
[ 10718 10713 10712 10709 ] final  -97.50 input   66.30 | X-H torsion
[ 10763 10752 10751 10750 ] final  -82.19 input  -60.55 | X-H torsion
[ 11005 11000 10999 10996 ] final -149.24 input  -57.11 | X-H torsion

> <Gold.Protein.ActiveResidues>
 VAL166  LYS551  ARG553  GLY616  TRP617  ASP618  TYR619  PRO620  LYS621  CYS622 
 ASP623  PHE694  ASN695  SER759  ASP760  ASP761  ALA762  ILE779  LEU786  VAL792 
 PHE793  MET794  SER795  GLU796  ALA797  LYS798  CYS799  TRP800  GLU811  SER814 

> <Gold.Protein.RotatedAtoms>
  150.6973  134.1600  159.4172 H   0  0  0  0  0  0  0  0  0  0  0  0  # atno 6907 bound_to 6896
  151.9581  135.0135  160.0555 H   0  0  0  0  0  0  0  0  0  0  0  0  # atno 6908 bound_to 6896
  152.1951  133.4766  159.5065 H   0  0  0  0  0  0  0  0  0  0  0  0  # atno 6909 bound_to 6896
  145.4452  139.2298  143.3070 H   0  0  0  0  0  0  0  0  0  0  0  0  # atno 7974 bound_to 7965
  155.2082  140.0418  157.2929 H   0  0  0  0  0  0  0  0  0  0  0  0  # atno 8008 bound_to 7997
  154.6029  140.2457  155.7740 H   0  0  0  0  0  0  0  0  0  0  0  0  # atno 8009 bound_to 7997
  156.2332  140.2931  156.0253 H   0  0  0  0  0  0  0  0  0  0  0  0  # atno 8010 bound_to 7997
  140.5503  143.9521  150.6573 H   0  0  0  0  0  0  0  0  0  0  0  0  # atno 10167 bound_to 10162
  156.0085  130.5197  150.6384 H   0  0  0  0  0  0  0  0  0  0  0  0  # atno 10718 bound_to 10713
  154.5728  135.5600  153.7111 H   0  0  0  0  0  0  0  0  0  0  0  0  # atno 10763 bound_to 10752
  153.0054  135.6301  154.2091 H   0  0  0  0  0  0  0  0  0  0  0  0  # atno 10764 bound_to 10752
  154.2031  135.2877  155.2964 H   0  0  0  0  0  0  0  0  0  0  0  0  # atno 10765 bound_to 10752
  140.7528  134.3387  157.5121 H   0  0  0  0  0  0  0  0  0  0  0  0  # atno 11005 bound_to 11000
  146.2534  140.5205  142.8883 LP  0  0  0  0  0  0  0  0  0  0  0  0  # atno 17320 bound_to 7965
  144.8096  140.6362  143.6424 LP  0  0  0  0  0  0  0  0  0  0  0  0  # atno 17321 bound_to 7965
  140.2945  143.3301  152.1030 LP  0  0  0  0  0  0  0  0  0  0  0  0  # atno 17342 bound_to 10162
  139.5024  144.6735  151.6186 LP  0  0  0  0  0  0  0  0  0  0  0  0  # atno 17343 bound_to 10162
  157.4169  131.0831  151.1168 LP  0  0  0  0  0  0  0  0  0  0  0  0  # atno 17370 bound_to 10713
  157.1782  130.6297  149.5663 LP  0  0  0  0  0  0  0  0  0  0  0  0  # atno 17371 bound_to 10713
  139.8784  134.9153  156.3127 LP  0  0  0  0  0  0  0  0  0  0  0  0  # atno 17394 bound_to 11000
  140.9735  133.7312  156.0568 LP  0  0  0  0  0  0  0  0  0  0  0  0  # atno 17395 bound_to 11000

$$$$
