AV-unprocessed.smi:1701|AV-procd|sdf|6823|dock5
  -GOLD-   22720 8 03D 1   1.00000     0.00000
 Structure written by MMmdl.
 55 57  0  0  0  0  0  0  0  0  3 V2000
  152.0323  141.2285  159.4778 C   0  0  0  0  0  0  0  0  0  0  0  0
  152.2878  140.8766  158.0039 C   0  0  0  0  0  0  0  0  0  0  0  0
  151.3803  141.5679  157.0884 N   0  0  0  0  0  0  0  0  0  0  0  0
  150.7593  142.8023  157.5742 C   0  0  0  0  0  0  0  0  0  0  0  0
  151.7820  143.9013  157.9052 C   0  0  0  0  0  0  0  0  0  0  0  0
  150.6333  140.7211  156.2383 C   0  0  0  0  0  0  0  0  0  0  0  0
  151.2477  139.7474  155.4164 C   0  0  0  0  0  0  0  0  0  0  0  0
  150.4540  138.9148  154.6019 C   0  0  0  0  0  0  0  0  0  0  0  0
  149.0499  139.0504  154.6129 C   0  0  0  0  0  0  0  0  0  0  0  0
  148.3026  138.1833  153.7685 N   0  0  0  0  0  0  0  0  0  0  0  0
  146.9686  138.1059  153.5872 C   0  0  0  0  0  0  0  0  0  0  0  0
  146.1398  138.8182  154.1476 O   0  0  0  0  0  0  0  0  0  0  0  0
  146.5861  137.1535  152.7180 N   0  0  0  0  0  0  0  0  0  0  0  0
  145.2279  136.8065  152.2977 C   0  0  2  0  0  0  0  0  0  0  0  0
  144.1499  137.0753  153.3668 C   0  0  0  0  0  0  0  0  0  0  0  0
  143.1679  135.8907  153.2665 C   0  0  0  0  0  0  0  0  0  0  0  0
  143.6354  135.0939  152.1163 N   0  3  2  0  0  0  0  0  0  0  0  0
  143.2604  133.6634  152.0880 C   0  0  0  0  0  0  0  0  0  0  0  0
  143.7742  133.0295  150.7793 C   0  0  0  0  0  0  0  0  0  0  0  0
  145.2839  133.2746  150.5781 C   0  0  0  0  0  0  0  0  0  0  0  0
  145.6273  134.7710  150.7107 C   0  0  0  0  0  0  0  0  0  0  0  0
  145.0893  135.3047  152.0483 C   0  0  1  0  0  0  0  0  0  0  0  0
  148.4829  140.0445  155.4468 C   0  0  0  0  0  0  0  0  0  0  0  0
  149.2817  140.8212  156.2099 N   0  3  0  0  0  0  0  0  0  0  0  0
  152.7416  140.7113  160.1242 H   0  0  0  0  0  0  0  0  0  0  0  0
  151.0292  140.9360  159.7900 H   0  0  0  0  0  0  0  0  0  0  0  0
  152.1412  142.2983  159.6579 H   0  0  0  0  0  0  0  0  0  0  0  0
  153.3115  141.1474  157.7437 H   0  0  0  0  0  0  0  0  0  0  0  0
  152.2310  139.7977  157.8658 H   0  0  0  0  0  0  0  0  0  0  0  0
  150.0370  143.1670  156.8428 H   0  0  0  0  0  0  0  0  0  0  0  0
  150.1863  142.5796  158.4750 H   0  0  0  0  0  0  0  0  0  0  0  0
  151.2793  144.7870  158.2943 H   0  0  0  0  0  0  0  0  0  0  0  0
  152.3562  144.2104  157.0322 H   0  0  0  0  0  0  0  0  0  0  0  0
  152.4865  143.5624  158.6652 H   0  0  0  0  0  0  0  0  0  0  0  0
  152.3218  139.6367  155.3923 H   0  0  0  0  0  0  0  0  0  0  0  0
  150.9273  138.1743  153.9735 H   0  0  0  0  0  0  0  0  0  0  0  0
  148.8509  137.5092  153.2552 H   0  0  0  0  0  0  0  0  0  0  0  0
  147.3279  136.6150  152.2934 H   0  0  0  0  0  0  0  0  0  0  0  0
  144.9688  137.3372  151.3792 H   0  0  0  0  0  0  0  0  0  0  0  0
  144.5815  137.1121  154.3681 H   0  0  0  0  0  0  0  0  0  0  0  0
  143.6521  138.0294  153.1898 H   0  0  0  0  0  0  0  0  0  0  0  0
  143.2106  135.2928  154.1783 H   0  0  0  0  0  0  0  0  0  0  0  0
  142.1368  136.2139  153.1213 H   0  0  0  0  0  0  0  0  0  0  0  0
  143.6830  133.1501  152.9531 H   0  0  0  0  0  0  0  0  0  0  0  0
  142.1761  133.5671  152.1528 H   0  0  0  0  0  0  0  0  0  0  0  0
  143.5648  131.9595  150.7749 H   0  0  0  0  0  0  0  0  0  0  0  0
  143.2272  133.4525  149.9356 H   0  0  0  0  0  0  0  0  0  0  0  0
  145.8446  132.7067  151.3214 H   0  0  0  0  0  0  0  0  0  0  0  0
  145.5983  132.9014  149.6029 H   0  0  0  0  0  0  0  0  0  0  0  0
  146.7068  134.9145  150.6520 H   0  0  0  0  0  0  0  0  0  0  0  0
  145.1903  135.3263  149.8796 H   0  0  0  0  0  0  0  0  0  0  0  0
  145.5570  134.7589  152.8716 H   0  0  0  0  0  0  0  0  0  0  0  0
  147.4302  140.2620  155.5401 H   0  0  0  0  0  0  0  0  0  0  0  0
  143.2446  135.5234  151.2898 H   0  0  0  0  0  0  0  0  0  0  0  0
  148.8393  141.5243  156.8024 H   0  0  0  0  0  0  0  0  0  0  0  0
  1  2  1  0  0  0  0
  1 25  1  0  0  0  0
  1 26  1  0  0  0  0
  1 27  1  0  0  0  0
  2  3  1  0  0  0  0
  2 28  1  0  0  0  0
  2 29  1  0  0  0  0
  3  4  1  0  0  0  0
  3  6  1  0  0  0  0
  4  5  1  0  0  0  0
  4 30  1  0  0  0  0
  4 31  1  0  0  0  0
  5 32  1  0  0  0  0
  5 33  1  0  0  0  0
  5 34  1  0  0  0  0
  6 24  1  0  0  0  0
  6  7  2  0  0  0  0
  7  8  1  0  0  0  0
  7 35  1  0  0  0  0
  8  9  2  0  0  0  0
  8 36  1  0  0  0  0
  9 10  1  0  0  0  0
  9 23  1  0  0  0  0
 10 11  1  0  0  0  0
 10 37  1  0  0  0  0
 11 12  2  0  0  0  0
 11 13  1  0  0  0  0
 13 14  1  0  0  0  0
 13 38  1  0  0  0  0
 14 22  1  0  0  0  0
 14 15  1  0  0  0  0
 14 39  1  0  0  0  0
 15 16  1  0  0  0  0
 15 40  1  0  0  0  0
 15 41  1  0  0  0  0
 16 17  1  0  0  0  0
 16 42  1  0  0  0  0
 16 43  1  0  0  0  0
 17 22  1  0  0  0  0
 17 18  1  0  0  0  0
 17 54  1  0  0  0  0
 18 19  1  0  0  0  0
 18 44  1  0  0  0  0
 18 45  1  0  0  0  0
 19 20  1  0  0  0  0
 19 46  1  0  0  0  0
 19 47  1  0  0  0  0
 20 21  1  0  0  0  0
 20 48  1  0  0  0  0
 20 49  1  0  0  0  0
 21 22  1  0  0  0  0
 21 50  1  0  0  0  0
 21 51  1  0  0  0  0
 22 52  1  0  0  0  0
 23 24  2  0  0  0  0
 23 53  1  0  0  0  0
 24 55  1  0  0  0  0
M  CHG  1  17   1
M  CHG  1  24   1
M  END
> <s_m_source_file>
AV-unprocessed.smi

> <i_m_source_file_index>
1701

> <i_lp_mmshare_version>
43012

> <i_f3d_flags>
0

> <s_epik_input>
W0NIM11bQ0gyXU4oW0NIMl1bQ0gzXSljMVtjSF1bY0hdYyhbY0hdbjEpW05IXUMoPU8pW05IXVtDQEhdKFtDSDJdW0NIMl0yKVtDQEBIXShOMjMpW0NIMl1bQ0gyXVtDSDJdW0NIMl0z

> <s_epik_cmdline>
J2VwaWtfcHl0aG9uJywgJy1waCcsICc3LjAnLCAnLXRuJywgJzgnLCAnLW1hJywgJzIwMCcsICctbWV0YWxfYmluZGluZycsICctaW1hZScsICc8aW5maWxlLm1hZT4nLCAnLW9tYWUnLCAnPG91dGZpbGUubWFlPic=

> <r_lp_tautomer_probability>
0.999994

> <r_epik_Ionization_Penalty>
0.302862

> <r_epik_Ionization_Penalty_Charging>
0.302842

> <r_epik_Ionization_Penalty_Neutral>
1.95166e-05

> <r_epik_State_Penalty>
0.019791

> <r_epik_Charging_Adjusted_Penalty>
0.322633

> <i_epik_Tot_Q>
2

> <i_epik_Tot_abs_Q>
2

> <r_epik_Metal_State_Penalty>
0.0536763

> <b_epik_Metal_Only>
0

> <s_lp_Force_Field>
OPLS_2005

> <r_lp_Energy>
62.5639

> <b_lp_Chiralities_Consistent>
1

> <s_lp_Variant>
AV-unprocessed.smi:1701-3

> <Gold.Version>
5.8.1

> <Gold.Id.Protein>
6NUR|6NUR_protein|mol2

> <Gold.PLP.Fitness>
44.6395

> <Gold.PLP.PLP>
-40.4802

> <Gold.PLP.part.hbond>
-2.0000

> <Gold.PLP.part.metal>
0.0000

> <Gold.PLP.part.buried>
-4.0570

> <Gold.PLP.part.nonpolar>
-35.1929

> <Gold.PLP.part.repulsive>
0.2492

> <Gold.PLP.ligand.clash>
0.0000

> <Gold.PLP.ligand.torsion>
1.2894

> <Gold.PLP.Chemscore.Hbond>
1.9440

> <Gold.PLP.Chemscore.CHOScore>
0.0000

> <Gold.PLP.Chemscore.Metal>
0.0000

> <Gold.Chemscore.Hbonds>
donor molecule, donor type, donor heavy atom, donor atom, acceptor molecule, acceptor atom, score
      L1  H    10    37       P1  7948  0.99
      L1  H    13    38       P1  7948  1.00

> <Gold.PLP.Chemscore.Internal.Correction>
0.9060

> <Gold.Rescore>
     Score         DG    S(hbond)    S(metal)    S(lipo)     H(rot)  DE(clash)    DE(int)     intcor
     16.45     -20.48       1.90        0.00     102.61       1.30       0.08       3.95       ----

> <Gold.Chemscore.Fitness>
16.4537

> <Gold.Chemscore.DG>
-20.4817

> <Gold.Chemscore.ZeroCoef>
-5.4800

> <Gold.Chemscore.Hbond>
1.8951

> <Gold.Chemscore.Metal>
0.0000

> <Gold.Chemscore.Lipo>
102.6085

> <Gold.Chemscore.Internal_Hbond>
0.0000

> <Gold.Chemscore.DEClash>
0.0823

> <Gold.Chemscore.DEInternal>
3.9457

> <Gold.Chemscore.Rot>
1.3020

> <Gold.Chemscore.Internal.Correction>
   9.000000E+99

> <Gold.Chemscore.Hbonds>
donor molecule, donor type, donor heavy atom, donor atom, acceptor molecule, acceptor atom, score
      L1  H    10    37       P1  7948  0.94
      L1  H    13    38       P1  7948  0.99

> <Gold.Chemscore.Hbond.Weighted>
-6.3296

> <Gold.Chemscore.Metal.Weighted>
-0.0000

> <Gold.Chemscore.Lipo.Weighted>
-12.0052

> <Gold.Chemscore.Internal_Hbond.Weighted>
0.0000

> <Gold.Chemscore.DEClash.Weighted>
0.0823

> <Gold.Chemscore.DEInternal.Weighted>
3.9457

> <Gold.Chemscore.Rot.Weighted>
3.3330

> <Gold.Chemscore.Internal.Correction.Weighted>
   9.000000E+99

> <Gold.Protein.RotatedTorsions>
[ 6907 6896 6895 6894 ] final   65.76 input  -60.11 | X-H torsion
[ 7974 7965 7964 7962 ] final    9.26 input  175.53 | X-H torsion
[ 8008 7997 7996 7995 ] final  -12.15 input   59.86 | X-H torsion
[ 10167 10162 10161 10158 ] final  161.88 input  -65.29 | X-H torsion
[ 10718 10713 10712 10709 ] final  101.79 input   66.30 | X-H torsion
[ 10763 10752 10751 10750 ] final  -90.02 input  -60.55 | X-H torsion
[ 11005 11000 10999 10996 ] final -146.71 input  -57.11 | X-H torsion

> <Gold.Protein.ActiveResidues>
 VAL166  LYS551  ARG553  GLY616  TRP617  ASP618  TYR619  PRO620  LYS621  CYS622 
 ASP623  PHE694  ASN695  SER759  ASP760  ASP761  ALA762  ILE779  LEU786  VAL792 
 PHE793  MET794  SER795  GLU796  ALA797  LYS798  CYS799  TRP800  GLU811  SER814 

> <Gold.Protein.RotatedAtoms>
  152.4431  134.5550  159.9877 H   0  0  0  0  0  0  0  0  0  0  0  0  # atno 6907 bound_to 6896
  151.5642  133.3393  159.2985 H   0  0  0  0  0  0  0  0  0  0  0  0  # atno 6908 bound_to 6896
  150.8341  134.7640  159.6942 H   0  0  0  0  0  0  0  0  0  0  0  0  # atno 6909 bound_to 6896
  146.2406  139.9811  142.8436 H   0  0  0  0  0  0  0  0  0  0  0  0  # atno 7974 bound_to 7965
  154.5402  140.2284  155.8654 H   0  0  0  0  0  0  0  0  0  0  0  0  # atno 8008 bound_to 7997
  156.1851  140.3091  155.9185 H   0  0  0  0  0  0  0  0  0  0  0  0  # atno 8009 bound_to 7997
  155.3273  140.0443  157.3032 H   0  0  0  0  0  0  0  0  0  0  0  0  # atno 8010 bound_to 7997
  139.4854  144.4492  151.8851 H   0  0  0  0  0  0  0  0  0  0  0  0  # atno 10167 bound_to 10162
  157.6820  131.0736  150.5306 H   0  0  0  0  0  0  0  0  0  0  0  0  # atno 10718 bound_to 10713
  154.6614  135.5319  153.8022 H   0  0  0  0  0  0  0  0  0  0  0  0  # atno 10763 bound_to 10752
  153.0444  135.6506  154.0866 H   0  0  0  0  0  0  0  0  0  0  0  0  # atno 10764 bound_to 10752
  154.0774  135.2949  155.3276 H   0  0  0  0  0  0  0  0  0  0  0  0  # atno 10765 bound_to 10752
  140.7792  134.3099  157.5051 H   0  0  0  0  0  0  0  0  0  0  0  0  # atno 11005 bound_to 11000
  145.1591  140.9663  143.4388 LP  0  0  0  0  0  0  0  0  0  0  0  0  # atno 17320 bound_to 7965
  145.0133  139.3490  143.6109 LP  0  0  0  0  0  0  0  0  0  0  0  0  # atno 17321 bound_to 7965
  140.3948  144.2569  150.5897 LP  0  0  0  0  0  0  0  0  0  0  0  0  # atno 17342 bound_to 10162
  140.5112  143.2290  151.8532 LP  0  0  0  0  0  0  0  0  0  0  0  0  # atno 17343 bound_to 10162
  156.5616  130.4257  149.6060 LP  0  0  0  0  0  0  0  0  0  0  0  0  # atno 17370 bound_to 10713
  156.2816  130.7074  151.1899 LP  0  0  0  0  0  0  0  0  0  0  0  0  # atno 17371 bound_to 10713
  139.8745  134.9308  156.3512 LP  0  0  0  0  0  0  0  0  0  0  0  0  # atno 17394 bound_to 11000
  140.9499  133.7458  156.0258 LP  0  0  0  0  0  0  0  0  0  0  0  0  # atno 17395 bound_to 11000

$$$$
