AV-unprocessed.smi:639|AV-procd|sdf|3146|dock4
  -GOLD-   22720 0 73D 1   1.00000     0.00000
 Structure written by MMmdl.
 23 24  0  0  0  0  0  0  0  0  2 V2000
  153.3878  142.8632  160.4757 C   0  0  0  0  0  0  0  0  0  0  0  0
  152.4474  142.5475  159.4222 N   0  0  0  0  0  0  0  0  0  0  0  0
  152.1197  141.3149  158.9018 C   0  0  0  0  0  0  0  0  0  0  0  0
  151.1869  141.5106  157.9199 C   0  0  0  0  0  0  0  0  0  0  0  0
  150.5059  140.4764  157.0425 C   0  0  1  0  0  0  0  0  0  0  0  0
  149.8387  139.3639  157.8741 C   0  0  0  0  0  0  0  0  0  0  0  0
  149.5430  141.0675  156.1360 N   0  0  0  0  0  0  0  0  0  0  0  0
  149.9049  140.9012  154.8648 C   0  0  0  0  0  0  0  0  0  0  0  0
  149.2272  141.3390  153.9379 O   0  0  0  0  0  0  0  0  0  0  0  0
  151.0624  140.2148  154.7968 N   0  5  0  0  0  0  0  0  0  0  0  0
  151.5078  139.9019  156.0334 C   0  0  0  0  0  0  0  0  0  0  0  0
  152.5080  139.2738  156.3802 O   0  0  0  0  0  0  0  0  0  0  0  0
  151.0131  142.9267  157.9226 C   0  0  0  0  0  0  0  0  0  0  0  0
  151.7639  143.5418  158.8219 N   0  0  0  0  0  0  0  0  0  0  0  0
  153.8521  141.9500  160.8489 H   0  0  0  0  0  0  0  0  0  0  0  0
  152.8694  143.3592  161.2967 H   0  0  0  0  0  0  0  0  0  0  0  0
  154.1650  143.5238  160.0902 H   0  0  0  0  0  0  0  0  0  0  0  0
  152.5748  140.4050  159.2648 H   0  0  0  0  0  0  0  0  0  0  0  0
  150.5614  138.8525  158.5109 H   0  0  0  0  0  0  0  0  0  0  0  0
  149.3742  138.6102  157.2369 H   0  0  0  0  0  0  0  0  0  0  0  0
  149.0609  139.7717  158.5204 H   0  0  0  0  0  0  0  0  0  0  0  0
  148.7130  141.5535  156.4418 H   0  0  0  0  0  0  0  0  0  0  0  0
  150.3639  143.5242  157.2995 H   0  0  0  0  0  0  0  0  0  0  0  0
  1  2  1  0  0  0  0
  1 15  1  0  0  0  0
  1 16  1  0  0  0  0
  1 17  1  0  0  0  0
  2 14  1  0  0  0  0
  2  3  1  0  0  0  0
  3  4  2  0  0  0  0
  3 18  1  0  0  0  0
  4  5  1  0  0  0  0
  4 13  1  0  0  0  0
  5 11  1  0  0  0  0
  5  6  1  0  0  0  0
  5  7  1  0  0  0  0
  6 19  1  0  0  0  0
  6 20  1  0  0  0  0
  6 21  1  0  0  0  0
  7  8  1  0  0  0  0
  7 22  1  0  0  0  0
  8  9  2  0  0  0  0
  8 10  1  0  0  0  0
 10 11  1  0  0  0  0
 11 12  2  0  0  0  0
 13 14  2  0  0  0  0
 13 23  1  0  0  0  0
M  CHG  1  10  -1
M  END
> <s_m_source_file>
AV-unprocessed.smi

> <i_m_source_file_index>
639

> <i_lp_mmshare_version>
43012

> <i_f3d_flags>
0

> <s_epik_input>
W0NIM11uMVtjSF1jKFtjSF1uMSlbQ0BAXTIoW0NIM10pW05IXUMoPU8pW05IXUMyPU8=

> <s_epik_cmdline>
J2VwaWtfcHl0aG9uJywgJy1waCcsICc3LjAnLCAnLXRuJywgJzgnLCAnLW1hJywgJzIwMCcsICctbWV0YWxfYmluZGluZycsICctaW1hZScsICc8aW5maWxlLm1hZT4nLCAnLW9tYWUnLCAnPG91dGZpbGUubWFlPic=

> <r_lp_tautomer_probability>
1

> <r_epik_Ionization_Penalty>
1.82128

> <r_epik_Ionization_Penalty_Charging>
1.82122

> <r_epik_Ionization_Penalty_Neutral>
5.526e-05

> <r_epik_State_Penalty>
1.93645

> <r_epik_Charging_Adjusted_Penalty>
3.75767

> <i_epik_Tot_Q>
-1

> <i_epik_Tot_abs_Q>
1

> <r_epik_Metal_State_Penalty>
0.532903

> <b_epik_Metal_Only>
0

> <s_lp_Force_Field>
OPLS_2005

> <r_lp_Energy>
3.65424

> <b_lp_Chiralities_Consistent>
1

> <s_lp_Variant>
AV-unprocessed.smi:639-3

> <Gold.Version>
5.8.1

> <Gold.Id.Protein>
6NUR|6NUR_protein|mol2

> <Gold.PLP.Fitness>
36.2603

> <Gold.PLP.PLP>
-25.2035

> <Gold.PLP.part.hbond>
-3.8766

> <Gold.PLP.part.metal>
0.0000

> <Gold.PLP.part.buried>
-3.5063

> <Gold.PLP.part.nonpolar>
-18.2929

> <Gold.PLP.part.repulsive>
0.5934

> <Gold.PLP.ligand.clash>
0.0000

> <Gold.PLP.ligand.torsion>
0.1491

> <Gold.PLP.Chemscore.Hbond>
2.7557

> <Gold.PLP.Chemscore.CHOScore>
1.0000

> <Gold.PLP.Chemscore.Metal>
0.0000

> <Gold.Chemscore.Hbonds>
donor molecule, donor type, donor heavy atom, donor atom, acceptor molecule, acceptor atom, score
      P1  H  7989  7998       L1    10  0.90
      P1  H  7997  8008       L1    12  0.84
      P1  H  8011  8017       L1     9  0.78
      L1  C    13    23       P1  8028  1.00

> <Gold.PLP.Chemscore.Internal.Correction>
0.0881

> <Gold.Rescore>
     Score         DG    S(hbond)    S(metal)    S(lipo)     H(rot)  DE(clash)    DE(int)     intcor
     15.15     -15.28       2.21        0.00      42.64       1.00       0.06       0.07       ----

> <Gold.Chemscore.Fitness>
15.1464

> <Gold.Chemscore.DG>
-15.2758

> <Gold.Chemscore.ZeroCoef>
-5.4800

> <Gold.Chemscore.Hbond>
2.2055

> <Gold.Chemscore.Metal>
0.0000

> <Gold.Chemscore.Lipo>
42.6449

> <Gold.Chemscore.Internal_Hbond>
0.0000

> <Gold.Chemscore.DEClash>
0.0635

> <Gold.Chemscore.DEInternal>
0.0660

> <Gold.Chemscore.Rot>
1.0000

> <Gold.Chemscore.Internal.Correction>
   9.000000E+99

> <Gold.Chemscore.Hbonds>
donor molecule, donor type, donor heavy atom, donor atom, acceptor molecule, acceptor atom, score
      P1  H  7989  7998       L1    10  0.17
      P1  H  7997  8008       L1    12  0.76
      P1  H  8011  8017       L1     9  0.74

> <Gold.Chemscore.Hbond.Weighted>
-7.3664

> <Gold.Chemscore.Metal.Weighted>
-0.0000

> <Gold.Chemscore.Lipo.Weighted>
-4.9894

> <Gold.Chemscore.Internal_Hbond.Weighted>
0.0000

> <Gold.Chemscore.DEClash.Weighted>
0.0635

> <Gold.Chemscore.DEInternal.Weighted>
0.0660

> <Gold.Chemscore.Rot.Weighted>
2.5600

> <Gold.Chemscore.Internal.Correction.Weighted>
   9.000000E+99

> <Gold.Protein.RotatedTorsions>
[ 6907 6896 6895 6894 ] final  179.70 input  -60.11 | X-H torsion
[ 7974 7965 7964 7962 ] final -151.85 input  175.53 | X-H torsion
[ 8008 7997 7996 7995 ] final  -26.42 input   59.86 | X-H torsion
[ 10167 10162 10161 10158 ] final   -8.97 input  -65.29 | X-H torsion
[ 10718 10713 10712 10709 ] final   23.42 input   66.30 | X-H torsion
[ 10763 10752 10751 10750 ] final  -25.06 input  -60.55 | X-H torsion
[ 11005 11000 10999 10996 ] final  -17.78 input  -57.11 | X-H torsion

> <Gold.Protein.ActiveResidues>
 VAL166  LYS551  ARG553  GLY616  TRP617  ASP618  TYR619  PRO620  LYS621  CYS622 
 ASP623  PHE694  ASN695  SER759  ASP760  ASP761  ALA762  ILE779  LEU786  VAL792 
 PHE793  MET794  SER795  GLU796  ALA797  LYS798  CYS799  TRP800  GLU811  SER814 

> <Gold.Protein.RotatedAtoms>
  151.6674  133.3315  159.3188 H   0  0  0  0  0  0  0  0  0  0  0  0  # atno 6907 bound_to 6896
  150.7884  134.6892  159.6496 H   0  0  0  0  0  0  0  0  0  0  0  0  # atno 6908 bound_to 6896
  152.3959  134.6370  160.0141 H   0  0  0  0  0  0  0  0  0  0  0  0  # atno 6909 bound_to 6896
  144.7827  140.4742  143.5828 H   0  0  0  0  0  0  0  0  0  0  0  0  # atno 7974 bound_to 7965
  154.4426  140.1900  156.0773 H   0  0  0  0  0  0  0  0  0  0  0  0  # atno 8008 bound_to 7997
  156.0466  140.3313  155.7276 H   0  0  0  0  0  0  0  0  0  0  0  0  # atno 8009 bound_to 7997
  155.5620  140.0604  157.2817 H   0  0  0  0  0  0  0  0  0  0  0  0  # atno 8010 bound_to 7997
  140.7074  143.5909  150.8894 H   0  0  0  0  0  0  0  0  0  0  0  0  # atno 10167 bound_to 10162
  157.1658  130.6737  149.6060 H   0  0  0  0  0  0  0  0  0  0  0  0  # atno 10718 bound_to 10713
  153.6938  135.6960  153.5082 H   0  0  0  0  0  0  0  0  0  0  0  0  # atno 10763 bound_to 10752
  153.2393  135.4311  155.0680 H   0  0  0  0  0  0  0  0  0  0  0  0  # atno 10764 bound_to 10752
  154.8365  135.3504  154.6479 H   0  0  0  0  0  0  0  0  0  0  0  0  # atno 10765 bound_to 10752
  140.8203  133.8073  155.9652 H   0  0  0  0  0  0  0  0  0  0  0  0  # atno 11005 bound_to 11000
  145.6006  139.1503  143.3131 LP  0  0  0  0  0  0  0  0  0  0  0  0  # atno 17320 bound_to 7965
  146.2043  140.6128  142.9088 LP  0  0  0  0  0  0  0  0  0  0  0  0  # atno 17321 bound_to 7965
  139.9635  143.6137  152.2995 LP  0  0  0  0  0  0  0  0  0  0  0  0  # atno 17342 bound_to 10162
  139.6698  144.7661  151.1804 LP  0  0  0  0  0  0  0  0  0  0  0  0  # atno 17343 bound_to 10162
  155.9746  130.4696  150.6400 LP  0  0  0  0  0  0  0  0  0  0  0  0  # atno 17370 bound_to 10713
  157.4089  131.0821  151.1239 LP  0  0  0  0  0  0  0  0  0  0  0  0  # atno 17371 bound_to 10713
  140.9106  134.2265  157.4988 LP  0  0  0  0  0  0  0  0  0  0  0  0  # atno 17394 bound_to 11000
  139.8709  134.9748  156.4860 LP  0  0  0  0  0  0  0  0  0  0  0  0  # atno 17395 bound_to 11000

$$$$
