AV-unprocessed.smi:897|AV-procd|sdf|4080|dock1
  -GOLD-   22720 1563D 1   1.00000     0.00000
 Structure written by MMmdl.
 35 37  0  0  0  0  0  0  0  0  1 V2000
  147.5378  141.5465  153.8812 C   0  0  0  0  0  0  0  0  0  0  0  0
  148.7867  140.9186  154.4635 C   0  0  0  0  0  0  0  0  0  0  0  0
  149.1490  139.5966  154.1453 C   0  0  0  0  0  0  0  0  0  0  0  0
  150.3223  139.0612  154.7141 C   0  0  0  0  0  0  0  0  0  0  0  0
  150.7217  137.6318  154.3794 C   0  0  0  0  0  0  0  0  0  0  0  0
  151.0925  139.8776  155.5830 C   0  0  0  0  0  0  0  0  0  0  0  0
  152.3194  139.3637  156.1892 C   0  0  0  0  0  0  0  0  0  0  0  0
  153.2904  138.9564  156.6686 N   0  0  0  0  0  0  0  0  0  0  0  0
  150.6428  141.2023  155.8406 C   0  0  0  0  0  0  0  0  0  0  0  0
  151.3698  142.0491  156.6980 N   0  0  0  0  0  0  0  0  0  0  0  0
  150.8396  142.4488  157.9983 C   0  0  1  0  0  0  0  0  0  0  0  0
  151.5682  141.7853  159.1694 C   0  0  0  0  0  0  0  0  0  0  0  0
  151.9698  142.9985  160.0200 C   0  0  1  0  0  0  0  0  0  0  0  0
  153.1426  143.7632  159.3930 C   0  0  0  0  0  0  0  0  0  0  0  0
  152.4696  144.4396  158.2003 C   0  0  0  0  0  0  0  0  0  0  0  0
  151.0188  143.9440  158.3304 C   0  0  2  0  0  0  0  0  0  0  0  0
  150.9027  143.8899  159.7423 O   0  0  0  0  0  0  0  0  0  0  0  0
  149.5109  141.7005  155.2886 N   0  0  0  0  0  0  0  0  0  0  0  0
  146.9401  140.8111  153.3419 H   0  0  0  0  0  0  0  0  0  0  0  0
  147.8045  142.3445  153.1881 H   0  0  0  0  0  0  0  0  0  0  0  0
  146.9197  141.9703  154.6732 H   0  0  0  0  0  0  0  0  0  0  0  0
  148.5382  139.0059  153.4781 H   0  0  0  0  0  0  0  0  0  0  0  0
  151.7022  137.6095  153.9025 H   0  0  0  0  0  0  0  0  0  0  0  0
  150.0080  137.1691  153.6972 H   0  0  0  0  0  0  0  0  0  0  0  0
  150.7617  137.0245  155.2840 H   0  0  0  0  0  0  0  0  0  0  0  0
  152.1128  142.6076  156.3035 H   0  0  0  0  0  0  0  0  0  0  0  0
  149.7824  142.1852  158.0556 H   0  0  0  0  0  0  0  0  0  0  0  0
  150.8858  141.1344  159.7170 H   0  0  0  0  0  0  0  0  0  0  0  0
  152.4339  141.1920  158.8714 H   0  0  0  0  0  0  0  0  0  0  0  0
  152.1051  142.7725  161.0780 H   0  0  0  0  0  0  0  0  0  0  0  0
  153.5343  144.5101  160.0846 H   0  0  0  0  0  0  0  0  0  0  0  0
  153.9609  143.1041  159.1011 H   0  0  0  0  0  0  0  0  0  0  0  0
  152.5134  145.5240  158.3066 H   0  0  0  0  0  0  0  0  0  0  0  0
  152.9287  144.1783  157.2467 H   0  0  0  0  0  0  0  0  0  0  0  0
  150.2876  144.5955  157.8511 H   0  0  0  0  0  0  0  0  0  0  0  0
  1  2  1  0  0  0  0
  1 19  1  0  0  0  0
  1 20  1  0  0  0  0
  1 21  1  0  0  0  0
  2 18  1  0  0  0  0
  2  3  2  0  0  0  0
  3  4  1  0  0  0  0
  3 22  1  0  0  0  0
  4  5  1  0  0  0  0
  4  6  2  0  0  0  0
  5 23  1  0  0  0  0
  5 24  1  0  0  0  0
  5 25  1  0  0  0  0
  6  7  1  0  0  0  0
  6  9  1  0  0  0  0
  7  8  3  0  0  0  0
  9 10  1  0  0  0  0
  9 18  2  0  0  0  0
 10 11  1  0  0  0  0
 10 26  1  0  0  0  0
 11 16  1  0  0  0  0
 11 12  1  0  0  0  0
 11 27  1  0  0  0  0
 12 13  1  0  0  0  0
 12 28  1  0  0  0  0
 12 29  1  0  0  0  0
 13 17  1  0  0  0  0
 13 14  1  0  0  0  0
 13 30  1  0  0  0  0
 14 15  1  0  0  0  0
 14 31  1  0  0  0  0
 14 32  1  0  0  0  0
 15 16  1  0  0  0  0
 15 33  1  0  0  0  0
 15 34  1  0  0  0  0
 16 17  1  0  0  0  0
 16 35  1  0  0  0  0
M  END
> <s_m_source_file>
AV-unprocessed.smi

> <i_m_source_file_index>
897

> <i_lp_mmshare_version>
43012

> <i_f3d_flags>
0

> <s_epik_input>
W0NIM11jMVtjSF1jKFtDSDNdKWMoQyNOKWMobjEpW05IXVtDQEhdKFtDSDJdW0NAQEhdMjMpW0NAQEhdKE8zKVtDSDJdW0NIMl0y

> <s_epik_cmdline>
J2VwaWtfcHl0aG9uJywgJy1waCcsICc3LjAnLCAnLXRuJywgJzgnLCAnLW1hJywgJzIwMCcsICctbWV0YWxfYmluZGluZycsICctaW1hZScsICc8aW5maWxlLm1hZT4nLCAnLW9tYWUnLCAnPG91dGZpbGUubWFlPic=

> <r_lp_tautomer_probability>
1

> <r_epik_Ionization_Penalty>
0.000502654

> <r_epik_Ionization_Penalty_Charging>
0

> <r_epik_Ionization_Penalty_Neutral>
0.000502654

> <r_epik_State_Penalty>
-0

> <r_epik_Charging_Adjusted_Penalty>
0

> <i_epik_Tot_Q>
0

> <i_epik_Tot_abs_Q>
0

> <r_epik_Metal_State_Penalty>
-0

> <b_epik_Metal_Only>
0

> <s_lp_Force_Field>
OPLS_2005

> <r_lp_Energy>
43.9226

> <b_lp_Chiralities_Consistent>
1

> <s_lp_Variant>
AV-unprocessed.smi:897-2

> <Gold.Version>
5.8.1

> <Gold.Id.Protein>
6NUR|6NUR_protein|mol2

> <Gold.PLP.Fitness>
41.2357

> <Gold.PLP.PLP>
-39.8570

> <Gold.PLP.part.hbond>
-0.9591

> <Gold.PLP.part.metal>
0.0000

> <Gold.PLP.part.buried>
-2.0172

> <Gold.PLP.part.nonpolar>
-37.7423

> <Gold.PLP.part.repulsive>
0.5035

> <Gold.PLP.ligand.clash>
0.0000

> <Gold.PLP.ligand.torsion>
0.8157

> <Gold.PLP.Chemscore.Hbond>
1.0000

> <Gold.PLP.Chemscore.CHOScore>
0.0000

> <Gold.PLP.Chemscore.Metal>
0.0000

> <Gold.Chemscore.Hbonds>
donor molecule, donor type, donor heavy atom, donor atom, acceptor molecule, acceptor atom, score
      P1  H  7997  8009       L1     8  1.00

> <Gold.PLP.Chemscore.Internal.Correction>
0.0101

> <Gold.Rescore>
     Score         DG    S(hbond)    S(metal)    S(lipo)     H(rot)  DE(clash)    DE(int)     intcor
     17.31     -18.31       0.91        0.00     105.66       1.00       0.22       0.78       ----

> <Gold.Chemscore.Fitness>
17.3104

> <Gold.Chemscore.DG>
-18.3113

> <Gold.Chemscore.ZeroCoef>
-5.4800

> <Gold.Chemscore.Hbond>
0.9069

> <Gold.Chemscore.Metal>
0.0000

> <Gold.Chemscore.Lipo>
105.6591

> <Gold.Chemscore.Internal_Hbond>
0.0000

> <Gold.Chemscore.DEClash>
0.2205

> <Gold.Chemscore.DEInternal>
0.7803

> <Gold.Chemscore.Rot>
1.0000

> <Gold.Chemscore.Internal.Correction>
   9.000000E+99

> <Gold.Chemscore.Hbonds>
donor molecule, donor type, donor heavy atom, donor atom, acceptor molecule, acceptor atom, score
      P1  H  7997  8009       L1     8  0.37

> <Gold.Chemscore.Hbond.Weighted>
-3.0292

> <Gold.Chemscore.Metal.Weighted>
-0.0000

> <Gold.Chemscore.Lipo.Weighted>
-12.3621

> <Gold.Chemscore.Internal_Hbond.Weighted>
0.0000

> <Gold.Chemscore.DEClash.Weighted>
0.2205

> <Gold.Chemscore.DEInternal.Weighted>
0.7803

> <Gold.Chemscore.Rot.Weighted>
2.5600

> <Gold.Chemscore.Internal.Correction.Weighted>
   9.000000E+99

> <Gold.Protein.RotatedTorsions>
[ 6907 6896 6895 6894 ] final  105.05 input  -60.11 | X-H torsion
[ 7974 7965 7964 7962 ] final   23.81 input  175.53 | X-H torsion
[ 8008 7997 7996 7995 ] final -162.51 input   59.86 | X-H torsion
[ 10167 10162 10161 10158 ] final -167.59 input  -65.29 | X-H torsion
[ 10718 10713 10712 10709 ] final -155.78 input   66.30 | X-H torsion
[ 10763 10752 10751 10750 ] final   32.00 input  -60.55 | X-H torsion
[ 11005 11000 10999 10996 ] final   76.08 input  -57.11 | X-H torsion

> <Gold.Protein.ActiveResidues>
 VAL166  LYS551  ARG553  GLY616  TRP617  ASP618  TYR619  PRO620  LYS621  CYS622 
 ASP623  PHE694  ASN695  SER759  ASP760  ASP761  ALA762  ILE779  LEU786  VAL792 
 PHE793  MET794  SER795  GLU796  ALA797  LYS798  CYS799  TRP800  GLU811  SER814 

> <Gold.Protein.RotatedAtoms>
  152.5244  133.9586  159.7706 H   0  0  0  0  0  0  0  0  0  0  0  0  # atno 6907 bound_to 6896
  150.9882  133.6168  159.2719 H   0  0  0  0  0  0  0  0  0  0  0  0  # atno 6908 bound_to 6896
  151.3321  135.0850  159.9395 H   0  0  0  0  0  0  0  0  0  0  0  0  # atno 6909 bound_to 6896
  146.1967  139.7693  142.8792 H   0  0  0  0  0  0  0  0  0  0  0  0  # atno 7974 bound_to 7965
  155.8078  140.0901  157.1921 H   0  0  0  0  0  0  0  0  0  0  0  0  # atno 8008 bound_to 7997
  154.3980  140.1460  156.3410 H   0  0  0  0  0  0  0  0  0  0  0  0  # atno 8009 bound_to 7997
  155.8396  140.3439  155.5626 H   0  0  0  0  0  0  0  0  0  0  0  0  # atno 8010 bound_to 7997
  139.6039  144.0953  152.1772 H   0  0  0  0  0  0  0  0  0  0  0  0  # atno 10167 bound_to 10162
  156.5175  130.8463  151.2669 H   0  0  0  0  0  0  0  0  0  0  0  0  # atno 10718 bound_to 10713
  153.0286  135.6424  154.1286 H   0  0  0  0  0  0  0  0  0  0  0  0  # atno 10763 bound_to 10752
  154.1012  135.2859  155.3253 H   0  0  0  0  0  0  0  0  0  0  0  0  # atno 10764 bound_to 10752
  154.6397  135.5464  153.7838 H   0  0  0  0  0  0  0  0  0  0  0  0  # atno 10765 bound_to 10752
  139.9314  134.7571  156.1351 H   0  0  0  0  0  0  0  0  0  0  0  0  # atno 11005 bound_to 11000
  145.3620  141.0327  143.3279 LP  0  0  0  0  0  0  0  0  0  0  0  0  # atno 17320 bound_to 7965
  144.8596  139.5198  143.6818 LP  0  0  0  0  0  0  0  0  0  0  0  0  # atno 17321 bound_to 7965
  140.0556  144.5898  150.7302 LP  0  0  0  0  0  0  0  0  0  0  0  0  # atno 17342 bound_to 10162
  140.7270  143.2647  151.4084 LP  0  0  0  0  0  0  0  0  0  0  0  0  # atno 17343 bound_to 10162
  157.7442  130.9929  150.2651 LP  0  0  0  0  0  0  0  0  0  0  0  0  # atno 17370 bound_to 10713
  156.3181  130.3782  149.7600 LP  0  0  0  0  0  0  0  0  0  0  0  0  # atno 17371 bound_to 10713
  141.0905  133.6716  156.2530 LP  0  0  0  0  0  0  0  0  0  0  0  0  # atno 17394 bound_to 11000
  140.6191  134.5380  157.5545 LP  0  0  0  0  0  0  0  0  0  0  0  0  # atno 17395 bound_to 11000

$$$$
