AV-unprocessed.smi:2978|AV-procd|sdf|11369|dock9
  -GOLD-   2272016283D 1   1.00000     0.00000
 Structure written by MMmdl.
 32 33  0  0  0  0  0  0  0  0  1 V2000
  151.8196  140.1341  154.9381 O   0  0  0  0  0  0  0  0  0  0  0  0
  151.1836  140.4658  155.9396 C   0  0  0  0  0  0  0  0  0  0  0  0
  151.8005  140.3381  157.3404 C   0  0  0  0  0  0  0  0  0  0  0  0
  151.7525  141.5884  158.1126 N   0  0  0  0  0  0  0  0  0  0  0  0
  151.1902  142.6527  157.4296 N   0  0  0  0  0  0  0  0  0  0  0  0
  151.0814  143.7954  158.0147 C   0  0  0  0  0  0  0  0  0  0  0  0
  151.5328  144.0126  159.3713 C   0  0  0  0  0  0  0  0  0  0  0  0
  151.3600  145.5685  160.1041 Cl  0  0  0  0  0  0  0  0  0  0  0  0
  152.0885  142.9646  160.0299 C   0  0  0  0  0  0  0  0  0  0  0  0
  152.6540  143.1477  161.6551 Cl  0  0  0  0  0  0  0  0  0  0  0  0
  152.2296  141.6471  159.3944 C   0  0  0  0  0  0  0  0  0  0  0  0
  152.7303  140.6725  159.9571 O   0  0  0  0  0  0  0  0  0  0  0  0
  149.9296  140.9389  155.8893 N   0  0  0  0  0  0  0  0  0  0  0  0
  149.1674  141.1638  154.6669 C   0  0  0  0  0  0  0  0  0  0  0  0
  147.9759  140.1976  154.5631 C   0  0  1  0  0  0  0  0  0  0  0  0
  147.2546  140.2476  153.2209 C   0  0  0  0  0  0  0  0  0  0  0  0
  146.5224  138.9208  153.2077 C   0  0  0  0  0  0  0  0  0  0  0  0
  147.4247  138.0069  154.0427 C   0  0  0  0  0  0  0  0  0  0  0  0
  148.4147  138.8481  154.6279 O   0  0  0  0  0  0  0  0  0  0  0  0
  151.2957  139.5431  157.8929 H   0  0  0  0  0  0  0  0  0  0  0  0
  152.8328  140.0035  157.2243 H   0  0  0  0  0  0  0  0  0  0  0  0
  150.6429  144.6607  157.5175 H   0  0  0  0  0  0  0  0  0  0  0  0
  149.4793  141.1867  156.7584 H   0  0  0  0  0  0  0  0  0  0  0  0
  148.8204  142.1978  154.6315 H   0  0  0  0  0  0  0  0  0  0  0  0
  149.8341  141.0315  153.8146 H   0  0  0  0  0  0  0  0  0  0  0  0
  147.2590  140.3757  155.3671 H   0  0  0  0  0  0  0  0  0  0  0  0
  146.5863  141.1043  153.1281 H   0  0  0  0  0  0  0  0  0  0  0  0
  147.9747  140.2840  152.4018 H   0  0  0  0  0  0  0  0  0  0  0  0
  145.5509  139.0263  153.6921 H   0  0  0  0  0  0  0  0  0  0  0  0
  146.3571  138.5442  152.1978 H   0  0  0  0  0  0  0  0  0  0  0  0
  146.8542  137.4987  154.8209 H   0  0  0  0  0  0  0  0  0  0  0  0
  147.9108  137.2481  153.4290 H   0  0  0  0  0  0  0  0  0  0  0  0
  1  2  2  0  0  0  0
  2  3  1  0  0  0  0
  2 13  1  0  0  0  0
  3  4  1  0  0  0  0
  3 20  1  0  0  0  0
  3 21  1  0  0  0  0
  4 11  1  0  0  0  0
  4  5  1  0  0  0  0
  5  6  2  0  0  0  0
  6  7  1  0  0  0  0
  6 22  1  0  0  0  0
  7  8  1  0  0  0  0
  7  9  2  0  0  0  0
  9 10  1  0  0  0  0
  9 11  1  0  0  0  0
 11 12  2  0  0  0  0
 13 14  1  0  0  0  0
 13 23  1  0  0  0  0
 14 15  1  0  0  0  0
 14 24  1  0  0  0  0
 14 25  1  0  0  0  0
 15 19  1  0  0  0  0
 15 16  1  0  0  0  0
 15 26  1  0  0  0  0
 16 17  1  0  0  0  0
 16 27  1  0  0  0  0
 16 28  1  0  0  0  0
 17 18  1  0  0  0  0
 17 29  1  0  0  0  0
 17 30  1  0  0  0  0
 18 19  1  0  0  0  0
 18 31  1  0  0  0  0
 18 32  1  0  0  0  0
M  END
> <s_m_source_file>
AV-unprocessed.smi

> <i_m_source_file_index>
2978

> <i_lp_mmshare_version>
43012

> <i_f3d_flags>
0

> <s_epik_input>
TzFbQ0gyXVtDSDJdW0NIMl1bQ0BIXTFbQ0gyXVtOSF1DKD1PKVtDSDJdbjJuW2NIXWMoQ2wpYyhDbCljMj1P

> <s_epik_cmdline>
J2VwaWtfcHl0aG9uJywgJy1waCcsICc3LjAnLCAnLXRuJywgJzgnLCAnLW1hJywgJzIwMCcsICctbWV0YWxfYmluZGluZycsICctaW1hZScsICc8aW5maWxlLm1hZT4nLCAnLW9tYWUnLCAnPG91dGZpbGUubWFlPic=

> <r_lp_tautomer_probability>
1

> <r_epik_Ionization_Penalty>
2.68881e-08

> <r_epik_Ionization_Penalty_Charging>
2.90862e-11

> <r_epik_Ionization_Penalty_Neutral>
2.6859e-08

> <r_epik_State_Penalty>
-0

> <r_epik_Charging_Adjusted_Penalty>
2.90862e-11

> <i_epik_Tot_Q>
0

> <i_epik_Tot_abs_Q>
0

> <r_epik_Metal_State_Penalty>
-0

> <b_epik_Metal_Only>
0

> <s_lp_Force_Field>
OPLS_2005

> <r_lp_Energy>
30.853

> <b_lp_Chiralities_Consistent>
1

> <s_lp_Variant>
AV-unprocessed.smi:2978-2

> <Gold.Version>
5.8.1

> <Gold.Id.Protein>
6NUR|6NUR_protein|mol2

> <Gold.PLP.Fitness>
43.5716

> <Gold.PLP.PLP>
-38.1400

> <Gold.PLP.part.hbond>
-0.9199

> <Gold.PLP.part.metal>
0.0000

> <Gold.PLP.part.buried>
-4.9548

> <Gold.PLP.part.nonpolar>
-33.5344

> <Gold.PLP.part.repulsive>
0.3513

> <Gold.PLP.ligand.clash>
0.0000

> <Gold.PLP.ligand.torsion>
0.0853

> <Gold.PLP.Chemscore.Hbond>
0.9120

> <Gold.PLP.Chemscore.CHOScore>
0.9496

> <Gold.PLP.Chemscore.Metal>
0.0000

> <Gold.Chemscore.Hbonds>
donor molecule, donor type, donor heavy atom, donor atom, acceptor molecule, acceptor atom, score
      P1  H  7989  7998       L1     1  0.91
      L1  C     6    22       P1  8028  1.00

> <Gold.PLP.Chemscore.Internal.Correction>
0.0174

> <Gold.Rescore>
     Score         DG    S(hbond)    S(metal)    S(lipo)     H(rot)  DE(clash)    DE(int)     intcor
     14.58     -14.71       0.87        0.00      94.07       1.83       0.08       0.06       ----

> <Gold.Chemscore.Fitness>
14.5773

> <Gold.Chemscore.DG>
-14.7148

> <Gold.Chemscore.ZeroCoef>
-5.4800

> <Gold.Chemscore.Hbond>
0.8738

> <Gold.Chemscore.Metal>
0.0000

> <Gold.Chemscore.Lipo>
94.0721

> <Gold.Chemscore.Internal_Hbond>
0.0000

> <Gold.Chemscore.DEClash>
0.0813

> <Gold.Chemscore.DEInternal>
0.0562

> <Gold.Chemscore.Rot>
1.8320

> <Gold.Chemscore.Internal.Correction>
   9.000000E+99

> <Gold.Chemscore.Hbonds>
donor molecule, donor type, donor heavy atom, donor atom, acceptor molecule, acceptor atom, score
      P1  H  7989  7998       L1     1  0.87

> <Gold.Chemscore.Hbond.Weighted>
-2.9183

> <Gold.Chemscore.Metal.Weighted>
-0.0000

> <Gold.Chemscore.Lipo.Weighted>
-11.0064

> <Gold.Chemscore.Internal_Hbond.Weighted>
0.0000

> <Gold.Chemscore.DEClash.Weighted>
0.0813

> <Gold.Chemscore.DEInternal.Weighted>
0.0562

> <Gold.Chemscore.Rot.Weighted>
4.6900

> <Gold.Chemscore.Internal.Correction.Weighted>
   9.000000E+99

> <Gold.Protein.RotatedTorsions>
[ 6907 6896 6895 6894 ] final  108.87 input  -60.11 | X-H torsion
[ 7974 7965 7964 7962 ] final   13.54 input  175.53 | X-H torsion
[ 8008 7997 7996 7995 ] final -179.46 input   59.86 | X-H torsion
[ 10167 10162 10161 10158 ] final  -21.02 input  -65.29 | X-H torsion
[ 10718 10713 10712 10709 ] final   83.60 input   66.30 | X-H torsion
[ 10763 10752 10751 10750 ] final  -46.34 input  -60.55 | X-H torsion
[ 11005 11000 10999 10996 ] final    5.30 input  -57.11 | X-H torsion

> <Gold.Protein.ActiveResidues>
 VAL166  LYS551  ARG553  GLY616  TRP617  ASP618  TYR619  PRO620  LYS621  CYS622 
 ASP623  PHE694  ASN695  SER759  ASP760  ASP761  ALA762  ILE779  LEU786  VAL792 
 PHE793  MET794  SER795  GLU796  ALA797  LYS798  CYS799  TRP800  GLU811  SER814 

> <Gold.Protein.RotatedAtoms>
  152.5093  133.9027  159.7448 H   0  0  0  0  0  0  0  0  0  0  0  0  # atno 6907 bound_to 6896
  150.9439  133.6617  159.2792 H   0  0  0  0  0  0  0  0  0  0  0  0  # atno 6908 bound_to 6896
  151.3919  135.0962  159.9581 H   0  0  0  0  0  0  0  0  0  0  0  0  # atno 6909 bound_to 6896
  146.2327  139.9174  142.8515 H   0  0  0  0  0  0  0  0  0  0  0  0  # atno 7974 bound_to 7965
  156.0308  140.1281  157.0260 H   0  0  0  0  0  0  0  0  0  0  0  0  # atno 8008 bound_to 7997
  154.4349  140.1050  156.6167 H   0  0  0  0  0  0  0  0  0  0  0  0  # atno 8009 bound_to 7997
  155.5809  140.3468  155.4542 H   0  0  0  0  0  0  0  0  0  0  0  0  # atno 8010 bound_to 7997
  140.7279  143.4667  151.0303 H   0  0  0  0  0  0  0  0  0  0  0  0  # atno 10167 bound_to 10162
  157.6882  131.0098  150.2547 H   0  0  0  0  0  0  0  0  0  0  0  0  # atno 10718 bound_to 10713
  154.0434  135.6641  153.4792 H   0  0  0  0  0  0  0  0  0  0  0  0  # atno 10763 bound_to 10752
  153.0492  135.5095  154.7821 H   0  0  0  0  0  0  0  0  0  0  0  0  # atno 10764 bound_to 10752
  154.6804  135.3044  154.9587 H   0  0  0  0  0  0  0  0  0  0  0  0  # atno 10765 bound_to 10752
  140.5723  134.0091  155.8013 H   0  0  0  0  0  0  0  0  0  0  0  0  # atno 11005 bound_to 11000
  145.2170  140.9919  143.4067 LP  0  0  0  0  0  0  0  0  0  0  0  0  # atno 17320 bound_to 7965
  144.9642  139.3947  143.6341 LP  0  0  0  0  0  0  0  0  0  0  0  0  # atno 17321 bound_to 7965
  139.8356  143.7632  152.3180 LP  0  0  0  0  0  0  0  0  0  0  0  0  # atno 17342 bound_to 10162
  139.7763  144.7460  151.0152 LP  0  0  0  0  0  0  0  0  0  0  0  0  # atno 17343 bound_to 10162
  156.3138  130.3775  149.7637 LP  0  0  0  0  0  0  0  0  0  0  0  0  # atno 17370 bound_to 10713
  156.5229  130.8223  151.3210 LP  0  0  0  0  0  0  0  0  0  0  0  0  # atno 17371 bound_to 10713
  141.1049  133.9710  157.3015 LP  0  0  0  0  0  0  0  0  0  0  0  0  # atno 17394 bound_to 11000
  139.9356  135.0196  156.8545 LP  0  0  0  0  0  0  0  0  0  0  0  0  # atno 17395 bound_to 11000

$$$$
