AV-unprocessed.smi:3155|AV-procd|sdf|12026|dock2
  -GOLD-   2272017443D 1   1.00000     0.00000
 Structure written by MMmdl.
 38 39  0  0  0  0  0  0  0  0  2 V2000
  147.3817  140.6628  153.7042 C   0  0  0  0  0  0  0  0  0  0  0  0
  147.3409  139.1841  153.2709 C   0  0  1  0  0  0  0  0  0  0  0  0
  146.7168  138.9996  151.8721 C   0  0  0  0  0  0  0  0  0  0  0  0
  146.0368  137.7264  151.7160 N   0  0  0  0  0  0  0  0  0  0  0  0
  145.0712  137.1626  152.5236 C   0  0  0  0  0  0  0  0  0  0  0  0
  144.7284  135.9630  151.9689 C   0  0  0  0  0  0  0  0  0  0  0  0
  145.5430  135.8827  150.8052 C   0  0  0  0  0  0  0  0  0  0  0  0
  146.3227  136.9413  150.6551 N   0  0  0  0  0  0  0  0  0  0  0  0
  148.6944  138.5860  153.2835 N   0  3  0  0  0  0  0  0  0  0  0  0
  149.2861  138.3798  154.6242 C   0  0  0  0  0  0  0  0  0  0  0  0
  150.2288  139.5225  155.0277 C   0  0  0  0  0  0  0  0  0  0  0  0
  150.4079  140.4664  154.2565 O   0  0  0  0  0  0  0  0  0  0  0  0
  150.8381  139.4514  156.2291 N   0  0  0  0  0  0  0  0  0  0  0  0
  151.7477  140.4773  156.7360 C   0  0  0  0  0  0  0  0  0  0  0  0
  151.9879  140.1288  158.2050 C   0  0  0  0  0  0  0  0  0  0  0  0
  151.7447  138.6276  158.2751 C   0  0  0  0  0  0  0  0  0  0  0  0
  150.6904  138.3663  157.1988 C   0  0  0  0  0  0  0  0  0  0  0  0
  146.3831  141.0998  153.7258 H   0  0  0  0  0  0  0  0  0  0  0  0
  147.9883  141.2579  153.0210 H   0  0  0  0  0  0  0  0  0  0  0  0
  147.7949  140.7808  154.7054 H   0  0  0  0  0  0  0  0  0  0  0  0
  146.7280  138.6307  153.9841 H   0  0  0  0  0  0  0  0  0  0  0  0
  146.0021  139.7986  151.6686 H   0  0  0  0  0  0  0  0  0  0  0  0
  147.4867  139.0670  151.1018 H   0  0  0  0  0  0  0  0  0  0  0  0
  144.7141  137.6541  153.4166 H   0  0  0  0  0  0  0  0  0  0  0  0
  144.0039  135.2515  152.3367 H   0  0  0  0  0  0  0  0  0  0  0  0
  145.5895  135.0931  150.0694 H   0  0  0  0  0  0  0  0  0  0  0  0
  148.6323  137.6764  152.8483 H   0  0  0  0  0  0  0  0  0  0  0  0
  148.4932  138.2956  155.3671 H   0  0  0  0  0  0  0  0  0  0  0  0
  149.8461  137.4440  154.6256 H   0  0  0  0  0  0  0  0  0  0  0  0
  152.6818  140.4313  156.1742 H   0  0  0  0  0  0  0  0  0  0  0  0
  151.3369  141.4825  156.6295 H   0  0  0  0  0  0  0  0  0  0  0  0
  152.9824  140.4133  158.5502 H   0  0  0  0  0  0  0  0  0  0  0  0
  151.2576  140.6465  158.8283 H   0  0  0  0  0  0  0  0  0  0  0  0
  152.6644  138.0982  158.0220 H   0  0  0  0  0  0  0  0  0  0  0  0
  151.4306  138.2949  159.2650 H   0  0  0  0  0  0  0  0  0  0  0  0
  149.6893  138.4055  157.6302 H   0  0  0  0  0  0  0  0  0  0  0  0
  150.8308  137.3831  156.7482 H   0  0  0  0  0  0  0  0  0  0  0  0
  149.3161  139.1586  152.7304 H   0  0  0  0  0  0  0  0  0  0  0  0
  1  2  1  0  0  0  0
  1 18  1  0  0  0  0
  1 19  1  0  0  0  0
  1 20  1  0  0  0  0
  2  3  1  0  0  0  0
  2  9  1  0  0  0  0
  2 21  1  0  0  0  0
  3  4  1  0  0  0  0
  3 22  1  0  0  0  0
  3 23  1  0  0  0  0
  4  8  1  0  0  0  0
  4  5  1  0  0  0  0
  5  6  2  0  0  0  0
  5 24  1  0  0  0  0
  6  7  1  0  0  0  0
  6 25  1  0  0  0  0
  7  8  2  0  0  0  0
  7 26  1  0  0  0  0
  9 10  1  0  0  0  0
  9 27  1  0  0  0  0
  9 38  1  0  0  0  0
 10 11  1  0  0  0  0
 10 28  1  0  0  0  0
 10 29  1  0  0  0  0
 11 12  2  0  0  0  0
 11 13  1  0  0  0  0
 13 17  1  0  0  0  0
 13 14  1  0  0  0  0
 14 15  1  0  0  0  0
 14 30  1  0  0  0  0
 14 31  1  0  0  0  0
 15 16  1  0  0  0  0
 15 32  1  0  0  0  0
 15 33  1  0  0  0  0
 16 17  1  0  0  0  0
 16 34  1  0  0  0  0
 16 35  1  0  0  0  0
 17 36  1  0  0  0  0
 17 37  1  0  0  0  0
M  CHG  1   9   1
M  END
> <s_m_source_file>
AV-unprocessed.smi

> <i_m_source_file_index>
3155

> <i_lp_mmshare_version>
43012

> <i_f3d_flags>
0

> <s_epik_input>
bjFbY0hdW2NIXVtjSF1uMVtDSDJdW0NAQEhdKFtDSDNdKVtOSF1bQ0gyXUMoPU8pTjJbQ0gyXVtDSDJdW0NIMl1bQ0gyXTI=

> <s_epik_cmdline>
J2VwaWtfcHl0aG9uJywgJy1waCcsICc3LjAnLCAnLXRuJywgJzgnLCAnLW1hJywgJzIwMCcsICctbWV0YWxfYmluZGluZycsICctaW1hZScsICc8aW5maWxlLm1hZT4nLCAnLW9tYWUnLCAnPG91dGZpbGUubWFlPic=

> <r_lp_tautomer_probability>
1

> <r_epik_Ionization_Penalty>
0.120138

> <r_epik_Ionization_Penalty_Charging>
0.120135

> <r_epik_Ionization_Penalty_Neutral>
3.43791e-06

> <r_epik_State_Penalty>
0.109683

> <r_epik_Charging_Adjusted_Penalty>
0.229818

> <i_epik_Tot_Q>
1

> <i_epik_Tot_abs_Q>
1

> <r_epik_Metal_State_Penalty>
0.109693

> <b_epik_Metal_Only>
0

> <s_lp_Force_Field>
OPLS_2005

> <r_lp_Energy>
27.7776

> <b_lp_Chiralities_Consistent>
1

> <s_lp_Variant>
AV-unprocessed.smi:3155-2

> <Gold.Version>
5.8.1

> <Gold.Id.Protein>
6NUR|6NUR_protein|mol2

> <Gold.PLP.Fitness>
43.3427

> <Gold.PLP.PLP>
-28.1328

> <Gold.PLP.part.hbond>
-3.6895

> <Gold.PLP.part.metal>
0.0000

> <Gold.PLP.part.buried>
0.5088

> <Gold.PLP.part.nonpolar>
-27.5485

> <Gold.PLP.part.repulsive>
2.2015

> <Gold.PLP.ligand.clash>
0.0000

> <Gold.PLP.ligand.torsion>
0.7439

> <Gold.PLP.Chemscore.Hbond>
4.5563

> <Gold.PLP.Chemscore.CHOScore>
1.0000

> <Gold.PLP.Chemscore.Metal>
0.0000

> <Gold.Chemscore.Hbonds>
donor molecule, donor type, donor heavy atom, donor atom, acceptor molecule, acceptor atom, score
      L1  H     9    27       P1  7948  2.00
      L1  H     9    38       P1  7957  0.94
      P1  H  7954  7966       L1     8  0.55
      P1  H  7989  7998       L1    12  0.84
      L1  C     7    26       P1  7921  1.00

> <Gold.PLP.Chemscore.Internal.Correction>
0.0288

> <Gold.Rescore>
     Score         DG    S(hbond)    S(metal)    S(lipo)     H(rot)  DE(clash)    DE(int)     intcor
     17.38     -19.88       3.51        0.00      63.00       1.84       1.82       0.67       ----

> <Gold.Chemscore.Fitness>
17.3818

> <Gold.Chemscore.DG>
-19.8786

> <Gold.Chemscore.ZeroCoef>
-5.4800

> <Gold.Chemscore.Hbond>
3.5117

> <Gold.Chemscore.Metal>
0.0000

> <Gold.Chemscore.Lipo>
63.0021

> <Gold.Chemscore.Internal_Hbond>
0.0000

> <Gold.Chemscore.DEClash>
1.8247

> <Gold.Chemscore.DEInternal>
0.6721

> <Gold.Chemscore.Rot>
1.8366

> <Gold.Chemscore.Internal.Correction>
   9.000000E+99

> <Gold.Chemscore.Hbonds>
donor molecule, donor type, donor heavy atom, donor atom, acceptor molecule, acceptor atom, score
      L1  H     9    27       P1  7948  1.00
      L1  H     9    38       P1  7957  0.91
      P1  H  7954  7966       L1     8  0.21
      P1  H  7989  7998       L1    12  0.79

> <Gold.Chemscore.Hbond.Weighted>
-11.7290

> <Gold.Chemscore.Metal.Weighted>
-0.0000

> <Gold.Chemscore.Lipo.Weighted>
-7.3713

> <Gold.Chemscore.Internal_Hbond.Weighted>
0.0000

> <Gold.Chemscore.DEClash.Weighted>
1.8247

> <Gold.Chemscore.DEInternal.Weighted>
0.6721

> <Gold.Chemscore.Rot.Weighted>
4.7017

> <Gold.Chemscore.Internal.Correction.Weighted>
   9.000000E+99

> <Gold.Protein.RotatedTorsions>
[ 6907 6896 6895 6894 ] final   73.22 input  -60.11 | X-H torsion
[ 7974 7965 7964 7962 ] final  169.79 input  175.53 | X-H torsion
[ 8008 7997 7996 7995 ] final  146.36 input   59.86 | X-H torsion
[ 10167 10162 10161 10158 ] final  109.51 input  -65.29 | X-H torsion
[ 10718 10713 10712 10709 ] final  -19.07 input   66.30 | X-H torsion
[ 10763 10752 10751 10750 ] final  125.10 input  -60.55 | X-H torsion
[ 11005 11000 10999 10996 ] final -107.01 input  -57.11 | X-H torsion

> <Gold.Protein.ActiveResidues>
 VAL166  LYS551  ARG553  GLY616  TRP617  ASP618  TYR619  PRO620  LYS621  CYS622 
 ASP623  PHE694  ASN695  SER759  ASP760  ASP761  ALA762  ILE779  LEU786  VAL792 
 PHE793  MET794  SER795  GLU796  ALA797  LYS798  CYS799  TRP800  GLU811  SER814 

> <Gold.Protein.RotatedAtoms>
  152.4911  134.4454  159.9556 H   0  0  0  0  0  0  0  0  0  0  0  0  # atno 6907 bound_to 6896
  151.4441  133.3629  159.2794 H   0  0  0  0  0  0  0  0  0  0  0  0  # atno 6908 bound_to 6896
  150.9067  134.8506  159.7457 H   0  0  0  0  0  0  0  0  0  0  0  0  # atno 6909 bound_to 6896
  144.7344  139.9107  143.6415 H   0  0  0  0  0  0  0  0  0  0  0  0  # atno 7974 bound_to 7965
  156.2857  140.2184  156.5365 H   0  0  0  0  0  0  0  0  0  0  0  0  # atno 8008 bound_to 7997
  154.7405  140.0488  157.0829 H   0  0  0  0  0  0  0  0  0  0  0  0  # atno 8009 bound_to 7997
  155.0236  140.3127  155.4787 H   0  0  0  0  0  0  0  0  0  0  0  0  # atno 8010 bound_to 7997
  139.6761  144.7122  151.1600 H   0  0  0  0  0  0  0  0  0  0  0  0  # atno 10167 bound_to 10162
  156.5508  130.4701  149.6453 H   0  0  0  0  0  0  0  0  0  0  0  0  # atno 10718 bound_to 10713
  153.6720  135.3329  155.3155 H   0  0  0  0  0  0  0  0  0  0  0  0  # atno 10763 bound_to 10752
  154.8488  135.4388  154.1696 H   0  0  0  0  0  0  0  0  0  0  0  0  # atno 10764 bound_to 10752
  153.2689  135.6998  153.7577 H   0  0  0  0  0  0  0  0  0  0  0  0  # atno 10765 bound_to 10752
  141.0976  133.8943  157.1924 H   0  0  0  0  0  0  0  0  0  0  0  0  # atno 11005 bound_to 11000
  146.1003  139.3998  143.0351 LP  0  0  0  0  0  0  0  0  0  0  0  0  # atno 17320 bound_to 7965
  145.7588  140.9943  143.1211 LP  0  0  0  0  0  0  0  0  0  0  0  0  # atno 17321 bound_to 7965
  140.7636  143.5770  150.8935 LP  0  0  0  0  0  0  0  0  0  0  0  0  # atno 17342 bound_to 10162
  139.9439  143.6350  152.3047 LP  0  0  0  0  0  0  0  0  0  0  0  0  # atno 17343 bound_to 10162
  156.2887  130.7111  151.1955 LP  0  0  0  0  0  0  0  0  0  0  0  0  # atno 17370 bound_to 10713
  157.7388  131.0537  150.5273 LP  0  0  0  0  0  0  0  0  0  0  0  0  # atno 17371 bound_to 10713
  139.9817  135.0096  156.9765 LP  0  0  0  0  0  0  0  0  0  0  0  0  # atno 17394 bound_to 11000
  140.5102  134.1009  155.7269 LP  0  0  0  0  0  0  0  0  0  0  0  0  # atno 17395 bound_to 11000

$$$$
