AV-unprocessed.smi:2006|AV-procd|sdf|8130|dock3
  -GOLD-   2272010363D 1   1.00000     0.00000
 Structure written by MMmdl.
 33 34  0  0  0  0  0  0  0  0  2 V2000
  151.8390  145.3604  159.2531 C   0  0  0  0  0  0  0  0  0  0  0  0
  151.8576  143.8451  159.4785 C   0  0  1  0  0  0  0  0  0  0  0  0
  151.6991  143.0623  158.1610 C   0  0  0  0  0  0  0  0  0  0  0  0
  151.8114  141.6307  158.4117 N   0  0  0  0  0  0  0  0  0  0  0  0
  151.5575  140.8434  157.2799 C   0  0  0  0  0  0  0  0  0  0  0  0
  150.3662  141.0527  156.5537 C   0  0  0  0  0  0  0  0  0  0  0  0
  150.1196  140.2640  155.4137 C   0  0  0  0  0  0  0  0  0  0  0  0
  151.0702  139.2920  155.0402 C   0  0  0  0  0  0  0  0  0  0  0  0
  150.8538  138.4174  153.8215 C   0  0  0  0  0  0  0  0  0  0  0  0
  149.5408  138.6792  153.2095 N   0  3  0  0  0  0  0  0  0  0  0  0
  152.2310  139.1581  155.8306 C   0  0  0  0  0  0  0  0  0  0  0  0
  152.4731  139.9098  156.9249 N   0  0  0  0  0  0  0  0  0  0  0  0
  153.0489  141.2820  159.0981 C   0  0  0  0  0  0  0  0  0  0  0  0
  153.1828  142.1060  160.3899 C   0  0  0  0  0  0  0  0  0  0  0  0
  153.1020  143.4947  160.0808 O   0  0  0  0  0  0  0  0  0  0  0  0
  150.8991  145.6779  158.8012 H   0  0  0  0  0  0  0  0  0  0  0  0
  152.6502  145.6710  158.5938 H   0  0  0  0  0  0  0  0  0  0  0  0
  151.9519  145.8959  160.1961 H   0  0  0  0  0  0  0  0  0  0  0  0
  151.0456  143.5853  160.1599 H   0  0  0  0  0  0  0  0  0  0  0  0
  150.7305  143.2799  157.7090 H   0  0  0  0  0  0  0  0  0  0  0  0
  152.4652  143.3733  157.4491 H   0  0  0  0  0  0  0  0  0  0  0  0
  149.6550  141.8055  156.8622 H   0  0  0  0  0  0  0  0  0  0  0  0
  149.2163  140.4048  154.8385 H   0  0  0  0  0  0  0  0  0  0  0  0
  151.6371  138.6031  153.0857 H   0  0  0  0  0  0  0  0  0  0  0  0
  150.9181  137.3657  154.1029 H   0  0  0  0  0  0  0  0  0  0  0  0
  149.6152  139.4605  152.5736 H   0  0  0  0  0  0  0  0  0  0  0  0
  148.8689  138.8965  153.9316 H   0  0  0  0  0  0  0  0  0  0  0  0
  152.9847  138.4256  155.5811 H   0  0  0  0  0  0  0  0  0  0  0  0
  153.0560  140.2163  159.3303 H   0  0  0  0  0  0  0  0  0  0  0  0
  153.9009  141.4768  158.4453 H   0  0  0  0  0  0  0  0  0  0  0  0
  152.4054  141.8363  161.1065 H   0  0  0  0  0  0  0  0  0  0  0  0
  154.1412  141.9027  160.8675 H   0  0  0  0  0  0  0  0  0  0  0  0
  149.2358  137.8610  152.7020 H   0  0  0  0  0  0  0  0  0  0  0  0
  1  2  1  0  0  0  0
  1 16  1  0  0  0  0
  1 17  1  0  0  0  0
  1 18  1  0  0  0  0
  2 15  1  0  0  0  0
  2  3  1  0  0  0  0
  2 19  1  0  0  0  0
  3  4  1  0  0  0  0
  3 20  1  0  0  0  0
  3 21  1  0  0  0  0
  4  5  1  0  0  0  0
  4 13  1  0  0  0  0
  5 12  1  0  0  0  0
  5  6  2  0  0  0  0
  6  7  1  0  0  0  0
  6 22  1  0  0  0  0
  7  8  2  0  0  0  0
  7 23  1  0  0  0  0
  8  9  1  0  0  0  0
  8 11  1  0  0  0  0
  9 10  1  0  0  0  0
  9 24  1  0  0  0  0
  9 25  1  0  0  0  0
 10 26  1  0  0  0  0
 10 27  1  0  0  0  0
 10 33  1  0  0  0  0
 11 12  2  0  0  0  0
 11 28  1  0  0  0  0
 13 14  1  0  0  0  0
 13 29  1  0  0  0  0
 13 30  1  0  0  0  0
 14 15  1  0  0  0  0
 14 31  1  0  0  0  0
 14 32  1  0  0  0  0
M  CHG  1  10   1
M  END
> <s_m_source_file>
AV-unprocessed.smi

> <i_m_source_file_index>
2006

> <i_lp_mmshare_version>
43012

> <i_f3d_flags>
0

> <s_epik_input>
W0NIM11bQ0BASF0xW0NIMl1OKFtDSDJdW0NIMl1PMSljMltjSF1bY0hdYyhbY0hdbjIpW0NIMl1bTkgyXQ==

> <s_epik_cmdline>
J2VwaWtfcHl0aG9uJywgJy1waCcsICc3LjAnLCAnLXRuJywgJzgnLCAnLW1hJywgJzIwMCcsICctbWV0YWxfYmluZGluZycsICctaW1hZScsICc8aW5maWxlLm1hZT4nLCAnLW9tYWUnLCAnPG91dGZpbGUubWFlPic=

> <r_lp_tautomer_probability>
1

> <r_epik_Ionization_Penalty>
0.0608602

> <r_epik_Ionization_Penalty_Charging>
0.059977

> <r_epik_Ionization_Penalty_Neutral>
0.000883197

> <r_epik_State_Penalty>
0.0524157

> <r_epik_Charging_Adjusted_Penalty>
0.112393

> <i_epik_Tot_Q>
1

> <i_epik_Tot_abs_Q>
1

> <r_epik_Metal_State_Penalty>
0.0524947

> <b_epik_Metal_Only>
0

> <s_lp_Force_Field>
OPLS_2005

> <r_lp_Energy>
17.2121

> <b_lp_Chiralities_Consistent>
1

> <s_lp_Variant>
AV-unprocessed.smi:2006-2

> <Gold.Version>
5.8.1

> <Gold.Id.Protein>
6NUR|6NUR_protein|mol2

> <Gold.PLP.Fitness>
47.2901

> <Gold.PLP.PLP>
-35.3458

> <Gold.PLP.part.hbond>
-2.7803

> <Gold.PLP.part.metal>
0.0000

> <Gold.PLP.part.buried>
-4.4750

> <Gold.PLP.part.nonpolar>
-27.7715

> <Gold.PLP.part.repulsive>
0.1056

> <Gold.PLP.ligand.clash>
0.0000

> <Gold.PLP.ligand.torsion>
0.0785

> <Gold.PLP.Chemscore.Hbond>
4.0000

> <Gold.PLP.Chemscore.CHOScore>
0.0000

> <Gold.PLP.Chemscore.Metal>
0.0000

> <Gold.Chemscore.Hbonds>
donor molecule, donor type, donor heavy atom, donor atom, acceptor molecule, acceptor atom, score
      L1  H    10    26       P1  7957  0.98
      L1  H    10    33       P1  7948  2.00
      P1  H  7997  8009       L1    12  0.99

> <Gold.PLP.Chemscore.Internal.Correction>
0.1013

> <Gold.Rescore>
     Score         DG    S(hbond)    S(metal)    S(lipo)     H(rot)  DE(clash)    DE(int)     intcor
     21.28     -21.47       2.60        0.00      90.94       1.30       0.14       0.05       ----

> <Gold.Chemscore.Fitness>
21.2776

> <Gold.Chemscore.DG>
-21.4736

> <Gold.Chemscore.ZeroCoef>
-5.4800

> <Gold.Chemscore.Hbond>
2.6025

> <Gold.Chemscore.Metal>
0.0000

> <Gold.Chemscore.Lipo>
90.9450

> <Gold.Chemscore.Internal_Hbond>
0.0000

> <Gold.Chemscore.DEClash>
0.1429

> <Gold.Chemscore.DEInternal>
0.0531

> <Gold.Chemscore.Rot>
1.3045

> <Gold.Chemscore.Internal.Correction>
   9.000000E+99

> <Gold.Chemscore.Hbonds>
donor molecule, donor type, donor heavy atom, donor atom, acceptor molecule, acceptor atom, score
      L1  H    10    26       P1  7957  0.87
      L1  H    10    33       P1  7948  0.96
      P1  H  7997  8009       L1    12  0.24

> <Gold.Chemscore.Hbond.Weighted>
-8.6925

> <Gold.Chemscore.Metal.Weighted>
-0.0000

> <Gold.Chemscore.Lipo.Weighted>
-10.6406

> <Gold.Chemscore.Internal_Hbond.Weighted>
0.0000

> <Gold.Chemscore.DEClash.Weighted>
0.1429

> <Gold.Chemscore.DEInternal.Weighted>
0.0531

> <Gold.Chemscore.Rot.Weighted>
3.3395

> <Gold.Chemscore.Internal.Correction.Weighted>
   9.000000E+99

> <Gold.Protein.RotatedTorsions>
[ 6907 6896 6895 6894 ] final -106.01 input  -60.11 | X-H torsion
[ 7974 7965 7964 7962 ] final   18.60 input  175.53 | X-H torsion
[ 8008 7997 7996 7995 ] final  168.07 input   59.86 | X-H torsion
[ 10167 10162 10161 10158 ] final -155.26 input  -65.29 | X-H torsion
[ 10718 10713 10712 10709 ] final  125.47 input   66.30 | X-H torsion
[ 10763 10752 10751 10750 ] final  -29.26 input  -60.55 | X-H torsion
[ 11005 11000 10999 10996 ] final  -24.84 input  -57.11 | X-H torsion

> <Gold.Protein.ActiveResidues>
 VAL166  LYS551  ARG553  GLY616  TRP617  ASP618  TYR619  PRO620  LYS621  CYS622 
 ASP623  PHE694  ASN695  SER759  ASP760  ASP761  ALA762  ILE779  LEU786  VAL792 
 PHE793  MET794  SER795  GLU796  ALA797  LYS798  CYS799  TRP800  GLU811  SER814 

> <Gold.Protein.RotatedAtoms>
  150.7366  134.0040  159.3647 H   0  0  0  0  0  0  0  0  0  0  0  0  # atno 6907 bound_to 6896
  151.7996  135.0710  160.0408 H   0  0  0  0  0  0  0  0  0  0  0  0  # atno 6908 bound_to 6896
  152.3150  133.5756  159.5742 H   0  0  0  0  0  0  0  0  0  0  0  0  # atno 6909 bound_to 6896
  146.2179  139.8434  142.8636 H   0  0  0  0  0  0  0  0  0  0  0  0  # atno 7974 bound_to 7965
  156.1579  140.1600  156.8661 H   0  0  0  0  0  0  0  0  0  0  0  0  # atno 8008 bound_to 7997
  154.5132  140.0796  156.8067 H   0  0  0  0  0  0  0  0  0  0  0  0  # atno 8009 bound_to 7997
  155.3766  140.3403  155.4247 H   0  0  0  0  0  0  0  0  0  0  0  0  # atno 8010 bound_to 7997
  139.6946  143.9364  152.2401 H   0  0  0  0  0  0  0  0  0  0  0  0  # atno 10167 bound_to 10162
  157.5500  131.1094  150.8717 H   0  0  0  0  0  0  0  0  0  0  0  0  # atno 10718 bound_to 10713
  153.7617  135.6919  153.4924 H   0  0  0  0  0  0  0  0  0  0  0  0  # atno 10763 bound_to 10752
  153.1934  135.4463  155.0176 H   0  0  0  0  0  0  0  0  0  0  0  0  # atno 10764 bound_to 10752
  154.8150  135.3395  154.7132 H   0  0  0  0  0  0  0  0  0  0  0  0  # atno 10765 bound_to 10752
  140.8883  133.7606  156.0388 H   0  0  0  0  0  0  0  0  0  0  0  0  # atno 11005 bound_to 11000
  145.2876  141.0157  143.3682 LP  0  0  0  0  0  0  0  0  0  0  0  0  # atno 17320 bound_to 7965
  144.9102  139.4538  143.6590 LP  0  0  0  0  0  0  0  0  0  0  0  0  # atno 17321 bound_to 7965
  139.9189  144.6811  150.8482 LP  0  0  0  0  0  0  0  0  0  0  0  0  # atno 17342 bound_to 10162
  140.7692  143.3389  151.2250 LP  0  0  0  0  0  0  0  0  0  0  0  0  # atno 17343 bound_to 10162
  156.9245  130.5327  149.5279 LP  0  0  0  0  0  0  0  0  0  0  0  0  # atno 17370 bound_to 10713
  156.0569  130.5629  150.9110 LP  0  0  0  0  0  0  0  0  0  0  0  0  # atno 17371 bound_to 10713
  140.8378  134.3102  157.5325 LP  0  0  0  0  0  0  0  0  0  0  0  0  # atno 17394 bound_to 11000
  139.8727  134.9399  156.3755 LP  0  0  0  0  0  0  0  0  0  0  0  0  # atno 17395 bound_to 11000

$$$$
