AV-unprocessed.smi:1591|AV-procd|sdf|6400|dock9
  -GOLD-   22720 7 33D 1   1.00000     0.00000
 Structure written by MMmdl.
 51 54  0  0  0  0  0  0  0  0  2 V2000
  151.6268  139.9635  154.5794 C   0  0  0  0  0  0  0  0  0  0  0  0
  151.1852  139.0119  153.4560 C   0  0  0  0  0  0  0  0  0  0  0  0
  149.7711  138.4085  153.6565 C   0  0  1  0  0  0  0  0  0  0  0  0
  149.8294  137.4053  154.7232 N   0  0  0  0  0  0  0  0  0  0  0  0
  150.4665  136.2248  154.6732 C   0  0  0  0  0  0  0  0  0  0  0  0
  151.0568  135.8080  153.6770 O   0  0  0  0  0  0  0  0  0  0  0  0
  150.4244  135.3864  155.9537 C   0  0  0  0  0  0  0  0  0  0  0  0
  149.8001  134.0774  155.7098 N   0  0  0  0  0  0  0  0  0  0  0  0
  148.6726  134.0495  154.8698 C   0  0  0  0  0  0  0  0  0  0  0  0
  148.0138  132.9067  154.6002 C   0  0  0  0  0  0  0  0  0  0  0  0
  148.4972  131.6730  155.2067 C   0  0  0  0  0  0  0  0  0  0  0  0
  147.9080  130.6198  154.9720 O   0  0  0  0  0  0  0  0  0  0  0  0
  149.5942  131.7508  156.0156 N   0  5  0  0  0  0  0  0  0  0  0  0
  150.2542  132.9211  156.2813 C   0  0  0  0  0  0  0  0  0  0  0  0
  151.2413  132.9669  157.0153 O   0  0  0  0  0  0  0  0  0  0  0  0
  148.6322  139.4449  153.9381 C   0  0  0  0  0  0  0  0  0  0  0  0
  148.6835  139.8853  155.4327 C   0  0  0  0  0  0  0  0  0  0  0  0
  147.5641  140.8967  155.7538 C   0  0  1  0  0  0  0  0  0  0  0  0
  147.7319  142.1461  154.8654 C   0  0  0  0  0  0  0  0  0  0  0  0
  147.6422  141.7292  153.3832 C   0  0  2  0  0  0  0  0  0  0  0  0
  146.2683  141.0823  153.1117 C   0  0  0  0  0  0  0  0  0  0  0  0
  146.1081  139.8367  154.0076 C   0  0  2  0  0  0  0  0  0  0  0  0
  146.1913  140.2481  155.4902 C   0  0  0  0  0  0  0  0  0  0  0  0
  147.2274  138.8240  153.6839 C   0  0  0  0  0  0  0  0  0  0  0  0
  148.7659  140.7211  153.0568 C   0  0  0  0  0  0  0  0  0  0  0  0
  152.6577  140.2848  154.4298 H   0  0  0  0  0  0  0  0  0  0  0  0
  151.5691  139.4760  155.5531 H   0  0  0  0  0  0  0  0  0  0  0  0
  151.0096  140.8615  154.6165 H   0  0  0  0  0  0  0  0  0  0  0  0
  151.2398  139.5461  152.5077 H   0  0  0  0  0  0  0  0  0  0  0  0
  151.9269  138.2170  153.4029 H   0  0  0  0  0  0  0  0  0  0  0  0
  149.5155  137.9141  152.7175 H   0  0  0  0  0  0  0  0  0  0  0  0
  149.3708  137.6471  155.5893 H   0  0  0  0  0  0  0  0  0  0  0  0
  151.4351  135.2594  156.3456 H   0  0  0  0  0  0  0  0  0  0  0  0
  149.8887  135.9392  156.7271 H   0  0  0  0  0  0  0  0  0  0  0  0
  148.3758  135.0071  154.4677 H   0  0  0  0  0  0  0  0  0  0  0  0
  147.1479  132.9038  153.9547 H   0  0  0  0  0  0  0  0  0  0  0  0
  148.5922  139.0150  156.0843 H   0  0  0  0  0  0  0  0  0  0  0  0
  149.6442  140.3414  155.6738 H   0  0  0  0  0  0  0  0  0  0  0  0
  147.6297  141.1877  156.8027 H   0  0  0  0  0  0  0  0  0  0  0  0
  146.9620  142.8825  155.0989 H   0  0  0  0  0  0  0  0  0  0  0  0
  148.6901  142.6271  155.0658 H   0  0  0  0  0  0  0  0  0  0  0  0
  147.7563  142.6118  152.7530 H   0  0  0  0  0  0  0  0  0  0  0  0
  145.4685  141.7967  153.3110 H   0  0  0  0  0  0  0  0  0  0  0  0
  146.1807  140.8068  152.0601 H   0  0  0  0  0  0  0  0  0  0  0  0
  145.1383  139.3767  153.8155 H   0  0  0  0  0  0  0  0  0  0  0  0
  146.0533  139.3779  156.1328 H   0  0  0  0  0  0  0  0  0  0  0  0
  145.3890  140.9449  155.7363 H   0  0  0  0  0  0  0  0  0  0  0  0
  147.1159  138.5205  152.6437 H   0  0  0  0  0  0  0  0  0  0  0  0
  147.0980  137.9219  154.2834 H   0  0  0  0  0  0  0  0  0  0  0  0
  149.7339  141.1991  153.2103 H   0  0  0  0  0  0  0  0  0  0  0  0
  148.7178  140.4642  151.9984 H   0  0  0  0  0  0  0  0  0  0  0  0
  1  2  1  0  0  0  0
  1 26  1  0  0  0  0
  1 27  1  0  0  0  0
  1 28  1  0  0  0  0
  2  3  1  0  0  0  0
  2 29  1  0  0  0  0
  2 30  1  0  0  0  0
  3  4  1  0  0  0  0
  3 16  1  0  0  0  0
  3 31  1  0  0  0  0
  4  5  1  0  0  0  0
  4 32  1  0  0  0  0
  5  6  2  0  0  0  0
  5  7  1  0  0  0  0
  7  8  1  0  0  0  0
  7 33  1  0  0  0  0
  7 34  1  0  0  0  0
  8 14  1  0  0  0  0
  8  9  1  0  0  0  0
  9 10  2  0  0  0  0
  9 35  1  0  0  0  0
 10 11  1  0  0  0  0
 10 36  1  0  0  0  0
 11 12  2  0  0  0  0
 11 13  1  0  0  0  0
 13 14  1  0  0  0  0
 14 15  2  0  0  0  0
 16 24  1  0  0  0  0
 16 25  1  0  0  0  0
 16 17  1  0  0  0  0
 17 18  1  0  0  0  0
 17 37  1  0  0  0  0
 17 38  1  0  0  0  0
 18 23  1  0  0  0  0
 18 19  1  0  0  0  0
 18 39  1  0  0  0  0
 19 20  1  0  0  0  0
 19 40  1  0  0  0  0
 19 41  1  0  0  0  0
 20 21  1  0  0  0  0
 20 25  1  0  0  0  0
 20 42  1  0  0  0  0
 21 22  1  0  0  0  0
 21 43  1  0  0  0  0
 21 44  1  0  0  0  0
 22 23  1  0  0  0  0
 22 24  1  0  0  0  0
 22 45  1  0  0  0  0
 23 46  1  0  0  0  0
 23 47  1  0  0  0  0
 24 48  1  0  0  0  0
 24 49  1  0  0  0  0
 25 50  1  0  0  0  0
 25 51  1  0  0  0  0
M  CHG  1  13  -1
M  END
> <s_m_source_file>
AV-unprocessed.smi

> <i_m_source_file_index>
1591

> <i_lp_mmshare_version>
43012

> <i_f3d_flags>
0

> <s_epik_input>
W0NIMl0xW0NASF0oW0NIMl0yKVtDSDJdW0NASF0oW0NIMl0zKVtDSDJdW0NAQEhdMVtDSDJdQzIzW0NASF0oW0NIMl1bQ0gzXSlbTkhdQyg9TylbQ0gyXW40W2NIXVtjSF1jKD1PKVtuSF1jND1P

> <s_epik_cmdline>
J2VwaWtfcHl0aG9uJywgJy1waCcsICc3LjAnLCAnLXRuJywgJzgnLCAnLW1hJywgJzIwMCcsICctbWV0YWxfYmluZGluZycsICctaW1hZScsICc8aW5maWxlLm1hZT4nLCAnLW9tYWUnLCAnPG91dGZpbGUubWFlPic=

> <r_lp_tautomer_probability>
0.999537

> <r_epik_Ionization_Penalty>
3.13902

> <r_epik_Ionization_Penalty_Charging>
2.97334e-08

> <r_epik_Ionization_Penalty_Neutral>
3.13902

> <r_epik_State_Penalty>
3.13814

> <r_epik_Charging_Adjusted_Penalty>
3.13814

> <i_epik_Tot_Q>
-1

> <i_epik_Tot_abs_Q>
1

> <r_epik_Metal_State_Penalty>
0.465244

> <b_epik_Metal_Only>
1

> <s_lp_Force_Field>
OPLS_2005

> <r_lp_Energy>
49.2124

> <b_lp_Chiralities_Consistent>
1

> <s_lp_Variant>
AV-unprocessed.smi:1591-4

> <Gold.Version>
5.8.1

> <Gold.Id.Protein>
6NUR|6NUR_protein|mol2

> <Gold.PLP.Fitness>
43.5118

> <Gold.PLP.PLP>
-36.3166

> <Gold.PLP.part.hbond>
-1.6898

> <Gold.PLP.part.metal>
0.0000

> <Gold.PLP.part.buried>
-0.2587

> <Gold.PLP.part.nonpolar>
-34.0658

> <Gold.PLP.part.repulsive>
0.2540

> <Gold.PLP.ligand.clash>
0.0000

> <Gold.PLP.ligand.torsion>
0.8803

> <Gold.PLP.Chemscore.Hbond>
1.9440

> <Gold.PLP.Chemscore.CHOScore>
1.0000

> <Gold.PLP.Chemscore.Metal>
0.0000

> <Gold.Chemscore.Hbonds>
donor molecule, donor type, donor heavy atom, donor atom, acceptor molecule, acceptor atom, score
      P1  H  6896  6907       L1    15  0.47
      P1  H 10752 10765       L1     6  0.07
      L1  C     9    35       P1  7948  0.04

> <Gold.PLP.Chemscore.Internal.Correction>
0.1236

> <Gold.Rescore>
     Score         DG    S(hbond)    S(metal)    S(lipo)     H(rot)  DE(clash)    DE(int)     intcor
     15.18     -15.86       1.99        0.00      75.44       1.99       0.26       0.42       ----

> <Gold.Chemscore.Fitness>
15.1847

> <Gold.Chemscore.DG>
-15.8575

> <Gold.Chemscore.ZeroCoef>
-5.4800

> <Gold.Chemscore.Hbond>
1.9865

> <Gold.Chemscore.Metal>
0.0000

> <Gold.Chemscore.Lipo>
75.4379

> <Gold.Chemscore.Internal_Hbond>
0.0000

> <Gold.Chemscore.DEClash>
0.2564

> <Gold.Chemscore.DEInternal>
0.4164

> <Gold.Chemscore.Rot>
1.9858

> <Gold.Chemscore.Internal.Correction>
   9.000000E+99

> <Gold.Chemscore.Hbonds>
donor molecule, donor type, donor heavy atom, donor atom, acceptor molecule, acceptor atom, score
      P1  H  6896  6907       L1    15  0.46
      P1  H 10752 10765       L1     6  0.01

> <Gold.Chemscore.Hbond.Weighted>
-6.6349

> <Gold.Chemscore.Metal.Weighted>
-0.0000

> <Gold.Chemscore.Lipo.Weighted>
-8.8262

> <Gold.Chemscore.Internal_Hbond.Weighted>
0.0000

> <Gold.Chemscore.DEClash.Weighted>
0.2564

> <Gold.Chemscore.DEInternal.Weighted>
0.4164

> <Gold.Chemscore.Rot.Weighted>
5.0836

> <Gold.Chemscore.Internal.Correction.Weighted>
   9.000000E+99

> <Gold.Protein.RotatedTorsions>
[ 6907 6896 6895 6894 ] final -159.62 input  -60.11 | X-H torsion
[ 7974 7965 7964 7962 ] final -109.31 input  175.53 | X-H torsion
[ 8008 7997 7996 7995 ] final  -10.45 input   59.86 | X-H torsion
[ 10167 10162 10161 10158 ] final  179.19 input  -65.29 | X-H torsion
[ 10718 10713 10712 10709 ] final  -10.87 input   66.30 | X-H torsion
[ 10763 10752 10751 10750 ] final -160.85 input  -60.55 | X-H torsion
[ 11005 11000 10999 10996 ] final   55.89 input  -57.11 | X-H torsion

> <Gold.Protein.ActiveResidues>
 VAL166  LYS551  ARG553  GLY616  TRP617  ASP618  TYR619  PRO620  LYS621  CYS622 
 ASP623  PHE694  ASN695  SER759  ASP760  ASP761  ALA762  ILE779  LEU786  VAL792 
 PHE793  MET794  SER795  GLU796  ALA797  LYS798  CYS799  TRP800  GLU811  SER814 

> <Gold.Protein.RotatedAtoms>
  151.3364  133.3980  159.2666 H   0  0  0  0  0  0  0  0  0  0  0  0  # atno 6907 bound_to 6896
  150.9914  134.9248  159.7912 H   0  0  0  0  0  0  0  0  0  0  0  0  # atno 6908 bound_to 6896
  152.5248  134.3328  159.9241 H   0  0  0  0  0  0  0  0  0  0  0  0  # atno 6909 bound_to 6896
  145.1820  140.8975  143.3474 H   0  0  0  0  0  0  0  0  0  0  0  0  # atno 7974 bound_to 7965
  154.5554  140.2328  155.8419 H   0  0  0  0  0  0  0  0  0  0  0  0  # atno 8008 bound_to 7997
  156.1983  140.3059  155.9434 H   0  0  0  0  0  0  0  0  0  0  0  0  # atno 8009 bound_to 7997
  155.2991  140.0430  157.3019 H   0  0  0  0  0  0  0  0  0  0  0  0  # atno 8010 bound_to 7997
  139.5325  144.2591  152.0722 H   0  0  0  0  0  0  0  0  0  0  0  0  # atno 10167 bound_to 10162
  156.6672  130.4999  149.6011 H   0  0  0  0  0  0  0  0  0  0  0  0  # atno 10718 bound_to 10713
  154.7355  135.3056  154.8819 H   0  0  0  0  0  0  0  0  0  0  0  0  # atno 10763 bound_to 10752
  153.9649  135.6748  153.4750 H   0  0  0  0  0  0  0  0  0  0  0  0  # atno 10764 bound_to 10752
  153.0958  135.4936  154.8699 H   0  0  0  0  0  0  0  0  0  0  0  0  # atno 10765 bound_to 10752
  140.0571  134.5654  155.9194 H   0  0  0  0  0  0  0  0  0  0  0  0  # atno 11005 bound_to 11000
  145.0126  139.3496  143.6112 LP  0  0  0  0  0  0  0  0  0  0  0  0  # atno 17320 bound_to 7965
  146.3451  139.9395  142.8743 LP  0  0  0  0  0  0  0  0  0  0  0  0  # atno 17321 bound_to 7965
  140.2057  144.4614  150.6410 LP  0  0  0  0  0  0  0  0  0  0  0  0  # atno 17342 bound_to 10162
  140.6513  143.2225  151.6071 LP  0  0  0  0  0  0  0  0  0  0  0  0  # atno 17343 bound_to 10162
  156.1966  130.6593  151.1121 LP  0  0  0  0  0  0  0  0  0  0  0  0  # atno 17370 bound_to 10713
  157.7089  131.0743  150.6569 LP  0  0  0  0  0  0  0  0  0  0  0  0  # atno 17371 bound_to 10713
  141.1957  133.6588  156.5655 LP  0  0  0  0  0  0  0  0  0  0  0  0  # atno 17394 bound_to 11000
  140.3826  134.7510  157.4671 LP  0  0  0  0  0  0  0  0  0  0  0  0  # atno 17395 bound_to 11000

$$$$
