AV-unprocessed.smi:283|AV-procd|sdf|2127|dock10
  -GOLD-   2262021433D 1   1.00000     0.00000
 Structure written by MMmdl.
 48 51  0  0  0  0  0  0  0  0  1 V2000
  151.6050  140.7096  156.2465 C   0  0  0  0  0  0  0  0  0  0  0  0
  151.1215  140.8029  157.7053 C   0  0  2  0  0  0  0  0  0  0  0  0
  149.6795  140.5767  157.7996 N   0  0  0  0  0  0  0  0  0  0  0  0
  148.8851  140.5801  156.7060 C   0  0  0  0  0  0  0  0  0  0  0  0
  148.6643  141.7166  155.9958 N   0  0  0  0  0  0  0  0  0  0  0  0
  147.8768  141.6874  154.9170 C   0  0  0  0  0  0  0  0  0  0  0  0
  147.2282  140.6490  154.3861 N   0  0  0  0  0  0  0  0  0  0  0  0
  147.4488  139.5022  155.0919 C   0  0  0  0  0  0  0  0  0  0  0  0
  148.2623  139.3880  156.2541 C   0  0  0  0  0  0  0  0  0  0  0  0
  148.2611  138.0742  156.7032 N   0  0  0  0  0  0  0  0  0  0  0  0
  147.4901  137.4515  155.8533 C   0  0  0  0  0  0  0  0  0  0  0  0
  146.9588  138.2324  154.8507 N   0  0  0  0  0  0  0  0  0  0  0  0
  146.0460  137.7865  153.7471 C   0  0  1  0  0  0  0  0  0  0  0  0
  145.6334  136.4720  153.9846 O   0  0  0  0  0  0  0  0  0  0  0  0
  144.2130  136.4066  154.1116 C   0  0  2  0  0  0  0  0  0  0  0  0
  143.7115  135.0502  153.5947 C   0  0  0  0  0  0  0  0  0  0  0  0
  144.2441  134.0087  154.3844 O   0  0  0  0  0  0  0  0  0  0  0  0
  143.7440  137.5968  153.2731 C   0  0  1  0  0  0  0  0  0  0  0  0
  142.4223  138.0071  153.5670 O   0  0  0  0  0  0  0  0  0  0  0  0
  144.7823  138.6573  153.6087 C   0  0  1  0  0  0  0  0  0  0  0  0
  144.4591  139.3833  154.7856 O   0  0  0  0  0  0  0  0  0  0  0  0
  151.5477  142.1402  158.3093 C   0  0  0  0  0  0  0  0  0  0  0  0
  150.9407  143.3408  157.8701 C   0  0  0  0  0  0  0  0  0  0  0  0
  151.3292  144.5816  158.4092 C   0  0  0  0  0  0  0  0  0  0  0  0
  152.3348  144.6379  159.3905 C   0  0  0  0  0  0  0  0  0  0  0  0
  152.9542  143.4525  159.8267 C   0  0  0  0  0  0  0  0  0  0  0  0
  152.5702  142.2069  159.2903 C   0  0  0  0  0  0  0  0  0  0  0  0
  153.3807  140.7865  159.8528 Cl  0  0  0  0  0  0  0  0  0  0  0  0
  146.6685  137.8010  152.8515 H   0  0  0  0  0  0  0  0  0  0  0  0
  143.9253  136.5608  155.1530 H   0  0  0  0  0  0  0  0  0  0  0  0
  143.8120  137.3470  152.2131 H   0  0  0  0  0  0  0  0  0  0  0  0
  144.9145  139.3678  152.7921 H   0  0  0  0  0  0  0  0  0  0  0  0
  152.6868  140.8321  156.1856 H   0  0  0  0  0  0  0  0  0  0  0  0
  151.1492  141.4843  155.6292 H   0  0  0  0  0  0  0  0  0  0  0  0
  151.3641  139.7462  155.7978 H   0  0  0  0  0  0  0  0  0  0  0  0
  151.6030  140.0153  158.2837 H   0  0  0  0  0  0  0  0  0  0  0  0
  149.3121  140.5044  158.7372 H   0  0  0  0  0  0  0  0  0  0  0  0
  147.7478  142.6300  154.4059 H   0  0  0  0  0  0  0  0  0  0  0  0
  147.2863  136.3938  155.9347 H   0  0  0  0  0  0  0  0  0  0  0  0
  142.6252  134.9964  153.6714 H   0  0  0  0  0  0  0  0  0  0  0  0
  143.9703  134.9034  152.5456 H   0  0  0  0  0  0  0  0  0  0  0  0
  143.5440  133.4132  154.6050 H   0  0  0  0  0  0  0  0  0  0  0  0
  142.3732  138.9448  153.4555 H   0  0  0  0  0  0  0  0  0  0  0  0
  143.9363  140.1319  154.5416 H   0  0  0  0  0  0  0  0  0  0  0  0
  150.1736  143.3217  157.1102 H   0  0  0  0  0  0  0  0  0  0  0  0
  150.8564  145.4906  158.0675 H   0  0  0  0  0  0  0  0  0  0  0  0
  152.6353  145.5891  159.8042 H   0  0  0  0  0  0  0  0  0  0  0  0
  153.7314  143.5004  160.5754 H   0  0  0  0  0  0  0  0  0  0  0  0
  1  2  1  0  0  0  0
  1 33  1  0  0  0  0
  1 34  1  0  0  0  0
  1 35  1  0  0  0  0
  2  3  1  0  0  0  0
  2 22  1  0  0  0  0
  2 36  1  0  0  0  0
  3  4  1  0  0  0  0
  3 37  1  0  0  0  0
  4  9  1  0  0  0  0
  4  5  2  0  0  0  0
  5  6  1  0  0  0  0
  6  7  2  0  0  0  0
  6 38  1  0  0  0  0
  7  8  1  0  0  0  0
  8 12  1  0  0  0  0
  8  9  2  0  0  0  0
  9 10  1  0  0  0  0
 10 11  2  0  0  0  0
 11 12  1  0  0  0  0
 11 39  1  0  0  0  0
 12 13  1  0  0  0  0
 13 29  1  0  0  0  0
 13 20  1  0  0  0  0
 13 14  1  0  0  0  0
 14 15  1  0  0  0  0
 15 30  1  0  0  0  0
 15 16  1  0  0  0  0
 15 18  1  0  0  0  0
 16 17  1  0  0  0  0
 16 40  1  0  0  0  0
 16 41  1  0  0  0  0
 17 42  1  0  0  0  0
 18 31  1  0  0  0  0
 18 19  1  0  0  0  0
 18 20  1  0  0  0  0
 19 43  1  0  0  0  0
 20 32  1  0  0  0  0
 20 21  1  0  0  0  0
 21 44  1  0  0  0  0
 22 27  1  0  0  0  0
 22 23  2  0  0  0  0
 23 24  1  0  0  0  0
 23 45  1  0  0  0  0
 24 25  2  0  0  0  0
 24 46  1  0  0  0  0
 25 26  1  0  0  0  0
 25 47  1  0  0  0  0
 26 27  2  0  0  0  0
 26 48  1  0  0  0  0
 27 28  1  0  0  0  0
M  END
> <s_m_source_file>
AV-unprocessed.smi

> <i_m_source_file_index>
283

> <i_lp_mmshare_version>
43012

> <i_f3d_flags>
0

> <s_epik_input>
Q2xjMVtjSF1bY0hdW2NIXVtjSF1jMVtDQEhdKFtDSDNdKVtOSF1jKG5bY0hdbjIpYyhjMjMpbltjSF1uM1tDQEBIXTRPW0NASF0oW0NIMl1bT0hdKVtDQEBIXShbT0hdKVtDQEhdNFtPSF0=

> <s_epik_cmdline>
J2VwaWtfcHl0aG9uJywgJy1waCcsICc3LjAnLCAnLXRuJywgJzgnLCAnLW1hJywgJzIwMCcsICctbWV0YWxfYmluZGluZycsICctaW1hZScsICc8aW5maWxlLm1hZT4nLCAnLW9tYWUnLCAnPG91dGZpbGUubWFlPic=

> <r_lp_tautomer_probability>
1

> <r_epik_Ionization_Penalty>
0.000266407

> <r_epik_Ionization_Penalty_Charging>
0

> <r_epik_Ionization_Penalty_Neutral>
0.000266407

> <r_epik_State_Penalty>
-0

> <r_epik_Charging_Adjusted_Penalty>
0

> <i_epik_Tot_Q>
0

> <i_epik_Tot_abs_Q>
0

> <r_epik_Metal_State_Penalty>
-0

> <b_epik_Metal_Only>
0

> <s_epik_Chemistry_Notes>
This compound contains an acetal/aminal-like group ( X-CH(R)-Y where X, Y are N, S, or O) that may be acid/base labile, releasing an aldehyde.

> <s_lp_Force_Field>
OPLS_2005

> <r_lp_Energy>
51.5446

> <b_lp_Chiralities_Consistent>
1

> <s_lp_Variant>
AV-unprocessed.smi:283-3

> <Gold.Version>
5.8.1

> <Gold.Id.Protein>
6NUR|6NUR_protein|mol2

> <Gold.PLP.Fitness>
45.8455

> <Gold.PLP.PLP>
-38.9185

> <Gold.PLP.part.hbond>
-3.5927

> <Gold.PLP.part.metal>
0.0000

> <Gold.PLP.part.buried>
-2.6777

> <Gold.PLP.part.nonpolar>
-33.3757

> <Gold.PLP.part.repulsive>
0.6893

> <Gold.PLP.ligand.clash>
0.0000

> <Gold.PLP.ligand.torsion>
1.0585

> <Gold.PLP.Chemscore.Hbond>
2.9913

> <Gold.PLP.Chemscore.CHOScore>
0.0000

> <Gold.PLP.Chemscore.Metal>
0.0000

> <Gold.Chemscore.Hbonds>
donor molecule, donor type, donor heavy atom, donor atom, acceptor molecule, acceptor atom, score
      L1  H    17    42       P1 10957  1.00
      L1  H    19    43       P1 10175  0.46
      L1  H    21    44       P1 10175  0.30
      L1  C     6    38       P1  8028  0.49

> <Gold.PLP.Chemscore.Internal.Correction>
0.0703

> <Gold.Rescore>
     Score         DG    S(hbond)    S(metal)    S(lipo)     H(rot)  DE(clash)    DE(int)     intcor
     14.58     -17.17       2.93        0.00     105.84       4.10       0.55       2.04       ----

> <Gold.Chemscore.Fitness>
14.5825

> <Gold.Chemscore.DG>
-17.1685

> <Gold.Chemscore.ZeroCoef>
-5.4800

> <Gold.Chemscore.Hbond>
2.9322

> <Gold.Chemscore.Metal>
0.0000

> <Gold.Chemscore.Lipo>
105.8361

> <Gold.Chemscore.Internal_Hbond>
0.0000

> <Gold.Chemscore.DEClash>
0.5450

> <Gold.Chemscore.DEInternal>
2.0411

> <Gold.Chemscore.Rot>
4.0968

> <Gold.Chemscore.Internal.Correction>
   9.000000E+99

> <Gold.Chemscore.Hbonds>
donor molecule, donor type, donor heavy atom, donor atom, acceptor molecule, acceptor atom, score
      L1  H    17    42       P1 10957  0.99
      L1  H    19    43       P1 10175  0.46
      L1  H    21    44       P1 10175  0.30

> <Gold.Chemscore.Hbond.Weighted>
-9.7937

> <Gold.Chemscore.Metal.Weighted>
-0.0000

> <Gold.Chemscore.Lipo.Weighted>
-12.3828

> <Gold.Chemscore.Internal_Hbond.Weighted>
0.0000

> <Gold.Chemscore.DEClash.Weighted>
0.5450

> <Gold.Chemscore.DEInternal.Weighted>
2.0411

> <Gold.Chemscore.Rot.Weighted>
10.4879

> <Gold.Chemscore.Internal.Correction.Weighted>
   9.000000E+99

> <Gold.Protein.RotatedTorsions>
[ 6907 6896 6895 6894 ] final  -95.73 input  -60.11 | X-H torsion
[ 7974 7965 7964 7962 ] final  -65.74 input  175.53 | X-H torsion
[ 8008 7997 7996 7995 ] final  168.30 input   59.86 | X-H torsion
[ 10167 10162 10161 10158 ] final -124.54 input  -65.29 | X-H torsion
[ 10718 10713 10712 10709 ] final  124.64 input   66.30 | X-H torsion
[ 10763 10752 10751 10750 ] final   50.88 input  -60.55 | X-H torsion
[ 11005 11000 10999 10996 ] final  -88.43 input  -57.11 | X-H torsion

> <Gold.Protein.ActiveResidues>
 VAL166  LYS551  ARG553  GLY616  TRP617  ASP618  TYR619  PRO620  LYS621  CYS622 
 ASP623  PHE694  ASN695  SER759  ASP760  ASP761  ALA762  ILE779  LEU786  VAL792 
 PHE793  MET794  SER795  GLU796  ALA797  LYS798  CYS799  TRP800  GLU811  SER814 

> <Gold.Protein.RotatedAtoms>
  150.6971  134.1612  159.4176 H   0  0  0  0  0  0  0  0  0  0  0  0  # atno 6907 bound_to 6896
  151.9592  135.0129  160.0556 H   0  0  0  0  0  0  0  0  0  0  0  0  # atno 6908 bound_to 6896
  152.1942  133.4759  159.5061 H   0  0  0  0  0  0  0  0  0  0  0  0  # atno 6909 bound_to 6896
  145.7506  140.8910  143.0482 H   0  0  0  0  0  0  0  0  0  0  0  0  # atno 7974 bound_to 7965
  156.1559  140.1594  156.8694 H   0  0  0  0  0  0  0  0  0  0  0  0  # atno 8008 bound_to 7997
  154.5114  140.0800  156.8033 H   0  0  0  0  0  0  0  0  0  0  0  0  # atno 8009 bound_to 7997
  155.3805  140.3405  155.4249 H   0  0  0  0  0  0  0  0  0  0  0  0  # atno 8010 bound_to 7997
  139.9917  143.5633  152.2339 H   0  0  0  0  0  0  0  0  0  0  0  0  # atno 10167 bound_to 10162
  157.5568  131.1091  150.8607 H   0  0  0  0  0  0  0  0  0  0  0  0  # atno 10718 bound_to 10713
  152.9784  135.5864  154.4324 H   0  0  0  0  0  0  0  0  0  0  0  0  # atno 10763 bound_to 10752
  154.3935  135.2768  155.2142 H   0  0  0  0  0  0  0  0  0  0  0  0  # atno 10764 bound_to 10752
  154.4004  135.6105  153.5948 H   0  0  0  0  0  0  0  0  0  0  0  0  # atno 10765 bound_to 10752
  141.1602  133.7569  156.9449 H   0  0  0  0  0  0  0  0  0  0  0  0  # atno 11005 bound_to 11000
  144.6851  139.9585  143.7480 LP  0  0  0  0  0  0  0  0  0  0  0  0  # atno 17320 bound_to 7965
  146.0361  139.3378  143.0726 LP  0  0  0  0  0  0  0  0  0  0  0  0  # atno 17321 bound_to 7965
  139.6335  144.7647  151.2487 LP  0  0  0  0  0  0  0  0  0  0  0  0  # atno 17342 bound_to 10162
  140.7452  143.6439  150.8310 LP  0  0  0  0  0  0  0  0  0  0  0  0  # atno 17343 bound_to 10162
  156.9116  130.5283  149.5280 LP  0  0  0  0  0  0  0  0  0  0  0  0  # atno 17370 bound_to 10713
  156.0626  130.5676  150.9224 LP  0  0  0  0  0  0  0  0  0  0  0  0  # atno 17371 bound_to 10713
  140.1296  134.9364  157.2318 LP  0  0  0  0  0  0  0  0  0  0  0  0  # atno 17394 bound_to 11000
  140.2969  134.3176  155.7300 LP  0  0  0  0  0  0  0  0  0  0  0  0  # atno 17395 bound_to 11000

$$$$
