AV-unprocessed.smi:2335|AV-procd|sdf|9326|dock3
  -GOLD-   2272012543D 1   1.00000     0.00000
 Structure written by MMmdl.
 41 42  0  0  0  0  0  0  0  0  2 V2000
  143.8319  135.2959  162.4292 C   0  0  0  0  0  0  0  0  0  0  0  0
  145.1951  134.6264  162.6337 C   0  0  0  0  0  0  0  0  0  0  0  0
  146.2719  135.2583  161.8165 C   0  0  0  0  0  0  0  0  0  0  0  0
  146.5644  136.5598  161.8844 N   0  0  0  0  0  0  0  0  0  0  0  0
  147.6239  136.9014  161.0566 N   0  0  0  0  0  0  0  0  0  0  0  0
  148.1197  135.8563  160.3791 C   0  0  0  0  0  0  0  0  0  0  0  0
  149.1532  135.9711  159.5292 N   0  5  0  0  0  0  0  0  0  0  0  0
  149.4422  137.1699  158.9746 C   0  0  0  0  0  0  0  0  0  0  0  0
  148.6370  138.0649  158.7084 O   0  0  0  0  0  0  0  0  0  0  0  0
  150.7447  137.3375  158.7070 N   0  0  0  0  0  0  0  0  0  0  0  0
  151.3531  138.5124  158.0853 C   0  0  1  0  0  0  0  0  0  0  0  0
  151.1709  139.7481  158.9440 C   0  0  0  0  0  0  0  0  0  0  0  0
  152.3145  140.6612  158.4879 C   0  0  0  0  0  0  0  0  0  0  0  0
  151.9005  141.5571  157.3078 C   0  0  0  0  0  0  0  0  0  0  0  0
  152.8853  141.5000  159.6416 C   0  0  0  0  0  0  0  0  0  0  0  0
  153.3357  139.7830  158.0177 O   0  0  0  0  0  0  0  0  0  0  0  0
  152.8899  138.4282  157.9475 C   0  0  0  0  0  0  0  0  0  0  0  0
  153.5915  137.6778  159.0987 C   0  0  0  0  0  0  0  0  0  0  0  0
  153.3268  137.8634  156.5864 C   0  0  0  0  0  0  0  0  0  0  0  0
  147.3063  134.3342  160.7403 S   0  0  0  0  0  0  0  0  0  0  0  0
  143.0675  134.8160  163.0404 H   0  0  0  0  0  0  0  0  0  0  0  0
  143.5152  135.2335  161.3876 H   0  0  0  0  0  0  0  0  0  0  0  0
  143.8672  136.3502  162.7056 H   0  0  0  0  0  0  0  0  0  0  0  0
  145.4798  134.6778  163.6849 H   0  0  0  0  0  0  0  0  0  0  0  0
  145.1333  133.5677  162.3785 H   0  0  0  0  0  0  0  0  0  0  0  0
  151.3644  136.5768  158.9436 H   0  0  0  0  0  0  0  0  0  0  0  0
  150.8960  138.7065  157.1130 H   0  0  0  0  0  0  0  0  0  0  0  0
  150.1862  140.2022  158.8299 H   0  0  0  0  0  0  0  0  0  0  0  0
  151.2906  139.4894  159.9976 H   0  0  0  0  0  0  0  0  0  0  0  0
  151.1004  142.2407  157.5932 H   0  0  0  0  0  0  0  0  0  0  0  0
  151.5463  140.9671  156.4622 H   0  0  0  0  0  0  0  0  0  0  0  0
  152.7402  142.1580  156.9574 H   0  0  0  0  0  0  0  0  0  0  0  0
  152.1311  142.1734  160.0494 H   0  0  0  0  0  0  0  0  0  0  0  0
  153.7282  142.1062  159.3081 H   0  0  0  0  0  0  0  0  0  0  0  0
  153.2403  140.8651  160.4541 H   0  0  0  0  0  0  0  0  0  0  0  0
  153.3459  136.6152  159.0934 H   0  0  0  0  0  0  0  0  0  0  0  0
  153.3096  138.0801  160.0719 H   0  0  0  0  0  0  0  0  0  0  0  0
  154.6753  137.7602  159.0139 H   0  0  0  0  0  0  0  0  0  0  0  0
  153.0325  136.8195  156.4773 H   0  0  0  0  0  0  0  0  0  0  0  0
  154.4095  137.9139  156.4688 H   0  0  0  0  0  0  0  0  0  0  0  0
  152.8811  138.4233  155.7640 H   0  0  0  0  0  0  0  0  0  0  0  0
  1  2  1  0  0  0  0
  1 21  1  0  0  0  0
  1 22  1  0  0  0  0
  1 23  1  0  0  0  0
  2  3  1  0  0  0  0
  2 24  1  0  0  0  0
  2 25  1  0  0  0  0
  3 20  1  0  0  0  0
  3  4  2  0  0  0  0
  4  5  1  0  0  0  0
  5  6  2  0  0  0  0
  6  7  1  0  0  0  0
  6 20  1  0  0  0  0
  7  8  1  0  0  0  0
  8  9  2  0  0  0  0
  8 10  1  0  0  0  0
 10 11  1  0  0  0  0
 10 26  1  0  0  0  0
 11 17  1  0  0  0  0
 11 12  1  0  0  0  0
 11 27  1  0  0  0  0
 12 13  1  0  0  0  0
 12 28  1  0  0  0  0
 12 29  1  0  0  0  0
 13 14  1  0  0  0  0
 13 15  1  0  0  0  0
 13 16  1  0  0  0  0
 14 30  1  0  0  0  0
 14 31  1  0  0  0  0
 14 32  1  0  0  0  0
 15 33  1  0  0  0  0
 15 34  1  0  0  0  0
 15 35  1  0  0  0  0
 16 17  1  0  0  0  0
 17 18  1  0  0  0  0
 17 19  1  0  0  0  0
 18 36  1  0  0  0  0
 18 37  1  0  0  0  0
 18 38  1  0  0  0  0
 19 39  1  0  0  0  0
 19 40  1  0  0  0  0
 19 41  1  0  0  0  0
M  CHG  1   7  -1
M  END
> <s_m_source_file>
AV-unprocessed.smi

> <i_m_source_file_index>
2335

> <i_lp_mmshare_version>
43012

> <i_f3d_flags>
0

> <s_epik_input>
W0NIM11bQ0gyXWMxbm5jKHMxKVtOSF1DKD1PKVtOSF1bQ0BASF0oQyhPMikoW0NIM10pW0NIM10pW0NIMl1DMihbQ0gzXSlbQ0gzXQ==

> <s_epik_cmdline>
J2VwaWtfcHl0aG9uJywgJy1waCcsICc3LjAnLCAnLXRuJywgJzgnLCAnLW1hJywgJzIwMCcsICctbWV0YWxfYmluZGluZycsICctaW1hZScsICc8aW5maWxlLm1hZT4nLCAnLW9tYWUnLCAnPG91dGZpbGUubWFlPic=

> <r_lp_tautomer_probability>
1

> <r_epik_Ionization_Penalty>
4.33319

> <r_epik_Ionization_Penalty_Charging>
4.17028

> <r_epik_Ionization_Penalty_Neutral>
0.162913

> <r_epik_State_Penalty>
4.16976

> <r_epik_Charging_Adjusted_Penalty>
8.34004

> <i_epik_Tot_Q>
-1

> <i_epik_Tot_abs_Q>
1

> <r_epik_Metal_State_Penalty>
0.677358

> <b_epik_Metal_Only>
1

> <s_lp_Force_Field>
OPLS_2005

> <r_lp_Energy>
10.6877

> <b_lp_Chiralities_Consistent>
1

> <s_lp_Variant>
AV-unprocessed.smi:2335-4

> <Gold.Version>
5.8.1

> <Gold.Id.Protein>
6NUR|6NUR_protein|mol2

> <Gold.PLP.Fitness>
41.6114

> <Gold.PLP.PLP>
-28.3263

> <Gold.PLP.part.hbond>
-4.6759

> <Gold.PLP.part.metal>
0.0000

> <Gold.PLP.part.buried>
-4.9328

> <Gold.PLP.part.nonpolar>
-18.4598

> <Gold.PLP.part.repulsive>
0.1490

> <Gold.PLP.ligand.clash>
0.0000

> <Gold.PLP.ligand.torsion>
0.3338

> <Gold.PLP.Chemscore.Hbond>
4.6402

> <Gold.PLP.Chemscore.CHOScore>
0.0000

> <Gold.PLP.Chemscore.Metal>
0.0000

> <Gold.Chemscore.Hbonds>
donor molecule, donor type, donor heavy atom, donor atom, acceptor molecule, acceptor atom, score
      P1  H  6896  6908       L1     7  2.00
      P1  H  6931  6943       L1     5  0.76
      P1  H  6934  6947       L1     5  0.53
      P1  H  7997  8008       L1    16  1.00

> <Gold.PLP.Chemscore.Internal.Correction>
0.0321

> <Gold.Rescore>
     Score         DG    S(hbond)    S(metal)    S(lipo)     H(rot)  DE(clash)    DE(int)     intcor
     18.00     -19.91       2.63        0.00      74.46       1.19       0.19       1.71       ----

> <Gold.Chemscore.Fitness>
18.0009

> <Gold.Chemscore.DG>
-19.9055

> <Gold.Chemscore.ZeroCoef>
-5.4800

> <Gold.Chemscore.Hbond>
2.6262

> <Gold.Chemscore.Metal>
0.0000

> <Gold.Chemscore.Lipo>
74.4560

> <Gold.Chemscore.Internal_Hbond>
0.0000

> <Gold.Chemscore.DEClash>
0.1904

> <Gold.Chemscore.DEInternal>
1.7143

> <Gold.Chemscore.Rot>
1.1942

> <Gold.Chemscore.Internal.Correction>
   9.000000E+99

> <Gold.Chemscore.Hbonds>
donor molecule, donor type, donor heavy atom, donor atom, acceptor molecule, acceptor atom, score
      P1  H  6896  6908       L1     7  0.83
      P1  H  6931  6943       L1     5  0.61
      P1  H  6934  6947       L1     5  0.09
      P1  H  7997  8008       L1    16  0.78

> <Gold.Chemscore.Hbond.Weighted>
-8.7714

> <Gold.Chemscore.Metal.Weighted>
-0.0000

> <Gold.Chemscore.Lipo.Weighted>
-8.7113

> <Gold.Chemscore.Internal_Hbond.Weighted>
0.0000

> <Gold.Chemscore.DEClash.Weighted>
0.1904

> <Gold.Chemscore.DEInternal.Weighted>
1.7143

> <Gold.Chemscore.Rot.Weighted>
3.0573

> <Gold.Chemscore.Internal.Correction.Weighted>
   9.000000E+99

> <Gold.Protein.RotatedTorsions>
[ 6907 6896 6895 6894 ] final -179.69 input  -60.11 | X-H torsion
[ 7974 7965 7964 7962 ] final   22.28 input  175.53 | X-H torsion
[ 8008 7997 7996 7995 ] final  -82.08 input   59.86 | X-H torsion
[ 10167 10162 10161 10158 ] final  130.82 input  -65.29 | X-H torsion
[ 10718 10713 10712 10709 ] final   14.30 input   66.30 | X-H torsion
[ 10763 10752 10751 10750 ] final  -90.39 input  -60.55 | X-H torsion
[ 11005 11000 10999 10996 ] final  156.54 input  -57.11 | X-H torsion

> <Gold.Protein.ActiveResidues>
 VAL166  LYS551  ARG553  GLY616  TRP617  ASP618  TYR619  PRO620  LYS621  CYS622 
 ASP623  PHE694  ASN695  SER759  ASP760  ASP761  ALA762  ILE779  LEU786  VAL792 
 PHE793  MET794  SER795  GLU796  ALA797  LYS798  CYS799  TRP800  GLU811  SER814 

> <Gold.Protein.RotatedAtoms>
  151.6575  133.3318  159.3165 H   0  0  0  0  0  0  0  0  0  0  0  0  # atno 6907 bound_to 6896
  150.7930  134.6972  159.6539 H   0  0  0  0  0  0  0  0  0  0  0  0  # atno 6908 bound_to 6896
  152.4012  134.6286  160.0121 H   0  0  0  0  0  0  0  0  0  0  0  0  # atno 6909 bound_to 6896
  146.2036  139.7908  142.8743 H   0  0  0  0  0  0  0  0  0  0  0  0  # atno 7974 bound_to 7965
  154.6050  140.0638  156.9418 H   0  0  0  0  0  0  0  0  0  0  0  0  # atno 8008 bound_to 7997
  155.2069  140.3319  155.4316 H   0  0  0  0  0  0  0  0  0  0  0  0  # atno 8009 bound_to 7997
  156.2342  140.1855  156.7148 H   0  0  0  0  0  0  0  0  0  0  0  0  # atno 8010 bound_to 7997
  139.5412  144.6732  151.4619 H   0  0  0  0  0  0  0  0  0  0  0  0  # atno 10167 bound_to 10162
  157.0372  130.6216  149.5745 H   0  0  0  0  0  0  0  0  0  0  0  0  # atno 10718 bound_to 10713
  154.6652  135.5306  153.8068 H   0  0  0  0  0  0  0  0  0  0  0  0  # atno 10763 bound_to 10752
  153.0467  135.6515  154.0810 H   0  0  0  0  0  0  0  0  0  0  0  0  # atno 10764 bound_to 10752
  154.0714  135.2954  155.3287 H   0  0  0  0  0  0  0  0  0  0  0  0  # atno 10765 bound_to 10752
  140.1685  134.8560  157.2661 H   0  0  0  0  0  0  0  0  0  0  0  0  # atno 11005 bound_to 11000
  145.3400  141.0285  143.3398 LP  0  0  0  0  0  0  0  0  0  0  0  0  # atno 17320 bound_to 7965
  144.8739  139.4999  143.6755 LP  0  0  0  0  0  0  0  0  0  0  0  0  # atno 17321 bound_to 7965
  140.6642  143.8433  150.6923 LP  0  0  0  0  0  0  0  0  0  0  0  0  # atno 17342 bound_to 10162
  140.1837  143.4093  152.1914 LP  0  0  0  0  0  0  0  0  0  0  0  0  # atno 17343 bound_to 10162
  156.0050  130.5135  150.7798 LP  0  0  0  0  0  0  0  0  0  0  0  0  # atno 17370 bound_to 10713
  157.5132  131.0927  151.0171 LP  0  0  0  0  0  0  0  0  0  0  0  0  # atno 17371 bound_to 10713
  140.2406  134.3801  155.7482 LP  0  0  0  0  0  0  0  0  0  0  0  0  # atno 17394 bound_to 11000
  141.2215  133.7263  156.8782 LP  0  0  0  0  0  0  0  0  0  0  0  0  # atno 17395 bound_to 11000

$$$$
