AV-unprocessed.smi:1428|AV-procd|sdf|5814|dock3
  -GOLD-   22720 5463D 1   1.00000     0.00000
 Structure written by MMmdl.
 44 45  0  0  0  0  0  0  0  0  2 V2000
  154.0652  139.1355  158.9292 C   0  0  0  0  0  0  0  0  0  0  0  0
  153.2228  139.7660  157.9704 O   0  0  0  0  0  0  0  0  0  0  0  0
  152.6992  141.0100  158.2679 C   0  0  0  0  0  0  0  0  0  0  0  0
  153.4164  141.8339  159.0727 N   0  0  0  0  0  0  0  0  0  0  0  0
  152.9109  143.0500  159.3618 C   0  0  0  0  0  0  0  0  0  0  0  0
  151.6770  143.5076  158.8661 C   0  0  0  0  0  0  0  0  0  0  0  0
  150.9312  142.6554  158.0308 C   0  0  0  0  0  0  0  0  0  0  0  0
  151.4439  141.3705  157.7228 C   0  0  0  0  0  0  0  0  0  0  0  0
  150.7906  140.4206  156.8859 N   0  0  0  0  0  0  0  0  0  0  0  0
  149.5118  140.3726  156.4742 C   0  0  0  0  0  0  0  0  0  0  0  0
  148.6307  141.1797  156.7665 O   0  0  0  0  0  0  0  0  0  0  0  0
  149.3004  139.3077  155.6874 N   0  0  0  0  0  0  0  0  0  0  0  0
  148.0244  138.9603  155.0685 C   0  0  2  0  0  0  0  0  0  0  0  0
  147.7960  137.4427  155.1553 C   0  0  0  0  0  0  0  0  0  0  0  0
  146.5012  137.0330  154.4336 C   0  0  0  0  0  0  0  0  0  0  0  0
  146.5142  137.4772  153.0163 N   0  3  1  0  0  0  0  0  0  0  0  0
  145.3424  136.9743  152.2537 C   0  0  0  0  0  0  0  0  0  0  0  0
  145.7152  135.9164  151.2097 C   0  0  0  0  0  0  0  0  0  0  0  0
  145.5071  136.2344  149.9302 N   0  0  0  0  0  0  0  0  0  0  0  0
  146.1691  134.8246  151.5483 O   0  0  0  0  0  0  0  0  0  0  0  0
  146.6936  138.9501  152.9075 C   0  0  0  0  0  0  0  0  0  0  0  0
  147.9926  139.4028  153.5943 C   0  0  0  0  0  0  0  0  0  0  0  0
  154.3934  138.1711  158.5418 H   0  0  0  0  0  0  0  0  0  0  0  0
  153.5377  138.9529  159.8664 H   0  0  0  0  0  0  0  0  0  0  0  0
  154.9568  139.7315  159.1294 H   0  0  0  0  0  0  0  0  0  0  0  0
  153.5096  143.6784  160.0044 H   0  0  0  0  0  0  0  0  0  0  0  0
  151.3112  144.4919  159.1186 H   0  0  0  0  0  0  0  0  0  0  0  0
  149.9915  143.0159  157.6454 H   0  0  0  0  0  0  0  0  0  0  0  0
  151.3776  139.6591  156.5782 H   0  0  0  0  0  0  0  0  0  0  0  0
  150.0804  138.6938  155.5019 H   0  0  0  0  0  0  0  0  0  0  0  0
  147.2162  139.4583  155.6083 H   0  0  0  0  0  0  0  0  0  0  0  0
  148.6400  136.9126  154.7109 H   0  0  0  0  0  0  0  0  0  0  0  0
  147.7493  137.1303  156.1993 H   0  0  0  0  0  0  0  0  0  0  0  0
  146.3963  135.9484  154.4797 H   0  0  0  0  0  0  0  0  0  0  0  0
  145.6340  137.4579  154.9419 H   0  0  0  0  0  0  0  0  0  0  0  0
  144.6358  136.5012  152.9367 H   0  0  0  0  0  0  0  0  0  0  0  0
  144.8153  137.8068  151.7845 H   0  0  0  0  0  0  0  0  0  0  0  0
  145.7380  135.5781  149.1982 H   0  0  0  0  0  0  0  0  0  0  0  0
  145.1208  137.1379  149.6963 H   0  0  0  0  0  0  0  0  0  0  0  0
  146.7214  139.2498  151.8594 H   0  0  0  0  0  0  0  0  0  0  0  0
  145.8381  139.4570  153.3566 H   0  0  0  0  0  0  0  0  0  0  0  0
  148.0838  140.4874  153.5237 H   0  0  0  0  0  0  0  0  0  0  0  0
  148.8486  138.9854  153.0616 H   0  0  0  0  0  0  0  0  0  0  0  0
  147.3253  137.0495  152.5919 H   0  0  0  0  0  0  0  0  0  0  0  0
  1  2  1  0  0  0  0
  1 23  1  0  0  0  0
  1 24  1  0  0  0  0
  1 25  1  0  0  0  0
  2  3  1  0  0  0  0
  3  8  1  0  0  0  0
  3  4  2  0  0  0  0
  4  5  1  0  0  0  0
  5  6  2  0  0  0  0
  5 26  1  0  0  0  0
  6  7  1  0  0  0  0
  6 27  1  0  0  0  0
  7  8  2  0  0  0  0
  7 28  1  0  0  0  0
  8  9  1  0  0  0  0
  9 10  1  0  0  0  0
  9 29  1  0  0  0  0
 10 11  2  0  0  0  0
 10 12  1  0  0  0  0
 12 13  1  0  0  0  0
 12 30  1  0  0  0  0
 13 22  1  0  0  0  0
 13 14  1  0  0  0  0
 13 31  1  0  0  0  0
 14 15  1  0  0  0  0
 14 32  1  0  0  0  0
 14 33  1  0  0  0  0
 15 16  1  0  0  0  0
 15 34  1  0  0  0  0
 15 35  1  0  0  0  0
 16 17  1  0  0  0  0
 16 21  1  0  0  0  0
 16 44  1  0  0  0  0
 17 18  1  0  0  0  0
 17 36  1  0  0  0  0
 17 37  1  0  0  0  0
 18 19  1  0  0  0  0
 18 20  2  0  0  0  0
 19 38  1  0  0  0  0
 19 39  1  0  0  0  0
 21 22  1  0  0  0  0
 21 40  1  0  0  0  0
 21 41  1  0  0  0  0
 22 42  1  0  0  0  0
 22 43  1  0  0  0  0
M  CHG  1  16   1
M  END
> <s_m_source_file>
AV-unprocessed.smi

> <i_m_source_file_index>
1428

> <i_lp_mmshare_version>
43012

> <i_f3d_flags>
0

> <s_epik_input>
W0NIM11PYzFuW2NIXVtjSF1bY0hdYzFbTkhdQyg9TylbTkhdW0NIXTJbQ0gyXVtDSDJdTihbQ0gyXVtDSDJdMilbQ0gyXUMoPU8pW05IMl0=

> <s_epik_cmdline>
J2VwaWtfcHl0aG9uJywgJy1waCcsICc3LjAnLCAnLXRuJywgJzgnLCAnLW1hJywgJzIwMCcsICctbWV0YWxfYmluZGluZycsICctaW1hZScsICc8aW5maWxlLm1hZT4nLCAnLW9tYWUnLCAnPG91dGZpbGUubWFlPic=

> <r_lp_tautomer_probability>
1

> <r_epik_Ionization_Penalty>
0.838963

> <r_epik_Ionization_Penalty_Charging>
0.838844

> <r_epik_Ionization_Penalty_Neutral>
0.000119189

> <r_epik_State_Penalty>
0.8734

> <r_epik_Charging_Adjusted_Penalty>
1.71224

> <i_epik_Tot_Q>
1

> <i_epik_Tot_abs_Q>
1

> <r_epik_Metal_State_Penalty>
0.890706

> <b_epik_Metal_Only>
0

> <s_lp_Force_Field>
OPLS_2005

> <r_lp_Energy>
15.1646

> <b_lp_Chiralities_Consistent>
1

> <s_lp_Variant>
AV-unprocessed.smi:1428-2

> <Gold.Version>
5.8.1

> <Gold.Id.Protein>
6NUR|6NUR_protein|mol2

> <Gold.PLP.Fitness>
39.7608

> <Gold.PLP.PLP>
-27.6269

> <Gold.PLP.part.hbond>
-4.0000

> <Gold.PLP.part.metal>
0.0000

> <Gold.PLP.part.buried>
-3.4802

> <Gold.PLP.part.nonpolar>
-20.9073

> <Gold.PLP.part.repulsive>
0.9281

> <Gold.PLP.ligand.clash>
0.0000

> <Gold.PLP.ligand.torsion>
1.4483

> <Gold.PLP.Chemscore.Hbond>
5.0000

> <Gold.PLP.Chemscore.CHOScore>
0.0000

> <Gold.PLP.Chemscore.Metal>
0.0000

> <Gold.Chemscore.Hbonds>
donor molecule, donor type, donor heavy atom, donor atom, acceptor molecule, acceptor atom, score
      L1  H    16    44       P1  7948  2.00
      L1  H    19    38       P1  7921  1.00
      L1  H    19    39       P1 10171  1.00
      P1  H  7997  8010       L1     2  0.85

> <Gold.PLP.Chemscore.Internal.Correction>
0.0304

> <Gold.Rescore>
     Score         DG    S(hbond)    S(metal)    S(lipo)     H(rot)  DE(clash)    DE(int)     intcor
     14.75     -17.54       3.08        0.00      66.11       2.33       0.25       2.54       ----

> <Gold.Chemscore.Fitness>
14.7524

> <Gold.Chemscore.DG>
-17.5392

> <Gold.Chemscore.ZeroCoef>
-5.4800

> <Gold.Chemscore.Hbond>
3.0785

> <Gold.Chemscore.Metal>
0.0000

> <Gold.Chemscore.Lipo>
66.1056

> <Gold.Chemscore.Internal_Hbond>
0.0000

> <Gold.Chemscore.DEClash>
0.2452

> <Gold.Chemscore.DEInternal>
2.5417

> <Gold.Chemscore.Rot>
2.3271

> <Gold.Chemscore.Internal.Correction>
   9.000000E+99

> <Gold.Chemscore.Hbonds>
donor molecule, donor type, donor heavy atom, donor atom, acceptor molecule, acceptor atom, score
      L1  H    16    44       P1  7948  0.99
      L1  H    19    38       P1  7921  1.00
      L1  H    19    39       P1 10171  0.99
      P1  H  7997  8010       L1     2  0.07

> <Gold.Chemscore.Hbond.Weighted>
-10.2822

> <Gold.Chemscore.Metal.Weighted>
-0.0000

> <Gold.Chemscore.Lipo.Weighted>
-7.7344

> <Gold.Chemscore.Internal_Hbond.Weighted>
0.0000

> <Gold.Chemscore.DEClash.Weighted>
0.2452

> <Gold.Chemscore.DEInternal.Weighted>
2.5417

> <Gold.Chemscore.Rot.Weighted>
5.9573

> <Gold.Chemscore.Internal.Correction.Weighted>
   9.000000E+99

> <Gold.Protein.RotatedTorsions>
[ 6907 6896 6895 6894 ] final   21.38 input  -60.11 | X-H torsion
[ 7974 7965 7964 7962 ] final  -35.17 input  175.53 | X-H torsion
[ 8008 7997 7996 7995 ] final   52.89 input   59.86 | X-H torsion
[ 10167 10162 10161 10158 ] final  -96.84 input  -65.29 | X-H torsion
[ 10718 10713 10712 10709 ] final  -61.02 input   66.30 | X-H torsion
[ 10763 10752 10751 10750 ] final -104.04 input  -60.55 | X-H torsion
[ 11005 11000 10999 10996 ] final  157.00 input  -57.11 | X-H torsion

> <Gold.Protein.ActiveResidues>
 VAL166  LYS551  ARG553  GLY616  TRP617  ASP618  TYR619  PRO620  LYS621  CYS622 
 ASP623  PHE694  ASN695  SER759  ASP760  ASP761  ALA762  ILE779  LEU786  VAL792 
 PHE793  MET794  SER795  GLU796  ALA797  LYS798  CYS799  TRP800  GLU811  SER814 

> <Gold.Protein.RotatedAtoms>
  151.9110  135.0339  160.0514 H   0  0  0  0  0  0  0  0  0  0  0  0  # atno 6907 bound_to 6896
  152.2280  133.5031  159.5208 H   0  0  0  0  0  0  0  0  0  0  0  0  # atno 6908 bound_to 6896
  150.7017  134.1171  159.4064 H   0  0  0  0  0  0  0  0  0  0  0  0  # atno 6909 bound_to 6896
  146.0768  140.6128  142.8927 H   0  0  0  0  0  0  0  0  0  0  0  0  # atno 7974 bound_to 7965
  155.4592  140.3461  155.4310 H   0  0  0  0  0  0  0  0  0  0  0  0  # atno 8008 bound_to 7997
  156.1172  140.1477  156.9286 H   0  0  0  0  0  0  0  0  0  0  0  0  # atno 8009 bound_to 7997
  154.4797  140.0873  156.7327 H   0  0  0  0  0  0  0  0  0  0  0  0  # atno 8010 bound_to 7997
  140.2896  143.3230  152.0359 H   0  0  0  0  0  0  0  0  0  0  0  0  # atno 10167 bound_to 10162
  156.0950  130.4194  150.0936 H   0  0  0  0  0  0  0  0  0  0  0  0  # atno 10718 bound_to 10713
  154.7850  135.4801  153.9927 H   0  0  0  0  0  0  0  0  0  0  0  0  # atno 10763 bound_to 10752
  153.1548  135.6798  153.8836 H   0  0  0  0  0  0  0  0  0  0  0  0  # atno 10764 bound_to 10752
  153.8469  135.3172  155.3408 H   0  0  0  0  0  0  0  0  0  0  0  0  # atno 10765 bound_to 10752
  140.1728  134.8531  157.2711 H   0  0  0  0  0  0  0  0  0  0  0  0  # atno 11005 bound_to 11000
  144.7267  140.4546  143.6968 LP  0  0  0  0  0  0  0  0  0  0  0  0  # atno 17320 bound_to 7965
  145.6291  139.1534  143.2979 LP  0  0  0  0  0  0  0  0  0  0  0  0  # atno 17321 bound_to 7965
  139.4941  144.6534  151.6625 LP  0  0  0  0  0  0  0  0  0  0  0  0  # atno 17342 bound_to 10162
  140.5743  144.0055  150.6233 LP  0  0  0  0  0  0  0  0  0  0  0  0  # atno 17343 bound_to 10162
  156.8937  130.9597  151.3585 LP  0  0  0  0  0  0  0  0  0  0  0  0  # atno 17370 bound_to 10713
  157.6109  130.8582  149.8950 LP  0  0  0  0  0  0  0  0  0  0  0  0  # atno 17371 bound_to 10713
  140.2357  134.3856  155.7502 LP  0  0  0  0  0  0  0  0  0  0  0  0  # atno 17394 bound_to 11000
  141.2218  133.7238  156.8710 LP  0  0  0  0  0  0  0  0  0  0  0  0  # atno 17395 bound_to 11000

$$$$
