AV-unprocessed.smi:243|AV-procd|sdf|1856|dock4
  -GOLD-   2262020483D 1   1.00000     0.00000
 Structure written by MMmdl.
 58 61  0  0  0  0  0  0  0  0  2 V2000
  144.8011  131.4154  150.3797 C   0  0  0  0  0  0  0  0  0  0  0  0
  143.9356  132.4902  149.7056 C   0  0  0  0  0  0  0  0  0  0  0  0
  143.8386  133.7354  150.5092 N   0  3  2  0  0  0  0  0  0  0  0  0
  145.1697  134.3419  150.7605 C   0  0  0  0  0  0  0  0  0  0  0  0
  145.0290  135.7131  151.4349 C   0  0  0  0  0  0  0  0  0  0  0  0
  144.2222  135.6099  152.7478 C   0  0  1  0  0  0  0  0  0  0  0  0
  144.1222  136.8935  153.4598 N   0  0  0  0  0  0  0  0  0  0  0  0
  142.8559  137.6150  153.4073 C   0  0  0  0  0  0  0  0  0  0  0  0
  144.8527  137.1632  154.5729 C   0  0  0  0  0  0  0  0  0  0  0  0
  144.4283  136.7420  155.7927 N   0  0  0  0  0  0  0  0  0  0  0  0
  145.1424  137.0164  156.8883 C   0  0  0  0  0  0  0  0  0  0  0  0
  146.2916  137.6864  156.9889 N   0  0  0  0  0  0  0  0  0  0  0  0
  146.7217  138.1163  155.7682 C   0  0  0  0  0  0  0  0  0  0  0  0
  146.0685  137.9008  154.5221 C   0  0  0  0  0  0  0  0  0  0  0  0
  146.8106  138.4700  153.4947 N   0  0  0  0  0  0  0  0  0  0  0  0
  147.8414  138.9947  154.0988 C   0  0  0  0  0  0  0  0  0  0  0  0
  147.8642  138.8374  155.4666 N   0  0  0  0  0  0  0  0  0  0  0  0
  148.8871  139.3142  156.3852 C   0  0  0  0  0  0  0  0  0  0  0  0
  150.1432  138.4124  156.4398 C   0  0  1  0  0  0  0  0  0  0  0  0
  150.7050  138.3171  155.1421 O   0  0  0  0  0  0  0  0  0  0  0  0
  151.2117  138.9463  157.3855 C   0  0  0  0  0  0  0  0  0  0  0  0
  151.9234  137.6790  157.8392 C   0  0  0  0  0  0  0  0  0  0  0  0
  150.8573  136.7585  157.9972 O   0  0  0  0  0  0  0  0  0  0  0  0
  149.8947  136.9852  156.9711 C   0  0  0  0  0  0  0  0  0  0  0  0
  142.8612  134.9039  152.5030 C   0  0  2  0  0  0  0  0  0  0  0  0
  142.0828  134.6697  153.8103 C   0  0  0  0  0  0  0  0  0  0  0  0
  143.0813  133.5605  151.7764 C   0  0  0  0  0  0  0  0  0  0  0  0
  144.7601  130.4831  149.8160 H   0  0  0  0  0  0  0  0  0  0  0  0
  144.4520  131.2039  151.3909 H   0  0  0  0  0  0  0  0  0  0  0  0
  145.8489  131.7077  150.4382 H   0  0  0  0  0  0  0  0  0  0  0  0
  144.3105  132.7166  148.7064 H   0  0  0  0  0  0  0  0  0  0  0  0
  142.9368  132.0723  149.5725 H   0  0  0  0  0  0  0  0  0  0  0  0
  145.7671  133.6728  151.3821 H   0  0  0  0  0  0  0  0  0  0  0  0
  145.7063  134.4639  149.8187 H   0  0  0  0  0  0  0  0  0  0  0  0
  146.0211  136.1202  151.6328 H   0  0  0  0  0  0  0  0  0  0  0  0
  144.5526  136.3974  150.7342 H   0  0  0  0  0  0  0  0  0  0  0  0
  144.7895  134.9567  153.4127 H   0  0  0  0  0  0  0  0  0  0  0  0
  142.3466  137.5797  154.3715 H   0  0  0  0  0  0  0  0  0  0  0  0
  142.1881  137.1847  152.6610 H   0  0  0  0  0  0  0  0  0  0  0  0
  143.0172  138.6595  153.1414 H   0  0  0  0  0  0  0  0  0  0  0  0
  144.7349  136.6473  157.8178 H   0  0  0  0  0  0  0  0  0  0  0  0
  148.6195  139.5123  153.5570 H   0  0  0  0  0  0  0  0  0  0  0  0
  149.1648  140.3275  156.0917 H   0  0  0  0  0  0  0  0  0  0  0  0
  148.4400  139.3968  157.3767 H   0  0  0  0  0  0  0  0  0  0  0  0
  150.1412  138.7737  154.5366 H   0  0  0  0  0  0  0  0  0  0  0  0
  151.8813  139.6749  156.9263 H   0  0  0  0  0  0  0  0  0  0  0  0
  150.7475  139.4215  158.2509 H   0  0  0  0  0  0  0  0  0  0  0  0
  152.6101  137.3182  157.0719 H   0  0  0  0  0  0  0  0  0  0  0  0
  152.4804  137.8142  158.7664 H   0  0  0  0  0  0  0  0  0  0  0  0
  148.9048  136.8739  157.4118 H   0  0  0  0  0  0  0  0  0  0  0  0
  149.9916  136.2294  156.1901 H   0  0  0  0  0  0  0  0  0  0  0  0
  142.2403  135.5191  151.8522 H   0  0  0  0  0  0  0  0  0  0  0  0
  142.6578  134.0626  154.5103 H   0  0  0  0  0  0  0  0  0  0  0  0
  141.1417  134.1537  153.6188 H   0  0  0  0  0  0  0  0  0  0  0  0
  141.8382  135.6074  154.3089 H   0  0  0  0  0  0  0  0  0  0  0  0
  142.1098  133.1125  151.5708 H   0  0  0  0  0  0  0  0  0  0  0  0
  143.6163  132.8633  152.4236 H   0  0  0  0  0  0  0  0  0  0  0  0
  143.3263  134.3999  149.9467 H   0  0  0  0  0  0  0  0  0  0  0  0
  1  2  1  0  0  0  0
  1 28  1  0  0  0  0
  1 29  1  0  0  0  0
  1 30  1  0  0  0  0
  2  3  1  0  0  0  0
  2 31  1  0  0  0  0
  2 32  1  0  0  0  0
  3 27  1  0  0  0  0
  3  4  1  0  0  0  0
  3 58  1  0  0  0  0
  4  5  1  0  0  0  0
  4 33  1  0  0  0  0
  4 34  1  0  0  0  0
  5  6  1  0  0  0  0
  5 35  1  0  0  0  0
  5 36  1  0  0  0  0
  6  7  1  0  0  0  0
  6 25  1  0  0  0  0
  6 37  1  0  0  0  0
  7  8  1  0  0  0  0
  7  9  1  0  0  0  0
  8 38  1  0  0  0  0
  8 39  1  0  0  0  0
  8 40  1  0  0  0  0
  9 14  1  0  0  0  0
  9 10  2  0  0  0  0
 10 11  1  0  0  0  0
 11 12  2  0  0  0  0
 11 41  1  0  0  0  0
 12 13  1  0  0  0  0
 13 17  1  0  0  0  0
 13 14  2  0  0  0  0
 14 15  1  0  0  0  0
 15 16  2  0  0  0  0
 16 17  1  0  0  0  0
 16 42  1  0  0  0  0
 17 18  1  0  0  0  0
 18 19  1  0  0  0  0
 18 43  1  0  0  0  0
 18 44  1  0  0  0  0
 19 24  1  0  0  0  0
 19 20  1  0  0  0  0
 19 21  1  0  0  0  0
 20 45  1  0  0  0  0
 21 22  1  0  0  0  0
 21 46  1  0  0  0  0
 21 47  1  0  0  0  0
 22 23  1  0  0  0  0
 22 48  1  0  0  0  0
 22 49  1  0  0  0  0
 23 24  1  0  0  0  0
 24 50  1  0  0  0  0
 24 51  1  0  0  0  0
 25 26  1  0  0  0  0
 25 27  1  0  0  0  0
 25 52  1  0  0  0  0
 26 53  1  0  0  0  0
 26 54  1  0  0  0  0
 26 55  1  0  0  0  0
 27 56  1  0  0  0  0
 27 57  1  0  0  0  0
M  CHG  1   3   1
M  END
> <s_m_source_file>
AV-unprocessed.smi

> <i_m_source_file_index>
243

> <i_lp_mmshare_version>
43012

> <i_f3d_flags>
0

> <s_epik_input>
W0NIM11bQ0gyXU4xW0NIMl1bQ0gyXVtDQEhdKFtDQEBIXShbQ0gzXSlbQ0gyXTEpTihbQ0gzXSljKG5bY0hdbjIpYyhjMjMpbltjSF1uM1tDSDJdW0NAQF00KFtPSF0pW0NIMl1bQ0gyXU9bQ0gyXTQ=

> <s_epik_cmdline>
J2VwaWtfcHl0aG9uJywgJy1waCcsICc3LjAnLCAnLXRuJywgJzgnLCAnLW1hJywgJzIwMCcsICctbWV0YWxfYmluZGluZycsICctaW1hZScsICc8aW5maWxlLm1hZT4nLCAnLW9tYWUnLCAnPG91dGZpbGUubWFlPic=

> <r_lp_tautomer_probability>
1

> <r_epik_Ionization_Penalty>
0.00253099

> <r_epik_Ionization_Penalty_Charging>
0.00137877

> <r_epik_Ionization_Penalty_Neutral>
0.00115221

> <r_epik_State_Penalty>
-0

> <r_epik_Charging_Adjusted_Penalty>
0.00137877

> <i_epik_Tot_Q>
1

> <i_epik_Tot_abs_Q>
1

> <r_epik_Metal_State_Penalty>
-0

> <b_epik_Metal_Only>
0

> <s_lp_Force_Field>
OPLS_2005

> <r_lp_Energy>
45.5206

> <b_lp_Chiralities_Consistent>
1

> <s_lp_Variant>
AV-unprocessed.smi:243-9

> <Gold.Version>
5.8.1

> <Gold.Id.Protein>
6NUR|6NUR_protein|mol2

> <Gold.PLP.Fitness>
42.5647

> <Gold.PLP.PLP>
-32.7127

> <Gold.PLP.part.hbond>
-3.0000

> <Gold.PLP.part.metal>
0.0000

> <Gold.PLP.part.buried>
3.0806

> <Gold.PLP.part.nonpolar>
-35.1401

> <Gold.PLP.part.repulsive>
0.9422

> <Gold.PLP.ligand.clash>
0.0000

> <Gold.PLP.ligand.torsion>
2.0920

> <Gold.PLP.Chemscore.Hbond>
3.3440

> <Gold.PLP.Chemscore.CHOScore>
1.0000

> <Gold.PLP.Chemscore.Metal>
0.0000

> <Gold.Chemscore.Hbonds>
donor molecule, donor type, donor heavy atom, donor atom, acceptor molecule, acceptor atom, score
      L1  H     3    58       P1 10186  0.23
      L1  C    16    42       P1  7957  0.72

> <Gold.PLP.Chemscore.Internal.Correction>
1.0041

> <Gold.Rescore>
     Score         DG    S(hbond)    S(metal)    S(lipo)     H(rot)  DE(clash)    DE(int)     intcor
     10.76     -15.79       1.62        0.00      90.88       2.24       2.90       2.13       ----

> <Gold.Chemscore.Fitness>
10.7579

> <Gold.Chemscore.DG>
-15.7914

> <Gold.Chemscore.ZeroCoef>
-5.4800

> <Gold.Chemscore.Hbond>
1.6189

> <Gold.Chemscore.Metal>
0.0000

> <Gold.Chemscore.Lipo>
90.8840

> <Gold.Chemscore.Internal_Hbond>
0.0000

> <Gold.Chemscore.DEClash>
2.9036

> <Gold.Chemscore.DEInternal>
2.1299

> <Gold.Chemscore.Rot>
2.2379

> <Gold.Chemscore.Internal.Correction>
   9.000000E+99

> <Gold.Chemscore.Hbonds>
donor molecule, donor type, donor heavy atom, donor atom, acceptor molecule, acceptor atom, score
      L1  H     3    58       P1 10186  0.11

> <Gold.Chemscore.Hbond.Weighted>
-5.4071

> <Gold.Chemscore.Metal.Weighted>
-0.0000

> <Gold.Chemscore.Lipo.Weighted>
-10.6334

> <Gold.Chemscore.Internal_Hbond.Weighted>
0.0000

> <Gold.Chemscore.DEClash.Weighted>
2.9036

> <Gold.Chemscore.DEInternal.Weighted>
2.1299

> <Gold.Chemscore.Rot.Weighted>
5.7291

> <Gold.Chemscore.Internal.Correction.Weighted>
   9.000000E+99

> <Gold.Protein.RotatedTorsions>
[ 6907 6896 6895 6894 ] final  148.03 input  -60.11 | X-H torsion
[ 7974 7965 7964 7962 ] final   88.50 input  175.53 | X-H torsion
[ 8008 7997 7996 7995 ] final -155.97 input   59.86 | X-H torsion
[ 10167 10162 10161 10158 ] final   13.41 input  -65.29 | X-H torsion
[ 10718 10713 10712 10709 ] final   91.55 input   66.30 | X-H torsion
[ 10763 10752 10751 10750 ] final  -13.63 input  -60.55 | X-H torsion
[ 11005 11000 10999 10996 ] final   77.22 input  -57.11 | X-H torsion

> <Gold.Protein.ActiveResidues>
 VAL166  LYS551  ARG553  GLY616  TRP617  ASP618  TYR619  PRO620  LYS621  CYS622 
 ASP623  PHE694  ASN695  SER759  ASP760  ASP761  ALA762  ILE779  LEU786  VAL792 
 PHE793  MET794  SER795  GLU796  ALA797  LYS798  CYS799  TRP800  GLU811  SER814 

> <Gold.Protein.RotatedAtoms>
  152.1468  133.4497  159.4793 H   0  0  0  0  0  0  0  0  0  0  0  0  # atno 6907 bound_to 6896
  150.6891  134.2237  159.4416 H   0  0  0  0  0  0  0  0  0  0  0  0  # atno 6908 bound_to 6896
  152.0132  134.9864  160.0619 H   0  0  0  0  0  0  0  0  0  0  0  0  # atno 6909 bound_to 6896
  145.5448  139.2291  143.2545 H   0  0  0  0  0  0  0  0  0  0  0  0  # atno 7974 bound_to 7965
  155.7100  140.0777  157.2375 H   0  0  0  0  0  0  0  0  0  0  0  0  # atno 8008 bound_to 7997
  154.4060  140.1632  156.2339 H   0  0  0  0  0  0  0  0  0  0  0  0  # atno 8009 bound_to 7997
  155.9291  140.3392  155.6237 H   0  0  0  0  0  0  0  0  0  0  0  0  # atno 8010 bound_to 7997
  140.6004  143.8616  150.6959 H   0  0  0  0  0  0  0  0  0  0  0  0  # atno 10167 bound_to 10162
  157.6960  131.0411  150.3746 H   0  0  0  0  0  0  0  0  0  0  0  0  # atno 10718 bound_to 10713
  153.5162  135.7016  153.5755 H   0  0  0  0  0  0  0  0  0  0  0  0  # atno 10763 bound_to 10752
  153.3824  135.3917  155.1866 H   0  0  0  0  0  0  0  0  0  0  0  0  # atno 10764 bound_to 10752
  154.8699  135.3838  154.4646 H   0  0  0  0  0  0  0  0  0  0  0  0  # atno 10765 bound_to 10752
  139.9264  134.7665  156.1494 H   0  0  0  0  0  0  0  0  0  0  0  0  # atno 11005 bound_to 11000
  146.1956  140.6270  142.9125 LP  0  0  0  0  0  0  0  0  0  0  0  0  # atno 17320 bound_to 7965
  144.7558  140.5305  143.6769 LP  0  0  0  0  0  0  0  0  0  0  0  0  # atno 17321 bound_to 7965
  140.2160  143.3846  152.1680 LP  0  0  0  0  0  0  0  0  0  0  0  0  # atno 17342 bound_to 10162
  139.5287  144.7133  151.5134 LP  0  0  0  0  0  0  0  0  0  0  0  0  # atno 17343 bound_to 10162
  156.4167  130.3945  149.6853 LP  0  0  0  0  0  0  0  0  0  0  0  0  # atno 17370 bound_to 10713
  156.4118  130.7726  151.2739 LP  0  0  0  0  0  0  0  0  0  0  0  0  # atno 17371 bound_to 10713
  141.0824  133.6748  156.2364 LP  0  0  0  0  0  0  0  0  0  0  0  0  # atno 17394 bound_to 11000
  140.6325  134.5249  157.5561 LP  0  0  0  0  0  0  0  0  0  0  0  0  # atno 17395 bound_to 11000

$$$$
