AV-unprocessed.smi:1718|AV-procd|sdf|6923|dock4
  -GOLD-   22720 8133D 1   1.00000     0.00000
 Structure written by MMmdl.
 40 41  0  0  0  0  0  0  0  0  1 V2000
  148.6958  138.3912  156.5838 C   0  0  0  0  0  0  0  0  0  0  0  0
  149.3160  138.2528  157.9823 C   0  0  1  0  0  0  0  0  0  0  0  0
  149.5151  139.5678  158.4942 O   0  0  0  0  0  0  0  0  0  0  0  0
  150.3992  140.3913  157.7418 C   0  0  0  0  0  0  0  0  0  0  0  0
  150.5818  141.7221  158.4809 C   0  0  2  0  0  0  0  0  0  0  0  0
  151.2119  142.8275  157.6378 C   0  0  0  0  0  0  0  0  0  0  0  0
  151.7516  143.7493  158.7080 C   0  0  0  0  0  0  0  0  0  0  0  0
  152.2150  142.7668  159.7832 C   0  0  0  0  0  0  0  0  0  0  0  0
  151.4736  141.5653  159.5790 O   0  0  0  0  0  0  0  0  0  0  0  0
  148.4071  137.4448  158.9233 C   0  0  0  0  0  0  0  0  0  0  0  0
  147.2468  137.8122  159.1076 O   0  0  0  0  0  0  0  0  0  0  0  0
  148.9762  136.3608  159.4869 N   0  0  0  0  0  0  0  0  0  0  0  0
  148.4417  135.4581  160.4213 C   0  0  0  0  0  0  0  0  0  0  0  0
  148.4765  134.1051  160.3008 C   0  0  0  0  0  0  0  0  0  0  0  0
  147.8883  133.2263  161.2976 C   0  0  0  0  0  0  0  0  0  0  0  0
  148.0041  131.7135  161.1924 C   0  0  0  0  0  0  0  0  0  0  0  0
  148.7104  131.2101  162.2057 F   0  0  0  0  0  0  0  0  0  0  0  0
  146.7907  131.1642  161.2188 F   0  0  0  0  0  0  0  0  0  0  0  0
  148.5959  131.3572  160.0521 F   0  0  0  0  0  0  0  0  0  0  0  0
  147.3103  133.8222  162.3570 C   0  0  0  0  0  0  0  0  0  0  0  0
  147.2500  135.2124  162.4770 N   0  0  0  0  0  0  0  0  0  0  0  0
  147.7738  136.0762  161.5787 C   0  0  0  0  0  0  0  0  0  0  0  0
  147.6771  137.2903  161.7549 O   0  0  0  0  0  0  0  0  0  0  0  0
  146.7840  135.5828  163.2929 H   0  0  0  0  0  0  0  0  0  0  0  0
  148.5056  137.4150  156.1361 H   0  0  0  0  0  0  0  0  0  0  0  0
  149.3658  138.9342  155.9168 H   0  0  0  0  0  0  0  0  0  0  0  0
  147.7517  138.9366  156.6146 H   0  0  0  0  0  0  0  0  0  0  0  0
  150.2824  137.7552  157.8788 H   0  0  0  0  0  0  0  0  0  0  0  0
  151.3705  139.9086  157.6296 H   0  0  0  0  0  0  0  0  0  0  0  0
  150.0030  140.5650  156.7402 H   0  0  0  0  0  0  0  0  0  0  0  0
  149.6243  142.0641  158.8776 H   0  0  0  0  0  0  0  0  0  0  0  0
  152.0312  142.4340  157.0343 H   0  0  0  0  0  0  0  0  0  0  0  0
  150.4981  143.3147  156.9730 H   0  0  0  0  0  0  0  0  0  0  0  0
  152.5507  144.3998  158.3517 H   0  0  0  0  0  0  0  0  0  0  0  0
  150.9482  144.3773  159.0954 H   0  0  0  0  0  0  0  0  0  0  0  0
  153.2761  142.5428  159.6707 H   0  0  0  0  0  0  0  0  0  0  0  0
  152.0580  143.1600  160.7878 H   0  0  0  0  0  0  0  0  0  0  0  0
  149.9135  136.1409  159.1809 H   0  0  0  0  0  0  0  0  0  0  0  0
  148.9256  133.6356  159.4409 H   0  0  0  0  0  0  0  0  0  0  0  0
  146.8605  133.2915  163.1832 H   0  0  0  0  0  0  0  0  0  0  0  0
  1  2  1  0  0  0  0
  1 25  1  0  0  0  0
  1 26  1  0  0  0  0
  1 27  1  0  0  0  0
  2  3  1  0  0  0  0
  2 10  1  0  0  0  0
  2 28  1  0  0  0  0
  3  4  1  0  0  0  0
  4  5  1  0  0  0  0
  4 29  1  0  0  0  0
  4 30  1  0  0  0  0
  5  9  1  0  0  0  0
  5  6  1  0  0  0  0
  5 31  1  0  0  0  0
  6  7  1  0  0  0  0
  6 32  1  0  0  0  0
  6 33  1  0  0  0  0
  7  8  1  0  0  0  0
  7 34  1  0  0  0  0
  7 35  1  0  0  0  0
  8  9  1  0  0  0  0
  8 36  1  0  0  0  0
  8 37  1  0  0  0  0
 10 11  2  0  0  0  0
 10 12  1  0  0  0  0
 12 13  1  0  0  0  0
 12 38  1  0  0  0  0
 13 22  1  0  0  0  0
 13 14  2  0  0  0  0
 14 15  1  0  0  0  0
 14 39  1  0  0  0  0
 15 16  1  0  0  0  0
 15 20  2  0  0  0  0
 16 17  1  0  0  0  0
 16 18  1  0  0  0  0
 16 19  1  0  0  0  0
 20 21  1  0  0  0  0
 20 40  1  0  0  0  0
 21 24  1  0  0  0  0
 21 22  1  0  0  0  0
 22 23  2  0  0  0  0
M  END
> <s_m_source_file>
AV-unprocessed.smi

> <i_m_source_file_index>
1718

> <i_lp_mmshare_version>
43012

> <i_f3d_flags>
0

> <s_epik_input>
TzFbQ0gyXVtDSDJdW0NIMl1bQ0BIXTFbQ0gyXU9bQ0BASF0oW0NIM10pQyg9TylbTkhdYzJbY0hdYyhDKEYpKEYpRilbY0hdW25IXWMyPU8=

> <s_epik_cmdline>
J2VwaWtfcHl0aG9uJywgJy1waCcsICc3LjAnLCAnLXRuJywgJzgnLCAnLW1hJywgJzIwMCcsICctbWV0YWxfYmluZGluZycsICctaW1hZScsICc8aW5maWxlLm1hZT4nLCAnLW9tYWUnLCAnPG91dGZpbGUubWFlPic=

> <r_lp_tautomer_probability>
0.999

> <r_epik_Ionization_Penalty>
0.00894336

> <r_epik_Ionization_Penalty_Charging>
0.00894326

> <r_epik_Ionization_Penalty_Neutral>
1.00145e-07

> <r_epik_State_Penalty>
0.00676626

> <r_epik_Charging_Adjusted_Penalty>
0.0157095

> <i_epik_Tot_Q>
0

> <i_epik_Tot_abs_Q>
0

> <r_epik_Metal_State_Penalty>
0.321145

> <b_epik_Metal_Only>
0

> <s_lp_Force_Field>
OPLS_2005

> <r_lp_Energy>
34.2201

> <b_lp_Chiralities_Consistent>
1

> <s_lp_Variant>
AV-unprocessed.smi:1718-2

> <Gold.Version>
5.8.1

> <Gold.Id.Protein>
6NUR|6NUR_protein|mol2

> <Gold.PLP.Fitness>
39.2885

> <Gold.PLP.PLP>
-35.3229

> <Gold.PLP.part.hbond>
-3.6126

> <Gold.PLP.part.metal>
0.0000

> <Gold.PLP.part.buried>
-4.1035

> <Gold.PLP.part.nonpolar>
-27.4921

> <Gold.PLP.part.repulsive>
0.2864

> <Gold.PLP.ligand.clash>
0.0000

> <Gold.PLP.ligand.torsion>
0.6097

> <Gold.PLP.Chemscore.Hbond>
1.6880

> <Gold.PLP.Chemscore.CHOScore>
0.0000

> <Gold.PLP.Chemscore.Metal>
0.0000

> <Gold.Chemscore.Hbonds>
donor molecule, donor type, donor heavy atom, donor atom, acceptor molecule, acceptor atom, score
      P1  H  6931  6943       L1    23  0.96
      P1  H  6934  6947       L1    23  0.67

> <Gold.PLP.Chemscore.Internal.Correction>
0.1210

> <Gold.Rescore>
     Score         DG    S(hbond)    S(metal)    S(lipo)     H(rot)  DE(clash)    DE(int)     intcor
     13.83     -14.68       1.66        0.00      72.35       1.88       0.06       0.79       ----

> <Gold.Chemscore.Fitness>
13.8319

> <Gold.Chemscore.DG>
-14.6768

> <Gold.Chemscore.ZeroCoef>
-5.4800

> <Gold.Chemscore.Hbond>
1.6592

> <Gold.Chemscore.Metal>
0.0000

> <Gold.Chemscore.Lipo>
72.3533

> <Gold.Chemscore.Internal_Hbond>
0.0000

> <Gold.Chemscore.DEClash>
0.0580

> <Gold.Chemscore.DEInternal>
0.7869

> <Gold.Chemscore.Rot>
1.8790

> <Gold.Chemscore.Internal.Correction>
   9.000000E+99

> <Gold.Chemscore.Hbonds>
donor molecule, donor type, donor heavy atom, donor atom, acceptor molecule, acceptor atom, score
      P1  H  6931  6943       L1    23  0.91
      P1  H  6934  6947       L1    23  0.67

> <Gold.Chemscore.Hbond.Weighted>
-5.5416

> <Gold.Chemscore.Metal.Weighted>
-0.0000

> <Gold.Chemscore.Lipo.Weighted>
-8.4653

> <Gold.Chemscore.Internal_Hbond.Weighted>
0.0000

> <Gold.Chemscore.DEClash.Weighted>
0.0580

> <Gold.Chemscore.DEInternal.Weighted>
0.7869

> <Gold.Chemscore.Rot.Weighted>
4.8102

> <Gold.Chemscore.Internal.Correction.Weighted>
   9.000000E+99

> <Gold.Protein.RotatedTorsions>
[ 6907 6896 6895 6894 ] final -179.38 input  -60.11 | X-H torsion
[ 7974 7965 7964 7962 ] final   62.00 input  175.53 | X-H torsion
[ 8008 7997 7996 7995 ] final   16.48 input   59.86 | X-H torsion
[ 10167 10162 10161 10158 ] final -173.36 input  -65.29 | X-H torsion
[ 10718 10713 10712 10709 ] final -177.86 input   66.30 | X-H torsion
[ 10763 10752 10751 10750 ] final -117.90 input  -60.55 | X-H torsion
[ 11005 11000 10999 10996 ] final  -27.10 input  -57.11 | X-H torsion

> <Gold.Protein.ActiveResidues>
 VAL166  LYS551  ARG553  GLY616  TRP617  ASP618  TYR619  PRO620  LYS621  CYS622 
 ASP623  PHE694  ASN695  SER759  ASP760  ASP761  ALA762  ILE779  LEU786  VAL792 
 PHE793  MET794  SER795  GLU796  ALA797  LYS798  CYS799  TRP800  GLU811  SER814 

> <Gold.Protein.RotatedAtoms>
  151.6525  133.3320  159.3154 H   0  0  0  0  0  0  0  0  0  0  0  0  # atno 6907 bound_to 6896
  150.7953  134.7012  159.6560 H   0  0  0  0  0  0  0  0  0  0  0  0  # atno 6908 bound_to 6896
  152.4039  134.6244  160.0110 H   0  0  0  0  0  0  0  0  0  0  0  0  # atno 6909 bound_to 6896
  145.8783  139.3425  143.0721 H   0  0  0  0  0  0  0  0  0  0  0  0  # atno 7974 bound_to 7965
  154.8776  140.2968  155.5444 H   0  0  0  0  0  0  0  0  0  0  0  0  # atno 8008 bound_to 7997
  156.3022  140.2448  156.3708 H   0  0  0  0  0  0  0  0  0  0  0  0  # atno 8009 bound_to 7997
  154.8750  140.0400  157.1737 H   0  0  0  0  0  0  0  0  0  0  0  0  # atno 8010 bound_to 7997
  139.5693  144.1680  152.1359 H   0  0  0  0  0  0  0  0  0  0  0  0  # atno 10167 bound_to 10162
  156.8357  130.9669  151.3103 H   0  0  0  0  0  0  0  0  0  0  0  0  # atno 10718 bound_to 10713
  154.8570  135.4293  154.2053 H   0  0  0  0  0  0  0  0  0  0  0  0  # atno 10763 bound_to 10752
  153.3091  135.6974  153.7138 H   0  0  0  0  0  0  0  0  0  0  0  0  # atno 10764 bound_to 10752
  153.6238  135.3497  155.2993 H   0  0  0  0  0  0  0  0  0  0  0  0  # atno 10765 bound_to 10752
  140.9089  133.7474  156.0643 H   0  0  0  0  0  0  0  0  0  0  0  0  # atno 11005 bound_to 11000
  145.9054  140.9215  143.0481 LP  0  0  0  0  0  0  0  0  0  0  0  0  # atno 17320 bound_to 7965
  144.6726  140.1088  143.7456 LP  0  0  0  0  0  0  0  0  0  0  0  0  # atno 17321 bound_to 7965
  140.1210  144.5373  150.6863 LP  0  0  0  0  0  0  0  0  0  0  0  0  # atno 17342 bound_to 10162
  140.6977  143.2414  151.4954 LP  0  0  0  0  0  0  0  0  0  0  0  0  # atno 17343 bound_to 10162
  157.6383  130.8784  149.9399 LP  0  0  0  0  0  0  0  0  0  0  0  0  # atno 17370 bound_to 10713
  156.0909  130.3663  150.0398 LP  0  0  0  0  0  0  0  0  0  0  0  0  # atno 17371 bound_to 10713
  140.8136  134.3371  157.5404 LP  0  0  0  0  0  0  0  0  0  0  0  0  # atno 17394 bound_to 11000
  139.8754  134.9268  156.3409 LP  0  0  0  0  0  0  0  0  0  0  0  0  # atno 17395 bound_to 11000

$$$$
