AV-unprocessed.smi:2321|AV-procd|sdf|9281|dock8
  -GOLD-   2272012503D 1   1.00000     0.00000
 Structure written by MMmdl.
 36 37  0  0  0  0  0  0  0  0  1 V2000
  146.3469  139.1309  153.7146 O   0  0  0  0  0  0  0  0  0  0  0  0
  147.1362  138.3540  153.1817 C   0  0  0  0  0  0  0  0  0  0  0  0
  148.4758  138.4046  153.3177 N   0  0  0  0  0  0  0  0  0  0  0  0
  149.2650  139.3061  154.0812 C   0  0  0  0  0  0  0  0  0  0  0  0
  148.9404  140.6684  154.2892 C   0  0  0  0  0  0  0  0  0  0  0  0
  149.8199  141.4616  155.0533 C   0  0  0  0  0  0  0  0  0  0  0  0
  150.9642  140.9934  155.5954 N   0  0  0  0  0  0  0  0  0  0  0  0
  151.2765  139.6974  155.3836 C   0  0  0  0  0  0  0  0  0  0  0  0
  150.4684  138.8194  154.6342 C   0  0  0  0  0  0  0  0  0  0  0  0
  150.8433  137.5295  154.4551 F   0  0  0  0  0  0  0  0  0  0  0  0
  146.6984  137.3402  152.4125 N   0  0  0  0  0  0  0  0  0  0  0  0
  145.3188  136.9905  152.0561 C   0  0  2  0  0  0  0  0  0  0  0  0
  144.4414  136.9377  153.3216 C   0  0  0  0  0  0  0  0  0  0  0  0
  144.7690  135.7234  154.2066 C   0  0  0  0  0  0  0  0  0  0  0  0
  144.6750  134.4110  153.4133 C   0  0  0  0  0  0  0  0  0  0  0  0
  145.5863  134.4318  152.1681 C   0  0  1  0  0  0  0  0  0  0  0  0
  145.5136  133.1102  151.3758 C   0  0  0  0  0  0  0  0  0  0  0  0
  146.4563  133.0687  150.4338 F   0  0  0  0  0  0  0  0  0  0  0  0
  145.6816  132.0757  152.1995 F   0  0  0  0  0  0  0  0  0  0  0  0
  144.3194  132.9900  150.7960 F   0  0  0  0  0  0  0  0  0  0  0  0
  145.2477  135.6533  151.2838 C   0  0  0  0  0  0  0  0  0  0  0  0
  148.9887  137.6536  152.8796 H   0  0  0  0  0  0  0  0  0  0  0  0
  148.0529  141.1198  153.8737 H   0  0  0  0  0  0  0  0  0  0  0  0
  149.6001  142.5041  155.2290 H   0  0  0  0  0  0  0  0  0  0  0  0
  152.1996  139.3497  155.8231 H   0  0  0  0  0  0  0  0  0  0  0  0
  147.4094  136.7256  152.0428 H   0  0  0  0  0  0  0  0  0  0  0  0
  144.9175  137.7827  151.4218 H   0  0  0  0  0  0  0  0  0  0  0  0
  144.5476  137.8592  153.8956 H   0  0  0  0  0  0  0  0  0  0  0  0
  143.3928  136.8859  153.0254 H   0  0  0  0  0  0  0  0  0  0  0  0
  145.7713  135.8277  154.6236 H   0  0  0  0  0  0  0  0  0  0  0  0
  144.0861  135.6913  155.0559 H   0  0  0  0  0  0  0  0  0  0  0  0
  144.9456  133.5780  154.0626 H   0  0  0  0  0  0  0  0  0  0  0  0
  143.6404  134.2423  153.1123 H   0  0  0  0  0  0  0  0  0  0  0  0
  146.6153  134.5428  152.5135 H   0  0  0  0  0  0  0  0  0  0  0  0
  144.2405  135.5350  150.8828 H   0  0  0  0  0  0  0  0  0  0  0  0
  145.9083  135.6823  150.4171 H   0  0  0  0  0  0  0  0  0  0  0  0
  1  2  2  0  0  0  0
  2  3  1  0  0  0  0
  2 11  1  0  0  0  0
  3  4  1  0  0  0  0
  3 22  1  0  0  0  0
  4  9  1  0  0  0  0
  4  5  2  0  0  0  0
  5  6  1  0  0  0  0
  5 23  1  0  0  0  0
  6  7  2  0  0  0  0
  6 24  1  0  0  0  0
  7  8  1  0  0  0  0
  8  9  2  0  0  0  0
  8 25  1  0  0  0  0
  9 10  1  0  0  0  0
 11 12  1  0  0  0  0
 11 26  1  0  0  0  0
 12 21  1  0  0  0  0
 12 13  1  0  0  0  0
 12 27  1  0  0  0  0
 13 14  1  0  0  0  0
 13 28  1  0  0  0  0
 13 29  1  0  0  0  0
 14 15  1  0  0  0  0
 14 30  1  0  0  0  0
 14 31  1  0  0  0  0
 15 16  1  0  0  0  0
 15 32  1  0  0  0  0
 15 33  1  0  0  0  0
 16 17  1  0  0  0  0
 16 21  1  0  0  0  0
 16 34  1  0  0  0  0
 17 18  1  0  0  0  0
 17 19  1  0  0  0  0
 17 20  1  0  0  0  0
 21 35  1  0  0  0  0
 21 36  1  0  0  0  0
M  END
> <s_m_source_file>
AV-unprocessed.smi

> <i_m_source_file_index>
2321

> <i_lp_mmshare_version>
43012

> <i_f3d_flags>
0

> <s_epik_input>
RkMoRikoRilbQ0BASF0oW0NIMl0xKVtDSDJdW0NIMl1bQ0gyXVtDQEhdMVtOSF1DKD1PKVtOSF1jMltjSF1bY0hdbltjSF1jMkY=

> <s_epik_cmdline>
J2VwaWtfcHl0aG9uJywgJy1waCcsICc3LjAnLCAnLXRuJywgJzgnLCAnLW1hJywgJzIwMCcsICctbWV0YWxfYmluZGluZycsICctaW1hZScsICc8aW5maWxlLm1hZT4nLCAnLW9tYWUnLCAnPG91dGZpbGUubWFlPic=

> <r_epik_Ionization_Penalty>
0.00319438

> <r_epik_Ionization_Penalty_Charging>
0

> <r_epik_Ionization_Penalty_Neutral>
0.00319438

> <r_epik_State_Penalty>
0.00222511

> <r_epik_Charging_Adjusted_Penalty>
0.00222511

> <i_epik_Tot_Q>
0

> <i_epik_Tot_abs_Q>
0

> <r_epik_Metal_State_Penalty>
-0

> <b_epik_Metal_Only>
0

> <s_lp_Force_Field>
OPLS_2005

> <r_lp_Energy>
25.9848

> <b_lp_Chiralities_Consistent>
1

> <s_lp_Variant>
AV-unprocessed.smi:2321-1

> <Gold.Version>
5.8.1

> <Gold.Id.Protein>
6NUR|6NUR_protein|mol2

> <Gold.PLP.Fitness>
45.2764

> <Gold.PLP.PLP>
-37.0611

> <Gold.PLP.part.hbond>
-3.9026

> <Gold.PLP.part.metal>
0.0000

> <Gold.PLP.part.buried>
-2.1284

> <Gold.PLP.part.nonpolar>
-32.0706

> <Gold.PLP.part.repulsive>
0.3061

> <Gold.PLP.ligand.clash>
0.0000

> <Gold.PLP.ligand.torsion>
0.3910

> <Gold.PLP.Chemscore.Hbond>
1.9920

> <Gold.PLP.Chemscore.CHOScore>
1.0000

> <Gold.PLP.Chemscore.Metal>
0.0000

> <Gold.Chemscore.Hbonds>
donor molecule, donor type, donor heavy atom, donor atom, acceptor molecule, acceptor atom, score
      L1  H     3    22       P1  7948  0.98
      L1  H    11    26       P1  7948  1.00
      L1  C     6    24       P1  8028  1.00

> <Gold.PLP.Chemscore.Internal.Correction>
0.0213

> <Gold.Rescore>
     Score         DG    S(hbond)    S(metal)    S(lipo)     H(rot)  DE(clash)    DE(int)     intcor
     15.07     -16.77       1.94        0.00      62.94       1.00       0.09       1.61       ----

> <Gold.Chemscore.Fitness>
15.0722

> <Gold.Chemscore.DG>
-16.7713

> <Gold.Chemscore.ZeroCoef>
-5.4800

> <Gold.Chemscore.Hbond>
1.9423

> <Gold.Chemscore.Metal>
0.0000

> <Gold.Chemscore.Lipo>
62.9405

> <Gold.Chemscore.Internal_Hbond>
0.0000

> <Gold.Chemscore.DEClash>
0.0893

> <Gold.Chemscore.DEInternal>
1.6098

> <Gold.Chemscore.Rot>
1.0000

> <Gold.Chemscore.Internal.Correction>
   9.000000E+99

> <Gold.Chemscore.Hbonds>
donor molecule, donor type, donor heavy atom, donor atom, acceptor molecule, acceptor atom, score
      L1  H     3    22       P1  7948  0.93
      L1  H    11    26       P1  7948  0.97

> <Gold.Chemscore.Hbond.Weighted>
-6.4873

> <Gold.Chemscore.Metal.Weighted>
-0.0000

> <Gold.Chemscore.Lipo.Weighted>
-7.3640

> <Gold.Chemscore.Internal_Hbond.Weighted>
0.0000

> <Gold.Chemscore.DEClash.Weighted>
0.0893

> <Gold.Chemscore.DEInternal.Weighted>
1.6098

> <Gold.Chemscore.Rot.Weighted>
2.5600

> <Gold.Chemscore.Internal.Correction.Weighted>
   9.000000E+99

> <Gold.Protein.RotatedTorsions>
[ 6907 6896 6895 6894 ] final   29.60 input  -60.11 | X-H torsion
[ 7974 7965 7964 7962 ] final   99.77 input  175.53 | X-H torsion
[ 8008 7997 7996 7995 ] final   40.13 input   59.86 | X-H torsion
[ 10167 10162 10161 10158 ] final  138.29 input  -65.29 | X-H torsion
[ 10718 10713 10712 10709 ] final -142.52 input   66.30 | X-H torsion
[ 10763 10752 10751 10750 ] final  -66.75 input  -60.55 | X-H torsion
[ 11005 11000 10999 10996 ] final   96.10 input  -57.11 | X-H torsion

> <Gold.Protein.ActiveResidues>
 VAL166  LYS551  ARG553  GLY616  TRP617  ASP618  TYR619  PRO620  LYS621  CYS622 
 ASP623  PHE694  ASN695  SER759  ASP760  ASP761  ALA762  ILE779  LEU786  VAL792 
 PHE793  MET794  SER795  GLU796  ALA797  LYS798  CYS799  TRP800  GLU811  SER814 

> <Gold.Protein.RotatedAtoms>
  152.0338  134.9752  160.0572 H   0  0  0  0  0  0  0  0  0  0  0  0  # atno 6907 bound_to 6896
  152.1217  133.4352  159.4687 H   0  0  0  0  0  0  0  0  0  0  0  0  # atno 6908 bound_to 6896
  150.6849  134.2445  159.4529 H   0  0  0  0  0  0  0  0  0  0  0  0  # atno 6909 bound_to 6896
  145.3944  139.2357  143.3334 H   0  0  0  0  0  0  0  0  0  0  0  0  # atno 7974 bound_to 7965
  155.2480  140.3350  155.4285 H   0  0  0  0  0  0  0  0  0  0  0  0  # atno 8008 bound_to 7997
  156.2228  140.1816  156.7480 H   0  0  0  0  0  0  0  0  0  0  0  0  # atno 8009 bound_to 7997
  154.5851  140.0647  156.9145 H   0  0  0  0  0  0  0  0  0  0  0  0  # atno 8010 bound_to 7997
  139.5115  144.6362  151.5691 H   0  0  0  0  0  0  0  0  0  0  0  0  # atno 10167 bound_to 10162
  156.3470  130.7667  151.1814 H   0  0  0  0  0  0  0  0  0  0  0  0  # atno 10718 bound_to 10713
  154.3644  135.6109  153.5707 H   0  0  0  0  0  0  0  0  0  0  0  0  # atno 10763 bound_to 10752
  152.9792  135.5823  154.4595 H   0  0  0  0  0  0  0  0  0  0  0  0  # atno 10764 bound_to 10752
  154.4338  135.2848  155.1872 H   0  0  0  0  0  0  0  0  0  0  0  0  # atno 10765 bound_to 10752
  139.8784  134.8933  156.4108 H   0  0  0  0  0  0  0  0  0  0  0  0  # atno 11005 bound_to 11000
  146.2782  140.4632  142.8787 LP  0  0  0  0  0  0  0  0  0  0  0  0  # atno 17320 bound_to 7965
  144.8417  140.6868  143.6225 LP  0  0  0  0  0  0  0  0  0  0  0  0  # atno 17321 bound_to 7965
  140.6111  143.9434  150.6454 LP  0  0  0  0  0  0  0  0  0  0  0  0  # atno 17342 bound_to 10162
  140.2677  143.3478  152.1266 LP  0  0  0  0  0  0  0  0  0  0  0  0  # atno 17343 bound_to 10162
  157.7455  131.0438  150.4763 LP  0  0  0  0  0  0  0  0  0  0  0  0  # atno 17370 bound_to 10713
  156.4953  130.4104  149.6384 LP  0  0  0  0  0  0  0  0  0  0  0  0  # atno 17371 bound_to 10713
  140.9201  133.7651  155.9896 LP  0  0  0  0  0  0  0  0  0  0  0  0  # atno 17394 bound_to 11000
  140.8449  134.3023  157.5299 LP  0  0  0  0  0  0  0  0  0  0  0  0  # atno 17395 bound_to 11000

$$$$
