AV-unprocessed.smi:2492|AV-procd|sdf|9815|dock4
  -GOLD-   2272013443D 1   1.00000     0.00000
 Structure written by MMmdl.
 32 33  0  0  0  0  0  0  0  0  2 V2000
  150.8277  145.4896  159.5638 C   0  0  0  0  0  0  0  0  0  0  0  0
  152.4609  144.8979  159.0469 S   0  0  0  0  0  0  0  0  0  0  0  0
  152.5197  143.3145  159.9341 C   0  0  2  0  0  0  0  0  0  0  0  0
  152.5521  143.4912  161.4497 C   0  0  0  0  0  0  0  0  0  0  0  0
  153.0826  142.1552  161.9736 C   0  0  0  0  0  0  0  0  0  0  0  0
  153.9959  141.5942  160.8663 C   0  0  1  0  0  0  0  0  0  0  0  0
  153.6594  140.2026  160.5725 N   0  0  0  0  0  0  0  0  0  0  0  0
  154.3515  139.3766  159.7741 C   0  0  0  0  0  0  0  0  0  0  0  0
  155.3698  139.7798  159.2073 O   0  0  0  0  0  0  0  0  0  0  0  0
  153.8192  138.1370  159.6807 N   0  5  0  0  0  0  0  0  0  0  0  0
  152.5686  137.9769  159.2174 C   0  0  0  0  0  0  0  0  0  0  0  0
  151.7385  138.9534  158.8484 N   0  0  0  0  0  0  0  0  0  0  0  0
  150.6396  138.2536  158.4589 C   0  0  0  0  0  0  0  0  0  0  0  0
  149.4007  138.9067  157.9494 C   0  0  0  0  0  0  0  0  0  0  0  0
  150.7324  136.9353  158.5494 N   0  0  0  0  0  0  0  0  0  0  0  0
  152.0261  136.7421  159.0540 O   0  0  0  0  0  0  0  0  0  0  0  0
  153.7825  142.5015  159.6381 C   0  0  0  0  0  0  0  0  0  0  0  0
  150.6326  146.4727  159.1355 H   0  0  0  0  0  0  0  0  0  0  0  0
  150.7777  145.5694  160.6497 H   0  0  0  0  0  0  0  0  0  0  0  0
  150.0471  144.8071  159.2276 H   0  0  0  0  0  0  0  0  0  0  0  0
  151.6402  142.7260  159.6678 H   0  0  0  0  0  0  0  0  0  0  0  0
  153.2469  144.2885  161.7184 H   0  0  0  0  0  0  0  0  0  0  0  0
  151.5763  143.7455  161.8644 H   0  0  0  0  0  0  0  0  0  0  0  0
  153.6087  142.2707  162.9217 H   0  0  0  0  0  0  0  0  0  0  0  0
  152.2399  141.4856  162.1541 H   0  0  0  0  0  0  0  0  0  0  0  0
  155.0370  141.6548  161.1886 H   0  0  0  0  0  0  0  0  0  0  0  0
  152.8328  139.8303  161.0164 H   0  0  0  0  0  0  0  0  0  0  0  0
  149.3430  138.8078  156.8654 H   0  0  0  0  0  0  0  0  0  0  0  0
  149.3942  139.9677  158.2011 H   0  0  0  0  0  0  0  0  0  0  0  0
  148.5170  138.4440  158.3896 H   0  0  0  0  0  0  0  0  0  0  0  0
  153.7038  141.9492  158.7008 H   0  0  0  0  0  0  0  0  0  0  0  0
  154.6375  143.1721  159.5418 H   0  0  0  0  0  0  0  0  0  0  0  0
  1  2  1  0  0  0  0
  1 18  1  0  0  0  0
  1 19  1  0  0  0  0
  1 20  1  0  0  0  0
  2  3  1  0  0  0  0
  3 17  1  0  0  0  0
  3  4  1  0  0  0  0
  3 21  1  0  0  0  0
  4  5  1  0  0  0  0
  4 22  1  0  0  0  0
  4 23  1  0  0  0  0
  5  6  1  0  0  0  0
  5 24  1  0  0  0  0
  5 25  1  0  0  0  0
  6  7  1  0  0  0  0
  6 17  1  0  0  0  0
  6 26  1  0  0  0  0
  7  8  1  0  0  0  0
  7 27  1  0  0  0  0
  8  9  2  0  0  0  0
  8 10  1  0  0  0  0
 10 11  1  0  0  0  0
 11 16  1  0  0  0  0
 11 12  2  0  0  0  0
 12 13  1  0  0  0  0
 13 14  1  0  0  0  0
 13 15  2  0  0  0  0
 14 28  1  0  0  0  0
 14 29  1  0  0  0  0
 14 30  1  0  0  0  0
 15 16  1  0  0  0  0
 17 31  1  0  0  0  0
 17 32  1  0  0  0  0
M  CHG  1  10  -1
M  END
> <s_m_source_file>
AV-unprocessed.smi

> <i_m_source_file_index>
2492

> <i_lp_mmshare_version>
43012

> <i_f3d_flags>
0

> <s_epik_input>
W0NIM11TW0NAQEhdMVtDSDJdW0NIMl1bQ0BIXShbQ0gyXTEpW05IXUMoPU8pW05IXWMybmMoW0NIM10pbm8y

> <s_epik_cmdline>
J2VwaWtfcHl0aG9uJywgJy1waCcsICc3LjAnLCAnLXRuJywgJzgnLCAnLW1hJywgJzIwMCcsICctbWV0YWxfYmluZGluZycsICctaW1hZScsICc8aW5maWxlLm1hZT4nLCAnLW9tYWUnLCAnPG91dGZpbGUubWFlPic=

> <r_lp_tautomer_probability>
1

> <r_epik_Ionization_Penalty>
6.26454

> <r_epik_Ionization_Penalty_Charging>
6.26445

> <r_epik_Ionization_Penalty_Neutral>
9.05726e-05

> <r_epik_State_Penalty>
6.26444

> <r_epik_Charging_Adjusted_Penalty>
12.5289

> <i_epik_Tot_Q>
-1

> <i_epik_Tot_abs_Q>
1

> <r_epik_Metal_State_Penalty>
2.20125

> <b_epik_Metal_Only>
1

> <s_lp_Force_Field>
OPLS_2005

> <r_lp_Energy>
10.5247

> <b_lp_Chiralities_Consistent>
1

> <s_lp_Variant>
AV-unprocessed.smi:2492-5

> <Gold.Version>
5.8.1

> <Gold.Id.Protein>
6NUR|6NUR_protein|mol2

> <Gold.PLP.Fitness>
41.4103

> <Gold.PLP.PLP>
-37.4546

> <Gold.PLP.part.hbond>
-3.0000

> <Gold.PLP.part.metal>
0.0000

> <Gold.PLP.part.buried>
-5.4466

> <Gold.PLP.part.nonpolar>
-28.6655

> <Gold.PLP.part.repulsive>
0.0522

> <Gold.PLP.ligand.clash>
0.0000

> <Gold.PLP.ligand.torsion>
0.6479

> <Gold.PLP.Chemscore.Hbond>
1.7480

> <Gold.PLP.Chemscore.CHOScore>
0.0000

> <Gold.PLP.Chemscore.Metal>
0.0000

> <Gold.Chemscore.Hbonds>
donor molecule, donor type, donor heavy atom, donor atom, acceptor molecule, acceptor atom, score
      P1  H  6896  6909       L1    16  0.74
      P1  H  7997  8008       L1     9  1.00

> <Gold.PLP.Chemscore.Internal.Correction>
0.0075

> <Gold.Rescore>
     Score         DG    S(hbond)    S(metal)    S(lipo)     H(rot)  DE(clash)    DE(int)     intcor
     17.00     -17.91       1.72        0.00      84.95       1.27       0.08       0.83       ----

> <Gold.Chemscore.Fitness>
17.0034

> <Gold.Chemscore.DG>
-17.9124

> <Gold.Chemscore.ZeroCoef>
-5.4800

> <Gold.Chemscore.Hbond>
1.7208

> <Gold.Chemscore.Metal>
0.0000

> <Gold.Chemscore.Lipo>
84.9482

> <Gold.Chemscore.Internal_Hbond>
0.0000

> <Gold.Chemscore.DEClash>
0.0765

> <Gold.Chemscore.DEInternal>
0.8324

> <Gold.Chemscore.Rot>
1.2712

> <Gold.Chemscore.Internal.Correction>
   9.000000E+99

> <Gold.Chemscore.Hbonds>
donor molecule, donor type, donor heavy atom, donor atom, acceptor molecule, acceptor atom, score
      P1  H  6896  6909       L1    16  0.44
      P1  H  7997  8008       L1     9  0.98

> <Gold.Chemscore.Hbond.Weighted>
-5.7476

> <Gold.Chemscore.Metal.Weighted>
-0.0000

> <Gold.Chemscore.Lipo.Weighted>
-9.9389

> <Gold.Chemscore.Internal_Hbond.Weighted>
0.0000

> <Gold.Chemscore.DEClash.Weighted>
0.0765

> <Gold.Chemscore.DEInternal.Weighted>
0.8324

> <Gold.Chemscore.Rot.Weighted>
3.2542

> <Gold.Chemscore.Internal.Correction.Weighted>
   9.000000E+99

> <Gold.Protein.RotatedTorsions>
[ 6907 6896 6895 6894 ] final  147.30 input  -60.11 | X-H torsion
[ 7974 7965 7964 7962 ] final  -12.77 input  175.53 | X-H torsion
[ 8008 7997 7996 7995 ] final -143.45 input   59.86 | X-H torsion
[ 10167 10162 10161 10158 ] final -117.94 input  -65.29 | X-H torsion
[ 10718 10713 10712 10709 ] final  -71.52 input   66.30 | X-H torsion
[ 10763 10752 10751 10750 ] final  -49.68 input  -60.55 | X-H torsion
[ 11005 11000 10999 10996 ] final  110.96 input  -57.11 | X-H torsion

> <Gold.Protein.ActiveResidues>
 VAL166  LYS551  ARG553  GLY616  TRP617  ASP618  TYR619  PRO620  LYS621  CYS622 
 ASP623  PHE694  ASN695  SER759  ASP760  ASP761  ALA762  ILE779  LEU786  VAL792 
 PHE793  MET794  SER795  GLU796  ALA797  LYS798  CYS799  TRP800  GLU811  SER814 

> <Gold.Protein.RotatedAtoms>
  152.1566  133.4555  159.4839 H   0  0  0  0  0  0  0  0  0  0  0  0  # atno 6907 bound_to 6896
  150.6901  134.2124  159.4373 H   0  0  0  0  0  0  0  0  0  0  0  0  # atno 6908 bound_to 6896
  152.0023  134.9921  160.0616 H   0  0  0  0  0  0  0  0  0  0  0  0  # atno 6909 bound_to 6896
  146.2139  140.3106  142.8382 H   0  0  0  0  0  0  0  0  0  0  0  0  # atno 7974 bound_to 7965
  155.5108  140.0583  157.2924 H   0  0  0  0  0  0  0  0  0  0  0  0  # atno 8008 bound_to 7997
  154.4552  140.1969  156.0348 H   0  0  0  0  0  0  0  0  0  0  0  0  # atno 8009 bound_to 7997
  156.0785  140.3250  155.7668 H   0  0  0  0  0  0  0  0  0  0  0  0  # atno 8010 bound_to 7997
  140.0629  143.4951  152.2022 H   0  0  0  0  0  0  0  0  0  0  0  0  # atno 10167 bound_to 10162
  156.0359  130.4353  150.2456 H   0  0  0  0  0  0  0  0  0  0  0  0  # atno 10718 bound_to 10713
  154.0980  135.6567  153.4863 H   0  0  0  0  0  0  0  0  0  0  0  0  # atno 10763 bound_to 10752
  153.0298  135.5218  154.7315 H   0  0  0  0  0  0  0  0  0  0  0  0  # atno 10764 bound_to 10752
  154.6458  135.2994  155.0017 H   0  0  0  0  0  0  0  0  0  0  0  0  # atno 10765 bound_to 10752
  139.8893  134.9497  156.6359 H   0  0  0  0  0  0  0  0  0  0  0  0  # atno 11005 bound_to 11000
  144.8991  140.7620  143.5878 LP  0  0  0  0  0  0  0  0  0  0  0  0  # atno 17320 bound_to 7965
  145.3032  139.1843  143.4678 LP  0  0  0  0  0  0  0  0  0  0  0  0  # atno 17321 bound_to 7965
  139.5883  144.7540  151.3465 LP  0  0  0  0  0  0  0  0  0  0  0  0  # atno 17342 bound_to 10162
  140.7163  143.7257  150.7662 LP  0  0  0  0  0  0  0  0  0  0  0  0  # atno 17343 bound_to 10162
  157.0556  131.0075  151.3239 LP  0  0  0  0  0  0  0  0  0  0  0  0  # atno 17370 bound_to 10713
  157.5108  130.7937  149.7703 LP  0  0  0  0  0  0  0  0  0  0  0  0  # atno 17371 bound_to 10713
  140.7631  133.8801  155.8433 LP  0  0  0  0  0  0  0  0  0  0  0  0  # atno 17394 bound_to 11000
  140.9905  134.1284  157.4412 LP  0  0  0  0  0  0  0  0  0  0  0  0  # atno 17395 bound_to 11000

$$$$
