AV-unprocessed.smi:1295|AV-procd|sdf|5411|dock3
  -GOLD-   22720 4573D 1   1.00000     0.00000
 Structure written by MMmdl.
 42 43  0  0  0  0  0  0  0  0  2 V2000
  150.6053  133.9267  157.1368 C   0  0  0  0  0  0  0  0  0  0  0  0
  150.5713  135.4076  157.4482 C   0  0  0  0  0  0  0  0  0  0  0  0
  150.9014  136.2450  156.5403 N   0  0  0  0  0  0  0  0  0  0  0  0
  150.8730  137.6206  156.8248 C   0  0  0  0  0  0  0  0  0  0  0  0
  151.2588  138.5432  155.6822 C   0  0  0  0  0  0  0  0  0  0  0  0
  150.5071  138.0791  158.0559 C   0  0  0  0  0  0  0  0  0  0  0  0
  150.4397  139.5667  158.4093 C   0  0  0  0  0  0  0  0  0  0  0  0
  151.7782  140.3097  158.4187 C   0  0  0  0  0  0  0  0  0  0  0  0
  152.6710  139.9819  157.6378 O   0  0  0  0  0  0  0  0  0  0  0  0
  151.8977  141.3075  159.3069 N   0  0  0  0  0  0  0  0  0  0  0  0
  153.0369  142.2084  159.4607 C   0  0  2  0  0  0  0  0  0  0  0  0
  153.7397  141.9596  160.8111 C   0  0  0  0  0  0  0  0  0  0  0  0
  152.8758  142.4047  162.0041 C   0  0  0  0  0  0  0  0  0  0  0  0
  152.4467  143.8726  161.8629 C   0  0  0  0  0  0  0  0  0  0  0  0
  151.7233  144.1192  160.5292 C   0  0  0  0  0  0  0  0  0  0  0  0
  152.5859  143.6843  159.3255 C   0  0  2  0  0  0  0  0  0  0  0  0
  151.8735  143.9684  157.9909 C   0  0  0  0  0  0  0  0  0  0  0  0
  150.1270  137.0814  159.0721 C   0  0  0  0  0  0  0  0  0  0  0  0
  149.7624  137.4430  160.1902 O   0  0  0  0  0  0  0  0  0  0  0  0
  150.1800  135.7659  158.7185 N   0  5  0  0  0  0  0  0  0  0  0  0
  150.7822  133.7524  156.0747 H   0  0  0  0  0  0  0  0  0  0  0  0
  149.6573  133.4591  157.4049 H   0  0  0  0  0  0  0  0  0  0  0  0
  151.4026  133.4418  157.7009 H   0  0  0  0  0  0  0  0  0  0  0  0
  152.1541  139.1114  155.9352 H   0  0  0  0  0  0  0  0  0  0  0  0
  150.4515  139.2430  155.4656 H   0  0  0  0  0  0  0  0  0  0  0  0
  151.4649  137.9797  154.7716 H   0  0  0  0  0  0  0  0  0  0  0  0
  149.7588  140.0928  157.7397 H   0  0  0  0  0  0  0  0  0  0  0  0
  149.9887  139.6676  159.3967 H   0  0  0  0  0  0  0  0  0  0  0  0
  151.1064  141.4840  159.9098 H   0  0  0  0  0  0  0  0  0  0  0  0
  153.7552  142.0073  158.6640 H   0  0  0  0  0  0  0  0  0  0  0  0
  154.0016  140.9057  160.9122 H   0  0  0  0  0  0  0  0  0  0  0  0
  154.6820  142.5080  160.8300 H   0  0  0  0  0  0  0  0  0  0  0  0
  151.9914  141.7704  162.0773 H   0  0  0  0  0  0  0  0  0  0  0  0
  153.4291  142.2678  162.9334 H   0  0  0  0  0  0  0  0  0  0  0  0
  151.7980  144.1511  162.6938 H   0  0  0  0  0  0  0  0  0  0  0  0
  153.3246  144.5167  161.9261 H   0  0  0  0  0  0  0  0  0  0  0  0
  150.7745  143.5802  160.5237 H   0  0  0  0  0  0  0  0  0  0  0  0
  151.4729  145.1770  160.4436 H   0  0  0  0  0  0  0  0  0  0  0  0
  153.4886  144.2970  159.3368 H   0  0  0  0  0  0  0  0  0  0  0  0
  150.9230  143.4382  157.9171 H   0  0  0  0  0  0  0  0  0  0  0  0
  152.4903  143.6640  157.1450 H   0  0  0  0  0  0  0  0  0  0  0  0
  151.6633  145.0323  157.8797 H   0  0  0  0  0  0  0  0  0  0  0  0
  1  2  1  0  0  0  0
  1 21  1  0  0  0  0
  1 22  1  0  0  0  0
  1 23  1  0  0  0  0
  2 20  1  0  0  0  0
  2  3  2  0  0  0  0
  3  4  1  0  0  0  0
  4  5  1  0  0  0  0
  4  6  2  0  0  0  0
  5 24  1  0  0  0  0
  5 25  1  0  0  0  0
  5 26  1  0  0  0  0
  6  7  1  0  0  0  0
  6 18  1  0  0  0  0
  7  8  1  0  0  0  0
  7 27  1  0  0  0  0
  7 28  1  0  0  0  0
  8  9  2  0  0  0  0
  8 10  1  0  0  0  0
 10 11  1  0  0  0  0
 10 29  1  0  0  0  0
 11 16  1  0  0  0  0
 11 12  1  0  0  0  0
 11 30  1  0  0  0  0
 12 13  1  0  0  0  0
 12 31  1  0  0  0  0
 12 32  1  0  0  0  0
 13 14  1  0  0  0  0
 13 33  1  0  0  0  0
 13 34  1  0  0  0  0
 14 15  1  0  0  0  0
 14 35  1  0  0  0  0
 14 36  1  0  0  0  0
 15 16  1  0  0  0  0
 15 37  1  0  0  0  0
 15 38  1  0  0  0  0
 16 17  1  0  0  0  0
 16 39  1  0  0  0  0
 17 40  1  0  0  0  0
 17 41  1  0  0  0  0
 17 42  1  0  0  0  0
 18 19  2  0  0  0  0
 18 20  1  0  0  0  0
M  CHG  1  20  -1
M  END
> <s_m_source_file>
AV-unprocessed.smi

> <i_m_source_file_index>
1295

> <i_lp_mmshare_version>
43012

> <i_f3d_flags>
0

> <s_epik_input>
W0NIM11jMW5jKFtDSDNdKWMoYyg9TylbbkhdMSlbQ0gyXUMoPU8pW05IXVtDQEBIXTJbQ0gyXVtDSDJdW0NIMl1bQ0gyXVtDQEhdMltDSDNd

> <s_epik_cmdline>
J2VwaWtfcHl0aG9uJywgJy1waCcsICc3LjAnLCAnLXRuJywgJzgnLCAnLW1hJywgJzIwMCcsICctbWV0YWxfYmluZGluZycsICctaW1hZScsICc8aW5maWxlLm1hZT4nLCAnLW9tYWUnLCAnPG91dGZpbGUubWFlPic=

> <r_lp_tautomer_probability>
0.839158

> <r_epik_Ionization_Penalty>
6.67742

> <r_epik_Ionization_Penalty_Charging>
7.78154e-08

> <r_epik_Ionization_Penalty_Neutral>
6.67742

> <r_epik_State_Penalty>
4.51991

> <r_epik_Charging_Adjusted_Penalty>
4.51991

> <i_epik_Tot_Q>
-1

> <i_epik_Tot_abs_Q>
1

> <r_epik_Metal_State_Penalty>
0.853272

> <b_epik_Metal_Only>
1

> <s_lp_Force_Field>
OPLS_2005

> <r_lp_Energy>
12.2009

> <b_lp_Chiralities_Consistent>
1

> <s_lp_Variant>
AV-unprocessed.smi:1295-11

> <Gold.Version>
5.8.1

> <Gold.Id.Protein>
6NUR|6NUR_protein|mol2

> <Gold.PLP.Fitness>
48.9783

> <Gold.PLP.PLP>
-42.0757

> <Gold.PLP.part.hbond>
-3.0000

> <Gold.PLP.part.metal>
0.0000

> <Gold.PLP.part.buried>
-5.5235

> <Gold.PLP.part.nonpolar>
-33.7921

> <Gold.PLP.part.repulsive>
0.1725

> <Gold.PLP.ligand.clash>
0.0000

> <Gold.PLP.ligand.torsion>
0.4267

> <Gold.PLP.Chemscore.Hbond>
2.5824

> <Gold.PLP.Chemscore.CHOScore>
0.0000

> <Gold.PLP.Chemscore.Metal>
0.0000

> <Gold.Chemscore.Hbonds>
donor molecule, donor type, donor heavy atom, donor atom, acceptor molecule, acceptor atom, score
      P1  H  6896  6907       L1    20  1.20
      P1  H  6931  6943       L1    19  0.19
      P1  H  7997  8009       L1     9  1.00

> <Gold.PLP.Chemscore.Internal.Correction>
0.0089

> <Gold.Rescore>
     Score         DG    S(hbond)    S(metal)    S(lipo)     H(rot)  DE(clash)    DE(int)     intcor
     19.88     -21.65       2.31        0.00     104.04       1.45       0.07       1.70       ----

> <Gold.Chemscore.Fitness>
19.8810

> <Gold.Chemscore.DG>
-21.6532

> <Gold.Chemscore.ZeroCoef>
-5.4800

> <Gold.Chemscore.Hbond>
2.3051

> <Gold.Chemscore.Metal>
0.0000

> <Gold.Chemscore.Lipo>
104.0446

> <Gold.Chemscore.Internal_Hbond>
0.0000

> <Gold.Chemscore.DEClash>
0.0727

> <Gold.Chemscore.DEInternal>
1.6995

> <Gold.Chemscore.Rot>
1.4450

> <Gold.Chemscore.Internal.Correction>
   9.000000E+99

> <Gold.Chemscore.Hbonds>
donor molecule, donor type, donor heavy atom, donor atom, acceptor molecule, acceptor atom, score
      P1  H  6896  6907       L1    20  0.10
      P1  H  6931  6943       L1    19  0.20
      P1  H  7997  8009       L1     9  0.95

> <Gold.Chemscore.Hbond.Weighted>
-7.6992

> <Gold.Chemscore.Metal.Weighted>
-0.0000

> <Gold.Chemscore.Lipo.Weighted>
-12.1732

> <Gold.Chemscore.Internal_Hbond.Weighted>
0.0000

> <Gold.Chemscore.DEClash.Weighted>
0.0727

> <Gold.Chemscore.DEInternal.Weighted>
1.6995

> <Gold.Chemscore.Rot.Weighted>
3.6992

> <Gold.Chemscore.Internal.Correction.Weighted>
   9.000000E+99

> <Gold.Protein.RotatedTorsions>
[ 6907 6896 6895 6894 ] final  -81.57 input  -60.11 | X-H torsion
[ 7974 7965 7964 7962 ] final   17.22 input  175.53 | X-H torsion
[ 8008 7997 7996 7995 ] final -179.11 input   59.86 | X-H torsion
[ 10167 10162 10161 10158 ] final  -52.73 input  -65.29 | X-H torsion
[ 10718 10713 10712 10709 ] final   13.13 input   66.30 | X-H torsion
[ 10763 10752 10751 10750 ] final  -51.80 input  -60.55 | X-H torsion
[ 11005 11000 10999 10996 ] final  148.72 input  -57.11 | X-H torsion

> <Gold.Protein.ActiveResidues>
 VAL166  LYS551  ARG553  GLY616  TRP617  ASP618  TYR619  PRO620  LYS621  CYS622 
 ASP623  PHE694  ASN695  SER759  ASP760  ASP761  ALA762  ILE779  LEU786  VAL792 
 PHE793  MET794  SER795  GLU796  ALA797  LYS798  CYS799  TRP800  GLU811  SER814 

> <Gold.Protein.RotatedAtoms>
  150.6910  134.3798  159.5028 H   0  0  0  0  0  0  0  0  0  0  0  0  # atno 6907 bound_to 6896
  152.1602  134.8916  160.0551 H   0  0  0  0  0  0  0  0  0  0  0  0  # atno 6908 bound_to 6896
  151.9980  133.3780  159.4207 H   0  0  0  0  0  0  0  0  0  0  0  0  # atno 6909 bound_to 6896
  146.2225  139.8633  142.8600 H   0  0  0  0  0  0  0  0  0  0  0  0  # atno 7974 bound_to 7965
  156.0266  140.1273  157.0302 H   0  0  0  0  0  0  0  0  0  0  0  0  # atno 8008 bound_to 7997
  154.4333  140.1058  156.6110 H   0  0  0  0  0  0  0  0  0  0  0  0  # atno 8009 bound_to 7997
  155.5867  140.3469  155.4557 H   0  0  0  0  0  0  0  0  0  0  0  0  # atno 8010 bound_to 7997
  140.6522  143.2574  151.4690 H   0  0  0  0  0  0  0  0  0  0  0  0  # atno 10167 bound_to 10162
  157.0202  130.6152  149.5720 H   0  0  0  0  0  0  0  0  0  0  0  0  # atno 10718 bound_to 10713
  154.1324  135.6518  153.4925 H   0  0  0  0  0  0  0  0  0  0  0  0  # atno 10763 bound_to 10752
  153.0191  135.5296  154.6988 H   0  0  0  0  0  0  0  0  0  0  0  0  # atno 10764 bound_to 10752
  154.6226  135.2966  155.0279 H   0  0  0  0  0  0  0  0  0  0  0  0  # atno 10765 bound_to 10752
  140.0984  134.8998  157.1758 H   0  0  0  0  0  0  0  0  0  0  0  0  # atno 11005 bound_to 11000
  145.2682  141.0100  143.3787 LP  0  0  0  0  0  0  0  0  0  0  0  0  # atno 17320 bound_to 7965
  144.9244  139.4372  143.6525 LP  0  0  0  0  0  0  0  0  0  0  0  0  # atno 17321 bound_to 7965
  139.5739  144.1865  152.1875 LP  0  0  0  0  0  0  0  0  0  0  0  0  # atno 17342 bound_to 10162
  140.1170  144.5407  150.6888 LP  0  0  0  0  0  0  0  0  0  0  0  0  # atno 17343 bound_to 10162
  156.0105  130.5196  150.7972 LP  0  0  0  0  0  0  0  0  0  0  0  0  # atno 17370 bound_to 10713
  157.5255  131.0934  151.0023 LP  0  0  0  0  0  0  0  0  0  0  0  0  # atno 17371 bound_to 10713
  140.3254  134.2869  155.7238 LP  0  0  0  0  0  0  0  0  0  0  0  0  # atno 17394 bound_to 11000
  141.2098  133.7737  156.9970 LP  0  0  0  0  0  0  0  0  0  0  0  0  # atno 17395 bound_to 11000

$$$$
