AV-unprocessed.smi:3298|AV-procd|sdf|12645|dock1
  -GOLD-   2272018583D 1   1.00000     0.00000
 Structure written by MMmdl.
 36 37  0  0  0  0  0  0  0  0  2 V2000
  146.2710  142.9155  153.9664 C   0  0  0  0  0  0  0  0  0  0  0  0
  147.2841  141.7976  154.0948 C   0  0  0  0  0  0  0  0  0  0  0  0
  147.0141  140.4814  153.6626 C   0  0  0  0  0  0  0  0  0  0  0  0
  147.9967  139.4789  153.8208 C   0  0  0  0  0  0  0  0  0  0  0  0
  147.6886  138.1718  153.3561 N   0  0  0  0  0  0  0  0  0  0  0  0
  146.4914  137.5616  153.3223 C   0  0  0  0  0  0  0  0  0  0  0  0
  145.4242  138.0736  153.6604 O   0  0  0  0  0  0  0  0  0  0  0  0
  146.5949  136.3118  152.8490 N   0  0  0  0  0  0  0  0  0  0  0  0
  145.4773  135.3890  152.6844 C   0  0  1  0  0  0  0  0  0  0  0  0
  144.4523  135.9622  151.7451 C   0  0  0  0  0  0  0  0  0  0  0  0
  144.2377  135.1887  150.6834 C   0  0  0  0  0  0  0  0  0  0  0  0
  145.0923  133.9484  150.6783 C   0  0  2  0  0  0  0  0  0  0  0  0
  144.2488  132.6682  150.5621 C   0  0  0  0  0  0  0  0  0  0  0  0
  143.4451  132.7167  149.4024 O   0  0  0  0  0  0  0  0  0  0  0  0
  145.8910  134.0575  152.0039 C   0  0  0  0  0  0  0  0  0  0  0  0
  149.2453  139.8366  154.3892 C   0  0  0  0  0  0  0  0  0  0  0  0
  149.4594  141.1674  154.8015 C   0  0  0  0  0  0  0  0  0  0  0  0
  148.4838  142.0873  154.6447 N   0  3  0  0  0  0  0  0  0  0  0  0
  144.9983  135.2011  153.6469 H   0  0  0  0  0  0  0  0  0  0  0  0
  145.7705  134.0219  149.8269 H   0  0  0  0  0  0  0  0  0  0  0  0
  145.3918  142.5868  153.4117 H   0  0  0  0  0  0  0  0  0  0  0  0
  146.7056  143.7661  153.4405 H   0  0  0  0  0  0  0  0  0  0  0  0
  145.9473  143.2485  154.9529 H   0  0  0  0  0  0  0  0  0  0  0  0
  146.0578  140.2418  153.2201 H   0  0  0  0  0  0  0  0  0  0  0  0
  148.4599  137.6589  152.9543 H   0  0  0  0  0  0  0  0  0  0  0  0
  147.5088  135.9691  152.5915 H   0  0  0  0  0  0  0  0  0  0  0  0
  143.9501  136.8978  151.9428 H   0  0  0  0  0  0  0  0  0  0  0  0
  143.5426  135.4094  149.8868 H   0  0  0  0  0  0  0  0  0  0  0  0
  144.8846  131.7828  150.5257 H   0  0  0  0  0  0  0  0  0  0  0  0
  143.5959  132.5624  151.4293 H   0  0  0  0  0  0  0  0  0  0  0  0
  142.7316  133.3173  149.5556 H   0  0  0  0  0  0  0  0  0  0  0  0
  146.9622  134.0162  151.8024 H   0  0  0  0  0  0  0  0  0  0  0  0
  145.6699  133.2216  152.6690 H   0  0  0  0  0  0  0  0  0  0  0  0
  150.0448  139.1202  154.5041 H   0  0  0  0  0  0  0  0  0  0  0  0
  150.3791  141.5221  155.2433 H   0  0  0  0  0  0  0  0  0  0  0  0
  148.6626  143.0444  154.9502 H   0  0  0  0  0  0  0  0  0  0  0  0
  1  2  1  0  0  0  0
  1 21  1  0  0  0  0
  1 22  1  0  0  0  0
  1 23  1  0  0  0  0
  2 18  1  0  0  0  0
  2  3  2  0  0  0  0
  3  4  1  0  0  0  0
  3 24  1  0  0  0  0
  4  5  1  0  0  0  0
  4 16  2  0  0  0  0
  5  6  1  0  0  0  0
  5 25  1  0  0  0  0
  6  7  2  0  0  0  0
  6  8  1  0  0  0  0
  8  9  1  0  0  0  0
  8 26  1  0  0  0  0
  9 19  1  0  0  0  0
  9 15  1  0  0  0  0
  9 10  1  0  0  0  0
 10 11  2  0  0  0  0
 10 27  1  0  0  0  0
 11 12  1  0  0  0  0
 11 28  1  0  0  0  0
 12 20  1  0  0  0  0
 12 13  1  0  0  0  0
 12 15  1  0  0  0  0
 13 14  1  0  0  0  0
 13 29  1  0  0  0  0
 13 30  1  0  0  0  0
 14 31  1  0  0  0  0
 15 32  1  0  0  0  0
 15 33  1  0  0  0  0
 16 17  1  0  0  0  0
 16 34  1  0  0  0  0
 17 18  2  0  0  0  0
 17 35  1  0  0  0  0
 18 36  1  0  0  0  0
M  CHG  1  18   1
M  END
> <s_m_source_file>
AV-unprocessed.smi

> <i_m_source_file_index>
3298

> <i_lp_mmshare_version>
43012

> <i_f3d_flags>
0

> <s_epik_input>
W0NIM11jMVtjSF1jKFtjSF1bY0hdbjEpW05IXUMoPU8pW05IXVtDQEBIXTJbQ0hdPVtDSF1bQ0BASF0oW0NIMl0yKVtDSDJdW09IXQ==

> <s_epik_cmdline>
J2VwaWtfcHl0aG9uJywgJy1waCcsICc3LjAnLCAnLXRuJywgJzgnLCAnLW1hJywgJzIwMCcsICctbWV0YWxfYmluZGluZycsICctaW1hZScsICc8aW5maWxlLm1hZT4nLCAnLW9tYWUnLCAnPG91dGZpbGUubWFlPic=

> <r_epik_Ionization_Penalty>
0.443901

> <r_epik_Ionization_Penalty_Charging>
0.443881

> <r_epik_Ionization_Penalty_Neutral>
1.94967e-05

> <r_epik_State_Penalty>
0.446172

> <r_epik_Charging_Adjusted_Penalty>
0.890053

> <i_epik_Tot_Q>
1

> <i_epik_Tot_abs_Q>
1

> <r_epik_Metal_State_Penalty>
0.675842

> <b_epik_Metal_Only>
0

> <s_lp_Force_Field>
OPLS_2005

> <r_lp_Energy>
25.7998

> <b_lp_Chiralities_Consistent>
1

> <s_lp_Variant>
AV-unprocessed.smi:3298-6

> <Gold.Version>
5.8.1

> <Gold.Id.Protein>
6NUR|6NUR_protein|mol2

> <Gold.PLP.Fitness>
49.8772

> <Gold.PLP.PLP>
-35.4804

> <Gold.PLP.part.hbond>
-4.0000

> <Gold.PLP.part.metal>
0.0000

> <Gold.PLP.part.buried>
-5.3579

> <Gold.PLP.part.nonpolar>
-26.8516

> <Gold.PLP.part.repulsive>
0.4246

> <Gold.PLP.ligand.clash>
0.0000

> <Gold.PLP.ligand.torsion>
0.2253

> <Gold.PLP.Chemscore.Hbond>
4.9440

> <Gold.PLP.Chemscore.CHOScore>
0.0000

> <Gold.PLP.Chemscore.Metal>
0.0000

> <Gold.Chemscore.Hbonds>
donor molecule, donor type, donor heavy atom, donor atom, acceptor molecule, acceptor atom, score
      L1  H     5    25       P1  7948  0.93
      L1  H     8    26       P1  7948  0.99
      L1  H    14    31       P1 10186  0.96
      L1  H    18    36       P1  8028  2.00

> <Gold.PLP.Chemscore.Internal.Correction>
0.0154

> <Gold.Rescore>
     Score         DG    S(hbond)    S(metal)    S(lipo)     H(rot)  DE(clash)    DE(int)     intcor
     21.03     -22.61       3.91        0.00      74.34       1.81       0.07       1.52       ----

> <Gold.Chemscore.Fitness>
21.0255

> <Gold.Chemscore.DG>
-22.6125

> <Gold.Chemscore.ZeroCoef>
-5.4800

> <Gold.Chemscore.Hbond>
3.9098

> <Gold.Chemscore.Metal>
0.0000

> <Gold.Chemscore.Lipo>
74.3368

> <Gold.Chemscore.Internal_Hbond>
0.0000

> <Gold.Chemscore.DEClash>
0.0664

> <Gold.Chemscore.DEInternal>
1.5205

> <Gold.Chemscore.Rot>
1.8061

> <Gold.Chemscore.Internal.Correction>
   9.000000E+99

> <Gold.Chemscore.Hbonds>
donor molecule, donor type, donor heavy atom, donor atom, acceptor molecule, acceptor atom, score
      L1  H     5    25       P1  7948  0.90
      L1  H     8    26       P1  7948  0.93
      L1  H    14    31       P1 10186  0.91
      L1  H    18    36       P1  8028  1.00

> <Gold.Chemscore.Hbond.Weighted>
-13.0587

> <Gold.Chemscore.Metal.Weighted>
-0.0000

> <Gold.Chemscore.Lipo.Weighted>
-8.6974

> <Gold.Chemscore.Internal_Hbond.Weighted>
0.0000

> <Gold.Chemscore.DEClash.Weighted>
0.0664

> <Gold.Chemscore.DEInternal.Weighted>
1.5205

> <Gold.Chemscore.Rot.Weighted>
4.6237

> <Gold.Chemscore.Internal.Correction.Weighted>
   9.000000E+99

> <Gold.Protein.RotatedTorsions>
[ 6907 6896 6895 6894 ] final  102.37 input  -60.11 | X-H torsion
[ 7974 7965 7964 7962 ] final  146.16 input  175.53 | X-H torsion
[ 8008 7997 7996 7995 ] final -123.22 input   59.86 | X-H torsion
[ 10167 10162 10161 10158 ] final   42.44 input  -65.29 | X-H torsion
[ 10718 10713 10712 10709 ] final   76.38 input   66.30 | X-H torsion
[ 10763 10752 10751 10750 ] final -137.44 input  -60.55 | X-H torsion
[ 11005 11000 10999 10996 ] final   80.99 input  -57.11 | X-H torsion

> <Gold.Protein.ActiveResidues>
 VAL166  LYS551  ARG553  GLY616  TRP617  ASP618  TYR619  PRO620  LYS621  CYS622 
 ASP623  PHE694  ASN695  SER759  ASP760  ASP761  ALA762  ILE779  LEU786  VAL792 
 PHE793  MET794  SER795  GLU796  ALA797  LYS798  CYS799  TRP800  GLU811  SER814 

> <Gold.Protein.RotatedAtoms>
  152.5325  133.9985  159.7883 H   0  0  0  0  0  0  0  0  0  0  0  0  # atno 6907 bound_to 6896
  151.0208  133.5870  159.2678 H   0  0  0  0  0  0  0  0  0  0  0  0  # atno 6908 bound_to 6896
  151.2911  135.0749  159.9258 H   0  0  0  0  0  0  0  0  0  0  0  0  # atno 6909 bound_to 6896
  144.8693  139.5871  143.5894 H   0  0  0  0  0  0  0  0  0  0  0  0  # atno 7974 bound_to 7965
  155.1770  140.0409  157.2874 H   0  0  0  0  0  0  0  0  0  0  0  0  # atno 8008 bound_to 7997
  154.6230  140.2505  155.7499 H   0  0  0  0  0  0  0  0  0  0  0  0  # atno 8009 bound_to 7997
  156.2444  140.2891  156.0546 H   0  0  0  0  0  0  0  0  0  0  0  0  # atno 8010 bound_to 7997
  140.3543  144.2310  150.6143 H   0  0  0  0  0  0  0  0  0  0  0  0  # atno 10167 bound_to 10162
  157.6671  130.9771  150.1488 H   0  0  0  0  0  0  0  0  0  0  0  0  # atno 10718 bound_to 10713
  154.8661  135.3642  154.5223 H   0  0  0  0  0  0  0  0  0  0  0  0  # atno 10763 bound_to 10752
  153.5853  135.7017  153.5451 H   0  0  0  0  0  0  0  0  0  0  0  0  # atno 10764 bound_to 10752
  153.3421  135.4095  155.1542 H   0  0  0  0  0  0  0  0  0  0  0  0  # atno 10765 bound_to 10752
  139.9114  134.7963  156.1983 H   0  0  0  0  0  0  0  0  0  0  0  0  # atno 11005 bound_to 11000
  146.2919  139.7163  142.9155 LP  0  0  0  0  0  0  0  0  0  0  0  0  # atno 17320 bound_to 7965
  145.4160  141.0401  143.2990 LP  0  0  0  0  0  0  0  0  0  0  0  0  # atno 17321 bound_to 7965
  140.5188  143.2271  151.8421 LP  0  0  0  0  0  0  0  0  0  0  0  0  # atno 17342 bound_to 10162
  139.4822  144.4861  151.9244 LP  0  0  0  0  0  0  0  0  0  0  0  0  # atno 17343 bound_to 10162
  156.2292  130.3680  149.8464 LP  0  0  0  0  0  0  0  0  0  0  0  0  # atno 17370 bound_to 10713
  156.6296  130.8660  151.3492 LP  0  0  0  0  0  0  0  0  0  0  0  0  # atno 17371 bound_to 10713
  141.0541  133.6874  156.1827 LP  0  0  0  0  0  0  0  0  0  0  0  0  # atno 17394 bound_to 11000
  140.6765  134.4813  157.5588 LP  0  0  0  0  0  0  0  0  0  0  0  0  # atno 17395 bound_to 11000

$$$$
