AV-unprocessed.smi:1787|AV-procd|sdf|7208|dock7
  -GOLD-   22720 8453D 1   1.00000     0.00000
 Structure written by MMmdl.
 45 47  0  0  0  0  0  0  0  0  2 V2000
  143.3678  137.0064  155.3778 O   0  0  0  0  0  0  0  0  0  0  0  0
  143.4185  137.9412  154.5801 C   0  0  0  0  0  0  0  0  0  0  0  0
  144.5409  138.6219  154.3101 N   0  0  0  0  0  0  0  0  0  0  0  0
  145.8554  138.3708  154.9014 C   0  0  0  0  0  0  0  0  0  0  0  0
  146.9918  138.1836  153.8440 C   0  0  1  0  0  0  0  0  0  0  0  0
  146.6849  136.9679  153.0018 N   0  3  0  0  0  0  0  0  0  0  0  0
  146.4609  135.7216  153.7873 C   0  0  0  0  0  0  0  0  0  0  0  0
  146.3548  134.5013  152.8611 C   0  0  0  0  0  0  0  0  0  0  0  0
  145.2838  134.7006  151.9511 O   0  0  0  0  0  0  0  0  0  0  0  0
  145.5144  135.8244  151.1149 C   0  0  0  0  0  0  0  0  0  0  0  0
  145.6291  137.1066  151.9594 C   0  0  0  0  0  0  0  0  0  0  0  0
  147.1377  139.4714  152.9977 C   0  0  0  0  0  0  0  0  0  0  0  0
  147.7622  140.5691  153.8716 C   0  0  0  0  0  0  0  0  0  0  0  0
  148.8145  139.7704  155.1098 S   0  0  0  0  0  0  0  0  0  0  0  0
  148.3631  138.1042  154.5678 C   0  0  0  0  0  0  0  0  0  0  0  0
  142.3825  138.4255  153.8741 N   0  0  0  0  0  0  0  0  0  0  0  0
  141.0311  137.9850  153.8450 C   0  0  0  0  0  0  0  0  0  0  0  0
  140.5765  136.7382  154.3407 C   0  0  0  0  0  0  0  0  0  0  0  0
  139.2079  136.4233  154.2357 C   0  0  0  0  0  0  0  0  0  0  0  0
  138.3450  137.3600  153.6345 C   0  0  0  0  0  0  0  0  0  0  0  0
  138.7658  138.5464  153.1484 N   0  0  0  0  0  0  0  0  0  0  0  0
  140.0783  138.8419  153.2540 C   0  0  0  0  0  0  0  0  0  0  0  0
  144.4773  139.3908  153.6591 H   0  0  0  0  0  0  0  0  0  0  0  0
  146.0762  139.2248  155.5409 H   0  0  0  0  0  0  0  0  0  0  0  0
  145.7993  137.5274  155.5905 H   0  0  0  0  0  0  0  0  0  0  0  0
  147.2726  135.5513  154.4924 H   0  0  0  0  0  0  0  0  0  0  0  0
  145.5428  135.8048  154.3700 H   0  0  0  0  0  0  0  0  0  0  0  0
  147.2892  134.3335  152.3229 H   0  0  0  0  0  0  0  0  0  0  0  0
  146.1573  133.6027  153.4458 H   0  0  0  0  0  0  0  0  0  0  0  0
  146.4180  135.6692  150.5229 H   0  0  0  0  0  0  0  0  0  0  0  0
  144.6873  135.9136  150.4103 H   0  0  0  0  0  0  0  0  0  0  0  0
  144.6700  137.3383  152.4238 H   0  0  0  0  0  0  0  0  0  0  0  0
  145.8655  137.9090  151.2631 H   0  0  0  0  0  0  0  0  0  0  0  0
  147.8010  139.2849  152.1525 H   0  0  0  0  0  0  0  0  0  0  0  0
  146.1884  139.8098  152.5813 H   0  0  0  0  0  0  0  0  0  0  0  0
  148.3356  141.2805  153.2769 H   0  0  0  0  0  0  0  0  0  0  0  0
  146.9856  141.1282  154.3940 H   0  0  0  0  0  0  0  0  0  0  0  0
  148.3863  137.3929  155.3923 H   0  0  0  0  0  0  0  0  0  0  0  0
  149.1718  137.8400  153.8898 H   0  0  0  0  0  0  0  0  0  0  0  0
  142.5762  139.2395  153.3093 H   0  0  0  0  0  0  0  0  0  0  0  0
  141.2399  136.0141  154.7863 H   0  0  0  0  0  0  0  0  0  0  0  0
  138.8282  135.4823  154.6051 H   0  0  0  0  0  0  0  0  0  0  0  0
  137.2904  137.1490  153.5378 H   0  0  0  0  0  0  0  0  0  0  0  0
  140.3778  139.7992  152.8528 H   0  0  0  0  0  0  0  0  0  0  0  0
  147.5334  136.8086  152.4773 H   0  0  0  0  0  0  0  0  0  0  0  0
  1  2  2  0  0  0  0
  2  3  1  0  0  0  0
  2 16  1  0  0  0  0
  3  4  1  0  0  0  0
  3 23  1  0  0  0  0
  4  5  1  0  0  0  0
  4 24  1  0  0  0  0
  4 25  1  0  0  0  0
  5 15  1  0  0  0  0
  5  6  1  0  0  0  0
  5 12  1  0  0  0  0
  6 11  1  0  0  0  0
  6  7  1  0  0  0  0
  6 45  1  0  0  0  0
  7  8  1  0  0  0  0
  7 26  1  0  0  0  0
  7 27  1  0  0  0  0
  8  9  1  0  0  0  0
  8 28  1  0  0  0  0
  8 29  1  0  0  0  0
  9 10  1  0  0  0  0
 10 11  1  0  0  0  0
 10 30  1  0  0  0  0
 10 31  1  0  0  0  0
 11 32  1  0  0  0  0
 11 33  1  0  0  0  0
 12 13  1  0  0  0  0
 12 34  1  0  0  0  0
 12 35  1  0  0  0  0
 13 14  1  0  0  0  0
 13 36  1  0  0  0  0
 13 37  1  0  0  0  0
 14 15  1  0  0  0  0
 15 38  1  0  0  0  0
 15 39  1  0  0  0  0
 16 17  1  0  0  0  0
 16 40  1  0  0  0  0
 17 22  1  0  0  0  0
 17 18  2  0  0  0  0
 18 19  1  0  0  0  0
 18 41  1  0  0  0  0
 19 20  2  0  0  0  0
 19 42  1  0  0  0  0
 20 21  1  0  0  0  0
 20 43  1  0  0  0  0
 21 22  2  0  0  0  0
 22 44  1  0  0  0  0
M  CHG  1   6   1
M  END
> <s_m_source_file>
AV-unprocessed.smi

> <i_m_source_file_index>
1787

> <i_lp_mmshare_version>
43012

> <i_f3d_flags>
0

> <s_epik_input>
W2NIXTFuW2NIXVtjSF1bY0hdYzFbTkhdQyg9TylbTkhdW0NIMl1bQ0BdMihbQ0gyXVtDSDJdU1tDSDJdMilOM1tDSDJdW0NIMl1PW0NIMl1bQ0gyXTM=

> <s_epik_cmdline>
J2VwaWtfcHl0aG9uJywgJy1waCcsICc3LjAnLCAnLXRuJywgJzgnLCAnLW1hJywgJzIwMCcsICctbWV0YWxfYmluZGluZycsICctaW1hZScsICc8aW5maWxlLm1hZT4nLCAnLW9tYWUnLCAnPG91dGZpbGUubWFlPic=

> <r_epik_Ionization_Penalty>
2.03633

> <r_epik_Ionization_Penalty_Charging>
2.03219

> <r_epik_Ionization_Penalty_Neutral>
0.00414252

> <r_epik_State_Penalty>
2.16328

> <r_epik_Charging_Adjusted_Penalty>
4.19546

> <i_epik_Tot_Q>
1

> <i_epik_Tot_abs_Q>
1

> <r_epik_Metal_State_Penalty>
2.16381

> <b_epik_Metal_Only>
0

> <s_lp_Force_Field>
OPLS_2005

> <r_lp_Energy>
45.3922

> <b_lp_Chiralities_Consistent>
1

> <s_lp_Variant>
AV-unprocessed.smi:1787-3

> <Gold.Version>
5.8.1

> <Gold.Id.Protein>
6NUR|6NUR_protein|mol2

> <Gold.PLP.Fitness>
43.6628

> <Gold.PLP.PLP>
-29.1631

> <Gold.PLP.part.hbond>
-3.0000

> <Gold.PLP.part.metal>
0.0000

> <Gold.PLP.part.buried>
0.7607

> <Gold.PLP.part.nonpolar>
-26.5782

> <Gold.PLP.part.repulsive>
0.2778

> <Gold.PLP.ligand.clash>
0.0000

> <Gold.PLP.ligand.torsion>
0.3028

> <Gold.PLP.Chemscore.Hbond>
4.0000

> <Gold.PLP.Chemscore.CHOScore>
0.9945

> <Gold.PLP.Chemscore.Metal>
0.0000

> <Gold.Chemscore.Hbonds>
donor molecule, donor type, donor heavy atom, donor atom, acceptor molecule, acceptor atom, score
      L1  H     3    23       P1 10175  1.00
      L1  H     6    45       P1  7948  2.00
      L1  H    16    40       P1 10175  1.00
      L1  C    22    44       P1 10160  1.00

> <Gold.PLP.Chemscore.Internal.Correction>
0.1217

> <Gold.Rescore>
     Score         DG    S(hbond)    S(metal)    S(lipo)     H(rot)  DE(clash)    DE(int)     intcor
     19.11     -20.80       2.95        0.00      79.18       1.49       0.05       1.65       ----

> <Gold.Chemscore.Fitness>
19.1064

> <Gold.Chemscore.DG>
-20.8028

> <Gold.Chemscore.ZeroCoef>
-5.4800

> <Gold.Chemscore.Hbond>
2.9530

> <Gold.Chemscore.Metal>
0.0000

> <Gold.Chemscore.Lipo>
79.1788

> <Gold.Chemscore.Internal_Hbond>
0.0000

> <Gold.Chemscore.DEClash>
0.0509

> <Gold.Chemscore.DEInternal>
1.6455

> <Gold.Chemscore.Rot>
1.4860

> <Gold.Chemscore.Internal.Correction>
   9.000000E+99

> <Gold.Chemscore.Hbonds>
donor molecule, donor type, donor heavy atom, donor atom, acceptor molecule, acceptor atom, score
      L1  H     3    23       P1 10175  0.98
      L1  H     6    45       P1  7948  1.00
      L1  H    16    40       P1 10175  0.99

> <Gold.Chemscore.Hbond.Weighted>
-9.8631

> <Gold.Chemscore.Metal.Weighted>
-0.0000

> <Gold.Chemscore.Lipo.Weighted>
-9.2639

> <Gold.Chemscore.Internal_Hbond.Weighted>
0.0000

> <Gold.Chemscore.DEClash.Weighted>
0.0509

> <Gold.Chemscore.DEInternal.Weighted>
1.6455

> <Gold.Chemscore.Rot.Weighted>
3.8042

> <Gold.Chemscore.Internal.Correction.Weighted>
   9.000000E+99

> <Gold.Protein.RotatedTorsions>
[ 6907 6896 6895 6894 ] final  -59.29 input  -60.11 | X-H torsion
[ 7974 7965 7964 7962 ] final   87.50 input  175.53 | X-H torsion
[ 8008 7997 7996 7995 ] final   95.04 input   59.86 | X-H torsion
[ 10167 10162 10161 10158 ] final   50.00 input  -65.29 | X-H torsion
[ 10718 10713 10712 10709 ] final  -73.46 input   66.30 | X-H torsion
[ 10763 10752 10751 10750 ] final    2.94 input  -60.55 | X-H torsion
[ 11005 11000 10999 10996 ] final  117.43 input  -57.11 | X-H torsion

> <Gold.Protein.ActiveResidues>
 VAL166  LYS551  ARG553  GLY616  TRP617  ASP618  TYR619  PRO620  LYS621  CYS622 
 ASP623  PHE694  ASN695  SER759  ASP760  ASP761  ALA762  ILE779  LEU786  VAL792 
 PHE793  MET794  SER795  GLU796  ALA797  LYS798  CYS799  TRP800  GLU811  SER814 

> <Gold.Protein.RotatedAtoms>
  150.7941  134.6987  159.6537 H   0  0  0  0  0  0  0  0  0  0  0  0  # atno 6907 bound_to 6896
  152.4051  134.6217  160.0062 H   0  0  0  0  0  0  0  0  0  0  0  0  # atno 6908 bound_to 6896
  151.6477  133.3285  159.3181 H   0  0  0  0  0  0  0  0  0  0  0  0  # atno 6909 bound_to 6896
  145.5581  139.2301  143.2474 H   0  0  0  0  0  0  0  0  0  0  0  0  # atno 7974 bound_to 7965
  156.0646  140.3292  155.7502 H   0  0  0  0  0  0  0  0  0  0  0  0  # atno 8008 bound_to 7997
  155.5402  140.0601  157.2889 H   0  0  0  0  0  0  0  0  0  0  0  0  # atno 8009 bound_to 7997
  154.4498  140.1912  156.0571 H   0  0  0  0  0  0  0  0  0  0  0  0  # atno 8010 bound_to 7997
  140.2770  144.3200  150.6274 H   0  0  0  0  0  0  0  0  0  0  0  0  # atno 10167 bound_to 10162
  156.0279  130.4395  150.2746 H   0  0  0  0  0  0  0  0  0  0  0  0  # atno 10718 bound_to 10713
  153.2893  135.6947  153.7308 H   0  0  0  0  0  0  0  0  0  0  0  0  # atno 10763 bound_to 10752
  153.6265  135.3418  155.3028 H   0  0  0  0  0  0  0  0  0  0  0  0  # atno 10764 bound_to 10752
  154.8519  135.4398  154.1971 H   0  0  0  0  0  0  0  0  0  0  0  0  # atno 10765 bound_to 10752
  139.9074  134.9610  156.7349 H   0  0  0  0  0  0  0  0  0  0  0  0  # atno 11005 bound_to 11000
  146.1870  140.6406  142.9163 LP  0  0  0  0  0  0  0  0  0  0  0  0  # atno 17320 bound_to 7965
  144.7496  140.5157  143.6811 LP  0  0  0  0  0  0  0  0  0  0  0  0  # atno 17321 bound_to 7965
  140.5843  143.2171  151.7371 LP  0  0  0  0  0  0  0  0  0  0  0  0  # atno 17342 bound_to 10162
  139.4973  144.4034  152.0158 LP  0  0  0  0  0  0  0  0  0  0  0  0  # atno 17343 bound_to 10162
  157.0849  131.0154  151.3143 LP  0  0  0  0  0  0  0  0  0  0  0  0  # atno 17370 bound_to 10713
  157.4898  130.7815  149.7497 LP  0  0  0  0  0  0  0  0  0  0  0  0  # atno 17371 bound_to 10713
  140.6895  133.9402  155.7958 LP  0  0  0  0  0  0  0  0  0  0  0  0  # atno 17394 bound_to 11000
  141.0452  134.0565  157.3853 LP  0  0  0  0  0  0  0  0  0  0  0  0  # atno 17395 bound_to 11000

$$$$
