AV-unprocessed.smi:2480|AV-procd|sdf|9770|dock3
  -GOLD-   2272013413D 1   1.00000     0.00000
 Structure written by MMmdl.
 33 34  0  0  0  0  0  0  0  0  3 V2000
  151.1825  140.9724  156.8610 O   0  0  0  0  0  0  0  0  0  0  0  0
  150.5839  141.9990  156.5473 C   0  0  0  0  0  0  0  0  0  0  0  0
  149.5677  142.0594  155.6638 N   0  0  0  0  0  0  0  0  0  0  0  0
  148.9522  141.0131  154.9171 C   0  0  0  0  0  0  0  0  0  0  0  0
  149.6636  139.8654  154.4875 C   0  0  0  0  0  0  0  0  0  0  0  0
  148.9971  138.8987  153.7114 C   0  0  0  0  0  0  0  0  0  0  0  0
  147.7075  139.0091  153.3377 N   0  0  0  0  0  0  0  0  0  0  0  0
  147.0328  140.1086  153.7310 C   0  0  0  0  0  0  0  0  0  0  0  0
  147.5929  141.1406  154.5176 C   0  0  0  0  0  0  0  0  0  0  0  0
  146.7566  142.2990  154.8831 N   0  3  0  0  0  0  0  0  0  0  0  0
  146.6476  142.5645  156.0753 O   0  0  0  0  0  0  0  0  0  0  0  0
  146.2333  142.9530  153.9875 O   0  5  0  0  0  0  0  0  0  0  0  0
  150.9073  143.1850  157.0964 N   0  0  0  0  0  0  0  0  0  0  0  0
  151.9493  143.4825  158.0822 C   0  0  1  0  0  0  0  0  0  0  0  0
  151.7985  144.9059  158.6022 C   0  0  0  0  0  0  0  0  0  0  0  0
  151.9027  145.2425  159.8990 C   0  0  0  0  0  0  0  0  0  0  0  0
  152.1943  144.2429  161.0026 C   0  0  0  0  0  0  0  0  0  0  0  0
  152.7006  142.8988  160.4495 C   0  0  0  0  0  0  0  0  0  0  0  0
  151.8905  142.4462  159.2248 C   0  0  0  0  0  0  0  0  0  0  0  0
  149.1296  142.9645  155.5721 H   0  0  0  0  0  0  0  0  0  0  0  0
  150.7066  139.7139  154.7169 H   0  0  0  0  0  0  0  0  0  0  0  0
  149.5197  138.0168  153.3714 H   0  0  0  0  0  0  0  0  0  0  0  0
  146.0032  140.1618  153.4085 H   0  0  0  0  0  0  0  0  0  0  0  0
  150.3802  143.9827  156.7711 H   0  0  0  0  0  0  0  0  0  0  0  0
  152.9358  143.4125  157.6212 H   0  0  0  0  0  0  0  0  0  0  0  0
  151.5933  145.6753  157.8723 H   0  0  0  0  0  0  0  0  0  0  0  0
  151.7624  146.2708  160.1985 H   0  0  0  0  0  0  0  0  0  0  0  0
  152.9317  144.6649  161.6856 H   0  0  0  0  0  0  0  0  0  0  0  0
  151.2782  144.0949  161.5751 H   0  0  0  0  0  0  0  0  0  0  0  0
  153.7488  142.9967  160.1644 H   0  0  0  0  0  0  0  0  0  0  0  0
  152.6643  142.1385  161.2302 H   0  0  0  0  0  0  0  0  0  0  0  0
  150.8552  142.2898  159.5320 H   0  0  0  0  0  0  0  0  0  0  0  0
  152.2542  141.4810  158.8701 H   0  0  0  0  0  0  0  0  0  0  0  0
  1  2  2  0  0  0  0
  2  3  1  0  0  0  0
  2 13  1  0  0  0  0
  3  4  1  0  0  0  0
  3 20  1  0  0  0  0
  4  9  1  0  0  0  0
  4  5  2  0  0  0  0
  5  6  1  0  0  0  0
  5 21  1  0  0  0  0
  6  7  2  0  0  0  0
  6 22  1  0  0  0  0
  7  8  1  0  0  0  0
  8  9  2  0  0  0  0
  8 23  1  0  0  0  0
  9 10  1  0  0  0  0
 10 11  2  0  0  0  0
 10 12  1  0  0  0  0
 13 14  1  0  0  0  0
 13 24  1  0  0  0  0
 14 19  1  0  0  0  0
 14 15  1  0  0  0  0
 14 25  1  0  0  0  0
 15 16  2  0  0  0  0
 15 26  1  0  0  0  0
 16 17  1  0  0  0  0
 16 27  1  0  0  0  0
 17 18  1  0  0  0  0
 17 28  1  0  0  0  0
 17 29  1  0  0  0  0
 18 19  1  0  0  0  0
 18 30  1  0  0  0  0
 18 31  1  0  0  0  0
 19 32  1  0  0  0  0
 19 33  1  0  0  0  0
M  CHG  1  10   1
M  CHG  1  12  -1
M  END
> <s_m_source_file>
AV-unprocessed.smi

> <i_m_source_file_index>
2480

> <i_lp_mmshare_version>
43012

> <i_f3d_flags>
0

> <s_epik_input>
W0NIMl0xW0NIMl1bQ0gyXVtDSF09W0NIXVtDQEhdMVtOSF1DKD1PKVtOSF1jMltjSF1bY0hdbltjSF1jMltOK10oPU8pW08tXQ==

> <s_epik_cmdline>
J2VwaWtfcHl0aG9uJywgJy1waCcsICc3LjAnLCAnLXRuJywgJzgnLCAnLW1hJywgJzIwMCcsICctbWV0YWxfYmluZGluZycsICctaW1hZScsICc8aW5maWxlLm1hZT4nLCAnLW9tYWUnLCAnPG91dGZpbGUubWFlPic=

> <r_lp_tautomer_probability>
1

> <r_epik_Ionization_Penalty>
0.000149203

> <r_epik_Ionization_Penalty_Charging>
0

> <r_epik_Ionization_Penalty_Neutral>
0.000149203

> <r_epik_State_Penalty>
-0

> <r_epik_Charging_Adjusted_Penalty>
0

> <i_epik_Tot_Q>
0

> <i_epik_Tot_abs_Q>
2

> <r_epik_Metal_State_Penalty>
-0

> <b_epik_Metal_Only>
0

> <s_lp_Force_Field>
OPLS_2005

> <r_lp_Energy>
27.1636

> <b_lp_Chiralities_Consistent>
1

> <s_lp_Variant>
AV-unprocessed.smi:2480-2

> <Gold.Version>
5.8.1

> <Gold.Id.Protein>
6NUR|6NUR_protein|mol2

> <Gold.PLP.Fitness>
50.3869

> <Gold.PLP.PLP>
-41.0685

> <Gold.PLP.part.hbond>
-2.0000

> <Gold.PLP.part.metal>
0.0000

> <Gold.PLP.part.buried>
-5.0860

> <Gold.PLP.part.nonpolar>
-35.5740

> <Gold.PLP.part.repulsive>
1.5041

> <Gold.PLP.ligand.clash>
0.0000

> <Gold.PLP.ligand.torsion>
1.3463

> <Gold.PLP.Chemscore.Hbond>
2.0000

> <Gold.PLP.Chemscore.CHOScore>
2.0000

> <Gold.PLP.Chemscore.Metal>
0.0000

> <Gold.Chemscore.Hbonds>
donor molecule, donor type, donor heavy atom, donor atom, acceptor molecule, acceptor atom, score
      L1  H     3    20       P1  8028  1.00
      L1  H    13    24       P1  8028  1.00
      L1  C     6    22       P1  7948  1.00
      L1  C     8    23       P1 10175  1.00

> <Gold.PLP.Chemscore.Internal.Correction>
0.0111

> <Gold.Rescore>
     Score         DG    S(hbond)    S(metal)    S(lipo)     H(rot)  DE(clash)    DE(int)     intcor
     18.03     -21.60       1.95        0.00     103.88       1.00       0.12       3.45       ----

> <Gold.Chemscore.Fitness>
18.0330

> <Gold.Chemscore.DG>
-21.6007

> <Gold.Chemscore.ZeroCoef>
-5.4800

> <Gold.Chemscore.Hbond>
1.9541

> <Gold.Chemscore.Metal>
0.0000

> <Gold.Chemscore.Lipo>
103.8806

> <Gold.Chemscore.Internal_Hbond>
0.0000

> <Gold.Chemscore.DEClash>
0.1157

> <Gold.Chemscore.DEInternal>
3.4519

> <Gold.Chemscore.Rot>
1.0000

> <Gold.Chemscore.Internal.Correction>
   9.000000E+99

> <Gold.Chemscore.Hbonds>
donor molecule, donor type, donor heavy atom, donor atom, acceptor molecule, acceptor atom, score
      L1  H     3    20       P1  8028  1.00
      L1  H    13    24       P1  8028  0.93

> <Gold.Chemscore.Hbond.Weighted>
-6.5267

> <Gold.Chemscore.Metal.Weighted>
-0.0000

> <Gold.Chemscore.Lipo.Weighted>
-12.1540

> <Gold.Chemscore.Internal_Hbond.Weighted>
0.0000

> <Gold.Chemscore.DEClash.Weighted>
0.1157

> <Gold.Chemscore.DEInternal.Weighted>
3.4519

> <Gold.Chemscore.Rot.Weighted>
2.5600

> <Gold.Chemscore.Internal.Correction.Weighted>
   9.000000E+99

> <Gold.Protein.RotatedTorsions>
[ 6907 6896 6895 6894 ] final  -90.47 input  -60.11 | X-H torsion
[ 7974 7965 7964 7962 ] final -116.46 input  175.53 | X-H torsion
[ 8008 7997 7996 7995 ] final  165.06 input   59.86 | X-H torsion
[ 10167 10162 10161 10158 ] final  163.10 input  -65.29 | X-H torsion
[ 10718 10713 10712 10709 ] final -129.71 input   66.30 | X-H torsion
[ 10763 10752 10751 10750 ] final  154.41 input  -60.55 | X-H torsion
[ 11005 11000 10999 10996 ] final  -86.07 input  -57.11 | X-H torsion

> <Gold.Protein.ActiveResidues>
 VAL166  LYS551  ARG553  GLY616  TRP617  ASP618  TYR619  PRO620  LYS621  CYS622 
 ASP623  PHE694  ASN695  SER759  ASP760  ASP761  ALA762  ILE779  LEU786  VAL792 
 PHE793  MET794  SER795  GLU796  ALA797  LYS798  CYS799  TRP800  GLU811  SER814 

> <Gold.Protein.RotatedAtoms>
  150.6882  134.2426  159.4478 H   0  0  0  0  0  0  0  0  0  0  0  0  # atno 6907 bound_to 6896
  152.0369  134.9732  160.0582 H   0  0  0  0  0  0  0  0  0  0  0  0  # atno 6908 bound_to 6896
  152.1249  133.4339  159.4730 H   0  0  0  0  0  0  0  0  0  0  0  0  # atno 6909 bound_to 6896
  145.0965  140.8524  143.3951 H   0  0  0  0  0  0  0  0  0  0  0  0  # atno 7974 bound_to 7965
  156.1831  140.1680  156.8237 H   0  0  0  0  0  0  0  0  0  0  0  0  # atno 8008 bound_to 7997
  154.5382  140.0742  156.8498 H   0  0  0  0  0  0  0  0  0  0  0  0  # atno 8009 bound_to 7997
  155.3267  140.3376  155.4242 H   0  0  0  0  0  0  0  0  0  0  0  0  # atno 8010 bound_to 7997
  139.4869  144.4371  151.8998 H   0  0  0  0  0  0  0  0  0  0  0  0  # atno 10167 bound_to 10162
  156.2073  130.6896  151.0609 H   0  0  0  0  0  0  0  0  0  0  0  0  # atno 10718 bound_to 10713
  154.1518  135.2814  155.3133 H   0  0  0  0  0  0  0  0  0  0  0  0  # atno 10763 bound_to 10752
  154.6212  135.5467  153.7580 H   0  0  0  0  0  0  0  0  0  0  0  0  # atno 10764 bound_to 10752
  153.0219  135.6439  154.1662 H   0  0  0  0  0  0  0  0  0  0  0  0  # atno 10765 bound_to 10752
  141.1634  133.7434  156.9107 H   0  0  0  0  0  0  0  0  0  0  0  0  # atno 11005 bound_to 11000
  145.1005  139.2826  143.5689 LP  0  0  0  0  0  0  0  0  0  0  0  0  # atno 17320 bound_to 7965
  146.3530  140.0570  142.8632 LP  0  0  0  0  0  0  0  0  0  0  0  0  # atno 17321 bound_to 7965
  140.3821  144.2722  150.5907 LP  0  0  0  0  0  0  0  0  0  0  0  0  # atno 17342 bound_to 10162
  140.5223  143.2262  151.8369 LP  0  0  0  0  0  0  0  0  0  0  0  0  # atno 17343 bound_to 10162
  157.7019  131.0772  150.6792 LP  0  0  0  0  0  0  0  0  0  0  0  0  # atno 17370 bound_to 10713
  156.6851  130.4578  149.5616 LP  0  0  0  0  0  0  0  0  0  0  0  0  # atno 17371 bound_to 10713
  140.1518  134.9225  157.2603 LP  0  0  0  0  0  0  0  0  0  0  0  0  # atno 17394 bound_to 11000
  140.2713  134.3456  155.7372 LP  0  0  0  0  0  0  0  0  0  0  0  0  # atno 17395 bound_to 11000

$$$$
