AV-unprocessed.smi:1815|AV-procd|sdf|7359|dock2
  -GOLD-   22720 9 23D 1   1.00000     0.00000
 Structure written by MMmdl.
 38 39  0  0  0  0  0  0  0  0  2 V2000
  150.9127  145.2631  159.2257 C   0  0  0  0  0  0  0  0  0  0  0  0
  152.0602  144.4381  158.6183 C   0  0  1  0  0  0  0  0  0  0  0  0
  152.9530  143.7731  159.6819 C   0  0  0  0  0  0  0  0  0  0  0  0
  152.2911  142.6497  160.3445 N   0  0  0  0  0  0  0  0  0  0  0  0
  153.1227  142.0457  161.3885 C   0  0  0  0  0  0  0  0  0  0  0  0
  154.3151  141.2089  160.8790 C   0  0  0  0  0  0  0  0  0  0  0  0
  154.0456  139.7747  160.8309 N   0  0  0  0  0  0  0  0  0  0  0  0
  154.5020  138.8587  161.6989 C   0  0  0  0  0  0  0  0  0  0  0  0
  155.1942  139.2070  162.6586 O   0  0  0  0  0  0  0  0  0  0  0  0
  154.1516  137.5904  161.3860 N   0  5  0  0  0  0  0  0  0  0  0  0
  154.2521  136.6234  162.3123 C   0  0  0  0  0  0  0  0  0  0  0  0
  154.6088  135.3680  162.0167 N   0  0  0  0  0  0  0  0  0  0  0  0
  154.6529  134.5266  163.1296 C   0  0  0  0  0  0  0  0  0  0  0  0
  154.3139  135.1541  164.2987 C   0  0  0  0  0  0  0  0  0  0  0  0
  153.9257  136.8304  164.0350 S   0  0  0  0  0  0  0  0  0  0  0  0
  151.9088  141.6863  159.3211 C   0  0  0  0  0  0  0  0  0  0  0  0
  150.9642  142.3149  158.2787 C   0  0  2  0  0  0  0  0  0  0  0  0
  150.6102  141.3357  157.1547 C   0  0  0  0  0  0  0  0  0  0  0  0
  151.5869  143.4572  157.6923 O   0  0  0  0  0  0  0  0  0  0  0  0
  151.3041  146.0640  159.8543 H   0  0  0  0  0  0  0  0  0  0  0  0
  150.2563  144.6562  159.8493 H   0  0  0  0  0  0  0  0  0  0  0  0
  150.3057  145.7212  158.4450 H   0  0  0  0  0  0  0  0  0  0  0  0
  152.6796  145.1281  158.0448 H   0  0  0  0  0  0  0  0  0  0  0  0
  153.8668  143.4204  159.2015 H   0  0  0  0  0  0  0  0  0  0  0  0
  153.2689  144.5272  160.3964 H   0  0  0  0  0  0  0  0  0  0  0  0
  153.5562  142.8414  161.9957 H   0  0  0  0  0  0  0  0  0  0  0  0
  152.5086  141.4625  162.0764 H   0  0  0  0  0  0  0  0  0  0  0  0
  154.6542  141.5882  159.9139 H   0  0  0  0  0  0  0  0  0  0  0  0
  155.1548  141.3478  161.5600 H   0  0  0  0  0  0  0  0  0  0  0  0
  153.4864  139.4418  160.0594 H   0  0  0  0  0  0  0  0  0  0  0  0
  154.9363  133.4932  162.9966 H   0  0  0  0  0  0  0  0  0  0  0  0
  154.2680  134.7362  165.2929 H   0  0  0  0  0  0  0  0  0  0  0  0
  152.8003  141.2954  158.8279 H   0  0  0  0  0  0  0  0  0  0  0  0
  151.4088  140.8349  159.7842 H   0  0  0  0  0  0  0  0  0  0  0  0
  150.0397  142.6234  158.7680 H   0  0  0  0  0  0  0  0  0  0  0  0
  150.1151  140.4481  157.5491 H   0  0  0  0  0  0  0  0  0  0  0  0
  151.5021  141.0120  156.6176 H   0  0  0  0  0  0  0  0  0  0  0  0
  149.9361  141.7990  156.4340 H   0  0  0  0  0  0  0  0  0  0  0  0
  1  2  1  0  0  0  0
  1 20  1  0  0  0  0
  1 21  1  0  0  0  0
  1 22  1  0  0  0  0
  2 19  1  0  0  0  0
  2  3  1  0  0  0  0
  2 23  1  0  0  0  0
  3  4  1  0  0  0  0
  3 24  1  0  0  0  0
  3 25  1  0  0  0  0
  4  5  1  0  0  0  0
  4 16  1  0  0  0  0
  5  6  1  0  0  0  0
  5 26  1  0  0  0  0
  5 27  1  0  0  0  0
  6  7  1  0  0  0  0
  6 28  1  0  0  0  0
  6 29  1  0  0  0  0
  7  8  1  0  0  0  0
  7 30  1  0  0  0  0
  8  9  2  0  0  0  0
  8 10  1  0  0  0  0
 10 11  1  0  0  0  0
 11 15  1  0  0  0  0
 11 12  2  0  0  0  0
 12 13  1  0  0  0  0
 13 14  2  0  0  0  0
 13 31  1  0  0  0  0
 14 15  1  0  0  0  0
 14 32  1  0  0  0  0
 16 17  1  0  0  0  0
 16 33  1  0  0  0  0
 16 34  1  0  0  0  0
 17 18  1  0  0  0  0
 17 19  1  0  0  0  0
 17 35  1  0  0  0  0
 18 36  1  0  0  0  0
 18 37  1  0  0  0  0
 18 38  1  0  0  0  0
M  CHG  1  10  -1
M  END
> <s_m_source_file>
AV-unprocessed.smi

> <i_m_source_file_index>
1815

> <i_lp_mmshare_version>
43012

> <i_f3d_flags>
0

> <s_epik_input>
W0NIM11bQ0BASF0xW0NIMl1OKFtDSDJdW0NASF0oTzEpW0NIM10pW0NIMl1bQ0gyXVtOSF1DKD1PKVtOSF1jMm5bY0hdW2NIXXMy

> <s_epik_cmdline>
J2VwaWtfcHl0aG9uJywgJy1waCcsICc3LjAnLCAnLXRuJywgJzgnLCAnLW1hJywgJzIwMCcsICctbWV0YWxfYmluZGluZycsICctaW1hZScsICc8aW5maWxlLm1hZT4nLCAnLW9tYWUnLCAnPG91dGZpbGUubWFlPic=

> <r_lp_tautomer_probability>
0.999

> <r_epik_Ionization_Penalty>
7.22374

> <r_epik_Ionization_Penalty_Charging>
5.82415

> <r_epik_Ionization_Penalty_Neutral>
1.39959

> <r_epik_State_Penalty>
6.03347

> <r_epik_Charging_Adjusted_Penalty>
11.8576

> <i_epik_Tot_Q>
-1

> <i_epik_Tot_abs_Q>
1

> <r_epik_Metal_State_Penalty>
2.01024

> <b_epik_Metal_Only>
1

> <s_lp_Force_Field>
OPLS_2005

> <r_lp_Energy>
24.221

> <b_lp_Chiralities_Consistent>
1

> <s_lp_Variant>
AV-unprocessed.smi:1815-10

> <Gold.Version>
5.8.1

> <Gold.Id.Protein>
6NUR|6NUR_protein|mol2

> <Gold.PLP.Fitness>
39.6477

> <Gold.PLP.PLP>
-41.0253

> <Gold.PLP.part.hbond>
0.0000

> <Gold.PLP.part.metal>
0.0000

> <Gold.PLP.part.buried>
-6.7668

> <Gold.PLP.part.nonpolar>
-34.6598

> <Gold.PLP.part.repulsive>
0.1488

> <Gold.PLP.ligand.clash>
0.0000

> <Gold.PLP.ligand.torsion>
0.7497

> <Gold.PLP.Chemscore.Hbond>
0.0000

> <Gold.PLP.Chemscore.CHOScore>
0.0000

> <Gold.PLP.Chemscore.Metal>
0.0000

> <Gold.PLP.Chemscore.Internal.Correction>
0.1219

> <Gold.Rescore>
     Score         DG    S(hbond)    S(metal)    S(lipo)     H(rot)  DE(clash)    DE(int)     intcor
     13.15     -14.10       0.00        0.00     107.95       1.57       0.03       0.91       ----

> <Gold.Chemscore.Fitness>
13.1536

> <Gold.Chemscore.DG>
-14.0968

> <Gold.Chemscore.ZeroCoef>
-5.4800

> <Gold.Chemscore.Hbond>
0.0000

> <Gold.Chemscore.Metal>
0.0000

> <Gold.Chemscore.Lipo>
107.9475

> <Gold.Chemscore.Internal_Hbond>
0.0000

> <Gold.Chemscore.DEClash>
0.0336

> <Gold.Chemscore.DEInternal>
0.9097

> <Gold.Chemscore.Rot>
1.5676

> <Gold.Chemscore.Internal.Correction>
   9.000000E+99

> <Gold.Chemscore.Hbond.Weighted>
-0.0000

> <Gold.Chemscore.Metal.Weighted>
-0.0000

> <Gold.Chemscore.Lipo.Weighted>
-12.6299

> <Gold.Chemscore.Internal_Hbond.Weighted>
0.0000

> <Gold.Chemscore.DEClash.Weighted>
0.0336

> <Gold.Chemscore.DEInternal.Weighted>
0.9097

> <Gold.Chemscore.Rot.Weighted>
4.0130

> <Gold.Chemscore.Internal.Correction.Weighted>
   9.000000E+99

> <Gold.Protein.RotatedTorsions>
[ 6907 6896 6895 6894 ] final  163.86 input  -60.11 | X-H torsion
[ 7974 7965 7964 7962 ] final  -65.69 input  175.53 | X-H torsion
[ 8008 7997 7996 7995 ] final   63.01 input   59.86 | X-H torsion
[ 10167 10162 10161 10158 ] final   27.50 input  -65.29 | X-H torsion
[ 10718 10713 10712 10709 ] final  158.72 input   66.30 | X-H torsion
[ 10763 10752 10751 10750 ] final  -52.94 input  -60.55 | X-H torsion
[ 11005 11000 10999 10996 ] final -103.54 input  -57.11 | X-H torsion

> <Gold.Protein.ActiveResidues>
 VAL166  LYS551  ARG553  GLY616  TRP617  ASP618  TYR619  PRO620  LYS621  CYS622 
 ASP623  PHE694  ASN695  SER759  ASP760  ASP761  ALA762  ILE779  LEU786  VAL792 
 PHE793  MET794  SER795  GLU796  ALA797  LYS798  CYS799  TRP800  GLU811  SER814 

> <Gold.Protein.RotatedAtoms>
  151.9188  133.3580  159.3889 H   0  0  0  0  0  0  0  0  0  0  0  0  # atno 6907 bound_to 6896
  150.7041  134.4657  159.5411 H   0  0  0  0  0  0  0  0  0  0  0  0  # atno 6908 bound_to 6896
  152.2276  134.8353  160.0528 H   0  0  0  0  0  0  0  0  0  0  0  0  # atno 6909 bound_to 6896
  145.7512  140.8908  143.0479 H   0  0  0  0  0  0  0  0  0  0  0  0  # atno 7974 bound_to 7965
  155.6234  140.3496  155.4659 H   0  0  0  0  0  0  0  0  0  0  0  0  # atno 8008 bound_to 7997
  156.0061  140.1223  157.0524 H   0  0  0  0  0  0  0  0  0  0  0  0  # atno 8009 bound_to 7997
  154.4265  140.1091  156.5750 H   0  0  0  0  0  0  0  0  0  0  0  0  # atno 8010 bound_to 7997
  140.4933  144.0432  150.6305 H   0  0  0  0  0  0  0  0  0  0  0  0  # atno 10167 bound_to 10162
  157.1740  131.0617  151.2167 H   0  0  0  0  0  0  0  0  0  0  0  0  # atno 10718 bound_to 10713
  154.1508  135.6490  153.4963 H   0  0  0  0  0  0  0  0  0  0  0  0  # atno 10763 bound_to 10752
  153.0138  135.5337  154.6810 H   0  0  0  0  0  0  0  0  0  0  0  0  # atno 10764 bound_to 10752
  154.6097  135.2952  155.0417 H   0  0  0  0  0  0  0  0  0  0  0  0  # atno 10765 bound_to 10752
  141.1141  133.8648  157.1499 H   0  0  0  0  0  0  0  0  0  0  0  0  # atno 11005 bound_to 11000
  144.6849  139.9593  143.7480 LP  0  0  0  0  0  0  0  0  0  0  0  0  # atno 17320 bound_to 7965
  146.0355  139.3374  143.0729 LP  0  0  0  0  0  0  0  0  0  0  0  0  # atno 17321 bound_to 7965
  140.3708  143.2856  152.0281 LP  0  0  0  0  0  0  0  0  0  0  0  0  # atno 17342 bound_to 10162
  139.4856  144.6232  151.7216 LP  0  0  0  0  0  0  0  0  0  0  0  0  # atno 17343 bound_to 10162
  157.4016  130.7336  149.6771 LP  0  0  0  0  0  0  0  0  0  0  0  0  # atno 17370 bound_to 10713
  155.9734  130.4119  150.4005 LP  0  0  0  0  0  0  0  0  0  0  0  0  # atno 17371 bound_to 10713
  140.0052  135.0011  157.0277 LP  0  0  0  0  0  0  0  0  0  0  0  0  # atno 17394 bound_to 11000
  140.4694  134.1402  155.7201 LP  0  0  0  0  0  0  0  0  0  0  0  0  # atno 17395 bound_to 11000

$$$$
