AV-unprocessed.smi:1867|AV-procd|sdf|7573|dock9
  -GOLD-   22720 9283D 1   1.00000     0.00000
 Structure written by MMmdl.
 53 56  0  0  0  0  0  0  0  0  3 V2000
  146.4448  140.5755  153.9364 O   0  0  0  0  0  0  0  0  0  0  0  0
  147.1639  139.6277  153.6319 C   0  0  0  0  0  0  0  0  0  0  0  0
  148.4421  139.4673  154.0303 N   0  0  0  0  0  0  0  0  0  0  0  0
  149.2435  140.3034  154.8568 C   0  0  0  0  0  0  0  0  0  0  0  0
  150.2697  139.6856  155.6029 C   0  0  0  0  0  0  0  0  0  0  0  0
  151.0935  140.4607  156.4446 C   0  0  0  0  0  0  0  0  0  0  0  0
  150.8848  141.8569  156.5356 C   0  0  0  0  0  0  0  0  0  0  0  0
  151.6603  142.6958  157.3584 N   0  0  0  0  0  0  0  0  0  0  0  0
  151.5320  144.1425  157.3106 C   0  0  0  0  0  0  0  0  0  0  0  0
  152.4240  144.6460  158.4448 C   0  0  0  0  0  0  0  0  0  0  0  0
  152.3213  143.5334  159.4884 C   0  0  0  0  0  0  0  0  0  0  0  0
  152.1506  142.2557  158.6583 C   0  0  0  0  0  0  0  0  0  0  0  0
  149.8842  142.4075  155.8085 N   0  3  0  0  0  0  0  0  0  0  0  0
  149.0722  141.7030  154.9908 C   0  0  0  0  0  0  0  0  0  0  0  0
  146.7059  138.6415  152.8400 N   0  0  0  0  0  0  0  0  0  0  0  0
  145.3793  138.5043  152.2376 C   0  0  1  0  0  0  0  0  0  0  0  0
  145.3760  137.8229  150.8714 C   0  0  0  0  0  0  0  0  0  0  0  0
  143.9244  137.3558  150.7455 C   0  0  0  0  0  0  0  0  0  0  0  0
  143.4843  137.0170  152.1184 N   0  3  2  0  0  0  0  0  0  0  0  0
  142.0616  137.3237  152.4059 C   0  0  0  0  0  0  0  0  0  0  0  0
  141.6993  136.9259  153.8491 C   0  0  0  0  0  0  0  0  0  0  0  0
  142.6941  137.4705  154.8966 C   0  0  0  0  0  0  0  0  0  0  0  0
  143.8036  138.3241  154.2634 C   0  0  0  0  0  0  0  0  0  0  0  0
  144.4701  137.5933  153.0763 C   0  0  2  0  0  0  0  0  0  0  0  0
  148.9068  138.6441  153.6768 H   0  0  0  0  0  0  0  0  0  0  0  0
  150.4293  138.6194  155.5340 H   0  0  0  0  0  0  0  0  0  0  0  0
  151.8731  139.9728  157.0105 H   0  0  0  0  0  0  0  0  0  0  0  0
  151.8440  144.5458  156.3469 H   0  0  0  0  0  0  0  0  0  0  0  0
  150.4918  144.4211  157.4850 H   0  0  0  0  0  0  0  0  0  0  0  0
  153.4544  144.7285  158.0963 H   0  0  0  0  0  0  0  0  0  0  0  0
  152.1179  145.6206  158.8262 H   0  0  0  0  0  0  0  0  0  0  0  0
  153.1840  143.4930  160.1541 H   0  0  0  0  0  0  0  0  0  0  0  0
  151.4332  143.6917  160.1019 H   0  0  0  0  0  0  0  0  0  0  0  0
  151.4664  141.5618  159.1483 H   0  0  0  0  0  0  0  0  0  0  0  0
  153.1084  141.7530  158.5210 H   0  0  0  0  0  0  0  0  0  0  0  0
  148.3229  142.2966  154.4907 H   0  0  0  0  0  0  0  0  0  0  0  0
  147.3578  137.8969  152.6369 H   0  0  0  0  0  0  0  0  0  0  0  0
  144.9077  139.4847  152.1439 H   0  0  0  0  0  0  0  0  0  0  0  0
  145.6764  138.4867  150.0602 H   0  0  0  0  0  0  0  0  0  0  0  0
  146.0475  136.9626  150.8720 H   0  0  0  0  0  0  0  0  0  0  0  0
  143.3181  138.1734  150.3518 H   0  0  0  0  0  0  0  0  0  0  0  0
  143.8155  136.5065  150.0708 H   0  0  0  0  0  0  0  0  0  0  0  0
  141.8758  138.3880  152.2520 H   0  0  0  0  0  0  0  0  0  0  0  0
  141.4250  136.7893  151.6998 H   0  0  0  0  0  0  0  0  0  0  0  0
  140.6914  137.2737  154.0787 H   0  0  0  0  0  0  0  0  0  0  0  0
  141.6640  135.8381  153.9244 H   0  0  0  0  0  0  0  0  0  0  0  0
  142.1642  138.0545  155.6499 H   0  0  0  0  0  0  0  0  0  0  0  0
  143.1468  136.6328  155.4288 H   0  0  0  0  0  0  0  0  0  0  0  0
  143.3763  139.2710  153.9298 H   0  0  0  0  0  0  0  0  0  0  0  0
  144.5524  138.5810  155.0136 H   0  0  0  0  0  0  0  0  0  0  0  0
  145.0484  136.7487  153.4553 H   0  0  0  0  0  0  0  0  0  0  0  0
  143.5783  136.0153  152.2101 H   0  0  0  0  0  0  0  0  0  0  0  0
  149.7325  143.4137  155.8827 H   0  0  0  0  0  0  0  0  0  0  0  0
  1  2  2  0  0  0  0
  2  3  1  0  0  0  0
  2 15  1  0  0  0  0
  3  4  1  0  0  0  0
  3 25  1  0  0  0  0
  4 14  1  0  0  0  0
  4  5  2  0  0  0  0
  5  6  1  0  0  0  0
  5 26  1  0  0  0  0
  6  7  2  0  0  0  0
  6 27  1  0  0  0  0
  7  8  1  0  0  0  0
  7 13  1  0  0  0  0
  8 12  1  0  0  0  0
  8  9  1  0  0  0  0
  9 10  1  0  0  0  0
  9 28  1  0  0  0  0
  9 29  1  0  0  0  0
 10 11  1  0  0  0  0
 10 30  1  0  0  0  0
 10 31  1  0  0  0  0
 11 12  1  0  0  0  0
 11 32  1  0  0  0  0
 11 33  1  0  0  0  0
 12 34  1  0  0  0  0
 12 35  1  0  0  0  0
 13 14  2  0  0  0  0
 13 53  1  0  0  0  0
 14 36  1  0  0  0  0
 15 16  1  0  0  0  0
 15 37  1  0  0  0  0
 16 24  1  0  0  0  0
 16 17  1  0  0  0  0
 16 38  1  0  0  0  0
 17 18  1  0  0  0  0
 17 39  1  0  0  0  0
 17 40  1  0  0  0  0
 18 19  1  0  0  0  0
 18 41  1  0  0  0  0
 18 42  1  0  0  0  0
 19 24  1  0  0  0  0
 19 20  1  0  0  0  0
 19 52  1  0  0  0  0
 20 21  1  0  0  0  0
 20 43  1  0  0  0  0
 20 44  1  0  0  0  0
 21 22  1  0  0  0  0
 21 45  1  0  0  0  0
 21 46  1  0  0  0  0
 22 23  1  0  0  0  0
 22 47  1  0  0  0  0
 22 48  1  0  0  0  0
 23 24  1  0  0  0  0
 23 49  1  0  0  0  0
 23 50  1  0  0  0  0
 24 51  1  0  0  0  0
M  CHG  1  13   1
M  CHG  1  19   1
M  END
> <s_m_source_file>
AV-unprocessed.smi

> <i_m_source_file_index>
1867

> <i_lp_mmshare_version>
43012

> <i_f3d_flags>
0

> <s_epik_input>
W0NIMl0xW0NIMl1bQ0gyXVtDSDJdW0NASF0oTjEyKVtDQEBIXShbQ0gyXVtDSDJdMilbTkhdQyg9TylbTkhdYzNbY0hdW2NIXWMobltjSF0zKU40W0NIMl1bQ0gyXVtDSDJdW0NIMl00

> <s_epik_cmdline>
J2VwaWtfcHl0aG9uJywgJy1waCcsICc3LjAnLCAnLXRuJywgJzgnLCAnLW1hJywgJzIwMCcsICctbWV0YWxfYmluZGluZycsICctaW1hZScsICc8aW5maWxlLm1hZT4nLCAnLW9tYWUnLCAnPG91dGZpbGUubWFlPic=

> <r_lp_tautomer_probability>
0.999994

> <r_epik_Ionization_Penalty>
1.27347

> <r_epik_Ionization_Penalty_Charging>
1.27345

> <r_epik_Ionization_Penalty_Neutral>
1.96458e-05

> <r_epik_State_Penalty>
1.34393

> <r_epik_Charging_Adjusted_Penalty>
2.61738

> <i_epik_Tot_Q>
2

> <i_epik_Tot_abs_Q>
2

> <r_epik_Metal_State_Penalty>
1.41094

> <b_epik_Metal_Only>
0

> <s_lp_Force_Field>
OPLS_2005

> <r_lp_Energy>
84.8883

> <b_lp_Chiralities_Consistent>
1

> <s_lp_Variant>
AV-unprocessed.smi:1867-14

> <Gold.Version>
5.8.1

> <Gold.Id.Protein>
6NUR|6NUR_protein|mol2

> <Gold.PLP.Fitness>
47.2643

> <Gold.PLP.PLP>
-39.6493

> <Gold.PLP.part.hbond>
-3.2512

> <Gold.PLP.part.metal>
0.0000

> <Gold.PLP.part.buried>
4.0724

> <Gold.PLP.part.nonpolar>
-41.1278

> <Gold.PLP.part.repulsive>
0.4065

> <Gold.PLP.ligand.clash>
0.0000

> <Gold.PLP.ligand.torsion>
0.7873

> <Gold.PLP.Chemscore.Hbond>
3.0000

> <Gold.PLP.Chemscore.CHOScore>
0.0000

> <Gold.PLP.Chemscore.Metal>
0.0000

> <Gold.Chemscore.Hbonds>
donor molecule, donor type, donor heavy atom, donor atom, acceptor molecule, acceptor atom, score
      L1  H    13    53       P1  8028  2.00
      L1  H    15    37       P1  7948  0.03

> <Gold.PLP.Chemscore.Internal.Correction>
0.1897

> <Gold.Rescore>
     Score         DG    S(hbond)    S(metal)    S(lipo)     H(rot)  DE(clash)    DE(int)     intcor
     18.06     -23.21       1.94        0.00     118.05       1.00       3.86       1.29       ----

> <Gold.Chemscore.Fitness>
18.0644

> <Gold.Chemscore.DG>
-23.2112

> <Gold.Chemscore.ZeroCoef>
-5.4800

> <Gold.Chemscore.Hbond>
1.9399

> <Gold.Chemscore.Metal>
0.0000

> <Gold.Chemscore.Lipo>
118.0517

> <Gold.Chemscore.Internal_Hbond>
0.0000

> <Gold.Chemscore.DEClash>
3.8603

> <Gold.Chemscore.DEInternal>
1.2865

> <Gold.Chemscore.Rot>
1.0000

> <Gold.Chemscore.Internal.Correction>
   9.000000E+99

> <Gold.Chemscore.Hbonds>
donor molecule, donor type, donor heavy atom, donor atom, acceptor molecule, acceptor atom, score
      L1  H    13    53       P1  8028  0.94
      L1  H    15    37       P1  7948  0.09

> <Gold.Chemscore.Hbond.Weighted>
-6.4792

> <Gold.Chemscore.Metal.Weighted>
-0.0000

> <Gold.Chemscore.Lipo.Weighted>
-13.8120

> <Gold.Chemscore.Internal_Hbond.Weighted>
0.0000

> <Gold.Chemscore.DEClash.Weighted>
3.8603

> <Gold.Chemscore.DEInternal.Weighted>
1.2865

> <Gold.Chemscore.Rot.Weighted>
2.5600

> <Gold.Chemscore.Internal.Correction.Weighted>
   9.000000E+99

> <Gold.Protein.RotatedTorsions>
[ 6907 6896 6895 6894 ] final  -29.40 input  -60.11 | X-H torsion
[ 7974 7965 7964 7962 ] final  139.23 input  175.53 | X-H torsion
[ 8008 7997 7996 7995 ] final  -14.39 input   59.86 | X-H torsion
[ 10167 10162 10161 10158 ] final  -45.20 input  -65.29 | X-H torsion
[ 10718 10713 10712 10709 ] final -165.73 input   66.30 | X-H torsion
[ 10763 10752 10751 10750 ] final  -22.84 input  -60.55 | X-H torsion
[ 11005 11000 10999 10996 ] final  130.88 input  -57.11 | X-H torsion

> <Gold.Protein.ActiveResidues>
 VAL166  LYS551  ARG553  GLY616  TRP617  ASP618  TYR619  PRO620  LYS621  CYS622 
 ASP623  PHE694  ASN695  SER759  ASP760  ASP761  ALA762  ILE779  LEU786  VAL792 
 PHE793  MET794  SER795  GLU796  ALA797  LYS798  CYS799  TRP800  GLU811  SER814 

> <Gold.Protein.RotatedAtoms>
  151.1197  135.0073  159.8532 H   0  0  0  0  0  0  0  0  0  0  0  0  # atno 6907 bound_to 6896
  152.5447  134.1737  159.8617 H   0  0  0  0  0  0  0  0  0  0  0  0  # atno 6908 bound_to 6896
  151.1794  133.4689  159.2627 H   0  0  0  0  0  0  0  0  0  0  0  0  # atno 6909 bound_to 6896
  144.9298  139.5061  143.5623 H   0  0  0  0  0  0  0  0  0  0  0  0  # atno 7974 bound_to 7965
  154.5214  140.2224  155.8970 H   0  0  0  0  0  0  0  0  0  0  0  0  # atno 8008 bound_to 7997
  156.1665  140.3131  155.8863 H   0  0  0  0  0  0  0  0  0  0  0  0  # atno 8009 bound_to 7997
  155.3645  140.0463  157.3037 H   0  0  0  0  0  0  0  0  0  0  0  0  # atno 8010 bound_to 7997
  140.6867  143.2891  151.3605 H   0  0  0  0  0  0  0  0  0  0  0  0  # atno 10167 bound_to 10162
  156.6576  130.9033  151.3024 H   0  0  0  0  0  0  0  0  0  0  0  0  # atno 10718 bound_to 10713
  153.6583  135.6977  153.5186 H   0  0  0  0  0  0  0  0  0  0  0  0  # atno 10763 bound_to 10752
  153.2652  135.4232  155.0932 H   0  0  0  0  0  0  0  0  0  0  0  0  # atno 10764 bound_to 10752
  154.8458  135.3564  154.6128 H   0  0  0  0  0  0  0  0  0  0  0  0  # atno 10765 bound_to 10752
  139.9697  134.9581  156.9357 H   0  0  0  0  0  0  0  0  0  0  0  0  # atno 11005 bound_to 11000
  146.3242  139.8241  142.8921 LP  0  0  0  0  0  0  0  0  0  0  0  0  # atno 17320 bound_to 7965
  145.3160  141.0232  143.3528 LP  0  0  0  0  0  0  0  0  0  0  0  0  # atno 17321 bound_to 7965
  139.6232  144.0865  152.2410 LP  0  0  0  0  0  0  0  0  0  0  0  0  # atno 17342 bound_to 10162
  140.0316  144.6076  150.7483 LP  0  0  0  0  0  0  0  0  0  0  0  0  # atno 17343 bound_to 10162
  157.7120  130.9452  150.1123 LP  0  0  0  0  0  0  0  0  0  0  0  0  # atno 17370 bound_to 10713
  156.2036  130.3662  149.8757 LP  0  0  0  0  0  0  0  0  0  0  0  0  # atno 17371 bound_to 10713
  140.5319  134.0805  155.7318 LP  0  0  0  0  0  0  0  0  0  0  0  0  # atno 17394 bound_to 11000
  141.1377  133.9192  157.2396 LP  0  0  0  0  0  0  0  0  0  0  0  0  # atno 17395 bound_to 11000

$$$$
