AV-unprocessed.smi:456|AV-procd|sdf|2618|dock6
  -GOLD-   2262023 23D 1   1.00000     0.00000
 Structure written by MMmdl.
 33 35  0  0  0  0  0  0  0  0  2 V2000
  151.8569  139.8293  154.8030 O   0  0  0  0  0  0  0  0  0  0  0  0
  150.6970  140.0243  155.5895 C   0  0  1  0  0  0  0  0  0  0  0  0
  150.9175  141.2067  156.5533 C   0  0  0  0  0  0  0  0  0  0  0  0
  151.7493  140.8520  157.7106 N   0  0  0  0  0  0  0  0  0  0  0  0
  152.4262  139.7034  157.9826 C   0  0  0  0  0  0  0  0  0  0  0  0
  153.0459  139.8671  159.1845 N   0  3  0  0  0  0  0  0  0  0  0  0
  152.7591  141.1383  159.6878 C   0  0  0  0  0  0  0  0  0  0  0  0
  153.1540  141.7646  160.8655 C   0  0  0  0  0  0  0  0  0  0  0  0
  152.6796  143.0761  161.0774 C   0  0  0  0  0  0  0  0  0  0  0  0
  153.0347  143.7323  162.2072 F   0  0  0  0  0  0  0  0  0  0  0  0
  151.8442  143.7158  160.1368 C   0  0  0  0  0  0  0  0  0  0  0  0
  151.4110  144.9755  160.3794 F   0  0  0  0  0  0  0  0  0  0  0  0
  151.4497  143.0702  158.9464 C   0  0  0  0  0  0  0  0  0  0  0  0
  151.9251  141.7755  158.7454 C   0  0  0  0  0  0  0  0  0  0  0  0
  149.4516  140.2293  154.7421 C   0  0  0  0  0  0  0  0  0  0  0  0
  148.8607  139.1295  154.0833 C   0  0  0  0  0  0  0  0  0  0  0  0
  147.7013  139.3078  153.3039 C   0  0  0  0  0  0  0  0  0  0  0  0
  147.1238  140.5862  153.1814 C   0  0  0  0  0  0  0  0  0  0  0  0
  147.7061  141.6864  153.8397 C   0  0  0  0  0  0  0  0  0  0  0  0
  148.8661  141.5090  154.6185 C   0  0  0  0  0  0  0  0  0  0  0  0
  151.9107  138.9144  154.5719 H   0  0  0  0  0  0  0  0  0  0  0  0
  150.5634  139.1125  156.1730 H   0  0  0  0  0  0  0  0  0  0  0  0
  151.4092  142.0326  156.0372 H   0  0  0  0  0  0  0  0  0  0  0  0
  149.9657  141.5944  156.9191 H   0  0  0  0  0  0  0  0  0  0  0  0
  152.4616  138.8216  157.3590 H   0  0  0  0  0  0  0  0  0  0  0  0
  153.7926  141.2787  161.5885 H   0  0  0  0  0  0  0  0  0  0  0  0
  150.8090  143.5674  158.2334 H   0  0  0  0  0  0  0  0  0  0  0  0
  149.2936  138.1439  154.1737 H   0  0  0  0  0  0  0  0  0  0  0  0
  147.2542  138.4630  152.8008 H   0  0  0  0  0  0  0  0  0  0  0  0
  146.2341  140.7225  152.5845 H   0  0  0  0  0  0  0  0  0  0  0  0
  147.2620  142.6668  153.7485 H   0  0  0  0  0  0  0  0  0  0  0  0
  149.3029  142.3586  155.1227 H   0  0  0  0  0  0  0  0  0  0  0  0
  153.6201  139.1604  159.6262 H   0  0  0  0  0  0  0  0  0  0  0  0
  1  2  1  0  0  0  0
  1 21  1  0  0  0  0
  2  3  1  0  0  0  0
  2 15  1  0  0  0  0
  2 22  1  0  0  0  0
  3  4  1  0  0  0  0
  3 23  1  0  0  0  0
  3 24  1  0  0  0  0
  4 14  1  0  0  0  0
  4  5  1  0  0  0  0
  5  6  2  0  0  0  0
  5 25  1  0  0  0  0
  6  7  1  0  0  0  0
  6 33  1  0  0  0  0
  7 14  2  0  0  0  0
  7  8  1  0  0  0  0
  8  9  2  0  0  0  0
  8 26  1  0  0  0  0
  9 10  1  0  0  0  0
  9 11  1  0  0  0  0
 11 12  1  0  0  0  0
 11 13  2  0  0  0  0
 13 14  1  0  0  0  0
 13 27  1  0  0  0  0
 15 20  1  0  0  0  0
 15 16  2  0  0  0  0
 16 17  1  0  0  0  0
 16 28  1  0  0  0  0
 17 18  2  0  0  0  0
 17 29  1  0  0  0  0
 18 19  1  0  0  0  0
 18 30  1  0  0  0  0
 19 20  2  0  0  0  0
 19 31  1  0  0  0  0
 20 32  1  0  0  0  0
M  CHG  1   6   1
M  END
> <s_m_source_file>
AV-unprocessed.smi

> <i_m_source_file_index>
456

> <i_lp_mmshare_version>
43012

> <i_f3d_flags>
0

> <s_epik_input>
W2NIXTFbY0hdW2NIXVtjSF1bY0hdYzFbQ0BIXShbT0hdKVtDSDJdbihbY0hdbjIpYyhjMjMpW2NIXWMoRiljKEYpW2NIXTM=

> <s_epik_cmdline>
J2VwaWtfcHl0aG9uJywgJy1waCcsICc3LjAnLCAnLXRuJywgJzgnLCAnLW1hJywgJzIwMCcsICctbWV0YWxfYmluZGluZycsICctaW1hZScsICc8aW5maWxlLm1hZT4nLCAnLW9tYWUnLCAnPG91dGZpbGUubWFlPic=

> <r_epik_Ionization_Penalty>
2.16139

> <r_epik_Ionization_Penalty_Charging>
2.16138

> <r_epik_Ionization_Penalty_Neutral>
1.34362e-06

> <r_epik_State_Penalty>
2.30198

> <r_epik_Charging_Adjusted_Penalty>
4.46337

> <i_epik_Tot_Q>
1

> <i_epik_Tot_abs_Q>
1

> <r_epik_Metal_State_Penalty>
6.38245

> <b_epik_Metal_Only>
0

> <s_lp_Force_Field>
OPLS_2005

> <r_lp_Energy>
14.9755

> <b_lp_Chiralities_Consistent>
1

> <s_lp_Variant>
AV-unprocessed.smi:456-4

> <Gold.Version>
5.8.1

> <Gold.Id.Protein>
6NUR|6NUR_protein|mol2

> <Gold.PLP.Fitness>
49.8640

> <Gold.PLP.PLP>
-48.1344

> <Gold.PLP.part.hbond>
-1.0000

> <Gold.PLP.part.metal>
0.0000

> <Gold.PLP.part.buried>
-4.7319

> <Gold.PLP.part.nonpolar>
-42.0550

> <Gold.PLP.part.repulsive>
0.0983

> <Gold.PLP.ligand.clash>
0.0000

> <Gold.PLP.ligand.torsion>
0.6328

> <Gold.PLP.Chemscore.Hbond>
0.9920

> <Gold.PLP.Chemscore.CHOScore>
0.0000

> <Gold.PLP.Chemscore.Metal>
0.0000

> <Gold.Chemscore.Hbonds>
donor molecule, donor type, donor heavy atom, donor atom, acceptor molecule, acceptor atom, score
      P1  H  7989  7998       L1     1  0.98

> <Gold.PLP.Chemscore.Internal.Correction>
0.0192

> <Gold.Rescore>
     Score         DG    S(hbond)    S(metal)    S(lipo)     H(rot)  DE(clash)    DE(int)     intcor
     15.34     -15.99       0.92        0.00     108.03       2.03       0.30       0.36       ----

> <Gold.Chemscore.Fitness>
15.3356

> <Gold.Chemscore.DG>
-15.9929

> <Gold.Chemscore.ZeroCoef>
-5.4800

> <Gold.Chemscore.Hbond>
0.9160

> <Gold.Chemscore.Metal>
0.0000

> <Gold.Chemscore.Lipo>
108.0263

> <Gold.Chemscore.Internal_Hbond>
0.0000

> <Gold.Chemscore.DEClash>
0.2992

> <Gold.Chemscore.DEInternal>
0.3580

> <Gold.Chemscore.Rot>
2.0256

> <Gold.Chemscore.Internal.Correction>
   9.000000E+99

> <Gold.Chemscore.Hbonds>
donor molecule, donor type, donor heavy atom, donor atom, acceptor molecule, acceptor atom, score
      P1  H  7989  7998       L1     1  0.41

> <Gold.Chemscore.Hbond.Weighted>
-3.0593

> <Gold.Chemscore.Metal.Weighted>
-0.0000

> <Gold.Chemscore.Lipo.Weighted>
-12.6391

> <Gold.Chemscore.Internal_Hbond.Weighted>
0.0000

> <Gold.Chemscore.DEClash.Weighted>
0.2992

> <Gold.Chemscore.DEInternal.Weighted>
0.3580

> <Gold.Chemscore.Rot.Weighted>
5.1855

> <Gold.Chemscore.Internal.Correction.Weighted>
   9.000000E+99

> <Gold.Protein.RotatedTorsions>
[ 6907 6896 6895 6894 ] final   72.70 input  -60.11 | X-H torsion
[ 7974 7965 7964 7962 ] final   59.09 input  175.53 | X-H torsion
[ 8008 7997 7996 7995 ] final   -9.02 input   59.86 | X-H torsion
[ 10167 10162 10161 10158 ] final   54.13 input  -65.29 | X-H torsion
[ 10718 10713 10712 10709 ] final  -12.53 input   66.30 | X-H torsion
[ 10763 10752 10751 10750 ] final   46.14 input  -60.55 | X-H torsion
[ 11005 11000 10999 10996 ] final -126.37 input  -57.11 | X-H torsion

> <Gold.Protein.ActiveResidues>
 VAL166  LYS551  ARG553  GLY616  TRP617  ASP618  TYR619  PRO620  LYS621  CYS622 
 ASP623  PHE694  ASN695  SER759  ASP760  ASP761  ALA762  ILE779  LEU786  VAL792 
 PHE793  MET794  SER795  GLU796  ALA797  LYS798  CYS799  TRP800  GLU811  SER814 

> <Gold.Protein.RotatedAtoms>
  152.4882  134.4533  159.9581 H   0  0  0  0  0  0  0  0  0  0  0  0  # atno 6907 bound_to 6896
  151.4525  133.3608  159.2805 H   0  0  0  0  0  0  0  0  0  0  0  0  # atno 6908 bound_to 6896
  150.9012  134.8448  159.7421 H   0  0  0  0  0  0  0  0  0  0  0  0  # atno 6909 bound_to 6896
  145.9110  139.3654  143.0535 H   0  0  0  0  0  0  0  0  0  0  0  0  # atno 7974 bound_to 7965
  154.5685  140.2366  155.8226 H   0  0  0  0  0  0  0  0  0  0  0  0  # atno 8008 bound_to 7997
  156.2088  140.3032  155.9644 H   0  0  0  0  0  0  0  0  0  0  0  0  # atno 8009 bound_to 7997
  155.2755  140.0420  157.3001 H   0  0  0  0  0  0  0  0  0  0  0  0  # atno 8010 bound_to 7997
  140.2334  144.3662  150.6406 H   0  0  0  0  0  0  0  0  0  0  0  0  # atno 10167 bound_to 10162
  156.6433  130.4934  149.6087 H   0  0  0  0  0  0  0  0  0  0  0  0  # atno 10718 bound_to 10713
  152.9814  135.6017  154.3551 H   0  0  0  0  0  0  0  0  0  0  0  0  # atno 10763 bound_to 10752
  154.3237  135.2769  155.2508 H   0  0  0  0  0  0  0  0  0  0  0  0  # atno 10764 bound_to 10752
  154.4663  135.5953  153.6346 H   0  0  0  0  0  0  0  0  0  0  0  0  # atno 10765 bound_to 10752
  140.9687  134.0836  157.3893 H   0  0  0  0  0  0  0  0  0  0  0  0  # atno 11005 bound_to 11000
  145.8671  140.9441  143.0669 LP  0  0  0  0  0  0  0  0  0  0  0  0  # atno 17320 bound_to 7965
  144.6743  140.0607  143.7476 LP  0  0  0  0  0  0  0  0  0  0  0  0  # atno 17321 bound_to 7965
  140.6168  143.2173  151.6776 LP  0  0  0  0  0  0  0  0  0  0  0  0  # atno 17342 bound_to 10162
  139.5102  144.3551  152.0615 LP  0  0  0  0  0  0  0  0  0  0  0  0  # atno 17343 bound_to 10162
  156.2142  130.6697  151.1301 LP  0  0  0  0  0  0  0  0  0  0  0  0  # atno 17370 bound_to 10713
  157.7164  131.0707  150.6309 LP  0  0  0  0  0  0  0  0  0  0  0  0  # atno 17371 bound_to 10713
  139.8904  135.0112  156.6734 LP  0  0  0  0  0  0  0  0  0  0  0  0  # atno 17394 bound_to 11000
  140.7361  133.9017  155.8245 LP  0  0  0  0  0  0  0  0  0  0  0  0  # atno 17395 bound_to 11000

$$$$
