AV-unprocessed.smi:2786|AV-procd|sdf|10755|dock3
  -GOLD-   2272015183D 1   1.00000     0.00000
 Structure written by MMmdl.
 26 27  0  0  0  0  0  0  0  0  1 V2000
  151.2154  144.3476  157.6512 C   0  0  0  0  0  0  0  0  0  0  0  0
  151.6732  143.1191  158.2707 N   0  0  0  0  0  0  0  0  0  0  0  0
  152.2608  143.0116  159.5243 C   0  0  0  0  0  0  0  0  0  0  0  0
  152.5470  141.6814  159.7126 C   0  0  0  0  0  0  0  0  0  0  0  0
  152.1463  140.9615  158.5928 N   0  0  0  0  0  0  0  0  0  0  0  0
  151.6245  141.8688  157.7695 C   0  0  0  0  0  0  0  0  0  0  0  0
  151.0713  141.5564  156.4078 C   0  0  1  0  0  0  0  0  0  0  0  0
  151.3993  140.1046  155.9961 C   0  0  0  0  0  0  0  0  0  0  0  0
  150.8671  139.8020  154.6655 N   0  0  0  0  0  0  0  0  0  0  0  0
  149.4224  140.0312  154.6145 C   0  0  0  0  0  0  0  0  0  0  0  0
  149.0895  141.4799  155.0148 C   0  0  0  0  0  0  0  0  0  0  0  0
  149.6220  141.7847  156.3444 N   0  0  0  0  0  0  0  0  0  0  0  0
  151.5035  145.2056  158.2593 H   0  0  0  0  0  0  0  0  0  0  0  0
  150.1293  144.3300  157.5576 H   0  0  0  0  0  0  0  0  0  0  0  0
  151.6615  144.4530  156.6618 H   0  0  0  0  0  0  0  0  0  0  0  0
  152.4257  143.8685  160.1611 H   0  0  0  0  0  0  0  0  0  0  0  0
  153.0079  141.1917  160.5576 H   0  0  0  0  0  0  0  0  0  0  0  0
  151.5488  142.2260  155.6919 H   0  0  0  0  0  0  0  0  0  0  0  0
  152.4790  139.9538  156.0019 H   0  0  0  0  0  0  0  0  0  0  0  0
  150.9857  139.4095  156.7283 H   0  0  0  0  0  0  0  0  0  0  0  0
  151.0628  138.8326  154.4373 H   0  0  0  0  0  0  0  0  0  0  0  0
  149.0491  139.8296  153.6104 H   0  0  0  0  0  0  0  0  0  0  0  0
  148.9108  139.3365  155.2820 H   0  0  0  0  0  0  0  0  0  0  0  0
  149.5040  142.1710  154.2794 H   0  0  0  0  0  0  0  0  0  0  0  0
  148.0095  141.6270  155.0056 H   0  0  0  0  0  0  0  0  0  0  0  0
  149.4258  142.7541  156.5713 H   0  0  0  0  0  0  0  0  0  0  0  0
  1  2  1  0  0  0  0
  1 13  1  0  0  0  0
  1 14  1  0  0  0  0
  1 15  1  0  0  0  0
  2  6  1  0  0  0  0
  2  3  1  0  0  0  0
  3  4  2  0  0  0  0
  3 16  1  0  0  0  0
  4  5  1  0  0  0  0
  4 17  1  0  0  0  0
  5  6  2  0  0  0  0
  6  7  1  0  0  0  0
  7 12  1  0  0  0  0
  7  8  1  0  0  0  0
  7 18  1  0  0  0  0
  8  9  1  0  0  0  0
  8 19  1  0  0  0  0
  8 20  1  0  0  0  0
  9 10  1  0  0  0  0
  9 21  1  0  0  0  0
 10 11  1  0  0  0  0
 10 22  1  0  0  0  0
 10 23  1  0  0  0  0
 11 12  1  0  0  0  0
 11 24  1  0  0  0  0
 11 25  1  0  0  0  0
 12 26  1  0  0  0  0
M  END
> <s_m_source_file>
AV-unprocessed.smi

> <i_m_source_file_index>
2786

> <i_lp_mmshare_version>
43012

> <i_f3d_flags>
0

> <s_epik_input>
W0NIM11uMVtjSF1bY0hdbmMxW0NAQEhdMltDSDJdW05IXVtDSDJdW0NIMl1bTkhdMg==

> <s_epik_cmdline>
J2VwaWtfcHl0aG9uJywgJy1waCcsICc3LjAnLCAnLXRuJywgJzgnLCAnLW1hJywgJzIwMCcsICctbWV0YWxfYmluZGluZycsICctaW1hZScsICc8aW5maWxlLm1hZT4nLCAnLW9tYWUnLCAnPG91dGZpbGUubWFlPic=

> <r_lp_tautomer_probability>
1

> <r_epik_Ionization_Penalty>
3.5722

> <r_epik_Ionization_Penalty_Charging>
1.66148

> <r_epik_Ionization_Penalty_Neutral>
1.91072

> <r_epik_State_Penalty>
2.63328

> <r_epik_Charging_Adjusted_Penalty>
4.29476

> <i_epik_Tot_Q>
0

> <i_epik_Tot_abs_Q>
0

> <r_epik_Metal_State_Penalty>
0.942173

> <b_epik_Metal_Only>
0

> <s_lp_Force_Field>
OPLS_2005

> <r_lp_Energy>
22.0451

> <b_lp_Chiralities_Consistent>
1

> <s_lp_Variant>
AV-unprocessed.smi:2786-8

> <Gold.Version>
5.8.1

> <Gold.Id.Protein>
6NUR|6NUR_protein|mol2

> <Gold.PLP.Fitness>
33.7782

> <Gold.PLP.PLP>
-28.4215

> <Gold.PLP.part.hbond>
-2.0000

> <Gold.PLP.part.metal>
0.0000

> <Gold.PLP.part.buried>
-2.7632

> <Gold.PLP.part.nonpolar>
-23.1060

> <Gold.PLP.part.repulsive>
0.0000

> <Gold.PLP.ligand.clash>
0.0000

> <Gold.PLP.ligand.torsion>
0.1492

> <Gold.PLP.Chemscore.Hbond>
1.8800

> <Gold.PLP.Chemscore.CHOScore>
0.0000

> <Gold.PLP.Chemscore.Metal>
0.0000

> <Gold.Chemscore.Hbonds>
donor molecule, donor type, donor heavy atom, donor atom, acceptor molecule, acceptor atom, score
      L1  H    12    26       P1  8028  0.42
      P1  H  7989  7998       L1     9  1.00

> <Gold.PLP.Chemscore.Internal.Correction>
0.0151

> <Gold.Rescore>
     Score         DG    S(hbond)    S(metal)    S(lipo)     H(rot)  DE(clash)    DE(int)     intcor
     14.07     -14.20       1.16        0.00      63.41       1.00       0.07       0.06       ----

> <Gold.Chemscore.Fitness>
14.0722

> <Gold.Chemscore.DG>
-14.2038

> <Gold.Chemscore.ZeroCoef>
-5.4800

> <Gold.Chemscore.Hbond>
1.1573

> <Gold.Chemscore.Metal>
0.0000

> <Gold.Chemscore.Lipo>
63.4054

> <Gold.Chemscore.Internal_Hbond>
0.0000

> <Gold.Chemscore.DEClash>
0.0693

> <Gold.Chemscore.DEInternal>
0.0623

> <Gold.Chemscore.Rot>
1.0000

> <Gold.Chemscore.Internal.Correction>
   9.000000E+99

> <Gold.Chemscore.Hbonds>
donor molecule, donor type, donor heavy atom, donor atom, acceptor molecule, acceptor atom, score
      L1  H    12    26       P1  8028  0.42
      P1  H  7989  7998       L1     9  0.34

> <Gold.Chemscore.Hbond.Weighted>
-3.8654

> <Gold.Chemscore.Metal.Weighted>
-0.0000

> <Gold.Chemscore.Lipo.Weighted>
-7.4184

> <Gold.Chemscore.Internal_Hbond.Weighted>
0.0000

> <Gold.Chemscore.DEClash.Weighted>
0.0693

> <Gold.Chemscore.DEInternal.Weighted>
0.0623

> <Gold.Chemscore.Rot.Weighted>
2.5600

> <Gold.Chemscore.Internal.Correction.Weighted>
   9.000000E+99

> <Gold.Protein.RotatedTorsions>
[ 6907 6896 6895 6894 ] final   42.97 input  -60.11 | X-H torsion
[ 7974 7965 7964 7962 ] final -170.57 input  175.53 | X-H torsion
[ 8008 7997 7996 7995 ] final  -30.28 input   59.86 | X-H torsion
[ 10167 10162 10161 10158 ] final -173.43 input  -65.29 | X-H torsion
[ 10718 10713 10712 10709 ] final  101.63 input   66.30 | X-H torsion
[ 10763 10752 10751 10750 ] final    1.38 input  -60.55 | X-H torsion
[ 11005 11000 10999 10996 ] final   50.87 input  -57.11 | X-H torsion

> <Gold.Protein.ActiveResidues>
 VAL166  LYS551  ARG553  GLY616  TRP617  ASP618  TYR619  PRO620  LYS621  CYS622 
 ASP623  PHE694  ASN695  SER759  ASP760  ASP761  ALA762  ILE779  LEU786  VAL792 
 PHE793  MET794  SER795  GLU796  ALA797  LYS798  CYS799  TRP800  GLU811  SER814 

> <Gold.Protein.RotatedAtoms>
  152.2145  134.8471  160.0493 H   0  0  0  0  0  0  0  0  0  0  0  0  # atno 6907 bound_to 6896
  151.9277  133.3597  159.3928 H   0  0  0  0  0  0  0  0  0  0  0  0  # atno 6908 bound_to 6896
  150.6984  134.4495  159.5373 H   0  0  0  0  0  0  0  0  0  0  0  0  # atno 6909 bound_to 6896
  144.7168  140.2052  143.6334 H   0  0  0  0  0  0  0  0  0  0  0  0  # atno 7974 bound_to 7965
  154.4256  140.1795  156.1382 H   0  0  0  0  0  0  0  0  0  0  0  0  # atno 8008 bound_to 7997
  156.0013  140.3359  155.6823 H   0  0  0  0  0  0  0  0  0  0  0  0  # atno 8009 bound_to 7997
  155.6239  140.0662  157.2660 H   0  0  0  0  0  0  0  0  0  0  0  0  # atno 8010 bound_to 7997
  139.5689  144.1689  152.1354 H   0  0  0  0  0  0  0  0  0  0  0  0  # atno 10167 bound_to 10162
  157.6824  131.0731  150.5282 H   0  0  0  0  0  0  0  0  0  0  0  0  # atno 10718 bound_to 10713
  153.3087  135.6961  153.7135 H   0  0  0  0  0  0  0  0  0  0  0  0  # atno 10763 bound_to 10752
  153.6021  135.3460  155.2950 H   0  0  0  0  0  0  0  0  0  0  0  0  # atno 10764 bound_to 10752
  154.8570  135.4343  154.2219 H   0  0  0  0  0  0  0  0  0  0  0  0  # atno 10765 bound_to 10752
  140.0980  134.5119  155.8789 H   0  0  0  0  0  0  0  0  0  0  0  0  # atno 11005 bound_to 11000
  145.8643  139.2239  143.1698 LP  0  0  0  0  0  0  0  0  0  0  0  0  # atno 17320 bound_to 7965
  146.0144  140.8405  142.9954 LP  0  0  0  0  0  0  0  0  0  0  0  0  # atno 17321 bound_to 7965
  140.1218  144.5367  150.6858 LP  0  0  0  0  0  0  0  0  0  0  0  0  # atno 17342 bound_to 10162
  140.6973  143.2412  151.4964 LP  0  0  0  0  0  0  0  0  0  0  0  0  # atno 17343 bound_to 10162
  156.5592  130.4251  149.6071 LP  0  0  0  0  0  0  0  0  0  0  0  0  # atno 17370 bound_to 10713
  156.2835  130.7084  151.1915 LP  0  0  0  0  0  0  0  0  0  0  0  0  # atno 17371 bound_to 10713
  141.2097  133.6687  156.6461 LP  0  0  0  0  0  0  0  0  0  0  0  0  # atno 17394 bound_to 11000
  140.3259  134.7969  157.4289 LP  0  0  0  0  0  0  0  0  0  0  0  0  # atno 17395 bound_to 11000

$$$$
