AV-unprocessed.smi:1027|AV-procd|sdf|4469|dock1
  -GOLD-   22720 2443D 1   1.00000     0.00000
 Structure written by MMmdl.
 35 36  0  0  0  0  0  0  0  0  1 V2000
  144.8199  132.5244  149.3511 C   0  0  0  0  0  0  0  0  0  0  0  0
  144.5599  132.1619  150.8245 C   0  0  0  0  0  0  0  0  0  0  0  0
  143.4385  133.0613  151.3801 C   0  0  0  0  0  0  0  0  0  0  0  0
  145.8519  132.2236  151.6839 C   0  0  2  0  0  0  0  0  0  0  0  0
  146.6565  133.5195  151.4827 C   0  0  0  0  0  0  0  0  0  0  0  0
  146.7342  131.0969  151.3760 N   0  0  0  0  0  0  0  0  0  0  0  0
  146.5154  129.8118  151.6940 C   0  0  0  0  0  0  0  0  0  0  0  0
  145.5089  129.4155  152.2822 O   0  0  0  0  0  0  0  0  0  0  0  0
  147.5328  129.0331  151.2858 N   0  0  0  0  0  0  0  0  0  0  0  0
  147.6798  127.6287  151.4331 C   0  0  0  0  0  0  0  0  0  0  0  0
  147.2391  126.9410  152.4955 N   0  0  0  0  0  0  0  0  0  0  0  0
  147.5157  125.5855  152.3858 N   0  0  0  0  0  0  0  0  0  0  0  0
  148.1559  125.2880  151.2488 C   0  0  0  0  0  0  0  0  0  0  0  0
  148.5679  123.8948  150.9086 C   0  0  0  0  0  0  0  0  0  0  0  0
  149.4349  123.6183  149.7017 C   0  0  0  0  0  0  0  0  0  0  0  0
  147.9956  123.1714  149.7089 C   0  0  0  0  0  0  0  0  0  0  0  0
  148.4674  126.6645  150.1961 S   0  0  0  0  0  0  0  0  0  0  0  0
  145.2590  133.5183  149.2596 H   0  0  0  0  0  0  0  0  0  0  0  0
  143.8936  132.5182  148.7761 H   0  0  0  0  0  0  0  0  0  0  0  0
  145.4916  131.8139  148.8703 H   0  0  0  0  0  0  0  0  0  0  0  0
  144.1886  131.1361  150.8460 H   0  0  0  0  0  0  0  0  0  0  0  0
  143.7612  134.1013  151.4420 H   0  0  0  0  0  0  0  0  0  0  0  0
  143.1229  132.7505  152.3759 H   0  0  0  0  0  0  0  0  0  0  0  0
  142.5539  133.0257  150.7438 H   0  0  0  0  0  0  0  0  0  0  0  0
  145.5610  132.1847  152.7353 H   0  0  0  0  0  0  0  0  0  0  0  0
  146.1053  134.3953  151.8241 H   0  0  0  0  0  0  0  0  0  0  0  0
  146.9121  133.6706  150.4335 H   0  0  0  0  0  0  0  0  0  0  0  0
  147.5876  133.4933  152.0502 H   0  0  0  0  0  0  0  0  0  0  0  0
  147.5892  131.3200  150.8882 H   0  0  0  0  0  0  0  0  0  0  0  0
  148.2992  129.5022  150.8261 H   0  0  0  0  0  0  0  0  0  0  0  0
  148.7518  123.3163  151.8117 H   0  0  0  0  0  0  0  0  0  0  0  0
  149.6961  124.4600  149.0632 H   0  0  0  0  0  0  0  0  0  0  0  0
  150.2013  122.8523  149.8006 H   0  0  0  0  0  0  0  0  0  0  0  0
  147.8008  122.1060  149.8124 H   0  0  0  0  0  0  0  0  0  0  0  0
  147.3054  123.7098  149.0625 H   0  0  0  0  0  0  0  0  0  0  0  0
  1  2  1  0  0  0  0
  1 18  1  0  0  0  0
  1 19  1  0  0  0  0
  1 20  1  0  0  0  0
  2  3  1  0  0  0  0
  2  4  1  0  0  0  0
  2 21  1  0  0  0  0
  3 22  1  0  0  0  0
  3 23  1  0  0  0  0
  3 24  1  0  0  0  0
  4  5  1  0  0  0  0
  4  6  1  0  0  0  0
  4 25  1  0  0  0  0
  5 26  1  0  0  0  0
  5 27  1  0  0  0  0
  5 28  1  0  0  0  0
  6  7  1  0  0  0  0
  6 29  1  0  0  0  0
  7  8  2  0  0  0  0
  7  9  1  0  0  0  0
  9 10  1  0  0  0  0
  9 30  1  0  0  0  0
 10 17  1  0  0  0  0
 10 11  2  0  0  0  0
 11 12  1  0  0  0  0
 12 13  2  0  0  0  0
 13 14  1  0  0  0  0
 13 17  1  0  0  0  0
 14 16  1  0  0  0  0
 14 15  1  0  0  0  0
 14 31  1  0  0  0  0
 15 16  1  0  0  0  0
 15 32  1  0  0  0  0
 15 33  1  0  0  0  0
 16 34  1  0  0  0  0
 16 35  1  0  0  0  0
M  END
> <s_m_source_file>
AV-unprocessed.smi

> <i_m_source_file_index>
1027

> <i_lp_mmshare_version>
43012

> <i_f3d_flags>
0

> <s_epik_input>
W0NIM11bQ0hdKFtDSDNdKVtDQEhdKFtDSDNdKVtOSF1DKD1PKVtOSF1jMW5uYyhzMSlbQ0hdMltDSDJdW0NIMl0y

> <s_epik_cmdline>
J2VwaWtfcHl0aG9uJywgJy1waCcsICc3LjAnLCAnLXRuJywgJzgnLCAnLW1hJywgJzIwMCcsICctbWV0YWxfYmluZGluZycsICctaW1hZScsICc8aW5maWxlLm1hZT4nLCAnLW9tYWUnLCAnPG91dGZpbGUubWFlPic=

> <r_lp_tautomer_probability>
1

> <r_epik_Ionization_Penalty>
0.000943246

> <r_epik_Ionization_Penalty_Charging>
0

> <r_epik_Ionization_Penalty_Neutral>
0.000943246

> <r_epik_State_Penalty>
-0

> <r_epik_Charging_Adjusted_Penalty>
0

> <i_epik_Tot_Q>
0

> <i_epik_Tot_abs_Q>
0

> <r_epik_Metal_State_Penalty>
0.281646

> <b_epik_Metal_Only>
0

> <s_lp_Force_Field>
OPLS_2005

> <r_lp_Energy>
3.85842

> <b_lp_Chiralities_Consistent>
1

> <s_lp_Variant>
AV-unprocessed.smi:1027-1

> <Gold.Version>
5.8.1

> <Gold.Id.Protein>
6NUR|6NUR_protein|mol2

> <Gold.PLP.Fitness>
39.0091

> <Gold.PLP.PLP>
-34.1618

> <Gold.PLP.part.hbond>
-2.8123

> <Gold.PLP.part.metal>
0.0000

> <Gold.PLP.part.buried>
-4.0859

> <Gold.PLP.part.nonpolar>
-26.7525

> <Gold.PLP.part.repulsive>
0.3114

> <Gold.PLP.ligand.clash>
0.0000

> <Gold.PLP.ligand.torsion>
0.6528

> <Gold.PLP.Chemscore.Hbond>
1.9920

> <Gold.PLP.Chemscore.CHOScore>
0.0000

> <Gold.PLP.Chemscore.Metal>
0.0000

> <Gold.Chemscore.Hbonds>
donor molecule, donor type, donor heavy atom, donor atom, acceptor molecule, acceptor atom, score
      L1  H     6    29       P1 10747  0.99
      L1  H     9    30       P1 10747  1.00

> <Gold.PLP.Chemscore.Internal.Correction>
0.1770

> <Gold.Rescore>
     Score         DG    S(hbond)    S(metal)    S(lipo)     H(rot)  DE(clash)    DE(int)     intcor
     13.49     -15.53       1.64        0.00      69.38       1.39       0.39       1.65       ----

> <Gold.Chemscore.Fitness>
13.4939

> <Gold.Chemscore.DG>
-15.5254

> <Gold.Chemscore.ZeroCoef>
-5.4800

> <Gold.Chemscore.Hbond>
1.6419

> <Gold.Chemscore.Metal>
0.0000

> <Gold.Chemscore.Lipo>
69.3793

> <Gold.Chemscore.Internal_Hbond>
0.0000

> <Gold.Chemscore.DEClash>
0.3862

> <Gold.Chemscore.DEInternal>
1.6453

> <Gold.Chemscore.Rot>
1.3890

> <Gold.Chemscore.Internal.Correction>
   9.000000E+99

> <Gold.Chemscore.Hbonds>
donor molecule, donor type, donor heavy atom, donor atom, acceptor molecule, acceptor atom, score
      L1  H     6    29       P1 10747  0.92
      L1  H     9    30       P1 10747  0.24

> <Gold.Chemscore.Hbond.Weighted>
-5.4839

> <Gold.Chemscore.Metal.Weighted>
-0.0000

> <Gold.Chemscore.Lipo.Weighted>
-8.1174

> <Gold.Chemscore.Internal_Hbond.Weighted>
0.0000

> <Gold.Chemscore.DEClash.Weighted>
0.3862

> <Gold.Chemscore.DEInternal.Weighted>
1.6453

> <Gold.Chemscore.Rot.Weighted>
3.5559

> <Gold.Chemscore.Internal.Correction.Weighted>
   9.000000E+99

> <Gold.Protein.RotatedTorsions>
[ 6907 6896 6895 6894 ] final -177.07 input  -60.11 | X-H torsion
[ 7974 7965 7964 7962 ] final  -30.61 input  175.53 | X-H torsion
[ 8008 7997 7996 7995 ] final   58.15 input   59.86 | X-H torsion
[ 10167 10162 10161 10158 ] final  167.52 input  -65.29 | X-H torsion
[ 10718 10713 10712 10709 ] final   46.95 input   66.30 | X-H torsion
[ 10763 10752 10751 10750 ] final  157.33 input  -60.55 | X-H torsion
[ 11005 11000 10999 10996 ] final   34.83 input  -57.11 | X-H torsion

> <Gold.Protein.ActiveResidues>
 VAL166  LYS551  ARG553  GLY616  TRP617  ASP618  TYR619  PRO620  LYS621  CYS622 
 ASP623  PHE694  ASN695  SER759  ASP760  ASP761  ALA762  ILE779  LEU786  VAL792 
 PHE793  MET794  SER795  GLU796  ALA797  LYS798  CYS799  TRP800  GLU811  SER814 

> <Gold.Protein.RotatedAtoms>
  151.6150  133.3344  159.3075 H   0  0  0  0  0  0  0  0  0  0  0  0  # atno 6907 bound_to 6896
  150.8136  134.7309  159.6721 H   0  0  0  0  0  0  0  0  0  0  0  0  # atno 6908 bound_to 6896
  152.4232  134.5921  160.0028 H   0  0  0  0  0  0  0  0  0  0  0  0  # atno 6909 bound_to 6896
  146.1130  140.5562  142.8769 H   0  0  0  0  0  0  0  0  0  0  0  0  # atno 7974 bound_to 7965
  155.5454  140.3485  155.4456 H   0  0  0  0  0  0  0  0  0  0  0  0  # atno 8008 bound_to 7997
  156.0621  140.1342  156.9955 H   0  0  0  0  0  0  0  0  0  0  0  0  # atno 8009 bound_to 7997
  154.4485  140.0983  156.6518 H   0  0  0  0  0  0  0  0  0  0  0  0  # atno 8010 bound_to 7997
  139.4947  144.3912  151.9515 H   0  0  0  0  0  0  0  0  0  0  0  0  # atno 10167 bound_to 10162
  157.4534  130.8152  149.7812 H   0  0  0  0  0  0  0  0  0  0  0  0  # atno 10718 bound_to 10713
  154.1985  135.2791  155.2998 H   0  0  0  0  0  0  0  0  0  0  0  0  # atno 10763 bound_to 10752
  154.5873  135.5571  153.7246 H   0  0  0  0  0  0  0  0  0  0  0  0  # atno 10764 bound_to 10752
  153.0094  135.6359  154.2124 H   0  0  0  0  0  0  0  0  0  0  0  0  # atno 10765 bound_to 10752
  140.2489  134.3327  155.7898 H   0  0  0  0  0  0  0  0  0  0  0  0  # atno 11005 bound_to 11000
  144.7528  140.5233  143.6790 LP  0  0  0  0  0  0  0  0  0  0  0  0  # atno 17320 bound_to 7965
  145.5625  139.1480  143.3333 LP  0  0  0  0  0  0  0  0  0  0  0  0  # atno 17321 bound_to 7965
  140.3350  144.3271  150.5979 LP  0  0  0  0  0  0  0  0  0  0  0  0  # atno 17342 bound_to 10162
  140.5614  143.2192  151.7759 LP  0  0  0  0  0  0  0  0  0  0  0  0  # atno 17343 bound_to 10162
  155.9997  130.3887  150.2655 LP  0  0  0  0  0  0  0  0  0  0  0  0  # atno 17370 bound_to 10713
  157.0828  131.0148  151.3150 LP  0  0  0  0  0  0  0  0  0  0  0  0  # atno 17371 bound_to 10713
  141.2203  133.7342  156.9005 LP  0  0  0  0  0  0  0  0  0  0  0  0  # atno 17394 bound_to 11000
  140.1578  134.9186  157.2676 LP  0  0  0  0  0  0  0  0  0  0  0  0  # atno 17395 bound_to 11000

$$$$
