AV-unprocessed.smi:697|AV-procd|sdf|3394|dock4
  -GOLD-   22720 0373D 1   1.00000     0.00000
 Structure written by MMmdl.
 43 44  0  0  0  0  0  0  0  0  2 V2000
  149.0272  129.8839  154.2127 C   0  0  0  0  0  0  0  0  0  0  0  0
  148.2511  130.9793  154.6828 O   0  0  0  0  0  0  0  0  0  0  0  0
  147.8489  131.9637  153.7201 C   0  0  2  0  0  0  0  0  0  0  0  0
  146.7787  131.3930  152.7809 C   0  0  0  0  0  0  0  0  0  0  0  0
  149.0862  132.6591  153.1205 C   0  0  0  0  0  0  0  0  0  0  0  0
  149.0788  133.5685  154.3475 C   0  0  1  0  0  0  0  0  0  0  0  0
  149.4377  134.9461  154.0279 N   0  0  0  0  0  0  0  0  0  0  0  0
  149.9694  135.8134  154.8992 C   0  0  0  0  0  0  0  0  0  0  0  0
  150.2203  135.5243  156.0690 O   0  0  0  0  0  0  0  0  0  0  0  0
  150.1571  137.0137  154.3221 N   0  0  0  0  0  0  0  0  0  0  0  0
  150.7089  138.1874  154.8625 C   0  0  0  0  0  0  0  0  0  0  0  0
  150.0081  139.1309  155.5507 C   0  0  0  0  0  0  0  0  0  0  0  0
  150.6398  140.3225  156.1038 C   0  0  0  0  0  0  0  0  0  0  0  0
  149.9062  141.3533  156.9432 C   0  0  0  0  0  0  0  0  0  0  0  0
  148.8172  141.7971  156.3145 F   0  0  0  0  0  0  0  0  0  0  0  0
  149.5259  140.8103  158.0988 F   0  0  0  0  0  0  0  0  0  0  0  0
  150.6905  142.3972  157.2124 F   0  0  0  0  0  0  0  0  0  0  0  0
  152.0012  140.3498  155.8714 C   0  0  0  0  0  0  0  0  0  0  0  0
  152.7670  139.4652  155.1958 N   0  5  0  0  0  0  0  0  0  0  0  0
  152.1646  138.3586  154.6760 C   0  0  0  0  0  0  0  0  0  0  0  0
  152.8051  137.5070  154.0585 O   0  0  0  0  0  0  0  0  0  0  0  0
  147.5567  133.3022  154.4745 C   0  0  0  0  0  0  0  0  0  0  0  0
  146.6191  134.2912  153.7557 C   0  0  0  0  0  0  0  0  0  0  0  0
  147.0153  133.1788  155.9029 C   0  0  0  0  0  0  0  0  0  0  0  0
  149.3844  129.3094  155.0672 H   0  0  0  0  0  0  0  0  0  0  0  0
  149.8988  130.2050  153.6434 H   0  0  0  0  0  0  0  0  0  0  0  0
  148.4357  129.2073  153.5964 H   0  0  0  0  0  0  0  0  0  0  0  0
  146.3848  132.1520  152.1060 H   0  0  0  0  0  0  0  0  0  0  0  0
  145.9367  130.9858  153.3411 H   0  0  0  0  0  0  0  0  0  0  0  0
  147.1738  130.6011  152.1452 H   0  0  0  0  0  0  0  0  0  0  0  0
  149.9826  132.0475  153.0244 H   0  0  0  0  0  0  0  0  0  0  0  0
  148.8677  133.1813  152.1873 H   0  0  0  0  0  0  0  0  0  0  0  0
  149.6564  133.1390  155.1696 H   0  0  0  0  0  0  0  0  0  0  0  0
  149.2588  135.2623  153.0860 H   0  0  0  0  0  0  0  0  0  0  0  0
  149.8284  137.1116  153.3726 H   0  0  0  0  0  0  0  0  0  0  0  0
  148.9512  139.0160  155.7264 H   0  0  0  0  0  0  0  0  0  0  0  0
  152.5609  141.2095  156.2981 H   0  0  0  0  0  0  0  0  0  0  0  0
  146.6006  135.2619  154.2525 H   0  0  0  0  0  0  0  0  0  0  0  0
  145.5930  133.9231  153.7321 H   0  0  0  0  0  0  0  0  0  0  0  0
  146.9206  134.4696  152.7235 H   0  0  0  0  0  0  0  0  0  0  0  0
  146.9046  134.1548  156.3764 H   0  0  0  0  0  0  0  0  0  0  0  0
  147.6793  132.5969  156.5425 H   0  0  0  0  0  0  0  0  0  0  0  0
  146.0403  132.6907  155.9182 H   0  0  0  0  0  0  0  0  0  0  0  0
  1  2  1  0  0  0  0
  1 25  1  0  0  0  0
  1 26  1  0  0  0  0
  1 27  1  0  0  0  0
  2  3  1  0  0  0  0
  3 22  1  0  0  0  0
  3  4  1  0  0  0  0
  3  5  1  0  0  0  0
  4 28  1  0  0  0  0
  4 29  1  0  0  0  0
  4 30  1  0  0  0  0
  5  6  1  0  0  0  0
  5 31  1  0  0  0  0
  5 32  1  0  0  0  0
  6  7  1  0  0  0  0
  6 22  1  0  0  0  0
  6 33  1  0  0  0  0
  7  8  1  0  0  0  0
  7 34  1  0  0  0  0
  8  9  2  0  0  0  0
  8 10  1  0  0  0  0
 10 11  1  0  0  0  0
 10 35  1  0  0  0  0
 11 20  1  0  0  0  0
 11 12  2  0  0  0  0
 12 13  1  0  0  0  0
 12 36  1  0  0  0  0
 13 14  1  0  0  0  0
 13 18  2  0  0  0  0
 14 15  1  0  0  0  0
 14 16  1  0  0  0  0
 14 17  1  0  0  0  0
 18 19  1  0  0  0  0
 18 37  1  0  0  0  0
 19 20  1  0  0  0  0
 20 21  2  0  0  0  0
 22 23  1  0  0  0  0
 22 24  1  0  0  0  0
 23 38  1  0  0  0  0
 23 39  1  0  0  0  0
 23 40  1  0  0  0  0
 24 41  1  0  0  0  0
 24 42  1  0  0  0  0
 24 43  1  0  0  0  0
M  CHG  1  19  -1
M  END
> <s_m_source_file>
AV-unprocessed.smi

> <i_m_source_file_index>
697

> <i_lp_mmshare_version>
43012

> <i_f3d_flags>
0

> <s_epik_input>
W0NIM11PW0NAQF0xKFtDSDNdKVtDSDJdW0NASF0oQzEoW0NIM10pW0NIM10pW05IXUMoPU8pW05IXWMyW2NIXWMoQyhGKShGKUYpW2NIXVtuSF1jMj1P

> <s_epik_cmdline>
J2VwaWtfcHl0aG9uJywgJy1waCcsICc3LjAnLCAnLXRuJywgJzgnLCAnLW1hJywgJzIwMCcsICctbWV0YWxfYmluZGluZycsICctaW1hZScsICc8aW5maWxlLm1hZT4nLCAnLW9tYWUnLCAnPG91dGZpbGUubWFlPic=

> <r_lp_tautomer_probability>
1

> <r_epik_Ionization_Penalty>
3.20094

> <r_epik_Ionization_Penalty_Charging>
0.180017

> <r_epik_Ionization_Penalty_Neutral>
3.02092

> <r_epik_State_Penalty>
3.01726

> <r_epik_Charging_Adjusted_Penalty>
3.19727

> <i_epik_Tot_Q>
-1

> <i_epik_Tot_abs_Q>
1

> <r_epik_Metal_State_Penalty>
0.455096

> <b_epik_Metal_Only>
1

> <s_lp_Force_Field>
OPLS_2005

> <r_lp_Energy>
36.2607

> <b_lp_Chiralities_Consistent>
1

> <s_lp_Variant>
AV-unprocessed.smi:697-6

> <Gold.Version>
5.8.1

> <Gold.Id.Protein>
6NUR|6NUR_protein|mol2

> <Gold.PLP.Fitness>
41.7527

> <Gold.PLP.PLP>
-31.3063

> <Gold.PLP.part.hbond>
-4.7496

> <Gold.PLP.part.metal>
0.0000

> <Gold.PLP.part.buried>
-1.3268

> <Gold.PLP.part.nonpolar>
-26.2089

> <Gold.PLP.part.repulsive>
0.2227

> <Gold.PLP.ligand.clash>
0.0000

> <Gold.PLP.ligand.torsion>
1.3972

> <Gold.PLP.Chemscore.Hbond>
4.2720

> <Gold.PLP.Chemscore.CHOScore>
0.0000

> <Gold.PLP.Chemscore.Metal>
0.0000

> <Gold.Chemscore.Hbonds>
donor molecule, donor type, donor heavy atom, donor atom, acceptor molecule, acceptor atom, score
      L1  H     7    34       P1  7948  0.70
      L1  H    10    35       P1  7948  0.93
      P1  H  7997  8008       L1    19  1.30
      P1  H 10752 10764       L1    21  0.53

> <Gold.PLP.Chemscore.Internal.Correction>
0.4248

> <Gold.Rescore>
     Score         DG    S(hbond)    S(metal)    S(lipo)     H(rot)  DE(clash)    DE(int)     intcor
     15.18     -16.73       2.44        0.00      54.85       1.30       0.09       1.46       ----

> <Gold.Chemscore.Fitness>
15.1808

> <Gold.Chemscore.DG>
-16.7327

> <Gold.Chemscore.ZeroCoef>
-5.4800

> <Gold.Chemscore.Hbond>
2.4418

> <Gold.Chemscore.Metal>
0.0000

> <Gold.Chemscore.Lipo>
54.8540

> <Gold.Chemscore.Internal_Hbond>
0.0000

> <Gold.Chemscore.DEClash>
0.0888

> <Gold.Chemscore.DEInternal>
1.4631

> <Gold.Chemscore.Rot>
1.2973

> <Gold.Chemscore.Internal.Correction>
   9.000000E+99

> <Gold.Chemscore.Hbonds>
donor molecule, donor type, donor heavy atom, donor atom, acceptor molecule, acceptor atom, score
      L1  H     7    34       P1  7948  0.07
      L1  H    10    35       P1  7948  0.40
      P1  H  7997  8008       L1    19  0.06
      P1  H 10752 10764       L1    21  0.52

> <Gold.Chemscore.Hbond.Weighted>
-8.1558

> <Gold.Chemscore.Metal.Weighted>
-0.0000

> <Gold.Chemscore.Lipo.Weighted>
-6.4179

> <Gold.Chemscore.Internal_Hbond.Weighted>
0.0000

> <Gold.Chemscore.DEClash.Weighted>
0.0888

> <Gold.Chemscore.DEInternal.Weighted>
1.4631

> <Gold.Chemscore.Rot.Weighted>
3.3210

> <Gold.Chemscore.Internal.Correction.Weighted>
   9.000000E+99

> <Gold.Protein.RotatedTorsions>
[ 6907 6896 6895 6894 ] final  107.16 input  -60.11 | X-H torsion
[ 7974 7965 7964 7962 ] final   51.37 input  175.53 | X-H torsion
[ 8008 7997 7996 7995 ] final  -17.80 input   59.86 | X-H torsion
[ 10167 10162 10161 10158 ] final -106.67 input  -65.29 | X-H torsion
[ 10718 10713 10712 10709 ] final   -8.16 input   66.30 | X-H torsion
[ 10763 10752 10751 10750 ] final  -92.45 input  -60.55 | X-H torsion
[ 11005 11000 10999 10996 ] final  119.28 input  -57.11 | X-H torsion

> <Gold.Protein.ActiveResidues>
 VAL166  LYS551  ARG553  GLY616  TRP617  ASP618  TYR619  PRO620  LYS621  CYS622 
 ASP623  PHE694  ASN695  SER759  ASP760  ASP761  ALA762  ILE779  LEU786  VAL792 
 PHE793  MET794  SER795  GLU796  ALA797  LYS798  CYS799  TRP800  GLU811  SER814 

> <Gold.Protein.RotatedAtoms>
  152.5165  133.9275  159.7563 H   0  0  0  0  0  0  0  0  0  0  0  0  # atno 6907 bound_to 6896
  150.9633  133.6414  159.2757 H   0  0  0  0  0  0  0  0  0  0  0  0  # atno 6908 bound_to 6896
  151.3651  135.0917  159.9500 H   0  0  0  0  0  0  0  0  0  0  0  0  # atno 6909 bound_to 6896
  145.9920  139.4349  143.0068 H   0  0  0  0  0  0  0  0  0  0  0  0  # atno 7974 bound_to 7965
  154.4952  140.2133  155.9462 H   0  0  0  0  0  0  0  0  0  0  0  0  # atno 8008 bound_to 7997
  156.1360  140.3188  155.8390 H   0  0  0  0  0  0  0  0  0  0  0  0  # atno 8009 bound_to 7997
  155.4208  140.0497  157.3016 H   0  0  0  0  0  0  0  0  0  0  0  0  # atno 8010 bound_to 7997
  140.1853  143.3935  152.1249 H   0  0  0  0  0  0  0  0  0  0  0  0  # atno 10167 bound_to 10162
  156.7066  130.5109  149.5903 H   0  0  0  0  0  0  0  0  0  0  0  0  # atno 10718 bound_to 10713
  154.6862  135.5230  153.8330 H   0  0  0  0  0  0  0  0  0  0  0  0  # atno 10763 bound_to 10752
  153.0599  135.6564  154.0496 H   0  0  0  0  0  0  0  0  0  0  0  0  # atno 10764 bound_to 10752
  154.0377  135.2980  155.3339 H   0  0  0  0  0  0  0  0  0  0  0  0  # atno 10765 bound_to 10752
  139.9141  134.9627  156.7632 H   0  0  0  0  0  0  0  0  0  0  0  0  # atno 11005 bound_to 11000
  145.7616  140.9933  143.1197 LP  0  0  0  0  0  0  0  0  0  0  0  0  # atno 17320 bound_to 7965
  144.6892  139.9337  143.7472 LP  0  0  0  0  0  0  0  0  0  0  0  0  # atno 17321 bound_to 7965
  139.5279  144.7124  151.5163 LP  0  0  0  0  0  0  0  0  0  0  0  0  # atno 17342 bound_to 10162
  140.6492  143.8731  150.6768 LP  0  0  0  0  0  0  0  0  0  0  0  0  # atno 17343 bound_to 10162
  156.1691  130.6425  151.0814 LP  0  0  0  0  0  0  0  0  0  0  0  0  # atno 17370 bound_to 10713
  157.6952  131.0796  150.6989 LP  0  0  0  0  0  0  0  0  0  0  0  0  # atno 17371 bound_to 10713
  140.6681  133.9584  155.7841 LP  0  0  0  0  0  0  0  0  0  0  0  0  # atno 17394 bound_to 11000
  141.0597  134.0365  157.3675 LP  0  0  0  0  0  0  0  0  0  0  0  0  # atno 17395 bound_to 11000

$$$$
