AV-unprocessed.smi:189|AV-procd|sdf|1484|dock5
  -GOLD-   2262019303D 1   1.00000     0.00000
 Structure written by MMmdl.
 53 57  0  0  0  0  0  0  0  0  1 V2000
  147.3212  141.9183  154.7388 C   0  0  0  0  0  0  0  0  0  0  0  0
  148.7783  141.4198  154.6899 C   0  0  1  0  0  0  0  0  0  0  0  0
  149.4979  141.3482  156.0415 C   0  0  0  0  0  0  0  0  0  0  0  0
  150.7102  140.4541  155.7400 C   0  0  1  0  0  0  0  0  0  0  0  0
  151.0409  139.4195  156.8301 C   0  0  0  0  0  0  0  0  0  0  0  0
  152.2005  138.4895  156.4111 C   0  0  0  0  0  0  0  0  0  0  0  0
  152.1968  138.1218  154.9092 C   0  0  0  0  0  0  0  0  0  0  0  0
  150.8157  138.3115  154.2667 C   0  0  0  0  0  0  0  0  0  0  0  0
  150.3833  139.7972  154.3784 C   0  0  1  0  0  0  0  0  0  0  0  0
  148.9870  140.1150  154.0607 N   0  0  0  0  0  0  0  0  0  0  0  0
  148.0765  139.1320  154.2778 C   0  0  0  0  0  0  0  0  0  0  0  0
  147.9753  138.5186  155.4873 N   0  0  0  0  0  0  0  0  0  0  0  0
  147.0949  137.5293  155.6652 C   0  0  0  0  0  0  0  0  0  0  0  0
  146.2451  136.9995  154.7827 N   0  0  0  0  0  0  0  0  0  0  0  0
  146.3555  137.6037  153.5647 C   0  0  0  0  0  0  0  0  0  0  0  0
  147.2346  138.6714  153.2323 C   0  0  0  0  0  0  0  0  0  0  0  0
  147.0694  139.0310  151.9012 N   0  0  0  0  0  0  0  0  0  0  0  0
  146.1445  138.2184  151.4684 C   0  0  0  0  0  0  0  0  0  0  0  0
  145.6684  137.3198  152.3973 N   0  0  0  0  0  0  0  0  0  0  0  0
  144.6567  136.2974  152.1815 C   0  0  0  0  0  0  0  0  0  0  0  0
  145.0539  135.2604  151.1044 C   0  0  2  0  0  0  0  0  0  0  0  0
  145.1311  135.9056  149.8453 O   0  0  0  0  0  0  0  0  0  0  0  0
  144.0889  134.0832  150.9849 C   0  0  0  0  0  0  0  0  0  0  0  0
  145.0037  132.9310  150.5949 C   0  0  0  0  0  0  0  0  0  0  0  0
  146.1553  133.1756  151.3832 O   0  0  0  0  0  0  0  0  0  0  0  0
  146.4071  134.5771  151.3862 C   0  0  0  0  0  0  0  0  0  0  0  0
  147.2808  142.9429  155.1082 H   0  0  0  0  0  0  0  0  0  0  0  0
  146.6960  141.3154  155.3970 H   0  0  0  0  0  0  0  0  0  0  0  0
  146.8703  141.9086  153.7462 H   0  0  0  0  0  0  0  0  0  0  0  0
  149.3238  142.1296  154.0658 H   0  0  0  0  0  0  0  0  0  0  0  0
  149.7868  142.3335  156.4082 H   0  0  0  0  0  0  0  0  0  0  0  0
  148.8561  140.8922  156.7960 H   0  0  0  0  0  0  0  0  0  0  0  0
  151.5855  141.0908  155.6023 H   0  0  0  0  0  0  0  0  0  0  0  0
  151.2817  139.9171  157.7700 H   0  0  0  0  0  0  0  0  0  0  0  0
  150.1551  138.8141  157.0268 H   0  0  0  0  0  0  0  0  0  0  0  0
  153.1545  138.9585  156.6543 H   0  0  0  0  0  0  0  0  0  0  0  0
  152.1530  137.5814  157.0127 H   0  0  0  0  0  0  0  0  0  0  0  0
  152.9149  138.7519  154.3831 H   0  0  0  0  0  0  0  0  0  0  0  0
  152.5411  137.0959  154.7762 H   0  0  0  0  0  0  0  0  0  0  0  0
  150.8320  138.0043  153.2204 H   0  0  0  0  0  0  0  0  0  0  0  0
  150.1211  137.6424  154.7753 H   0  0  0  0  0  0  0  0  0  0  0  0
  150.9659  140.3350  153.6287 H   0  0  0  0  0  0  0  0  0  0  0  0
  147.0713  137.0979  156.6550 H   0  0  0  0  0  0  0  0  0  0  0  0
  145.7877  138.2475  150.4493 H   0  0  0  0  0  0  0  0  0  0  0  0
  144.4571  135.8008  153.1319 H   0  0  0  0  0  0  0  0  0  0  0  0
  143.7292  136.7958  151.8966 H   0  0  0  0  0  0  0  0  0  0  0  0
  144.6162  136.6971  149.8807 H   0  0  0  0  0  0  0  0  0  0  0  0
  143.6439  133.8603  151.9553 H   0  0  0  0  0  0  0  0  0  0  0  0
  143.2755  134.2472  150.2765 H   0  0  0  0  0  0  0  0  0  0  0  0
  144.5685  131.9542  150.8071 H   0  0  0  0  0  0  0  0  0  0  0  0
  145.2635  132.9742  149.5362 H   0  0  0  0  0  0  0  0  0  0  0  0
  147.1533  134.8129  150.6252 H   0  0  0  0  0  0  0  0  0  0  0  0
  146.8255  134.8633  152.3517 H   0  0  0  0  0  0  0  0  0  0  0  0
  1  2  1  0  0  0  0
  1 27  1  0  0  0  0
  1 28  1  0  0  0  0
  1 29  1  0  0  0  0
  2 10  1  0  0  0  0
  2  3  1  0  0  0  0
  2 30  1  0  0  0  0
  3  4  1  0  0  0  0
  3 31  1  0  0  0  0
  3 32  1  0  0  0  0
  4  9  1  0  0  0  0
  4  5  1  0  0  0  0
  4 33  1  0  0  0  0
  5  6  1  0  0  0  0
  5 34  1  0  0  0  0
  5 35  1  0  0  0  0
  6  7  1  0  0  0  0
  6 36  1  0  0  0  0
  6 37  1  0  0  0  0
  7  8  1  0  0  0  0
  7 38  1  0  0  0  0
  7 39  1  0  0  0  0
  8  9  1  0  0  0  0
  8 40  1  0  0  0  0
  8 41  1  0  0  0  0
  9 10  1  0  0  0  0
  9 42  1  0  0  0  0
 10 11  1  0  0  0  0
 11 16  1  0  0  0  0
 11 12  2  0  0  0  0
 12 13  1  0  0  0  0
 13 14  2  0  0  0  0
 13 43  1  0  0  0  0
 14 15  1  0  0  0  0
 15 19  1  0  0  0  0
 15 16  2  0  0  0  0
 16 17  1  0  0  0  0
 17 18  2  0  0  0  0
 18 19  1  0  0  0  0
 18 44  1  0  0  0  0
 19 20  1  0  0  0  0
 20 21  1  0  0  0  0
 20 45  1  0  0  0  0
 20 46  1  0  0  0  0
 21 26  1  0  0  0  0
 21 22  1  0  0  0  0
 21 23  1  0  0  0  0
 22 47  1  0  0  0  0
 23 24  1  0  0  0  0
 23 48  1  0  0  0  0
 23 49  1  0  0  0  0
 24 25  1  0  0  0  0
 24 50  1  0  0  0  0
 24 51  1  0  0  0  0
 25 26  1  0  0  0  0
 26 52  1  0  0  0  0
 26 53  1  0  0  0  0
M  END
> <s_m_source_file>
AV-unprocessed.smi

> <i_m_source_file_index>
189

> <i_lp_mmshare_version>
43012

> <i_f3d_flags>
0

> <s_epik_input>
W0NIMl0xW0NIMl1bQ0gyXVtDSDJdW0NASF0oW0NASF0xMilOKFtDQEhdKFtDSDNdKVtDSDJdMiljKG5bY0hdbjMpYyhjMzQpbltjSF1uNFtDSDJdW0NAQF01KFtPSF0pW0NIMl1bQ0gyXU9bQ0gyXTU=

> <s_epik_cmdline>
J2VwaWtfcHl0aG9uJywgJy1waCcsICc3LjAnLCAnLXRuJywgJzgnLCAnLW1hJywgJzIwMCcsICctbWV0YWxfYmluZGluZycsICctaW1hZScsICc8aW5maWxlLm1hZT4nLCAnLW9tYWUnLCAnPG91dGZpbGUubWFlPic=

> <r_lp_tautomer_probability>
1

> <r_epik_Ionization_Penalty>
0.00594261

> <r_epik_Ionization_Penalty_Charging>
0

> <r_epik_Ionization_Penalty_Neutral>
0.00594261

> <r_epik_State_Penalty>
0.00429776

> <r_epik_Charging_Adjusted_Penalty>
0.00429776

> <i_epik_Tot_Q>
0

> <i_epik_Tot_abs_Q>
0

> <r_epik_Metal_State_Penalty>
-0

> <b_epik_Metal_Only>
0

> <s_lp_Force_Field>
OPLS_2005

> <r_lp_Energy>
66.1404

> <b_lp_Chiralities_Consistent>
1

> <s_lp_Variant>
AV-unprocessed.smi:189-10

> <Gold.Version>
5.8.1

> <Gold.Id.Protein>
6NUR|6NUR_protein|mol2

> <Gold.PLP.Fitness>
44.8010

> <Gold.PLP.PLP>
-39.1810

> <Gold.PLP.part.hbond>
-2.0000

> <Gold.PLP.part.metal>
0.0000

> <Gold.PLP.part.buried>
-2.9157

> <Gold.PLP.part.nonpolar>
-38.6257

> <Gold.PLP.part.repulsive>
3.7582

> <Gold.PLP.ligand.clash>
0.0000

> <Gold.PLP.ligand.torsion>
0.1464

> <Gold.PLP.Chemscore.Hbond>
1.0000

> <Gold.PLP.Chemscore.CHOScore>
0.9584

> <Gold.PLP.Chemscore.Metal>
0.0000

> <Gold.Chemscore.Hbonds>
donor molecule, donor type, donor heavy atom, donor atom, acceptor molecule, acceptor atom, score
      L1  H    22    47       P1 10171  1.00
      L1  C    18    44       P1 10171  0.97

> <Gold.PLP.Chemscore.Internal.Correction>
0.0374

> <Gold.Rescore>
     Score         DG    S(hbond)    S(metal)    S(lipo)     H(rot)  DE(clash)    DE(int)     intcor
     11.29     -14.15       1.00        0.00      90.05       2.03       1.63       1.23       ----

> <Gold.Chemscore.Fitness>
11.2929

> <Gold.Chemscore.DG>
-14.1492

> <Gold.Chemscore.ZeroCoef>
-5.4800

> <Gold.Chemscore.Hbond>
0.9966

> <Gold.Chemscore.Metal>
0.0000

> <Gold.Chemscore.Lipo>
90.0547

> <Gold.Chemscore.Internal_Hbond>
0.0000

> <Gold.Chemscore.DEClash>
1.6305

> <Gold.Chemscore.DEInternal>
1.2258

> <Gold.Chemscore.Rot>
2.0297

> <Gold.Chemscore.Internal.Correction>
   9.000000E+99

> <Gold.Chemscore.Hbonds>
donor molecule, donor type, donor heavy atom, donor atom, acceptor molecule, acceptor atom, score
      L1  H    22    47       P1 10171  0.95

> <Gold.Chemscore.Hbond.Weighted>
-3.3287

> <Gold.Chemscore.Metal.Weighted>
-0.0000

> <Gold.Chemscore.Lipo.Weighted>
-10.5364

> <Gold.Chemscore.Internal_Hbond.Weighted>
0.0000

> <Gold.Chemscore.DEClash.Weighted>
1.6305

> <Gold.Chemscore.DEInternal.Weighted>
1.2258

> <Gold.Chemscore.Rot.Weighted>
5.1960

> <Gold.Chemscore.Internal.Correction.Weighted>
   9.000000E+99

> <Gold.Protein.RotatedTorsions>
[ 6907 6896 6895 6894 ] final -135.18 input  -60.11 | X-H torsion
[ 7974 7965 7964 7962 ] final   57.71 input  175.53 | X-H torsion
[ 8008 7997 7996 7995 ] final   64.98 input   59.86 | X-H torsion
[ 10167 10162 10161 10158 ] final  108.83 input  -65.29 | X-H torsion
[ 10718 10713 10712 10709 ] final   76.57 input   66.30 | X-H torsion
[ 10763 10752 10751 10750 ] final  -85.31 input  -60.55 | X-H torsion
[ 11005 11000 10999 10996 ] final   56.03 input  -57.11 | X-H torsion

> <Gold.Protein.ActiveResidues>
 VAL166  LYS551  ARG553  GLY616  TRP617  ASP618  TYR619  PRO620  LYS621  CYS622 
 ASP623  PHE694  ASN695  SER759  ASP760  ASP761  ALA762  ILE779  LEU786  VAL792 
 PHE793  MET794  SER795  GLU796  ALA797  LYS798  CYS799  TRP800  GLU811  SER814 

> <Gold.Protein.RotatedAtoms>
  150.9947  133.6115  159.2703 H   0  0  0  0  0  0  0  0  0  0  0  0  # atno 6907 bound_to 6896
  151.3322  135.0843  159.9352 H   0  0  0  0  0  0  0  0  0  0  0  0  # atno 6908 bound_to 6896
  152.5256  133.9574  159.7755 H   0  0  0  0  0  0  0  0  0  0  0  0  # atno 6909 bound_to 6896
  145.9261  139.3769  143.0449 H   0  0  0  0  0  0  0  0  0  0  0  0  # atno 7974 bound_to 7965
  155.6546  140.3497  155.4760 H   0  0  0  0  0  0  0  0  0  0  0  0  # atno 8008 bound_to 7997
  155.9819  140.1176  157.0741 H   0  0  0  0  0  0  0  0  0  0  0  0  # atno 8009 bound_to 7997
  154.4194  140.1136  156.5433 H   0  0  0  0  0  0  0  0  0  0  0  0  # atno 8010 bound_to 7997
  139.6815  144.7118  151.1507 H   0  0  0  0  0  0  0  0  0  0  0  0  # atno 10167 bound_to 10162
  157.6678  130.9780  150.1515 H   0  0  0  0  0  0  0  0  0  0  0  0  # atno 10718 bound_to 10713
  154.6096  135.5489  153.7459 H   0  0  0  0  0  0  0  0  0  0  0  0  # atno 10763 bound_to 10752
  153.0189  135.6386  154.1597 H   0  0  0  0  0  0  0  0  0  0  0  0  # atno 10764 bound_to 10752
  154.1535  135.2901  155.3109 H   0  0  0  0  0  0  0  0  0  0  0  0  # atno 10765 bound_to 10752
  140.0561  134.5668  155.9206 H   0  0  0  0  0  0  0  0  0  0  0  0  # atno 11005 bound_to 11000
  145.8487  140.9541  143.0761 LP  0  0  0  0  0  0  0  0  0  0  0  0  # atno 17320 bound_to 7965
  144.6759  140.0378  143.7481 LP  0  0  0  0  0  0  0  0  0  0  0  0  # atno 17321 bound_to 7965
  140.7654  143.5692  150.9014 LP  0  0  0  0  0  0  0  0  0  0  0  0  # atno 17342 bound_to 10162
  139.9364  143.6433  152.3064 LP  0  0  0  0  0  0  0  0  0  0  0  0  # atno 17343 bound_to 10162
  156.2313  130.3682  149.8441 LP  0  0  0  0  0  0  0  0  0  0  0  0  # atno 17370 bound_to 10713
  156.6267  130.8649  151.3487 LP  0  0  0  0  0  0  0  0  0  0  0  0  # atno 17371 bound_to 10713
  141.1952  133.6586  156.5634 LP  0  0  0  0  0  0  0  0  0  0  0  0  # atno 17394 bound_to 11000
  140.3842  134.7497  157.4681 LP  0  0  0  0  0  0  0  0  0  0  0  0  # atno 17395 bound_to 11000

$$$$
