AV-unprocessed.smi:1564|AV-procd|sdf|6293|dock2
  -GOLD-   22720 6493D 1   1.00000     0.00000
 Structure written by MMmdl.
 43 44  0  0  0  0  0  0  0  0  2 V2000
  152.5281  140.4076  158.1286 C   0  0  0  0  0  0  0  0  0  0  0  0
  152.5228  140.2979  156.7093 O   0  0  0  0  0  0  0  0  0  0  0  0
  151.8156  139.2616  156.1349 C   0  0  0  0  0  0  0  0  0  0  0  0
  151.6000  138.0919  156.8902 C   0  0  0  0  0  0  0  0  0  0  0  0
  150.8776  137.0305  156.3121 C   0  0  0  0  0  0  0  0  0  0  0  0
  150.3850  137.1765  154.9932 C   0  0  0  0  0  0  0  0  0  0  0  0
  149.6608  136.1739  154.2930 N   0  0  0  0  0  0  0  0  0  0  0  0
  149.3744  134.9211  154.6864 C   0  0  0  0  0  0  0  0  0  0  0  0
  149.6699  134.4298  155.7755 O   0  0  0  0  0  0  0  0  0  0  0  0
  148.6930  134.2578  153.7415 N   0  0  0  0  0  0  0  0  0  0  0  0
  148.2336  132.8781  153.8622 C   0  0  2  0  0  0  0  0  0  0  0  0
  149.3544  131.8520  153.9200 C   0  0  0  0  0  0  0  0  0  0  0  0
  148.6004  130.5649  153.5829 C   0  0  0  0  0  0  0  0  0  0  0  0
  147.5714  130.9376  152.5792 N   0  3  1  0  0  0  0  0  0  0  0  0
  146.3109  130.1416  152.6156 C   0  0  0  0  0  0  0  0  0  0  0  0
  146.5772  128.6357  152.4172 C   0  0  0  0  0  0  0  0  0  0  0  0
  145.3209  130.6208  151.5358 C   0  0  0  0  0  0  0  0  0  0  0  0
  147.4025  132.4118  152.6602 C   0  0  0  0  0  0  0  0  0  0  0  0
  150.6686  138.3814  154.3174 C   0  0  0  0  0  0  0  0  0  0  0  0
  151.3588  139.4031  154.8661 N   0  0  0  0  0  0  0  0  0  0  0  0
  153.1286  141.2687  158.4212 H   0  0  0  0  0  0  0  0  0  0  0  0
  152.9673  139.5244  158.5948 H   0  0  0  0  0  0  0  0  0  0  0  0
  151.5218  140.5578  158.5222 H   0  0  0  0  0  0  0  0  0  0  0  0
  151.9857  138.0081  157.8956 H   0  0  0  0  0  0  0  0  0  0  0  0
  150.7307  136.1276  156.8838 H   0  0  0  0  0  0  0  0  0  0  0  0
  149.2750  136.4619  153.4055 H   0  0  0  0  0  0  0  0  0  0  0  0
  148.4877  134.7363  152.8762 H   0  0  0  0  0  0  0  0  0  0  0  0
  147.6344  132.7798  154.7703 H   0  0  0  0  0  0  0  0  0  0  0  0
  150.1087  132.0594  153.1594 H   0  0  0  0  0  0  0  0  0  0  0  0
  149.8476  131.8116  154.8919 H   0  0  0  0  0  0  0  0  0  0  0  0
  149.2600  129.7801  153.2116 H   0  0  0  0  0  0  0  0  0  0  0  0
  148.1165  130.1984  154.4899 H   0  0  0  0  0  0  0  0  0  0  0  0
  145.8508  130.2784  153.5957 H   0  0  0  0  0  0  0  0  0  0  0  0
  145.6420  128.0753  152.3904 H   0  0  0  0  0  0  0  0  0  0  0  0
  147.1723  128.2096  153.2247 H   0  0  0  0  0  0  0  0  0  0  0  0
  147.1002  128.4454  151.4792 H   0  0  0  0  0  0  0  0  0  0  0  0
  144.4098  130.0219  151.5499 H   0  0  0  0  0  0  0  0  0  0  0  0
  145.7540  130.5357  150.5384 H   0  0  0  0  0  0  0  0  0  0  0  0
  145.0161  131.6571  151.6766 H   0  0  0  0  0  0  0  0  0  0  0  0
  146.3637  132.7216  152.7758 H   0  0  0  0  0  0  0  0  0  0  0  0
  147.7761  132.8462  151.7319 H   0  0  0  0  0  0  0  0  0  0  0  0
  150.3265  138.5350  153.3041 H   0  0  0  0  0  0  0  0  0  0  0  0
  147.9900  130.7614  151.6770 H   0  0  0  0  0  0  0  0  0  0  0  0
  1  2  1  0  0  0  0
  1 21  1  0  0  0  0
  1 22  1  0  0  0  0
  1 23  1  0  0  0  0
  2  3  1  0  0  0  0
  3 20  1  0  0  0  0
  3  4  2  0  0  0  0
  4  5  1  0  0  0  0
  4 24  1  0  0  0  0
  5  6  2  0  0  0  0
  5 25  1  0  0  0  0
  6  7  1  0  0  0  0
  6 19  1  0  0  0  0
  7  8  1  0  0  0  0
  7 26  1  0  0  0  0
  8  9  2  0  0  0  0
  8 10  1  0  0  0  0
 10 11  1  0  0  0  0
 10 27  1  0  0  0  0
 11 18  1  0  0  0  0
 11 12  1  0  0  0  0
 11 28  1  0  0  0  0
 12 13  1  0  0  0  0
 12 29  1  0  0  0  0
 12 30  1  0  0  0  0
 13 14  1  0  0  0  0
 13 31  1  0  0  0  0
 13 32  1  0  0  0  0
 14 15  1  0  0  0  0
 14 18  1  0  0  0  0
 14 43  1  0  0  0  0
 15 16  1  0  0  0  0
 15 17  1  0  0  0  0
 15 33  1  0  0  0  0
 16 34  1  0  0  0  0
 16 35  1  0  0  0  0
 16 36  1  0  0  0  0
 17 37  1  0  0  0  0
 17 38  1  0  0  0  0
 17 39  1  0  0  0  0
 18 40  1  0  0  0  0
 18 41  1  0  0  0  0
 19 20  2  0  0  0  0
 19 42  1  0  0  0  0
M  CHG  1  14   1
M  END
> <s_m_source_file>
AV-unprocessed.smi

> <i_m_source_file_index>
1564

> <i_lp_mmshare_version>
43012

> <i_f3d_flags>
0

> <s_epik_input>
W0NIM11PYzFbY0hdW2NIXWMoW2NIXW4xKVtOSF1DKD1PKVtOSF1bQ0BASF0yW0NIMl1bQ0gyXU4oW0NIMl0yKVtDSF0oW0NIM10pW0NIM10=

> <s_epik_cmdline>
J2VwaWtfcHl0aG9uJywgJy1waCcsICc3LjAnLCAnLXRuJywgJzgnLCAnLW1hJywgJzIwMCcsICctbWV0YWxfYmluZGluZycsICctaW1hZScsICc8aW5maWxlLm1hZT4nLCAnLW9tYWUnLCAnPG91dGZpbGUubWFlPic=

> <r_lp_tautomer_probability>
1

> <r_epik_Ionization_Penalty>
0.000679474

> <r_epik_Ionization_Penalty_Charging>
0.000606352

> <r_epik_Ionization_Penalty_Neutral>
7.31222e-05

> <r_epik_State_Penalty>
0.000382168

> <r_epik_Charging_Adjusted_Penalty>
0.00098852

> <i_epik_Tot_Q>
1

> <i_epik_Tot_abs_Q>
1

> <r_epik_Metal_State_Penalty>
-0

> <b_epik_Metal_Only>
0

> <s_lp_Force_Field>
OPLS_2005

> <r_lp_Energy>
34.2158

> <b_lp_Chiralities_Consistent>
1

> <s_lp_Variant>
AV-unprocessed.smi:1564-1

> <Gold.Version>
5.8.1

> <Gold.Id.Protein>
6NUR|6NUR_protein|mol2

> <Gold.PLP.Fitness>
47.2237

> <Gold.PLP.PLP>
-31.7655

> <Gold.PLP.part.hbond>
-5.4084

> <Gold.PLP.part.metal>
0.0000

> <Gold.PLP.part.buried>
0.7281

> <Gold.PLP.part.nonpolar>
-25.1369

> <Gold.PLP.part.repulsive>
0.1323

> <Gold.PLP.ligand.clash>
0.0000

> <Gold.PLP.ligand.torsion>
0.4022

> <Gold.PLP.Chemscore.Hbond>
4.8553

> <Gold.PLP.Chemscore.CHOScore>
0.5556

> <Gold.PLP.Chemscore.Metal>
0.0000

> <Gold.Chemscore.Hbonds>
donor molecule, donor type, donor heavy atom, donor atom, acceptor molecule, acceptor atom, score
      L1  H     7    26       P1  7948  1.00
      L1  H    10    27       P1  7948  0.86
      L1  H    14    43       P1 10747  1.00
      P1  H  7989  7998       L1    20  1.00
      P1  H  7997  8010       L1     2  0.95
      L1  C    19    42       P1  7957  0.58

> <Gold.PLP.Chemscore.Internal.Correction>
0.0302

> <Gold.Rescore>
     Score         DG    S(hbond)    S(metal)    S(lipo)     H(rot)  DE(clash)    DE(int)     intcor
     19.55     -21.26       3.14        0.00      76.79       1.44       0.08       1.63       ----

> <Gold.Chemscore.Fitness>
19.5503

> <Gold.Chemscore.DG>
-21.2624

> <Gold.Chemscore.ZeroCoef>
-5.4800

> <Gold.Chemscore.Hbond>
3.1426

> <Gold.Chemscore.Metal>
0.0000

> <Gold.Chemscore.Lipo>
76.7868

> <Gold.Chemscore.Internal_Hbond>
0.0000

> <Gold.Chemscore.DEClash>
0.0773

> <Gold.Chemscore.DEInternal>
1.6348

> <Gold.Chemscore.Rot>
1.4445

> <Gold.Chemscore.Internal.Correction>
   9.000000E+99

> <Gold.Chemscore.Hbonds>
donor molecule, donor type, donor heavy atom, donor atom, acceptor molecule, acceptor atom, score
      L1  H     7    26       P1  7948  0.84
      L1  H    10    27       P1  7948  0.29
      L1  H    14    43       P1 10747  1.00
      P1  H  7989  7998       L1    20  0.70
      P1  H  7997  8010       L1     2  0.17

> <Gold.Chemscore.Hbond.Weighted>
-10.4962

> <Gold.Chemscore.Metal.Weighted>
-0.0000

> <Gold.Chemscore.Lipo.Weighted>
-8.9841

> <Gold.Chemscore.Internal_Hbond.Weighted>
0.0000

> <Gold.Chemscore.DEClash.Weighted>
0.0773

> <Gold.Chemscore.DEInternal.Weighted>
1.6348

> <Gold.Chemscore.Rot.Weighted>
3.6979

> <Gold.Chemscore.Internal.Correction.Weighted>
   9.000000E+99

> <Gold.Protein.RotatedTorsions>
[ 6907 6896 6895 6894 ] final  130.41 input  -60.11 | X-H torsion
[ 7974 7965 7964 7962 ] final  -87.80 input  175.53 | X-H torsion
[ 8008 7997 7996 7995 ] final   72.01 input   59.86 | X-H torsion
[ 10167 10162 10161 10158 ] final  -58.41 input  -65.29 | X-H torsion
[ 10718 10713 10712 10709 ] final   47.71 input   66.30 | X-H torsion
[ 10763 10752 10751 10750 ] final  172.49 input  -60.55 | X-H torsion
[ 11005 11000 10999 10996 ] final  -30.95 input  -57.11 | X-H torsion

> <Gold.Protein.ActiveResidues>
 VAL166  LYS551  ARG553  GLY616  TRP617  ASP618  TYR619  PRO620  LYS621  CYS622 
 ASP623  PHE694  ASN695  SER759  ASP760  ASP761  ALA762  ILE779  LEU786  VAL792 
 PHE793  MET794  SER795  GLU796  ALA797  LYS798  CYS799  TRP800  GLU811  SER814 

> <Gold.Protein.RotatedAtoms>
  152.3529  133.6201  159.5957 H   0  0  0  0  0  0  0  0  0  0  0  0  # atno 6907 bound_to 6896
  150.7549  133.9546  159.3505 H   0  0  0  0  0  0  0  0  0  0  0  0  # atno 6908 bound_to 6896
  151.7396  135.0858  160.0364 H   0  0  0  0  0  0  0  0  0  0  0  0  # atno 6909 bound_to 6896
  145.4617  140.9561  143.1966 H   0  0  0  0  0  0  0  0  0  0  0  0  # atno 7974 bound_to 7965
  155.7625  140.3486  155.5205 H   0  0  0  0  0  0  0  0  0  0  0  0  # atno 8008 bound_to 7997
  155.8900  140.1016  157.1446 H   0  0  0  0  0  0  0  0  0  0  0  0  # atno 8009 bound_to 7997
  154.4032  140.1306  156.4291 H   0  0  0  0  0  0  0  0  0  0  0  0  # atno 8010 bound_to 7997
  140.6199  143.2415  151.5506 H   0  0  0  0  0  0  0  0  0  0  0  0  # atno 10167 bound_to 10162
  157.4613  130.8198  149.7889 H   0  0  0  0  0  0  0  0  0  0  0  0  # atno 10718 bound_to 10713
  154.4268  135.2759  155.1939 H   0  0  0  0  0  0  0  0  0  0  0  0  # atno 10763 bound_to 10752
  154.3862  135.6076  153.5821 H   0  0  0  0  0  0  0  0  0  0  0  0  # atno 10764 bound_to 10752
  152.9834  135.5892  154.4572 H   0  0  0  0  0  0  0  0  0  0  0  0  # atno 10765 bound_to 10752
  140.9427  133.7269  156.1100 H   0  0  0  0  0  0  0  0  0  0  0  0  # atno 11005 bound_to 11000
  144.7998  139.6162  143.7076 LP  0  0  0  0  0  0  0  0  0  0  0  0  # atno 17320 bound_to 7965
  146.2447  139.6073  142.9468 LP  0  0  0  0  0  0  0  0  0  0  0  0  # atno 17321 bound_to 7965
  139.5430  144.2597  152.1387 LP  0  0  0  0  0  0  0  0  0  0  0  0  # atno 17342 bound_to 10162
  140.1815  144.4840  150.6526 LP  0  0  0  0  0  0  0  0  0  0  0  0  # atno 17343 bound_to 10162
  156.0030  130.3870  150.2535 LP  0  0  0  0  0  0  0  0  0  0  0  0  # atno 17370 bound_to 10713
  157.0713  131.0117  151.3189 LP  0  0  0  0  0  0  0  0  0  0  0  0  # atno 17371 bound_to 10713
  140.7712  134.3830  157.5507 LP  0  0  0  0  0  0  0  0  0  0  0  0  # atno 17394 bound_to 11000
  139.8824  134.9023  156.2830 LP  0  0  0  0  0  0  0  0  0  0  0  0  # atno 17395 bound_to 11000

$$$$
