AV-unprocessed.smi:2026|AV-procd|sdf|8207|dock7
  -GOLD-   2272010463D 1   1.00000     0.00000
 Structure written by MMmdl.
 46 48  0  0  0  0  0  0  0  0  3 V2000
  152.4473  144.1673  161.4225 C   0  0  0  0  0  0  0  0  0  0  0  0
  152.2341  143.1865  160.2823 C   0  0  0  0  0  0  0  0  0  0  0  0
  151.4506  143.5947  159.1784 C   0  0  0  0  0  0  0  0  0  0  0  0
  151.2732  142.6744  158.1516 C   0  0  0  0  0  0  0  0  0  0  0  0
  150.5705  142.7652  156.9473 N   0  3  0  0  0  0  0  0  0  0  0  0
  150.6890  141.5935  156.2618 C   0  0  0  0  0  0  0  0  0  0  0  0
  151.4564  140.7580  157.0117 N   0  0  0  0  0  0  0  0  0  0  0  0
  151.9016  139.3840  156.7539 C   0  0  0  0  0  0  0  0  0  0  0  0
  151.1269  138.3507  157.5979 C   0  0  2  0  0  0  0  0  0  0  0  0
  151.9184  137.1905  157.7558 O   0  0  0  0  0  0  0  0  0  0  0  0
  149.7687  137.9441  156.9913 C   0  0  0  0  0  0  0  0  0  0  0  0
  148.7966  137.5436  158.0172 N   0  0  0  0  0  0  0  0  0  0  0  0
  147.7836  138.3060  158.4725 C   0  0  0  0  0  0  0  0  0  0  0  0
  147.5734  139.4426  158.0505 O   0  0  0  0  0  0  0  0  0  0  0  0
  147.0791  137.6573  159.4294 N   0  5  0  0  0  0  0  0  0  0  0  0
  147.6660  136.3492  159.6381 C   0  0  0  0  0  0  0  0  0  0  0  0
  148.1698  136.2203  161.0882 C   0  0  0  0  0  0  0  0  0  0  0  0
  146.6467  135.2470  159.2936 C   0  0  0  0  0  0  0  0  0  0  0  0
  148.8168  136.3645  158.6484 C   0  0  0  0  0  0  0  0  0  0  0  0
  149.6166  135.4412  158.4914 O   0  0  0  0  0  0  0  0  0  0  0  0
  151.8437  141.3885  158.1978 C   0  0  0  0  0  0  0  0  0  0  0  0
  152.6201  140.9707  159.2752 C   0  0  0  0  0  0  0  0  0  0  0  0
  152.8129  141.8912  160.3291 C   0  0  0  0  0  0  0  0  0  0  0  0
  153.6566  141.4624  161.5175 C   0  0  0  0  0  0  0  0  0  0  0  0
  151.9117  145.1016  161.2512 H   0  0  0  0  0  0  0  0  0  0  0  0
  153.5061  144.4044  161.5288 H   0  0  0  0  0  0  0  0  0  0  0  0
  152.0897  143.7463  162.3625 H   0  0  0  0  0  0  0  0  0  0  0  0
  151.0096  144.5801  159.1350 H   0  0  0  0  0  0  0  0  0  0  0  0
  150.2564  141.3691  155.2975 H   0  0  0  0  0  0  0  0  0  0  0  0
  151.7878  139.1964  155.6860 H   0  0  0  0  0  0  0  0  0  0  0  0
  152.9707  139.3292  156.9635 H   0  0  0  0  0  0  0  0  0  0  0  0
  150.9577  138.7531  158.5969 H   0  0  0  0  0  0  0  0  0  0  0  0
  152.1614  137.1168  158.6659 H   0  0  0  0  0  0  0  0  0  0  0  0
  149.3760  138.7581  156.3800 H   0  0  0  0  0  0  0  0  0  0  0  0
  149.9089  137.1069  156.3050 H   0  0  0  0  0  0  0  0  0  0  0  0
  148.6549  135.2581  161.2555 H   0  0  0  0  0  0  0  0  0  0  0  0
  147.3458  136.2975  161.7984 H   0  0  0  0  0  0  0  0  0  0  0  0
  148.8886  137.0013  161.3388 H   0  0  0  0  0  0  0  0  0  0  0  0
  147.0736  134.2543  159.4410 H   0  0  0  0  0  0  0  0  0  0  0  0
  146.3148  135.3110  158.2561 H   0  0  0  0  0  0  0  0  0  0  0  0
  145.7611  135.3186  159.9260 H   0  0  0  0  0  0  0  0  0  0  0  0
  153.0619  139.9856  159.3056 H   0  0  0  0  0  0  0  0  0  0  0  0
  154.0702  140.4639  161.3734 H   0  0  0  0  0  0  0  0  0  0  0  0
  153.0558  141.4466  162.4269 H   0  0  0  0  0  0  0  0  0  0  0  0
  154.4918  142.1475  161.6642 H   0  0  0  0  0  0  0  0  0  0  0  0
  150.0497  143.5662  156.6141 H   0  0  0  0  0  0  0  0  0  0  0  0
  1  2  1  0  0  0  0
  1 25  1  0  0  0  0
  1 26  1  0  0  0  0
  1 27  1  0  0  0  0
  2 23  1  0  0  0  0
  2  3  2  0  0  0  0
  3  4  1  0  0  0  0
  3 28  1  0  0  0  0
  4 21  2  0  0  0  0
  4  5  1  0  0  0  0
  5  6  2  0  0  0  0
  5 46  1  0  0  0  0
  6  7  1  0  0  0  0
  6 29  1  0  0  0  0
  7  8  1  0  0  0  0
  7 21  1  0  0  0  0
  8  9  1  0  0  0  0
  8 30  1  0  0  0  0
  8 31  1  0  0  0  0
  9 10  1  0  0  0  0
  9 11  1  0  0  0  0
  9 32  1  0  0  0  0
 10 33  1  0  0  0  0
 11 12  1  0  0  0  0
 11 34  1  0  0  0  0
 11 35  1  0  0  0  0
 12 19  1  0  0  0  0
 12 13  1  0  0  0  0
 13 14  2  0  0  0  0
 13 15  1  0  0  0  0
 15 16  1  0  0  0  0
 16 17  1  0  0  0  0
 16 18  1  0  0  0  0
 16 19  1  0  0  0  0
 17 36  1  0  0  0  0
 17 37  1  0  0  0  0
 17 38  1  0  0  0  0
 18 39  1  0  0  0  0
 18 40  1  0  0  0  0
 18 41  1  0  0  0  0
 19 20  2  0  0  0  0
 21 22  1  0  0  0  0
 22 23  2  0  0  0  0
 22 42  1  0  0  0  0
 23 24  1  0  0  0  0
 24 43  1  0  0  0  0
 24 44  1  0  0  0  0
 24 45  1  0  0  0  0
M  CHG  1   5   1
M  CHG  1  15  -1
M  END
> <s_m_source_file>
AV-unprocessed.smi

> <i_m_source_file_index>
2026

> <i_lp_mmshare_version>
43012

> <i_f3d_flags>
0

> <s_epik_input>
W0NIM11jKFtjSF0xKWMoW0NIM10pW2NIXWMoYzEyKW4oW2NIXW4yKVtDSDJdW0NASF0oW09IXSlbQ0gyXU4oQzM9TylDKD1PKVtOSF1DMyhbQ0gzXSlbQ0gzXQ==

> <s_epik_cmdline>
J2VwaWtfcHl0aG9uJywgJy1waCcsICc3LjAnLCAnLXRuJywgJzgnLCAnLW1hJywgJzIwMCcsICctbWV0YWxfYmluZGluZycsICctaW1hZScsICc8aW5maWxlLm1hZT4nLCAnLW9tYWUnLCAnPG91dGZpbGUubWFlPic=

> <r_lp_tautomer_probability>
1

> <r_epik_Ionization_Penalty>
6.70784

> <r_epik_Ionization_Penalty_Charging>
6.70784

> <r_epik_Ionization_Penalty_Neutral>
1.13852e-06

> <r_epik_State_Penalty>
6.78089

> <r_epik_Charging_Adjusted_Penalty>
13.4887

> <i_epik_Tot_Q>
0

> <i_epik_Tot_abs_Q>
2

> <r_epik_Metal_State_Penalty>
2.84685

> <b_epik_Metal_Only>
1

> <s_lp_Force_Field>
OPLS_2005

> <r_lp_Energy>
17.8482

> <b_lp_Chiralities_Consistent>
1

> <s_lp_Variant>
AV-unprocessed.smi:2026-7

> <Gold.Version>
5.8.1

> <Gold.Id.Protein>
6NUR|6NUR_protein|mol2

> <Gold.PLP.Fitness>
52.3468

> <Gold.PLP.PLP>
-40.6516

> <Gold.PLP.part.hbond>
-3.8063

> <Gold.PLP.part.metal>
0.0000

> <Gold.PLP.part.buried>
-4.7615

> <Gold.PLP.part.nonpolar>
-33.0458

> <Gold.PLP.part.repulsive>
0.0380

> <Gold.PLP.ligand.clash>
0.0000

> <Gold.PLP.ligand.torsion>
0.9978

> <Gold.PLP.Chemscore.Hbond>
4.5543

> <Gold.PLP.Chemscore.CHOScore>
0.0000

> <Gold.PLP.Chemscore.Metal>
0.0000

> <Gold.Chemscore.Hbonds>
donor molecule, donor type, donor heavy atom, donor atom, acceptor molecule, acceptor atom, score
      L1  H     5    46       P1  8028  2.00
      P1  H  6896  6909       L1    20  1.00
      P1  H  6934  6947       L1    15  1.49

> <Gold.PLP.Chemscore.Internal.Correction>
0.0279

> <Gold.Rescore>
     Score         DG    S(hbond)    S(metal)    S(lipo)     H(rot)  DE(clash)    DE(int)     intcor
     18.10     -19.48       2.34        0.00     106.19       2.44       0.22       1.15       ----

> <Gold.Chemscore.Fitness>
18.1035

> <Gold.Chemscore.DG>
-19.4777

> <Gold.Chemscore.ZeroCoef>
-5.4800

> <Gold.Chemscore.Hbond>
2.3379

> <Gold.Chemscore.Metal>
0.0000

> <Gold.Chemscore.Lipo>
106.1913

> <Gold.Chemscore.Internal_Hbond>
0.0000

> <Gold.Chemscore.DEClash>
0.2247

> <Gold.Chemscore.DEInternal>
1.1496

> <Gold.Chemscore.Rot>
2.4357

> <Gold.Chemscore.Internal.Correction>
   9.000000E+99

> <Gold.Chemscore.Hbonds>
donor molecule, donor type, donor heavy atom, donor atom, acceptor molecule, acceptor atom, score
      L1  H     5    46       P1  8028  1.00
      P1  H  6896  6909       L1    20  1.00
      P1  H  6934  6947       L1    15  0.16

> <Gold.Chemscore.Hbond.Weighted>
-7.8087

> <Gold.Chemscore.Metal.Weighted>
-0.0000

> <Gold.Chemscore.Lipo.Weighted>
-12.4244

> <Gold.Chemscore.Internal_Hbond.Weighted>
0.0000

> <Gold.Chemscore.DEClash.Weighted>
0.2247

> <Gold.Chemscore.DEInternal.Weighted>
1.1496

> <Gold.Chemscore.Rot.Weighted>
6.2353

> <Gold.Chemscore.Internal.Correction.Weighted>
   9.000000E+99

> <Gold.Protein.RotatedTorsions>
[ 6907 6896 6895 6894 ] final   44.14 input  -60.11 | X-H torsion
[ 7974 7965 7964 7962 ] final  -75.28 input  175.53 | X-H torsion
[ 8008 7997 7996 7995 ] final  -71.05 input   59.86 | X-H torsion
[ 10167 10162 10161 10158 ] final   33.13 input  -65.29 | X-H torsion
[ 10718 10713 10712 10709 ] final   38.72 input   66.30 | X-H torsion
[ 10763 10752 10751 10750 ] final  -94.29 input  -60.55 | X-H torsion
[ 11005 11000 10999 10996 ] final  100.43 input  -57.11 | X-H torsion

> <Gold.Protein.ActiveResidues>
 VAL166  LYS551  ARG553  GLY616  TRP617  ASP618  TYR619  PRO620  LYS621  CYS622 
 ASP623  PHE694  ASN695  SER759  ASP760  ASP761  ALA762  ILE779  LEU786  VAL792 
 PHE793  MET794  SER795  GLU796  ALA797  LYS798  CYS799  TRP800  GLU811  SER814 

> <Gold.Protein.RotatedAtoms>
  152.2289  134.8341  160.0476 H   0  0  0  0  0  0  0  0  0  0  0  0  # atno 6907 bound_to 6896
  151.9098  133.3553  159.3867 H   0  0  0  0  0  0  0  0  0  0  0  0  # atno 6908 bound_to 6896
  150.7020  134.4669  159.5451 H   0  0  0  0  0  0  0  0  0  0  0  0  # atno 6909 bound_to 6896
  145.6280  140.9345  143.1102 H   0  0  0  0  0  0  0  0  0  0  0  0  # atno 7974 bound_to 7965
  154.5058  140.0823  156.7891 H   0  0  0  0  0  0  0  0  0  0  0  0  # atno 8008 bound_to 7997
  155.3897  140.3432  155.4232 H   0  0  0  0  0  0  0  0  0  0  0  0  # atno 8009 bound_to 7997
  156.1513  140.1559  156.8752 H   0  0  0  0  0  0  0  0  0  0  0  0  # atno 8010 bound_to 7997
  140.4436  144.1152  150.6178 H   0  0  0  0  0  0  0  0  0  0  0  0  # atno 10167 bound_to 10162
  157.3621  130.7655  149.7055 H   0  0  0  0  0  0  0  0  0  0  0  0  # atno 10718 bound_to 10713
  154.7041  135.5163  153.8569 H   0  0  0  0  0  0  0  0  0  0  0  0  # atno 10763 bound_to 10752
  153.0727  135.6606  154.0221 H   0  0  0  0  0  0  0  0  0  0  0  0  # atno 10764 bound_to 10752
  154.0075  135.3005  155.3375 H   0  0  0  0  0  0  0  0  0  0  0  0  # atno 10765 bound_to 10752
  139.8771  134.9140  156.4755 H   0  0  0  0  0  0  0  0  0  0  0  0  # atno 11005 bound_to 11000
  144.7204  139.8048  143.7384 LP  0  0  0  0  0  0  0  0  0  0  0  0  # atno 17320 bound_to 7965
  146.1379  139.4428  143.0127 LP  0  0  0  0  0  0  0  0  0  0  0  0  # atno 17321 bound_to 7965
  140.4290  143.2577  151.9620 LP  0  0  0  0  0  0  0  0  0  0  0  0  # atno 17342 bound_to 10162
  139.4791  144.5761  151.8009 LP  0  0  0  0  0  0  0  0  0  0  0  0  # atno 17343 bound_to 10162
  155.9739  130.4111  150.3963 LP  0  0  0  0  0  0  0  0  0  0  0  0  # atno 17370 bound_to 10713
  157.2041  131.0445  151.2634 LP  0  0  0  0  0  0  0  0  0  0  0  0  # atno 17371 bound_to 10713
  140.8765  133.7949  155.9420 LP  0  0  0  0  0  0  0  0  0  0  0  0  # atno 17394 bound_to 11000
  140.8899  134.2509  157.5100 LP  0  0  0  0  0  0  0  0  0  0  0  0  # atno 17395 bound_to 11000

$$$$
