AV-unprocessed.smi:2026|AV-procd|sdf|8203|dock8
  -GOLD-   2272010463D 1   1.00000     0.00000
 Structure written by MMmdl.
 47 49  0  0  0  0  0  0  0  0  2 V2000
  152.1819  144.9868  160.4974 C   0  0  0  0  0  0  0  0  0  0  0  0
  151.9902  143.8239  159.5388 C   0  0  0  0  0  0  0  0  0  0  0  0
  151.2353  144.0359  158.3623 C   0  0  0  0  0  0  0  0  0  0  0  0
  151.0783  142.9526  157.5053 C   0  0  0  0  0  0  0  0  0  0  0  0
  150.4059  142.8351  156.2863 N   0  3  0  0  0  0  0  0  0  0  0  0
  150.5356  141.5630  155.8156 C   0  0  0  0  0  0  0  0  0  0  0  0
  151.2796  140.8678  156.7174 N   0  0  0  0  0  0  0  0  0  0  0  0
  151.7205  139.4683  156.7122 C   0  0  0  0  0  0  0  0  0  0  0  0
  150.5549  138.4854  156.9487 C   0  0  2  0  0  0  0  0  0  0  0  0
  149.8811  138.2573  155.7279 O   0  0  0  0  0  0  0  0  0  0  0  0
  149.5307  138.9743  157.9932 C   0  0  0  0  0  0  0  0  0  0  0  0
  148.7397  137.8761  158.5631 N   0  0  0  0  0  0  0  0  0  0  0  0
  147.4106  137.7338  158.4103 C   0  0  0  0  0  0  0  0  0  0  0  0
  146.6607  138.4820  157.7854 O   0  0  0  0  0  0  0  0  0  0  0  0
  147.0265  136.6324  159.0684 N   0  0  0  0  0  0  0  0  0  0  0  0
  148.1261  135.9551  159.7277 C   0  0  0  0  0  0  0  0  0  0  0  0
  147.9242  135.9396  161.2535 C   0  0  0  0  0  0  0  0  0  0  0  0
  148.3263  134.5423  159.1506 C   0  0  0  0  0  0  0  0  0  0  0  0
  149.2506  136.8932  159.3173 C   0  0  0  0  0  0  0  0  0  0  0  0
  150.4257  136.7479  159.6541 O   0  0  0  0  0  0  0  0  0  0  0  0
  151.6413  141.6935  157.7862 C   0  0  0  0  0  0  0  0  0  0  0  0
  152.3886  141.4671  158.9389 C   0  0  0  0  0  0  0  0  0  0  0  0
  152.5606  142.5556  159.8226 C   0  0  0  0  0  0  0  0  0  0  0  0
  153.3733  142.3383  161.0877 C   0  0  0  0  0  0  0  0  0  0  0  0
  151.6752  145.8848  160.1428 H   0  0  0  0  0  0  0  0  0  0  0  0
  153.2408  145.2229  160.6053 H   0  0  0  0  0  0  0  0  0  0  0  0
  151.7788  144.7432  161.4806 H   0  0  0  0  0  0  0  0  0  0  0  0
  150.8004  144.9993  158.1387 H   0  0  0  0  0  0  0  0  0  0  0  0
  150.1249  141.1773  154.8935 H   0  0  0  0  0  0  0  0  0  0  0  0
  152.2145  139.2826  155.7583 H   0  0  0  0  0  0  0  0  0  0  0  0
  152.4844  139.3524  157.4824 H   0  0  0  0  0  0  0  0  0  0  0  0
  150.9529  137.5229  157.2704 H   0  0  0  0  0  0  0  0  0  0  0  0
  149.9497  137.3395  155.5132 H   0  0  0  0  0  0  0  0  0  0  0  0
  150.0424  139.5303  158.7809 H   0  0  0  0  0  0  0  0  0  0  0  0
  148.8458  139.6872  157.5306 H   0  0  0  0  0  0  0  0  0  0  0  0
  146.0743  136.2992  159.1119 H   0  0  0  0  0  0  0  0  0  0  0  0
  148.7679  135.4691  161.7599 H   0  0  0  0  0  0  0  0  0  0  0  0
  147.0272  135.3817  161.5237 H   0  0  0  0  0  0  0  0  0  0  0  0
  147.8157  136.9468  161.6576 H   0  0  0  0  0  0  0  0  0  0  0  0
  149.1558  134.0297  159.6390 H   0  0  0  0  0  0  0  0  0  0  0  0
  148.5392  134.5688  158.0806 H   0  0  0  0  0  0  0  0  0  0  0  0
  147.4344  133.9314  159.2915 H   0  0  0  0  0  0  0  0  0  0  0  0
  152.8252  140.5028  159.1503 H   0  0  0  0  0  0  0  0  0  0  0  0
  153.7725  141.3250  161.1364 H   0  0  0  0  0  0  0  0  0  0  0  0
  152.7545  142.4960  161.9712 H   0  0  0  0  0  0  0  0  0  0  0  0
  154.2163  143.0284  161.1261 H   0  0  0  0  0  0  0  0  0  0  0  0
  149.8970  143.5672  155.8079 H   0  0  0  0  0  0  0  0  0  0  0  0
  1  2  1  0  0  0  0
  1 25  1  0  0  0  0
  1 26  1  0  0  0  0
  1 27  1  0  0  0  0
  2 23  1  0  0  0  0
  2  3  2  0  0  0  0
  3  4  1  0  0  0  0
  3 28  1  0  0  0  0
  4 21  2  0  0  0  0
  4  5  1  0  0  0  0
  5  6  2  0  0  0  0
  5 47  1  0  0  0  0
  6  7  1  0  0  0  0
  6 29  1  0  0  0  0
  7  8  1  0  0  0  0
  7 21  1  0  0  0  0
  8  9  1  0  0  0  0
  8 30  1  0  0  0  0
  8 31  1  0  0  0  0
  9 10  1  0  0  0  0
  9 11  1  0  0  0  0
  9 32  1  0  0  0  0
 10 33  1  0  0  0  0
 11 12  1  0  0  0  0
 11 34  1  0  0  0  0
 11 35  1  0  0  0  0
 12 19  1  0  0  0  0
 12 13  1  0  0  0  0
 13 14  2  0  0  0  0
 13 15  1  0  0  0  0
 15 16  1  0  0  0  0
 15 36  1  0  0  0  0
 16 17  1  0  0  0  0
 16 18  1  0  0  0  0
 16 19  1  0  0  0  0
 17 37  1  0  0  0  0
 17 38  1  0  0  0  0
 17 39  1  0  0  0  0
 18 40  1  0  0  0  0
 18 41  1  0  0  0  0
 18 42  1  0  0  0  0
 19 20  2  0  0  0  0
 21 22  1  0  0  0  0
 22 23  2  0  0  0  0
 22 43  1  0  0  0  0
 23 24  1  0  0  0  0
 24 44  1  0  0  0  0
 24 45  1  0  0  0  0
 24 46  1  0  0  0  0
M  CHG  1   5   1
M  END
> <s_m_source_file>
AV-unprocessed.smi

> <i_m_source_file_index>
2026

> <i_lp_mmshare_version>
43012

> <i_f3d_flags>
0

> <s_epik_input>
W0NIM11jKFtjSF0xKWMoW0NIM10pW2NIXWMoYzEyKW4oW2NIXW4yKVtDSDJdW0NASF0oW09IXSlbQ0gyXU4oQzM9TylDKD1PKVtOSF1DMyhbQ0gzXSlbQ0gzXQ==

> <s_epik_cmdline>
J2VwaWtfcHl0aG9uJywgJy1waCcsICc3LjAnLCAnLXRuJywgJzgnLCAnLW1hJywgJzIwMCcsICctbWV0YWxfYmluZGluZycsICctaW1hZScsICc8aW5maWxlLm1hZT4nLCAnLW9tYWUnLCAnPG91dGZpbGUubWFlPic=

> <r_lp_tautomer_probability>
1

> <r_epik_Ionization_Penalty>
1.08255

> <r_epik_Ionization_Penalty_Charging>
1.08249

> <r_epik_Ionization_Penalty_Neutral>
6.65731e-05

> <r_epik_State_Penalty>
1.13805

> <r_epik_Charging_Adjusted_Penalty>
2.22054

> <i_epik_Tot_Q>
1

> <i_epik_Tot_abs_Q>
1

> <r_epik_Metal_State_Penalty>
1.29676

> <b_epik_Metal_Only>
0

> <s_lp_Force_Field>
OPLS_2005

> <r_lp_Energy>
25.6396

> <b_lp_Chiralities_Consistent>
1

> <s_lp_Variant>
AV-unprocessed.smi:2026-3

> <Gold.Version>
5.8.1

> <Gold.Id.Protein>
6NUR|6NUR_protein|mol2

> <Gold.PLP.Fitness>
51.1649

> <Gold.PLP.PLP>
-43.2114

> <Gold.PLP.part.hbond>
-1.8536

> <Gold.PLP.part.metal>
0.0000

> <Gold.PLP.part.buried>
-6.0849

> <Gold.PLP.part.nonpolar>
-36.0546

> <Gold.PLP.part.repulsive>
0.1921

> <Gold.PLP.ligand.clash>
0.0000

> <Gold.PLP.ligand.torsion>
0.5367

> <Gold.PLP.Chemscore.Hbond>
3.0000

> <Gold.PLP.Chemscore.CHOScore>
0.0000

> <Gold.PLP.Chemscore.Metal>
0.0000

> <Gold.Chemscore.Hbonds>
donor molecule, donor type, donor heavy atom, donor atom, acceptor molecule, acceptor atom, score
      L1  H     5    47       P1  8028  2.00
      P1  H  6896  6909       L1    20  1.00

> <Gold.PLP.Chemscore.Internal.Correction>
0.0269

> <Gold.Rescore>
     Score         DG    S(hbond)    S(metal)    S(lipo)     H(rot)  DE(clash)    DE(int)     intcor
     17.59     -18.08       1.97        0.00     106.08       2.49       0.00       0.49       ----

> <Gold.Chemscore.Fitness>
17.5898

> <Gold.Chemscore.DG>
-18.0848

> <Gold.Chemscore.ZeroCoef>
-5.4800

> <Gold.Chemscore.Hbond>
1.9686

> <Gold.Chemscore.Metal>
0.0000

> <Gold.Chemscore.Lipo>
106.0823

> <Gold.Chemscore.Internal_Hbond>
0.0000

> <Gold.Chemscore.DEClash>
0.0048

> <Gold.Chemscore.DEInternal>
0.4902

> <Gold.Chemscore.Rot>
2.4929

> <Gold.Chemscore.Internal.Correction>
   9.000000E+99

> <Gold.Chemscore.Hbonds>
donor molecule, donor type, donor heavy atom, donor atom, acceptor molecule, acceptor atom, score
      L1  H     5    47       P1  8028  0.92
      P1  H  6896  6909       L1    20  0.81

> <Gold.Chemscore.Hbond.Weighted>
-6.5750

> <Gold.Chemscore.Metal.Weighted>
-0.0000

> <Gold.Chemscore.Lipo.Weighted>
-12.4116

> <Gold.Chemscore.Internal_Hbond.Weighted>
0.0000

> <Gold.Chemscore.DEClash.Weighted>
0.0048

> <Gold.Chemscore.DEInternal.Weighted>
0.4902

> <Gold.Chemscore.Rot.Weighted>
6.3819

> <Gold.Chemscore.Internal.Correction.Weighted>
   9.000000E+99

> <Gold.Protein.RotatedTorsions>
[ 6907 6896 6895 6894 ] final   75.78 input  -60.11 | X-H torsion
[ 7974 7965 7964 7962 ] final   53.55 input  175.53 | X-H torsion
[ 8008 7997 7996 7995 ] final   47.66 input   59.86 | X-H torsion
[ 10167 10162 10161 10158 ] final  -82.27 input  -65.29 | X-H torsion
[ 10718 10713 10712 10709 ] final -177.87 input   66.30 | X-H torsion
[ 10763 10752 10751 10750 ] final   24.93 input  -60.55 | X-H torsion
[ 11005 11000 10999 10996 ] final  152.12 input  -57.11 | X-H torsion

> <Gold.Protein.ActiveResidues>
 VAL166  LYS551  ARG553  GLY616  TRP617  ASP618  TYR619  PRO620  LYS621  CYS622 
 ASP623  PHE694  ASN695  SER759  ASP760  ASP761  ALA762  ILE779  LEU786  VAL792 
 PHE793  MET794  SER795  GLU796  ALA797  LYS798  CYS799  TRP800  GLU811  SER814 

> <Gold.Protein.RotatedAtoms>
  152.5042  134.4069  159.9435 H   0  0  0  0  0  0  0  0  0  0  0  0  # atno 6907 bound_to 6896
  151.4035  133.3743  159.2743 H   0  0  0  0  0  0  0  0  0  0  0  0  # atno 6908 bound_to 6896
  150.9344  134.8778  159.7631 H   0  0  0  0  0  0  0  0  0  0  0  0  # atno 6909 bound_to 6896
  145.9700  139.4139  143.0196 H   0  0  0  0  0  0  0  0  0  0  0  0  # atno 7974 bound_to 7965
  155.3728  140.3424  155.4244 H   0  0  0  0  0  0  0  0  0  0  0  0  # atno 8008 bound_to 7997
  156.1653  140.1614  156.8576 H   0  0  0  0  0  0  0  0  0  0  0  0  # atno 8009 bound_to 7997
  154.5179  140.0774  156.8098 H   0  0  0  0  0  0  0  0  0  0  0  0  # atno 8010 bound_to 7997
  140.4335  143.2540  151.8725 H   0  0  0  0  0  0  0  0  0  0  0  0  # atno 10167 bound_to 10162
  156.8359  130.9669  151.3103 H   0  0  0  0  0  0  0  0  0  0  0  0  # atno 10718 bound_to 10713
  153.0728  135.6594  154.0211 H   0  0  0  0  0  0  0  0  0  0  0  0  # atno 10763 bound_to 10752
  153.9852  135.2951  155.3418 H   0  0  0  0  0  0  0  0  0  0  0  0  # atno 10764 bound_to 10752
  154.7107  135.5206  153.8733 H   0  0  0  0  0  0  0  0  0  0  0  0  # atno 10765 bound_to 10752
  140.1279  134.8821  157.2163 H   0  0  0  0  0  0  0  0  0  0  0  0  # atno 11005 bound_to 11000
  145.7920  140.9810  143.1044 LP  0  0  0  0  0  0  0  0  0  0  0  0  # atno 17320 bound_to 7965
  144.6834  139.9694  143.7482 LP  0  0  0  0  0  0  0  0  0  0  0  0  # atno 17321 bound_to 7965
  139.4786  144.5308  151.8669 LP  0  0  0  0  0  0  0  0  0  0  0  0  # atno 17342 bound_to 10162
  140.4400  144.2000  150.5891 LP  0  0  0  0  0  0  0  0  0  0  0  0  # atno 17343 bound_to 10162
  157.6381  130.8783  149.9397 LP  0  0  0  0  0  0  0  0  0  0  0  0  # atno 17370 bound_to 10713
  156.0907  130.3663  150.0400 LP  0  0  0  0  0  0  0  0  0  0  0  0  # atno 17371 bound_to 10713
  140.2880  134.3273  155.7323 LP  0  0  0  0  0  0  0  0  0  0  0  0  # atno 17394 bound_to 11000
  141.2165  133.7517  156.9461 LP  0  0  0  0  0  0  0  0  0  0  0  0  # atno 17395 bound_to 11000

$$$$
