AV-unprocessed.smi:1802|AV-procd|sdf|7277|dock9
  -GOLD-   22720 8533D 1   1.00000     0.00000
 Structure written by MMmdl.
 40 41  0  0  0  0  0  0  0  0  3 V2000
  151.9915  143.8513  160.9049 C   0  0  0  0  0  0  0  0  0  0  0  0
  152.7835  143.1907  159.7628 C   0  0  2  0  0  0  0  0  0  0  0  0
  152.9735  144.1209  158.5501 C   0  0  0  0  0  0  0  0  0  0  0  0
  151.6713  144.2683  157.7505 C   0  0  0  0  0  0  0  0  0  0  0  0
  151.0977  142.8942  157.3692 C   0  0  0  0  0  0  0  0  0  0  0  0
  150.8930  142.0464  158.5717 N   0  3  1  0  0  0  0  0  0  0  0  0
  150.2009  140.7729  158.2509 C   0  0  0  0  0  0  0  0  0  0  0  0
  151.1865  139.6201  157.9977 C   0  0  0  0  0  0  0  0  0  0  0  0
  150.4745  138.2677  157.8706 C   0  0  0  0  0  0  0  0  0  0  0  0
  149.4856  138.1099  158.9278 N   0  0  0  0  0  0  0  0  0  0  0  0
  148.9048  136.9537  159.2735 C   0  0  0  0  0  0  0  0  0  0  0  0
  149.1951  135.9170  158.6721 O   0  0  0  0  0  0  0  0  0  0  0  0
  148.0248  137.0714  160.2932 N   0  5  0  0  0  0  0  0  0  0  0  0
  147.5420  135.9715  160.8944 C   0  0  0  0  0  0  0  0  0  0  0  0
  147.1218  134.9014  160.2008 N   0  0  0  0  0  0  0  0  0  0  0  0
  146.6647  133.8707  161.0107 N   0  0  0  0  0  0  0  0  0  0  0  0
  146.7606  134.1884  162.3015 C   0  0  0  0  0  0  0  0  0  0  0  0
  147.4213  135.7730  162.6451 S   0  0  0  0  0  0  0  0  0  0  0  0
  152.1624  141.8486  159.3233 C   0  0  0  0  0  0  0  0  0  0  0  0
  150.9695  144.0886  160.6095 H   0  0  0  0  0  0  0  0  0  0  0  0
  152.4674  144.7777  161.2269 H   0  0  0  0  0  0  0  0  0  0  0  0
  151.9377  143.1938  161.7729 H   0  0  0  0  0  0  0  0  0  0  0  0
  153.7752  142.9754  160.1632 H   0  0  0  0  0  0  0  0  0  0  0  0
  153.3357  145.0989  158.8691 H   0  0  0  0  0  0  0  0  0  0  0  0
  153.7450  143.7079  157.8990 H   0  0  0  0  0  0  0  0  0  0  0  0
  150.9368  144.8258  158.3325 H   0  0  0  0  0  0  0  0  0  0  0  0
  151.8553  144.8550  156.8499 H   0  0  0  0  0  0  0  0  0  0  0  0
  150.1486  143.0382  156.8513 H   0  0  0  0  0  0  0  0  0  0  0  0
  151.7653  142.3847  156.6726 H   0  0  0  0  0  0  0  0  0  0  0  0
  149.5646  140.4877  159.0900 H   0  0  0  0  0  0  0  0  0  0  0  0
  149.5372  140.9141  157.3966 H   0  0  0  0  0  0  0  0  0  0  0  0
  151.7599  139.8006  157.0886 H   0  0  0  0  0  0  0  0  0  0  0  0
  151.9081  139.5742  158.8145 H   0  0  0  0  0  0  0  0  0  0  0  0
  149.9778  138.1894  156.9025 H   0  0  0  0  0  0  0  0  0  0  0  0
  151.2031  137.4572  157.9282 H   0  0  0  0  0  0  0  0  0  0  0  0
  149.2209  138.9369  159.4425 H   0  0  0  0  0  0  0  0  0  0  0  0
  146.4438  133.4839  163.0559 H   0  0  0  0  0  0  0  0  0  0  0  0
  152.8676  141.3067  158.6908 H   0  0  0  0  0  0  0  0  0  0  0  0
  151.9973  141.2252  160.2015 H   0  0  0  0  0  0  0  0  0  0  0  0
  150.2701  142.5635  159.1755 H   0  0  0  0  0  0  0  0  0  0  0  0
  1  2  1  0  0  0  0
  1 20  1  0  0  0  0
  1 21  1  0  0  0  0
  1 22  1  0  0  0  0
  2 19  1  0  0  0  0
  2  3  1  0  0  0  0
  2 23  1  0  0  0  0
  3  4  1  0  0  0  0
  3 24  1  0  0  0  0
  3 25  1  0  0  0  0
  4  5  1  0  0  0  0
  4 26  1  0  0  0  0
  4 27  1  0  0  0  0
  5  6  1  0  0  0  0
  5 28  1  0  0  0  0
  5 29  1  0  0  0  0
  6  7  1  0  0  0  0
  6 19  1  0  0  0  0
  6 40  1  0  0  0  0
  7  8  1  0  0  0  0
  7 30  1  0  0  0  0
  7 31  1  0  0  0  0
  8  9  1  0  0  0  0
  8 32  1  0  0  0  0
  8 33  1  0  0  0  0
  9 10  1  0  0  0  0
  9 34  1  0  0  0  0
  9 35  1  0  0  0  0
 10 11  1  0  0  0  0
 10 36  1  0  0  0  0
 11 12  2  0  0  0  0
 11 13  1  0  0  0  0
 13 14  1  0  0  0  0
 14 18  1  0  0  0  0
 14 15  2  0  0  0  0
 15 16  1  0  0  0  0
 16 17  2  0  0  0  0
 17 18  1  0  0  0  0
 17 37  1  0  0  0  0
 19 38  1  0  0  0  0
 19 39  1  0  0  0  0
M  CHG  1   6   1
M  CHG  1  13  -1
M  END
> <s_m_source_file>
AV-unprocessed.smi

> <i_m_source_file_index>
1802

> <i_lp_mmshare_version>
43012

> <i_f3d_flags>
0

> <s_epik_input>
W0NIM11bQ0BASF0xW0NIMl1bQ0gyXVtDSDJdTihbQ0gyXTEpW0NIMl1bQ0gyXVtDSDJdW05IXUMoPU8pW05IXWMybm5bY0hdczI=

> <s_epik_cmdline>
J2VwaWtfcHl0aG9uJywgJy1waCcsICc3LjAnLCAnLXRuJywgJzgnLCAnLW1hJywgJzIwMCcsICctbWV0YWxfYmluZGluZycsICctaW1hZScsICc8aW5maWxlLm1hZT4nLCAnLW9tYWUnLCAnPG91dGZpbGUubWFlPic=

> <r_lp_tautomer_probability>
1

> <r_epik_Ionization_Penalty>
3.29702

> <r_epik_Ionization_Penalty_Charging>
3.26059

> <r_epik_Ionization_Penalty_Neutral>
0.0364294

> <r_epik_State_Penalty>
3.25788

> <r_epik_Charging_Adjusted_Penalty>
6.51847

> <i_epik_Tot_Q>
0

> <i_epik_Tot_abs_Q>
2

> <r_epik_Metal_State_Penalty>
0.477639

> <b_epik_Metal_Only>
1

> <s_lp_Force_Field>
OPLS_2005

> <r_lp_Energy>
14.2366

> <b_lp_Chiralities_Consistent>
1

> <s_lp_Variant>
AV-unprocessed.smi:1802-7

> <Gold.Version>
5.8.1

> <Gold.Id.Protein>
6NUR|6NUR_protein|mol2

> <Gold.PLP.Fitness>
50.6412

> <Gold.PLP.PLP>
-41.3816

> <Gold.PLP.part.hbond>
-3.0000

> <Gold.PLP.part.metal>
0.0000

> <Gold.PLP.part.buried>
-5.8039

> <Gold.PLP.part.nonpolar>
-34.9352

> <Gold.PLP.part.repulsive>
0.8731

> <Gold.PLP.ligand.clash>
0.0000

> <Gold.PLP.ligand.torsion>
0.9534

> <Gold.PLP.Chemscore.Hbond>
3.6993

> <Gold.PLP.Chemscore.CHOScore>
0.0000

> <Gold.PLP.Chemscore.Metal>
0.0000

> <Gold.Chemscore.Hbonds>
donor molecule, donor type, donor heavy atom, donor atom, acceptor molecule, acceptor atom, score
      P1  H  6896  6908       L1    12  0.67
      P1  H  6931  6943       L1    13  0.74
      P1  H  6934  6947       L1    13  0.85

> <Gold.PLP.Chemscore.Internal.Correction>
0.0685

> <Gold.Rescore>
     Score         DG    S(hbond)    S(metal)    S(lipo)     H(rot)  DE(clash)    DE(int)     intcor
     16.14     -18.55       1.86        0.00     101.04       1.94       0.08       2.33       ----

> <Gold.Chemscore.Fitness>
16.1413

> <Gold.Chemscore.DG>
-18.5507

> <Gold.Chemscore.ZeroCoef>
-5.4800

> <Gold.Chemscore.Hbond>
1.8595

> <Gold.Chemscore.Metal>
0.0000

> <Gold.Chemscore.Lipo>
101.0429

> <Gold.Chemscore.Internal_Hbond>
0.0000

> <Gold.Chemscore.DEClash>
0.0756

> <Gold.Chemscore.DEInternal>
2.3338

> <Gold.Chemscore.Rot>
1.9383

> <Gold.Chemscore.Internal.Correction>
   9.000000E+99

> <Gold.Chemscore.Hbonds>
donor molecule, donor type, donor heavy atom, donor atom, acceptor molecule, acceptor atom, score
      P1  H  6896  6908       L1    12  0.62
      P1  H  6931  6943       L1    13  0.12
      P1  H  6934  6947       L1    13  0.39

> <Gold.Chemscore.Hbond.Weighted>
-6.2108

> <Gold.Chemscore.Metal.Weighted>
-0.0000

> <Gold.Chemscore.Lipo.Weighted>
-11.8220

> <Gold.Chemscore.Internal_Hbond.Weighted>
0.0000

> <Gold.Chemscore.DEClash.Weighted>
0.0756

> <Gold.Chemscore.DEInternal.Weighted>
2.3338

> <Gold.Chemscore.Rot.Weighted>
4.9620

> <Gold.Chemscore.Internal.Correction.Weighted>
   9.000000E+99

> <Gold.Protein.RotatedTorsions>
[ 6907 6896 6895 6894 ] final  176.25 input  -60.11 | X-H torsion
[ 7974 7965 7964 7962 ] final -154.76 input  175.53 | X-H torsion
[ 8008 7997 7996 7995 ] final  106.81 input   59.86 | X-H torsion
[ 10167 10162 10161 10158 ] final  -12.73 input  -65.29 | X-H torsion
[ 10718 10713 10712 10709 ] final   75.01 input   66.30 | X-H torsion
[ 10763 10752 10751 10750 ] final  -75.00 input  -60.55 | X-H torsion
[ 11005 11000 10999 10996 ] final   68.01 input  -57.11 | X-H torsion

> <Gold.Protein.ActiveResidues>
 VAL166  LYS551  ARG553  GLY616  TRP617  ASP618  TYR619  PRO620  LYS621  CYS622 
 ASP623  PHE694  ASN695  SER759  ASP760  ASP761  ALA762  ILE779  LEU786  VAL792 
 PHE793  MET794  SER795  GLU796  ALA797  LYS798  CYS799  TRP800  GLU811  SER814 

> <Gold.Protein.RotatedAtoms>
  151.7231  133.3315  159.3320 H   0  0  0  0  0  0  0  0  0  0  0  0  # atno 6907 bound_to 6896
  150.7644  134.6430  159.6257 H   0  0  0  0  0  0  0  0  0  0  0  0  # atno 6908 bound_to 6896
  152.3639  134.6834  160.0250 H   0  0  0  0  0  0  0  0  0  0  0  0  # atno 6909 bound_to 6896
  144.7673  140.4343  143.5932 H   0  0  0  0  0  0  0  0  0  0  0  0  # atno 7974 bound_to 7965
  156.1774  140.3106  155.9084 H   0  0  0  0  0  0  0  0  0  0  0  0  # atno 8008 bound_to 7997
  155.3459  140.0468  157.3062 H   0  0  0  0  0  0  0  0  0  0  0  0  # atno 8009 bound_to 7997
  154.5305  140.2229  155.8824 H   0  0  0  0  0  0  0  0  0  0  0  0  # atno 8010 bound_to 7997
  140.7167  143.5501  150.9311 H   0  0  0  0  0  0  0  0  0  0  0  0  # atno 10167 bound_to 10162
  157.6616  130.9706  150.1293 H   0  0  0  0  0  0  0  0  0  0  0  0  # atno 10718 bound_to 10713
  154.4807  135.5845  153.6387 H   0  0  0  0  0  0  0  0  0  0  0  0  # atno 10763 bound_to 10752
  152.9847  135.6089  154.3250 H   0  0  0  0  0  0  0  0  0  0  0  0  # atno 10764 bound_to 10752
  154.3140  135.2844  155.2531 H   0  0  0  0  0  0  0  0  0  0  0  0  # atno 10765 bound_to 10752
  139.9737  134.6858  156.0396 H   0  0  0  0  0  0  0  0  0  0  0  0  # atno 11005 bound_to 11000
  145.6430  139.1553  143.2905 LP  0  0  0  0  0  0  0  0  0  0  0  0  # atno 17320 bound_to 7965
  146.1792  140.6525  142.9197 LP  0  0  0  0  0  0  0  0  0  0  0  0  # atno 17321 bound_to 7965
  139.9225  143.6589  152.3094 LP  0  0  0  0  0  0  0  0  0  0  0  0  # atno 17342 bound_to 10162
  139.7011  144.7635  151.1272 LP  0  0  0  0  0  0  0  0  0  0  0  0  # atno 17343 bound_to 10162
  156.2143  130.3669  149.8632 LP  0  0  0  0  0  0  0  0  0  0  0  0  # atno 17370 bound_to 10713
  156.6502  130.8740  151.3530 LP  0  0  0  0  0  0  0  0  0  0  0  0  # atno 17371 bound_to 10713
  141.1415  133.6564  156.3744 LP  0  0  0  0  0  0  0  0  0  0  0  0  # atno 17394 bound_to 11000
  140.5240  134.6277  157.5328 LP  0  0  0  0  0  0  0  0  0  0  0  0  # atno 17395 bound_to 11000

$$$$
