AV-unprocessed.smi:193|AV-procd|sdf|1498|dock8
  -GOLD-   2262019323D 1   1.00000     0.00000
 Structure written by MMmdl.
 62 66  0  0  0  0  0  0  0  0  2 V2000
  152.1071  139.1227  155.4609 C   0  0  0  0  0  0  0  0  0  0  0  0
  150.7374  139.8026  155.6136 C   0  0  2  0  0  0  0  0  0  0  0  0
  149.8427  139.4113  154.4182 C   0  0  0  0  0  0  0  0  0  0  0  0
  148.4429  139.7930  154.5752 N   0  0  0  0  0  0  0  0  0  0  0  0
  147.6590  139.2354  153.6284 C   0  0  0  0  0  0  0  0  0  0  0  0
  147.6399  139.8243  152.4079 N   0  0  0  0  0  0  0  0  0  0  0  0
  146.8775  139.3149  151.4350 C   0  0  0  0  0  0  0  0  0  0  0  0
  146.0736  138.2496  151.4745 N   0  0  0  0  0  0  0  0  0  0  0  0
  146.0873  137.6614  152.7052 C   0  0  0  0  0  0  0  0  0  0  0  0
  146.8460  138.0857  153.8316 C   0  0  0  0  0  0  0  0  0  0  0  0
  146.6019  137.2484  154.9133 N   0  0  0  0  0  0  0  0  0  0  0  0
  145.7471  136.3763  154.4511 C   0  0  0  0  0  0  0  0  0  0  0  0
  145.3873  136.5471  153.1330 N   0  0  0  0  0  0  0  0  0  0  0  0
  144.4573  135.7287  152.3694 C   0  0  0  0  0  0  0  0  0  0  0  0
  145.1417  134.7810  151.3535 C   0  0  0  0  0  0  0  0  0  0  0  0
  145.8967  135.5821  150.4602 O   0  0  0  0  0  0  0  0  0  0  0  0
  146.1060  133.8208  152.0785 C   0  0  0  0  0  0  0  0  0  0  0  0
  146.6809  132.7513  151.1325 C   0  0  0  0  0  0  0  0  0  0  0  0
  145.6234  132.0425  150.4981 O   0  0  0  0  0  0  0  0  0  0  0  0
  144.8163  132.8776  149.6769 C   0  0  0  0  0  0  0  0  0  0  0  0
  144.1272  133.9558  150.5321 C   0  0  0  0  0  0  0  0  0  0  0  0
  148.1215  141.1884  154.8586 C   0  0  0  0  0  0  0  0  0  0  0  0
  148.4704  141.5546  156.3089 C   0  0  0  0  0  0  0  0  0  0  0  0
  149.8622  142.0400  156.4968 N   0  3  1  0  0  0  0  0  0  0  0  0
  150.2122  142.1421  157.9323 C   0  0  2  0  0  0  0  0  0  0  0  0
  149.8005  143.4504  158.5672 C   0  0  0  0  0  0  0  0  0  0  0  0
  151.2551  143.1956  158.2355 C   0  0  1  0  0  0  0  0  0  0  0  0
  152.2633  142.9877  159.3443 C   0  0  0  0  0  0  0  0  0  0  0  0
  150.9147  141.3363  155.7132 C   0  0  0  0  0  0  0  0  0  0  0  0
  152.6183  139.4569  154.5575 H   0  0  0  0  0  0  0  0  0  0  0  0
  152.0047  138.0385  155.4031 H   0  0  0  0  0  0  0  0  0  0  0  0
  152.7540  139.3421  156.3110 H   0  0  0  0  0  0  0  0  0  0  0  0
  150.3012  139.4185  156.5367 H   0  0  0  0  0  0  0  0  0  0  0  0
  150.2357  139.8464  153.4978 H   0  0  0  0  0  0  0  0  0  0  0  0
  149.8852  138.3285  154.2866 H   0  0  0  0  0  0  0  0  0  0  0  0
  146.9169  139.8354  150.4893 H   0  0  0  0  0  0  0  0  0  0  0  0
  145.3541  135.5761  155.0615 H   0  0  0  0  0  0  0  0  0  0  0  0
  143.8483  135.1582  153.0720 H   0  0  0  0  0  0  0  0  0  0  0  0
  143.7700  136.3971  151.8490 H   0  0  0  0  0  0  0  0  0  0  0  0
  145.9044  135.1614  149.6139 H   0  0  0  0  0  0  0  0  0  0  0  0
  146.9165  134.3762  152.5523 H   0  0  0  0  0  0  0  0  0  0  0  0
  145.5726  133.3148  152.8844 H   0  0  0  0  0  0  0  0  0  0  0  0
  147.3364  133.1980  150.3834 H   0  0  0  0  0  0  0  0  0  0  0  0
  147.2864  132.0424  151.6974 H   0  0  0  0  0  0  0  0  0  0  0  0
  145.4226  133.3283  148.8897 H   0  0  0  0  0  0  0  0  0  0  0  0
  144.0662  132.2613  149.1810 H   0  0  0  0  0  0  0  0  0  0  0  0
  143.4301  133.4650  151.2124 H   0  0  0  0  0  0  0  0  0  0  0  0
  143.5256  134.6016  149.8912 H   0  0  0  0  0  0  0  0  0  0  0  0
  148.6123  141.8573  154.1505 H   0  0  0  0  0  0  0  0  0  0  0  0
  147.0479  141.3306  154.7219 H   0  0  0  0  0  0  0  0  0  0  0  0
  147.8068  142.3561  156.6345 H   0  0  0  0  0  0  0  0  0  0  0  0
  148.2645  140.7099  156.9689 H   0  0  0  0  0  0  0  0  0  0  0  0
  150.1733  141.2168  158.5049 H   0  0  0  0  0  0  0  0  0  0  0  0
  149.2708  144.1800  157.9573 H   0  0  0  0  0  0  0  0  0  0  0  0
  149.5109  143.4273  159.6159 H   0  0  0  0  0  0  0  0  0  0  0  0
  151.6523  143.7500  157.3868 H   0  0  0  0  0  0  0  0  0  0  0  0
  151.8232  142.4254  160.1685 H   0  0  0  0  0  0  0  0  0  0  0  0
  152.6053  143.9507  159.7242 H   0  0  0  0  0  0  0  0  0  0  0  0
  153.1247  142.4360  158.9678 H   0  0  0  0  0  0  0  0  0  0  0  0
  151.8843  141.5774  156.1516 H   0  0  0  0  0  0  0  0  0  0  0  0
  150.9485  141.7674  154.7121 H   0  0  0  0  0  0  0  0  0  0  0  0
  149.8727  142.9882  156.1494 H   0  0  0  0  0  0  0  0  0  0  0  0
  1  2  1  0  0  0  0
  1 30  1  0  0  0  0
  1 31  1  0  0  0  0
  1 32  1  0  0  0  0
  2 29  1  0  0  0  0
  2  3  1  0  0  0  0
  2 33  1  0  0  0  0
  3  4  1  0  0  0  0
  3 34  1  0  0  0  0
  3 35  1  0  0  0  0
  4  5  1  0  0  0  0
  4 22  1  0  0  0  0
  5 10  1  0  0  0  0
  5  6  2  0  0  0  0
  6  7  1  0  0  0  0
  7  8  2  0  0  0  0
  7 36  1  0  0  0  0
  8  9  1  0  0  0  0
  9 13  1  0  0  0  0
  9 10  2  0  0  0  0
 10 11  1  0  0  0  0
 11 12  2  0  0  0  0
 12 13  1  0  0  0  0
 12 37  1  0  0  0  0
 13 14  1  0  0  0  0
 14 15  1  0  0  0  0
 14 38  1  0  0  0  0
 14 39  1  0  0  0  0
 15 21  1  0  0  0  0
 15 16  1  0  0  0  0
 15 17  1  0  0  0  0
 16 40  1  0  0  0  0
 17 18  1  0  0  0  0
 17 41  1  0  0  0  0
 17 42  1  0  0  0  0
 18 19  1  0  0  0  0
 18 43  1  0  0  0  0
 18 44  1  0  0  0  0
 19 20  1  0  0  0  0
 20 21  1  0  0  0  0
 20 45  1  0  0  0  0
 20 46  1  0  0  0  0
 21 47  1  0  0  0  0
 21 48  1  0  0  0  0
 22 23  1  0  0  0  0
 22 49  1  0  0  0  0
 22 50  1  0  0  0  0
 23 24  1  0  0  0  0
 23 51  1  0  0  0  0
 23 52  1  0  0  0  0
 24 25  1  0  0  0  0
 24 29  1  0  0  0  0
 24 62  1  0  0  0  0
 25 27  1  0  0  0  0
 25 26  1  0  0  0  0
 25 53  1  0  0  0  0
 26 27  1  0  0  0  0
 26 54  1  0  0  0  0
 26 55  1  0  0  0  0
 27 28  1  0  0  0  0
 27 56  1  0  0  0  0
 28 57  1  0  0  0  0
 28 58  1  0  0  0  0
 28 59  1  0  0  0  0
 29 60  1  0  0  0  0
 29 61  1  0  0  0  0
M  CHG  1  24   1
M  END
> <s_m_source_file>
AV-unprocessed.smi

> <i_m_source_file_index>
193

> <i_lp_mmshare_version>
43012

> <i_f3d_flags>
0

> <s_epik_input>
W0NIM11bQ0BASF0xW0NIMl1bQ0BIXTFOKFtDSDJdMilbQ0gyXVtDSDJdTihbQ0gyXVtDQEhdMltDSDNdKWMobltjSF1uMyljKGMzNCluW2NIXW40W0NIMl1DNShbT0hdKVtDSDJdW0NIMl1PW0NIMl1bQ0gyXTU=

> <s_epik_cmdline>
J2VwaWtfcHl0aG9uJywgJy1waCcsICc3LjAnLCAnLXRuJywgJzgnLCAnLW1hJywgJzIwMCcsICctbWV0YWxfYmluZGluZycsICctaW1hZScsICc8aW5maWxlLm1hZT4nLCAnLW9tYWUnLCAnPG91dGZpbGUubWFlPic=

> <r_lp_tautomer_probability>
1

> <r_epik_Ionization_Penalty>
0.0540825

> <r_epik_Ionization_Penalty_Charging>
0.0538476

> <r_epik_Ionization_Penalty_Neutral>
0.000234891

> <r_epik_State_Penalty>
0.0200719

> <r_epik_Charging_Adjusted_Penalty>
0.0739194

> <i_epik_Tot_Q>
1

> <i_epik_Tot_abs_Q>
1

> <r_epik_Metal_State_Penalty>
0.0199414

> <b_epik_Metal_Only>
0

> <s_lp_Force_Field>
OPLS_2005

> <r_lp_Energy>
56.0511

> <b_lp_Chiralities_Consistent>
1

> <s_lp_Variant>
AV-unprocessed.smi:193-3

> <Gold.Version>
5.8.1

> <Gold.Id.Protein>
6NUR|6NUR_protein|mol2

> <Gold.PLP.Fitness>
46.4020

> <Gold.PLP.PLP>
-38.1245

> <Gold.PLP.part.hbond>
-2.0000

> <Gold.PLP.part.metal>
0.0000

> <Gold.PLP.part.buried>
-2.6717

> <Gold.PLP.part.nonpolar>
-40.1383

> <Gold.PLP.part.repulsive>
7.7661

> <Gold.PLP.ligand.clash>
0.0000

> <Gold.PLP.ligand.torsion>
1.1022

> <Gold.PLP.Chemscore.Hbond>
2.9425

> <Gold.PLP.Chemscore.CHOScore>
0.0199

> <Gold.PLP.Chemscore.Metal>
0.0000

> <Gold.Chemscore.Hbonds>
donor molecule, donor type, donor heavy atom, donor atom, acceptor molecule, acceptor atom, score
      L1  H    16    40       P1  7921  1.00
      L1  H    24    62       P1  8028  1.89
      L1  C     7    36       P1  7957  0.04

> <Gold.PLP.Chemscore.Internal.Correction>
1.5947

> <Gold.Rescore>
     Score         DG    S(hbond)    S(metal)    S(lipo)     H(rot)  DE(clash)    DE(int)     intcor
     14.01     -18.44       1.81        0.00     107.26       2.20       3.31       1.12       ----

> <Gold.Chemscore.Fitness>
14.0110

> <Gold.Chemscore.DG>
-18.4427

> <Gold.Chemscore.ZeroCoef>
-5.4800

> <Gold.Chemscore.Hbond>
1.8113

> <Gold.Chemscore.Metal>
0.0000

> <Gold.Chemscore.Lipo>
107.2617

> <Gold.Chemscore.Internal_Hbond>
0.0000

> <Gold.Chemscore.DEClash>
3.3122

> <Gold.Chemscore.DEInternal>
1.1196

> <Gold.Chemscore.Rot>
2.2018

> <Gold.Chemscore.Internal.Correction>
   9.000000E+99

> <Gold.Chemscore.Hbonds>
donor molecule, donor type, donor heavy atom, donor atom, acceptor molecule, acceptor atom, score
      L1  H    16    40       P1  7921  0.88
      L1  H    24    62       P1  8028  0.86

> <Gold.Chemscore.Hbond.Weighted>
-6.0497

> <Gold.Chemscore.Metal.Weighted>
-0.0000

> <Gold.Chemscore.Lipo.Weighted>
-12.5496

> <Gold.Chemscore.Internal_Hbond.Weighted>
0.0000

> <Gold.Chemscore.DEClash.Weighted>
3.3122

> <Gold.Chemscore.DEInternal.Weighted>
1.1196

> <Gold.Chemscore.Rot.Weighted>
5.6366

> <Gold.Chemscore.Internal.Correction.Weighted>
   9.000000E+99

> <Gold.Protein.RotatedTorsions>
[ 6907 6896 6895 6894 ] final  -43.39 input  -60.11 | X-H torsion
[ 7974 7965 7964 7962 ] final -147.92 input  175.53 | X-H torsion
[ 8008 7997 7996 7995 ] final  105.20 input   59.86 | X-H torsion
[ 10167 10162 10161 10158 ] final  150.05 input  -65.29 | X-H torsion
[ 10718 10713 10712 10709 ] final  -61.26 input   66.30 | X-H torsion
[ 10763 10752 10751 10750 ] final -118.15 input  -60.55 | X-H torsion
[ 11005 11000 10999 10996 ] final   71.42 input  -57.11 | X-H torsion

> <Gold.Protein.ActiveResidues>
 VAL166  LYS551  ARG553  GLY616  TRP617  ASP618  TYR619  PRO620  LYS621  CYS622 
 ASP623  PHE694  ASN695  SER759  ASP760  ASP761  ALA762  ILE779  LEU786  VAL792 
 PHE793  MET794  SER795  GLU796  ALA797  LYS798  CYS799  TRP800  GLU811  SER814 

> <Gold.Protein.RotatedAtoms>
  150.9445  134.8851  159.7632 H   0  0  0  0  0  0  0  0  0  0  0  0  # atno 6907 bound_to 6896
  152.5094  134.3894  159.9389 H   0  0  0  0  0  0  0  0  0  0  0  0  # atno 6908 bound_to 6896
  151.3913  133.3747  159.2756 H   0  0  0  0  0  0  0  0  0  0  0  0  # atno 6909 bound_to 6896
  144.8062  140.5264  143.5673 H   0  0  0  0  0  0  0  0  0  0  0  0  # atno 7974 bound_to 7965
  156.1638  140.3134  155.8853 H   0  0  0  0  0  0  0  0  0  0  0  0  # atno 8008 bound_to 7997
  155.3727  140.0483  157.3062 H   0  0  0  0  0  0  0  0  0  0  0  0  # atno 8009 bound_to 7997
  154.5172  140.2186  155.9053 H   0  0  0  0  0  0  0  0  0  0  0  0  # atno 8010 bound_to 7997
  139.4854  144.5553  151.7329 H   0  0  0  0  0  0  0  0  0  0  0  0  # atno 10167 bound_to 10162
  156.0934  130.4196  150.0969 H   0  0  0  0  0  0  0  0  0  0  0  0  # atno 10718 bound_to 10713
  154.8578  135.4284  154.2093 H   0  0  0  0  0  0  0  0  0  0  0  0  # atno 10763 bound_to 10752
  153.3122  135.6976  153.7111 H   0  0  0  0  0  0  0  0  0  0  0  0  # atno 10764 bound_to 10752
  153.6199  135.3504  155.2981 H   0  0  0  0  0  0  0  0  0  0  0  0  # atno 10765 bound_to 10752
  139.9544  134.7169  156.0786 H   0  0  0  0  0  0  0  0  0  0  0  0  # atno 11005 bound_to 11000
  145.5432  139.1475  143.3435 LP  0  0  0  0  0  0  0  0  0  0  0  0  # atno 17320 bound_to 7965
  146.2354  140.5571  142.8957 LP  0  0  0  0  0  0  0  0  0  0  0  0  # atno 17321 bound_to 7965
  140.5113  144.1020  150.5996 LP  0  0  0  0  0  0  0  0  0  0  0  0  # atno 17342 bound_to 10162
  140.3947  143.2734  152.0019 LP  0  0  0  0  0  0  0  0  0  0  0  0  # atno 17343 bound_to 10162
  156.8973  130.9608  151.3581 LP  0  0  0  0  0  0  0  0  0  0  0  0  # atno 17370 bound_to 10713
  157.6089  130.8568  149.8920 LP  0  0  0  0  0  0  0  0  0  0  0  0  # atno 17371 bound_to 10713
  141.1213  133.6612  156.3223 LP  0  0  0  0  0  0  0  0  0  0  0  0  # atno 17394 bound_to 11000
  140.5643  134.5903  157.5441 LP  0  0  0  0  0  0  0  0  0  0  0  0  # atno 17395 bound_to 11000

$$$$
