AV-unprocessed.smi:1983|AV-procd|sdf|8036|dock2
  -GOLD-   2272010233D 1   1.00000     0.00000
 Structure written by MMmdl.
 50 51  0  0  0  0  0  0  0  0  2 V2000
  147.9593  134.0644  155.2025 C   0  0  0  0  0  0  0  0  0  0  0  0
  146.8031  135.0455  154.9560 C   0  0  2  0  0  0  0  0  0  0  0  0
  145.5804  134.3583  154.3161 C   0  0  0  0  0  0  0  0  0  0  0  0
  145.0190  133.4206  155.2097 O   0  0  0  0  0  0  0  0  0  0  0  0
  147.2780  136.1367  154.1090 N   0  0  0  0  0  0  0  0  0  0  0  0
  147.2074  137.4409  154.4106 C   0  0  0  0  0  0  0  0  0  0  0  0
  146.7039  137.8876  155.4414 O   0  0  0  0  0  0  0  0  0  0  0  0
  147.7474  138.2037  153.4498 N   0  0  0  0  0  0  0  0  0  0  0  0
  147.8464  139.6596  153.4987 C   0  0  0  0  0  0  0  0  0  0  0  0
  148.7595  140.2112  154.5874 C   0  0  0  0  0  0  0  0  0  0  0  0
  149.4945  139.3722  155.4553 C   0  0  0  0  0  0  0  0  0  0  0  0
  150.3123  139.9434  156.4523 C   0  0  0  0  0  0  0  0  0  0  0  0
  150.3852  141.3532  156.5848 C   0  0  0  0  0  0  0  0  0  0  0  0
  151.1741  142.0154  157.5510 N   0  0  0  0  0  0  0  0  0  0  0  0
  151.9456  141.2026  158.4850 C   0  0  0  0  0  0  0  0  0  0  0  0
  152.9989  142.0611  159.2074 C   0  0  2  0  0  0  0  0  0  0  0  0
  153.7280  141.2718  160.2998 C   0  0  0  0  0  0  0  0  0  0  0  0
  152.3637  143.1810  159.8214 O   0  0  0  0  0  0  0  0  0  0  0  0
  151.6451  144.0271  158.9220 C   0  0  1  0  0  0  0  0  0  0  0  0
  152.5809  144.8356  158.0054 C   0  0  0  0  0  0  0  0  0  0  0  0
  150.5876  143.2116  158.1534 C   0  0  0  0  0  0  0  0  0  0  0  0
  149.6578  142.1120  155.7291 N   0  3  0  0  0  0  0  0  0  0  0  0
  148.8661  141.6059  154.7594 C   0  0  0  0  0  0  0  0  0  0  0  0
  147.6579  133.2588  155.8725 H   0  0  0  0  0  0  0  0  0  0  0  0
  148.8108  134.5682  155.6614 H   0  0  0  0  0  0  0  0  0  0  0  0
  148.3023  133.6112  154.2718 H   0  0  0  0  0  0  0  0  0  0  0  0
  146.5080  135.4675  155.9191 H   0  0  0  0  0  0  0  0  0  0  0  0
  144.8063  135.0882  154.0777 H   0  0  0  0  0  0  0  0  0  0  0  0
  145.8512  133.8609  153.3842 H   0  0  0  0  0  0  0  0  0  0  0  0
  144.3031  132.9821  154.7757 H   0  0  0  0  0  0  0  0  0  0  0  0
  147.7098  135.8736  153.2352 H   0  0  0  0  0  0  0  0  0  0  0  0
  148.1399  137.7453  152.6402 H   0  0  0  0  0  0  0  0  0  0  0  0
  148.1723  140.0346  152.5267 H   0  0  0  0  0  0  0  0  0  0  0  0
  146.8454  140.0596  153.6607 H   0  0  0  0  0  0  0  0  0  0  0  0
  149.4369  138.2972  155.3695 H   0  0  0  0  0  0  0  0  0  0  0  0
  150.8598  139.2826  157.1072 H   0  0  0  0  0  0  0  0  0  0  0  0
  151.2666  140.7469  159.2072 H   0  0  0  0  0  0  0  0  0  0  0  0
  152.4546  140.3969  157.9553 H   0  0  0  0  0  0  0  0  0  0  0  0
  153.7431  142.4078  158.4902 H   0  0  0  0  0  0  0  0  0  0  0  0
  154.2443  140.4070  159.8820 H   0  0  0  0  0  0  0  0  0  0  0  0
  153.0327  140.9126  161.0593 H   0  0  0  0  0  0  0  0  0  0  0  0
  154.4722  141.8937  160.7979 H   0  0  0  0  0  0  0  0  0  0  0  0
  151.1162  144.7495  159.5444 H   0  0  0  0  0  0  0  0  0  0  0  0
  152.0170  145.5727  157.4332 H   0  0  0  0  0  0  0  0  0  0  0  0
  153.1068  144.2056  157.2885 H   0  0  0  0  0  0  0  0  0  0  0  0
  153.3271  145.3741  158.5900 H   0  0  0  0  0  0  0  0  0  0  0  0
  150.1145  143.8531  157.4099 H   0  0  0  0  0  0  0  0  0  0  0  0
  149.8015  142.8942  158.8398 H   0  0  0  0  0  0  0  0  0  0  0  0
  148.3440  142.3313  154.1523 H   0  0  0  0  0  0  0  0  0  0  0  0
  149.7131  143.1266  155.8207 H   0  0  0  0  0  0  0  0  0  0  0  0
  1  2  1  0  0  0  0
  1 24  1  0  0  0  0
  1 25  1  0  0  0  0
  1 26  1  0  0  0  0
  2  3  1  0  0  0  0
  2  5  1  0  0  0  0
  2 27  1  0  0  0  0
  3  4  1  0  0  0  0
  3 28  1  0  0  0  0
  3 29  1  0  0  0  0
  4 30  1  0  0  0  0
  5  6  1  0  0  0  0
  5 31  1  0  0  0  0
  6  7  2  0  0  0  0
  6  8  1  0  0  0  0
  8  9  1  0  0  0  0
  8 32  1  0  0  0  0
  9 10  1  0  0  0  0
  9 33  1  0  0  0  0
  9 34  1  0  0  0  0
 10 23  1  0  0  0  0
 10 11  2  0  0  0  0
 11 12  1  0  0  0  0
 11 35  1  0  0  0  0
 12 13  2  0  0  0  0
 12 36  1  0  0  0  0
 13 14  1  0  0  0  0
 13 22  1  0  0  0  0
 14 21  1  0  0  0  0
 14 15  1  0  0  0  0
 15 16  1  0  0  0  0
 15 37  1  0  0  0  0
 15 38  1  0  0  0  0
 16 17  1  0  0  0  0
 16 18  1  0  0  0  0
 16 39  1  0  0  0  0
 17 40  1  0  0  0  0
 17 41  1  0  0  0  0
 17 42  1  0  0  0  0
 18 19  1  0  0  0  0
 19 20  1  0  0  0  0
 19 21  1  0  0  0  0
 19 43  1  0  0  0  0
 20 44  1  0  0  0  0
 20 45  1  0  0  0  0
 20 46  1  0  0  0  0
 21 47  1  0  0  0  0
 21 48  1  0  0  0  0
 22 23  2  0  0  0  0
 22 50  1  0  0  0  0
 23 49  1  0  0  0  0
M  CHG  1  22   1
M  END
> <s_m_source_file>
AV-unprocessed.smi

> <i_m_source_file_index>
1983

> <i_lp_mmshare_version>
43012

> <i_f3d_flags>
0

> <s_epik_input>
W09IXVtDSDJdW0NAQEhdKFtDSDNdKVtOSF1DKD1PKVtOSF1bQ0gyXWMxW2NIXVtjSF1jKG5bY0hdMSlOMltDSDJdW0NAQEhdKFtDSDNdKU9bQ0BASF0oW0NIM10pW0NIMl0y

> <s_epik_cmdline>
J2VwaWtfcHl0aG9uJywgJy1waCcsICc3LjAnLCAnLXRuJywgJzgnLCAnLW1hJywgJzIwMCcsICctbWV0YWxfYmluZGluZycsICctaW1hZScsICc8aW5maWxlLm1hZT4nLCAnLW9tYWUnLCAnPG91dGZpbGUubWFlPic=

> <r_lp_tautomer_probability>
0.999994

> <r_epik_Ionization_Penalty>
2.55677

> <r_epik_Ionization_Penalty_Charging>
2.55673

> <r_epik_Ionization_Penalty_Neutral>
3.71772e-05

> <r_epik_State_Penalty>
2.72571

> <r_epik_Charging_Adjusted_Penalty>
5.28244

> <i_epik_Tot_Q>
1

> <i_epik_Tot_abs_Q>
1

> <r_epik_Metal_State_Penalty>
2.73364

> <b_epik_Metal_Only>
0

> <s_lp_Force_Field>
OPLS_2005

> <r_lp_Energy>
21.0227

> <b_lp_Chiralities_Consistent>
1

> <s_lp_Variant>
AV-unprocessed.smi:1983-9

> <Gold.Version>
5.8.1

> <Gold.Id.Protein>
6NUR|6NUR_protein|mol2

> <Gold.PLP.Fitness>
50.2829

> <Gold.PLP.PLP>
-35.8650

> <Gold.PLP.part.hbond>
-4.0000

> <Gold.PLP.part.metal>
0.0000

> <Gold.PLP.part.buried>
-4.4081

> <Gold.PLP.part.nonpolar>
-28.7605

> <Gold.PLP.part.repulsive>
0.2453

> <Gold.PLP.ligand.clash>
0.0000

> <Gold.PLP.ligand.torsion>
0.3966

> <Gold.PLP.Chemscore.Hbond>
4.9200

> <Gold.PLP.Chemscore.CHOScore>
0.0000

> <Gold.PLP.Chemscore.Metal>
0.0000

> <Gold.Chemscore.Hbonds>
donor molecule, donor type, donor heavy atom, donor atom, acceptor molecule, acceptor atom, score
      L1  H     4    30       P1 10957  0.99
      L1  H     5    31       P1  7948  1.00
      L1  H     8    32       P1  7948  1.00
      L1  H    22    50       P1  8028  1.92

> <Gold.PLP.Chemscore.Internal.Correction>
0.4511

> <Gold.Rescore>
     Score         DG    S(hbond)    S(metal)    S(lipo)     H(rot)  DE(clash)    DE(int)     intcor
     21.60     -22.59       3.84        0.00      94.82       2.66       0.51       0.49       ----

> <Gold.Chemscore.Fitness>
21.5972

> <Gold.Chemscore.DG>
-22.5905

> <Gold.Chemscore.ZeroCoef>
-5.4800

> <Gold.Chemscore.Hbond>
3.8428

> <Gold.Chemscore.Metal>
0.0000

> <Gold.Chemscore.Lipo>
94.8247

> <Gold.Chemscore.Internal_Hbond>
0.0000

> <Gold.Chemscore.DEClash>
0.5053

> <Gold.Chemscore.DEInternal>
0.4879

> <Gold.Chemscore.Rot>
2.6637

> <Gold.Chemscore.Internal.Correction>
   9.000000E+99

> <Gold.Chemscore.Hbonds>
donor molecule, donor type, donor heavy atom, donor atom, acceptor molecule, acceptor atom, score
      L1  H     4    30       P1 10957  0.88
      L1  H     5    31       P1  7948  0.94
      L1  H     8    32       P1  7948  0.95
      L1  H    22    50       P1  8028  0.92

> <Gold.Chemscore.Hbond.Weighted>
-12.8351

> <Gold.Chemscore.Metal.Weighted>
-0.0000

> <Gold.Chemscore.Lipo.Weighted>
-11.0945

> <Gold.Chemscore.Internal_Hbond.Weighted>
0.0000

> <Gold.Chemscore.DEClash.Weighted>
0.5053

> <Gold.Chemscore.DEInternal.Weighted>
0.4879

> <Gold.Chemscore.Rot.Weighted>
6.8191

> <Gold.Chemscore.Internal.Correction.Weighted>
   9.000000E+99

> <Gold.Protein.RotatedTorsions>
[ 6907 6896 6895 6894 ] final   -6.69 input  -60.11 | X-H torsion
[ 7974 7965 7964 7962 ] final -134.40 input  175.53 | X-H torsion
[ 8008 7997 7996 7995 ] final -174.80 input   59.86 | X-H torsion
[ 10167 10162 10161 10158 ] final -157.06 input  -65.29 | X-H torsion
[ 10718 10713 10712 10709 ] final   24.96 input   66.30 | X-H torsion
[ 10763 10752 10751 10750 ] final   74.29 input  -60.55 | X-H torsion
[ 11005 11000 10999 10996 ] final  103.08 input  -57.11 | X-H torsion

> <Gold.Protein.ActiveResidues>
 VAL166  LYS551  ARG553  GLY616  TRP617  ASP618  TYR619  PRO620  LYS621  CYS622 
 ASP623  PHE694  ASN695  SER759  ASP760  ASP761  ALA762  ILE779  LEU786  VAL792 
 PHE793  MET794  SER795  GLU796  ALA797  LYS798  CYS799  TRP800  GLU811  SER814 

> <Gold.Protein.RotatedAtoms>
  151.4616  135.1039  159.9726 H   0  0  0  0  0  0  0  0  0  0  0  0  # atno 6907 bound_to 6896
  152.4851  133.8347  159.7132 H   0  0  0  0  0  0  0  0  0  0  0  0  # atno 6908 bound_to 6896
  150.8953  133.7129  159.2920 H   0  0  0  0  0  0  0  0  0  0  0  0  # atno 6909 bound_to 6896
  144.9106  140.6890  143.5027 H   0  0  0  0  0  0  0  0  0  0  0  0  # atno 7974 bound_to 7965
  155.9746  140.1169  157.0782 H   0  0  0  0  0  0  0  0  0  0  0  0  # atno 8008 bound_to 7997
  154.4165  140.1156  156.5420 H   0  0  0  0  0  0  0  0  0  0  0  0  # atno 8009 bound_to 7997
  155.6552  140.3473  155.4764 H   0  0  0  0  0  0  0  0  0  0  0  0  # atno 8010 bound_to 7997
  139.6800  143.9597  152.2332 H   0  0  0  0  0  0  0  0  0  0  0  0  # atno 10167 bound_to 10162
  157.1869  130.6828  149.6134 H   0  0  0  0  0  0  0  0  0  0  0  0  # atno 10718 bound_to 10713
  153.0577  135.5031  154.8020 H   0  0  0  0  0  0  0  0  0  0  0  0  # atno 10763 bound_to 10752
  154.6833  135.2972  154.9584 H   0  0  0  0  0  0  0  0  0  0  0  0  # atno 10764 bound_to 10752
  154.0363  135.6723  153.4838 H   0  0  0  0  0  0  0  0  0  0  0  0  # atno 10765 bound_to 10752
  139.8781  134.9249  156.5155 H   0  0  0  0  0  0  0  0  0  0  0  0  # atno 11005 bound_to 11000
  145.3461  139.1719  143.4460 LP  0  0  0  0  0  0  0  0  0  0  0  0  # atno 17320 bound_to 7965
  146.3156  140.3507  142.8656 LP  0  0  0  0  0  0  0  0  0  0  0  0  # atno 17321 bound_to 7965
  139.9384  144.6697  150.8291 LP  0  0  0  0  0  0  0  0  0  0  0  0  # atno 17342 bound_to 10162
  140.7649  143.3261  151.2513 LP  0  0  0  0  0  0  0  0  0  0  0  0  # atno 17343 bound_to 10162
  155.9717  130.4628  150.6158 LP  0  0  0  0  0  0  0  0  0  0  0  0  # atno 17370 bound_to 10713
  157.3899  131.0794  151.1403 LP  0  0  0  0  0  0  0  0  0  0  0  0  # atno 17371 bound_to 10713
  140.8489  133.8147  155.9148 LP  0  0  0  0  0  0  0  0  0  0  0  0  # atno 17394 bound_to 11000
  140.9164  134.2196  157.4954 LP  0  0  0  0  0  0  0  0  0  0  0  0  # atno 17395 bound_to 11000

$$$$
