AV-unprocessed.smi:3276|AV-procd|sdf|12534|dock6
  -GOLD-   2272018453D 1   1.00000     0.00000
 Structure written by MMmdl.
 39 40  0  0  0  0  0  0  0  0  1 V2000
  145.9946  129.7096  151.4766 C   0  0  0  0  0  0  0  0  0  0  0  0
  145.8781  131.2142  151.3586 C   0  0  0  0  0  0  0  0  0  0  0  0
  144.9802  131.8168  150.4521 C   0  0  0  0  0  0  0  0  0  0  0  0
  144.8760  133.1591  150.3467 N   0  0  0  0  0  0  0  0  0  0  0  0
  145.6751  133.8984  151.1503 C   0  0  0  0  0  0  0  0  0  0  0  0
  145.5466  135.4054  151.0168 C   0  0  0  0  0  0  0  0  0  0  0  0
  146.5817  133.2987  152.0614 C   0  0  0  0  0  0  0  0  0  0  0  0
  147.3936  134.0972  152.8805 N   0  0  0  0  0  0  0  0  0  0  0  0
  147.8285  133.6086  154.1814 C   0  0  0  0  0  0  0  0  0  0  0  0
  149.3417  133.7687  154.3578 C   0  0  0  0  0  0  0  0  0  0  0  0
  149.6015  135.0545  154.8951 O   0  0  0  0  0  0  0  0  0  0  0  0
  150.9855  135.3386  155.0152 C   0  0  0  0  0  0  0  0  0  0  0  0
  151.1763  136.8043  155.4300 C   0  0  2  0  0  0  0  0  0  0  0  0
  150.4694  137.8297  154.5394 C   0  0  0  0  0  0  0  0  0  0  0  0
  151.3544  139.0435  154.7105 C   0  0  0  0  0  0  0  0  0  0  0  0
  152.7386  138.4048  154.7675 C   0  0  0  0  0  0  0  0  0  0  0  0
  152.5573  137.1592  155.4339 O   0  0  0  0  0  0  0  0  0  0  0  0
  146.6775  131.9501  152.1621 N   0  0  0  0  0  0  0  0  0  0  0  0
  145.2430  129.2078  150.8663 H   0  0  0  0  0  0  0  0  0  0  0  0
  145.8563  129.3970  152.5122 H   0  0  0  0  0  0  0  0  0  0  0  0
  146.9795  129.3799  151.1448 H   0  0  0  0  0  0  0  0  0  0  0  0
  144.3443  131.2250  149.8103 H   0  0  0  0  0  0  0  0  0  0  0  0
  146.5078  135.8470  150.7523 H   0  0  0  0  0  0  0  0  0  0  0  0
  145.2143  135.8414  151.9592 H   0  0  0  0  0  0  0  0  0  0  0  0
  144.8259  135.6785  150.2447 H   0  0  0  0  0  0  0  0  0  0  0  0
  147.9156  134.8522  152.4595 H   0  0  0  0  0  0  0  0  0  0  0  0
  147.3100  134.1738  154.9568 H   0  0  0  0  0  0  0  0  0  0  0  0
  147.5477  132.5614  154.3008 H   0  0  0  0  0  0  0  0  0  0  0  0
  149.7371  132.9874  155.0093 H   0  0  0  0  0  0  0  0  0  0  0  0
  149.8363  133.6715  153.3905 H   0  0  0  0  0  0  0  0  0  0  0  0
  151.4344  134.6859  155.7653 H   0  0  0  0  0  0  0  0  0  0  0  0
  151.4923  135.1470  154.0682 H   0  0  0  0  0  0  0  0  0  0  0  0
  150.8222  136.9319  156.4541 H   0  0  0  0  0  0  0  0  0  0  0  0
  150.4758  137.5186  153.4939 H   0  0  0  0  0  0  0  0  0  0  0  0
  149.4349  138.0072  154.8343 H   0  0  0  0  0  0  0  0  0  0  0  0
  151.2515  139.7683  153.9027 H   0  0  0  0  0  0  0  0  0  0  0  0
  151.1294  139.5440  155.6531 H   0  0  0  0  0  0  0  0  0  0  0  0
  153.1069  138.2084  153.7597 H   0  0  0  0  0  0  0  0  0  0  0  0
  153.4694  139.0305  155.2798 H   0  0  0  0  0  0  0  0  0  0  0  0
  1  2  1  0  0  0  0
  1 19  1  0  0  0  0
  1 20  1  0  0  0  0
  1 21  1  0  0  0  0
  2 18  1  0  0  0  0
  2  3  2  0  0  0  0
  3  4  1  0  0  0  0
  3 22  1  0  0  0  0
  4  5  2  0  0  0  0
  5  6  1  0  0  0  0
  5  7  1  0  0  0  0
  6 23  1  0  0  0  0
  6 24  1  0  0  0  0
  6 25  1  0  0  0  0
  7  8  1  0  0  0  0
  7 18  2  0  0  0  0
  8  9  1  0  0  0  0
  8 26  1  0  0  0  0
  9 10  1  0  0  0  0
  9 27  1  0  0  0  0
  9 28  1  0  0  0  0
 10 11  1  0  0  0  0
 10 29  1  0  0  0  0
 10 30  1  0  0  0  0
 11 12  1  0  0  0  0
 12 13  1  0  0  0  0
 12 31  1  0  0  0  0
 12 32  1  0  0  0  0
 13 17  1  0  0  0  0
 13 14  1  0  0  0  0
 13 33  1  0  0  0  0
 14 15  1  0  0  0  0
 14 34  1  0  0  0  0
 14 35  1  0  0  0  0
 15 16  1  0  0  0  0
 15 36  1  0  0  0  0
 15 37  1  0  0  0  0
 16 17  1  0  0  0  0
 16 38  1  0  0  0  0
 16 39  1  0  0  0  0
M  END
> <s_m_source_file>
AV-unprocessed.smi

> <i_m_source_file_index>
3276

> <i_lp_mmshare_version>
43012

> <i_f3d_flags>
0

> <s_epik_input>
W0NIM11jMVtjSF1uYyhbQ0gzXSljKG4xKVtOSF1bQ0gyXVtDSDJdT1tDSDJdW0NAQEhdMltDSDJdW0NIMl1bQ0gyXU8y

> <s_epik_cmdline>
J2VwaWtfcHl0aG9uJywgJy1waCcsICc3LjAnLCAnLXRuJywgJzgnLCAnLW1hJywgJzIwMCcsICctbWV0YWxfYmluZGluZycsICctaW1hZScsICc8aW5maWxlLm1hZT4nLCAnLW9tYWUnLCAnPG91dGZpbGUubWFlPic=

> <r_lp_tautomer_probability>
1

> <r_epik_Ionization_Penalty>
0.000506

> <r_epik_Ionization_Penalty_Charging>
0

> <r_epik_Ionization_Penalty_Neutral>
0.000506

> <r_epik_State_Penalty>
-0

> <r_epik_Charging_Adjusted_Penalty>
0

> <i_epik_Tot_Q>
0

> <i_epik_Tot_abs_Q>
0

> <r_epik_Metal_State_Penalty>
-0

> <b_epik_Metal_Only>
0

> <s_lp_Force_Field>
OPLS_2005

> <r_lp_Energy>
26.3084

> <b_lp_Chiralities_Consistent>
1

> <s_lp_Variant>
AV-unprocessed.smi:3276-1

> <Gold.Version>
5.8.1

> <Gold.Id.Protein>
6NUR|6NUR_protein|mol2

> <Gold.PLP.Fitness>
38.9323

> <Gold.PLP.PLP>
-34.2275

> <Gold.PLP.part.hbond>
-2.0000

> <Gold.PLP.part.metal>
0.0000

> <Gold.PLP.part.buried>
-5.3262

> <Gold.PLP.part.nonpolar>
-27.4783

> <Gold.PLP.part.repulsive>
0.4331

> <Gold.PLP.ligand.clash>
0.0000

> <Gold.PLP.ligand.torsion>
0.4272

> <Gold.PLP.Chemscore.Hbond>
1.8160

> <Gold.PLP.Chemscore.CHOScore>
0.0000

> <Gold.PLP.Chemscore.Metal>
0.0000

> <Gold.Chemscore.Hbonds>
donor molecule, donor type, donor heavy atom, donor atom, acceptor molecule, acceptor atom, score
      L1  H     8    26       P1  7948  1.00
      P1  H 10752 10765       L1    17  0.46

> <Gold.PLP.Chemscore.Internal.Correction>
0.1112

> <Gold.Rescore>
     Score         DG    S(hbond)    S(metal)    S(lipo)     H(rot)  DE(clash)    DE(int)     intcor
     14.89     -15.41       1.36        0.00      82.93       1.68       0.01       0.51       ----

> <Gold.Chemscore.Fitness>
14.8904

> <Gold.Chemscore.DG>
-15.4124

> <Gold.Chemscore.ZeroCoef>
-5.4800

> <Gold.Chemscore.Hbond>
1.3580

> <Gold.Chemscore.Metal>
0.0000

> <Gold.Chemscore.Lipo>
82.9273

> <Gold.Chemscore.Internal_Hbond>
0.0000

> <Gold.Chemscore.DEClash>
0.0089

> <Gold.Chemscore.DEInternal>
0.5132

> <Gold.Chemscore.Rot>
1.6820

> <Gold.Chemscore.Internal.Correction>
   9.000000E+99

> <Gold.Chemscore.Hbonds>
donor molecule, donor type, donor heavy atom, donor atom, acceptor molecule, acceptor atom, score
      L1  H     8    26       P1  7948  0.78
      P1  H 10752 10765       L1    17  0.05

> <Gold.Chemscore.Hbond.Weighted>
-4.5358

> <Gold.Chemscore.Metal.Weighted>
-0.0000

> <Gold.Chemscore.Lipo.Weighted>
-9.7025

> <Gold.Chemscore.Internal_Hbond.Weighted>
0.0000

> <Gold.Chemscore.DEClash.Weighted>
0.0089

> <Gold.Chemscore.DEInternal.Weighted>
0.5132

> <Gold.Chemscore.Rot.Weighted>
4.3058

> <Gold.Chemscore.Internal.Correction.Weighted>
   9.000000E+99

> <Gold.Protein.RotatedTorsions>
[ 6907 6896 6895 6894 ] final   46.66 input  -60.11 | X-H torsion
[ 7974 7965 7964 7962 ] final   94.98 input  175.53 | X-H torsion
[ 8008 7997 7996 7995 ] final  160.17 input   59.86 | X-H torsion
[ 10167 10162 10161 10158 ] final  -78.21 input  -65.29 | X-H torsion
[ 10718 10713 10712 10709 ] final  -92.23 input   66.30 | X-H torsion
[ 10763 10752 10751 10750 ] final -157.64 input  -60.55 | X-H torsion
[ 11005 11000 10999 10996 ] final  -40.72 input  -57.11 | X-H torsion

> <Gold.Protein.ActiveResidues>
 VAL166  LYS551  ARG553  GLY616  TRP617  ASP618  TYR619  PRO620  LYS621  CYS622 
 ASP623  PHE694  ASN695  SER759  ASP760  ASP761  ALA762  ILE779  LEU786  VAL792 
 PHE793  MET794  SER795  GLU796  ALA797  LYS798  CYS799  TRP800  GLU811  SER814 

> <Gold.Protein.RotatedAtoms>
  152.2590  134.8054  160.0433 H   0  0  0  0  0  0  0  0  0  0  0  0  # atno 6907 bound_to 6896
  151.8707  133.3470  159.3742 H   0  0  0  0  0  0  0  0  0  0  0  0  # atno 6908 bound_to 6896
  150.7110  134.5042  159.5620 H   0  0  0  0  0  0  0  0  0  0  0  0  # atno 6909 bound_to 6896
  145.4583  139.2288  143.3002 H   0  0  0  0  0  0  0  0  0  0  0  0  # atno 7974 bound_to 7965
  156.2190  140.1811  156.7520 H   0  0  0  0  0  0  0  0  0  0  0  0  # atno 8008 bound_to 7997
  154.5836  140.0662  156.9169 H   0  0  0  0  0  0  0  0  0  0  0  0  # atno 8009 bound_to 7997
  155.2458  140.3325  155.4290 H   0  0  0  0  0  0  0  0  0  0  0  0  # atno 8010 bound_to 7997
  140.4702  143.2429  151.8217 H   0  0  0  0  0  0  0  0  0  0  0  0  # atno 10167 bound_to 10162
  156.0000  130.4979  150.5594 H   0  0  0  0  0  0  0  0  0  0  0  0  # atno 10718 bound_to 10713
  154.7620  135.3120  154.8359 H   0  0  0  0  0  0  0  0  0  0  0  0  # atno 10763 bound_to 10752
  153.9118  135.6805  153.4755 H   0  0  0  0  0  0  0  0  0  0  0  0  # atno 10764 bound_to 10752
  153.1222  135.4817  154.9145 H   0  0  0  0  0  0  0  0  0  0  0  0  # atno 10765 bound_to 10752
  141.0195  133.6869  156.2360 H   0  0  0  0  0  0  0  0  0  0  0  0  # atno 11005 bound_to 11000
  146.2466  140.5349  142.8911 LP  0  0  0  0  0  0  0  0  0  0  0  0  # atno 17320 bound_to 7965
  144.8019  140.6228  143.6473 LP  0  0  0  0  0  0  0  0  0  0  0  0  # atno 17321 bound_to 7965
  139.4817  144.4901  151.9196 LP  0  0  0  0  0  0  0  0  0  0  0  0  # atno 17342 bound_to 10162
  140.3987  144.2522  150.5894 LP  0  0  0  0  0  0  0  0  0  0  0  0  # atno 17343 bound_to 10162
  157.3505  131.0732  151.1717 LP  0  0  0  0  0  0  0  0  0  0  0  0  # atno 17370 bound_to 10713
  157.2535  130.6625  149.5942 LP  0  0  0  0  0  0  0  0  0  0  0  0  # atno 17371 bound_to 10713
  140.6597  134.4980  157.5582 LP  0  0  0  0  0  0  0  0  0  0  0  0  # atno 17394 bound_to 11000
  139.9137  134.8290  156.1439 LP  0  0  0  0  0  0  0  0  0  0  0  0  # atno 17395 bound_to 11000

$$$$
