AV-unprocessed.smi:2197|AV-procd|sdf|8909|dock9
  -GOLD-   2272012123D 1   1.00000     0.00000
 Structure written by MMmdl.
 28 28  0  0  0  0  0  0  0  0  1 V2000
  153.3687  143.3772  159.0270 C   0  0  0  0  0  0  0  0  0  0  0  0
  152.2463  144.3458  158.6396 C   0  0  0  0  0  0  0  0  0  0  0  0
  150.8665  143.6686  158.6156 C   0  0  0  0  0  0  0  0  0  0  0  0
  150.5609  143.1278  157.2963 N   0  0  0  0  0  0  0  0  0  0  0  0
  150.6311  141.8310  156.9588 C   0  0  0  0  0  0  0  0  0  0  0  0
  150.9412  140.9433  157.7547 O   0  0  0  0  0  0  0  0  0  0  0  0
  150.2794  141.4924  155.5028 C   0  0  0  0  0  0  0  0  0  0  0  0
  150.6099  140.1069  155.1381 N   0  0  0  0  0  0  0  0  0  0  0  0
  151.8139  139.5445  155.5380 C   0  0  0  0  0  0  0  0  0  0  0  0
  152.1847  138.2792  155.2296 C   0  0  0  0  0  0  0  0  0  0  0  0
  151.3070  137.4243  154.4376 C   0  0  0  0  0  0  0  0  0  0  0  0
  151.5526  136.2658  154.1089 O   0  0  0  0  0  0  0  0  0  0  0  0
  150.1065  138.0267  154.0521 N   0  0  0  0  0  0  0  0  0  0  0  0
  149.7185  139.3303  154.3658 C   0  0  0  0  0  0  0  0  0  0  0  0
  148.6366  139.7649  153.9725 O   0  0  0  0  0  0  0  0  0  0  0  0
  149.4676  137.4744  153.4990 H   0  0  0  0  0  0  0  0  0  0  0  0
  154.3325  143.8864  159.0436 H   0  0  0  0  0  0  0  0  0  0  0  0
  153.4399  142.5537  158.3162 H   0  0  0  0  0  0  0  0  0  0  0  0
  153.1988  142.9535  160.0170 H   0  0  0  0  0  0  0  0  0  0  0  0
  152.2327  145.1791  159.3431 H   0  0  0  0  0  0  0  0  0  0  0  0
  152.4672  144.7727  157.6603 H   0  0  0  0  0  0  0  0  0  0  0  0
  150.8125  142.8799  159.3683 H   0  0  0  0  0  0  0  0  0  0  0  0
  150.0931  144.3937  158.8703 H   0  0  0  0  0  0  0  0  0  0  0  0
  150.2908  143.7897  156.5832 H   0  0  0  0  0  0  0  0  0  0  0  0
  149.2140  141.6792  155.3603 H   0  0  0  0  0  0  0  0  0  0  0  0
  150.7866  142.1854  154.8280 H   0  0  0  0  0  0  0  0  0  0  0  0
  152.4984  140.1422  156.1231 H   0  0  0  0  0  0  0  0  0  0  0  0
  153.1368  137.8980  155.5699 H   0  0  0  0  0  0  0  0  0  0  0  0
  1  2  1  0  0  0  0
  1 17  1  0  0  0  0
  1 18  1  0  0  0  0
  1 19  1  0  0  0  0
  2  3  1  0  0  0  0
  2 20  1  0  0  0  0
  2 21  1  0  0  0  0
  3  4  1  0  0  0  0
  3 22  1  0  0  0  0
  3 23  1  0  0  0  0
  4  5  1  0  0  0  0
  4 24  1  0  0  0  0
  5  6  2  0  0  0  0
  5  7  1  0  0  0  0
  7  8  1  0  0  0  0
  7 25  1  0  0  0  0
  7 26  1  0  0  0  0
  8 14  1  0  0  0  0
  8  9  1  0  0  0  0
  9 10  2  0  0  0  0
  9 27  1  0  0  0  0
 10 11  1  0  0  0  0
 10 28  1  0  0  0  0
 11 12  2  0  0  0  0
 11 13  1  0  0  0  0
 13 16  1  0  0  0  0
 13 14  1  0  0  0  0
 14 15  2  0  0  0  0
M  END
> <s_m_source_file>
AV-unprocessed.smi

> <i_m_source_file_index>
2197

> <i_lp_mmshare_version>
43012

> <i_f3d_flags>
0

> <s_epik_input>
W0NIM11bQ0gyXVtDSDJdW05IXUMoPU8pW0NIMl1uMVtjSF1bY0hdYyg9TylbbkhdYzE9Tw==

> <s_epik_cmdline>
J2VwaWtfcHl0aG9uJywgJy1waCcsICc3LjAnLCAnLXRuJywgJzgnLCAnLW1hJywgJzIwMCcsICctbWV0YWxfYmluZGluZycsICctaW1hZScsICc8aW5maWxlLm1hZT4nLCAnLW9tYWUnLCAnPG91dGZpbGUubWFlPic=

> <r_lp_tautomer_probability>
0.999537

> <r_epik_Ionization_Penalty>
0.00328917

> <r_epik_Ionization_Penalty_Charging>
0.00328916

> <r_epik_Ionization_Penalty_Neutral>
1.81689e-08

> <r_epik_State_Penalty>
0.00232387

> <r_epik_Charging_Adjusted_Penalty>
0.00561303

> <i_epik_Tot_Q>
0

> <i_epik_Tot_abs_Q>
0

> <r_epik_Metal_State_Penalty>
0.365275

> <b_epik_Metal_Only>
0

> <s_lp_Force_Field>
OPLS_2005

> <r_lp_Energy>
1.80706

> <b_lp_Chiralities_Consistent>
1

> <s_lp_Variant>
AV-unprocessed.smi:2197-1

> <Gold.Version>
5.8.1

> <Gold.Id.Protein>
6NUR|6NUR_protein|mol2

> <Gold.PLP.Fitness>
38.2291

> <Gold.PLP.PLP>
-31.7534

> <Gold.PLP.part.hbond>
-2.6791

> <Gold.PLP.part.metal>
0.0000

> <Gold.PLP.part.buried>
-4.3777

> <Gold.PLP.part.nonpolar>
-27.9183

> <Gold.PLP.part.repulsive>
2.2417

> <Gold.PLP.ligand.clash>
0.0000

> <Gold.PLP.ligand.torsion>
0.6442

> <Gold.PLP.Chemscore.Hbond>
2.5850

> <Gold.PLP.Chemscore.CHOScore>
0.0000

> <Gold.PLP.Chemscore.Metal>
0.0000

> <Gold.Chemscore.Hbonds>
donor molecule, donor type, donor heavy atom, donor atom, acceptor molecule, acceptor atom, score
      L1  H     4    24       P1  8028  0.98
      L1  H    13    16       P1  7948  0.84
      P1  H 10752 10764       L1    12  1.00

> <Gold.PLP.Chemscore.Internal.Correction>
0.0090

> <Gold.Rescore>
     Score         DG    S(hbond)    S(metal)    S(lipo)     H(rot)  DE(clash)    DE(int)     intcor
     12.55     -16.00       2.73        0.00      56.70       2.05       1.20       2.26       ----

> <Gold.Chemscore.Fitness>
12.5467

> <Gold.Chemscore.DG>
-15.9999

> <Gold.Chemscore.ZeroCoef>
-5.4800

> <Gold.Chemscore.Hbond>
2.7325

> <Gold.Chemscore.Metal>
0.0000

> <Gold.Chemscore.Lipo>
56.7008

> <Gold.Chemscore.Internal_Hbond>
0.0000

> <Gold.Chemscore.DEClash>
1.1955

> <Gold.Chemscore.DEInternal>
2.2578

> <Gold.Chemscore.Rot>
2.0471

> <Gold.Chemscore.Internal.Correction>
   9.000000E+99

> <Gold.Chemscore.Hbonds>
donor molecule, donor type, donor heavy atom, donor atom, acceptor molecule, acceptor atom, score
      L1  H     4    24       P1  8028  0.93
      L1  H    13    16       P1  7948  0.76
      P1  H 10752 10764       L1    12  0.93

> <Gold.Chemscore.Hbond.Weighted>
-9.1266

> <Gold.Chemscore.Metal.Weighted>
-0.0000

> <Gold.Chemscore.Lipo.Weighted>
-6.6340

> <Gold.Chemscore.Internal_Hbond.Weighted>
0.0000

> <Gold.Chemscore.DEClash.Weighted>
1.1955

> <Gold.Chemscore.DEInternal.Weighted>
2.2578

> <Gold.Chemscore.Rot.Weighted>
5.2406

> <Gold.Chemscore.Internal.Correction.Weighted>
   9.000000E+99

> <Gold.Protein.RotatedTorsions>
[ 6907 6896 6895 6894 ] final  -58.56 input  -60.11 | X-H torsion
[ 7974 7965 7964 7962 ] final   71.69 input  175.53 | X-H torsion
[ 8008 7997 7996 7995 ] final   49.94 input   59.86 | X-H torsion
[ 10167 10162 10161 10158 ] final  -98.01 input  -65.29 | X-H torsion
[ 10718 10713 10712 10709 ] final   27.36 input   66.30 | X-H torsion
[ 10763 10752 10751 10750 ] final  -87.20 input  -60.55 | X-H torsion
[ 11005 11000 10999 10996 ] final  114.61 input  -57.11 | X-H torsion

> <Gold.Protein.ActiveResidues>
 VAL166  LYS551  ARG553  GLY616  TRP617  ASP618  TYR619  PRO620  LYS621  CYS622 
 ASP623  PHE694  ASN695  SER759  ASP760  ASP761  ALA762  ILE779  LEU786  VAL792 
 PHE793  MET794  SER795  GLU796  ALA797  LYS798  CYS799  TRP800  GLU811  SER814 

> <Gold.Protein.RotatedAtoms>
  150.7997  134.7083  159.6588 H   0  0  0  0  0  0  0  0  0  0  0  0  # atno 6907 bound_to 6896
  152.4113  134.6116  160.0037 H   0  0  0  0  0  0  0  0  0  0  0  0  # atno 6908 bound_to 6896
  151.6358  133.3292  159.3155 H   0  0  0  0  0  0  0  0  0  0  0  0  # atno 6909 bound_to 6896
  145.7626  139.2807  143.1367 H   0  0  0  0  0  0  0  0  0  0  0  0  # atno 7974 bound_to 7965
  155.4105  140.3442  155.4263 H   0  0  0  0  0  0  0  0  0  0  0  0  # atno 8008 bound_to 7997
  156.1451  140.1554  156.8891 H   0  0  0  0  0  0  0  0  0  0  0  0  # atno 8009 bound_to 7997
  154.5004  140.0816  156.7766 H   0  0  0  0  0  0  0  0  0  0  0  0  # atno 8010 bound_to 7997
  140.2774  143.3304  152.0475 H   0  0  0  0  0  0  0  0  0  0  0  0  # atno 10167 bound_to 10162
  157.2192  130.6970  149.6262 H   0  0  0  0  0  0  0  0  0  0  0  0  # atno 10718 bound_to 10713
  154.6310  135.5422  153.7680 H   0  0  0  0  0  0  0  0  0  0  0  0  # atno 10763 bound_to 10752
  153.0284  135.6436  154.1301 H   0  0  0  0  0  0  0  0  0  0  0  0  # atno 10764 bound_to 10752
  154.1231  135.2919  155.3183 H   0  0  0  0  0  0  0  0  0  0  0  0  # atno 10765 bound_to 10752
  139.8985  134.9571  156.6919 H   0  0  0  0  0  0  0  0  0  0  0  0  # atno 11005 bound_to 11000
  146.0249  140.8313  142.9905 LP  0  0  0  0  0  0  0  0  0  0  0  0  # atno 17320 bound_to 7965
  144.6827  140.2682  143.7309 LP  0  0  0  0  0  0  0  0  0  0  0  0  # atno 17321 bound_to 7965
  139.4972  144.6615  151.6454 LP  0  0  0  0  0  0  0  0  0  0  0  0  # atno 17342 bound_to 10162
  140.5840  143.9897  150.6284 LP  0  0  0  0  0  0  0  0  0  0  0  0  # atno 17343 bound_to 10162
  155.9684  130.4525  150.5778 LP  0  0  0  0  0  0  0  0  0  0  0  0  # atno 17370 bound_to 10713
  157.3593  131.0747  151.1649 LP  0  0  0  0  0  0  0  0  0  0  0  0  # atno 17371 bound_to 10713
  140.7218  133.9134  155.8152 LP  0  0  0  0  0  0  0  0  0  0  0  0  # atno 17394 bound_to 11000
  141.0221  134.0874  157.4108 LP  0  0  0  0  0  0  0  0  0  0  0  0  # atno 17395 bound_to 11000

$$$$
