AV-unprocessed.smi:1596|AV-procd|sdf|6417|dock2
  -GOLD-   22720 7 53D 1   1.00000     0.00000
 Structure written by MMmdl.
 49 50  0  0  0  0  0  0  0  0  2 V2000
  151.6581  140.6558  158.9791 C   0  0  0  0  0  0  0  0  0  0  0  0
  152.3184  141.8190  158.2238 C   0  0  0  0  0  0  0  0  0  0  0  0
  151.5004  142.3308  157.1212 N   0  0  0  0  0  0  0  0  0  0  0  0
  151.2246  143.7652  157.0379 C   0  0  0  0  0  0  0  0  0  0  0  0
  151.9633  144.5892  158.1032 C   0  0  0  0  0  0  0  0  0  0  0  0
  150.8385  141.4264  156.2546 C   0  0  0  0  0  0  0  0  0  0  0  0
  151.3902  140.1866  155.8436 C   0  0  0  0  0  0  0  0  0  0  0  0
  150.6640  139.3429  154.9781 C   0  0  0  0  0  0  0  0  0  0  0  0
  149.3838  139.7290  154.5312 C   0  0  0  0  0  0  0  0  0  0  0  0
  148.6944  138.8546  153.6478 N   0  0  0  0  0  0  0  0  0  0  0  0
  147.3686  138.7281  153.4648 C   0  0  0  0  0  0  0  0  0  0  0  0
  146.5037  139.3415  154.0898 O   0  0  0  0  0  0  0  0  0  0  0  0
  147.0934  137.8240  152.5137 N   0  0  0  0  0  0  0  0  0  0  0  0
  145.7536  137.4390  152.0792 C   0  0  2  0  0  0  0  0  0  0  0  0
  144.8353  137.2961  153.3067 C   0  0  0  0  0  0  0  0  0  0  0  0
  143.4197  136.8455  152.9057 C   0  0  0  0  0  0  0  0  0  0  0  0
  143.4339  135.5513  152.0706 C   0  0  2  0  0  0  0  0  0  0  0  0
  143.8097  134.4557  152.8817 O   0  0  0  0  0  0  0  0  0  0  0  0
  144.3855  135.6665  150.8649 C   0  0  0  0  0  0  0  0  0  0  0  0
  145.7962  136.1228  151.2760 C   0  0  0  0  0  0  0  0  0  0  0  0
  148.8777  140.9785  154.9588 C   0  0  0  0  0  0  0  0  0  0  0  0
  149.6092  141.7554  155.7862 N   0  3  0  0  0  0  0  0  0  0  0  0
  152.3167  140.2899  159.7667 H   0  0  0  0  0  0  0  0  0  0  0  0
  151.4412  139.8174  158.3170 H   0  0  0  0  0  0  0  0  0  0  0  0
  150.7255  140.9596  159.4523 H   0  0  0  0  0  0  0  0  0  0  0  0
  152.5135  142.6305  158.9252 H   0  0  0  0  0  0  0  0  0  0  0  0
  153.2991  141.5177  157.8545 H   0  0  0  0  0  0  0  0  0  0  0  0
  151.5216  144.1215  156.0510 H   0  0  0  0  0  0  0  0  0  0  0  0
  150.1511  143.9444  157.0917 H   0  0  0  0  0  0  0  0  0  0  0  0
  151.6973  145.6431  158.0225 H   0  0  0  0  0  0  0  0  0  0  0  0
  153.0439  144.5191  157.9874 H   0  0  0  0  0  0  0  0  0  0  0  0
  151.7130  144.2638  159.1130 H   0  0  0  0  0  0  0  0  0  0  0  0
  152.3661  139.8627  156.1710 H   0  0  0  0  0  0  0  0  0  0  0  0
  151.0908  138.4011  154.6652 H   0  0  0  0  0  0  0  0  0  0  0  0
  149.2773  138.2225  153.1187 H   0  0  0  0  0  0  0  0  0  0  0  0
  147.8660  137.3650  152.0538 H   0  0  0  0  0  0  0  0  0  0  0  0
  145.3489  138.2287  151.4430 H   0  0  0  0  0  0  0  0  0  0  0  0
  145.2611  136.5750  154.0060 H   0  0  0  0  0  0  0  0  0  0  0  0
  144.7773  138.2445  153.8421 H   0  0  0  0  0  0  0  0  0  0  0  0
  142.8015  136.7148  153.7946 H   0  0  0  0  0  0  0  0  0  0  0  0
  142.9491  137.6385  152.3232 H   0  0  0  0  0  0  0  0  0  0  0  0
  142.4247  135.3487  151.7107 H   0  0  0  0  0  0  0  0  0  0  0  0
  143.6665  133.6586  152.3944 H   0  0  0  0  0  0  0  0  0  0  0  0
  144.4391  134.7167  150.3318 H   0  0  0  0  0  0  0  0  0  0  0  0
  143.9751  136.3883  150.1575 H   0  0  0  0  0  0  0  0  0  0  0  0
  146.4096  136.2453  150.3827 H   0  0  0  0  0  0  0  0  0  0  0  0
  146.2735  135.3421  151.8699 H   0  0  0  0  0  0  0  0  0  0  0  0
  147.9268  141.3986  154.6675 H   0  0  0  0  0  0  0  0  0  0  0  0
  149.2109  142.6494  156.0742 H   0  0  0  0  0  0  0  0  0  0  0  0
  1  2  1  0  0  0  0
  1 23  1  0  0  0  0
  1 24  1  0  0  0  0
  1 25  1  0  0  0  0
  2  3  1  0  0  0  0
  2 26  1  0  0  0  0
  2 27  1  0  0  0  0
  3  4  1  0  0  0  0
  3  6  1  0  0  0  0
  4  5  1  0  0  0  0
  4 28  1  0  0  0  0
  4 29  1  0  0  0  0
  5 30  1  0  0  0  0
  5 31  1  0  0  0  0
  5 32  1  0  0  0  0
  6 22  1  0  0  0  0
  6  7  2  0  0  0  0
  7  8  1  0  0  0  0
  7 33  1  0  0  0  0
  8  9  2  0  0  0  0
  8 34  1  0  0  0  0
  9 10  1  0  0  0  0
  9 21  1  0  0  0  0
 10 11  1  0  0  0  0
 10 35  1  0  0  0  0
 11 12  2  0  0  0  0
 11 13  1  0  0  0  0
 13 14  1  0  0  0  0
 13 36  1  0  0  0  0
 14 20  1  0  0  0  0
 14 15  1  0  0  0  0
 14 37  1  0  0  0  0
 15 16  1  0  0  0  0
 15 38  1  0  0  0  0
 15 39  1  0  0  0  0
 16 17  1  0  0  0  0
 16 40  1  0  0  0  0
 16 41  1  0  0  0  0
 17 18  1  0  0  0  0
 17 19  1  0  0  0  0
 17 42  1  0  0  0  0
 18 43  1  0  0  0  0
 19 20  1  0  0  0  0
 19 44  1  0  0  0  0
 19 45  1  0  0  0  0
 20 46  1  0  0  0  0
 20 47  1  0  0  0  0
 21 22  2  0  0  0  0
 21 48  1  0  0  0  0
 22 49  1  0  0  0  0
M  CHG  1  22   1
M  END
> <s_m_source_file>
AV-unprocessed.smi

> <i_m_source_file_index>
1596

> <i_lp_mmshare_version>
43012

> <i_f3d_flags>
0

> <s_epik_input>
W0NIM11bQ0gyXU4oW0NIMl1bQ0gzXSljMVtjSF1bY0hdYyhbY0hdbjEpW05IXUMoPU8pW05IXVtDQEBIXTJbQ0gyXVtDSDJdW0NAQEhdKFtPSF0pW0NIMl1bQ0gyXTI=

> <s_epik_cmdline>
J2VwaWtfcHl0aG9uJywgJy1waCcsICc3LjAnLCAnLXRuJywgJzgnLCAnLW1hJywgJzIwMCcsICctbWV0YWxfYmluZGluZycsICctaW1hZScsICc8aW5maWxlLm1hZT4nLCAnLW9tYWUnLCAnPG91dGZpbGUubWFlPic=

> <r_lp_tautomer_probability>
0.999994

> <r_epik_Ionization_Penalty>
0.224167

> <r_epik_Ionization_Penalty_Charging>
0.224146

> <r_epik_Ionization_Penalty_Neutral>
2.1696e-05

> <r_epik_State_Penalty>
0.0144855

> <r_epik_Charging_Adjusted_Penalty>
0.238631

> <i_epik_Tot_Q>
1

> <i_epik_Tot_abs_Q>
1

> <r_epik_Metal_State_Penalty>
0.0446449

> <b_epik_Metal_Only>
0

> <s_lp_Force_Field>
OPLS_2005

> <r_lp_Energy>
23.6459

> <b_lp_Chiralities_Consistent>
1

> <s_lp_Variant>
AV-unprocessed.smi:1596-2

> <Gold.Version>
5.8.1

> <Gold.Id.Protein>
6NUR|6NUR_protein|mol2

> <Gold.PLP.Fitness>
47.1562

> <Gold.PLP.PLP>
-39.4609

> <Gold.PLP.part.hbond>
-3.4680

> <Gold.PLP.part.metal>
0.0000

> <Gold.PLP.part.buried>
-2.5339

> <Gold.PLP.part.nonpolar>
-35.0934

> <Gold.PLP.part.repulsive>
0.3848

> <Gold.PLP.ligand.clash>
0.0000

> <Gold.PLP.ligand.torsion>
0.9721

> <Gold.PLP.Chemscore.Hbond>
3.1535

> <Gold.PLP.Chemscore.CHOScore>
0.0000

> <Gold.PLP.Chemscore.Metal>
0.0000

> <Gold.Chemscore.Hbonds>
donor molecule, donor type, donor heavy atom, donor atom, acceptor molecule, acceptor atom, score
      L1  H    10    35       P1  7948  0.16
      L1  H    13    36       P1  7948  1.00
      L1  H    22    49       P1  8028  1.43

> <Gold.PLP.Chemscore.Internal.Correction>
0.1790

> <Gold.Rescore>
     Score         DG    S(hbond)    S(metal)    S(lipo)     H(rot)  DE(clash)    DE(int)     intcor
     14.89     -18.27       1.95        0.00      93.74       1.83       0.30       3.07       ----

> <Gold.Chemscore.Fitness>
14.8929

> <Gold.Chemscore.DG>
-18.2689

> <Gold.Chemscore.ZeroCoef>
-5.4800

> <Gold.Chemscore.Hbond>
1.9493

> <Gold.Chemscore.Metal>
0.0000

> <Gold.Chemscore.Lipo>
93.7377

> <Gold.Chemscore.Internal_Hbond>
0.0000

> <Gold.Chemscore.DEClash>
0.3017

> <Gold.Chemscore.DEInternal>
3.0743

> <Gold.Chemscore.Rot>
1.8317

> <Gold.Chemscore.Internal.Correction>
   9.000000E+99

> <Gold.Chemscore.Hbonds>
donor molecule, donor type, donor heavy atom, donor atom, acceptor molecule, acceptor atom, score
      L1  H    10    35       P1  7948  0.17
      L1  H    13    36       P1  7948  0.95
      L1  H    22    49       P1  8028  0.68

> <Gold.Chemscore.Hbond.Weighted>
-6.5108

> <Gold.Chemscore.Metal.Weighted>
-0.0000

> <Gold.Chemscore.Lipo.Weighted>
-10.9673

> <Gold.Chemscore.Internal_Hbond.Weighted>
0.0000

> <Gold.Chemscore.DEClash.Weighted>
0.3017

> <Gold.Chemscore.DEInternal.Weighted>
3.0743

> <Gold.Chemscore.Rot.Weighted>
4.6892

> <Gold.Chemscore.Internal.Correction.Weighted>
   9.000000E+99

> <Gold.Protein.RotatedTorsions>
[ 6907 6896 6895 6894 ] final    9.82 input  -60.11 | X-H torsion
[ 7974 7965 7964 7962 ] final   89.41 input  175.53 | X-H torsion
[ 8008 7997 7996 7995 ] final  132.68 input   59.86 | X-H torsion
[ 10167 10162 10161 10158 ] final  175.87 input  -65.29 | X-H torsion
[ 10718 10713 10712 10709 ] final  -70.53 input   66.30 | X-H torsion
[ 10763 10752 10751 10750 ] final  158.85 input  -60.55 | X-H torsion
[ 11005 11000 10999 10996 ] final -121.04 input  -57.11 | X-H torsion

> <Gold.Protein.ActiveResidues>
 VAL166  LYS551  ARG553  GLY616  TRP617  ASP618  TYR619  PRO620  LYS621  CYS622 
 ASP623  PHE694  ASN695  SER759  ASP760  ASP761  ALA762  ILE779  LEU786  VAL792 
 PHE793  MET794  SER795  GLU796  ALA797  LYS798  CYS799  TRP800  GLU811  SER814 

> <Gold.Protein.RotatedAtoms>
  151.7283  135.0880  160.0295 H   0  0  0  0  0  0  0  0  0  0  0  0  # atno 6907 bound_to 6896
  152.3558  133.6230  159.5986 H   0  0  0  0  0  0  0  0  0  0  0  0  # atno 6908 bound_to 6896
  150.7570  133.9419  159.3500 H   0  0  0  0  0  0  0  0  0  0  0  0  # atno 6909 bound_to 6896
  145.5327  139.2284  143.2610 H   0  0  0  0  0  0  0  0  0  0  0  0  # atno 7974 bound_to 7965
  156.2985  140.2540  156.3128 H   0  0  0  0  0  0  0  0  0  0  0  0  # atno 8008 bound_to 7997
  154.9309  140.0398  157.2066 H   0  0  0  0  0  0  0  0  0  0  0  0  # atno 8009 bound_to 7997
  154.8219  140.2861  155.5785 H   0  0  0  0  0  0  0  0  0  0  0  0  # atno 8010 bound_to 7997
  139.5193  144.2981  152.0403 H   0  0  0  0  0  0  0  0  0  0  0  0  # atno 10167 bound_to 10162
  156.0403  130.4333  150.2309 H   0  0  0  0  0  0  0  0  0  0  0  0  # atno 10718 bound_to 10713
  154.2226  135.2781  155.2919 H   0  0  0  0  0  0  0  0  0  0  0  0  # atno 10763 bound_to 10752
  154.5690  135.5624  153.7080 H   0  0  0  0  0  0  0  0  0  0  0  0  # atno 10764 bound_to 10752
  153.0038  135.6316  154.2366 H   0  0  0  0  0  0  0  0  0  0  0  0  # atno 10765 bound_to 10752
  141.0099  134.0279  157.3427 H   0  0  0  0  0  0  0  0  0  0  0  0  # atno 11005 bound_to 11000
  146.2033  140.6144  142.9092 LP  0  0  0  0  0  0  0  0  0  0  0  0  # atno 17320 bound_to 7965
  144.7617  140.5438  143.6731 LP  0  0  0  0  0  0  0  0  0  0  0  0  # atno 17321 bound_to 7965
  140.2430  144.4249  150.6252 LP  0  0  0  0  0  0  0  0  0  0  0  0  # atno 17342 bound_to 10162
  140.6278  143.2183  151.6561 LP  0  0  0  0  0  0  0  0  0  0  0  0  # atno 17343 bound_to 10162
  157.0405  131.0034  151.3285 LP  0  0  0  0  0  0  0  0  0  0  0  0  # atno 17370 bound_to 10713
  157.5213  130.8000  149.7812 LP  0  0  0  0  0  0  0  0  0  0  0  0  # atno 17371 bound_to 10713
  139.9084  135.0185  156.7587 LP  0  0  0  0  0  0  0  0  0  0  0  0  # atno 17394 bound_to 11000
  140.6750  133.9525  155.7878 LP  0  0  0  0  0  0  0  0  0  0  0  0  # atno 17395 bound_to 11000

$$$$
