AV-unprocessed.smi:1752|AV-procd|sdf|7059|dock10
  -GOLD-   22720 8273D 1   1.00000     0.00000
 Structure written by MMmdl.
 43 44  0  0  0  0  0  0  0  0  2 V2000
  151.8061  142.1987  157.4615 C   0  0  0  0  0  0  0  0  0  0  0  0
  150.3152  141.9277  157.7041 C   0  0  1  0  0  0  0  0  0  0  0  0
  149.6460  143.0981  158.4562 C   0  0  0  0  0  0  0  0  0  0  0  0
  150.5511  143.7677  159.3736 N   0  0  0  0  0  0  0  0  0  0  0  0
  151.1753  144.9883  159.2232 C   0  0  0  0  0  0  0  0  0  0  0  0
  151.9146  145.2080  160.3496 C   0  0  0  0  0  0  0  0  0  0  0  0
  151.6800  144.0475  161.1391 C   0  0  0  0  0  0  0  0  0  0  0  0
  150.8651  143.1865  160.5512 N   0  0  0  0  0  0  0  0  0  0  0  0
  149.6583  141.6991  156.4174 N   0  0  0  0  0  0  0  0  0  0  0  0
  149.7798  140.5983  155.6534 C   0  0  0  0  0  0  0  0  0  0  0  0
  150.4946  139.6465  155.9694 O   0  0  0  0  0  0  0  0  0  0  0  0
  148.9844  140.5892  154.5548 N   0  0  0  0  0  0  0  0  0  0  0  0
  148.5269  139.3538  153.8806 C   0  0  0  0  0  0  0  0  0  0  0  0
  147.1442  139.4771  153.1968 C   0  0  0  0  0  0  0  0  0  0  0  0
  145.9820  139.8812  154.1300 C   0  0  0  0  0  0  0  0  0  0  0  0
  146.3085  140.9418  155.1212 N   0  3  2  0  0  0  0  0  0  0  0  0
  145.1328  141.3052  155.9426 C   0  0  0  0  0  0  0  0  0  0  0  0
  147.0023  142.1386  154.5737 C   0  0  0  0  0  0  0  0  0  0  0  0
  148.4231  141.8482  154.0358 C   0  0  0  0  0  0  0  0  0  0  0  0
  152.3354  142.3439  158.4037 H   0  0  0  0  0  0  0  0  0  0  0  0
  151.9553  143.0933  156.8559 H   0  0  0  0  0  0  0  0  0  0  0  0
  152.2792  141.3626  156.9452 H   0  0  0  0  0  0  0  0  0  0  0  0
  150.2491  141.0303  158.3220 H   0  0  0  0  0  0  0  0  0  0  0  0
  149.2766  143.8392  157.7458 H   0  0  0  0  0  0  0  0  0  0  0  0
  148.7784  142.7470  159.0167 H   0  0  0  0  0  0  0  0  0  0  0  0
  151.0371  145.5948  158.3402 H   0  0  0  0  0  0  0  0  0  0  0  0
  152.5296  146.0663  160.5757 H   0  0  0  0  0  0  0  0  0  0  0  0
  152.0753  143.8071  162.1151 H   0  0  0  0  0  0  0  0  0  0  0  0
  149.0312  142.4232  156.0987 H   0  0  0  0  0  0  0  0  0  0  0  0
  149.2756  139.0662  153.1415 H   0  0  0  0  0  0  0  0  0  0  0  0
  148.4602  138.5293  154.5926 H   0  0  0  0  0  0  0  0  0  0  0  0
  147.1918  140.1625  152.3513 H   0  0  0  0  0  0  0  0  0  0  0  0
  146.8967  138.5170  152.7427 H   0  0  0  0  0  0  0  0  0  0  0  0
  145.1302  140.1955  153.5250 H   0  0  0  0  0  0  0  0  0  0  0  0
  145.6578  139.0000  154.6852 H   0  0  0  0  0  0  0  0  0  0  0  0
  144.3727  141.8015  155.3379 H   0  0  0  0  0  0  0  0  0  0  0  0
  145.4179  141.9766  156.7534 H   0  0  0  0  0  0  0  0  0  0  0  0
  144.6866  140.4178  156.3930 H   0  0  0  0  0  0  0  0  0  0  0  0
  146.3898  142.6135  153.8060 H   0  0  0  0  0  0  0  0  0  0  0  0
  147.0991  142.8664  155.3809 H   0  0  0  0  0  0  0  0  0  0  0  0
  149.0744  142.6953  154.2599 H   0  0  0  0  0  0  0  0  0  0  0  0
  148.4215  141.8225  152.9466 H   0  0  0  0  0  0  0  0  0  0  0  0
  146.9692  140.5237  155.7608 H   0  0  0  0  0  0  0  0  0  0  0  0
  1  2  1  0  0  0  0
  1 20  1  0  0  0  0
  1 21  1  0  0  0  0
  1 22  1  0  0  0  0
  2  3  1  0  0  0  0
  2  9  1  0  0  0  0
  2 23  1  0  0  0  0
  3  4  1  0  0  0  0
  3 24  1  0  0  0  0
  3 25  1  0  0  0  0
  4  8  1  0  0  0  0
  4  5  1  0  0  0  0
  5  6  2  0  0  0  0
  5 26  1  0  0  0  0
  6  7  1  0  0  0  0
  6 27  1  0  0  0  0
  7  8  2  0  0  0  0
  7 28  1  0  0  0  0
  9 10  1  0  0  0  0
  9 29  1  0  0  0  0
 10 11  2  0  0  0  0
 10 12  1  0  0  0  0
 12 19  1  0  0  0  0
 12 13  1  0  0  0  0
 13 14  1  0  0  0  0
 13 30  1  0  0  0  0
 13 31  1  0  0  0  0
 14 15  1  0  0  0  0
 14 32  1  0  0  0  0
 14 33  1  0  0  0  0
 15 16  1  0  0  0  0
 15 34  1  0  0  0  0
 15 35  1  0  0  0  0
 16 17  1  0  0  0  0
 16 18  1  0  0  0  0
 16 43  1  0  0  0  0
 17 36  1  0  0  0  0
 17 37  1  0  0  0  0
 17 38  1  0  0  0  0
 18 19  1  0  0  0  0
 18 39  1  0  0  0  0
 18 40  1  0  0  0  0
 19 41  1  0  0  0  0
 19 42  1  0  0  0  0
M  CHG  1  16   1
M  END
> <s_m_source_file>
AV-unprocessed.smi

> <i_m_source_file_index>
1752

> <i_lp_mmshare_version>
43012

> <i_f3d_flags>
0

> <s_epik_input>
bjFbY0hdW2NIXVtjSF1uMVtDSDJdW0NAQEhdKFtDSDNdKVtOSF1DKD1PKU4yW0NIMl1bQ0gyXVtDSDJdTihbQ0gzXSlbQ0gyXVtDSDJdMg==

> <s_epik_cmdline>
J2VwaWtfcHl0aG9uJywgJy1waCcsICc3LjAnLCAnLXRuJywgJzgnLCAnLW1hJywgJzIwMCcsICctbWV0YWxfYmluZGluZycsICctaW1hZScsICc8aW5maWxlLm1hZT4nLCAnLW9tYWUnLCAnPG91dGZpbGUubWFlPic=

> <r_lp_tautomer_probability>
1

> <r_epik_Ionization_Penalty>
0.00208423

> <r_epik_Ionization_Penalty_Charging>
0.00203643

> <r_epik_Ionization_Penalty_Neutral>
4.77939e-05

> <r_epik_State_Penalty>
0.00139278

> <r_epik_Charging_Adjusted_Penalty>
0.00342922

> <i_epik_Tot_Q>
1

> <i_epik_Tot_abs_Q>
1

> <r_epik_Metal_State_Penalty>
-0

> <b_epik_Metal_Only>
0

> <s_lp_Force_Field>
OPLS_2005

> <r_lp_Energy>
45.8522

> <b_lp_Chiralities_Consistent>
1

> <s_lp_Variant>
AV-unprocessed.smi:1752-2

> <Gold.Version>
5.8.1

> <Gold.Id.Protein>
6NUR|6NUR_protein|mol2

> <Gold.PLP.Fitness>
37.2103

> <Gold.PLP.PLP>
-34.7148

> <Gold.PLP.part.hbond>
-2.3996

> <Gold.PLP.part.metal>
0.0000

> <Gold.PLP.part.buried>
-1.0357

> <Gold.PLP.part.nonpolar>
-30.9161

> <Gold.PLP.part.repulsive>
0.1879

> <Gold.PLP.ligand.clash>
2.2645

> <Gold.PLP.ligand.torsion>
0.8855

> <Gold.PLP.Chemscore.Hbond>
1.1456

> <Gold.PLP.Chemscore.CHOScore>
0.9997

> <Gold.PLP.Chemscore.Metal>
0.0000

> <Gold.Chemscore.Hbonds>
donor molecule, donor type, donor heavy atom, donor atom, acceptor molecule, acceptor atom, score
      L1  H     9    29       P1  8028  0.20

> <Gold.PLP.Chemscore.Internal.Correction>
0.0952

> <Gold.Rescore>
     Score         DG    S(hbond)    S(metal)    S(lipo)     H(rot)  DE(clash)    DE(int)     intcor
     11.91     -14.38       0.92        0.00      80.58       1.41       1.67       0.79       ----

> <Gold.Chemscore.Fitness>
11.9145

> <Gold.Chemscore.DG>
-14.3776

> <Gold.Chemscore.ZeroCoef>
-5.4800

> <Gold.Chemscore.Hbond>
0.9239

> <Gold.Chemscore.Metal>
0.0000

> <Gold.Chemscore.Lipo>
80.5781

> <Gold.Chemscore.Internal_Hbond>
0.0000

> <Gold.Chemscore.DEClash>
1.6722

> <Gold.Chemscore.DEInternal>
0.7909

> <Gold.Chemscore.Rot>
1.4125

> <Gold.Chemscore.Internal.Correction>
   9.000000E+99

> <Gold.Chemscore.Hbonds>
donor molecule, donor type, donor heavy atom, donor atom, acceptor molecule, acceptor atom, score
      L1  H     9    29       P1  8028  0.20
      P1  H  6933  6945       L1     8  0.01

> <Gold.Chemscore.Hbond.Weighted>
-3.0860

> <Gold.Chemscore.Metal.Weighted>
-0.0000

> <Gold.Chemscore.Lipo.Weighted>
-9.4276

> <Gold.Chemscore.Internal_Hbond.Weighted>
0.0000

> <Gold.Chemscore.DEClash.Weighted>
1.6722

> <Gold.Chemscore.DEInternal.Weighted>
0.7909

> <Gold.Chemscore.Rot.Weighted>
3.6160

> <Gold.Chemscore.Internal.Correction.Weighted>
   9.000000E+99

> <Gold.Protein.RotatedTorsions>
[ 6907 6896 6895 6894 ] final   74.30 input  -60.11 | X-H torsion
[ 7974 7965 7964 7962 ] final  -15.79 input  175.53 | X-H torsion
[ 8008 7997 7996 7995 ] final  126.59 input   59.86 | X-H torsion
[ 10167 10162 10161 10158 ] final    2.85 input  -65.29 | X-H torsion
[ 10718 10713 10712 10709 ] final -118.40 input   66.30 | X-H torsion
[ 10763 10752 10751 10750 ] final   -9.65 input  -60.55 | X-H torsion
[ 11005 11000 10999 10996 ] final -159.02 input  -57.11 | X-H torsion

> <Gold.Protein.ActiveResidues>
 VAL166  LYS551  ARG553  GLY616  TRP617  ASP618  TYR619  PRO620  LYS621  CYS622 
 ASP623  PHE694  ASN695  SER759  ASP760  ASP761  ALA762  ILE779  LEU786  VAL792 
 PHE793  MET794  SER795  GLU796  ALA797  LYS798  CYS799  TRP800  GLU811  SER814 

> <Gold.Protein.RotatedAtoms>
  152.4969  134.4291  159.9506 H   0  0  0  0  0  0  0  0  0  0  0  0  # atno 6907 bound_to 6896
  151.4269  133.3675  159.2771 H   0  0  0  0  0  0  0  0  0  0  0  0  # atno 6908 bound_to 6896
  150.9183  134.8623  159.7531 H   0  0  0  0  0  0  0  0  0  0  0  0  # atno 6909 bound_to 6896
  146.2016  140.3544  142.8421 H   0  0  0  0  0  0  0  0  0  0  0  0  # atno 7974 bound_to 7965
  156.2868  140.2689  156.2136 H   0  0  0  0  0  0  0  0  0  0  0  0  # atno 8008 bound_to 7997
  155.0239  140.0386  157.2466 H   0  0  0  0  0  0  0  0  0  0  0  0  # atno 8009 bound_to 7997
  154.7412  140.2725  155.6377 H   0  0  0  0  0  0  0  0  0  0  0  0  # atno 8010 bound_to 7997
  140.6615  143.7292  150.7747 H   0  0  0  0  0  0  0  0  0  0  0  0  # atno 10167 bound_to 10162
  156.1103  130.6244  150.9286 H   0  0  0  0  0  0  0  0  0  0  0  0  # atno 10718 bound_to 10713
  153.4578  135.7016  153.6069 H   0  0  0  0  0  0  0  0  0  0  0  0  # atno 10763 bound_to 10752
  153.4377  135.3787  155.2209 H   0  0  0  0  0  0  0  0  0  0  0  0  # atno 10764 bound_to 10752
  154.8727  135.3966  154.3999 H   0  0  0  0  0  0  0  0  0  0  0  0  # atno 10765 bound_to 10752
  140.6472  134.4489  157.5234 H   0  0  0  0  0  0  0  0  0  0  0  0  # atno 11005 bound_to 11000
  144.8697  140.7255  143.6055 LP  0  0  0  0  0  0  0  0  0  0  0  0  # atno 17320 bound_to 7965
  145.3463  139.1718  143.4458 LP  0  0  0  0  0  0  0  0  0  0  0  0  # atno 17321 bound_to 7965
  140.0962  143.4831  152.2451 LP  0  0  0  0  0  0  0  0  0  0  0  0  # atno 17342 bound_to 10162
  139.5850  144.7527  151.3543 LP  0  0  0  0  0  0  0  0  0  0  0  0  # atno 17343 bound_to 10162
  157.6284  131.0923  150.8489 LP  0  0  0  0  0  0  0  0  0  0  0  0  # atno 17370 bound_to 10713
  156.8601  130.5110  149.5304 LP  0  0  0  0  0  0  0  0  0  0  0  0  # atno 17371 bound_to 10713
  139.9059  134.8451  156.1710 LP  0  0  0  0  0  0  0  0  0  0  0  0  # atno 17394 bound_to 11000
  141.0563  133.6863  156.1867 LP  0  0  0  0  0  0  0  0  0  0  0  0  # atno 17395 bound_to 11000

$$$$
