AV-unprocessed.smi:78|AV-procd|sdf|776|dock5
  -GOLD-   2262017133D 1   1.00000     0.00000
 Structure written by MMmdl.
 56 59  0  0  0  0  0  0  0  0  1 V2000
  149.2965  131.0752  159.9421 C   0  0  0  0  0  0  0  0  0  0  0  0
  148.9269  131.9811  158.7558 C   0  0  0  0  0  0  0  0  0  0  0  0
  147.9277  133.0608  159.1970 C   0  0  0  0  0  0  0  0  0  0  0  0
  148.3675  131.1853  157.5527 C   0  0  0  0  0  0  0  0  0  0  0  0
  149.3710  130.2228  156.8554 C   0  0  1  0  0  0  0  0  0  0  0  0
  148.7708  128.8520  156.4702 C   0  0  0  0  0  0  0  0  0  0  0  0
  147.8294  128.3810  157.1057 O   0  0  0  0  0  0  0  0  0  0  0  0
  149.3210  128.1885  155.4373 N   0  0  0  0  0  0  0  0  0  0  0  0
  150.4246  128.6661  154.5996 C   0  0  0  0  0  0  0  0  0  0  0  0
  151.0980  129.9498  155.1322 C   0  0  0  0  0  0  0  0  0  0  0  0
  150.1195  130.8408  155.7481 N   0  0  0  0  0  0  0  0  0  0  0  0
  149.4768  131.6091  154.8306 C   0  0  0  0  0  0  0  0  0  0  0  0
  149.7784  132.9272  154.6899 N   0  0  0  0  0  0  0  0  0  0  0  0
  149.1263  133.6734  153.7935 C   0  0  0  0  0  0  0  0  0  0  0  0
  148.1493  133.3117  152.9591 N   0  0  0  0  0  0  0  0  0  0  0  0
  147.8365  131.9923  153.1056 C   0  0  0  0  0  0  0  0  0  0  0  0
  148.4480  131.0781  154.0079 C   0  0  0  0  0  0  0  0  0  0  0  0
  147.8845  129.8169  153.8646 N   0  0  0  0  0  0  0  0  0  0  0  0
  146.9922  129.9752  152.9250 C   0  0  0  0  0  0  0  0  0  0  0  0
  146.8766  131.2568  152.4332 N   0  0  0  0  0  0  0  0  0  0  0  0
  146.0070  131.7075  151.3865 C   0  0  0  0  0  0  0  0  0  0  0  0
  146.3381  132.9681  150.5824 C   0  0  0  0  0  0  0  0  0  0  0  0
  144.8256  133.2530  150.4302 C   0  0  0  0  0  0  0  0  0  0  0  0
  144.3659  134.7199  150.5475 C   0  0  0  0  0  0  0  0  0  0  0  0
  144.5578  135.4478  149.3507 O   0  0  0  0  0  0  0  0  0  0  0  0
  144.1681  132.6705  149.1643 C   0  0  0  0  0  0  0  0  0  0  0  0
  142.8580  132.2085  149.4241 O   0  0  0  0  0  0  0  0  0  0  0  0
  144.6603  132.3731  151.6910 C   0  0  0  0  0  0  0  0  0  0  0  0
  148.4423  130.4823  160.2702 H   0  0  0  0  0  0  0  0  0  0  0  0
  149.6373  131.6646  160.7936 H   0  0  0  0  0  0  0  0  0  0  0  0
  150.1038  130.3889  159.6874 H   0  0  0  0  0  0  0  0  0  0  0  0
  149.8319  132.5031  158.4459 H   0  0  0  0  0  0  0  0  0  0  0  0
  146.9893  132.6185  159.5328 H   0  0  0  0  0  0  0  0  0  0  0  0
  147.6999  133.7445  158.3785 H   0  0  0  0  0  0  0  0  0  0  0  0
  148.3280  133.6561  160.0181 H   0  0  0  0  0  0  0  0  0  0  0  0
  147.5068  130.6116  157.8994 H   0  0  0  0  0  0  0  0  0  0  0  0
  147.9611  131.8843  156.8217 H   0  0  0  0  0  0  0  0  0  0  0  0
  150.1225  129.9705  157.6035 H   0  0  0  0  0  0  0  0  0  0  0  0
  148.9293  127.2885  155.2000 H   0  0  0  0  0  0  0  0  0  0  0  0
  151.1617  127.8726  154.4764 H   0  0  0  0  0  0  0  0  0  0  0  0
  150.0108  128.8612  153.6097 H   0  0  0  0  0  0  0  0  0  0  0  0
  151.8328  129.6857  155.8937 H   0  0  0  0  0  0  0  0  0  0  0  0
  151.6576  130.4470  154.3380 H   0  0  0  0  0  0  0  0  0  0  0  0
  149.4289  134.7087  153.7393 H   0  0  0  0  0  0  0  0  0  0  0  0
  146.3865  129.1548  152.5692 H   0  0  0  0  0  0  0  0  0  0  0  0
  145.8721  130.8528  150.7216 H   0  0  0  0  0  0  0  0  0  0  0  0
  146.8653  133.7121  151.1814 H   0  0  0  0  0  0  0  0  0  0  0  0
  146.8697  132.7776  149.6496 H   0  0  0  0  0  0  0  0  0  0  0  0
  143.3072  134.7808  150.8006 H   0  0  0  0  0  0  0  0  0  0  0  0
  144.9092  135.2342  151.3411 H   0  0  0  0  0  0  0  0  0  0  0  0
  145.1401  134.9569  148.7911 H   0  0  0  0  0  0  0  0  0  0  0  0
  144.1058  133.4150  148.3705 H   0  0  0  0  0  0  0  0  0  0  0  0
  144.7566  131.8457  148.7615 H   0  0  0  0  0  0  0  0  0  0  0  0
  142.2730  132.9508  149.4290 H   0  0  0  0  0  0  0  0  0  0  0  0
  143.8077  131.6936  151.6667 H   0  0  0  0  0  0  0  0  0  0  0  0
  144.6777  132.9365  152.6252 H   0  0  0  0  0  0  0  0  0  0  0  0
  1  2  1  0  0  0  0
  1 29  1  0  0  0  0
  1 30  1  0  0  0  0
  1 31  1  0  0  0  0
  2  3  1  0  0  0  0
  2  4  1  0  0  0  0
  2 32  1  0  0  0  0
  3 33  1  0  0  0  0
  3 34  1  0  0  0  0
  3 35  1  0  0  0  0
  4  5  1  0  0  0  0
  4 36  1  0  0  0  0
  4 37  1  0  0  0  0
  5 11  1  0  0  0  0
  5  6  1  0  0  0  0
  5 38  1  0  0  0  0
  6  7  2  0  0  0  0
  6  8  1  0  0  0  0
  8  9  1  0  0  0  0
  8 39  1  0  0  0  0
  9 10  1  0  0  0  0
  9 40  1  0  0  0  0
  9 41  1  0  0  0  0
 10 11  1  0  0  0  0
 10 42  1  0  0  0  0
 10 43  1  0  0  0  0
 11 12  1  0  0  0  0
 12 17  1  0  0  0  0
 12 13  2  0  0  0  0
 13 14  1  0  0  0  0
 14 15  2  0  0  0  0
 14 44  1  0  0  0  0
 15 16  1  0  0  0  0
 16 20  1  0  0  0  0
 16 17  2  0  0  0  0
 17 18  1  0  0  0  0
 18 19  2  0  0  0  0
 19 20  1  0  0  0  0
 19 45  1  0  0  0  0
 20 21  1  0  0  0  0
 21 28  1  0  0  0  0
 21 22  1  0  0  0  0
 21 46  1  0  0  0  0
 22 23  1  0  0  0  0
 22 47  1  0  0  0  0
 22 48  1  0  0  0  0
 23 24  1  0  0  0  0
 23 26  1  0  0  0  0
 23 28  1  0  0  0  0
 24 25  1  0  0  0  0
 24 49  1  0  0  0  0
 24 50  1  0  0  0  0
 25 51  1  0  0  0  0
 26 27  1  0  0  0  0
 26 52  1  0  0  0  0
 26 53  1  0  0  0  0
 27 54  1  0  0  0  0
 28 55  1  0  0  0  0
 28 56  1  0  0  0  0
M  END
> <s_m_source_file>
AV-unprocessed.smi

> <i_m_source_file_index>
78

> <i_lp_mmshare_version>
43012

> <i_f3d_flags>
0

> <s_epik_input>
W0NIM11bQ0hdKFtDSDNdKVtDSDJdW0NAQEhdMUMoPU8pW05IXVtDSDJdW0NIMl1OMWMobltjSF1uMiljKGMyMyluW2NIXW4zW0NIXShbQ0gyXTQpW0NIMl1DNChbQ0gyXVtPSF0pW0NIMl1bT0hd

> <s_epik_cmdline>
J2VwaWtfcHl0aG9uJywgJy1waCcsICc3LjAnLCAnLXRuJywgJzgnLCAnLW1hJywgJzIwMCcsICctbWV0YWxfYmluZGluZycsICctaW1hZScsICc8aW5maWxlLm1hZT4nLCAnLW9tYWUnLCAnPG91dGZpbGUubWFlPic=

> <r_lp_tautomer_probability>
1

> <r_epik_Ionization_Penalty>
0.000550083

> <r_epik_Ionization_Penalty_Charging>
0

> <r_epik_Ionization_Penalty_Neutral>
0.000550083

> <r_epik_State_Penalty>
0.000250415

> <r_epik_Charging_Adjusted_Penalty>
0.000250415

> <i_epik_Tot_Q>
0

> <i_epik_Tot_abs_Q>
0

> <r_epik_Metal_State_Penalty>
-0

> <b_epik_Metal_Only>
0

> <s_lp_Force_Field>
OPLS_2005

> <r_lp_Energy>
48.678

> <b_lp_Chiralities_Consistent>
1

> <s_lp_Variant>
AV-unprocessed.smi:78-2

> <Gold.Version>
5.8.1

> <Gold.Id.Protein>
6NUR|6NUR_protein|mol2

> <Gold.PLP.Fitness>
47.9831

> <Gold.PLP.PLP>
-39.8941

> <Gold.PLP.part.hbond>
-4.3202

> <Gold.PLP.part.metal>
0.0000

> <Gold.PLP.part.buried>
-5.3867

> <Gold.PLP.part.nonpolar>
-31.0988

> <Gold.PLP.part.repulsive>
0.3128

> <Gold.PLP.ligand.clash>
0.0000

> <Gold.PLP.ligand.torsion>
1.9296

> <Gold.PLP.Chemscore.Hbond>
2.8688

> <Gold.PLP.Chemscore.CHOScore>
0.8357

> <Gold.PLP.Chemscore.Metal>
0.0000

> <Gold.Chemscore.Hbonds>
donor molecule, donor type, donor heavy atom, donor atom, acceptor molecule, acceptor atom, score
      L1  H    25    51       P1  7921  0.99
      L1  H    27    54       P1 10186  1.00
      P1  H 10785 10796       L1    27  0.46
      L1  C    14    44       P1  7948  0.57

> <Gold.PLP.Chemscore.Internal.Correction>
0.8349

> <Gold.Rescore>
     Score         DG    S(hbond)    S(metal)    S(lipo)     H(rot)  DE(clash)    DE(int)     intcor
      4.98     -10.82       1.76        0.00      76.94       3.72       0.01       5.83       ----

> <Gold.Chemscore.Fitness>
4.9831

> <Gold.Chemscore.DG>
-10.8232

> <Gold.Chemscore.ZeroCoef>
-5.4800

> <Gold.Chemscore.Hbond>
1.7588

> <Gold.Chemscore.Metal>
0.0000

> <Gold.Chemscore.Lipo>
76.9410

> <Gold.Chemscore.Internal_Hbond>
0.0000

> <Gold.Chemscore.DEClash>
0.0120

> <Gold.Chemscore.DEInternal>
5.8282

> <Gold.Chemscore.Rot>
3.7239

> <Gold.Chemscore.Internal.Correction>
   9.000000E+99

> <Gold.Chemscore.Hbonds>
donor molecule, donor type, donor heavy atom, donor atom, acceptor molecule, acceptor atom, score
      L1  H    25    51       P1  7921  0.90
      L1  H    27    54       P1 10186  0.99
      P1  H 10785 10796       L1    27  0.07

> <Gold.Chemscore.Hbond.Weighted>
-5.8744

> <Gold.Chemscore.Metal.Weighted>
-0.0000

> <Gold.Chemscore.Lipo.Weighted>
-9.0021

> <Gold.Chemscore.Internal_Hbond.Weighted>
0.0000

> <Gold.Chemscore.DEClash.Weighted>
0.0120

> <Gold.Chemscore.DEInternal.Weighted>
5.8282

> <Gold.Chemscore.Rot.Weighted>
9.5332

> <Gold.Chemscore.Internal.Correction.Weighted>
   9.000000E+99

> <Gold.Protein.RotatedTorsions>
[ 6907 6896 6895 6894 ] final -160.07 input  -60.11 | X-H torsion
[ 7974 7965 7964 7962 ] final -128.71 input  175.53 | X-H torsion
[ 8008 7997 7996 7995 ] final  130.78 input   59.86 | X-H torsion
[ 10167 10162 10161 10158 ] final   12.15 input  -65.29 | X-H torsion
[ 10718 10713 10712 10709 ] final   52.31 input   66.30 | X-H torsion
[ 10763 10752 10751 10750 ] final  -91.95 input  -60.55 | X-H torsion
[ 11005 11000 10999 10996 ] final   46.69 input  -57.11 | X-H torsion

> <Gold.Protein.ActiveResidues>
 VAL166  LYS551  ARG553  GLY616  TRP617  ASP618  TYR619  PRO620  LYS621  CYS622 
 ASP623  PHE694  ASN695  SER759  ASP760  ASP761  ALA762  ILE779  LEU786  VAL792 
 PHE793  MET794  SER795  GLU796  ALA797  LYS798  CYS799  TRP800  GLU811  SER814 

> <Gold.Protein.RotatedAtoms>
  151.3434  133.3953  159.2673 H   0  0  0  0  0  0  0  0  0  0  0  0  # atno 6907 bound_to 6896
  150.9859  134.9205  159.7882 H   0  0  0  0  0  0  0  0  0  0  0  0  # atno 6908 bound_to 6896
  152.5232  134.3399  159.9265 H   0  0  0  0  0  0  0  0  0  0  0  0  # atno 6909 bound_to 6896
  144.9644  140.7480  143.4709 H   0  0  0  0  0  0  0  0  0  0  0  0  # atno 7974 bound_to 7965
  156.2960  140.2587  156.2819 H   0  0  0  0  0  0  0  0  0  0  0  0  # atno 8008 bound_to 7997
  154.9594  140.0393  157.2201 H   0  0  0  0  0  0  0  0  0  0  0  0  # atno 8009 bound_to 7997
  154.7961  140.2820  155.5960 H   0  0  0  0  0  0  0  0  0  0  0  0  # atno 8010 bound_to 7997
  140.6086  143.8455  150.7041 H   0  0  0  0  0  0  0  0  0  0  0  0  # atno 10167 bound_to 10162
  157.5063  130.8471  149.8379 H   0  0  0  0  0  0  0  0  0  0  0  0  # atno 10718 bound_to 10713
  154.6812  135.5249  153.8265 H   0  0  0  0  0  0  0  0  0  0  0  0  # atno 10763 bound_to 10752
  153.0566  135.6553  154.0573 H   0  0  0  0  0  0  0  0  0  0  0  0  # atno 10764 bound_to 10752
  154.0460  135.2973  155.3327 H   0  0  0  0  0  0  0  0  0  0  0  0  # atno 10765 bound_to 10752
  140.1346  134.4661  155.8495 H   0  0  0  0  0  0  0  0  0  0  0  0  # atno 11005 bound_to 11000
  145.2652  139.1976  143.4871 LP  0  0  0  0  0  0  0  0  0  0  0  0  # atno 17320 bound_to 7965
  146.3363  140.2589  142.8601 LP  0  0  0  0  0  0  0  0  0  0  0  0  # atno 17321 bound_to 7965
  140.2018  143.3953  152.1786 LP  0  0  0  0  0  0  0  0  0  0  0  0  # atno 17342 bound_to 10162
  139.5344  144.7194  151.4944 LP  0  0  0  0  0  0  0  0  0  0  0  0  # atno 17343 bound_to 10162
  156.0260  130.3779  150.1821 LP  0  0  0  0  0  0  0  0  0  0  0  0  # atno 17370 bound_to 10713
  157.0011  130.9922  151.3390 LP  0  0  0  0  0  0  0  0  0  0  0  0  # atno 17371 bound_to 10713
  141.2176  133.6809  156.7134 LP  0  0  0  0  0  0  0  0  0  0  0  0  # atno 17394 bound_to 11000
  140.2798  134.8325  157.3923 LP  0  0  0  0  0  0  0  0  0  0  0  0  # atno 17395 bound_to 11000

$$$$
