AV-unprocessed.smi:2784|AV-procd|sdf|10739|dock6
  -GOLD-   2272015173D 1   1.00000     0.00000
 Structure written by MMmdl.
 31 32  0  0  0  0  0  0  0  0  1 V2000
  153.9784  141.1634  160.4436 C   0  0  0  0  0  0  0  0  0  0  0  0
  153.6366  142.5191  160.2055 O   0  0  0  0  0  0  0  0  0  0  0  0
  152.2451  142.7940  160.3451 C   0  0  1  0  0  0  0  0  0  0  0  0
  152.1236  144.2887  160.6495 C   0  0  0  0  0  0  0  0  0  0  0  0
  152.1779  144.9591  159.2801 C   0  0  0  0  0  0  0  0  0  0  0  0
  151.4122  144.0082  158.3578 C   0  0  0  0  0  0  0  0  0  0  0  0
  151.4932  142.6110  159.0045 C   0  0  1  0  0  0  0  0  0  0  0  0
  152.1409  141.6568  158.1059 N   0  0  0  0  0  0  0  0  0  0  0  0
  151.5897  140.5264  157.6397 C   0  0  0  0  0  0  0  0  0  0  0  0
  150.4430  140.1917  157.9532 O   0  0  0  0  0  0  0  0  0  0  0  0
  152.4906  139.8647  156.8180 N   0  0  0  0  0  0  0  0  0  0  0  0
  152.0520  139.0970  155.8687 C   0  0  0  0  0  0  0  0  0  0  0  0
  152.8002  138.3650  154.9604 N   0  0  0  0  0  0  0  0  0  0  0  0
  151.9363  137.7004  154.1345 C   0  0  0  0  0  0  0  0  0  0  0  0
  150.6952  137.9992  154.5071 C   0  0  0  0  0  0  0  0  0  0  0  0
  150.7315  138.8530  155.5679 O   0  0  0  0  0  0  0  0  0  0  0  0
  155.0489  141.0242  160.2935 H   0  0  0  0  0  0  0  0  0  0  0  0
  153.4533  140.4930  159.7629 H   0  0  0  0  0  0  0  0  0  0  0  0
  153.7418  140.8752  161.4686 H   0  0  0  0  0  0  0  0  0  0  0  0
  151.7935  142.2018  161.1436 H   0  0  0  0  0  0  0  0  0  0  0  0
  151.1571  144.4903  161.1137 H   0  0  0  0  0  0  0  0  0  0  0  0
  152.8979  144.6485  161.3280 H   0  0  0  0  0  0  0  0  0  0  0  0
  151.7580  145.9655  159.2873 H   0  0  0  0  0  0  0  0  0  0  0  0
  153.2152  145.0342  158.9508 H   0  0  0  0  0  0  0  0  0  0  0  0
  150.3679  144.3177  158.2961 H   0  0  0  0  0  0  0  0  0  0  0  0
  151.8126  144.0353  157.3433 H   0  0  0  0  0  0  0  0  0  0  0  0
  150.4718  142.2865  159.2123 H   0  0  0  0  0  0  0  0  0  0  0  0
  153.0861  141.8713  157.8229 H   0  0  0  0  0  0  0  0  0  0  0  0
  153.8051  138.3034  154.8842 H   0  0  0  0  0  0  0  0  0  0  0  0
  152.3134  137.0661  153.3458 H   0  0  0  0  0  0  0  0  0  0  0  0
  149.7256  137.7007  154.1367 H   0  0  0  0  0  0  0  0  0  0  0  0
  1  2  1  0  0  0  0
  1 17  1  0  0  0  0
  1 18  1  0  0  0  0
  1 19  1  0  0  0  0
  2  3  1  0  0  0  0
  3  7  1  0  0  0  0
  3  4  1  0  0  0  0
  3 20  1  0  0  0  0
  4  5  1  0  0  0  0
  4 21  1  0  0  0  0
  4 22  1  0  0  0  0
  5  6  1  0  0  0  0
  5 23  1  0  0  0  0
  5 24  1  0  0  0  0
  6  7  1  0  0  0  0
  6 25  1  0  0  0  0
  6 26  1  0  0  0  0
  7  8  1  0  0  0  0
  7 27  1  0  0  0  0
  8 28  1  0  0  0  0
  8  9  1  0  0  0  0
  9 11  1  0  0  0  0
  9 10  2  0  0  0  0
 11 12  2  0  0  0  0
 12 16  1  0  0  0  0
 12 13  1  0  0  0  0
 13 29  1  0  0  0  0
 13 14  1  0  0  0  0
 14 30  1  0  0  0  0
 14 15  2  0  0  0  0
 15 31  1  0  0  0  0
 15 16  1  0  0  0  0
M  END
> <s_m_source_file>
AV-unprocessed.smi

> <i_m_source_file_index>
2784

> <i_lp_mmshare_version>
43012

> <i_f3d_flags>
0

> <s_epik_input>
W0NIM11PW0NAQEhdMVtDSDJdW0NIMl1bQ0gyXVtDQEhdMVtOSF1DKD1PKVtOSF1jMm5bY0hdW2NIXW8y

> <s_epik_cmdline>
J2VwaWtfcHl0aG9uJywgJy1waCcsICc3LjAnLCAnLXRuJywgJzgnLCAnLW1hJywgJzIwMCcsICctbWV0YWxfYmluZGluZycsICctaW1hZScsICc8aW5maWxlLm1hZT4nLCAnLW9tYWUnLCAnPG91dGZpbGUubWFlPic=

> <r_lp_tautomer_probability>
0.107061

> <r_epik_Ionization_Penalty>
1.29244

> <r_epik_Ionization_Penalty_Charging>
1.29208

> <r_epik_Ionization_Penalty_Neutral>
0.000359742

> <r_epik_State_Penalty>
2.59896

> <r_epik_Charging_Adjusted_Penalty>
3.89105

> <i_epik_Tot_Q>
0

> <i_epik_Tot_abs_Q>
0

> <r_epik_Metal_State_Penalty>
3.62496

> <b_epik_Metal_Only>
0

> <s_lp_Force_Field>
OPLS_2005

> <r_lp_Energy>
45.4074

> <b_lp_Chiralities_Consistent>
1

> <s_lp_Variant>
AV-unprocessed.smi:2784-14

> <Gold.Version>
5.8.1

> <Gold.Id.Protein>
6NUR|6NUR_protein|mol2

> <Gold.PLP.Fitness>
39.4202

> <Gold.PLP.PLP>
-33.1166

> <Gold.PLP.part.hbond>
-1.0000

> <Gold.PLP.part.metal>
0.0000

> <Gold.PLP.part.buried>
-4.0352

> <Gold.PLP.part.nonpolar>
-27.9501

> <Gold.PLP.part.repulsive>
0.3298

> <Gold.PLP.ligand.clash>
0.0000

> <Gold.PLP.ligand.torsion>
0.4764

> <Gold.PLP.Chemscore.Hbond>
1.0000

> <Gold.PLP.Chemscore.CHOScore>
1.4148

> <Gold.PLP.Chemscore.Metal>
0.0000

> <Gold.Chemscore.Hbonds>
donor molecule, donor type, donor heavy atom, donor atom, acceptor molecule, acceptor atom, score
      P1  H  7997  8009       L1    11  1.00
      L1  C    14    30       P1  7949  1.00
      L1  C    15    31       P1  7948  0.36

> <Gold.PLP.Chemscore.Internal.Correction>
0.0120

> <Gold.Rescore>
     Score         DG    S(hbond)    S(metal)    S(lipo)     H(rot)  DE(clash)    DE(int)     intcor
     12.80     -14.88       0.91        0.00      83.39       1.32       0.02       2.06       ----

> <Gold.Chemscore.Fitness>
12.8020

> <Gold.Chemscore.DG>
-14.8779

> <Gold.Chemscore.ZeroCoef>
-5.4800

> <Gold.Chemscore.Hbond>
0.9071

> <Gold.Chemscore.Metal>
0.0000

> <Gold.Chemscore.Lipo>
83.3891

> <Gold.Chemscore.Internal_Hbond>
0.0000

> <Gold.Chemscore.DEClash>
0.0163

> <Gold.Chemscore.DEInternal>
2.0596

> <Gold.Chemscore.Rot>
1.3235

> <Gold.Chemscore.Internal.Correction>
   9.000000E+99

> <Gold.Chemscore.Hbonds>
donor molecule, donor type, donor heavy atom, donor atom, acceptor molecule, acceptor atom, score
      P1  H  7997  8009       L1    11  0.74

> <Gold.Chemscore.Hbond.Weighted>
-3.0296

> <Gold.Chemscore.Metal.Weighted>
-0.0000

> <Gold.Chemscore.Lipo.Weighted>
-9.7565

> <Gold.Chemscore.Internal_Hbond.Weighted>
0.0000

> <Gold.Chemscore.DEClash.Weighted>
0.0163

> <Gold.Chemscore.DEInternal.Weighted>
2.0596

> <Gold.Chemscore.Rot.Weighted>
3.3882

> <Gold.Chemscore.Internal.Correction.Weighted>
   9.000000E+99

> <Gold.Protein.RotatedTorsions>
[ 6907 6896 6895 6894 ] final  -44.59 input  -60.11 | X-H torsion
[ 7974 7965 7964 7962 ] final  130.26 input  175.53 | X-H torsion
[ 8008 7997 7996 7995 ] final  179.49 input   59.86 | X-H torsion
[ 10167 10162 10161 10158 ] final  149.20 input  -65.29 | X-H torsion
[ 10718 10713 10712 10709 ] final  -94.60 input   66.30 | X-H torsion
[ 10763 10752 10751 10750 ] final  100.28 input  -60.55 | X-H torsion
[ 11005 11000 10999 10996 ] final  -42.93 input  -57.11 | X-H torsion

> <Gold.Protein.ActiveResidues>
 VAL166  LYS551  ARG553  GLY616  TRP617  ASP618  TYR619  PRO620  LYS621  CYS622 
 ASP623  PHE694  ASN695  SER759  ASP760  ASP761  ALA762  ILE779  LEU786  VAL792 
 PHE793  MET794  SER795  GLU796  ALA797  LYS798  CYS799  TRP800  GLU811  SER814 

> <Gold.Protein.RotatedAtoms>
  150.9312  134.8727  159.7552 H   0  0  0  0  0  0  0  0  0  0  0  0  # atno 6907 bound_to 6896
  152.5038  134.4076  159.9448 H   0  0  0  0  0  0  0  0  0  0  0  0  # atno 6908 bound_to 6896
  151.4103  133.3689  159.2778 H   0  0  0  0  0  0  0  0  0  0  0  0  # atno 6909 bound_to 6896
  145.0199  139.4142  143.5203 H   0  0  0  0  0  0  0  0  0  0  0  0  # atno 7974 bound_to 7965
  156.0428  140.1307  157.0137 H   0  0  0  0  0  0  0  0  0  0  0  0  # atno 8008 bound_to 7997
  154.4398  140.1027  156.6332 H   0  0  0  0  0  0  0  0  0  0  0  0  # atno 8009 bound_to 7997
  155.5641  140.3465  155.4501 H   0  0  0  0  0  0  0  0  0  0  0  0  # atno 8010 bound_to 7997
  139.4864  144.5620  151.7214 H   0  0  0  0  0  0  0  0  0  0  0  0  # atno 10167 bound_to 10162
  156.0029  130.5074  150.5950 H   0  0  0  0  0  0  0  0  0  0  0  0  # atno 10718 bound_to 10713
  153.3120  135.4084  155.1344 H   0  0  0  0  0  0  0  0  0  0  0  0  # atno 10763 bound_to 10752
  154.8578  135.3567  154.5711 H   0  0  0  0  0  0  0  0  0  0  0  0  # atno 10764 bound_to 10752
  153.6140  135.7067  153.5394 H   0  0  0  0  0  0  0  0  0  0  0  0  # atno 10765 bound_to 10752
  141.0349  133.6804  156.2663 H   0  0  0  0  0  0  0  0  0  0  0  0  # atno 11005 bound_to 11000
  146.3483  139.9690  142.8708 LP  0  0  0  0  0  0  0  0  0  0  0  0  # atno 17320 bound_to 7965
  145.1910  140.9811  143.4211 LP  0  0  0  0  0  0  0  0  0  0  0  0  # atno 17321 bound_to 7965
  140.5191  144.0906  150.6017 LP  0  0  0  0  0  0  0  0  0  0  0  0  # atno 17342 bound_to 10162
  140.3858  143.2778  152.0117 LP  0  0  0  0  0  0  0  0  0  0  0  0  # atno 17343 bound_to 10162
  157.3809  131.0780  151.1478 LP  0  0  0  0  0  0  0  0  0  0  0  0  # atno 17370 bound_to 10713
  157.2200  130.6477  149.5807 LP  0  0  0  0  0  0  0  0  0  0  0  0  # atno 17371 bound_to 10713
  140.6339  134.5235  157.5562 LP  0  0  0  0  0  0  0  0  0  0  0  0  # atno 17394 bound_to 11000
  139.9234  134.8104  156.1142 LP  0  0  0  0  0  0  0  0  0  0  0  0  # atno 17395 bound_to 11000

$$$$
