AV-unprocessed.smi:3289|AV-procd|sdf|12609|dock4
  -GOLD-   2272018533D 1   1.00000     0.00000
 Structure written by MMmdl.
 39 40  0  0  0  0  0  0  0  0  1 V2000
  146.5262  139.1777  157.7323 C   0  0  0  0  0  0  0  0  0  0  0  0
  147.2965  140.1346  156.8114 C   0  0  0  0  0  0  0  0  0  0  0  0
  146.9503  141.6049  157.0913 C   0  0  0  0  0  0  0  0  0  0  0  0
  147.0967  139.7849  155.3611 C   0  0  0  0  0  0  0  0  0  0  0  0
  146.3542  138.7566  154.9570 N   0  0  0  0  0  0  0  0  0  0  0  0
  146.4286  138.7784  153.5701 C   0  0  0  0  0  0  0  0  0  0  0  0
  147.2278  139.8226  153.1758 C   0  0  0  0  0  0  0  0  0  0  0  0
  147.6601  140.4593  154.3333 N   0  0  0  0  0  0  0  0  0  0  0  0
  148.5448  141.6173  154.3667 C   0  0  0  0  0  0  0  0  0  0  0  0
  149.8023  141.3816  155.2130 C   0  0  0  0  0  0  0  0  0  0  0  0
  150.5457  140.4248  154.9912 O   0  0  0  0  0  0  0  0  0  0  0  0
  150.0304  142.2777  156.1851 N   0  0  0  0  0  0  0  0  0  0  0  0
  151.1553  142.2440  157.1130 C   0  0  0  0  0  0  0  0  0  0  0  0
  151.0615  143.3696  158.1568 C   0  0  2  0  0  0  0  0  0  0  0  0
  152.1855  144.3991  158.0472 C   0  0  0  0  0  0  0  0  0  0  0  0
  152.2288  144.9566  159.4513 C   0  0  0  0  0  0  0  0  0  0  0  0
  151.9799  143.7051  160.2868 C   0  0  0  0  0  0  0  0  0  0  0  0
  151.1681  142.8536  159.4825 O   0  0  0  0  0  0  0  0  0  0  0  0
  146.8304  138.1442  157.5643 H   0  0  0  0  0  0  0  0  0  0  0  0
  145.4510  139.2410  157.5612 H   0  0  0  0  0  0  0  0  0  0  0  0
  146.7098  139.4092  158.7818 H   0  0  0  0  0  0  0  0  0  0  0  0
  148.3509  140.0231  157.0570 H   0  0  0  0  0  0  0  0  0  0  0  0
  147.5488  142.2725  156.4707 H   0  0  0  0  0  0  0  0  0  0  0  0
  147.1434  141.8625  158.1329 H   0  0  0  0  0  0  0  0  0  0  0  0
  145.8996  141.8134  156.8872 H   0  0  0  0  0  0  0  0  0  0  0  0
  145.9071  138.0478  152.9695 H   0  0  0  0  0  0  0  0  0  0  0  0
  147.5208  140.1558  152.1912 H   0  0  0  0  0  0  0  0  0  0  0  0
  148.8243  141.8935  153.3501 H   0  0  0  0  0  0  0  0  0  0  0  0
  147.9871  142.4627  154.7726 H   0  0  0  0  0  0  0  0  0  0  0  0
  149.3708  143.0339  156.2966 H   0  0  0  0  0  0  0  0  0  0  0  0
  151.2307  141.2705  157.6005 H   0  0  0  0  0  0  0  0  0  0  0  0
  152.0672  142.3656  156.5278 H   0  0  0  0  0  0  0  0  0  0  0  0
  150.1023  143.8831  158.0733 H   0  0  0  0  0  0  0  0  0  0  0  0
  153.1331  143.9123  157.8117 H   0  0  0  0  0  0  0  0  0  0  0  0
  151.9940  145.1596  157.2895 H   0  0  0  0  0  0  0  0  0  0  0  0
  153.1712  145.4494  159.6912 H   0  0  0  0  0  0  0  0  0  0  0  0
  151.4195  145.6737  159.5952 H   0  0  0  0  0  0  0  0  0  0  0  0
  152.9193  143.1911  160.4938 H   0  0  0  0  0  0  0  0  0  0  0  0
  151.4997  143.9299  161.2394 H   0  0  0  0  0  0  0  0  0  0  0  0
  1  2  1  0  0  0  0
  1 19  1  0  0  0  0
  1 20  1  0  0  0  0
  1 21  1  0  0  0  0
  2  3  1  0  0  0  0
  2  4  1  0  0  0  0
  2 22  1  0  0  0  0
  3 23  1  0  0  0  0
  3 24  1  0  0  0  0
  3 25  1  0  0  0  0
  4  8  1  0  0  0  0
  4  5  2  0  0  0  0
  5  6  1  0  0  0  0
  6  7  2  0  0  0  0
  6 26  1  0  0  0  0
  7  8  1  0  0  0  0
  7 27  1  0  0  0  0
  8  9  1  0  0  0  0
  9 10  1  0  0  0  0
  9 28  1  0  0  0  0
  9 29  1  0  0  0  0
 10 11  2  0  0  0  0
 10 12  1  0  0  0  0
 12 13  1  0  0  0  0
 12 30  1  0  0  0  0
 13 14  1  0  0  0  0
 13 31  1  0  0  0  0
 13 32  1  0  0  0  0
 14 18  1  0  0  0  0
 14 15  1  0  0  0  0
 14 33  1  0  0  0  0
 15 16  1  0  0  0  0
 15 34  1  0  0  0  0
 15 35  1  0  0  0  0
 16 17  1  0  0  0  0
 16 36  1  0  0  0  0
 16 37  1  0  0  0  0
 17 18  1  0  0  0  0
 17 38  1  0  0  0  0
 17 39  1  0  0  0  0
M  END
> <s_m_source_file>
AV-unprocessed.smi

> <i_m_source_file_index>
3289

> <i_lp_mmshare_version>
43012

> <i_f3d_flags>
0

> <s_epik_input>
W0NIM11bQ0hdKFtDSDNdKWMxbltjSF1bY0hdbjFbQ0gyXUMoPU8pW05IXVtDSDJdW0NAQEhdMltDSDJdW0NIMl1bQ0gyXU8y

> <s_epik_cmdline>
J2VwaWtfcHl0aG9uJywgJy1waCcsICc3LjAnLCAnLXRuJywgJzgnLCAnLW1hJywgJzIwMCcsICctbWV0YWxfYmluZGluZycsICctaW1hZScsICc8aW5maWxlLm1hZT4nLCAnLW9tYWUnLCAnPG91dGZpbGUubWFlPic=

> <r_lp_tautomer_probability>
1

> <r_epik_Ionization_Penalty>
0.587725

> <r_epik_Ionization_Penalty_Charging>
0.587725

> <r_epik_Ionization_Penalty_Neutral>
1.43432e-07

> <r_epik_State_Penalty>
0.601029

> <r_epik_Charging_Adjusted_Penalty>
1.18875

> <i_epik_Tot_Q>
0

> <i_epik_Tot_abs_Q>
0

> <r_epik_Metal_State_Penalty>
0.297663

> <b_epik_Metal_Only>
0

> <s_lp_Force_Field>
OPLS_2005

> <r_lp_Energy>
18.7222

> <b_lp_Chiralities_Consistent>
1

> <s_lp_Variant>
AV-unprocessed.smi:3289-3

> <Gold.Version>
5.8.1

> <Gold.Id.Protein>
6NUR|6NUR_protein|mol2

> <Gold.PLP.Fitness>
41.3860

> <Gold.PLP.PLP>
-34.1891

> <Gold.PLP.part.hbond>
-2.0538

> <Gold.PLP.part.metal>
0.0000

> <Gold.PLP.part.buried>
-3.7608

> <Gold.PLP.part.nonpolar>
-27.9293

> <Gold.PLP.part.repulsive>
0.2486

> <Gold.PLP.ligand.clash>
0.0000

> <Gold.PLP.ligand.torsion>
0.8216

> <Gold.PLP.Chemscore.Hbond>
1.9280

> <Gold.PLP.Chemscore.CHOScore>
1.0000

> <Gold.PLP.Chemscore.Metal>
0.0000

> <Gold.Chemscore.Hbonds>
donor molecule, donor type, donor heavy atom, donor atom, acceptor molecule, acceptor atom, score
      L1  H    12    30       P1  8028  0.88
      P1  H  7989  7998       L1    11  1.00
      L1  C     7    27       P1  7957  1.00

> <Gold.PLP.Chemscore.Internal.Correction>
0.0561

> <Gold.Rescore>
     Score         DG    S(hbond)    S(metal)    S(lipo)     H(rot)  DE(clash)    DE(int)     intcor
     15.56     -16.28       1.66        0.00      82.56       1.72       0.05       0.68       ----

> <Gold.Chemscore.Fitness>
15.5582

> <Gold.Chemscore.DG>
-16.2810

> <Gold.Chemscore.ZeroCoef>
-5.4800

> <Gold.Chemscore.Hbond>
1.6580

> <Gold.Chemscore.Metal>
0.0000

> <Gold.Chemscore.Lipo>
82.5644

> <Gold.Chemscore.Internal_Hbond>
0.0000

> <Gold.Chemscore.DEClash>
0.0451

> <Gold.Chemscore.DEInternal>
0.6776

> <Gold.Chemscore.Rot>
1.7175

> <Gold.Chemscore.Internal.Correction>
   9.000000E+99

> <Gold.Chemscore.Hbonds>
donor molecule, donor type, donor heavy atom, donor atom, acceptor molecule, acceptor atom, score
      L1  H    12    30       P1  8028  0.86
      P1  H  7989  7998       L1    11  0.58

> <Gold.Chemscore.Hbond.Weighted>
-5.5377

> <Gold.Chemscore.Metal.Weighted>
-0.0000

> <Gold.Chemscore.Lipo.Weighted>
-9.6600

> <Gold.Chemscore.Internal_Hbond.Weighted>
0.0000

> <Gold.Chemscore.DEClash.Weighted>
0.0451

> <Gold.Chemscore.DEInternal.Weighted>
0.6776

> <Gold.Chemscore.Rot.Weighted>
4.3967

> <Gold.Chemscore.Internal.Correction.Weighted>
   9.000000E+99

> <Gold.Protein.RotatedTorsions>
[ 6907 6896 6895 6894 ] final  146.27 input  -60.11 | X-H torsion
[ 7974 7965 7964 7962 ] final  114.99 input  175.53 | X-H torsion
[ 8008 7997 7996 7995 ] final  120.13 input   59.86 | X-H torsion
[ 10167 10162 10161 10158 ] final   -1.88 input  -65.29 | X-H torsion
[ 10718 10713 10712 10709 ] final   -0.99 input   66.30 | X-H torsion
[ 10763 10752 10751 10750 ] final   98.55 input  -60.55 | X-H torsion
[ 11005 11000 10999 10996 ] final  -49.42 input  -57.11 | X-H torsion

> <Gold.Protein.ActiveResidues>
 VAL166  LYS551  ARG553  GLY616  TRP617  ASP618  TYR619  PRO620  LYS621  CYS622 
 ASP623  PHE694  ASN695  SER759  ASP760  ASP761  ALA762  ILE779  LEU786  VAL792 
 PHE793  MET794  SER795  GLU796  ALA797  LYS798  CYS799  TRP800  GLU811  SER814 

> <Gold.Protein.RotatedAtoms>
  152.1701  133.4638  159.4904 H   0  0  0  0  0  0  0  0  0  0  0  0  # atno 6907 bound_to 6896
  150.6918  134.1963  159.4314 H   0  0  0  0  0  0  0  0  0  0  0  0  # atno 6908 bound_to 6896
  151.9870  134.9999  160.0610 H   0  0  0  0  0  0  0  0  0  0  0  0  # atno 6909 bound_to 6896
  145.1976  139.2968  143.4335 H   0  0  0  0  0  0  0  0  0  0  0  0  # atno 7974 bound_to 7965
  156.2628  140.2837  156.1101 H   0  0  0  0  0  0  0  0  0  0  0  0  # atno 8008 bound_to 7997
  155.1266  140.0393  157.2781 H   0  0  0  0  0  0  0  0  0  0  0  0  # atno 8009 bound_to 7997
  154.6630  140.2571  155.7094 H   0  0  0  0  0  0  0  0  0  0  0  0  # atno 8010 bound_to 7997
  140.6828  143.6723  150.8175 H   0  0  0  0  0  0  0  0  0  0  0  0  # atno 10167 bound_to 10162
  156.8123  130.5428  149.5707 H   0  0  0  0  0  0  0  0  0  0  0  0  # atno 10718 bound_to 10713
  153.2904  135.4144  155.1162 H   0  0  0  0  0  0  0  0  0  0  0  0  # atno 10763 bound_to 10752
  154.8518  135.3517  154.5988 H   0  0  0  0  0  0  0  0  0  0  0  0  # atno 10764 bound_to 10752
  153.6411  135.7057  153.5299 H   0  0  0  0  0  0  0  0  0  0  0  0  # atno 10765 bound_to 10752
  141.0758  133.6666  156.3583 H   0  0  0  0  0  0  0  0  0  0  0  0  # atno 11005 bound_to 11000
  146.3424  140.2210  142.8591 LP  0  0  0  0  0  0  0  0  0  0  0  0  # atno 17320 bound_to 7965
  144.9979  140.8606  143.5299 LP  0  0  0  0  0  0  0  0  0  0  0  0  # atno 17321 bound_to 7965
  140.0426  143.5331  152.2711 LP  0  0  0  0  0  0  0  0  0  0  0  0  # atno 17342 bound_to 10162
  139.6163  144.7620  151.2838 LP  0  0  0  0  0  0  0  0  0  0  0  0  # atno 17343 bound_to 10162
  156.1037  130.5988  150.9936 LP  0  0  0  0  0  0  0  0  0  0  0  0  # atno 17370 bound_to 10713
  157.6499  131.0898  150.8072 LP  0  0  0  0  0  0  0  0  0  0  0  0  # atno 17371 bound_to 10713
  140.5576  134.5966  157.5425 LP  0  0  0  0  0  0  0  0  0  0  0  0  # atno 17394 bound_to 11000
  139.9570  134.7517  156.0319 LP  0  0  0  0  0  0  0  0  0  0  0  0  # atno 17395 bound_to 11000

$$$$
