AV-unprocessed.smi:8|AV-procd|sdf|47|dock3
  -GOLD-   2262015163D 1   1.00000     0.00000
 Structure written by MMmdl.
 33 34  0  0  0  0  0  0  0  0  2 V2000
  146.9053  139.1230  152.1876 C   0  0  0  0  0  0  0  0  0  0  0  0
  147.1488  139.8604  153.5118 C   0  0  0  0  0  0  0  0  0  0  0  0
  148.5193  139.6529  153.9975 N   0  0  0  0  0  0  0  0  0  0  0  0
  148.9623  138.3280  154.1403 C   0  0  0  0  0  0  0  0  0  0  0  0
  150.1967  138.0204  154.5882 C   0  0  0  0  0  0  0  0  0  0  0  0
  150.6672  136.5797  154.7385 C   0  0  0  0  0  0  0  0  0  0  0  0
  149.6531  135.5969  154.3720 N   0  0  0  0  0  0  0  0  0  0  0  0
  149.9084  134.2430  154.6381 C   0  0  0  0  0  0  0  0  0  0  0  0
  150.7940  133.9230  155.6121 N   0  0  0  0  0  0  0  0  0  0  0  0
  151.0167  132.6263  155.8357 C   0  0  0  0  0  0  0  0  0  0  0  0
  150.4514  131.5980  155.2004 N   0  0  0  0  0  0  0  0  0  0  0  0
  149.5649  131.9003  154.2284 C   0  0  0  0  0  0  0  0  0  0  0  0
  149.2463  133.2348  153.8977 C   0  0  0  0  0  0  0  0  0  0  0  0
  148.2552  133.5539  152.7937 C   0  0  0  0  0  0  0  0  0  0  0  0
  151.0935  139.1368  154.9075 C   0  0  0  0  0  0  0  0  0  0  0  0
  152.2340  138.9099  155.3110 O   0  0  0  0  0  0  0  0  0  0  0  0
  150.6190  140.4058  154.7416 N   0  5  0  0  0  0  0  0  0  0  0  0
  149.3579  140.6886  154.2936 C   0  0  0  0  0  0  0  0  0  0  0  0
  148.9551  141.8429  154.1467 O   0  0  0  0  0  0  0  0  0  0  0  0
  145.8820  139.2735  151.8435 H   0  0  0  0  0  0  0  0  0  0  0  0
  147.0651  138.0500  152.2981 H   0  0  0  0  0  0  0  0  0  0  0  0
  147.5744  139.4827  151.4054 H   0  0  0  0  0  0  0  0  0  0  0  0
  146.9391  140.9242  153.3892 H   0  0  0  0  0  0  0  0  0  0  0  0
  146.4317  139.5145  154.2578 H   0  0  0  0  0  0  0  0  0  0  0  0
  148.2355  137.5760  153.8696 H   0  0  0  0  0  0  0  0  0  0  0  0
  151.5753  136.4190  154.1563 H   0  0  0  0  0  0  0  0  0  0  0  0
  150.9443  136.4129  155.7796 H   0  0  0  0  0  0  0  0  0  0  0  0
  149.1690  135.7842  153.5055 H   0  0  0  0  0  0  0  0  0  0  0  0
  151.7263  132.3843  156.6130 H   0  0  0  0  0  0  0  0  0  0  0  0
  149.1092  131.0693  153.7105 H   0  0  0  0  0  0  0  0  0  0  0  0
  147.8812  132.6436  152.3245 H   0  0  0  0  0  0  0  0  0  0  0  0
  148.7287  134.1630  152.0227 H   0  0  0  0  0  0  0  0  0  0  0  0
  147.4038  134.1043  153.1950 H   0  0  0  0  0  0  0  0  0  0  0  0
  1  2  1  0  0  0  0
  1 20  1  0  0  0  0
  1 21  1  0  0  0  0
  1 22  1  0  0  0  0
  2  3  1  0  0  0  0
  2 23  1  0  0  0  0
  2 24  1  0  0  0  0
  3 18  1  0  0  0  0
  3  4  1  0  0  0  0
  4  5  2  0  0  0  0
  4 25  1  0  0  0  0
  5  6  1  0  0  0  0
  5 15  1  0  0  0  0
  6  7  1  0  0  0  0
  6 26  1  0  0  0  0
  6 27  1  0  0  0  0
  7  8  1  0  0  0  0
  7 28  1  0  0  0  0
  8 13  1  0  0  0  0
  8  9  2  0  0  0  0
  9 10  1  0  0  0  0
 10 11  2  0  0  0  0
 10 29  1  0  0  0  0
 11 12  1  0  0  0  0
 12 13  2  0  0  0  0
 12 30  1  0  0  0  0
 13 14  1  0  0  0  0
 14 31  1  0  0  0  0
 14 32  1  0  0  0  0
 14 33  1  0  0  0  0
 15 16  2  0  0  0  0
 15 17  1  0  0  0  0
 17 18  1  0  0  0  0
 18 19  2  0  0  0  0
M  CHG  1  17  -1
M  END
> <s_m_source_file>
AV-unprocessed.smi

> <i_m_source_file_index>
8

> <i_lp_mmshare_version>
43012

> <i_f3d_flags>
0

> <s_epik_input>
W0NIM11bQ0gyXW4xW2NIXWMoYyg9TylbbkhdYzE9TylbQ0gyXVtOSF1jMm5bY0hdbltjSF1jMltDSDNd

> <s_epik_cmdline>
J2VwaWtfcHl0aG9uJywgJy1waCcsICc3LjAnLCAnLXRuJywgJzgnLCAnLW1hJywgJzIwMCcsICctbWV0YWxfYmluZGluZycsICctaW1hZScsICc8aW5maWxlLm1hZT4nLCAnLW9tYWUnLCAnPG91dGZpbGUubWFlPic=

> <r_lp_tautomer_probability>
0.999537

> <r_epik_Ionization_Penalty>
4.00162

> <r_epik_Ionization_Penalty_Charging>
4.85554e-07

> <r_epik_Ionization_Penalty_Neutral>
4.00162

> <r_epik_State_Penalty>
4.01059

> <r_epik_Charging_Adjusted_Penalty>
4.01059

> <i_epik_Tot_Q>
-1

> <i_epik_Tot_abs_Q>
1

> <r_epik_Metal_State_Penalty>
0.642438

> <b_epik_Metal_Only>
1

> <s_lp_Force_Field>
OPLS_2005

> <r_lp_Energy>
12.8082

> <b_lp_Chiralities_Consistent>
1

> <s_lp_Variant>
AV-unprocessed.smi:8-3

> <Gold.Version>
5.8.1

> <Gold.Id.Protein>
6NUR|6NUR_protein|mol2

> <Gold.PLP.Fitness>
41.8652

> <Gold.PLP.PLP>
-33.7998

> <Gold.PLP.part.hbond>
-3.0748

> <Gold.PLP.part.metal>
0.0000

> <Gold.PLP.part.buried>
-0.2430

> <Gold.PLP.part.nonpolar>
-29.7276

> <Gold.PLP.part.repulsive>
0.2879

> <Gold.PLP.ligand.clash>
0.0000

> <Gold.PLP.ligand.torsion>
0.3820

> <Gold.PLP.Chemscore.Hbond>
2.5120

> <Gold.PLP.Chemscore.CHOScore>
0.4272

> <Gold.PLP.Chemscore.Metal>
0.0000

> <Gold.Chemscore.Hbonds>
donor molecule, donor type, donor heavy atom, donor atom, acceptor molecule, acceptor atom, score
      L1  H     7    28       P1  7948  1.00
      P1  H  7989  7998       L1    17  0.95
      P1  H  8011  8017       L1    19  0.43
      L1  C     4    25       P1  7948  0.63

> <Gold.PLP.Chemscore.Internal.Correction>
0.0120

> <Gold.Rescore>
     Score         DG    S(hbond)    S(metal)    S(lipo)     H(rot)  DE(clash)    DE(int)     intcor
      9.54     -10.19       1.30        0.00      48.87       2.09       0.23       0.42       ----

> <Gold.Chemscore.Fitness>
9.5407

> <Gold.Chemscore.DG>
-10.1889

> <Gold.Chemscore.ZeroCoef>
-5.4800

> <Gold.Chemscore.Hbond>
1.2979

> <Gold.Chemscore.Metal>
0.0000

> <Gold.Chemscore.Lipo>
48.8728

> <Gold.Chemscore.Internal_Hbond>
0.0000

> <Gold.Chemscore.DEClash>
0.2316

> <Gold.Chemscore.DEInternal>
0.4167

> <Gold.Chemscore.Rot>
2.0876

> <Gold.Chemscore.Internal.Correction>
   9.000000E+99

> <Gold.Chemscore.Hbonds>
donor molecule, donor type, donor heavy atom, donor atom, acceptor molecule, acceptor atom, score
      L1  H     7    28       P1  7948  0.74
      P1  H  7989  7998       L1    17  0.11
      P1  H  8011  8017       L1    19  0.19

> <Gold.Chemscore.Hbond.Weighted>
-4.3350

> <Gold.Chemscore.Metal.Weighted>
-0.0000

> <Gold.Chemscore.Lipo.Weighted>
-5.7181

> <Gold.Chemscore.Internal_Hbond.Weighted>
0.0000

> <Gold.Chemscore.DEClash.Weighted>
0.2316

> <Gold.Chemscore.DEInternal.Weighted>
0.4167

> <Gold.Chemscore.Rot.Weighted>
5.3442

> <Gold.Chemscore.Internal.Correction.Weighted>
   9.000000E+99

> <Gold.Protein.RotatedTorsions>
[ 6907 6896 6895 6894 ] final  123.81 input  -60.11 | X-H torsion
[ 7974 7965 7964 7962 ] final   43.44 input  175.53 | X-H torsion
[ 8008 7997 7996 7995 ] final   -6.21 input   59.86 | X-H torsion
[ 10167 10162 10161 10158 ] final   36.61 input  -65.29 | X-H torsion
[ 10718 10713 10712 10709 ] final -137.91 input   66.30 | X-H torsion
[ 10763 10752 10751 10750 ] final   63.45 input  -60.55 | X-H torsion
[ 11005 11000 10999 10996 ] final  -74.22 input  -57.11 | X-H torsion

> <Gold.Protein.ActiveResidues>
 VAL166  LYS551  ARG553  GLY616  TRP617  ASP618  TYR619  PRO620  LYS621  CYS622 
 ASP623  PHE694  ASN695  SER759  ASP760  ASP761  ALA762  ILE779  LEU786  VAL792 
 PHE793  MET794  SER795  GLU796  ALA797  LYS798  CYS799  TRP800  GLU811  SER814 

> <Gold.Protein.RotatedAtoms>
  152.4131  133.6995  159.6414 H   0  0  0  0  0  0  0  0  0  0  0  0  # atno 6907 bound_to 6896
  150.8010  133.8589  159.3235 H   0  0  0  0  0  0  0  0  0  0  0  0  # atno 6908 bound_to 6896
  151.6326  135.1023  160.0176 H   0  0  0  0  0  0  0  0  0  0  0  0  # atno 6909 bound_to 6896
  146.0655  139.5187  142.9631 H   0  0  0  0  0  0  0  0  0  0  0  0  # atno 7974 bound_to 7965
  154.5960  140.2438  155.7856 H   0  0  0  0  0  0  0  0  0  0  0  0  # atno 8008 bound_to 7997
  156.2279  140.2976  156.0068 H   0  0  0  0  0  0  0  0  0  0  0  0  # atno 8009 bound_to 7997
  155.2292  140.0403  157.2950 H   0  0  0  0  0  0  0  0  0  0  0  0  # atno 8010 bound_to 7997
  140.4111  144.1591  150.6139 H   0  0  0  0  0  0  0  0  0  0  0  0  # atno 10167 bound_to 10162
  156.2934  130.7388  151.1420 H   0  0  0  0  0  0  0  0  0  0  0  0  # atno 10718 bound_to 10713
  153.0018  135.5428  154.6354 H   0  0  0  0  0  0  0  0  0  0  0  0  # atno 10763 bound_to 10752
  154.5622  135.2835  155.0910 H   0  0  0  0  0  0  0  0  0  0  0  0  # atno 10764 bound_to 10752
  154.2108  135.6467  153.5167 H   0  0  0  0  0  0  0  0  0  0  0  0  # atno 10765 bound_to 10752
  141.1632  133.6904  156.7331 H   0  0  0  0  0  0  0  0  0  0  0  0  # atno 11005 bound_to 11000
  145.6484  141.0268  143.1773 LP  0  0  0  0  0  0  0  0  0  0  0  0  # atno 17320 bound_to 7965
  144.7200  139.8063  143.7385 LP  0  0  0  0  0  0  0  0  0  0  0  0  # atno 17321 bound_to 7965
  140.4637  143.2439  151.9185 LP  0  0  0  0  0  0  0  0  0  0  0  0  # atno 17342 bound_to 10162
  139.4782  144.5442  151.8483 LP  0  0  0  0  0  0  0  0  0  0  0  0  # atno 17343 bound_to 10162
  157.7349  131.0578  150.5501 LP  0  0  0  0  0  0  0  0  0  0  0  0  # atno 17370 bound_to 10713
  156.5620  130.4258  149.6059 LP  0  0  0  0  0  0  0  0  0  0  0  0  # atno 17371 bound_to 10713
  140.2730  134.8377  157.3864 LP  0  0  0  0  0  0  0  0  0  0  0  0  # atno 17394 bound_to 11000
  140.1503  134.4858  155.7966 LP  0  0  0  0  0  0  0  0  0  0  0  0  # atno 17395 bound_to 11000

$$$$
