AV-unprocessed.smi:1983|AV-procd|sdf|8034|dock10
  -GOLD-   2272010233D 1   1.00000     0.00000
 Structure written by MMmdl.
 50 51  0  0  0  0  0  0  0  0  2 V2000
  147.8134  134.0052  155.2934 C   0  0  0  0  0  0  0  0  0  0  0  0
  146.6798  134.9930  154.9673 C   0  0  2  0  0  0  0  0  0  0  0  0
  145.5214  134.3235  154.2075 C   0  0  0  0  0  0  0  0  0  0  0  0
  145.1187  133.1403  154.8639 O   0  0  0  0  0  0  0  0  0  0  0  0
  147.1916  136.1082  154.1752 N   0  0  0  0  0  0  0  0  0  0  0  0
  147.0084  137.4060  154.4564 C   0  0  0  0  0  0  0  0  0  0  0  0
  146.3984  137.8214  155.4418 O   0  0  0  0  0  0  0  0  0  0  0  0
  147.5694  138.2008  153.5342 N   0  0  0  0  0  0  0  0  0  0  0  0
  147.5176  139.6580  153.5572 C   0  0  0  0  0  0  0  0  0  0  0  0
  148.4736  140.2749  154.5639 C   0  0  0  0  0  0  0  0  0  0  0  0
  149.1850  139.4654  155.4759 C   0  0  0  0  0  0  0  0  0  0  0  0
  150.0670  140.0680  156.3965 C   0  0  0  0  0  0  0  0  0  0  0  0
  150.2220  141.4742  156.3901 C   0  0  0  0  0  0  0  0  0  0  0  0
  151.0696  142.1665  157.2654 N   0  0  0  0  0  0  0  0  0  0  0  0
  150.4215  143.3124  157.8876 C   0  0  0  0  0  0  0  0  0  0  0  0
  151.4426  144.1134  158.7189 C   0  0  1  0  0  0  0  0  0  0  0  0
  150.7836  145.2615  159.4908 C   0  0  0  0  0  0  0  0  0  0  0  0
  152.0669  143.2415  159.6594 O   0  0  0  0  0  0  0  0  0  0  0  0
  152.7695  142.1694  159.0346 C   0  0  1  0  0  0  0  0  0  0  0  0
  153.4708  141.3501  160.1230 C   0  0  0  0  0  0  0  0  0  0  0  0
  151.7672  141.3238  158.2278 C   0  0  0  0  0  0  0  0  0  0  0  0
  149.5120  142.2114  155.5070 N   0  3  0  0  0  0  0  0  0  0  0  0
  148.6610  141.6725  154.6072 C   0  0  0  0  0  0  0  0  0  0  0  0
  147.4497  133.1773  155.9027 H   0  0  0  0  0  0  0  0  0  0  0  0
  148.6137  134.4914  155.8522 H   0  0  0  0  0  0  0  0  0  0  0  0
  148.2479  133.5843  154.3863 H   0  0  0  0  0  0  0  0  0  0  0  0
  146.2820  135.3918  155.9028 H   0  0  0  0  0  0  0  0  0  0  0  0
  144.6578  134.9887  154.1661 H   0  0  0  0  0  0  0  0  0  0  0  0
  145.8031  134.0967  153.1786 H   0  0  0  0  0  0  0  0  0  0  0  0
  144.2048  132.9886  154.6775 H   0  0  0  0  0  0  0  0  0  0  0  0
  147.7112  135.8709  153.3427 H   0  0  0  0  0  0  0  0  0  0  0  0
  148.0465  137.7700  152.7555 H   0  0  0  0  0  0  0  0  0  0  0  0
  147.7757  140.0251  152.5635 H   0  0  0  0  0  0  0  0  0  0  0  0
  146.4960  139.9897  153.7518 H   0  0  0  0  0  0  0  0  0  0  0  0
  149.0567  138.3927  155.4708 H   0  0  0  0  0  0  0  0  0  0  0  0
  150.6088  139.4525  157.0995 H   0  0  0  0  0  0  0  0  0  0  0  0
  149.9811  143.9499  157.1196 H   0  0  0  0  0  0  0  0  0  0  0  0
  149.6073  142.9654  158.5257 H   0  0  0  0  0  0  0  0  0  0  0  0
  152.2058  144.5309  158.0597 H   0  0  0  0  0  0  0  0  0  0  0  0
  150.3013  145.9655  158.8125 H   0  0  0  0  0  0  0  0  0  0  0  0
  151.5215  145.8143  160.0727 H   0  0  0  0  0  0  0  0  0  0  0  0
  150.0266  144.8894  160.1816 H   0  0  0  0  0  0  0  0  0  0  0  0
  153.5287  142.5798  158.3662 H   0  0  0  0  0  0  0  0  0  0  0  0
  154.0312  140.5208  159.6901 H   0  0  0  0  0  0  0  0  0  0  0  0
  152.7522  140.9360  160.8307 H   0  0  0  0  0  0  0  0  0  0  0  0
  154.1728  141.9677  160.6838 H   0  0  0  0  0  0  0  0  0  0  0  0
  151.0509  140.8575  158.9053 H   0  0  0  0  0  0  0  0  0  0  0  0
  152.2881  140.5221  157.7025 H   0  0  0  0  0  0  0  0  0  0  0  0
  148.1559  142.3725  153.9575 H   0  0  0  0  0  0  0  0  0  0  0  0
  149.6280  143.2251  155.5169 H   0  0  0  0  0  0  0  0  0  0  0  0
  1  2  1  0  0  0  0
  1 24  1  0  0  0  0
  1 25  1  0  0  0  0
  1 26  1  0  0  0  0
  2  3  1  0  0  0  0
  2  5  1  0  0  0  0
  2 27  1  0  0  0  0
  3  4  1  0  0  0  0
  3 28  1  0  0  0  0
  3 29  1  0  0  0  0
  4 30  1  0  0  0  0
  5  6  1  0  0  0  0
  5 31  1  0  0  0  0
  6  7  2  0  0  0  0
  6  8  1  0  0  0  0
  8  9  1  0  0  0  0
  8 32  1  0  0  0  0
  9 10  1  0  0  0  0
  9 33  1  0  0  0  0
  9 34  1  0  0  0  0
 10 23  1  0  0  0  0
 10 11  2  0  0  0  0
 11 12  1  0  0  0  0
 11 35  1  0  0  0  0
 12 13  2  0  0  0  0
 12 36  1  0  0  0  0
 13 14  1  0  0  0  0
 13 22  1  0  0  0  0
 14 21  1  0  0  0  0
 14 15  1  0  0  0  0
 15 16  1  0  0  0  0
 15 37  1  0  0  0  0
 15 38  1  0  0  0  0
 16 17  1  0  0  0  0
 16 18  1  0  0  0  0
 16 39  1  0  0  0  0
 17 40  1  0  0  0  0
 17 41  1  0  0  0  0
 17 42  1  0  0  0  0
 18 19  1  0  0  0  0
 19 20  1  0  0  0  0
 19 21  1  0  0  0  0
 19 43  1  0  0  0  0
 20 44  1  0  0  0  0
 20 45  1  0  0  0  0
 20 46  1  0  0  0  0
 21 47  1  0  0  0  0
 21 48  1  0  0  0  0
 22 23  2  0  0  0  0
 22 50  1  0  0  0  0
 23 49  1  0  0  0  0
M  CHG  1  22   1
M  END
> <s_m_source_file>
AV-unprocessed.smi

> <i_m_source_file_index>
1983

> <i_lp_mmshare_version>
43012

> <i_f3d_flags>
0

> <s_epik_input>
W09IXVtDSDJdW0NAQEhdKFtDSDNdKVtOSF1DKD1PKVtOSF1bQ0gyXWMxW2NIXVtjSF1jKG5bY0hdMSlOMltDSDJdW0NAQEhdKFtDSDNdKU9bQ0BASF0oW0NIM10pW0NIMl0y

> <s_epik_cmdline>
J2VwaWtfcHl0aG9uJywgJy1waCcsICc3LjAnLCAnLXRuJywgJzgnLCAnLW1hJywgJzIwMCcsICctbWV0YWxfYmluZGluZycsICctaW1hZScsICc8aW5maWxlLm1hZT4nLCAnLW9tYWUnLCAnPG91dGZpbGUubWFlPic=

> <r_lp_tautomer_probability>
0.999994

> <r_epik_Ionization_Penalty>
2.55677

> <r_epik_Ionization_Penalty_Charging>
2.55673

> <r_epik_Ionization_Penalty_Neutral>
3.71772e-05

> <r_epik_State_Penalty>
2.72571

> <r_epik_Charging_Adjusted_Penalty>
5.28244

> <i_epik_Tot_Q>
1

> <i_epik_Tot_abs_Q>
1

> <r_epik_Metal_State_Penalty>
2.73364

> <b_epik_Metal_Only>
0

> <s_lp_Force_Field>
OPLS_2005

> <r_lp_Energy>
19.4893

> <b_lp_Chiralities_Consistent>
1

> <s_lp_Variant>
AV-unprocessed.smi:1983-7

> <Gold.Version>
5.8.1

> <Gold.Id.Protein>
6NUR|6NUR_protein|mol2

> <Gold.PLP.Fitness>
47.6008

> <Gold.PLP.PLP>
-33.4386

> <Gold.PLP.part.hbond>
-4.0000

> <Gold.PLP.part.metal>
0.0000

> <Gold.PLP.part.buried>
-4.7670

> <Gold.PLP.part.nonpolar>
-26.3997

> <Gold.PLP.part.repulsive>
0.2814

> <Gold.PLP.ligand.clash>
0.0000

> <Gold.PLP.ligand.torsion>
0.4559

> <Gold.PLP.Chemscore.Hbond>
4.9753

> <Gold.PLP.Chemscore.CHOScore>
0.0000

> <Gold.PLP.Chemscore.Metal>
0.0000

> <Gold.Chemscore.Hbonds>
donor molecule, donor type, donor heavy atom, donor atom, acceptor molecule, acceptor atom, score
      L1  H     4    30       P1 10957  0.93
      L1  H     5    31       P1  7948  1.00
      L1  H     8    32       P1  7948  1.00
      L1  H    22    50       P1  8028  1.89

> <Gold.PLP.Chemscore.Internal.Correction>
0.1483

> <Gold.Rescore>
     Score         DG    S(hbond)    S(metal)    S(lipo)     H(rot)  DE(clash)    DE(int)     intcor
     21.32     -21.79       3.79        0.00      89.53       2.66       0.04       0.43       ----

> <Gold.Chemscore.Fitness>
21.3177

> <Gold.Chemscore.DG>
-21.7882

> <Gold.Chemscore.ZeroCoef>
-5.4800

> <Gold.Chemscore.Hbond>
3.7880

> <Gold.Chemscore.Metal>
0.0000

> <Gold.Chemscore.Lipo>
89.5331

> <Gold.Chemscore.Internal_Hbond>
0.0000

> <Gold.Chemscore.DEClash>
0.0436

> <Gold.Chemscore.DEInternal>
0.4268

> <Gold.Chemscore.Rot>
2.6637

> <Gold.Chemscore.Internal.Correction>
   9.000000E+99

> <Gold.Chemscore.Hbonds>
donor molecule, donor type, donor heavy atom, donor atom, acceptor molecule, acceptor atom, score
      L1  H     4    30       P1 10957  0.90
      L1  H     5    31       P1  7948  0.97
      L1  H     8    32       P1  7948  0.95
      L1  H    22    50       P1  8028  0.91

> <Gold.Chemscore.Hbond.Weighted>
-12.6519

> <Gold.Chemscore.Metal.Weighted>
-0.0000

> <Gold.Chemscore.Lipo.Weighted>
-10.4754

> <Gold.Chemscore.Internal_Hbond.Weighted>
0.0000

> <Gold.Chemscore.DEClash.Weighted>
0.0436

> <Gold.Chemscore.DEInternal.Weighted>
0.4268

> <Gold.Chemscore.Rot.Weighted>
6.8191

> <Gold.Chemscore.Internal.Correction.Weighted>
   9.000000E+99

> <Gold.Protein.RotatedTorsions>
[ 6907 6896 6895 6894 ] final -162.53 input  -60.11 | X-H torsion
[ 7974 7965 7964 7962 ] final   86.66 input  175.53 | X-H torsion
[ 8008 7997 7996 7995 ] final   25.88 input   59.86 | X-H torsion
[ 10167 10162 10161 10158 ] final -159.21 input  -65.29 | X-H torsion
[ 10718 10713 10712 10709 ] final  -31.26 input   66.30 | X-H torsion
[ 10763 10752 10751 10750 ] final -169.87 input  -60.55 | X-H torsion
[ 11005 11000 10999 10996 ] final   79.88 input  -57.11 | X-H torsion

> <Gold.Protein.ActiveResidues>
 VAL166  LYS551  ARG553  GLY616  TRP617  ASP618  TYR619  PRO620  LYS621  CYS622 
 ASP623  PHE694  ASN695  SER759  ASP760  ASP761  ALA762  ILE779  LEU786  VAL792 
 PHE793  MET794  SER795  GLU796  ALA797  LYS798  CYS799  TRP800  GLU811  SER814 

> <Gold.Protein.RotatedAtoms>
  151.3818  133.3819  159.2710 H   0  0  0  0  0  0  0  0  0  0  0  0  # atno 6907 bound_to 6896
  150.9572  134.8966  159.7719 H   0  0  0  0  0  0  0  0  0  0  0  0  # atno 6908 bound_to 6896
  152.5135  134.3775  159.9392 H   0  0  0  0  0  0  0  0  0  0  0  0  # atno 6909 bound_to 6896
  145.5693  139.2312  143.2415 H   0  0  0  0  0  0  0  0  0  0  0  0  # atno 7974 bound_to 7965
  155.0186  140.3145  155.4802 H   0  0  0  0  0  0  0  0  0  0  0  0  # atno 8008 bound_to 7997
  156.2896  140.2201  156.5245 H   0  0  0  0  0  0  0  0  0  0  0  0  # atno 8009 bound_to 7997
  154.7471  140.0469  157.0850 H   0  0  0  0  0  0  0  0  0  0  0  0  # atno 8010 bound_to 7997
  139.6632  143.9875  152.2239 H   0  0  0  0  0  0  0  0  0  0  0  0  # atno 10167 bound_to 10162
  156.3895  130.4370  149.7406 H   0  0  0  0  0  0  0  0  0  0  0  0  # atno 10718 bound_to 10713
  154.6477  135.2907  155.0026 H   0  0  0  0  0  0  0  0  0  0  0  0  # atno 10763 bound_to 10752
  154.1130  135.6559  153.4892 H   0  0  0  0  0  0  0  0  0  0  0  0  # atno 10764 bound_to 10752
  153.0359  135.5269  154.7371 H   0  0  0  0  0  0  0  0  0  0  0  0  # atno 10765 bound_to 10752
  139.9156  134.7877  156.1836 H   0  0  0  0  0  0  0  0  0  0  0  0  # atno 11005 bound_to 11000
  146.1796  140.6519  142.9195 LP  0  0  0  0  0  0  0  0  0  0  0  0  # atno 17320 bound_to 7965
  144.7445  140.5032  143.6845 LP  0  0  0  0  0  0  0  0  0  0  0  0  # atno 17321 bound_to 7965
  139.9619  144.6552  150.8071 LP  0  0  0  0  0  0  0  0  0  0  0  0  # atno 17342 bound_to 10162
  140.7589  143.3117  151.2830 LP  0  0  0  0  0  0  0  0  0  0  0  0  # atno 17343 bound_to 10162
  156.4465  130.7886  151.2907 LP  0  0  0  0  0  0  0  0  0  0  0  0  # atno 17370 bound_to 10713
  157.7498  131.0108  150.3323 LP  0  0  0  0  0  0  0  0  0  0  0  0  # atno 17371 bound_to 10713
  141.0627  133.6834  156.1984 LP  0  0  0  0  0  0  0  0  0  0  0  0  # atno 17394 bound_to 11000
  140.6635  134.4943  157.5584 LP  0  0  0  0  0  0  0  0  0  0  0  0  # atno 17395 bound_to 11000

$$$$
