AV-unprocessed.smi:1697|AV-procd|sdf|6807|dock9
  -GOLD-   22720 7583D 1   1.00000     0.00000
 Structure written by MMmdl.
 55 57  0  0  0  0  0  0  0  0  3 V2000
  142.7867  134.1278  153.2581 C   0  0  0  0  0  0  0  0  0  0  0  0
  143.5266  135.4554  153.0788 C   0  0  0  0  0  0  0  0  0  0  0  0
  144.8763  135.2824  153.4848 O   0  0  0  0  0  0  0  0  0  0  0  0
  145.5459  136.4850  153.8388 C   0  0  2  0  0  0  0  0  0  0  0  0
  145.8466  137.3454  152.5976 C   0  0  0  0  0  0  0  0  0  0  0  0
  146.7148  138.5621  152.9621 C   0  0  0  0  0  0  0  0  0  0  0  0
  147.9797  138.1424  153.6238 N   0  3  1  0  0  0  0  0  0  0  0  0
  148.9107  139.2691  153.8948 C   0  0  0  0  0  0  0  0  0  0  0  0
  148.7612  139.8606  155.3122 C   0  0  2  0  0  0  0  0  0  0  0  0
  147.4566  140.3882  155.4638 O   0  0  0  0  0  0  0  0  0  0  0  0
  149.7841  140.9874  155.5596 C   0  0  0  0  0  0  0  0  0  0  0  0
  150.8748  140.5846  156.4576 N   0  0  0  0  0  0  0  0  0  0  0  0
  151.7375  139.5354  156.3711 C   0  0  0  0  0  0  0  0  0  0  0  0
  152.5637  139.5930  157.4522 N   0  3  0  0  0  0  0  0  0  0  0  0
  152.2225  140.6936  158.2412 C   0  0  0  0  0  0  0  0  0  0  0  0
  152.7650  141.1655  159.4306 C   0  0  0  0  0  0  0  0  0  0  0  0
  152.1824  142.3253  159.9900 C   0  0  0  0  0  0  0  0  0  0  0  0
  152.7495  142.8657  161.2917 C   0  0  0  0  0  0  0  0  0  0  0  0
  151.0921  142.9743  159.3541 C   0  0  0  0  0  0  0  0  0  0  0  0
  150.4738  144.2206  159.9646 C   0  0  0  0  0  0  0  0  0  0  0  0
  150.5554  142.4795  158.1438 C   0  0  0  0  0  0  0  0  0  0  0  0
  151.1397  141.3344  157.6083 C   0  0  0  0  0  0  0  0  0  0  0  0
  147.7115  137.3371  154.8434 C   0  0  0  0  0  0  0  0  0  0  0  0
  146.8680  136.0951  154.5143 C   0  0  0  0  0  0  0  0  0  0  0  0
  141.7440  134.2187  152.9530 H   0  0  0  0  0  0  0  0  0  0  0  0
  142.8029  133.8080  154.3003 H   0  0  0  0  0  0  0  0  0  0  0  0
  143.2439  133.3400  152.6586 H   0  0  0  0  0  0  0  0  0  0  0  0
  143.4715  135.7677  152.0359 H   0  0  0  0  0  0  0  0  0  0  0  0
  143.0476  136.2281  153.6817 H   0  0  0  0  0  0  0  0  0  0  0  0
  144.9459  137.0528  154.5524 H   0  0  0  0  0  0  0  0  0  0  0  0
  146.3612  136.7421  151.8481 H   0  0  0  0  0  0  0  0  0  0  0  0
  144.9221  137.6904  152.1352 H   0  0  0  0  0  0  0  0  0  0  0  0
  146.9259  139.1234  152.0530 H   0  0  0  0  0  0  0  0  0  0  0  0
  146.1615  139.2312  153.6232 H   0  0  0  0  0  0  0  0  0  0  0  0
  149.9351  138.9310  153.7301 H   0  0  0  0  0  0  0  0  0  0  0  0
  148.7371  140.0681  153.1719 H   0  0  0  0  0  0  0  0  0  0  0  0
  148.9070  139.0901  156.0679 H   0  0  0  0  0  0  0  0  0  0  0  0
  147.0022  140.3294  154.6373 H   0  0  0  0  0  0  0  0  0  0  0  0
  150.2198  141.3346  154.6217 H   0  0  0  0  0  0  0  0  0  0  0  0
  149.2946  141.8522  156.0102 H   0  0  0  0  0  0  0  0  0  0  0  0
  151.7636  138.7929  155.5864 H   0  0  0  0  0  0  0  0  0  0  0  0
  153.5957  140.6669  159.9086 H   0  0  0  0  0  0  0  0  0  0  0  0
  151.9802  142.8919  162.0637 H   0  0  0  0  0  0  0  0  0  0  0  0
  153.1344  143.8761  161.1513 H   0  0  0  0  0  0  0  0  0  0  0  0
  153.5677  142.2452  161.6586 H   0  0  0  0  0  0  0  0  0  0  0  0
  149.6639  144.6086  159.3464 H   0  0  0  0  0  0  0  0  0  0  0  0
  151.2201  145.0084  160.0676 H   0  0  0  0  0  0  0  0  0  0  0  0
  150.0636  144.0001  160.9503 H   0  0  0  0  0  0  0  0  0  0  0  0
  149.7251  142.9728  157.6608 H   0  0  0  0  0  0  0  0  0  0  0  0
  148.6535  137.0170  155.2902 H   0  0  0  0  0  0  0  0  0  0  0  0
  147.2016  137.9542  155.5851 H   0  0  0  0  0  0  0  0  0  0  0  0
  146.6666  135.5314  155.4261 H   0  0  0  0  0  0  0  0  0  0  0  0
  147.4361  135.4316  153.8603 H   0  0  0  0  0  0  0  0  0  0  0  0
  148.4585  137.5249  152.9840 H   0  0  0  0  0  0  0  0  0  0  0  0
  153.3036  138.9274  157.6361 H   0  0  0  0  0  0  0  0  0  0  0  0
  1  2  1  0  0  0  0
  1 25  1  0  0  0  0
  1 26  1  0  0  0  0
  1 27  1  0  0  0  0
  2  3  1  0  0  0  0
  2 28  1  0  0  0  0
  2 29  1  0  0  0  0
  3  4  1  0  0  0  0
  4 24  1  0  0  0  0
  4  5  1  0  0  0  0
  4 30  1  0  0  0  0
  5  6  1  0  0  0  0
  5 31  1  0  0  0  0
  5 32  1  0  0  0  0
  6  7  1  0  0  0  0
  6 33  1  0  0  0  0
  6 34  1  0  0  0  0
  7  8  1  0  0  0  0
  7 23  1  0  0  0  0
  7 54  1  0  0  0  0
  8  9  1  0  0  0  0
  8 35  1  0  0  0  0
  8 36  1  0  0  0  0
  9 10  1  0  0  0  0
  9 11  1  0  0  0  0
  9 37  1  0  0  0  0
 10 38  1  0  0  0  0
 11 12  1  0  0  0  0
 11 39  1  0  0  0  0
 11 40  1  0  0  0  0
 12 22  1  0  0  0  0
 12 13  1  0  0  0  0
 13 14  2  0  0  0  0
 13 41  1  0  0  0  0
 14 15  1  0  0  0  0
 14 55  1  0  0  0  0
 15 22  2  0  0  0  0
 15 16  1  0  0  0  0
 16 17  2  0  0  0  0
 16 42  1  0  0  0  0
 17 18  1  0  0  0  0
 17 19  1  0  0  0  0
 18 43  1  0  0  0  0
 18 44  1  0  0  0  0
 18 45  1  0  0  0  0
 19 20  1  0  0  0  0
 19 21  2  0  0  0  0
 20 46  1  0  0  0  0
 20 47  1  0  0  0  0
 20 48  1  0  0  0  0
 21 22  1  0  0  0  0
 21 49  1  0  0  0  0
 23 24  1  0  0  0  0
 23 50  1  0  0  0  0
 23 51  1  0  0  0  0
 24 52  1  0  0  0  0
 24 53  1  0  0  0  0
M  CHG  1   7   1
M  CHG  1  14   1
M  END
> <s_m_source_file>
AV-unprocessed.smi

> <i_m_source_file_index>
1697

> <i_lp_mmshare_version>
43012

> <i_f3d_flags>
0

> <s_epik_input>
W0NIM11bQ0gyXU9bQ0hdMVtDSDJdW0NIMl1OKFtDSDJdW0NIMl0xKVtDSDJdW0NASF0oW09IXSlbQ0gyXW4oW2NIXW4yKWMoYzIzKVtjSF1jKFtDSDNdKWMoW2NIXTMpW0NIM10=

> <s_epik_cmdline>
J2VwaWtfcHl0aG9uJywgJy1waCcsICc3LjAnLCAnLXRuJywgJzgnLCAnLW1hJywgJzIwMCcsICctbWV0YWxfYmluZGluZycsICctaW1hZScsICc8aW5maWxlLm1hZT4nLCAnLW9tYWUnLCAnPG91dGZpbGUubWFlPic=

> <r_epik_Ionization_Penalty>
1.20016

> <r_epik_Ionization_Penalty_Charging>
1.20016

> <r_epik_Ionization_Penalty_Neutral>
1.70998e-06

> <r_epik_State_Penalty>
1.27959

> <r_epik_Charging_Adjusted_Penalty>
2.47975

> <i_epik_Tot_Q>
2

> <i_epik_Tot_abs_Q>
2

> <r_epik_Metal_State_Penalty>
5.29682

> <b_epik_Metal_Only>
0

> <s_lp_Force_Field>
OPLS_2005

> <r_lp_Energy>
32.2014

> <b_lp_Chiralities_Consistent>
1

> <s_lp_Variant>
AV-unprocessed.smi:1697-5

> <Gold.Version>
5.8.1

> <Gold.Id.Protein>
6NUR|6NUR_protein|mol2

> <Gold.PLP.Fitness>
45.8925

> <Gold.PLP.PLP>
-42.2070

> <Gold.PLP.part.hbond>
-1.5508

> <Gold.PLP.part.metal>
0.0000

> <Gold.PLP.part.buried>
-2.2651

> <Gold.PLP.part.nonpolar>
-39.5487

> <Gold.PLP.part.repulsive>
0.3658

> <Gold.PLP.ligand.clash>
0.0000

> <Gold.PLP.ligand.torsion>
1.2507

> <Gold.PLP.Chemscore.Hbond>
2.0000

> <Gold.PLP.Chemscore.CHOScore>
0.0000

> <Gold.PLP.Chemscore.Metal>
0.0000

> <Gold.Chemscore.Hbonds>
donor molecule, donor type, donor heavy atom, donor atom, acceptor molecule, acceptor atom, score
      L1  H     7    54       P1  7948  2.00

> <Gold.PLP.Chemscore.Internal.Correction>
0.1869

> <Gold.Rescore>
     Score         DG    S(hbond)    S(metal)    S(lipo)     H(rot)  DE(clash)    DE(int)     intcor
     15.23     -16.57       1.00        0.00     117.72       2.35       0.24       1.10       ----

> <Gold.Chemscore.Fitness>
15.2337

> <Gold.Chemscore.DG>
-16.5692

> <Gold.Chemscore.ZeroCoef>
-5.4800

> <Gold.Chemscore.Hbond>
0.9951

> <Gold.Chemscore.Metal>
0.0000

> <Gold.Chemscore.Lipo>
117.7201

> <Gold.Chemscore.Internal_Hbond>
0.0000

> <Gold.Chemscore.DEClash>
0.2362

> <Gold.Chemscore.DEInternal>
1.0993

> <Gold.Chemscore.Rot>
2.3468

> <Gold.Chemscore.Internal.Correction>
   9.000000E+99

> <Gold.Chemscore.Hbonds>
donor molecule, donor type, donor heavy atom, donor atom, acceptor molecule, acceptor atom, score
      L1  H     7    54       P1  7948  1.00

> <Gold.Chemscore.Hbond.Weighted>
-3.3236

> <Gold.Chemscore.Metal.Weighted>
-0.0000

> <Gold.Chemscore.Lipo.Weighted>
-13.7732

> <Gold.Chemscore.Internal_Hbond.Weighted>
0.0000

> <Gold.Chemscore.DEClash.Weighted>
0.2362

> <Gold.Chemscore.DEInternal.Weighted>
1.0993

> <Gold.Chemscore.Rot.Weighted>
6.0077

> <Gold.Chemscore.Internal.Correction.Weighted>
   9.000000E+99

> <Gold.Protein.RotatedTorsions>
[ 6907 6896 6895 6894 ] final  -98.17 input  -60.11 | X-H torsion
[ 7974 7965 7964 7962 ] final  -36.84 input  175.53 | X-H torsion
[ 8008 7997 7996 7995 ] final  102.11 input   59.86 | X-H torsion
[ 10167 10162 10161 10158 ] final  117.95 input  -65.29 | X-H torsion
[ 10718 10713 10712 10709 ] final   26.74 input   66.30 | X-H torsion
[ 10763 10752 10751 10750 ] final  134.01 input  -60.55 | X-H torsion
[ 11005 11000 10999 10996 ] final  152.16 input  -57.11 | X-H torsion

> <Gold.Protein.ActiveResidues>
 VAL166  LYS551  ARG553  GLY616  TRP617  ASP618  TYR619  PRO620  LYS621  CYS622 
 ASP623  PHE694  ASN695  SER759  ASP760  ASP761  ALA762  ILE779  LEU786  VAL792 
 PHE793  MET794  SER795  GLU796  ALA797  LYS798  CYS799  TRP800  GLU811  SER814 

> <Gold.Protein.RotatedAtoms>
  150.7038  134.1236  159.4043 H   0  0  0  0  0  0  0  0  0  0  0  0  # atno 6907 bound_to 6896
  151.9223  135.0291  160.0532 H   0  0  0  0  0  0  0  0  0  0  0  0  # atno 6908 bound_to 6896
  152.2246  133.4975  159.5218 H   0  0  0  0  0  0  0  0  0  0  0  0  # atno 6909 bound_to 6896
  146.0627  140.6325  142.8989 H   0  0  0  0  0  0  0  0  0  0  0  0  # atno 7974 bound_to 7965
  156.1363  140.3186  155.8425 H   0  0  0  0  0  0  0  0  0  0  0  0  # atno 8008 bound_to 7997
  155.4239  140.0514  157.3041 H   0  0  0  0  0  0  0  0  0  0  0  0  # atno 8009 bound_to 7997
  154.4939  140.2103  155.9501 H   0  0  0  0  0  0  0  0  0  0  0  0  # atno 8010 bound_to 7997
  139.6144  144.7089  151.2772 H   0  0  0  0  0  0  0  0  0  0  0  0  # atno 10167 bound_to 10162
  157.2109  130.6933  149.6228 H   0  0  0  0  0  0  0  0  0  0  0  0  # atno 10718 bound_to 10713
  153.8166  135.3122  155.3406 H   0  0  0  0  0  0  0  0  0  0  0  0  # atno 10763 bound_to 10752
  154.8030  135.4715  154.0325 H   0  0  0  0  0  0  0  0  0  0  0  0  # atno 10764 bound_to 10752
  153.1720  135.6879  153.8684 H   0  0  0  0  0  0  0  0  0  0  0  0  # atno 10765 bound_to 10752
  140.1283  134.8819  157.2168 H   0  0  0  0  0  0  0  0  0  0  0  0  # atno 11005 bound_to 11000
  144.7184  140.4290  143.7026 LP  0  0  0  0  0  0  0  0  0  0  0  0  # atno 17320 bound_to 7965
  145.6532  139.1568  143.2850 LP  0  0  0  0  0  0  0  0  0  0  0  0  # atno 17321 bound_to 7965
  140.7341  143.6775  150.8029 LP  0  0  0  0  0  0  0  0  0  0  0  0  # atno 17342 bound_to 10162
  140.0376  143.5379  152.2732 LP  0  0  0  0  0  0  0  0  0  0  0  0  # atno 17343 bound_to 10162
  155.9691  130.4551  150.5877 LP  0  0  0  0  0  0  0  0  0  0  0  0  # atno 17370 bound_to 10713
  157.3673  131.0760  151.1587 LP  0  0  0  0  0  0  0  0  0  0  0  0  # atno 17371 bound_to 10713
  140.2875  134.3278  155.7325 LP  0  0  0  0  0  0  0  0  0  0  0  0  # atno 17394 bound_to 11000
  141.2165  133.7515  156.9455 LP  0  0  0  0  0  0  0  0  0  0  0  0  # atno 17395 bound_to 11000

$$$$
