AV-unprocessed.smi:2055|AV-procd|sdf|8335|dock7
  -GOLD-   2272011 03D 1   1.00000     0.00000
 Structure written by MMmdl.
 43 44  0  0  0  0  0  0  0  0  1 V2000
  146.8091  140.4926  153.8024 C   0  0  0  0  0  0  0  0  0  0  0  0
  147.2874  139.2605  153.0189 C   0  0  1  0  0  0  0  0  0  0  0  0
  146.8949  139.3248  151.5291 C   0  0  0  0  0  0  0  0  0  0  0  0
  147.0406  138.0579  150.9234 O   0  0  0  0  0  0  0  0  0  0  0  0
  148.7366  139.1433  153.1532 N   0  0  0  0  0  0  0  0  0  0  0  0
  149.3818  138.7285  154.2524 C   0  0  0  0  0  0  0  0  0  0  0  0
  148.8253  138.4173  155.3054 O   0  0  0  0  0  0  0  0  0  0  0  0
  150.7062  138.6670  154.0567 N   0  0  0  0  0  0  0  0  0  0  0  0
  151.6730  138.1858  155.0394 C   0  0  0  0  0  0  0  0  0  0  0  0
  151.5180  138.7654  156.4417 C   0  0  0  0  0  0  0  0  0  0  0  0
  151.1777  137.9089  157.5062 C   0  0  0  0  0  0  0  0  0  0  0  0
  151.0340  138.4591  158.7926 C   0  0  0  0  0  0  0  0  0  0  0  0
  151.2079  139.7697  159.0603 N   0  0  0  0  0  0  0  0  0  0  0  0
  151.5352  140.6094  158.0491 C   0  0  0  0  0  0  0  0  0  0  0  0
  151.7284  141.9659  158.3929 N   0  0  0  0  0  0  0  0  0  0  0  0
  152.8156  142.3144  159.3033 C   0  0  0  0  0  0  0  0  0  0  0  0
  152.6382  143.7492  159.8276 C   0  0  0  0  0  0  0  0  0  0  0  0
  152.5185  144.6499  158.7320 O   0  0  0  0  0  0  0  0  0  0  0  0
  151.3744  144.3614  157.9351 C   0  0  0  0  0  0  0  0  0  0  0  0
  151.4965  142.9495  157.3367 C   0  0  0  0  0  0  0  0  0  0  0  0
  151.6901  140.1413  156.7197 C   0  0  0  0  0  0  0  0  0  0  0  0
  145.7240  140.5903  153.7612 H   0  0  0  0  0  0  0  0  0  0  0  0
  147.2407  141.4105  153.4023 H   0  0  0  0  0  0  0  0  0  0  0  0
  147.0901  140.4225  154.8535 H   0  0  0  0  0  0  0  0  0  0  0  0
  146.8292  138.3767  153.4676 H   0  0  0  0  0  0  0  0  0  0  0  0
  145.8690  139.6737  151.4072 H   0  0  0  0  0  0  0  0  0  0  0  0
  147.5368  140.0224  150.9899 H   0  0  0  0  0  0  0  0  0  0  0  0
  147.4755  137.4815  151.5331 H   0  0  0  0  0  0  0  0  0  0  0  0
  149.2865  139.3748  152.3391 H   0  0  0  0  0  0  0  0  0  0  0  0
  151.0701  138.9424  153.1564 H   0  0  0  0  0  0  0  0  0  0  0  0
  151.5729  137.1024  155.1065 H   0  0  0  0  0  0  0  0  0  0  0  0
  152.6851  138.3795  154.6795 H   0  0  0  0  0  0  0  0  0  0  0  0
  151.0304  136.8513  157.3431 H   0  0  0  0  0  0  0  0  0  0  0  0
  150.7733  137.8297  159.6304 H   0  0  0  0  0  0  0  0  0  0  0  0
  152.8355  141.6282  160.1508 H   0  0  0  0  0  0  0  0  0  0  0  0
  153.7678  142.2219  158.7795 H   0  0  0  0  0  0  0  0  0  0  0  0
  151.7593  143.8223  160.4703 H   0  0  0  0  0  0  0  0  0  0  0  0
  153.4983  144.0363  160.4325 H   0  0  0  0  0  0  0  0  0  0  0  0
  150.4678  144.4513  158.5356 H   0  0  0  0  0  0  0  0  0  0  0  0
  151.3018  145.1011  157.1377 H   0  0  0  0  0  0  0  0  0  0  0  0
  152.3302  142.9122  156.6346 H   0  0  0  0  0  0  0  0  0  0  0  0
  150.5926  142.7276  156.7696 H   0  0  0  0  0  0  0  0  0  0  0  0
  151.9333  140.8207  155.9180 H   0  0  0  0  0  0  0  0  0  0  0  0
  1  2  1  0  0  0  0
  1 22  1  0  0  0  0
  1 23  1  0  0  0  0
  1 24  1  0  0  0  0
  2  3  1  0  0  0  0
  2  5  1  0  0  0  0
  2 25  1  0  0  0  0
  3  4  1  0  0  0  0
  3 26  1  0  0  0  0
  3 27  1  0  0  0  0
  4 28  1  0  0  0  0
  5  6  1  0  0  0  0
  5 29  1  0  0  0  0
  6  7  2  0  0  0  0
  6  8  1  0  0  0  0
  8  9  1  0  0  0  0
  8 30  1  0  0  0  0
  9 10  1  0  0  0  0
  9 31  1  0  0  0  0
  9 32  1  0  0  0  0
 10 21  1  0  0  0  0
 10 11  2  0  0  0  0
 11 12  1  0  0  0  0
 11 33  1  0  0  0  0
 12 13  2  0  0  0  0
 12 34  1  0  0  0  0
 13 14  1  0  0  0  0
 14 15  1  0  0  0  0
 14 21  2  0  0  0  0
 15 20  1  0  0  0  0
 15 16  1  0  0  0  0
 16 17  1  0  0  0  0
 16 35  1  0  0  0  0
 16 36  1  0  0  0  0
 17 18  1  0  0  0  0
 17 37  1  0  0  0  0
 17 38  1  0  0  0  0
 18 19  1  0  0  0  0
 19 20  1  0  0  0  0
 19 39  1  0  0  0  0
 19 40  1  0  0  0  0
 20 41  1  0  0  0  0
 20 42  1  0  0  0  0
 21 43  1  0  0  0  0
M  END
> <s_m_source_file>
AV-unprocessed.smi

> <i_m_source_file_index>
2055

> <i_lp_mmshare_version>
43012

> <i_f3d_flags>
0

> <s_epik_input>
W09IXVtDSDJdW0NAQEhdKFtDSDNdKVtOSF1DKD1PKVtOSF1bQ0gyXWMxW2NIXVtjSF1uYyhbY0hdMSlOMltDSDJdW0NIMl1PW0NIMl1bQ0gyXTI=

> <s_epik_cmdline>
J2VwaWtfcHl0aG9uJywgJy1waCcsICc3LjAnLCAnLXRuJywgJzgnLCAnLW1hJywgJzIwMCcsICctbWV0YWxfYmluZGluZycsICctaW1hZScsICc8aW5maWxlLm1hZT4nLCAnLW9tYWUnLCAnPG91dGZpbGUubWFlPic=

> <r_lp_tautomer_probability>
1

> <r_epik_Ionization_Penalty>
0.0122173

> <r_epik_Ionization_Penalty_Charging>
0

> <r_epik_Ionization_Penalty_Neutral>
0.0122173

> <r_epik_State_Penalty>
0.00940497

> <r_epik_Charging_Adjusted_Penalty>
0.00940497

> <i_epik_Tot_Q>
0

> <i_epik_Tot_abs_Q>
0

> <r_epik_Metal_State_Penalty>
0.00921475

> <b_epik_Metal_Only>
0

> <s_lp_Force_Field>
OPLS_2005

> <r_lp_Energy>
11.6971

> <b_lp_Chiralities_Consistent>
1

> <s_lp_Variant>
AV-unprocessed.smi:2055-2

> <Gold.Version>
5.8.1

> <Gold.Id.Protein>
6NUR|6NUR_protein|mol2

> <Gold.PLP.Fitness>
46.2657

> <Gold.PLP.PLP>
-39.0985

> <Gold.PLP.part.hbond>
-3.7262

> <Gold.PLP.part.metal>
0.0000

> <Gold.PLP.part.buried>
-5.3331

> <Gold.PLP.part.nonpolar>
-30.2734

> <Gold.PLP.part.repulsive>
0.2778

> <Gold.PLP.ligand.clash>
0.0000

> <Gold.PLP.ligand.torsion>
0.7615

> <Gold.PLP.Chemscore.Hbond>
2.7140

> <Gold.PLP.Chemscore.CHOScore>
0.0000

> <Gold.PLP.Chemscore.Metal>
0.0000

> <Gold.Chemscore.Hbonds>
donor molecule, donor type, donor heavy atom, donor atom, acceptor molecule, acceptor atom, score
      L1  H     4    28       P1  7948  0.91
      L1  H     5    29       P1  7957  0.63
      P1  H  7954  7966       L1     4  0.55

> <Gold.PLP.Chemscore.Internal.Correction>
0.5483

> <Gold.Rescore>
     Score         DG    S(hbond)    S(metal)    S(lipo)     H(rot)  DE(clash)    DE(int)     intcor
     14.98     -16.56       2.05        0.00      95.29       2.70       0.05       1.52       ----

> <Gold.Chemscore.Fitness>
14.9835

> <Gold.Chemscore.DG>
-16.5551

> <Gold.Chemscore.ZeroCoef>
-5.4800

> <Gold.Chemscore.Hbond>
2.0497

> <Gold.Chemscore.Metal>
0.0000

> <Gold.Chemscore.Lipo>
95.2918

> <Gold.Chemscore.Internal_Hbond>
0.0000

> <Gold.Chemscore.DEClash>
0.0476

> <Gold.Chemscore.DEInternal>
1.5239

> <Gold.Chemscore.Rot>
2.7031

> <Gold.Chemscore.Internal.Correction>
   9.000000E+99

> <Gold.Chemscore.Hbonds>
donor molecule, donor type, donor heavy atom, donor atom, acceptor molecule, acceptor atom, score
      L1  H     4    28       P1  7948  0.89
      L1  H     5    29       P1  7957  0.62
      P1  H  7954  7966       L1     4  0.03

> <Gold.Chemscore.Hbond.Weighted>
-6.8458

> <Gold.Chemscore.Metal.Weighted>
-0.0000

> <Gold.Chemscore.Lipo.Weighted>
-11.1491

> <Gold.Chemscore.Internal_Hbond.Weighted>
0.0000

> <Gold.Chemscore.DEClash.Weighted>
0.0476

> <Gold.Chemscore.DEInternal.Weighted>
1.5239

> <Gold.Chemscore.Rot.Weighted>
6.9199

> <Gold.Chemscore.Internal.Correction.Weighted>
   9.000000E+99

> <Gold.Protein.RotatedTorsions>
[ 6907 6896 6895 6894 ] final -159.39 input  -60.11 | X-H torsion
[ 7974 7965 7964 7962 ] final  -35.33 input  175.53 | X-H torsion
[ 8008 7997 7996 7995 ] final  -83.10 input   59.86 | X-H torsion
[ 10167 10162 10161 10158 ] final -145.20 input  -65.29 | X-H torsion
[ 10718 10713 10712 10709 ] final  144.74 input   66.30 | X-H torsion
[ 10763 10752 10751 10750 ] final  134.85 input  -60.55 | X-H torsion
[ 11005 11000 10999 10996 ] final  -78.52 input  -57.11 | X-H torsion

> <Gold.Protein.ActiveResidues>
 VAL166  LYS551  ARG553  GLY616  TRP617  ASP618  TYR619  PRO620  LYS621  CYS622 
 ASP623  PHE694  ASN695  SER759  ASP760  ASP761  ALA762  ILE779  LEU786  VAL792 
 PHE793  MET794  SER795  GLU796  ALA797  LYS798  CYS799  TRP800  GLU811  SER814 

> <Gold.Protein.RotatedAtoms>
  151.3328  133.3993  159.2663 H   0  0  0  0  0  0  0  0  0  0  0  0  # atno 6907 bound_to 6896
  150.9941  134.9270  159.7927 H   0  0  0  0  0  0  0  0  0  0  0  0  # atno 6908 bound_to 6896
  152.5256  134.3293  159.9229 H   0  0  0  0  0  0  0  0  0  0  0  0  # atno 6909 bound_to 6896
  146.0755  140.6146  142.8932 H   0  0  0  0  0  0  0  0  0  0  0  0  # atno 7974 bound_to 7965
  154.6155  140.0623  156.9549 H   0  0  0  0  0  0  0  0  0  0  0  0  # atno 8008 bound_to 7997
  155.1902  140.3306  155.4341 H   0  0  0  0  0  0  0  0  0  0  0  0  # atno 8009 bound_to 7997
  156.2402  140.1882  156.6993 H   0  0  0  0  0  0  0  0  0  0  0  0  # atno 8010 bound_to 7997
  139.7827  143.8077  152.2641 H   0  0  0  0  0  0  0  0  0  0  0  0  # atno 10167 bound_to 10162
  157.3536  131.0954  151.0978 H   0  0  0  0  0  0  0  0  0  0  0  0  # atno 10718 bound_to 10713
  153.8303  135.3104  155.3418 H   0  0  0  0  0  0  0  0  0  0  0  0  # atno 10763 bound_to 10752
  154.7976  135.4746  154.0200 H   0  0  0  0  0  0  0  0  0  0  0  0  # atno 10764 bound_to 10752
  153.1638  135.6866  153.8795 H   0  0  0  0  0  0  0  0  0  0  0  0  # atno 10765 bound_to 10752
  141.1665  133.7067  156.7984 H   0  0  0  0  0  0  0  0  0  0  0  0  # atno 11005 bound_to 11000
  144.7259  140.4522  143.6973 LP  0  0  0  0  0  0  0  0  0  0  0  0  # atno 17320 bound_to 7965
  145.6313  139.1537  143.2967 LP  0  0  0  0  0  0  0  0  0  0  0  0  # atno 17321 bound_to 7965
  139.8145  144.7322  150.9653 LP  0  0  0  0  0  0  0  0  0  0  0  0  # atno 17342 bound_to 10162
  140.7819  143.4218  151.0829 LP  0  0  0  0  0  0  0  0  0  0  0  0  # atno 17343 bound_to 10162
  157.2144  130.6453  149.5787 LP  0  0  0  0  0  0  0  0  0  0  0  0  # atno 17370 bound_to 10713
  155.9725  130.4649  150.6235 LP  0  0  0  0  0  0  0  0  0  0  0  0  # atno 17371 bound_to 10713
  140.2274  134.8711  157.3441 LP  0  0  0  0  0  0  0  0  0  0  0  0  # atno 17394 bound_to 11000
  140.1926  134.4353  155.7707 LP  0  0  0  0  0  0  0  0  0  0  0  0  # atno 17395 bound_to 11000

$$$$
