AV-unprocessed.smi:1281|AV-procd|sdf|5359|dock9
  -GOLD-   22720 4503D 1   1.00000     0.00000
 Structure written by MMmdl.
 45 46  0  0  0  0  0  0  0  0  1 V2000
  152.3486  129.5714  155.1935 C   0  0  0  0  0  0  0  0  0  0  0  0
  151.7544  130.4014  156.1753 O   0  0  0  0  0  0  0  0  0  0  0  0
  151.7030  131.7626  155.7791 C   0  0  0  0  0  0  0  0  0  0  0  0
  150.8967  132.5650  156.8129 C   0  0  0  0  0  0  0  0  0  0  0  0
  150.6995  133.9561  156.3908 N   0  0  0  0  0  0  0  0  0  0  0  0
  151.1745  134.8908  157.2955 N   0  0  0  0  0  0  0  0  0  0  0  0
  151.0573  136.1551  157.0471 C   0  0  0  0  0  0  0  0  0  0  0  0
  151.5481  137.1910  157.9977 C   0  0  0  0  0  0  0  0  0  0  0  0
  152.0394  136.8927  159.0877 O   0  0  0  0  0  0  0  0  0  0  0  0
  151.4184  138.4637  157.5807 N   0  0  0  0  0  0  0  0  0  0  0  0
  151.8257  139.6420  158.3367 C   0  0  0  0  0  0  0  0  0  0  0  0
  151.5101  140.9422  157.5763 C   0  0  0  0  0  0  0  0  0  0  0  0
  151.8921  142.1859  158.3611 C   0  0  0  0  0  0  0  0  0  0  0  0
  152.5004  142.1121  159.5611 C   0  0  0  0  0  0  0  0  0  0  0  0
  152.8856  143.3187  160.3991 C   0  0  0  0  0  0  0  0  0  0  0  0
  152.2125  144.6117  159.9088 C   0  0  0  0  0  0  0  0  0  0  0  0
  152.2573  144.7135  158.3792 C   0  0  0  0  0  0  0  0  0  0  0  0
  151.5415  143.5225  157.7167 C   0  0  0  0  0  0  0  0  0  0  0  0
  150.4343  136.6170  155.8180 C   0  0  0  0  0  0  0  0  0  0  0  0
  149.9692  135.6935  154.9482 C   0  0  0  0  0  0  0  0  0  0  0  0
  150.0794  134.2576  155.2102 C   0  0  0  0  0  0  0  0  0  0  0  0
  149.6514  133.3980  154.4404 O   0  0  0  0  0  0  0  0  0  0  0  0
  152.3625  128.5401  155.5463 H   0  0  0  0  0  0  0  0  0  0  0  0
  153.3777  129.8724  154.9922 H   0  0  0  0  0  0  0  0  0  0  0  0
  151.7853  129.6004  154.2599 H   0  0  0  0  0  0  0  0  0  0  0  0
  152.7166  132.1616  155.7200 H   0  0  0  0  0  0  0  0  0  0  0  0
  151.2595  131.8568  154.7866 H   0  0  0  0  0  0  0  0  0  0  0  0
  149.9336  132.0801  156.9828 H   0  0  0  0  0  0  0  0  0  0  0  0
  151.4059  132.5362  157.7776 H   0  0  0  0  0  0  0  0  0  0  0  0
  151.0066  138.6233  156.6723 H   0  0  0  0  0  0  0  0  0  0  0  0
  151.2970  139.6235  159.2898 H   0  0  0  0  0  0  0  0  0  0  0  0
  152.8903  139.5842  158.5699 H   0  0  0  0  0  0  0  0  0  0  0  0
  152.0392  140.9479  156.6222 H   0  0  0  0  0  0  0  0  0  0  0  0
  150.4475  140.9907  157.3355 H   0  0  0  0  0  0  0  0  0  0  0  0
  152.7484  141.1472  159.9790 H   0  0  0  0  0  0  0  0  0  0  0  0
  152.6187  143.1338  161.4399 H   0  0  0  0  0  0  0  0  0  0  0  0
  153.9704  143.4215  160.3629 H   0  0  0  0  0  0  0  0  0  0  0  0
  151.1726  144.6285  160.2375 H   0  0  0  0  0  0  0  0  0  0  0  0
  152.6943  145.4780  160.3626 H   0  0  0  0  0  0  0  0  0  0  0  0
  151.8069  145.6493  158.0478 H   0  0  0  0  0  0  0  0  0  0  0  0
  153.2981  144.7399  158.0534 H   0  0  0  0  0  0  0  0  0  0  0  0
  151.7904  143.4934  156.6554 H   0  0  0  0  0  0  0  0  0  0  0  0
  150.4620  143.6602  157.7845 H   0  0  0  0  0  0  0  0  0  0  0  0
  150.3389  137.6706  155.5988 H   0  0  0  0  0  0  0  0  0  0  0  0
  149.5023  136.0227  154.0316 H   0  0  0  0  0  0  0  0  0  0  0  0
  1  2  1  0  0  0  0
  1 23  1  0  0  0  0
  1 24  1  0  0  0  0
  1 25  1  0  0  0  0
  2  3  1  0  0  0  0
  3  4  1  0  0  0  0
  3 26  1  0  0  0  0
  3 27  1  0  0  0  0
  4  5  1  0  0  0  0
  4 28  1  0  0  0  0
  4 29  1  0  0  0  0
  5 21  1  0  0  0  0
  5  6  1  0  0  0  0
  6  7  2  0  0  0  0
  7  8  1  0  0  0  0
  7 19  1  0  0  0  0
  8  9  2  0  0  0  0
  8 10  1  0  0  0  0
 10 11  1  0  0  0  0
 10 30  1  0  0  0  0
 11 12  1  0  0  0  0
 11 31  1  0  0  0  0
 11 32  1  0  0  0  0
 12 13  1  0  0  0  0
 12 33  1  0  0  0  0
 12 34  1  0  0  0  0
 13 18  1  0  0  0  0
 13 14  2  0  0  0  0
 14 15  1  0  0  0  0
 14 35  1  0  0  0  0
 15 16  1  0  0  0  0
 15 36  1  0  0  0  0
 15 37  1  0  0  0  0
 16 17  1  0  0  0  0
 16 38  1  0  0  0  0
 16 39  1  0  0  0  0
 17 18  1  0  0  0  0
 17 40  1  0  0  0  0
 17 41  1  0  0  0  0
 18 42  1  0  0  0  0
 18 43  1  0  0  0  0
 19 20  2  0  0  0  0
 19 44  1  0  0  0  0
 20 21  1  0  0  0  0
 20 45  1  0  0  0  0
 21 22  2  0  0  0  0
M  END
> <s_m_source_file>
AV-unprocessed.smi

> <i_m_source_file_index>
1281

> <i_lp_mmshare_version>
43012

> <i_f3d_flags>
0

> <s_epik_input>
W0NIM11PW0NIMl1bQ0gyXW4xbmMoW2NIXVtjSF1jMT1PKUMoPU8pW05IXVtDSDJdW0NIMl1DMj1bQ0hdW0NIMl1bQ0gyXVtDSDJdW0NIMl0y

> <s_epik_cmdline>
J2VwaWtfcHl0aG9uJywgJy1waCcsICc3LjAnLCAnLXRuJywgJzgnLCAnLW1hJywgJzIwMCcsICctbWV0YWxfYmluZGluZycsICctaW1hZScsICc8aW5maWxlLm1hZT4nLCAnLW9tYWUnLCAnPG91dGZpbGUubWFlPic=

> <r_lp_tautomer_probability>
1

> <r_epik_Ionization_Penalty>
8.17845e-07

> <r_epik_Ionization_Penalty_Charging>
5.79962e-09

> <r_epik_Ionization_Penalty_Neutral>
8.12046e-07

> <r_epik_State_Penalty>
-0

> <r_epik_Charging_Adjusted_Penalty>
5.79962e-09

> <i_epik_Tot_Q>
0

> <i_epik_Tot_abs_Q>
0

> <r_epik_Metal_State_Penalty>
-0

> <b_epik_Metal_Only>
0

> <s_lp_Force_Field>
OPLS_2005

> <r_lp_Energy>
28.483

> <b_lp_Chiralities_Consistent>
1

> <s_lp_Variant>
AV-unprocessed.smi:1281-1

> <Gold.Version>
5.8.1

> <Gold.Id.Protein>
6NUR|6NUR_protein|mol2

> <Gold.PLP.Fitness>
44.7992

> <Gold.PLP.PLP>
-41.9388

> <Gold.PLP.part.hbond>
-2.0000

> <Gold.PLP.part.metal>
0.0000

> <Gold.PLP.part.buried>
-5.9485

> <Gold.PLP.part.nonpolar>
-34.4625

> <Gold.PLP.part.repulsive>
0.1373

> <Gold.PLP.ligand.clash>
0.5054

> <Gold.PLP.ligand.torsion>
0.0413

> <Gold.PLP.Chemscore.Hbond>
1.1149

> <Gold.PLP.Chemscore.CHOScore>
0.0000

> <Gold.PLP.Chemscore.Metal>
0.0000

> <Gold.Chemscore.Hbonds>
donor molecule, donor type, donor heavy atom, donor atom, acceptor molecule, acceptor atom, score
      P1  H  6896  6908       L1     6  0.08
      P1  H  6896  6909       L1     9  0.96

> <Gold.PLP.Chemscore.Internal.Correction>
0.1037

> <Gold.Rescore>
     Score         DG    S(hbond)    S(metal)    S(lipo)     H(rot)  DE(clash)    DE(int)     intcor
     15.72     -16.93       1.16        0.00     105.54       1.86       0.00       1.21       ----

> <Gold.Chemscore.Fitness>
15.7210

> <Gold.Chemscore.DG>
-16.9304

> <Gold.Chemscore.ZeroCoef>
-5.4800

> <Gold.Chemscore.Hbond>
1.1607

> <Gold.Chemscore.Metal>
0.0000

> <Gold.Chemscore.Lipo>
105.5357

> <Gold.Chemscore.Internal_Hbond>
0.0000

> <Gold.Chemscore.DEClash>
0.0000

> <Gold.Chemscore.DEInternal>
1.2094

> <Gold.Chemscore.Rot>
1.8649

> <Gold.Chemscore.Internal.Correction>
   9.000000E+99

> <Gold.Chemscore.Hbonds>
donor molecule, donor type, donor heavy atom, donor atom, acceptor molecule, acceptor atom, score
      P1  H  6896  6908       L1     6  0.03
      P1  H  6896  6909       L1     9  0.87

> <Gold.Chemscore.Hbond.Weighted>
-3.8768

> <Gold.Chemscore.Metal.Weighted>
-0.0000

> <Gold.Chemscore.Lipo.Weighted>
-12.3477

> <Gold.Chemscore.Internal_Hbond.Weighted>
0.0000

> <Gold.Chemscore.DEClash.Weighted>
0.0000

> <Gold.Chemscore.DEInternal.Weighted>
1.2094

> <Gold.Chemscore.Rot.Weighted>
4.7741

> <Gold.Chemscore.Internal.Correction.Weighted>
   9.000000E+99

> <Gold.Protein.RotatedTorsions>
[ 6907 6896 6895 6894 ] final  117.34 input  -60.11 | X-H torsion
[ 7974 7965 7964 7962 ] final  -11.05 input  175.53 | X-H torsion
[ 8008 7997 7996 7995 ] final  166.99 input   59.86 | X-H torsion
[ 10167 10162 10161 10158 ] final   22.67 input  -65.29 | X-H torsion
[ 10718 10713 10712 10709 ] final -158.35 input   66.30 | X-H torsion
[ 10763 10752 10751 10750 ] final   71.99 input  -60.55 | X-H torsion
[ 11005 11000 10999 10996 ] final  -23.44 input  -57.11 | X-H torsion

> <Gold.Protein.ActiveResidues>
 VAL166  LYS551  ARG553  GLY616  TRP617  ASP618  TYR619  PRO620  LYS621  CYS622 
 ASP623  PHE694  ASN695  SER759  ASP760  ASP761  ALA762  ILE779  LEU786  VAL792 
 PHE793  MET794  SER795  GLU796  ALA797  LYS798  CYS799  TRP800  GLU811  SER814 

> <Gold.Protein.RotatedAtoms>
  152.4618  133.7838  159.6864 H   0  0  0  0  0  0  0  0  0  0  0  0  # atno 6907 bound_to 6896
  150.8565  133.7697  159.3013 H   0  0  0  0  0  0  0  0  0  0  0  0  # atno 6908 bound_to 6896
  151.5276  135.1071  159.9946 H   0  0  0  0  0  0  0  0  0  0  0  0  # atno 6909 bound_to 6896
  146.2200  140.2854  142.8365 H   0  0  0  0  0  0  0  0  0  0  0  0  # atno 7974 bound_to 7965
  156.1672  140.1629  156.8511 H   0  0  0  0  0  0  0  0  0  0  0  0  # atno 8008 bound_to 7997
  154.5219  140.0776  156.8223 H   0  0  0  0  0  0  0  0  0  0  0  0  # atno 8009 bound_to 7997
  155.3587  140.3394  155.4242 H   0  0  0  0  0  0  0  0  0  0  0  0  # atno 8010 bound_to 7997
  140.5330  143.9809  150.6476 H   0  0  0  0  0  0  0  0  0  0  0  0  # atno 10167 bound_to 10162
  156.5530  130.8613  151.2786 H   0  0  0  0  0  0  0  0  0  0  0  0  # atno 10718 bound_to 10713
  153.0432  135.5116  154.7677 H   0  0  0  0  0  0  0  0  0  0  0  0  # atno 10763 bound_to 10752
  154.6598  135.2937  154.9883 H   0  0  0  0  0  0  0  0  0  0  0  0  # atno 10764 bound_to 10752
  154.0738  135.6674  153.4880 H   0  0  0  0  0  0  0  0  0  0  0  0  # atno 10765 bound_to 10752
  140.8751  133.7693  156.0234 H   0  0  0  0  0  0  0  0  0  0  0  0  # atno 11005 bound_to 11000
  144.9166  140.7819  143.5774 LP  0  0  0  0  0  0  0  0  0  0  0  0  # atno 17320 bound_to 7965
  145.2788  139.1926  143.4802 LP  0  0  0  0  0  0  0  0  0  0  0  0  # atno 17321 bound_to 7965
  140.3189  143.3150  152.0804 LP  0  0  0  0  0  0  0  0  0  0  0  0  # atno 17342 bound_to 10162
  139.4961  144.6587  151.6514 LP  0  0  0  0  0  0  0  0  0  0  0  0  # atno 17343 bound_to 10162
  157.7384  130.9812  150.2249 LP  0  0  0  0  0  0  0  0  0  0  0  0  # atno 17370 bound_to 10713
  156.2868  130.3740  149.7881 LP  0  0  0  0  0  0  0  0  0  0  0  0  # atno 17371 bound_to 10713
  140.8527  134.2935  157.5268 LP  0  0  0  0  0  0  0  0  0  0  0  0  # atno 17394 bound_to 11000
  139.8715  134.9476  156.3973 LP  0  0  0  0  0  0  0  0  0  0  0  0  # atno 17395 bound_to 11000

$$$$
