AV-unprocessed.smi:1948|AV-procd|sdf|7876|dock2
  -GOLD-   2272010 23D 1   1.00000     0.00000
 Structure written by MMmdl.
 29 30  0  0  0  0  0  0  0  0  2 V2000
  152.5334  140.4343  157.4326 O   0  0  0  0  0  0  0  0  0  0  0  0
  151.6055  141.0307  156.8811 C   0  0  0  0  0  0  0  0  0  0  0  0
  150.8244  140.5508  155.8863 N   0  5  0  0  0  0  0  0  0  0  0  0
  151.0120  139.3022  155.4276 C   0  0  0  0  0  0  0  0  0  0  0  0
  151.9325  138.4758  155.9502 N   0  0  0  0  0  0  0  0  0  0  0  0
  151.9604  137.2309  155.3363 N   0  0  0  0  0  0  0  0  0  0  0  0
  151.0503  137.1475  154.3660 C   0  0  0  0  0  0  0  0  0  0  0  0
  150.0737  138.5794  154.1177 S   0  0  0  0  0  0  0  0  0  0  0  0
  151.2925  142.2789  157.2589 N   0  0  0  0  0  0  0  0  0  0  0  0
  151.9618  143.0583  158.2974 C   0  0  2  0  0  0  0  0  0  0  0  0
  151.9736  142.2898  159.6341 C   0  0  0  0  0  0  0  0  0  0  0  0
  152.6202  143.1206  160.7565 C   0  0  0  0  0  0  0  0  0  0  0  0
  151.9628  144.5048  160.9147 C   0  0  2  0  0  0  0  0  0  0  0  0
  150.6630  144.3678  161.4546 O   0  0  0  0  0  0  0  0  0  0  0  0
  151.9006  145.2597  159.5736 C   0  0  0  0  0  0  0  0  0  0  0  0
  151.2560  144.4168  158.4589 C   0  0  0  0  0  0  0  0  0  0  0  0
  150.9504  136.2360  153.7961 H   0  0  0  0  0  0  0  0  0  0  0  0
  150.5238  142.7258  156.7811 H   0  0  0  0  0  0  0  0  0  0  0  0
  152.9919  143.2486  157.9891 H   0  0  0  0  0  0  0  0  0  0  0  0
  150.9539  142.0244  159.9165 H   0  0  0  0  0  0  0  0  0  0  0  0
  152.5140  141.3493  159.5224 H   0  0  0  0  0  0  0  0  0  0  0  0
  152.5823  142.5724  161.6985 H   0  0  0  0  0  0  0  0  0  0  0  0
  153.6780  143.2553  160.5274 H   0  0  0  0  0  0  0  0  0  0  0  0
  152.5407  145.0937  161.6277 H   0  0  0  0  0  0  0  0  0  0  0  0
  150.1066  143.9717  160.8016 H   0  0  0  0  0  0  0  0  0  0  0  0
  151.3606  146.1997  159.6932 H   0  0  0  0  0  0  0  0  0  0  0  0
  152.9134  145.5284  159.2705 H   0  0  0  0  0  0  0  0  0  0  0  0
  151.2901  144.9685  157.5187 H   0  0  0  0  0  0  0  0  0  0  0  0
  150.2001  144.2608  158.6849 H   0  0  0  0  0  0  0  0  0  0  0  0
  1  2  2  0  0  0  0
  2  3  1  0  0  0  0
  2  9  1  0  0  0  0
  3  4  1  0  0  0  0
  4  8  1  0  0  0  0
  4  5  2  0  0  0  0
  5  6  1  0  0  0  0
  6  7  2  0  0  0  0
  7  8  1  0  0  0  0
  7 17  1  0  0  0  0
  9 10  1  0  0  0  0
  9 18  1  0  0  0  0
 10 16  1  0  0  0  0
 10 11  1  0  0  0  0
 10 19  1  0  0  0  0
 11 12  1  0  0  0  0
 11 20  1  0  0  0  0
 11 21  1  0  0  0  0
 12 13  1  0  0  0  0
 12 22  1  0  0  0  0
 12 23  1  0  0  0  0
 13 14  1  0  0  0  0
 13 15  1  0  0  0  0
 13 24  1  0  0  0  0
 14 25  1  0  0  0  0
 15 16  1  0  0  0  0
 15 26  1  0  0  0  0
 15 27  1  0  0  0  0
 16 28  1  0  0  0  0
 16 29  1  0  0  0  0
M  CHG  1   3  -1
M  END
> <s_m_source_file>
AV-unprocessed.smi

> <i_m_source_file_index>
1948

> <i_lp_mmshare_version>
43012

> <i_f3d_flags>
0

> <s_epik_input>
czFbY0hdbm5jMVtOSF1DKD1PKVtOSF1bQ0BASF0yW0NIMl1bQ0gyXVtDQEBIXShbT0hdKVtDSDJdW0NIMl0y

> <s_epik_cmdline>
J2VwaWtfcHl0aG9uJywgJy1waCcsICc3LjAnLCAnLXRuJywgJzgnLCAnLW1hJywgJzIwMCcsICctbWV0YWxfYmluZGluZycsICctaW1hZScsICc8aW5maWxlLm1hZT4nLCAnLW9tYWUnLCAnPG91dGZpbGUubWFlPic=

> <r_lp_tautomer_probability>
1

> <r_epik_Ionization_Penalty>
4.52057

> <r_epik_Ionization_Penalty_Charging>
4.4725

> <r_epik_Ionization_Penalty_Neutral>
0.048076

> <r_epik_State_Penalty>
4.47218

> <r_epik_Charging_Adjusted_Penalty>
8.94468

> <i_epik_Tot_Q>
-1

> <i_epik_Tot_abs_Q>
1

> <r_epik_Metal_State_Penalty>
0.805713

> <b_epik_Metal_Only>
1

> <s_lp_Force_Field>
OPLS_2005

> <r_lp_Energy>
8.18749

> <b_lp_Chiralities_Consistent>
1

> <s_lp_Variant>
AV-unprocessed.smi:1948-4

> <Gold.Version>
5.8.1

> <Gold.Id.Protein>
6NUR|6NUR_protein|mol2

> <Gold.PLP.Fitness>
43.2609

> <Gold.PLP.PLP>
-35.6909

> <Gold.PLP.part.hbond>
-4.2602

> <Gold.PLP.part.metal>
0.0000

> <Gold.PLP.part.buried>
-2.9724

> <Gold.PLP.part.nonpolar>
-28.1662

> <Gold.PLP.part.repulsive>
0.1319

> <Gold.PLP.ligand.clash>
0.0000

> <Gold.PLP.ligand.torsion>
0.0152

> <Gold.PLP.Chemscore.Hbond>
1.6784

> <Gold.PLP.Chemscore.CHOScore>
0.8528

> <Gold.PLP.Chemscore.Metal>
0.0000

> <Gold.Chemscore.Hbonds>
donor molecule, donor type, donor heavy atom, donor atom, acceptor molecule, acceptor atom, score
      P1  H  7997  8008       L1     1  0.90
      P1  H 10752 10764       L1     6  0.76
      L1  C     7    17       P1  7949  0.87

> <Gold.PLP.Chemscore.Internal.Correction>
0.0069

> <Gold.Rescore>
     Score         DG    S(hbond)    S(metal)    S(lipo)     H(rot)  DE(clash)    DE(int)     intcor
     12.10     -16.36       1.47        0.00      84.46       1.53       1.38       2.88       ----

> <Gold.Chemscore.Fitness>
12.0960

> <Gold.Chemscore.DG>
-16.3581

> <Gold.Chemscore.ZeroCoef>
-5.4800

> <Gold.Chemscore.Hbond>
1.4739

> <Gold.Chemscore.Metal>
0.0000

> <Gold.Chemscore.Lipo>
84.4554

> <Gold.Chemscore.Internal_Hbond>
0.0000

> <Gold.Chemscore.DEClash>
1.3836

> <Gold.Chemscore.DEInternal>
2.8784

> <Gold.Chemscore.Rot>
1.5337

> <Gold.Chemscore.Internal.Correction>
   9.000000E+99

> <Gold.Chemscore.Hbonds>
donor molecule, donor type, donor heavy atom, donor atom, acceptor molecule, acceptor atom, score
      P1  H  7997  8008       L1     1  0.82
      P1  H 10752 10764       L1     6  0.16

> <Gold.Chemscore.Hbond.Weighted>
-4.9230

> <Gold.Chemscore.Metal.Weighted>
-0.0000

> <Gold.Chemscore.Lipo.Weighted>
-9.8813

> <Gold.Chemscore.Internal_Hbond.Weighted>
0.0000

> <Gold.Chemscore.DEClash.Weighted>
1.3836

> <Gold.Chemscore.DEInternal.Weighted>
2.8784

> <Gold.Chemscore.Rot.Weighted>
3.9262

> <Gold.Chemscore.Internal.Correction.Weighted>
   9.000000E+99

> <Gold.Protein.RotatedTorsions>
[ 6907 6896 6895 6894 ] final   17.90 input  -60.11 | X-H torsion
[ 7974 7965 7964 7962 ] final  127.14 input  175.53 | X-H torsion
[ 8008 7997 7996 7995 ] final  -66.58 input   59.86 | X-H torsion
[ 10167 10162 10161 10158 ] final  -34.10 input  -65.29 | X-H torsion
[ 10718 10713 10712 10709 ] final -128.48 input   66.30 | X-H torsion
[ 10763 10752 10751 10750 ] final  -40.80 input  -60.55 | X-H torsion
[ 11005 11000 10999 10996 ] final   41.73 input  -57.11 | X-H torsion

> <Gold.Protein.ActiveResidues>
 VAL166  LYS551  ARG553  GLY616  TRP617  ASP618  TYR619  PRO620  LYS621  CYS622 
 ASP623  PHE694  ASN695  SER759  ASP760  ASP761  ALA762  ILE779  LEU786  VAL792 
 PHE793  MET794  SER795  GLU796  ALA797  LYS798  CYS799  TRP800  GLU811  SER814 

> <Gold.Protein.RotatedAtoms>
  151.8569  135.0538  160.0464 H   0  0  0  0  0  0  0  0  0  0  0  0  # atno 6907 bound_to 6896
  152.2693  133.5363  159.5437 H   0  0  0  0  0  0  0  0  0  0  0  0  # atno 6908 bound_to 6896
  150.7145  134.0637  159.3882 H   0  0  0  0  0  0  0  0  0  0  0  0  # atno 6909 bound_to 6896
  145.0538  139.3861  143.5040 H   0  0  0  0  0  0  0  0  0  0  0  0  # atno 7974 bound_to 7965
  154.4744  140.0910  156.7225 H   0  0  0  0  0  0  0  0  0  0  0  0  # atno 8008 bound_to 7997
  155.4637  140.3462  155.4298 H   0  0  0  0  0  0  0  0  0  0  0  0  # atno 8009 bound_to 7997
  156.1092  140.1443  156.9350 H   0  0  0  0  0  0  0  0  0  0  0  0  # atno 8010 bound_to 7997
  140.7192  143.3572  151.2035 H   0  0  0  0  0  0  0  0  0  0  0  0  # atno 10167 bound_to 10162
  156.1955  130.6823  151.0476 H   0  0  0  0  0  0  0  0  0  0  0  0  # atno 10718 bound_to 10713
  153.9519  135.6749  153.4744 H   0  0  0  0  0  0  0  0  0  0  0  0  # atno 10763 bound_to 10752
  153.0880  135.4889  154.8631 H   0  0  0  0  0  0  0  0  0  0  0  0  # atno 10764 bound_to 10752
  154.7320  135.3140  154.8834 H   0  0  0  0  0  0  0  0  0  0  0  0  # atno 10765 bound_to 10752
  140.1806  134.4108  155.8202 H   0  0  0  0  0  0  0  0  0  0  0  0  # atno 11005 bound_to 11000
  146.3520  140.0202  142.8659 LP  0  0  0  0  0  0  0  0  0  0  0  0  # atno 17320 bound_to 7965
  145.1493  140.9614  143.4442 LP  0  0  0  0  0  0  0  0  0  0  0  0  # atno 17321 bound_to 7965
  139.7116  143.9367  152.2950 LP  0  0  0  0  0  0  0  0  0  0  0  0  # atno 17342 bound_to 10162
  139.9094  144.6865  150.8578 LP  0  0  0  0  0  0  0  0  0  0  0  0  # atno 17343 bound_to 10162
  157.6955  131.0795  150.6982 LP  0  0  0  0  0  0  0  0  0  0  0  0  # atno 17370 bound_to 10713
  156.7039  130.4631  149.5565 LP  0  0  0  0  0  0  0  0  0  0  0  0  # atno 17371 bound_to 10713
  141.2223  133.6999  156.7924 LP  0  0  0  0  0  0  0  0  0  0  0  0  # atno 17394 bound_to 11000
  140.2271  134.8713  157.3438 LP  0  0  0  0  0  0  0  0  0  0  0  0  # atno 17395 bound_to 11000

$$$$
