AV-unprocessed.smi:1760|AV-procd|sdf|7094|dock10
  -GOLD-   22720 8313D 1   1.00000     0.00000
 Structure written by MMmdl.
 42 44  0  0  0  0  0  0  0  0  2 V2000
  150.2995  134.2879  155.7491 O   0  0  0  0  0  0  0  0  0  0  0  0
  149.8642  134.8391  154.7386 C   0  0  0  0  0  0  0  0  0  0  0  0
  149.1056  134.2635  153.7878 N   0  0  0  0  0  0  0  0  0  0  0  0
  148.6201  132.9468  153.7010 C   0  0  0  0  0  0  0  0  0  0  0  0
  149.2651  131.8428  154.1707 C   0  0  0  0  0  0  0  0  0  0  0  0
  148.7050  130.5022  154.0523 C   0  0  0  0  0  0  0  0  0  0  0  0
  149.4390  129.2403  154.4696 C   0  0  0  0  0  0  0  0  0  0  0  0
  148.8253  128.6463  155.4934 F   0  0  0  0  0  0  0  0  0  0  0  0
  149.5101  128.3715  153.4611 F   0  0  0  0  0  0  0  0  0  0  0  0
  150.6804  129.5411  154.8484 F   0  0  0  0  0  0  0  0  0  0  0  0
  147.4789  130.5005  153.4164 C   0  0  0  0  0  0  0  0  0  0  0  0
  146.7609  131.5456  152.9502 N   0  5  0  0  0  0  0  0  0  0  0  0
  147.2946  132.7943  153.0648 C   0  0  0  0  0  0  0  0  0  0  0  0
  146.6973  133.7894  152.6525 O   0  0  0  0  0  0  0  0  0  0  0  0
  150.1134  136.1207  154.4325 N   0  0  0  0  0  0  0  0  0  0  0  0
  150.9272  137.0472  155.2157 C   0  0  0  0  0  0  0  0  0  0  0  0
  150.1889  137.4445  156.5035 C   0  0  0  0  0  0  0  0  0  0  0  0
  150.9574  138.5401  157.2634 C   0  0  0  0  0  0  0  0  0  0  0  0
  151.1353  139.7163  156.4117 N   0  0  0  0  0  0  0  0  0  0  0  0
  151.8239  140.7468  157.1717 C   0  0  0  0  0  0  0  0  0  0  0  0
  151.2931  141.0718  158.5493 C   0  0  0  0  0  0  0  0  0  0  0  0
  151.0889  142.0454  157.4140 C   0  0  0  0  0  0  0  0  0  0  0  0
  151.9469  139.3682  155.2452 C   0  0  0  0  0  0  0  0  0  0  0  0
  151.2261  138.3094  154.3920 C   0  0  0  0  0  0  0  0  0  0  0  0
  148.8733  134.8397  152.9920 H   0  0  0  0  0  0  0  0  0  0  0  0
  150.2180  131.9248  154.6658 H   0  0  0  0  0  0  0  0  0  0  0  0
  147.0064  129.5086  153.2521 H   0  0  0  0  0  0  0  0  0  0  0  0
  149.7157  136.4836  153.5786 H   0  0  0  0  0  0  0  0  0  0  0  0
  151.8779  136.5880  155.4927 H   0  0  0  0  0  0  0  0  0  0  0  0
  149.1869  137.8056  156.2654 H   0  0  0  0  0  0  0  0  0  0  0  0
  150.0597  136.5717  157.1444 H   0  0  0  0  0  0  0  0  0  0  0  0
  150.4007  138.8196  158.1585 H   0  0  0  0  0  0  0  0  0  0  0  0
  151.9268  138.1632  157.5938 H   0  0  0  0  0  0  0  0  0  0  0  0
  152.9029  140.8397  157.0591 H   0  0  0  0  0  0  0  0  0  0  0  0
  150.4214  140.5241  158.9029 H   0  0  0  0  0  0  0  0  0  0  0  0
  152.0186  141.3368  159.3156 H   0  0  0  0  0  0  0  0  0  0  0  0
  151.6778  142.9602  157.4241 H   0  0  0  0  0  0  0  0  0  0  0  0
  150.0811  142.1446  157.0147 H   0  0  0  0  0  0  0  0  0  0  0  0
  152.1222  140.2612  154.6440 H   0  0  0  0  0  0  0  0  0  0  0  0
  152.9239  138.9985  155.5615 H   0  0  0  0  0  0  0  0  0  0  0  0
  151.8384  138.0533  153.5268 H   0  0  0  0  0  0  0  0  0  0  0  0
  150.2985  138.7309  154.0014 H   0  0  0  0  0  0  0  0  0  0  0  0
  1  2  2  0  0  0  0
  2  3  1  0  0  0  0
  2 15  1  0  0  0  0
  3  4  1  0  0  0  0
  3 25  1  0  0  0  0
  4 13  1  0  0  0  0
  4  5  2  0  0  0  0
  5  6  1  0  0  0  0
  5 26  1  0  0  0  0
  6  7  1  0  0  0  0
  6 11  2  0  0  0  0
  7  8  1  0  0  0  0
  7  9  1  0  0  0  0
  7 10  1  0  0  0  0
 11 12  1  0  0  0  0
 11 27  1  0  0  0  0
 12 13  1  0  0  0  0
 13 14  2  0  0  0  0
 15 16  1  0  0  0  0
 15 28  1  0  0  0  0
 16 24  1  0  0  0  0
 16 17  1  0  0  0  0
 16 29  1  0  0  0  0
 17 18  1  0  0  0  0
 17 30  1  0  0  0  0
 17 31  1  0  0  0  0
 18 19  1  0  0  0  0
 18 32  1  0  0  0  0
 18 33  1  0  0  0  0
 19 20  1  0  0  0  0
 19 23  1  0  0  0  0
 20 22  1  0  0  0  0
 20 21  1  0  0  0  0
 20 34  1  0  0  0  0
 21 22  1  0  0  0  0
 21 35  1  0  0  0  0
 21 36  1  0  0  0  0
 22 37  1  0  0  0  0
 22 38  1  0  0  0  0
 23 24  1  0  0  0  0
 23 39  1  0  0  0  0
 23 40  1  0  0  0  0
 24 41  1  0  0  0  0
 24 42  1  0  0  0  0
M  CHG  1  12  -1
M  END
> <s_m_source_file>
AV-unprocessed.smi

> <i_m_source_file_index>
1760

> <i_lp_mmshare_version>
43012

> <i_f3d_flags>
0

> <s_epik_input>
W0NIMl0xW0NIMl1bQ0hdMU4oW0NIMl1bQ0gyXTIpW0NIMl1bQ0gyXVtDSF0yW05IXUMoPU8pW05IXWMzW2NIXWMoQyhGKShGKUYpW2NIXVtuSF1jMz1P

> <s_epik_cmdline>
J2VwaWtfcHl0aG9uJywgJy1waCcsICc3LjAnLCAnLXRuJywgJzgnLCAnLW1hJywgJzIwMCcsICctbWV0YWxfYmluZGluZycsICctaW1hZScsICc8aW5maWxlLm1hZT4nLCAnLW9tYWUnLCAnPG91dGZpbGUubWFlPic=

> <r_lp_tautomer_probability>
0.999

> <r_epik_Ionization_Penalty>
4.20788

> <r_epik_Ionization_Penalty_Charging>
0.176783

> <r_epik_Ionization_Penalty_Neutral>
4.0311

> <r_epik_State_Penalty>
4.02505

> <r_epik_Charging_Adjusted_Penalty>
4.20183

> <i_epik_Tot_Q>
-1

> <i_epik_Tot_abs_Q>
1

> <r_epik_Metal_State_Penalty>
1.4828

> <b_epik_Metal_Only>
1

> <s_lp_Force_Field>
OPLS_2005

> <r_lp_Energy>
35.3535

> <b_lp_Chiralities_Consistent>
1

> <s_lp_Variant>
AV-unprocessed.smi:1760-6

> <Gold.Version>
5.8.1

> <Gold.Id.Protein>
6NUR|6NUR_protein|mol2

> <Gold.PLP.Fitness>
40.2759

> <Gold.PLP.PLP>
-36.2106

> <Gold.PLP.part.hbond>
-2.7145

> <Gold.PLP.part.metal>
0.0000

> <Gold.PLP.part.buried>
-2.8952

> <Gold.PLP.part.nonpolar>
-30.5336

> <Gold.PLP.part.repulsive>
0.3551

> <Gold.PLP.ligand.clash>
0.0000

> <Gold.PLP.ligand.torsion>
1.3571

> <Gold.PLP.Chemscore.Hbond>
1.8500

> <Gold.PLP.Chemscore.CHOScore>
0.0000

> <Gold.PLP.Chemscore.Metal>
0.0000

> <Gold.Chemscore.Hbonds>
donor molecule, donor type, donor heavy atom, donor atom, acceptor molecule, acceptor atom, score
      L1  H     3    25       P1  7948  0.85
      L1  H    15    28       P1  7948  1.00

> <Gold.PLP.Chemscore.Internal.Correction>
1.2296

> <Gold.Rescore>
     Score         DG    S(hbond)    S(metal)    S(lipo)     H(rot)  DE(clash)    DE(int)     intcor
     13.42     -15.35       1.46        0.00      70.45       1.26       0.12       1.81       ----

> <Gold.Chemscore.Fitness>
13.4239

> <Gold.Chemscore.DG>
-15.3549

> <Gold.Chemscore.ZeroCoef>
-5.4800

> <Gold.Chemscore.Hbond>
1.4578

> <Gold.Chemscore.Metal>
0.0000

> <Gold.Chemscore.Lipo>
70.4483

> <Gold.Chemscore.Internal_Hbond>
0.0000

> <Gold.Chemscore.DEClash>
0.1235

> <Gold.Chemscore.DEInternal>
1.8075

> <Gold.Chemscore.Rot>
1.2644

> <Gold.Chemscore.Internal.Correction>
   9.000000E+99

> <Gold.Chemscore.Hbonds>
donor molecule, donor type, donor heavy atom, donor atom, acceptor molecule, acceptor atom, score
      L1  H     3    25       P1  7948  0.15
      L1  H    15    28       P1  7948  0.43

> <Gold.Chemscore.Hbond.Weighted>
-4.8692

> <Gold.Chemscore.Metal.Weighted>
-0.0000

> <Gold.Chemscore.Lipo.Weighted>
-8.2424

> <Gold.Chemscore.Internal_Hbond.Weighted>
0.0000

> <Gold.Chemscore.DEClash.Weighted>
0.1235

> <Gold.Chemscore.DEInternal.Weighted>
1.8075

> <Gold.Chemscore.Rot.Weighted>
3.2367

> <Gold.Chemscore.Internal.Correction.Weighted>
   9.000000E+99

> <Gold.Protein.RotatedTorsions>
[ 6907 6896 6895 6894 ] final   65.09 input  -60.11 | X-H torsion
[ 7974 7965 7964 7962 ] final -179.27 input  175.53 | X-H torsion
[ 8008 7997 7996 7995 ] final  -34.84 input   59.86 | X-H torsion
[ 10167 10162 10161 10158 ] final  -11.83 input  -65.29 | X-H torsion
[ 10718 10713 10712 10709 ] final  131.44 input   66.30 | X-H torsion
[ 10763 10752 10751 10750 ] final   -7.21 input  -60.55 | X-H torsion
[ 11005 11000 10999 10996 ] final -179.65 input  -57.11 | X-H torsion

> <Gold.Protein.ActiveResidues>
 VAL166  LYS551  ARG553  GLY616  TRP617  ASP618  TYR619  PRO620  LYS621  CYS622 
 ASP623  PHE694  ASN695  SER759  ASP760  ASP761  ALA762  ILE779  LEU786  VAL792 
 PHE793  MET794  SER795  GLU796  ALA797  LYS798  CYS799  TRP800  GLU811  SER814 

> <Gold.Protein.RotatedAtoms>
  152.4381  134.5645  159.9903 H   0  0  0  0  0  0  0  0  0  0  0  0  # atno 6907 bound_to 6896
  151.5750  133.3379  159.3005 H   0  0  0  0  0  0  0  0  0  0  0  0  # atno 6908 bound_to 6896
  150.8283  134.7559  159.6896 H   0  0  0  0  0  0  0  0  0  0  0  0  # atno 6909 bound_to 6896
  144.7135  140.0743  143.6428 H   0  0  0  0  0  0  0  0  0  0  0  0  # atno 7974 bound_to 7965
  154.4110  140.1673  156.2115 H   0  0  0  0  0  0  0  0  0  0  0  0  # atno 8008 bound_to 7997
  155.9440  140.3406  155.6328 H   0  0  0  0  0  0  0  0  0  0  0  0  # atno 8009 bound_to 7997
  155.6954  140.0738  157.2422 H   0  0  0  0  0  0  0  0  0  0  0  0  # atno 8010 bound_to 7997
  140.7147  143.5597  150.9209 H   0  0  0  0  0  0  0  0  0  0  0  0  # atno 10167 bound_to 10162
  157.4967  131.1092  150.9483 H   0  0  0  0  0  0  0  0  0  0  0  0  # atno 10718 bound_to 10713
  153.4232  135.7010  153.6280 H   0  0  0  0  0  0  0  0  0  0  0  0  # atno 10763 bound_to 10752
  153.4726  135.3711  155.2399 H   0  0  0  0  0  0  0  0  0  0  0  0  # atno 10764 bound_to 10752
  154.8723  135.4046  154.3603 H   0  0  0  0  0  0  0  0  0  0  0  0  # atno 10765 bound_to 10752
  140.4163  134.6647  157.4640 H   0  0  0  0  0  0  0  0  0  0  0  0  # atno 11005 bound_to 11000
  145.9756  139.2902  143.1072 LP  0  0  0  0  0  0  0  0  0  0  0  0  # atno 17320 bound_to 7965
  145.9068  140.9207  143.0475 LP  0  0  0  0  0  0  0  0  0  0  0  0  # atno 17321 bound_to 7965
  139.9322  143.6479  152.3073 LP  0  0  0  0  0  0  0  0  0  0  0  0  # atno 17342 bound_to 10162
  139.6934  144.7644  151.1398 LP  0  0  0  0  0  0  0  0  0  0  0  0  # atno 17343 bound_to 10162
  157.0167  130.5658  149.5326 LP  0  0  0  0  0  0  0  0  0  0  0  0  # atno 17370 bound_to 10713
  156.0205  130.5299  150.8261 LP  0  0  0  0  0  0  0  0  0  0  0  0  # atno 17371 bound_to 10713
  140.0232  134.6516  155.9210 LP  0  0  0  0  0  0  0  0  0  0  0  0  # atno 17394 bound_to 11000
  141.1802  133.6545  156.4988 LP  0  0  0  0  0  0  0  0  0  0  0  0  # atno 17395 bound_to 11000

$$$$
