AV-unprocessed.smi:1005|AV-procd|sdf|4364|dock5
  -GOLD-   22720 2263D 1   1.00000     0.00000
 Structure written by MMmdl.
 56 58  0  0  0  0  0  0  0  0  2 V2000
  152.9764  142.6071  161.6841 C   0  0  0  0  0  0  0  0  0  0  0  0
  152.4540  142.3640  160.2792 C   0  0  0  0  0  0  0  0  0  0  0  0
  152.8212  141.1776  159.6052 C   0  0  0  0  0  0  0  0  0  0  0  0
  152.3551  140.9126  158.2990 C   0  0  0  0  0  0  0  0  0  0  0  0
  152.5820  139.8301  157.4666 N   0  0  0  0  0  0  0  0  0  0  0  0
  151.8765  140.1671  156.3912 C   0  0  0  0  0  0  0  0  0  0  0  0
  151.2107  141.3370  156.4314 N   0  0  0  0  0  0  0  0  0  0  0  0
  150.3705  141.8963  155.3876 C   0  0  0  0  0  0  0  0  0  0  0  0
  149.3286  140.8841  154.8760 C   0  0  2  0  0  0  0  0  0  0  0  0
  149.9612  140.0577  153.9214 O   0  0  0  0  0  0  0  0  0  0  0  0
  148.1061  141.5509  154.2050 C   0  0  0  0  0  0  0  0  0  0  0  0
  147.1674  142.1998  155.1208 N   0  0  0  0  0  0  0  0  0  0  0  0
  146.5711  141.2246  156.0270 C   0  0  0  0  0  0  0  0  0  0  0  0
  145.5705  141.8774  156.9944 C   0  0  0  0  0  0  0  0  0  0  0  0
  144.5642  142.5542  156.2486 O   0  0  0  0  0  0  0  0  0  0  0  0
  145.0906  143.5564  155.3822 C   0  0  2  0  0  0  0  0  0  0  0  0
  143.9143  144.2008  154.6280 C   0  0  0  0  0  0  0  0  0  0  0  0
  143.0690  145.0481  155.5070 N   0  3  0  0  0  0  0  0  0  0  0  0
  143.8240  146.1276  156.1839 C   0  0  0  0  0  0  0  0  0  0  0  0
  141.8830  145.5774  154.7982 C   0  0  0  0  0  0  0  0  0  0  0  0
  146.0934  142.8970  154.4138 C   0  0  0  0  0  0  0  0  0  0  0  0
  151.5042  141.8747  157.6801 C   0  0  0  0  0  0  0  0  0  0  0  0
  151.1326  143.0594  158.3401 C   0  0  0  0  0  0  0  0  0  0  0  0
  151.6087  143.3092  159.6443 C   0  0  0  0  0  0  0  0  0  0  0  0
  151.2014  144.5914  160.3479 C   0  0  0  0  0  0  0  0  0  0  0  0
  153.5658  141.7625  162.0423 H   0  0  0  0  0  0  0  0  0  0  0  0
  152.1503  142.7557  162.3797 H   0  0  0  0  0  0  0  0  0  0  0  0
  153.6122  143.4925  161.7063 H   0  0  0  0  0  0  0  0  0  0  0  0
  153.4651  140.4573  160.0880 H   0  0  0  0  0  0  0  0  0  0  0  0
  151.8338  139.5224  155.5254 H   0  0  0  0  0  0  0  0  0  0  0  0
  149.8799  142.7924  155.7694 H   0  0  0  0  0  0  0  0  0  0  0  0
  151.0179  142.2192  154.5710 H   0  0  0  0  0  0  0  0  0  0  0  0
  149.0292  140.2549  155.7129 H   0  0  0  0  0  0  0  0  0  0  0  0
  149.5100  140.1550  153.0966 H   0  0  0  0  0  0  0  0  0  0  0  0
  148.4381  142.2919  153.4778 H   0  0  0  0  0  0  0  0  0  0  0  0
  147.5853  140.7920  153.6190 H   0  0  0  0  0  0  0  0  0  0  0  0
  146.0633  140.4476  155.4532 H   0  0  0  0  0  0  0  0  0  0  0  0
  147.3527  140.7263  156.6019 H   0  0  0  0  0  0  0  0  0  0  0  0
  145.1012  141.1206  157.6230 H   0  0  0  0  0  0  0  0  0  0  0  0
  146.0760  142.5792  157.6595 H   0  0  0  0  0  0  0  0  0  0  0  0
  145.6173  144.3049  155.9748 H   0  0  0  0  0  0  0  0  0  0  0  0
  144.2757  144.7967  153.7884 H   0  0  0  0  0  0  0  0  0  0  0  0
  143.3084  143.4021  154.1970 H   0  0  0  0  0  0  0  0  0  0  0  0
  144.2623  146.8131  155.4573 H   0  0  0  0  0  0  0  0  0  0  0  0
  144.6257  145.7289  156.8045 H   0  0  0  0  0  0  0  0  0  0  0  0
  143.1667  146.7024  156.8372 H   0  0  0  0  0  0  0  0  0  0  0  0
  142.1778  146.2299  153.9754 H   0  0  0  0  0  0  0  0  0  0  0  0
  141.2493  146.1480  155.4780 H   0  0  0  0  0  0  0  0  0  0  0  0
  141.2793  144.7646  154.3926 H   0  0  0  0  0  0  0  0  0  0  0  0
  146.5026  143.6684  153.7634 H   0  0  0  0  0  0  0  0  0  0  0  0
  145.5641  142.1963  153.7658 H   0  0  0  0  0  0  0  0  0  0  0  0
  150.4850  143.7693  157.8473 H   0  0  0  0  0  0  0  0  0  0  0  0
  150.6077  145.2319  159.6951 H   0  0  0  0  0  0  0  0  0  0  0  0
  152.0811  145.1560  160.6575 H   0  0  0  0  0  0  0  0  0  0  0  0
  150.6039  144.3670  161.2317 H   0  0  0  0  0  0  0  0  0  0  0  0
  142.7112  144.4402  156.2307 H   0  0  0  0  0  0  0  0  0  0  0  0
  1  2  1  0  0  0  0
  1 26  1  0  0  0  0
  1 27  1  0  0  0  0
  1 28  1  0  0  0  0
  2 24  1  0  0  0  0
  2  3  2  0  0  0  0
  3  4  1  0  0  0  0
  3 29  1  0  0  0  0
  4 22  2  0  0  0  0
  4  5  1  0  0  0  0
  5  6  2  0  0  0  0
  6  7  1  0  0  0  0
  6 30  1  0  0  0  0
  7  8  1  0  0  0  0
  7 22  1  0  0  0  0
  8  9  1  0  0  0  0
  8 31  1  0  0  0  0
  8 32  1  0  0  0  0
  9 10  1  0  0  0  0
  9 11  1  0  0  0  0
  9 33  1  0  0  0  0
 10 34  1  0  0  0  0
 11 12  1  0  0  0  0
 11 35  1  0  0  0  0
 11 36  1  0  0  0  0
 12 21  1  0  0  0  0
 12 13  1  0  0  0  0
 13 14  1  0  0  0  0
 13 37  1  0  0  0  0
 13 38  1  0  0  0  0
 14 15  1  0  0  0  0
 14 39  1  0  0  0  0
 14 40  1  0  0  0  0
 15 16  1  0  0  0  0
 16 17  1  0  0  0  0
 16 21  1  0  0  0  0
 16 41  1  0  0  0  0
 17 18  1  0  0  0  0
 17 42  1  0  0  0  0
 17 43  1  0  0  0  0
 18 19  1  0  0  0  0
 18 20  1  0  0  0  0
 18 56  1  0  0  0  0
 19 44  1  0  0  0  0
 19 45  1  0  0  0  0
 19 46  1  0  0  0  0
 20 47  1  0  0  0  0
 20 48  1  0  0  0  0
 20 49  1  0  0  0  0
 21 50  1  0  0  0  0
 21 51  1  0  0  0  0
 22 23  1  0  0  0  0
 23 24  2  0  0  0  0
 23 52  1  0  0  0  0
 24 25  1  0  0  0  0
 25 53  1  0  0  0  0
 25 54  1  0  0  0  0
 25 55  1  0  0  0  0
M  CHG  1  18   1
M  END
> <s_m_source_file>
AV-unprocessed.smi

> <i_m_source_file_index>
1005

> <i_lp_mmshare_version>
43012

> <i_f3d_flags>
0

> <s_epik_input>
W0NIM11jKFtjSF0xKWMoW0NIM10pW2NIXWMoYzEyKW4oW2NIXW4yKVtDSDJdW0NASF0oW09IXSlbQ0gyXU4zW0NIMl1bQ0gyXU9bQ0BIXShbQ0gyXTMpW0NIMl1OKFtDSDNdKVtDSDNd

> <s_epik_cmdline>
J2VwaWtfcHl0aG9uJywgJy1waCcsICc3LjAnLCAnLXRuJywgJzgnLCAnLW1hJywgJzIwMCcsICctbWV0YWxfYmluZGluZycsICctaW1hZScsICc8aW5maWxlLm1hZT4nLCAnLW9tYWUnLCAnPG91dGZpbGUubWFlPic=

> <r_epik_Ionization_Penalty>
0.226781

> <r_epik_Ionization_Penalty_Charging>
0.00915946

> <r_epik_Ionization_Penalty_Neutral>
0.217622

> <r_epik_State_Penalty>
0.173018

> <r_epik_Charging_Adjusted_Penalty>
0.182178

> <i_epik_Tot_Q>
1

> <i_epik_Tot_abs_Q>
1

> <r_epik_Metal_State_Penalty>
0.0905268

> <b_epik_Metal_Only>
0

> <s_lp_Force_Field>
OPLS_2005

> <r_lp_Energy>
37.9452

> <b_lp_Chiralities_Consistent>
1

> <s_lp_Variant>
AV-unprocessed.smi:1005-3

> <Gold.Version>
5.8.1

> <Gold.Id.Protein>
6NUR|6NUR_protein|mol2

> <Gold.PLP.Fitness>
56.6837

> <Gold.PLP.PLP>
-49.1817

> <Gold.PLP.part.hbond>
-3.0000

> <Gold.PLP.part.metal>
0.0000

> <Gold.PLP.part.buried>
-7.4417

> <Gold.PLP.part.nonpolar>
-39.3990

> <Gold.PLP.part.repulsive>
1.2882

> <Gold.PLP.ligand.clash>
0.0000

> <Gold.PLP.ligand.torsion>
0.4733

> <Gold.PLP.Chemscore.Hbond>
2.7328

> <Gold.PLP.Chemscore.CHOScore>
0.0000

> <Gold.PLP.Chemscore.Metal>
0.0000

> <Gold.Chemscore.Hbonds>
donor molecule, donor type, donor heavy atom, donor atom, acceptor molecule, acceptor atom, score
      L1  H    10    34       P1  7957  0.94
      P1  H  7989  7998       L1    10  0.81
      P1  H  7997  8008       L1     5  1.00

> <Gold.PLP.Chemscore.Internal.Correction>
0.2503

> <Gold.Rescore>
     Score         DG    S(hbond)    S(metal)    S(lipo)     H(rot)  DE(clash)    DE(int)     intcor
     17.36     -19.88       1.46        0.00     134.22       2.41       2.04       0.48       ----

> <Gold.Chemscore.Fitness>
17.3570

> <Gold.Chemscore.DG>
-19.8775

> <Gold.Chemscore.ZeroCoef>
-5.4800

> <Gold.Chemscore.Hbond>
1.4588

> <Gold.Chemscore.Metal>
0.0000

> <Gold.Chemscore.Lipo>
134.2219

> <Gold.Chemscore.Internal_Hbond>
0.0000

> <Gold.Chemscore.DEClash>
2.0365

> <Gold.Chemscore.DEInternal>
0.4841

> <Gold.Chemscore.Rot>
2.4136

> <Gold.Chemscore.Internal.Correction>
   9.000000E+99

> <Gold.Chemscore.Hbonds>
donor molecule, donor type, donor heavy atom, donor atom, acceptor molecule, acceptor atom, score
      L1  H    10    34       P1  7957  0.90
      P1  H  7989  7998       L1    10  0.11
      P1  H  7997  8008       L1     5  0.12

> <Gold.Chemscore.Hbond.Weighted>
-4.8723

> <Gold.Chemscore.Metal.Weighted>
-0.0000

> <Gold.Chemscore.Lipo.Weighted>
-15.7040

> <Gold.Chemscore.Internal_Hbond.Weighted>
0.0000

> <Gold.Chemscore.DEClash.Weighted>
2.0365

> <Gold.Chemscore.DEInternal.Weighted>
0.4841

> <Gold.Chemscore.Rot.Weighted>
6.1788

> <Gold.Chemscore.Internal.Correction.Weighted>
   9.000000E+99

> <Gold.Protein.RotatedTorsions>
[ 6907 6896 6895 6894 ] final  124.85 input  -60.11 | X-H torsion
[ 7974 7965 7964 7962 ] final -137.99 input  175.53 | X-H torsion
[ 8008 7997 7996 7995 ] final  -68.60 input   59.86 | X-H torsion
[ 10167 10162 10161 10158 ] final   64.74 input  -65.29 | X-H torsion
[ 10718 10713 10712 10709 ] final    3.76 input   66.30 | X-H torsion
[ 10763 10752 10751 10750 ] final  174.66 input  -60.55 | X-H torsion
[ 11005 11000 10999 10996 ] final  -25.93 input  -57.11 | X-H torsion

> <Gold.Protein.ActiveResidues>
 VAL166  LYS551  ARG553  GLY616  TRP617  ASP618  TYR619  PRO620  LYS621  CYS622 
 ASP623  PHE694  ASN695  SER759  ASP760  ASP761  ALA762  ILE779  LEU786  VAL792 
 PHE793  MET794  SER795  GLU796  ALA797  LYS798  CYS799  TRP800  GLU811  SER814 

> <Gold.Protein.RotatedAtoms>
  152.4042  133.6864  159.6342 H   0  0  0  0  0  0  0  0  0  0  0  0  # atno 6907 bound_to 6896
  150.7929  133.8737  159.3275 H   0  0  0  0  0  0  0  0  0  0  0  0  # atno 6908 bound_to 6896
  151.6495  135.1005  160.0209 H   0  0  0  0  0  0  0  0  0  0  0  0  # atno 6909 bound_to 6896
  144.8795  140.6487  143.5215 H   0  0  0  0  0  0  0  0  0  0  0  0  # atno 7974 bound_to 7965
  154.4879  140.0870  156.7528 H   0  0  0  0  0  0  0  0  0  0  0  0  # atno 8008 bound_to 7997
  155.4304  140.3449  155.4261 H   0  0  0  0  0  0  0  0  0  0  0  0  # atno 8009 bound_to 7997
  156.1288  140.1495  156.9085 H   0  0  0  0  0  0  0  0  0  0  0  0  # atno 8010 bound_to 7997
  140.1189  144.4749  150.6932 H   0  0  0  0  0  0  0  0  0  0  0  0  # atno 10167 bound_to 10162
  156.8825  130.5659  149.5652 H   0  0  0  0  0  0  0  0  0  0  0  0  # atno 10718 bound_to 10713
  154.4569  135.2766  155.1741 H   0  0  0  0  0  0  0  0  0  0  0  0  # atno 10763 bound_to 10752
  154.3544  135.6143  153.5663 H   0  0  0  0  0  0  0  0  0  0  0  0  # atno 10764 bound_to 10752
  152.9851  135.5819  154.4924 H   0  0  0  0  0  0  0  0  0  0  0  0  # atno 10765 bound_to 10752
  140.8983  133.7541  156.0510 H   0  0  0  0  0  0  0  0  0  0  0  0  # atno 11005 bound_to 11000
  145.3980  139.1603  143.4193 LP  0  0  0  0  0  0  0  0  0  0  0  0  # atno 17320 bound_to 7965
  146.2985  140.4074  142.8713 LP  0  0  0  0  0  0  0  0  0  0  0  0  # atno 17321 bound_to 7965
  140.6883  143.2362  151.5200 LP  0  0  0  0  0  0  0  0  0  0  0  0  # atno 17342 bound_to 10162
  139.5579  144.2229  152.1643 LP  0  0  0  0  0  0  0  0  0  0  0  0  # atno 17343 bound_to 10162
  156.0670  130.5711  150.9308 LP  0  0  0  0  0  0  0  0  0  0  0  0  # atno 17370 bound_to 10713
  157.6132  131.0935  150.8758 LP  0  0  0  0  0  0  0  0  0  0  0  0  # atno 17371 bound_to 10713
  140.8262  134.3232  157.5365 LP  0  0  0  0  0  0  0  0  0  0  0  0  # atno 17394 bound_to 11000
  139.8738  134.9337  156.3588 LP  0  0  0  0  0  0  0  0  0  0  0  0  # atno 17395 bound_to 11000

$$$$
