AV-unprocessed.smi:1429|AV-procd|sdf|5818|dock7
  -GOLD-   22720 5473D 1   1.00000     0.00000
 Structure written by MMmdl.
 30 31  0  0  0  0  0  0  0  0  1 V2000
  150.7791  134.9408  156.2141 C   0  0  0  0  0  0  0  0  0  0  0  0
  150.7748  136.0768  157.1791 C   0  0  0  0  0  0  0  0  0  0  0  0
  150.0794  136.0503  158.3223 N   0  0  0  0  0  0  0  0  0  0  0  0
  150.2280  137.2191  159.0558 N   0  0  0  0  0  0  0  0  0  0  0  0
  151.0324  138.0966  158.4405 C   0  0  0  0  0  0  0  0  0  0  0  0
  151.3567  139.3743  158.9686 N   0  0  0  0  0  0  0  0  0  0  0  0
  152.5358  140.0192  158.9238 C   0  0  0  0  0  0  0  0  0  0  0  0
  153.5624  139.5911  158.3957 O   0  0  0  0  0  0  0  0  0  0  0  0
  152.4623  141.2095  159.5364 N   0  0  0  0  0  0  0  0  0  0  0  0
  153.5684  142.1526  159.6655 C   0  0  0  0  0  0  0  0  0  0  0  0
  153.1069  143.6134  159.5025 C   0  0  2  0  0  0  0  0  0  0  0  0
  152.2055  144.1238  160.6098 C   0  0  0  0  0  0  0  0  0  0  0  0
  151.5582  145.3341  159.9461 C   0  0  0  0  0  0  0  0  0  0  0  0
  151.4289  144.9911  158.5700 O   0  0  0  0  0  0  0  0  0  0  0  0
  152.2348  143.8543  158.2698 C   0  0  0  0  0  0  0  0  0  0  0  0
  151.6786  137.5604  156.8989 S   0  0  0  0  0  0  0  0  0  0  0  0
  150.7162  133.9908  156.7458 H   0  0  0  0  0  0  0  0  0  0  0  0
  151.6961  134.9490  155.6247 H   0  0  0  0  0  0  0  0  0  0  0  0
  149.9273  135.0231  155.5391 H   0  0  0  0  0  0  0  0  0  0  0  0
  150.6015  139.8535  159.4364 H   0  0  0  0  0  0  0  0  0  0  0  0
  151.5801  141.4842  159.9435 H   0  0  0  0  0  0  0  0  0  0  0  0
  154.0601  142.0179  160.6303 H   0  0  0  0  0  0  0  0  0  0  0  0
  154.3112  141.9064  158.9060 H   0  0  0  0  0  0  0  0  0  0  0  0
  153.9777  144.2680  159.4366 H   0  0  0  0  0  0  0  0  0  0  0  0
  151.4458  143.3810  160.8582 H   0  0  0  0  0  0  0  0  0  0  0  0
  152.7459  144.3802  161.5216 H   0  0  0  0  0  0  0  0  0  0  0  0
  150.5946  145.5893  160.3876 H   0  0  0  0  0  0  0  0  0  0  0  0
  152.2099  146.2049  160.0275 H   0  0  0  0  0  0  0  0  0  0  0  0
  152.8276  144.0152  157.3690 H   0  0  0  0  0  0  0  0  0  0  0  0
  151.5729  143.0061  158.0891 H   0  0  0  0  0  0  0  0  0  0  0  0
  1  2  1  0  0  0  0
  1 17  1  0  0  0  0
  1 18  1  0  0  0  0
  1 19  1  0  0  0  0
  2 16  1  0  0  0  0
  2  3  2  0  0  0  0
  3  4  1  0  0  0  0
  4  5  2  0  0  0  0
  5  6  1  0  0  0  0
  5 16  1  0  0  0  0
  6  7  1  0  0  0  0
  6 20  1  0  0  0  0
  7  8  2  0  0  0  0
  7  9  1  0  0  0  0
  9 10  1  0  0  0  0
  9 21  1  0  0  0  0
 10 11  1  0  0  0  0
 10 22  1  0  0  0  0
 10 23  1  0  0  0  0
 11 15  1  0  0  0  0
 11 12  1  0  0  0  0
 11 24  1  0  0  0  0
 12 13  1  0  0  0  0
 12 25  1  0  0  0  0
 12 26  1  0  0  0  0
 13 14  1  0  0  0  0
 13 27  1  0  0  0  0
 13 28  1  0  0  0  0
 14 15  1  0  0  0  0
 15 29  1  0  0  0  0
 15 30  1  0  0  0  0
M  END
> <s_m_source_file>
AV-unprocessed.smi

> <i_m_source_file_index>
1429

> <i_lp_mmshare_version>
43012

> <i_f3d_flags>
0

> <s_epik_input>
W0NIM11jMW5uYyhzMSlbTkhdQyg9TylbTkhdW0NIMl1bQ0BASF0yW0NIMl1bQ0gyXU9bQ0gyXTI=

> <s_epik_cmdline>
J2VwaWtfcHl0aG9uJywgJy1waCcsICc3LjAnLCAnLXRuJywgJzgnLCAnLW1hJywgJzIwMCcsICctbWV0YWxfYmluZGluZycsICctaW1hZScsICc8aW5maWxlLm1hZT4nLCAnLW9tYWUnLCAnPG91dGZpbGUubWFlPic=

> <r_lp_tautomer_probability>
1

> <r_epik_Ionization_Penalty>
0.000468089

> <r_epik_Ionization_Penalty_Charging>
0

> <r_epik_Ionization_Penalty_Neutral>
0.000468089

> <r_epik_State_Penalty>
-0

> <r_epik_Charging_Adjusted_Penalty>
0

> <i_epik_Tot_Q>
0

> <i_epik_Tot_abs_Q>
0

> <r_epik_Metal_State_Penalty>
0.211262

> <b_epik_Metal_Only>
0

> <s_lp_Force_Field>
OPLS_2005

> <r_lp_Energy>
16.548

> <b_lp_Chiralities_Consistent>
1

> <s_lp_Variant>
AV-unprocessed.smi:1429-1

> <Gold.Version>
5.8.1

> <Gold.Id.Protein>
6NUR|6NUR_protein|mol2

> <Gold.PLP.Fitness>
34.6897

> <Gold.PLP.PLP>
-29.7230

> <Gold.PLP.part.hbond>
-2.0000

> <Gold.PLP.part.metal>
0.0000

> <Gold.PLP.part.buried>
-5.8333

> <Gold.PLP.part.nonpolar>
-22.1815

> <Gold.PLP.part.repulsive>
0.4063

> <Gold.PLP.ligand.clash>
0.0000

> <Gold.PLP.ligand.torsion>
0.4828

> <Gold.PLP.Chemscore.Hbond>
1.9760

> <Gold.PLP.Chemscore.CHOScore>
0.0000

> <Gold.PLP.Chemscore.Metal>
0.0000

> <Gold.Chemscore.Hbonds>
donor molecule, donor type, donor heavy atom, donor atom, acceptor molecule, acceptor atom, score
      P1  H  6896  6909       L1     3  0.96
      P1  H  7997  8009       L1     8  1.00

> <Gold.PLP.Chemscore.Internal.Correction>
0.0042

> <Gold.Rescore>
     Score         DG    S(hbond)    S(metal)    S(lipo)     H(rot)  DE(clash)    DE(int)     intcor
     16.08     -16.70       1.77        0.00      74.21       1.31       0.03       0.58       ----

> <Gold.Chemscore.Fitness>
16.0828

> <Gold.Chemscore.DG>
-16.6982

> <Gold.Chemscore.ZeroCoef>
-5.4800

> <Gold.Chemscore.Hbond>
1.7650

> <Gold.Chemscore.Metal>
0.0000

> <Gold.Chemscore.Lipo>
74.2136

> <Gold.Chemscore.Internal_Hbond>
0.0000

> <Gold.Chemscore.DEClash>
0.0347

> <Gold.Chemscore.DEInternal>
0.5807

> <Gold.Chemscore.Rot>
1.3125

> <Gold.Chemscore.Internal.Correction>
   9.000000E+99

> <Gold.Chemscore.Hbonds>
donor molecule, donor type, donor heavy atom, donor atom, acceptor molecule, acceptor atom, score
      P1  H  6896  6909       L1     3  0.23
      P1  H  7997  8009       L1     8  1.00

> <Gold.Chemscore.Hbond.Weighted>
-5.8952

> <Gold.Chemscore.Metal.Weighted>
-0.0000

> <Gold.Chemscore.Lipo.Weighted>
-8.6830

> <Gold.Chemscore.Internal_Hbond.Weighted>
0.0000

> <Gold.Chemscore.DEClash.Weighted>
0.0347

> <Gold.Chemscore.DEInternal.Weighted>
0.5807

> <Gold.Chemscore.Rot.Weighted>
3.3600

> <Gold.Chemscore.Internal.Correction.Weighted>
   9.000000E+99

> <Gold.Protein.RotatedTorsions>
[ 6907 6896 6895 6894 ] final   58.05 input  -60.11 | X-H torsion
[ 7974 7965 7964 7962 ] final  -28.56 input  175.53 | X-H torsion
[ 8008 7997 7996 7995 ] final  142.14 input   59.86 | X-H torsion
[ 10167 10162 10161 10158 ] final   79.15 input  -65.29 | X-H torsion
[ 10718 10713 10712 10709 ] final  169.12 input   66.30 | X-H torsion
[ 10763 10752 10751 10750 ] final  108.09 input  -60.55 | X-H torsion
[ 11005 11000 10999 10996 ] final  157.01 input  -57.11 | X-H torsion

> <Gold.Protein.ActiveResidues>
 VAL166  LYS551  ARG553  GLY616  TRP617  ASP618  TYR619  PRO620  LYS621  CYS622 
 ASP623  PHE694  ASN695  SER759  ASP760  ASP761  ALA762  ILE779  LEU786  VAL792 
 PHE793  MET794  SER795  GLU796  ALA797  LYS798  CYS799  TRP800  GLU811  SER814 

> <Gold.Protein.RotatedAtoms>
  152.3788  134.6622  160.0150 H   0  0  0  0  0  0  0  0  0  0  0  0  # atno 6907 bound_to 6896
  151.6892  133.3305  159.3246 H   0  0  0  0  0  0  0  0  0  0  0  0  # atno 6908 bound_to 6896
  150.7731  134.6649  159.6404 H   0  0  0  0  0  0  0  0  0  0  0  0  # atno 6909 bound_to 6896
  146.1279  140.5299  142.8706 H   0  0  0  0  0  0  0  0  0  0  0  0  # atno 7974 bound_to 7965
  156.2954  140.2296  156.4679 H   0  0  0  0  0  0  0  0  0  0  0  0  # atno 8008 bound_to 7997
  154.7961  140.0451  157.1258 H   0  0  0  0  0  0  0  0  0  0  0  0  # atno 8009 bound_to 7997
  154.9588  140.3051  155.5044 H   0  0  0  0  0  0  0  0  0  0  0  0  # atno 8010 bound_to 7997
  139.9634  144.5945  150.8051 H   0  0  0  0  0  0  0  0  0  0  0  0  # atno 10167 bound_to 10162
  157.0272  131.0249  151.2756 H   0  0  0  0  0  0  0  0  0  0  0  0  # atno 10718 bound_to 10713
  153.4158  135.3823  155.2079 H   0  0  0  0  0  0  0  0  0  0  0  0  # atno 10763 bound_to 10752
  154.8741  135.3805  154.4445 H   0  0  0  0  0  0  0  0  0  0  0  0  # atno 10764 bound_to 10752
  153.4959  135.7088  153.5921 H   0  0  0  0  0  0  0  0  0  0  0  0  # atno 10765 bound_to 10752
  140.1729  134.8530  157.2712 H   0  0  0  0  0  0  0  0  0  0  0  0  # atno 11005 bound_to 11000
  144.7661  140.5533  143.6702 LP  0  0  0  0  0  0  0  0  0  0  0  0  # atno 17320 bound_to 7965
  145.5325  139.1475  143.3492 LP  0  0  0  0  0  0  0  0  0  0  0  0  # atno 17321 bound_to 7965
  140.7546  143.3029  151.3034 LP  0  0  0  0  0  0  0  0  0  0  0  0  # atno 17342 bound_to 10162
  139.6536  144.0317  152.2644 LP  0  0  0  0  0  0  0  0  0  0  0  0  # atno 17343 bound_to 10162
  157.5205  130.7995  149.7804 LP  0  0  0  0  0  0  0  0  0  0  0  0  # atno 17370 bound_to 10713
  156.0082  130.3845  150.2357 LP  0  0  0  0  0  0  0  0  0  0  0  0  # atno 17371 bound_to 10713
  140.2356  134.3856  155.7502 LP  0  0  0  0  0  0  0  0  0  0  0  0  # atno 17394 bound_to 11000
  141.2218  133.7238  156.8709 LP  0  0  0  0  0  0  0  0  0  0  0  0  # atno 17395 bound_to 11000

$$$$
