AV-unprocessed.smi:283|AV-procd|sdf|2132|dock8
  -GOLD-   2262021453D 1   1.00000     0.00000
 Structure written by MMmdl.
 48 51  0  0  0  0  0  0  0  0  1 V2000
  150.6173  141.9306  156.3246 C   0  0  0  0  0  0  0  0  0  0  0  0
  150.9753  141.4519  157.7377 C   0  0  1  0  0  0  0  0  0  0  0  0
  152.0887  140.5065  157.6731 N   0  0  0  0  0  0  0  0  0  0  0  0
  152.0515  139.4664  156.8112 C   0  0  0  0  0  0  0  0  0  0  0  0
  152.5774  139.6978  155.5850 N   0  0  0  0  0  0  0  0  0  0  0  0
  152.6216  138.7170  154.6795 C   0  0  0  0  0  0  0  0  0  0  0  0
  152.1984  137.4573  154.7941 N   0  0  0  0  0  0  0  0  0  0  0  0
  151.6471  137.2197  156.0193 C   0  0  0  0  0  0  0  0  0  0  0  0
  151.5304  138.1660  157.0777 C   0  0  0  0  0  0  0  0  0  0  0  0
  150.9065  137.5647  158.1644 N   0  0  0  0  0  0  0  0  0  0  0  0
  150.6894  136.3383  157.7768 C   0  0  0  0  0  0  0  0  0  0  0  0
  151.1092  136.0416  156.5008 N   0  0  0  0  0  0  0  0  0  0  0  0
  151.0055  134.7226  155.7999 C   0  0  1  0  0  0  0  0  0  0  0  0
  150.3953  133.7868  156.6376 O   0  0  0  0  0  0  0  0  0  0  0  0
  149.4999  132.9496  155.9011 C   0  0  1  0  0  0  0  0  0  0  0  0
  148.0828  133.1527  156.4754 C   0  0  0  0  0  0  0  0  0  0  0  0
  147.1443  132.3552  155.7838 O   0  0  0  0  0  0  0  0  0  0  0  0
  149.6986  133.3531  154.4277 C   0  0  1  0  0  0  0  0  0  0  0  0
  148.5748  133.1880  153.5830 O   0  0  0  0  0  0  0  0  0  0  0  0
  150.1840  134.7906  154.5071 C   0  0  1  0  0  0  0  0  0  0  0  0
  149.1251  135.7333  154.5587 O   0  0  0  0  0  0  0  0  0  0  0  0
  151.2080  142.6503  158.6635 C   0  0  0  0  0  0  0  0  0  0  0  0
  150.2823  143.7200  158.6747 C   0  0  0  0  0  0  0  0  0  0  0  0
  150.4843  144.8373  159.5059 C   0  0  0  0  0  0  0  0  0  0  0  0
  151.6116  144.8937  160.3447 C   0  0  0  0  0  0  0  0  0  0  0  0
  152.5298  143.8278  160.3560 C   0  0  0  0  0  0  0  0  0  0  0  0
  152.3322  142.7061  159.5259 C   0  0  0  0  0  0  0  0  0  0  0  0
  153.4865  141.4203  159.5945 Cl  0  0  0  0  0  0  0  0  0  0  0  0
  152.0373  134.4159  155.6222 H   0  0  0  0  0  0  0  0  0  0  0  0
  149.8032  131.9127  156.0523 H   0  0  0  0  0  0  0  0  0  0  0  0
  150.5075  132.7446  154.0205 H   0  0  0  0  0  0  0  0  0  0  0  0
  150.8353  135.0509  153.6722 H   0  0  0  0  0  0  0  0  0  0  0  0
  149.7328  142.5680  156.3400 H   0  0  0  0  0  0  0  0  0  0  0  0
  150.4031  141.0881  155.6663 H   0  0  0  0  0  0  0  0  0  0  0  0
  151.4322  142.5030  155.8803 H   0  0  0  0  0  0  0  0  0  0  0  0
  150.1206  140.8829  158.0988 H   0  0  0  0  0  0  0  0  0  0  0  0
  152.6642  140.4835  158.5023 H   0  0  0  0  0  0  0  0  0  0  0  0
  153.0636  138.9765  153.7288 H   0  0  0  0  0  0  0  0  0  0  0  0
  150.2176  135.6093  158.4195 H   0  0  0  0  0  0  0  0  0  0  0  0
  148.0605  132.8468  157.5217 H   0  0  0  0  0  0  0  0  0  0  0  0
  147.7790  134.1988  156.4443 H   0  0  0  0  0  0  0  0  0  0  0  0
  146.6974  131.8069  156.4109 H   0  0  0  0  0  0  0  0  0  0  0  0
  148.8116  132.5890  152.8908 H   0  0  0  0  0  0  0  0  0  0  0  0
  149.0342  136.1272  153.7043 H   0  0  0  0  0  0  0  0  0  0  0  0
  149.4103  143.6924  158.0378 H   0  0  0  0  0  0  0  0  0  0  0  0
  149.7737  145.6506  159.4991 H   0  0  0  0  0  0  0  0  0  0  0  0
  151.7690  145.7508  160.9826 H   0  0  0  0  0  0  0  0  0  0  0  0
  153.3902  143.8712  161.0073 H   0  0  0  0  0  0  0  0  0  0  0  0
  1  2  1  0  0  0  0
  1 33  1  0  0  0  0
  1 34  1  0  0  0  0
  1 35  1  0  0  0  0
  2  3  1  0  0  0  0
  2 22  1  0  0  0  0
  2 36  1  0  0  0  0
  3  4  1  0  0  0  0
  3 37  1  0  0  0  0
  4  9  1  0  0  0  0
  4  5  2  0  0  0  0
  5  6  1  0  0  0  0
  6  7  2  0  0  0  0
  6 38  1  0  0  0  0
  7  8  1  0  0  0  0
  8 12  1  0  0  0  0
  8  9  2  0  0  0  0
  9 10  1  0  0  0  0
 10 11  2  0  0  0  0
 11 12  1  0  0  0  0
 11 39  1  0  0  0  0
 12 13  1  0  0  0  0
 13 29  1  0  0  0  0
 13 20  1  0  0  0  0
 13 14  1  0  0  0  0
 14 15  1  0  0  0  0
 15 30  1  0  0  0  0
 15 16  1  0  0  0  0
 15 18  1  0  0  0  0
 16 17  1  0  0  0  0
 16 40  1  0  0  0  0
 16 41  1  0  0  0  0
 17 42  1  0  0  0  0
 18 31  1  0  0  0  0
 18 19  1  0  0  0  0
 18 20  1  0  0  0  0
 19 43  1  0  0  0  0
 20 32  1  0  0  0  0
 20 21  1  0  0  0  0
 21 44  1  0  0  0  0
 22 27  1  0  0  0  0
 22 23  2  0  0  0  0
 23 24  1  0  0  0  0
 23 45  1  0  0  0  0
 24 25  2  0  0  0  0
 24 46  1  0  0  0  0
 25 26  1  0  0  0  0
 25 47  1  0  0  0  0
 26 27  2  0  0  0  0
 26 48  1  0  0  0  0
 27 28  1  0  0  0  0
M  END
> <s_m_source_file>
AV-unprocessed.smi

> <i_m_source_file_index>
283

> <i_lp_mmshare_version>
43012

> <i_f3d_flags>
0

> <s_epik_input>
Q2xjMVtjSF1bY0hdW2NIXVtjSF1jMVtDQEhdKFtDSDNdKVtOSF1jKG5bY0hdbjIpYyhjMjMpbltjSF1uM1tDQEBIXTRPW0NASF0oW0NIMl1bT0hdKVtDQEBIXShbT0hdKVtDQEhdNFtPSF0=

> <s_epik_cmdline>
J2VwaWtfcHl0aG9uJywgJy1waCcsICc3LjAnLCAnLXRuJywgJzgnLCAnLW1hJywgJzIwMCcsICctbWV0YWxfYmluZGluZycsICctaW1hZScsICc8aW5maWxlLm1hZT4nLCAnLW9tYWUnLCAnPG91dGZpbGUubWFlPic=

> <r_lp_tautomer_probability>
1

> <r_epik_Ionization_Penalty>
0.000266407

> <r_epik_Ionization_Penalty_Charging>
0

> <r_epik_Ionization_Penalty_Neutral>
0.000266407

> <r_epik_State_Penalty>
-0

> <r_epik_Charging_Adjusted_Penalty>
0

> <i_epik_Tot_Q>
0

> <i_epik_Tot_abs_Q>
0

> <r_epik_Metal_State_Penalty>
-0

> <b_epik_Metal_Only>
0

> <s_epik_Chemistry_Notes>
This compound contains an acetal/aminal-like group ( X-CH(R)-Y where X, Y are N, S, or O) that may be acid/base labile, releasing an aldehyde.

> <s_lp_Force_Field>
OPLS_2005

> <r_lp_Energy>
55.3457

> <b_lp_Chiralities_Consistent>
1

> <s_lp_Variant>
AV-unprocessed.smi:283-8

> <Gold.Version>
5.8.1

> <Gold.Id.Protein>
6NUR|6NUR_protein|mol2

> <Gold.PLP.Fitness>
52.3384

> <Gold.PLP.PLP>
-45.9787

> <Gold.PLP.part.hbond>
-3.3055

> <Gold.PLP.part.metal>
0.0000

> <Gold.PLP.part.buried>
-7.1820

> <Gold.PLP.part.nonpolar>
-36.4326

> <Gold.PLP.part.repulsive>
0.1776

> <Gold.PLP.ligand.clash>
0.0000

> <Gold.PLP.ligand.torsion>
1.0421

> <Gold.PLP.Chemscore.Hbond>
2.7840

> <Gold.PLP.Chemscore.CHOScore>
0.0000

> <Gold.PLP.Chemscore.Metal>
0.0000

> <Gold.Chemscore.Hbonds>
donor molecule, donor type, donor heavy atom, donor atom, acceptor molecule, acceptor atom, score
      L1  H    21    44       P1  7948  1.00
      P1  H  7997  8009       L1     5  1.00
      P1  H 10752 10764       L1     7  0.71

> <Gold.PLP.Chemscore.Internal.Correction>
0.0920

> <Gold.Rescore>
     Score         DG    S(hbond)    S(metal)    S(lipo)     H(rot)  DE(clash)    DE(int)     intcor
     13.17     -15.90       2.51        0.00     107.00       4.10       0.03       2.70       ----

> <Gold.Chemscore.Fitness>
13.1744

> <Gold.Chemscore.DG>
-15.8992

> <Gold.Chemscore.ZeroCoef>
-5.4800

> <Gold.Chemscore.Hbond>
2.5114

> <Gold.Chemscore.Metal>
0.0000

> <Gold.Chemscore.Lipo>
106.9996

> <Gold.Chemscore.Internal_Hbond>
0.0000

> <Gold.Chemscore.DEClash>
0.0279

> <Gold.Chemscore.DEInternal>
2.6969

> <Gold.Chemscore.Rot>
4.0968

> <Gold.Chemscore.Internal.Correction>
   9.000000E+99

> <Gold.Chemscore.Hbonds>
donor molecule, donor type, donor heavy atom, donor atom, acceptor molecule, acceptor atom, score
      L1  H    21    44       P1  7948  0.96
      P1  H  7997  8009       L1     5  0.18
      P1  H 10752 10764       L1     7  0.16

> <Gold.Chemscore.Hbond.Weighted>
-8.3882

> <Gold.Chemscore.Metal.Weighted>
-0.0000

> <Gold.Chemscore.Lipo.Weighted>
-12.5190

> <Gold.Chemscore.Internal_Hbond.Weighted>
0.0000

> <Gold.Chemscore.DEClash.Weighted>
0.0279

> <Gold.Chemscore.DEInternal.Weighted>
2.6969

> <Gold.Chemscore.Rot.Weighted>
10.4879

> <Gold.Chemscore.Internal.Correction.Weighted>
   9.000000E+99

> <Gold.Protein.RotatedTorsions>
[ 6907 6896 6895 6894 ] final -140.19 input  -60.11 | X-H torsion
[ 7974 7965 7964 7962 ] final  -63.18 input  175.53 | X-H torsion
[ 8008 7997 7996 7995 ] final -147.64 input   59.86 | X-H torsion
[ 10167 10162 10161 10158 ] final   -1.73 input  -65.29 | X-H torsion
[ 10718 10713 10712 10709 ] final -171.80 input   66.30 | X-H torsion
[ 10763 10752 10751 10750 ] final  -69.94 input  -60.55 | X-H torsion
[ 11005 11000 10999 10996 ] final -179.43 input  -57.11 | X-H torsion

> <Gold.Protein.ActiveResidues>
 VAL166  LYS551  ARG553  GLY616  TRP617  ASP618  TYR619  PRO620  LYS621  CYS622 
 ASP623  PHE694  ASN695  SER759  ASP760  ASP761  ALA762  ILE779  LEU786  VAL792 
 PHE793  MET794  SER795  GLU796  ALA797  LYS798  CYS799  TRP800  GLU811  SER814 

> <Gold.Protein.RotatedAtoms>
  151.0575  133.5572  159.2636 H   0  0  0  0  0  0  0  0  0  0  0  0  # atno 6907 bound_to 6896
  151.2560  135.0637  159.9090 H   0  0  0  0  0  0  0  0  0  0  0  0  # atno 6908 bound_to 6896
  152.5392  134.0328  159.8086 H   0  0  0  0  0  0  0  0  0  0  0  0  # atno 6909 bound_to 6896
  145.7822  140.8756  143.0324 H   0  0  0  0  0  0  0  0  0  0  0  0  # atno 7974 bound_to 7965
  155.5788  140.0641  157.2788 H   0  0  0  0  0  0  0  0  0  0  0  0  # atno 8008 bound_to 7997
  154.4338  140.1855  156.1002 H   0  0  0  0  0  0  0  0  0  0  0  0  # atno 8009 bound_to 7997
  156.0320  140.3305  155.7154 H   0  0  0  0  0  0  0  0  0  0  0  0  # atno 8010 bound_to 7997
  140.6822  143.6741  150.8160 H   0  0  0  0  0  0  0  0  0  0  0  0  # atno 10167 bound_to 10162
  156.7461  130.9361  151.3112 H   0  0  0  0  0  0  0  0  0  0  0  0  # atno 10718 bound_to 10713
  154.4106  135.6010  153.5950 H   0  0  0  0  0  0  0  0  0  0  0  0  # atno 10763 bound_to 10752
  152.9790  135.5928  154.4075 H   0  0  0  0  0  0  0  0  0  0  0  0  # atno 10764 bound_to 10752
  154.3886  135.2842  155.2146 H   0  0  0  0  0  0  0  0  0  0  0  0  # atno 10765 bound_to 10752
  140.4187  134.6626  157.4652 H   0  0  0  0  0  0  0  0  0  0  0  0  # atno 11005 bound_to 11000
  144.6794  140.0005  143.7484 LP  0  0  0  0  0  0  0  0  0  0  0  0  # atno 17320 bound_to 7965
  146.0063  139.3132  143.0897 LP  0  0  0  0  0  0  0  0  0  0  0  0  # atno 17321 bound_to 7965
  140.0443  143.5314  152.2703 LP  0  0  0  0  0  0  0  0  0  0  0  0  # atno 17342 bound_to 10162
  139.6153  144.7618  151.2861 LP  0  0  0  0  0  0  0  0  0  0  0  0  # atno 17343 bound_to 10162
  157.6797  130.9128  150.0237 LP  0  0  0  0  0  0  0  0  0  0  0  0  # atno 17370 bound_to 10713
  156.1432  130.3642  149.9550 LP  0  0  0  0  0  0  0  0  0  0  0  0  # atno 17371 bound_to 10713
  140.0216  134.6539  155.9232 LP  0  0  0  0  0  0  0  0  0  0  0  0  # atno 17394 bound_to 11000
  141.1793  133.6544  156.4953 LP  0  0  0  0  0  0  0  0  0  0  0  0  # atno 17395 bound_to 11000

$$$$
