AV-unprocessed.smi:1295|AV-procd|sdf|5401|dock3
  -GOLD-   22720 4563D 1   1.00000     0.00000
 Structure written by MMmdl.
 43 44  0  0  0  0  0  0  0  0  1 V2000
  147.0430  139.1063  152.9717 C   0  0  0  0  0  0  0  0  0  0  0  0
  148.0624  138.6755  154.0050 C   0  0  0  0  0  0  0  0  0  0  0  0
  147.8014  137.8725  154.9834 N   0  0  0  0  0  0  0  0  0  0  0  0
  148.8300  137.5426  155.8767 C   0  0  0  0  0  0  0  0  0  0  0  0
  148.4470  136.5879  156.9944 C   0  0  0  0  0  0  0  0  0  0  0  0
  150.0896  138.0510  155.7378 C   0  0  0  0  0  0  0  0  0  0  0  0
  151.2310  137.7052  156.6926 C   0  0  0  0  0  0  0  0  0  0  0  0
  152.1666  138.8626  157.0500 C   0  0  0  0  0  0  0  0  0  0  0  0
  153.3107  138.8957  156.5968 O   0  0  0  0  0  0  0  0  0  0  0  0
  151.6645  139.7993  157.8696 N   0  0  0  0  0  0  0  0  0  0  0  0
  152.3803  140.9670  158.3811 C   0  0  2  0  0  0  0  0  0  0  0  0
  152.8940  140.6461  159.7985 C   0  0  0  0  0  0  0  0  0  0  0  0
  153.6044  141.8503  160.4326 C   0  0  0  0  0  0  0  0  0  0  0  0
  152.6853  143.0790  160.4530 C   0  0  0  0  0  0  0  0  0  0  0  0
  152.1859  143.4162  159.0402 C   0  0  0  0  0  0  0  0  0  0  0  0
  151.4679  142.2208  158.3805 C   0  0  1  0  0  0  0  0  0  0  0  0
  150.9799  142.5993  156.9704 C   0  0  0  0  0  0  0  0  0  0  0  0
  150.3757  138.9691  154.6182 C   0  0  0  0  0  0  0  0  0  0  0  0
  151.4723  139.4809  154.3977 O   0  0  0  0  0  0  0  0  0  0  0  0
  149.3263  139.2285  153.8063 N   0  0  0  0  0  0  0  0  0  0  0  0
  149.4720  139.8491  153.0234 H   0  0  0  0  0  0  0  0  0  0  0  0
  146.6531  138.2351  152.4444 H   0  0  0  0  0  0  0  0  0  0  0  0
  147.4769  139.7847  152.2358 H   0  0  0  0  0  0  0  0  0  0  0  0
  146.2097  139.6159  153.4562 H   0  0  0  0  0  0  0  0  0  0  0  0
  148.5649  137.0683  157.9657 H   0  0  0  0  0  0  0  0  0  0  0  0
  149.0715  135.6948  156.9700 H   0  0  0  0  0  0  0  0  0  0  0  0
  147.4079  136.2688  156.9042 H   0  0  0  0  0  0  0  0  0  0  0  0
  150.8428  137.2848  157.6208 H   0  0  0  0  0  0  0  0  0  0  0  0
  151.8165  136.8994  156.2485 H   0  0  0  0  0  0  0  0  0  0  0  0
  150.7113  139.6838  158.1821 H   0  0  0  0  0  0  0  0  0  0  0  0
  153.2502  141.1777  157.7560 H   0  0  0  0  0  0  0  0  0  0  0  0
  152.0605  140.3450  160.4352 H   0  0  0  0  0  0  0  0  0  0  0  0
  153.5768  139.7960  159.7640 H   0  0  0  0  0  0  0  0  0  0  0  0
  153.9203  141.6047  161.4467 H   0  0  0  0  0  0  0  0  0  0  0  0
  154.5119  142.0785  159.8720 H   0  0  0  0  0  0  0  0  0  0  0  0
  151.8336  142.8896  161.1074 H   0  0  0  0  0  0  0  0  0  0  0  0
  153.2156  143.9338  160.8738 H   0  0  0  0  0  0  0  0  0  0  0  0
  151.5132  144.2733  159.0898 H   0  0  0  0  0  0  0  0  0  0  0  0
  153.0306  143.7243  158.4221 H   0  0  0  0  0  0  0  0  0  0  0  0
  150.5853  141.9967  158.9817 H   0  0  0  0  0  0  0  0  0  0  0  0
  151.8189  142.7950  156.3020 H   0  0  0  0  0  0  0  0  0  0  0  0
  150.3607  143.4963  156.9974 H   0  0  0  0  0  0  0  0  0  0  0  0
  150.3781  141.8072  156.5251 H   0  0  0  0  0  0  0  0  0  0  0  0
  1  2  1  0  0  0  0
  1 22  1  0  0  0  0
  1 23  1  0  0  0  0
  1 24  1  0  0  0  0
  2 20  1  0  0  0  0
  2  3  2  0  0  0  0
  3  4  1  0  0  0  0
  4  5  1  0  0  0  0
  4  6  2  0  0  0  0
  5 25  1  0  0  0  0
  5 26  1  0  0  0  0
  5 27  1  0  0  0  0
  6  7  1  0  0  0  0
  6 18  1  0  0  0  0
  7  8  1  0  0  0  0
  7 28  1  0  0  0  0
  7 29  1  0  0  0  0
  8  9  2  0  0  0  0
  8 10  1  0  0  0  0
 10 11  1  0  0  0  0
 10 30  1  0  0  0  0
 11 16  1  0  0  0  0
 11 12  1  0  0  0  0
 11 31  1  0  0  0  0
 12 13  1  0  0  0  0
 12 32  1  0  0  0  0
 12 33  1  0  0  0  0
 13 14  1  0  0  0  0
 13 34  1  0  0  0  0
 13 35  1  0  0  0  0
 14 15  1  0  0  0  0
 14 36  1  0  0  0  0
 14 37  1  0  0  0  0
 15 16  1  0  0  0  0
 15 38  1  0  0  0  0
 15 39  1  0  0  0  0
 16 17  1  0  0  0  0
 16 40  1  0  0  0  0
 17 41  1  0  0  0  0
 17 42  1  0  0  0  0
 17 43  1  0  0  0  0
 18 19  2  0  0  0  0
 18 20  1  0  0  0  0
 20 21  1  0  0  0  0
M  END
> <s_m_source_file>
AV-unprocessed.smi

> <i_m_source_file_index>
1295

> <i_lp_mmshare_version>
43012

> <i_f3d_flags>
0

> <s_epik_input>
W0NIM11jMW5jKFtDSDNdKWMoYyg9TylbbkhdMSlbQ0gyXUMoPU8pW05IXVtDQEBIXTJbQ0gyXVtDSDJdW0NIMl1bQ0gyXVtDQEhdMltDSDNd

> <s_epik_cmdline>
J2VwaWtfcHl0aG9uJywgJy1waCcsICc3LjAnLCAnLXRuJywgJzgnLCAnLW1hJywgJzIwMCcsICctbWV0YWxfYmluZGluZycsICctaW1hZScsICc8aW5maWxlLm1hZT4nLCAnLW9tYWUnLCAnPG91dGZpbGUubWFlPic=

> <r_lp_tautomer_probability>
0.839158

> <r_epik_Ionization_Penalty>
0.00037085

> <r_epik_Ionization_Penalty_Charging>
0.000336002

> <r_epik_Ionization_Penalty_Neutral>
3.48485e-05

> <r_epik_State_Penalty>
0.09125

> <r_epik_Charging_Adjusted_Penalty>
0.091586

> <i_epik_Tot_Q>
0

> <i_epik_Tot_abs_Q>
0

> <r_epik_Metal_State_Penalty>
0.251445

> <b_epik_Metal_Only>
0

> <s_lp_Force_Field>
OPLS_2005

> <r_lp_Energy>
11.9109

> <b_lp_Chiralities_Consistent>
1

> <s_lp_Variant>
AV-unprocessed.smi:1295-1

> <Gold.Version>
5.8.1

> <Gold.Id.Protein>
6NUR|6NUR_protein|mol2

> <Gold.PLP.Fitness>
39.9807

> <Gold.PLP.PLP>
-32.6746

> <Gold.PLP.part.hbond>
-2.9062

> <Gold.PLP.part.metal>
0.0000

> <Gold.PLP.part.buried>
-3.4592

> <Gold.PLP.part.nonpolar>
-26.2133

> <Gold.PLP.part.repulsive>
0.3663

> <Gold.PLP.ligand.clash>
0.0000

> <Gold.PLP.ligand.torsion>
0.7174

> <Gold.PLP.Chemscore.Hbond>
2.9120

> <Gold.PLP.Chemscore.CHOScore>
0.0000

> <Gold.PLP.Chemscore.Metal>
0.0000

> <Gold.Chemscore.Hbonds>
donor molecule, donor type, donor heavy atom, donor atom, acceptor molecule, acceptor atom, score
      L1  H    20    21       P1  7957  0.94
      P1  H  7989  7998       L1    19  1.00
      P1  H  7997  8008       L1     9  1.00

> <Gold.PLP.Chemscore.Internal.Correction>
0.0048

> <Gold.Rescore>
     Score         DG    S(hbond)    S(metal)    S(lipo)     H(rot)  DE(clash)    DE(int)     intcor
     18.15     -21.31       2.91        0.00      84.64       1.48       0.17       2.99       ----

> <Gold.Chemscore.Fitness>
18.1470

> <Gold.Chemscore.DG>
-21.3067

> <Gold.Chemscore.ZeroCoef>
-5.4800

> <Gold.Chemscore.Hbond>
2.9081

> <Gold.Chemscore.Metal>
0.0000

> <Gold.Chemscore.Lipo>
84.6380

> <Gold.Chemscore.Internal_Hbond>
0.0000

> <Gold.Chemscore.DEClash>
0.1725

> <Gold.Chemscore.DEInternal>
2.9872

> <Gold.Chemscore.Rot>
1.4801

> <Gold.Chemscore.Internal.Correction>
   9.000000E+99

> <Gold.Chemscore.Hbonds>
donor molecule, donor type, donor heavy atom, donor atom, acceptor molecule, acceptor atom, score
      L1  H    20    21       P1  7957  0.91
      P1  H  7989  7998       L1    19  0.99
      P1  H  7997  8008       L1     9  0.96

> <Gold.Chemscore.Hbond.Weighted>
-9.7132

> <Gold.Chemscore.Metal.Weighted>
-0.0000

> <Gold.Chemscore.Lipo.Weighted>
-9.9026

> <Gold.Chemscore.Internal_Hbond.Weighted>
0.0000

> <Gold.Chemscore.DEClash.Weighted>
0.1725

> <Gold.Chemscore.DEInternal.Weighted>
2.9872

> <Gold.Chemscore.Rot.Weighted>
3.7891

> <Gold.Chemscore.Internal.Correction.Weighted>
   9.000000E+99

> <Gold.Protein.RotatedTorsions>
[ 6907 6896 6895 6894 ] final -121.24 input  -60.11 | X-H torsion
[ 7974 7965 7964 7962 ] final   72.55 input  175.53 | X-H torsion
[ 8008 7997 7996 7995 ] final  -55.98 input   59.86 | X-H torsion
[ 10167 10162 10161 10158 ] final  155.90 input  -65.29 | X-H torsion
[ 10718 10713 10712 10709 ] final  126.94 input   66.30 | X-H torsion
[ 10763 10752 10751 10750 ] final    2.98 input  -60.55 | X-H torsion
[ 11005 11000 10999 10996 ] final    3.92 input  -57.11 | X-H torsion

> <Gold.Protein.ActiveResidues>
 VAL166  LYS551  ARG553  GLY616  TRP617  ASP618  TYR619  PRO620  LYS621  CYS622 
 ASP623  PHE694  ASN695  SER759  ASP760  ASP761  ALA762  ILE779  LEU786  VAL792 
 PHE793  MET794  SER795  GLU796  ALA797  LYS798  CYS799  TRP800  GLU811  SER814 

> <Gold.Protein.RotatedAtoms>
  150.8465  133.7853  159.3040 H   0  0  0  0  0  0  0  0  0  0  0  0  # atno 6907 bound_to 6896
  151.5538  135.1065  159.9966 H   0  0  0  0  0  0  0  0  0  0  0  0  # atno 6908 bound_to 6896
  152.4518  133.7601  159.6798 H   0  0  0  0  0  0  0  0  0  0  0  0  # atno 6909 bound_to 6896
  145.7520  139.2764  143.1426 H   0  0  0  0  0  0  0  0  0  0  0  0  # atno 7974 bound_to 7965
  154.4214  140.1140  156.5565 H   0  0  0  0  0  0  0  0  0  0  0  0  # atno 8008 bound_to 7997
  155.6356  140.3496  155.4678 H   0  0  0  0  0  0  0  0  0  0  0  0  # atno 8009 bound_to 7997
  155.9912  140.1180  157.0626 H   0  0  0  0  0  0  0  0  0  0  0  0  # atno 8010 bound_to 7997
  139.4821  144.5057  151.8100 H   0  0  0  0  0  0  0  0  0  0  0  0  # atno 10167 bound_to 10162
  157.5376  131.1097  150.8910 H   0  0  0  0  0  0  0  0  0  0  0  0  # atno 10718 bound_to 10713
  153.2890  135.6947  153.7312 H   0  0  0  0  0  0  0  0  0  0  0  0  # atno 10763 bound_to 10752
  153.6270  135.3417  155.3030 H   0  0  0  0  0  0  0  0  0  0  0  0  # atno 10764 bound_to 10752
  154.8518  135.4400  154.1966 H   0  0  0  0  0  0  0  0  0  0  0  0  # atno 10765 bound_to 10752
  140.5877  133.9953  155.8075 H   0  0  0  0  0  0  0  0  0  0  0  0  # atno 11005 bound_to 11000
  146.0348  140.8223  142.9858 LP  0  0  0  0  0  0  0  0  0  0  0  0  # atno 17320 bound_to 7965
  144.6848  140.2822  143.7290 LP  0  0  0  0  0  0  0  0  0  0  0  0  # atno 17321 bound_to 7965
  140.4555  144.1795  150.5901 LP  0  0  0  0  0  0  0  0  0  0  0  0  # atno 17342 bound_to 10162
  140.4540  143.2475  151.9310 LP  0  0  0  0  0  0  0  0  0  0  0  0  # atno 17343 bound_to 10162
  156.9473  130.5406  149.5281 LP  0  0  0  0  0  0  0  0  0  0  0  0  # atno 17370 bound_to 10713
  156.0471  130.5546  150.8905 LP  0  0  0  0  0  0  0  0  0  0  0  0  # atno 17371 bound_to 10713
  141.0955  133.9850  157.3167 LP  0  0  0  0  0  0  0  0  0  0  0  0  # atno 17394 bound_to 11000
  139.9288  135.0201  156.8328 LP  0  0  0  0  0  0  0  0  0  0  0  0  # atno 17395 bound_to 11000

$$$$
