AV-unprocessed.smi:2062|AV-procd|sdf|8404|dock7
  -GOLD-   2272011 93D 1   1.00000     0.00000
 Structure written by MMmdl.
 42 43  0  0  0  0  0  0  0  0  3 V2000
  149.3811  141.5937  154.7666 C   0  0  0  0  0  0  0  0  0  0  0  0
  149.9741  140.9101  156.0100 C   0  0  0  0  0  0  0  0  0  0  0  0
  149.9335  141.8624  157.2144 C   0  0  0  0  0  0  0  0  0  0  0  0
  151.4143  140.4130  155.7612 C   0  0  0  0  0  0  0  0  0  0  0  0
  151.4791  139.2859  154.7914 N   0  3  1  0  0  0  0  0  0  0  0  0
  152.8261  138.6755  154.6787 C   0  0  0  0  0  0  0  0  0  0  0  0
  153.1109  137.7366  155.8638 C   0  0  0  0  0  0  0  0  0  0  0  0
  152.0982  136.7413  155.9256 O   0  0  0  0  0  0  0  0  0  0  0  0
  150.8044  137.2912  156.1571 C   0  0  2  0  0  0  0  0  0  0  0  0
  149.8038  136.1350  156.2823 C   0  0  0  0  0  0  0  0  0  0  0  0
  148.7761  136.4536  157.2635 N   0  0  0  0  0  0  0  0  0  0  0  0
  148.9774  136.5675  158.5818 C   0  0  0  0  0  0  0  0  0  0  0  0
  150.1060  136.3939  159.0472 O   0  0  0  0  0  0  0  0  0  0  0  0
  147.8583  136.8742  159.2755 N   0  5  0  0  0  0  0  0  0  0  0  0
  147.6963  136.4152  160.5273 C   0  0  0  0  0  0  0  0  0  0  0  0
  147.8994  137.1707  161.6127 N   0  0  0  0  0  0  0  0  0  0  0  0
  147.6660  136.4944  162.8115 C   0  0  0  0  0  0  0  0  0  0  0  0
  147.2665  135.1963  162.6345 C   0  0  0  0  0  0  0  0  0  0  0  0
  147.1716  134.7818  160.9466 S   0  0  0  0  0  0  0  0  0  0  0  0
  150.4473  138.2345  154.9867 C   0  0  0  0  0  0  0  0  0  0  0  0
  149.9736  142.4596  154.4692 H   0  0  0  0  0  0  0  0  0  0  0  0
  148.3642  141.9385  154.9569 H   0  0  0  0  0  0  0  0  0  0  0  0
  149.3374  140.9120  153.9170 H   0  0  0  0  0  0  0  0  0  0  0  0
  149.3387  140.0611  156.2604 H   0  0  0  0  0  0  0  0  0  0  0  0
  150.5452  142.7487  157.0413 H   0  0  0  0  0  0  0  0  0  0  0  0
  150.3040  141.3735  158.1159 H   0  0  0  0  0  0  0  0  0  0  0  0
  148.9156  142.1959  157.4186 H   0  0  0  0  0  0  0  0  0  0  0  0
  151.9997  141.2521  155.3826 H   0  0  0  0  0  0  0  0  0  0  0  0
  151.8845  140.1243  156.7011 H   0  0  0  0  0  0  0  0  0  0  0  0
  152.8665  138.1038  153.7507 H   0  0  0  0  0  0  0  0  0  0  0  0
  153.5948  139.4446  154.5965 H   0  0  0  0  0  0  0  0  0  0  0  0
  154.0755  137.2468  155.7298 H   0  0  0  0  0  0  0  0  0  0  0  0
  153.1625  138.2863  156.8049 H   0  0  0  0  0  0  0  0  0  0  0  0
  150.8088  137.8453  157.0971 H   0  0  0  0  0  0  0  0  0  0  0  0
  149.3277  135.9501  155.3180 H   0  0  0  0  0  0  0  0  0  0  0  0
  150.3162  135.2164  156.5725 H   0  0  0  0  0  0  0  0  0  0  0  0
  147.8399  136.6092  156.9195 H   0  0  0  0  0  0  0  0  0  0  0  0
  147.8080  137.0162  163.7462 H   0  0  0  0  0  0  0  0  0  0  0  0
  147.0227  134.4631  163.3883 H   0  0  0  0  0  0  0  0  0  0  0  0
  149.4622  138.6749  155.1354 H   0  0  0  0  0  0  0  0  0  0  0  0
  150.3821  137.6547  154.0647 H   0  0  0  0  0  0  0  0  0  0  0  0
  151.2947  139.7069  153.8918 H   0  0  0  0  0  0  0  0  0  0  0  0
  1  2  1  0  0  0  0
  1 21  1  0  0  0  0
  1 22  1  0  0  0  0
  1 23  1  0  0  0  0
  2  3  1  0  0  0  0
  2  4  1  0  0  0  0
  2 24  1  0  0  0  0
  3 25  1  0  0  0  0
  3 26  1  0  0  0  0
  3 27  1  0  0  0  0
  4  5  1  0  0  0  0
  4 28  1  0  0  0  0
  4 29  1  0  0  0  0
  5 20  1  0  0  0  0
  5  6  1  0  0  0  0
  5 42  1  0  0  0  0
  6  7  1  0  0  0  0
  6 30  1  0  0  0  0
  6 31  1  0  0  0  0
  7  8  1  0  0  0  0
  7 32  1  0  0  0  0
  7 33  1  0  0  0  0
  8  9  1  0  0  0  0
  9 10  1  0  0  0  0
  9 20  1  0  0  0  0
  9 34  1  0  0  0  0
 10 11  1  0  0  0  0
 10 35  1  0  0  0  0
 10 36  1  0  0  0  0
 11 12  1  0  0  0  0
 11 37  1  0  0  0  0
 12 13  2  0  0  0  0
 12 14  1  0  0  0  0
 14 15  1  0  0  0  0
 15 19  1  0  0  0  0
 15 16  2  0  0  0  0
 16 17  1  0  0  0  0
 17 18  2  0  0  0  0
 17 38  1  0  0  0  0
 18 19  1  0  0  0  0
 18 39  1  0  0  0  0
 20 40  1  0  0  0  0
 20 41  1  0  0  0  0
M  CHG  1   5   1
M  CHG  1  14  -1
M  END
> <s_m_source_file>
AV-unprocessed.smi

> <i_m_source_file_index>
2062

> <i_lp_mmshare_version>
43012

> <i_f3d_flags>
0

> <s_epik_input>
W0NIM11bQ0hdKFtDSDNdKVtDSDJdTjFbQ0gyXVtDSDJdT1tDQEhdKFtDSDJdMSlbQ0gyXVtOSF1DKD1PKVtOSF1jMm5bY0hdW2NIXXMy

> <s_epik_cmdline>
J2VwaWtfcHl0aG9uJywgJy1waCcsICc3LjAnLCAnLXRuJywgJzgnLCAnLW1hJywgJzIwMCcsICctbWV0YWxfYmluZGluZycsICctaW1hZScsICc8aW5maWxlLm1hZT4nLCAnLW9tYWUnLCAnPG91dGZpbGUubWFlPic=

> <r_lp_tautomer_probability>
0.999

> <r_epik_Ionization_Penalty>
6.35835

> <r_epik_Ionization_Penalty_Charging>
5.49938

> <r_epik_Ionization_Penalty_Neutral>
0.858963

> <r_epik_State_Penalty>
5.49328

> <r_epik_Charging_Adjusted_Penalty>
10.9927

> <i_epik_Tot_Q>
0

> <i_epik_Tot_abs_Q>
2

> <r_epik_Metal_State_Penalty>
1.51523

> <b_epik_Metal_Only>
1

> <s_lp_Force_Field>
OPLS_2005

> <r_lp_Energy>
10.2516

> <b_lp_Chiralities_Consistent>
1

> <s_lp_Variant>
AV-unprocessed.smi:2062-9

> <Gold.Version>
5.8.1

> <Gold.Id.Protein>
6NUR|6NUR_protein|mol2

> <Gold.PLP.Fitness>
44.8604

> <Gold.PLP.PLP>
-36.8968

> <Gold.PLP.part.hbond>
-4.0000

> <Gold.PLP.part.metal>
0.0000

> <Gold.PLP.part.buried>
-2.3852

> <Gold.PLP.part.nonpolar>
-29.9205

> <Gold.PLP.part.repulsive>
0.9956

> <Gold.PLP.ligand.clash>
0.0000

> <Gold.PLP.ligand.torsion>
1.5817

> <Gold.PLP.Chemscore.Hbond>
3.6708

> <Gold.PLP.Chemscore.CHOScore>
0.0000

> <Gold.PLP.Chemscore.Metal>
0.0000

> <Gold.Chemscore.Hbonds>
donor molecule, donor type, donor heavy atom, donor atom, acceptor molecule, acceptor atom, score
      P1  H  6896  6907       L1    13  1.00
      P1  H  6931  6943       L1    16  1.00
      P1  H  6934  6947       L1    16  0.55
      P1  H 10752 10765       L1     8  0.60

> <Gold.PLP.Chemscore.Internal.Correction>
0.1146

> <Gold.Rescore>
     Score         DG    S(hbond)    S(metal)    S(lipo)     H(rot)  DE(clash)    DE(int)     intcor
     16.96     -19.22       2.51        0.00      83.39       1.72       0.61       1.65       ----

> <Gold.Chemscore.Fitness>
16.9633

> <Gold.Chemscore.DG>
-19.2179

> <Gold.Chemscore.ZeroCoef>
-5.4800

> <Gold.Chemscore.Hbond>
2.5099

> <Gold.Chemscore.Metal>
0.0000

> <Gold.Chemscore.Lipo>
83.3897

> <Gold.Chemscore.Internal_Hbond>
0.0000

> <Gold.Chemscore.DEClash>
0.6079

> <Gold.Chemscore.DEInternal>
1.6467

> <Gold.Chemscore.Rot>
1.7194

> <Gold.Chemscore.Internal.Correction>
   9.000000E+99

> <Gold.Chemscore.Hbonds>
donor molecule, donor type, donor heavy atom, donor atom, acceptor molecule, acceptor atom, score
      P1  H  6896  6907       L1    13  0.98
      P1  H  6931  6943       L1    16  0.58
      P1  H  6934  6947       L1    16  0.17
      P1  H 10752 10765       L1     8  0.04

> <Gold.Chemscore.Hbond.Weighted>
-8.3830

> <Gold.Chemscore.Metal.Weighted>
-0.0000

> <Gold.Chemscore.Lipo.Weighted>
-9.7566

> <Gold.Chemscore.Internal_Hbond.Weighted>
0.0000

> <Gold.Chemscore.DEClash.Weighted>
0.6079

> <Gold.Chemscore.DEInternal.Weighted>
1.6467

> <Gold.Chemscore.Rot.Weighted>
4.4017

> <Gold.Chemscore.Internal.Correction.Weighted>
   9.000000E+99

> <Gold.Protein.RotatedTorsions>
[ 6907 6896 6895 6894 ] final  -25.77 input  -60.11 | X-H torsion
[ 7974 7965 7964 7962 ] final  157.25 input  175.53 | X-H torsion
[ 8008 7997 7996 7995 ] final  173.87 input   59.86 | X-H torsion
[ 10167 10162 10161 10158 ] final  159.71 input  -65.29 | X-H torsion
[ 10718 10713 10712 10709 ] final  101.78 input   66.30 | X-H torsion
[ 10763 10752 10751 10750 ] final -149.37 input  -60.55 | X-H torsion
[ 11005 11000 10999 10996 ] final   80.74 input  -57.11 | X-H torsion

> <Gold.Protein.ActiveResidues>
 VAL166  LYS551  ARG553  GLY616  TRP617  ASP618  TYR619  PRO620  LYS621  CYS622 
 ASP623  PHE694  ASN695  SER759  ASP760  ASP761  ALA762  ILE779  LEU786  VAL792 
 PHE793  MET794  SER795  GLU796  ALA797  LYS798  CYS799  TRP800  GLU811  SER814 

> <Gold.Protein.RotatedAtoms>
  151.1705  135.0315  159.8749 H   0  0  0  0  0  0  0  0  0  0  0  0  # atno 6907 bound_to 6896
  152.5449  134.1176  159.8395 H   0  0  0  0  0  0  0  0  0  0  0  0  # atno 6908 bound_to 6896
  151.1282  133.5009  159.2632 H   0  0  0  0  0  0  0  0  0  0  0  0  # atno 6909 bound_to 6896
  144.7914  139.7315  143.6219 H   0  0  0  0  0  0  0  0  0  0  0  0  # atno 7974 bound_to 7965
  156.1031  140.1449  156.9440 H   0  0  0  0  0  0  0  0  0  0  0  0  # atno 8008 bound_to 7997
  154.4716  140.0908  156.7203 H   0  0  0  0  0  0  0  0  0  0  0  0  # atno 8009 bound_to 7997
  155.4725  140.3442  155.4330 H   0  0  0  0  0  0  0  0  0  0  0  0  # atno 8010 bound_to 7997
  139.4834  144.4704  151.8584 H   0  0  0  0  0  0  0  0  0  0  0  0  # atno 10167 bound_to 10162
  157.6820  131.0735  150.5304 H   0  0  0  0  0  0  0  0  0  0  0  0  # atno 10718 bound_to 10713
  154.8181  135.3311  154.7118 H   0  0  0  0  0  0  0  0  0  0  0  0  # atno 10763 bound_to 10752
  153.7756  135.6922  153.4902 H   0  0  0  0  0  0  0  0  0  0  0  0  # atno 10764 bound_to 10752
  153.2015  135.4514  155.0220 H   0  0  0  0  0  0  0  0  0  0  0  0  # atno 10765 bound_to 10752
  139.9123  134.7944  156.1949 H   0  0  0  0  0  0  0  0  0  0  0  0  # atno 11005 bound_to 11000
  146.2167  139.5563  142.9645 LP  0  0  0  0  0  0  0  0  0  0  0  0  # atno 17320 bound_to 7965
  145.5784  141.0385  143.2135 LP  0  0  0  0  0  0  0  0  0  0  0  0  # atno 17321 bound_to 7965
  140.4172  144.2291  150.5887 LP  0  0  0  0  0  0  0  0  0  0  0  0  # atno 17342 bound_to 10162
  140.4909  143.2348  151.8820 LP  0  0  0  0  0  0  0  0  0  0  0  0  # atno 17343 bound_to 10162
  156.5614  130.4256  149.6061 LP  0  0  0  0  0  0  0  0  0  0  0  0  # atno 17370 bound_to 10713
  156.2818  130.7075  151.1901 LP  0  0  0  0  0  0  0  0  0  0  0  0  # atno 17371 bound_to 10713
  141.0560  133.6865  156.1862 LP  0  0  0  0  0  0  0  0  0  0  0  0  # atno 17394 bound_to 11000
  140.6735  134.4842  157.5588 LP  0  0  0  0  0  0  0  0  0  0  0  0  # atno 17395 bound_to 11000

$$$$
