AV-unprocessed.smi:2341|AV-procd|sdf|9353|dock2
  -GOLD-   2272012573D 1   1.00000     0.00000
 Structure written by MMmdl.
 52 54  0  0  0  0  0  0  0  0  2 V2000
  152.4922  144.2939  162.6822 C   0  0  0  0  0  0  0  0  0  0  0  0
  151.9514  143.9706  161.3051 C   0  0  0  0  0  0  0  0  0  0  0  0
  151.6021  144.9900  160.3991 C   0  0  0  0  0  0  0  0  0  0  0  0
  151.1024  144.6298  159.1327 C   0  0  0  0  0  0  0  0  0  0  0  0
  150.9635  143.2628  158.8024 C   0  0  0  0  0  0  0  0  0  0  0  0
  150.4505  143.0071  157.5026 N   0  0  0  0  0  0  0  0  0  0  0  0
  150.3265  141.8235  156.8764 C   0  0  0  0  0  0  0  0  0  0  0  0
  150.6564  140.7319  157.3414 O   0  0  0  0  0  0  0  0  0  0  0  0
  149.7901  141.9724  155.6560 N   0  0  0  0  0  0  0  0  0  0  0  0
  149.5098  140.8828  154.7253 C   0  0  2  0  0  0  0  0  0  0  0  0
  148.1953  140.1666  155.0944 C   0  0  0  0  0  0  0  0  0  0  0  0
  147.9682  138.9165  154.2196 C   0  0  0  0  0  0  0  0  0  0  0  0
  149.1200  137.9693  154.2735 N   0  3  2  0  0  0  0  0  0  0  0  0
  149.2203  137.1772  155.5471 C   0  0  0  0  0  0  0  0  0  0  0  0
  150.5122  136.3195  155.6356 C   0  0  0  0  0  0  0  0  0  0  0  0
  150.5741  135.4728  156.9167 C   0  0  0  0  0  0  0  0  0  0  0  0
  149.3443  134.5687  157.0492 C   0  0  0  0  0  0  0  0  0  0  0  0
  148.0596  135.4024  156.9995 C   0  0  0  0  0  0  0  0  0  0  0  0
  147.9903  136.2469  155.7173 C   0  0  0  0  0  0  0  0  0  0  0  0
  150.3582  138.6719  153.8292 C   0  0  0  0  0  0  0  0  0  0  0  0
  150.6782  139.8827  154.7252 C   0  0  0  0  0  0  0  0  0  0  0  0
  151.3031  142.2882  159.6824 N   0  0  0  0  0  0  0  0  0  0  0  0
  151.7821  142.6340  160.8957 C   0  0  0  0  0  0  0  0  0  0  0  0
  152.6539  145.3654  162.8031 H   0  0  0  0  0  0  0  0  0  0  0  0
  153.4428  143.7852  162.8447 H   0  0  0  0  0  0  0  0  0  0  0  0
  151.7903  143.9650  163.4488 H   0  0  0  0  0  0  0  0  0  0  0  0
  151.7128  146.0309  160.6654 H   0  0  0  0  0  0  0  0  0  0  0  0
  150.8299  145.3997  158.4252 H   0  0  0  0  0  0  0  0  0  0  0  0
  150.1389  143.8203  156.9929 H   0  0  0  0  0  0  0  0  0  0  0  0
  149.5493  142.9052  155.3538 H   0  0  0  0  0  0  0  0  0  0  0  0
  149.4165  141.2915  153.7171 H   0  0  0  0  0  0  0  0  0  0  0  0
  148.2019  139.8906  156.1490 H   0  0  0  0  0  0  0  0  0  0  0  0
  147.3541  140.8495  154.9700 H   0  0  0  0  0  0  0  0  0  0  0  0
  147.0289  138.4370  154.4850 H   0  0  0  0  0  0  0  0  0  0  0  0
  147.8403  139.2318  153.1830 H   0  0  0  0  0  0  0  0  0  0  0  0
  149.2429  137.8724  156.3860 H   0  0  0  0  0  0  0  0  0  0  0  0
  150.5840  135.6654  154.7653 H   0  0  0  0  0  0  0  0  0  0  0  0
  151.4006  136.9503  155.6319 H   0  0  0  0  0  0  0  0  0  0  0  0
  151.4809  134.8669  156.9173 H   0  0  0  0  0  0  0  0  0  0  0  0
  150.6414  136.1290  157.7856 H   0  0  0  0  0  0  0  0  0  0  0  0
  149.3385  133.8320  156.2447 H   0  0  0  0  0  0  0  0  0  0  0  0
  149.3906  134.0086  157.9836 H   0  0  0  0  0  0  0  0  0  0  0  0
  147.1908  134.7460  157.0592 H   0  0  0  0  0  0  0  0  0  0  0  0
  148.0127  136.0561  157.8717 H   0  0  0  0  0  0  0  0  0  0  0  0
  147.0625  136.8144  155.7551 H   0  0  0  0  0  0  0  0  0  0  0  0
  147.9092  135.5848  154.8539 H   0  0  0  0  0  0  0  0  0  0  0  0
  151.2097  137.9983  153.7507 H   0  0  0  0  0  0  0  0  0  0  0  0
  150.1977  139.0236  152.8089 H   0  0  0  0  0  0  0  0  0  0  0  0
  151.5844  140.3731  154.3676 H   0  0  0  0  0  0  0  0  0  0  0  0
  150.8907  139.5494  155.7418 H   0  0  0  0  0  0  0  0  0  0  0  0
  152.0365  141.8194  161.5580 H   0  0  0  0  0  0  0  0  0  0  0  0
  148.9426  137.2774  153.5591 H   0  0  0  0  0  0  0  0  0  0  0  0
  1  2  1  0  0  0  0
  1 24  1  0  0  0  0
  1 25  1  0  0  0  0
  1 26  1  0  0  0  0
  2 23  1  0  0  0  0
  2  3  2  0  0  0  0
  3  4  1  0  0  0  0
  3 27  1  0  0  0  0
  4  5  2  0  0  0  0
  4 28  1  0  0  0  0
  5  6  1  0  0  0  0
  5 22  1  0  0  0  0
  6  7  1  0  0  0  0
  6 29  1  0  0  0  0
  7  8  2  0  0  0  0
  7  9  1  0  0  0  0
  9 10  1  0  0  0  0
  9 30  1  0  0  0  0
 10 21  1  0  0  0  0
 10 11  1  0  0  0  0
 10 31  1  0  0  0  0
 11 12  1  0  0  0  0
 11 32  1  0  0  0  0
 11 33  1  0  0  0  0
 12 13  1  0  0  0  0
 12 34  1  0  0  0  0
 12 35  1  0  0  0  0
 13 14  1  0  0  0  0
 13 20  1  0  0  0  0
 13 52  1  0  0  0  0
 14 19  1  0  0  0  0
 14 15  1  0  0  0  0
 14 36  1  0  0  0  0
 15 16  1  0  0  0  0
 15 37  1  0  0  0  0
 15 38  1  0  0  0  0
 16 17  1  0  0  0  0
 16 39  1  0  0  0  0
 16 40  1  0  0  0  0
 17 18  1  0  0  0  0
 17 41  1  0  0  0  0
 17 42  1  0  0  0  0
 18 19  1  0  0  0  0
 18 43  1  0  0  0  0
 18 44  1  0  0  0  0
 19 45  1  0  0  0  0
 19 46  1  0  0  0  0
 20 21  1  0  0  0  0
 20 47  1  0  0  0  0
 20 48  1  0  0  0  0
 21 49  1  0  0  0  0
 21 50  1  0  0  0  0
 22 23  2  0  0  0  0
 23 51  1  0  0  0  0
M  CHG  1  13   1
M  END
> <s_m_source_file>
AV-unprocessed.smi

> <i_m_source_file_index>
2341

> <i_lp_mmshare_version>
43012

> <i_f3d_flags>
0

> <s_epik_input>
W0NIM11jMVtjSF1bY0hdYyhuW2NIXTEpW05IXUMoPU8pW05IXVtDSF0yW0NIMl1bQ0gyXU4oW0NIMl1bQ0gyXTIpW0NIXTNbQ0gyXVtDSDJdW0NIMl1bQ0gyXVtDSDJdMw==

> <s_epik_cmdline>
J2VwaWtfcHl0aG9uJywgJy1waCcsICc3LjAnLCAnLXRuJywgJzgnLCAnLW1hJywgJzIwMCcsICctbWV0YWxfYmluZGluZycsICctaW1hZScsICc8aW5maWxlLm1hZT4nLCAnLW9tYWUnLCAnPG91dGZpbGUubWFlPic=

> <r_epik_Ionization_Penalty>
0.00176486

> <r_epik_Ionization_Penalty_Charging>
0.00171891

> <r_epik_Ionization_Penalty_Neutral>
4.59494e-05

> <r_epik_State_Penalty>
0.00116222

> <r_epik_Charging_Adjusted_Penalty>
0.00288114

> <i_epik_Tot_Q>
1

> <i_epik_Tot_abs_Q>
1

> <r_epik_Metal_State_Penalty>
-0

> <b_epik_Metal_Only>
0

> <s_lp_Force_Field>
OPLS_2005

> <r_lp_Energy>
32.471

> <b_lp_Chiralities_Consistent>
1

> <s_lp_Variant>
AV-unprocessed.smi:2341-2

> <Gold.Version>
5.8.1

> <Gold.Id.Protein>
6NUR|6NUR_protein|mol2

> <Gold.PLP.Fitness>
46.1999

> <Gold.PLP.PLP>
-34.9174

> <Gold.PLP.part.hbond>
-3.1407

> <Gold.PLP.part.metal>
0.0000

> <Gold.PLP.part.buried>
-1.1740

> <Gold.PLP.part.nonpolar>
-30.1700

> <Gold.PLP.part.repulsive>
0.1876

> <Gold.PLP.ligand.clash>
0.0000

> <Gold.PLP.ligand.torsion>
0.3872

> <Gold.PLP.Chemscore.Hbond>
4.0000

> <Gold.PLP.Chemscore.CHOScore>
0.0000

> <Gold.PLP.Chemscore.Metal>
0.0000

> <Gold.Chemscore.Hbonds>
donor molecule, donor type, donor heavy atom, donor atom, acceptor molecule, acceptor atom, score
      L1  H     6    29       P1  8028  1.00
      L1  H     9    30       P1  8028  1.00
      L1  H    13    52       P1  7948  2.00

> <Gold.PLP.Chemscore.Internal.Correction>
0.0570

> <Gold.Rescore>
     Score         DG    S(hbond)    S(metal)    S(lipo)     H(rot)  DE(clash)    DE(int)     intcor
     17.81     -24.71       2.89        0.00     107.90       1.19       3.87       3.03       ----

> <Gold.Chemscore.Fitness>
17.8127

> <Gold.Chemscore.DG>
-24.7133

> <Gold.Chemscore.ZeroCoef>
-5.4800

> <Gold.Chemscore.Hbond>
2.8924

> <Gold.Chemscore.Metal>
0.0000

> <Gold.Chemscore.Lipo>
107.8970

> <Gold.Chemscore.Internal_Hbond>
0.0000

> <Gold.Chemscore.DEClash>
3.8718

> <Gold.Chemscore.DEInternal>
3.0289

> <Gold.Chemscore.Rot>
1.1918

> <Gold.Chemscore.Internal.Correction>
   9.000000E+99

> <Gold.Chemscore.Hbonds>
donor molecule, donor type, donor heavy atom, donor atom, acceptor molecule, acceptor atom, score
      L1  H     6    29       P1  8028  0.88
      L1  H     9    30       P1  8028  0.97
      L1  H    13    52       P1  7948  0.98

> <Gold.Chemscore.Hbond.Weighted>
-9.6605

> <Gold.Chemscore.Metal.Weighted>
-0.0000

> <Gold.Chemscore.Lipo.Weighted>
-12.6240

> <Gold.Chemscore.Internal_Hbond.Weighted>
0.0000

> <Gold.Chemscore.DEClash.Weighted>
3.8718

> <Gold.Chemscore.DEInternal.Weighted>
3.0289

> <Gold.Chemscore.Rot.Weighted>
3.0511

> <Gold.Chemscore.Internal.Correction.Weighted>
   9.000000E+99

> <Gold.Protein.RotatedTorsions>
[ 6907 6896 6895 6894 ] final  -68.42 input  -60.11 | X-H torsion
[ 7974 7965 7964 7962 ] final   40.14 input  175.53 | X-H torsion
[ 8008 7997 7996 7995 ] final   32.43 input   59.86 | X-H torsion
[ 10167 10162 10161 10158 ] final  -30.09 input  -65.29 | X-H torsion
[ 10718 10713 10712 10709 ] final  119.71 input   66.30 | X-H torsion
[ 10763 10752 10751 10750 ] final  179.53 input  -60.55 | X-H torsion
[ 11005 11000 10999 10996 ] final  139.97 input  -57.11 | X-H torsion

> <Gold.Protein.ActiveResidues>
 VAL166  LYS551  ARG553  GLY616  TRP617  ASP618  TYR619  PRO620  LYS621  CYS622 
 ASP623  PHE694  ASN695  SER759  ASP760  ASP761  ALA762  ILE779  LEU786  VAL792 
 PHE793  MET794  SER795  GLU796  ALA797  LYS798  CYS799  TRP800  GLU811  SER814 

> <Gold.Protein.RotatedAtoms>
  150.7357  134.5742  159.5905 H   0  0  0  0  0  0  0  0  0  0  0  0  # atno 6907 bound_to 6896
  152.3173  134.7421  160.0331 H   0  0  0  0  0  0  0  0  0  0  0  0  # atno 6908 bound_to 6896
  151.7949  133.3327  159.3546 H   0  0  0  0  0  0  0  0  0  0  0  0  # atno 6909 bound_to 6896
  146.0929  139.5568  142.9464 H   0  0  0  0  0  0  0  0  0  0  0  0  # atno 7974 bound_to 7965
  155.1224  140.3249  155.4494 H   0  0  0  0  0  0  0  0  0  0  0  0  # atno 8008 bound_to 7997
  156.2659  140.2025  156.6294 H   0  0  0  0  0  0  0  0  0  0  0  0  # atno 8009 bound_to 7997
  154.6674  140.0540  157.0115 H   0  0  0  0  0  0  0  0  0  0  0  0  # atno 8010 bound_to 7997
  140.7253  143.3876  151.1487 H   0  0  0  0  0  0  0  0  0  0  0  0  # atno 10167 bound_to 10162
  157.5942  131.1060  150.7935 H   0  0  0  0  0  0  0  0  0  0  0  0  # atno 10718 bound_to 10713
  154.5219  135.2794  155.1255 H   0  0  0  0  0  0  0  0  0  0  0  0  # atno 10763 bound_to 10752
  154.2809  135.6285  153.5350 H   0  0  0  0  0  0  0  0  0  0  0  0  # atno 10764 bound_to 10752
  152.9938  135.5651  154.5710 H   0  0  0  0  0  0  0  0  0  0  0  0  # atno 10765 bound_to 10752
  140.0293  134.9360  157.0630 H   0  0  0  0  0  0  0  0  0  0  0  0  # atno 11005 bound_to 11000
  145.6005  141.0356  143.2021 LP  0  0  0  0  0  0  0  0  0  0  0  0  # atno 17320 bound_to 7965
  144.7373  139.7548  143.7324 LP  0  0  0  0  0  0  0  0  0  0  0  0  # atno 17321 bound_to 7965
  139.7476  143.8828  152.3068 LP  0  0  0  0  0  0  0  0  0  0  0  0  # atno 17342 bound_to 10162
  139.8671  144.7088  150.9031 LP  0  0  0  0  0  0  0  0  0  0  0  0  # atno 17343 bound_to 10162
  156.8349  130.5028  149.5327 LP  0  0  0  0  0  0  0  0  0  0  0  0  # atno 17370 bound_to 10713
  156.1002  130.5963  150.9880 LP  0  0  0  0  0  0  0  0  0  0  0  0  # atno 17371 bound_to 10713
  140.4253  134.1837  155.7166 LP  0  0  0  0  0  0  0  0  0  0  0  0  # atno 17394 bound_to 11000
  141.1821  133.8391  157.1219 LP  0  0  0  0  0  0  0  0  0  0  0  0  # atno 17395 bound_to 11000

$$$$
