AV-unprocessed.smi:1572|AV-procd|sdf|6331|dock4
  -GOLD-   22720 6543D 1   1.00000     0.00000
 Structure written by MMmdl.
 42 43  0  0  0  0  0  0  0  0  3 V2000
  144.3152  133.6781  150.8422 C   0  0  0  0  0  0  0  0  0  0  0  0
  145.4835  134.5287  150.6424 N   0  0  0  0  0  0  0  0  0  0  0  0
  145.6449  135.5400  151.6866 C   0  0  0  0  0  0  0  0  0  0  0  0
  146.0900  134.9286  153.0319 C   0  0  0  0  0  0  0  0  0  0  0  0
  147.3662  134.1741  152.8718 N   0  3  0  0  0  0  0  0  0  0  0  0
  148.0228  133.7135  154.1479 C   0  0  0  0  0  0  0  0  0  0  0  0
  147.2194  132.5367  154.7570 C   0  0  0  0  0  0  0  0  0  0  0  0
  149.4301  133.1482  153.8282 C   0  0  0  0  0  0  0  0  0  0  0  0
  148.1193  134.8735  155.1844 C   0  0  0  0  0  0  0  0  0  0  0  0
  148.1214  134.4116  156.5716 N   0  0  0  0  0  0  0  0  0  0  0  0
  148.9546  134.8103  157.5433 C   0  0  0  0  0  0  0  0  0  0  0  0
  149.8248  135.6507  157.3044 O   0  0  0  0  0  0  0  0  0  0  0  0
  148.7329  134.2012  158.7293 N   0  5  0  0  0  0  0  0  0  0  0  0
  148.0741  134.8502  159.7036 C   0  0  0  0  0  0  0  0  0  0  0  0
  147.8309  136.1694  159.6505 N   0  0  0  0  0  0  0  0  0  0  0  0
  147.1373  136.6415  160.7564 N   0  0  0  0  0  0  0  0  0  0  0  0
  146.8641  135.6588  161.6143 C   0  0  0  0  0  0  0  0  0  0  0  0
  147.4295  134.0683  161.1496 S   0  0  0  0  0  0  0  0  0  0  0  0
  147.1883  133.1343  151.8184 C   0  0  0  0  0  0  0  0  0  0  0  0
  146.7273  133.7743  150.4925 C   0  0  0  0  0  0  0  0  0  0  0  0
  143.4105  134.2852  150.8830 H   0  0  0  0  0  0  0  0  0  0  0  0
  144.3706  133.0952  151.7609 H   0  0  0  0  0  0  0  0  0  0  0  0
  144.2083  132.9833  150.0086 H   0  0  0  0  0  0  0  0  0  0  0  0
  146.3874  136.2665  151.3540 H   0  0  0  0  0  0  0  0  0  0  0  0
  144.7108  136.0896  151.8098 H   0  0  0  0  0  0  0  0  0  0  0  0
  146.2048  135.7521  153.7334 H   0  0  0  0  0  0  0  0  0  0  0  0
  145.3084  134.2854  153.4348 H   0  0  0  0  0  0  0  0  0  0  0  0
  147.7684  132.0489  155.5634 H   0  0  0  0  0  0  0  0  0  0  0  0
  147.0042  131.7719  154.0100 H   0  0  0  0  0  0  0  0  0  0  0  0
  146.2739  132.8597  155.1920 H   0  0  0  0  0  0  0  0  0  0  0  0
  149.8533  132.6104  154.6772 H   0  0  0  0  0  0  0  0  0  0  0  0
  150.1462  133.9319  153.5824 H   0  0  0  0  0  0  0  0  0  0  0  0
  149.3976  132.4468  152.9938 H   0  0  0  0  0  0  0  0  0  0  0  0
  148.9964  135.4944  155.0020 H   0  0  0  0  0  0  0  0  0  0  0  0
  147.2624  135.5394  155.0900 H   0  0  0  0  0  0  0  0  0  0  0  0
  147.4272  133.7223  156.8210 H   0  0  0  0  0  0  0  0  0  0  0  0
  146.3261  135.8714  162.5260 H   0  0  0  0  0  0  0  0  0  0  0  0
  148.1237  132.6185  151.6133 H   0  0  0  0  0  0  0  0  0  0  0  0
  146.4782  132.3735  152.1418 H   0  0  0  0  0  0  0  0  0  0  0  0
  146.6005  133.0097  149.7252 H   0  0  0  0  0  0  0  0  0  0  0  0
  147.5015  134.4508  150.1276 H   0  0  0  0  0  0  0  0  0  0  0  0
  148.0161  134.8389  152.4779 H   0  0  0  0  0  0  0  0  0  0  0  0
  1  2  1  0  0  0  0
  1 21  1  0  0  0  0
  1 22  1  0  0  0  0
  1 23  1  0  0  0  0
  2 20  1  0  0  0  0
  2  3  1  0  0  0  0
  3  4  1  0  0  0  0
  3 24  1  0  0  0  0
  3 25  1  0  0  0  0
  4  5  1  0  0  0  0
  4 26  1  0  0  0  0
  4 27  1  0  0  0  0
  5  6  1  0  0  0  0
  5 19  1  0  0  0  0
  5 42  1  0  0  0  0
  6  7  1  0  0  0  0
  6  8  1  0  0  0  0
  6  9  1  0  0  0  0
  7 28  1  0  0  0  0
  7 29  1  0  0  0  0
  7 30  1  0  0  0  0
  8 31  1  0  0  0  0
  8 32  1  0  0  0  0
  8 33  1  0  0  0  0
  9 10  1  0  0  0  0
  9 34  1  0  0  0  0
  9 35  1  0  0  0  0
 10 11  1  0  0  0  0
 10 36  1  0  0  0  0
 11 12  2  0  0  0  0
 11 13  1  0  0  0  0
 13 14  1  0  0  0  0
 14 18  1  0  0  0  0
 14 15  2  0  0  0  0
 15 16  1  0  0  0  0
 16 17  2  0  0  0  0
 17 18  1  0  0  0  0
 17 37  1  0  0  0  0
 19 20  1  0  0  0  0
 19 38  1  0  0  0  0
 19 39  1  0  0  0  0
 20 40  1  0  0  0  0
 20 41  1  0  0  0  0
M  CHG  1   5   1
M  CHG  1  13  -1
M  END
> <s_m_source_file>
AV-unprocessed.smi

> <i_m_source_file_index>
1572

> <i_lp_mmshare_version>
43012

> <i_f3d_flags>
0

> <s_epik_input>
W0NIM11OMVtDSDJdW0NIMl1OKFtDSDJdW0NIMl0xKUMoW0NIM10pKFtDSDNdKVtDSDJdW05IXUMoPU8pW05IXWMybm5bY0hdczI=

> <s_epik_cmdline>
J2VwaWtfcHl0aG9uJywgJy1waCcsICc3LjAnLCAnLXRuJywgJzgnLCAnLW1hJywgJzIwMCcsICctbWV0YWxfYmluZGluZycsICctaW1hZScsICc8aW5maWxlLm1hZT4nLCAnLW9tYWUnLCAnPG91dGZpbGUubWFlPic=

> <r_epik_Ionization_Penalty>
3.12043

> <r_epik_Ionization_Penalty_Charging>
3.08547

> <r_epik_Ionization_Penalty_Neutral>
0.0349584

> <r_epik_State_Penalty>
4.04075

> <r_epik_Charging_Adjusted_Penalty>
7.12622

> <i_epik_Tot_Q>
0

> <i_epik_Tot_abs_Q>
2

> <r_epik_Metal_State_Penalty>
1.47091

> <b_epik_Metal_Only>
1

> <s_lp_Force_Field>
OPLS_2005

> <r_lp_Energy>
19.1563

> <b_lp_Chiralities_Consistent>
1

> <s_lp_Variant>
AV-unprocessed.smi:1572-5

> <Gold.Version>
5.8.1

> <Gold.Id.Protein>
6NUR|6NUR_protein|mol2

> <Gold.PLP.Fitness>
41.6532

> <Gold.PLP.PLP>
-26.9980

> <Gold.PLP.part.hbond>
-4.0000

> <Gold.PLP.part.metal>
0.0000

> <Gold.PLP.part.buried>
-4.7886

> <Gold.PLP.part.nonpolar>
-18.0119

> <Gold.PLP.part.repulsive>
0.2152

> <Gold.PLP.ligand.clash>
0.0000

> <Gold.PLP.ligand.torsion>
1.4277

> <Gold.PLP.Chemscore.Hbond>
5.7868

> <Gold.PLP.Chemscore.CHOScore>
0.0000

> <Gold.PLP.Chemscore.Metal>
0.0000

> <Gold.Chemscore.Hbonds>
donor molecule, donor type, donor heavy atom, donor atom, acceptor molecule, acceptor atom, score
      L1  H     5    42       P1  7948  2.00
      P1  H  6896  6908       L1    13  1.80
      P1  H  6934  6947       L1    16  0.11

> <Gold.PLP.Chemscore.Internal.Correction>
0.1502

> <Gold.Rescore>
     Score         DG    S(hbond)    S(metal)    S(lipo)     H(rot)  DE(clash)    DE(int)     intcor
     15.78     -17.20       2.77        0.00      57.51       1.67       0.13       1.28       ----

> <Gold.Chemscore.Fitness>
15.7843

> <Gold.Chemscore.DG>
-17.1989

> <Gold.Chemscore.ZeroCoef>
-5.4800

> <Gold.Chemscore.Hbond>
2.7735

> <Gold.Chemscore.Metal>
0.0000

> <Gold.Chemscore.Lipo>
57.5149

> <Gold.Chemscore.Internal_Hbond>
0.0000

> <Gold.Chemscore.DEClash>
0.1340

> <Gold.Chemscore.DEInternal>
1.2806

> <Gold.Chemscore.Rot>
1.6694

> <Gold.Chemscore.Internal.Correction>
   9.000000E+99

> <Gold.Chemscore.Hbonds>
donor molecule, donor type, donor heavy atom, donor atom, acceptor molecule, acceptor atom, score
      L1  H     5    42       P1  7948  0.70
      P1  H  6896  6908       L1    13  0.07
      P1  H  6934  6947       L1    16  0.12

> <Gold.Chemscore.Hbond.Weighted>
-9.2634

> <Gold.Chemscore.Metal.Weighted>
-0.0000

> <Gold.Chemscore.Lipo.Weighted>
-6.7292

> <Gold.Chemscore.Internal_Hbond.Weighted>
0.0000

> <Gold.Chemscore.DEClash.Weighted>
0.1340

> <Gold.Chemscore.DEInternal.Weighted>
1.2806

> <Gold.Chemscore.Rot.Weighted>
4.2738

> <Gold.Chemscore.Internal.Correction.Weighted>
   9.000000E+99

> <Gold.Protein.RotatedTorsions>
[ 6907 6896 6895 6894 ] final  144.48 input  -60.11 | X-H torsion
[ 7974 7965 7964 7962 ] final  154.25 input  175.53 | X-H torsion
[ 8008 7997 7996 7995 ] final  -74.89 input   59.86 | X-H torsion
[ 10167 10162 10161 10158 ] final  -47.94 input  -65.29 | X-H torsion
[ 10718 10713 10712 10709 ] final  -95.76 input   66.30 | X-H torsion
[ 10763 10752 10751 10750 ] final  -52.70 input  -60.55 | X-H torsion
[ 11005 11000 10999 10996 ] final   11.71 input  -57.11 | X-H torsion

> <Gold.Protein.ActiveResidues>
 VAL166  LYS551  ARG553  GLY616  TRP617  ASP618  TYR619  PRO620  LYS621  CYS622 
 ASP623  PHE694  ASN695  SER759  ASP760  ASP761  ALA762  ILE779  LEU786  VAL792 
 PHE793  MET794  SER795  GLU796  ALA797  LYS798  CYS799  TRP800  GLU811  SER814 

> <Gold.Protein.RotatedAtoms>
  152.1932  133.4787  159.5018 H   0  0  0  0  0  0  0  0  0  0  0  0  # atno 6907 bound_to 6896
  150.6955  134.1686  159.4213 H   0  0  0  0  0  0  0  0  0  0  0  0  # atno 6908 bound_to 6896
  151.9601  135.0127  160.0598 H   0  0  0  0  0  0  0  0  0  0  0  0  # atno 6909 bound_to 6896
  144.8101  139.6909  143.6145 H   0  0  0  0  0  0  0  0  0  0  0  0  # atno 7974 bound_to 7965
  154.5370  140.0753  156.8444 H   0  0  0  0  0  0  0  0  0  0  0  0  # atno 8008 bound_to 7997
  155.3259  140.3399  155.4222 H   0  0  0  0  0  0  0  0  0  0  0  0  # atno 8009 bound_to 7997
  156.1837  140.1661  156.8212 H   0  0  0  0  0  0  0  0  0  0  0  0  # atno 8010 bound_to 7997
  140.6753  143.2762  151.3999 H   0  0  0  0  0  0  0  0  0  0  0  0  # atno 10167 bound_to 10162
  156.0049  130.5123  150.6125 H   0  0  0  0  0  0  0  0  0  0  0  0  # atno 10718 bound_to 10713
  154.1469  135.6496  153.4955 H   0  0  0  0  0  0  0  0  0  0  0  0  # atno 10763 bound_to 10752
  153.0149  135.5329  154.6847 H   0  0  0  0  0  0  0  0  0  0  0  0  # atno 10764 bound_to 10752
  154.6124  135.2955  155.0388 H   0  0  0  0  0  0  0  0  0  0  0  0  # atno 10765 bound_to 10752
  140.5002  134.0753  155.7792 H   0  0  0  0  0  0  0  0  0  0  0  0  # atno 11005 bound_to 11000
  146.2398  139.5978  142.9499 LP  0  0  0  0  0  0  0  0  0  0  0  0  # atno 17320 bound_to 7965
  145.5345  141.0425  143.2364 LP  0  0  0  0  0  0  0  0  0  0  0  0  # atno 17321 bound_to 7965
  139.6042  144.1232  152.2231 LP  0  0  0  0  0  0  0  0  0  0  0  0  # atno 17342 bound_to 10162
  140.0626  144.5844  150.7252 LP  0  0  0  0  0  0  0  0  0  0  0  0  # atno 17343 bound_to 10162
  157.3955  131.0802  151.1356 LP  0  0  0  0  0  0  0  0  0  0  0  0  # atno 17370 bound_to 10713
  157.2034  130.6405  149.5747 LP  0  0  0  0  0  0  0  0  0  0  0  0  # atno 17371 bound_to 10713
  141.1439  133.9089  157.2261 LP  0  0  0  0  0  0  0  0  0  0  0  0  # atno 17394 bound_to 11000
  139.9718  135.0126  156.9530 LP  0  0  0  0  0  0  0  0  0  0  0  0  # atno 17395 bound_to 11000

$$$$
