AV-unprocessed.smi:2524|AV-procd|sdf|9925|dock5
  -GOLD-   2272013563D 1   1.00000     0.00000
 Structure written by MMmdl.
 36 37  0  0  0  0  0  0  0  0  3 V2000
  153.7543  136.5775  164.2690 C   0  0  0  0  0  0  0  0  0  0  0  0
  154.5267  136.8020  163.1955 C   0  0  0  0  0  0  0  0  0  0  0  0
  154.0700  136.6370  161.7612 C   0  0  0  0  0  0  0  0  0  0  0  0
  154.4286  137.8566  160.9037 C   0  0  0  0  0  0  0  0  0  0  0  0
  153.8182  137.6520  159.1703 S   0  0  0  0  0  0  0  0  0  0  0  0
  154.8437  136.8679  158.4612 O   0  0  0  0  0  0  0  0  0  0  0  0
  152.4916  137.0307  159.3010 O   0  0  0  0  0  0  0  0  0  0  0  0
  153.6976  139.1922  158.6641 N   0  5  0  0  0  0  0  0  0  0  0  0
  152.5706  140.0302  159.0559 C   0  0  0  0  0  0  0  0  0  0  0  0
  153.0111  141.4036  159.6042 C   0  0  0  0  0  0  0  0  0  0  0  0
  152.0620  142.4874  159.1465 C   0  0  0  0  0  0  0  0  0  0  0  0
  152.4171  143.8558  159.2396 C   0  0  0  0  0  0  0  0  0  0  0  0
  151.5075  144.8461  158.8171 C   0  0  0  0  0  0  0  0  0  0  0  0
  150.2998  144.4865  158.3325 N   0  3  0  0  0  0  0  0  0  0  0  0
  149.9093  143.1982  158.2306 C   0  0  0  0  0  0  0  0  0  0  0  0
  150.7794  142.1668  158.6377 C   0  0  0  0  0  0  0  0  0  0  0  0
  153.6449  141.5538  160.9800 C   0  0  0  0  0  0  0  0  0  0  0  0
  154.4809  141.7732  159.7418 C   0  0  0  0  0  0  0  0  0  0  0  0
  152.7289  136.2546  164.1646 H   0  0  0  0  0  0  0  0  0  0  0  0
  154.1400  136.7139  165.2685 H   0  0  0  0  0  0  0  0  0  0  0  0
  155.5478  137.1244  163.3380 H   0  0  0  0  0  0  0  0  0  0  0  0
  154.5169  135.7384  161.3341 H   0  0  0  0  0  0  0  0  0  0  0  0
  152.9907  136.4827  161.7608 H   0  0  0  0  0  0  0  0  0  0  0  0
  153.9814  138.7621  161.3144 H   0  0  0  0  0  0  0  0  0  0  0  0
  155.5088  137.9974  160.8792 H   0  0  0  0  0  0  0  0  0  0  0  0
  151.8993  140.2143  158.2161 H   0  0  0  0  0  0  0  0  0  0  0  0
  151.9641  139.5401  159.8182 H   0  0  0  0  0  0  0  0  0  0  0  0
  153.3839  144.1417  159.6283 H   0  0  0  0  0  0  0  0  0  0  0  0
  151.7086  145.9068  158.8525 H   0  0  0  0  0  0  0  0  0  0  0  0
  148.9199  143.0319  157.8302 H   0  0  0  0  0  0  0  0  0  0  0  0
  150.4684  141.1352  158.5573 H   0  0  0  0  0  0  0  0  0  0  0  0
  153.3893  142.4351  161.5647 H   0  0  0  0  0  0  0  0  0  0  0  0
  153.8857  140.6714  161.5714 H   0  0  0  0  0  0  0  0  0  0  0  0
  155.2511  141.0295  159.5419 H   0  0  0  0  0  0  0  0  0  0  0  0
  154.7711  142.7982  159.5194 H   0  0  0  0  0  0  0  0  0  0  0  0
  149.6554  145.2184  158.0320 H   0  0  0  0  0  0  0  0  0  0  0  0
  1  2  2  0  0  0  0
  1 19  1  0  0  0  0
  1 20  1  0  0  0  0
  2  3  1  0  0  0  0
  2 21  1  0  0  0  0
  3  4  1  0  0  0  0
  3 22  1  0  0  0  0
  3 23  1  0  0  0  0
  4  5  1  0  0  0  0
  4 24  1  0  0  0  0
  4 25  1  0  0  0  0
  5  6  2  0  0  0  0
  5  7  2  0  0  0  0
  5  8  1  0  0  0  0
  8  9  1  0  0  0  0
  9 10  1  0  0  0  0
  9 26  1  0  0  0  0
  9 27  1  0  0  0  0
 10 18  1  0  0  0  0
 10 11  1  0  0  0  0
 10 17  1  0  0  0  0
 11 16  1  0  0  0  0
 11 12  2  0  0  0  0
 12 13  1  0  0  0  0
 12 28  1  0  0  0  0
 13 14  2  0  0  0  0
 13 29  1  0  0  0  0
 14 15  1  0  0  0  0
 14 36  1  0  0  0  0
 15 16  2  0  0  0  0
 15 30  1  0  0  0  0
 16 31  1  0  0  0  0
 17 18  1  0  0  0  0
 17 32  1  0  0  0  0
 17 33  1  0  0  0  0
 18 34  1  0  0  0  0
 18 35  1  0  0  0  0
M  CHG  1   8  -1
M  CHG  1  14   1
M  END
> <s_m_source_file>
AV-unprocessed.smi

> <i_m_source_file_index>
2524

> <i_lp_mmshare_version>
43012

> <i_f3d_flags>
0

> <s_epik_input>
W0NIMl09W0NIXVtDSDJdW0NIMl1TKD1PKSg9TylbTkhdW0NIMl1DMShbQ0gyXVtDSDJdMSljMltjSF1bY0hdbltjSF1bY0hdMg==

> <s_epik_cmdline>
J2VwaWtfcHl0aG9uJywgJy1waCcsICc3LjAnLCAnLXRuJywgJzgnLCAnLW1hJywgJzIwMCcsICctbWV0YWxfYmluZGluZycsICctaW1hZScsICc8aW5maWxlLm1hZT4nLCAnLW9tYWUnLCAnPG91dGZpbGUubWFlPic=

> <r_epik_Ionization_Penalty>
7.77019

> <r_epik_Ionization_Penalty_Charging>
7.77019

> <r_epik_Ionization_Penalty_Neutral>
0

> <r_epik_State_Penalty>
8.15763

> <r_epik_Charging_Adjusted_Penalty>
15.9278

> <i_epik_Tot_Q>
0

> <i_epik_Tot_abs_Q>
2

> <r_epik_Metal_State_Penalty>
4.11642

> <b_epik_Metal_Only>
1

> <s_lp_Force_Field>
OPLS_2005

> <r_lp_Energy>
17.0566

> <b_lp_Chiralities_Consistent>
1

> <s_lp_Variant>
AV-unprocessed.smi:2524-4

> <Gold.Version>
5.8.1

> <Gold.Id.Protein>
6NUR|6NUR_protein|mol2

> <Gold.PLP.Fitness>
52.1155

> <Gold.PLP.PLP>
-39.9631

> <Gold.PLP.part.hbond>
-3.8456

> <Gold.PLP.part.metal>
0.0000

> <Gold.PLP.part.buried>
-3.9520

> <Gold.PLP.part.nonpolar>
-32.4989

> <Gold.PLP.part.repulsive>
0.1247

> <Gold.PLP.ligand.clash>
0.0000

> <Gold.PLP.ligand.torsion>
2.3217

> <Gold.PLP.Chemscore.Hbond>
4.7788

> <Gold.PLP.Chemscore.CHOScore>
0.0000

> <Gold.PLP.Chemscore.Metal>
0.0000

> <Gold.Chemscore.Hbonds>
donor molecule, donor type, donor heavy atom, donor atom, acceptor molecule, acceptor atom, score
      L1  H    14    36       P1  8029  1.78
      P1  H  6896  6909       L1     7  0.73
      P1  H  7997  8008       L1     8  2.00

> <Gold.PLP.Chemscore.Internal.Correction>
2.4595

> <Gold.Rescore>
     Score         DG    S(hbond)    S(metal)    S(lipo)     H(rot)  DE(clash)    DE(int)     intcor
     19.30     -22.17       2.50        0.00     108.60       1.70       0.60       2.27       ----

> <Gold.Chemscore.Fitness>
19.3007

> <Gold.Chemscore.DG>
-22.1738

> <Gold.Chemscore.ZeroCoef>
-5.4800

> <Gold.Chemscore.Hbond>
2.4986

> <Gold.Chemscore.Metal>
0.0000

> <Gold.Chemscore.Lipo>
108.5952

> <Gold.Chemscore.Internal_Hbond>
0.0000

> <Gold.Chemscore.DEClash>
0.6010

> <Gold.Chemscore.DEInternal>
2.2722

> <Gold.Chemscore.Rot>
1.7020

> <Gold.Chemscore.Internal.Correction>
   9.000000E+99

> <Gold.Chemscore.Hbonds>
donor molecule, donor type, donor heavy atom, donor atom, acceptor molecule, acceptor atom, score
      L1  H    14    36       P1  8029  0.16
      P1  H  6896  6909       L1     7  0.71
      P1  H  7997  8008       L1     8  0.75

> <Gold.Chemscore.Hbond.Weighted>
-8.3454

> <Gold.Chemscore.Metal.Weighted>
-0.0000

> <Gold.Chemscore.Lipo.Weighted>
-12.7056

> <Gold.Chemscore.Internal_Hbond.Weighted>
0.0000

> <Gold.Chemscore.DEClash.Weighted>
0.6010

> <Gold.Chemscore.DEInternal.Weighted>
2.2722

> <Gold.Chemscore.Rot.Weighted>
4.3572

> <Gold.Chemscore.Internal.Correction.Weighted>
   9.000000E+99

> <Gold.Protein.RotatedTorsions>
[ 6907 6896 6895 6894 ] final  133.47 input  -60.11 | X-H torsion
[ 7974 7965 7964 7962 ] final -178.46 input  175.53 | X-H torsion
[ 8008 7997 7996 7995 ] final  -95.96 input   59.86 | X-H torsion
[ 10167 10162 10161 10158 ] final  -33.65 input  -65.29 | X-H torsion
[ 10718 10713 10712 10709 ] final  154.27 input   66.30 | X-H torsion
[ 10763 10752 10751 10750 ] final  143.62 input  -60.55 | X-H torsion
[ 11005 11000 10999 10996 ] final   37.60 input  -57.11 | X-H torsion

> <Gold.Protein.ActiveResidues>
 VAL166  LYS551  ARG553  GLY616  TRP617  ASP618  TYR619  PRO620  LYS621  CYS622 
 ASP623  PHE694  ASN695  SER759  ASP760  ASP761  ALA762  ILE779  LEU786  VAL792 
 PHE793  MET794  SER795  GLU796  ALA797  LYS798  CYS799  TRP800  GLU811  SER814 

> <Gold.Protein.RotatedAtoms>
  152.3215  133.5859  159.5747 H   0  0  0  0  0  0  0  0  0  0  0  0  # atno 6907 bound_to 6896
  150.7374  134.0003  159.3645 H   0  0  0  0  0  0  0  0  0  0  0  0  # atno 6908 bound_to 6896
  151.7887  135.0742  160.0435 H   0  0  0  0  0  0  0  0  0  0  0  0  # atno 6909 bound_to 6896
  144.7131  140.0865  143.6423 H   0  0  0  0  0  0  0  0  0  0  0  0  # atno 7974 bound_to 7965
  154.7682  140.0475  157.1030 H   0  0  0  0  0  0  0  0  0  0  0  0  # atno 8008 bound_to 7997
  154.9853  140.3106  155.4909 H   0  0  0  0  0  0  0  0  0  0  0  0  # atno 8009 bound_to 7997
  156.2916  140.2228  156.4954 H   0  0  0  0  0  0  0  0  0  0  0  0  # atno 8010 bound_to 7997
  140.7200  143.3605  151.1973 H   0  0  0  0  0  0  0  0  0  0  0  0  # atno 10167 bound_to 10162
  157.2338  131.0745  151.1836 H   0  0  0  0  0  0  0  0  0  0  0  0  # atno 10718 bound_to 10713
  153.9754  135.2946  155.3424 H   0  0  0  0  0  0  0  0  0  0  0  0  # atno 10763 bound_to 10752
  154.7299  135.5072  153.8949 H   0  0  0  0  0  0  0  0  0  0  0  0  # atno 10764 bound_to 10752
  153.0880  135.6699  154.0024 H   0  0  0  0  0  0  0  0  0  0  0  0  # atno 10765 bound_to 10752
  140.2209  134.3642  155.8005 H   0  0  0  0  0  0  0  0  0  0  0  0  # atno 11005 bound_to 11000
  145.9657  139.2833  143.1129 LP  0  0  0  0  0  0  0  0  0  0  0  0  # atno 17320 bound_to 7965
  145.9172  140.9140  143.0424 LP  0  0  0  0  0  0  0  0  0  0  0  0  # atno 17321 bound_to 7965
  139.7155  143.9307  152.2965 LP  0  0  0  0  0  0  0  0  0  0  0  0  # atno 17342 bound_to 10162
  139.9046  144.6892  150.8628 LP  0  0  0  0  0  0  0  0  0  0  0  0  # atno 17343 bound_to 10162
  157.3450  130.7053  149.6405 LP  0  0  0  0  0  0  0  0  0  0  0  0  # atno 17370 bound_to 10713
  155.9674  130.4269  150.4719 LP  0  0  0  0  0  0  0  0  0  0  0  0  # atno 17371 bound_to 10713
  141.2223  133.7193  156.8574 LP  0  0  0  0  0  0  0  0  0  0  0  0  # atno 17394 bound_to 11000
  140.1851  134.9006  157.2994 LP  0  0  0  0  0  0  0  0  0  0  0  0  # atno 17395 bound_to 11000

$$$$
