AV-unprocessed.smi:3196|AV-procd|sdf|12222|dock8
  -GOLD-   2272018 53D 1   1.00000     0.00000
 Structure written by MMmdl.
 33 34  0  0  0  0  0  0  0  0  1 V2000
  144.6874  145.0953  153.4726 C   0  0  0  0  0  0  0  0  0  0  0  0
  145.0635  143.8374  154.2627 C   0  0  0  0  0  0  0  0  0  0  0  0
  146.4608  143.3139  153.9042 C   0  0  0  0  0  0  0  0  0  0  0  0
  146.5713  141.8075  154.0614 C   0  0  1  0  0  0  0  0  0  0  0  0
  147.7815  141.0636  153.5630 C   0  0  0  0  0  0  0  0  0  0  0  0
  147.5212  141.1635  155.0526 C   0  0  1  0  0  0  0  0  0  0  0  0
  148.4057  141.9944  155.8151 N   0  0  0  0  0  0  0  0  0  0  0  0
  149.4089  141.6082  156.6235 C   0  0  0  0  0  0  0  0  0  0  0  0
  149.6878  140.4190  156.7561 O   0  0  0  0  0  0  0  0  0  0  0  0
  150.0679  142.6287  157.2086 N   0  0  0  0  0  0  0  0  0  0  0  0
  151.1725  142.6110  158.1057 C   0  0  0  0  0  0  0  0  0  0  0  0
  151.4891  141.5433  158.9816 C   0  0  0  0  0  0  0  0  0  0  0  0
  152.6157  141.6683  159.8194 C   0  0  0  0  0  0  0  0  0  0  0  0
  153.4135  142.7567  159.8385 N   0  0  0  0  0  0  0  0  0  0  0  0
  153.1062  143.7747  159.0076 C   0  0  0  0  0  0  0  0  0  0  0  0
  152.0045  143.7510  158.1292 C   0  0  0  0  0  0  0  0  0  0  0  0
  151.7531  144.8099  157.3216 F   0  0  0  0  0  0  0  0  0  0  0  0
  143.6917  145.4437  153.7479 H   0  0  0  0  0  0  0  0  0  0  0  0
  144.6871  144.9006  152.3999 H   0  0  0  0  0  0  0  0  0  0  0  0
  145.3894  145.9066  153.6665 H   0  0  0  0  0  0  0  0  0  0  0  0
  145.0171  144.0568  155.3301 H   0  0  0  0  0  0  0  0  0  0  0  0
  144.3228  143.0594  154.0744 H   0  0  0  0  0  0  0  0  0  0  0  0
  146.7030  143.5933  152.8781 H   0  0  0  0  0  0  0  0  0  0  0  0
  147.2098  143.7825  154.5434 H   0  0  0  0  0  0  0  0  0  0  0  0
  145.6179  141.2958  153.9428 H   0  0  0  0  0  0  0  0  0  0  0  0
  147.6144  140.0997  153.0868 H   0  0  0  0  0  0  0  0  0  0  0  0
  148.5998  141.6497  153.1482 H   0  0  0  0  0  0  0  0  0  0  0  0
  147.1861  140.2368  155.5159 H   0  0  0  0  0  0  0  0  0  0  0  0
  148.2953  142.9891  155.6808 H   0  0  0  0  0  0  0  0  0  0  0  0
  149.7389  143.5513  156.9638 H   0  0  0  0  0  0  0  0  0  0  0  0
  150.9026  140.6405  159.0383 H   0  0  0  0  0  0  0  0  0  0  0  0
  152.8818  140.8699  160.4964 H   0  0  0  0  0  0  0  0  0  0  0  0
  153.7575  144.6353  159.0443 H   0  0  0  0  0  0  0  0  0  0  0  0
  1  2  1  0  0  0  0
  1 18  1  0  0  0  0
  1 19  1  0  0  0  0
  1 20  1  0  0  0  0
  2  3  1  0  0  0  0
  2 21  1  0  0  0  0
  2 22  1  0  0  0  0
  3  4  1  0  0  0  0
  3 23  1  0  0  0  0
  3 24  1  0  0  0  0
  4  6  1  0  0  0  0
  4  5  1  0  0  0  0
  4 25  1  0  0  0  0
  5  6  1  0  0  0  0
  5 26  1  0  0  0  0
  5 27  1  0  0  0  0
  6  7  1  0  0  0  0
  6 28  1  0  0  0  0
  7  8  1  0  0  0  0
  7 29  1  0  0  0  0
  8  9  2  0  0  0  0
  8 10  1  0  0  0  0
 10 11  1  0  0  0  0
 10 30  1  0  0  0  0
 11 16  1  0  0  0  0
 11 12  2  0  0  0  0
 12 13  1  0  0  0  0
 12 31  1  0  0  0  0
 13 14  2  0  0  0  0
 13 32  1  0  0  0  0
 14 15  1  0  0  0  0
 15 16  2  0  0  0  0
 15 33  1  0  0  0  0
 16 17  1  0  0  0  0
M  END
> <s_m_source_file>
AV-unprocessed.smi

> <i_m_source_file_index>
3196

> <i_lp_mmshare_version>
43012

> <i_f3d_flags>
0

> <s_epik_input>
W0NIM11bQ0gyXVtDSDJdW0NAQEhdMVtDSDJdW0NASF0xW05IXUMoPU8pW05IXWMyW2NIXVtjSF1uW2NIXWMyRg==

> <s_epik_cmdline>
J2VwaWtfcHl0aG9uJywgJy1waCcsICc3LjAnLCAnLXRuJywgJzgnLCAnLW1hJywgJzIwMCcsICctbWV0YWxfYmluZGluZycsICctaW1hZScsICc8aW5maWxlLm1hZT4nLCAnLW9tYWUnLCAnPG91dGZpbGUubWFlPic=

> <r_epik_Ionization_Penalty>
0.00341997

> <r_epik_Ionization_Penalty_Charging>
0

> <r_epik_Ionization_Penalty_Neutral>
0.00341997

> <r_epik_State_Penalty>
0.00239198

> <r_epik_Charging_Adjusted_Penalty>
0.00239198

> <i_epik_Tot_Q>
0

> <i_epik_Tot_abs_Q>
0

> <r_epik_Metal_State_Penalty>
-0

> <b_epik_Metal_Only>
0

> <s_lp_Force_Field>
OPLS_2005

> <r_lp_Energy>
35.1311

> <b_lp_Chiralities_Consistent>
1

> <s_lp_Variant>
AV-unprocessed.smi:3196-2

> <Gold.Version>
5.8.1

> <Gold.Id.Protein>
6NUR|6NUR_protein|mol2

> <Gold.PLP.Fitness>
42.4983

> <Gold.PLP.PLP>
-37.6831

> <Gold.PLP.part.hbond>
-2.0000

> <Gold.PLP.part.metal>
0.0000

> <Gold.PLP.part.buried>
-4.1196

> <Gold.PLP.part.nonpolar>
-32.0885

> <Gold.PLP.part.repulsive>
0.1083

> <Gold.PLP.ligand.clash>
0.0000

> <Gold.PLP.ligand.torsion>
0.8702

> <Gold.PLP.Chemscore.Hbond>
2.0000

> <Gold.PLP.Chemscore.CHOScore>
0.0000

> <Gold.PLP.Chemscore.Metal>
0.0000

> <Gold.Chemscore.Hbonds>
donor molecule, donor type, donor heavy atom, donor atom, acceptor molecule, acceptor atom, score
      L1  H     7    29       P1  8028  1.00
      L1  H    10    30       P1  8028  0.99

> <Gold.PLP.Chemscore.Internal.Correction>
0.5557

> <Gold.Rescore>
     Score         DG    S(hbond)    S(metal)    S(lipo)     H(rot)  DE(clash)    DE(int)     intcor
     17.57     -19.13       1.89        0.00      93.00       1.39       0.77       0.79       ----

> <Gold.Chemscore.Fitness>
17.5671

> <Gold.Chemscore.DG>
-19.1289

> <Gold.Chemscore.ZeroCoef>
-5.4800

> <Gold.Chemscore.Hbond>
1.8905

> <Gold.Chemscore.Metal>
0.0000

> <Gold.Chemscore.Lipo>
92.9982

> <Gold.Chemscore.Internal_Hbond>
0.0000

> <Gold.Chemscore.DEClash>
0.7705

> <Gold.Chemscore.DEInternal>
0.7913

> <Gold.Chemscore.Rot>
1.3852

> <Gold.Chemscore.Internal.Correction>
   9.000000E+99

> <Gold.Chemscore.Hbonds>
donor molecule, donor type, donor heavy atom, donor atom, acceptor molecule, acceptor atom, score
      L1  H     7    29       P1  8028  0.94
      L1  H    10    30       P1  8028  0.92

> <Gold.Chemscore.Hbond.Weighted>
-6.3142

> <Gold.Chemscore.Metal.Weighted>
-0.0000

> <Gold.Chemscore.Lipo.Weighted>
-10.8808

> <Gold.Chemscore.Internal_Hbond.Weighted>
0.0000

> <Gold.Chemscore.DEClash.Weighted>
0.7705

> <Gold.Chemscore.DEInternal.Weighted>
0.7913

> <Gold.Chemscore.Rot.Weighted>
3.5460

> <Gold.Chemscore.Internal.Correction.Weighted>
   9.000000E+99

> <Gold.Protein.RotatedTorsions>
[ 6907 6896 6895 6894 ] final   28.63 input  -60.11 | X-H torsion
[ 7974 7965 7964 7962 ] final   66.15 input  175.53 | X-H torsion
[ 8008 7997 7996 7995 ] final -156.82 input   59.86 | X-H torsion
[ 10167 10162 10161 10158 ] final  -22.66 input  -65.29 | X-H torsion
[ 10718 10713 10712 10709 ] final -174.73 input   66.30 | X-H torsion
[ 10763 10752 10751 10750 ] final -154.78 input  -60.55 | X-H torsion
[ 11005 11000 10999 10996 ] final -125.70 input  -57.11 | X-H torsion

> <Gold.Protein.ActiveResidues>
 VAL166  LYS551  ARG553  GLY616  TRP617  ASP618  TYR619  PRO620  LYS621  CYS622 
 ASP623  PHE694  ASN695  SER759  ASP760  ASP761  ALA762  ILE779  LEU786  VAL792 
 PHE793  MET794  SER795  GLU796  ALA797  LYS798  CYS799  TRP800  GLU811  SER814 

> <Gold.Protein.RotatedAtoms>
  152.0197  134.9829  160.0570 H   0  0  0  0  0  0  0  0  0  0  0  0  # atno 6907 bound_to 6896
  152.1349  133.4424  159.4747 H   0  0  0  0  0  0  0  0  0  0  0  0  # atno 6908 bound_to 6896
  150.6859  134.2294  159.4472 H   0  0  0  0  0  0  0  0  0  0  0  0  # atno 6909 bound_to 6896
  145.8300  139.3134  143.0993 H   0  0  0  0  0  0  0  0  0  0  0  0  # atno 7974 bound_to 7965
  155.7230  140.0792  157.2322 H   0  0  0  0  0  0  0  0  0  0  0  0  # atno 8008 bound_to 7997
  154.4042  140.1609  156.2477 H   0  0  0  0  0  0  0  0  0  0  0  0  # atno 8009 bound_to 7997
  155.9179  140.3399  155.6152 H   0  0  0  0  0  0  0  0  0  0  0  0  # atno 8010 bound_to 7997
  140.7286  143.4514  151.0511 H   0  0  0  0  0  0  0  0  0  0  0  0  # atno 10167 bound_to 10162
  156.7893  130.9512  151.3120 H   0  0  0  0  0  0  0  0  0  0  0  0  # atno 10718 bound_to 10713
  154.7834  135.3182  154.7939 H   0  0  0  0  0  0  0  0  0  0  0  0  # atno 10763 bound_to 10752
  153.8645  135.6850  153.4784 H   0  0  0  0  0  0  0  0  0  0  0  0  # atno 10764 bound_to 10752
  153.1478  135.4712  154.9530 H   0  0  0  0  0  0  0  0  0  0  0  0  # atno 10765 bound_to 10752
  140.9741  134.0765  157.3838 H   0  0  0  0  0  0  0  0  0  0  0  0  # atno 11005 bound_to 11000
  145.9581  140.8857  143.0225 LP  0  0  0  0  0  0  0  0  0  0  0  0  # atno 17320 bound_to 7965
  144.6740  140.1774  143.7409 LP  0  0  0  0  0  0  0  0  0  0  0  0  # atno 17321 bound_to 7965
  139.8190  143.7846  152.3176 LP  0  0  0  0  0  0  0  0  0  0  0  0  # atno 17342 bound_to 10162
  139.7922  144.7406  150.9940 LP  0  0  0  0  0  0  0  0  0  0  0  0  # atno 17343 bound_to 10162
  157.6608  130.8964  149.9826 LP  0  0  0  0  0  0  0  0  0  0  0  0  # atno 17370 bound_to 10713
  156.1169  130.3647  149.9953 LP  0  0  0  0  0  0  0  0  0  0  0  0  # atno 17371 bound_to 10713
  139.8923  135.0124  156.6841 LP  0  0  0  0  0  0  0  0  0  0  0  0  # atno 17394 bound_to 11000
  140.7285  133.9079  155.8195 LP  0  0  0  0  0  0  0  0  0  0  0  0  # atno 17395 bound_to 11000

$$$$
