AV-unprocessed.smi:2751|AV-procd|sdf|10602|dock10
  -GOLD-   2272015 53D 1   1.00000     0.00000
 Structure written by MMmdl.
 34 35  0  0  0  0  0  0  0  0  1 V2000
  147.3133  137.7545  154.0592 O   0  0  0  0  0  0  0  0  0  0  0  0
  146.2824  138.3094  153.6653 C   0  0  0  0  0  0  0  0  0  0  0  0
  146.2152  139.6415  153.5219 N   0  0  0  0  0  0  0  0  0  0  0  0
  147.2970  140.5787  153.8037 C   0  0  0  0  0  0  0  0  0  0  0  0
  148.6410  140.0712  153.2535 C   0  0  0  0  0  0  0  0  0  0  0  0
  149.5951  139.5893  154.3575 C   0  0  1  0  0  0  0  0  0  0  0  0
  150.5074  138.4466  153.8705 C   0  0  0  0  0  0  0  0  0  0  0  0
  151.4986  138.0416  154.9675 C   0  0  0  0  0  0  0  0  0  0  0  0
  152.2534  139.2791  155.4639 C   0  0  0  0  0  0  0  0  0  0  0  0
  151.2626  140.3839  155.8644 C   0  0  0  0  0  0  0  0  0  0  0  0
  150.4062  140.6889  154.7679 O   0  0  0  0  0  0  0  0  0  0  0  0
  145.0681  137.7326  153.3196 N   0  0  0  0  0  0  0  0  0  0  0  0
  145.0107  136.8605  152.3598 C   0  0  0  0  0  0  0  0  0  0  0  0
  145.9718  136.3153  151.5124 N   0  0  0  0  0  0  0  0  0  0  0  0
  145.3509  135.4295  150.6769 C   0  0  0  0  0  0  0  0  0  0  0  0
  144.0570  135.4136  150.9820 C   0  0  0  0  0  0  0  0  0  0  0  0
  143.8189  136.2789  152.0075 O   0  0  0  0  0  0  0  0  0  0  0  0
  145.3446  140.0361  153.1961 H   0  0  0  0  0  0  0  0  0  0  0  0
  147.0574  141.5615  153.3947 H   0  0  0  0  0  0  0  0  0  0  0  0
  147.3624  140.7017  154.8851 H   0  0  0  0  0  0  0  0  0  0  0  0
  148.4503  139.2502  152.5611 H   0  0  0  0  0  0  0  0  0  0  0  0
  149.1273  140.8554  152.6717 H   0  0  0  0  0  0  0  0  0  0  0  0
  149.0035  139.2424  155.2067 H   0  0  0  0  0  0  0  0  0  0  0  0
  149.9092  137.5845  153.5737 H   0  0  0  0  0  0  0  0  0  0  0  0
  151.0569  138.7663  152.9840 H   0  0  0  0  0  0  0  0  0  0  0  0
  150.9606  137.5814  155.7973 H   0  0  0  0  0  0  0  0  0  0  0  0
  152.1977  137.2938  154.5922 H   0  0  0  0  0  0  0  0  0  0  0  0
  152.8918  139.0191  156.3085 H   0  0  0  0  0  0  0  0  0  0  0  0
  152.9105  139.6479  154.6755 H   0  0  0  0  0  0  0  0  0  0  0  0
  150.6701  140.0818  156.7293 H   0  0  0  0  0  0  0  0  0  0  0  0
  151.8038  141.2860  156.1495 H   0  0  0  0  0  0  0  0  0  0  0  0
  146.9622  136.5115  151.4827 H   0  0  0  0  0  0  0  0  0  0  0  0
  145.9179  134.8904  149.9325 H   0  0  0  0  0  0  0  0  0  0  0  0
  143.2155  134.8677  150.5816 H   0  0  0  0  0  0  0  0  0  0  0  0
  1  2  2  0  0  0  0
  2 12  1  0  0  0  0
  2  3  1  0  0  0  0
  3  4  1  0  0  0  0
  3 18  1  0  0  0  0
  4  5  1  0  0  0  0
  4 19  1  0  0  0  0
  4 20  1  0  0  0  0
  5  6  1  0  0  0  0
  5 21  1  0  0  0  0
  5 22  1  0  0  0  0
  6 11  1  0  0  0  0
  6  7  1  0  0  0  0
  6 23  1  0  0  0  0
  7  8  1  0  0  0  0
  7 24  1  0  0  0  0
  7 25  1  0  0  0  0
  8  9  1  0  0  0  0
  8 26  1  0  0  0  0
  8 27  1  0  0  0  0
  9 10  1  0  0  0  0
  9 28  1  0  0  0  0
  9 29  1  0  0  0  0
 10 11  1  0  0  0  0
 10 30  1  0  0  0  0
 10 31  1  0  0  0  0
 12 13  2  0  0  0  0
 13 17  1  0  0  0  0
 13 14  1  0  0  0  0
 14 32  1  0  0  0  0
 14 15  1  0  0  0  0
 15 33  1  0  0  0  0
 15 16  2  0  0  0  0
 16 34  1  0  0  0  0
 16 17  1  0  0  0  0
M  END
> <s_m_source_file>
AV-unprocessed.smi

> <i_m_source_file_index>
2751

> <i_lp_mmshare_version>
43012

> <i_f3d_flags>
0

> <s_epik_input>
bzFbY0hdW2NIXW5jMVtOSF1DKD1PKVtOSF1bQ0gyXVtDSDJdW0NAQEhdMltDSDJdW0NIMl1bQ0gyXVtDSDJdTzI=

> <s_epik_cmdline>
J2VwaWtfcHl0aG9uJywgJy1waCcsICc3LjAnLCAnLXRuJywgJzgnLCAnLW1hJywgJzIwMCcsICctbWV0YWxfYmluZGluZycsICctaW1hZScsICc8aW5maWxlLm1hZT4nLCAnLW9tYWUnLCAnPG91dGZpbGUubWFlPic=

> <r_lp_tautomer_probability>
0.107061

> <r_epik_Ionization_Penalty>
1.421

> <r_epik_Ionization_Penalty_Charging>
1.42064

> <r_epik_Ionization_Penalty_Neutral>
0.0003614

> <r_epik_State_Penalty>
2.61489

> <r_epik_Charging_Adjusted_Penalty>
4.03553

> <i_epik_Tot_Q>
0

> <i_epik_Tot_abs_Q>
0

> <r_epik_Metal_State_Penalty>
3.57288

> <b_epik_Metal_Only>
0

> <s_lp_Force_Field>
OPLS_2005

> <r_lp_Energy>
32.5629

> <b_lp_Chiralities_Consistent>
1

> <s_lp_Variant>
AV-unprocessed.smi:2751-8

> <Gold.Version>
5.8.1

> <Gold.Id.Protein>
6NUR|6NUR_protein|mol2

> <Gold.PLP.Fitness>
38.2982

> <Gold.PLP.PLP>
-26.4383

> <Gold.PLP.part.hbond>
-3.0000

> <Gold.PLP.part.metal>
0.0000

> <Gold.PLP.part.buried>
0.5222

> <Gold.PLP.part.nonpolar>
-25.3240

> <Gold.PLP.part.repulsive>
0.6517

> <Gold.PLP.ligand.clash>
0.0000

> <Gold.PLP.ligand.torsion>
1.3969

> <Gold.PLP.Chemscore.Hbond>
2.8800

> <Gold.PLP.Chemscore.CHOScore>
2.0000

> <Gold.PLP.Chemscore.Metal>
0.0000

> <Gold.Chemscore.Hbonds>
donor molecule, donor type, donor heavy atom, donor atom, acceptor molecule, acceptor atom, score
      L1  H     3    18       P1 10175  1.00
      L1  H    14    32       P1  7948  1.00
      P1  H  7989  7998       L1    11  0.88
      L1  C    15    33       P1  7921  1.00
      L1  C    16    34       P1 10186  1.00

> <Gold.PLP.Chemscore.Internal.Correction>
0.0138

> <Gold.Rescore>
     Score         DG    S(hbond)    S(metal)    S(lipo)     H(rot)  DE(clash)    DE(int)     intcor
     11.40     -17.35       2.65        0.00      61.46       1.63       1.82       4.13       ----

> <Gold.Chemscore.Fitness>
11.4004

> <Gold.Chemscore.DG>
-17.3495

> <Gold.Chemscore.ZeroCoef>
-5.4800

> <Gold.Chemscore.Hbond>
2.6521

> <Gold.Chemscore.Metal>
0.0000

> <Gold.Chemscore.Lipo>
61.4636

> <Gold.Chemscore.Internal_Hbond>
0.0000

> <Gold.Chemscore.DEClash>
1.8238

> <Gold.Chemscore.DEInternal>
4.1252

> <Gold.Chemscore.Rot>
1.6328

> <Gold.Chemscore.Internal.Correction>
   9.000000E+99

> <Gold.Chemscore.Hbonds>
donor molecule, donor type, donor heavy atom, donor atom, acceptor molecule, acceptor atom, score
      L1  H     3    18       P1 10175  1.00
      L1  H    14    32       P1  7948  0.94
      P1  H  7989  7998       L1    11  0.12

> <Gold.Chemscore.Hbond.Weighted>
-8.8582

> <Gold.Chemscore.Metal.Weighted>
-0.0000

> <Gold.Chemscore.Lipo.Weighted>
-7.1912

> <Gold.Chemscore.Internal_Hbond.Weighted>
0.0000

> <Gold.Chemscore.DEClash.Weighted>
1.8238

> <Gold.Chemscore.DEInternal.Weighted>
4.1252

> <Gold.Chemscore.Rot.Weighted>
4.1799

> <Gold.Chemscore.Internal.Correction.Weighted>
   9.000000E+99

> <Gold.Protein.RotatedTorsions>
[ 6907 6896 6895 6894 ] final   95.55 input  -60.11 | X-H torsion
[ 7974 7965 7964 7962 ] final -165.18 input  175.53 | X-H torsion
[ 8008 7997 7996 7995 ] final  -44.00 input   59.86 | X-H torsion
[ 10167 10162 10161 10158 ] final   86.08 input  -65.29 | X-H torsion
[ 10718 10713 10712 10709 ] final  -44.12 input   66.30 | X-H torsion
[ 10763 10752 10751 10750 ] final   69.63 input  -60.55 | X-H torsion
[ 11005 11000 10999 10996 ] final -150.78 input  -57.11 | X-H torsion

> <Gold.Protein.ActiveResidues>
 VAL166  LYS551  ARG553  GLY616  TRP617  ASP618  TYR619  PRO620  LYS621  CYS622 
 ASP623  PHE694  ASN695  SER759  ASP760  ASP761  ALA762  ILE779  LEU786  VAL792 
 PHE793  MET794  SER795  GLU796  ALA797  LYS798  CYS799  TRP800  GLU811  SER814 

> <Gold.Protein.RotatedAtoms>
  152.5442  134.1022  159.8322 H   0  0  0  0  0  0  0  0  0  0  0  0  # atno 6907 bound_to 6896
  151.1098  133.5174  159.2613 H   0  0  0  0  0  0  0  0  0  0  0  0  # atno 6908 bound_to 6896
  151.1897  135.0406  159.8881 H   0  0  0  0  0  0  0  0  0  0  0  0  # atno 6909 bound_to 6896
  144.7277  140.2852  143.6229 H   0  0  0  0  0  0  0  0  0  0  0  0  # atno 7974 bound_to 7965
  154.3997  140.1433  156.3612 H   0  0  0  0  0  0  0  0  0  0  0  0  # atno 8008 bound_to 7997
  155.8179  140.3470  155.5476 H   0  0  0  0  0  0  0  0  0  0  0  0  # atno 8009 bound_to 7997
  155.8318  140.0913  157.1778 H   0  0  0  0  0  0  0  0  0  0  0  0  # atno 8010 bound_to 7997
  139.8912  144.6384  150.8737 H   0  0  0  0  0  0  0  0  0  0  0  0  # atno 10167 bound_to 10162
  156.2419  130.4180  149.8750 H   0  0  0  0  0  0  0  0  0  0  0  0  # atno 10718 bound_to 10713
  153.0297  135.5203  154.7318 H   0  0  0  0  0  0  0  0  0  0  0  0  # atno 10763 bound_to 10752
  154.6343  135.2904  155.0181 H   0  0  0  0  0  0  0  0  0  0  0  0  # atno 10764 bound_to 10752
  154.1122  135.6620  153.4939 H   0  0  0  0  0  0  0  0  0  0  0  0  # atno 10765 bound_to 10752
  140.7366  134.3561  157.5156 H   0  0  0  0  0  0  0  0  0  0  0  0  # atno 11005 bound_to 11000
  145.7910  139.1927  143.2103 LP  0  0  0  0  0  0  0  0  0  0  0  0  # atno 17320 bound_to 7965
  146.0756  140.7821  142.9667 LP  0  0  0  0  0  0  0  0  0  0  0  0  # atno 17321 bound_to 7965
  140.7726  143.3508  151.2017 LP  0  0  0  0  0  0  0  0  0  0  0  0  # atno 17342 bound_to 10162
  139.7108  143.9380  152.2946 LP  0  0  0  0  0  0  0  0  0  0  0  0  # atno 17343 bound_to 10162
  156.6329  130.8673  151.3499 LP  0  0  0  0  0  0  0  0  0  0  0  0  # atno 17370 bound_to 10713
  157.7179  130.9520  150.1324 LP  0  0  0  0  0  0  0  0  0  0  0  0  # atno 17371 bound_to 10713
  139.8815  134.9053  156.2897 LP  0  0  0  0  0  0  0  0  0  0  0  0  # atno 17394 bound_to 11000
  140.9874  133.7230  156.0762 LP  0  0  0  0  0  0  0  0  0  0  0  0  # atno 17395 bound_to 11000

$$$$
