AV-unprocessed.smi:3194|AV-procd|sdf|12209|dock1
  -GOLD-   2272018 43D 1   1.00000     0.00000
 Structure written by MMmdl.
 28 28  0  0  0  0  0  0  0  0  1 V2000
  148.3213  139.1178  153.9178 C   0  0  0  0  0  0  0  0  0  0  0  0
  148.9359  140.4856  154.2518 C   0  0  1  0  0  0  0  0  0  0  0  0
  147.9569  141.6473  153.9912 C   0  0  0  0  0  0  0  0  0  0  0  0
  148.6097  142.8892  154.1509 O   0  0  0  0  0  0  0  0  0  0  0  0
  149.3641  140.4855  155.6477 N   0  0  0  0  0  0  0  0  0  0  0  0
  150.6372  140.4769  156.0778 C   0  0  0  0  0  0  0  0  0  0  0  0
  151.6037  140.4840  155.3146 O   0  0  0  0  0  0  0  0  0  0  0  0
  150.8539  140.4477  157.5983 C   0  0  0  0  0  0  0  0  0  0  0  0
  149.6707  140.2991  158.1984 F   0  0  0  0  0  0  0  0  0  0  0  0
  151.6068  139.3911  157.9162 F   0  0  0  0  0  0  0  0  0  0  0  0
  151.5277  141.7363  158.0624 C   0  0  0  0  0  0  0  0  0  0  0  0
  151.0140  143.0003  157.6927 C   0  0  0  0  0  0  0  0  0  0  0  0
  151.6822  144.1574  158.1372 C   0  0  0  0  0  0  0  0  0  0  0  0
  152.8361  144.0129  158.9303 C   0  0  0  0  0  0  0  0  0  0  0  0
  153.2735  142.7112  159.2437 C   0  0  0  0  0  0  0  0  0  0  0  0
  152.6406  141.5955  158.8224 N   0  0  0  0  0  0  0  0  0  0  0  0
  149.8188  140.6194  153.6235 H   0  0  0  0  0  0  0  0  0  0  0  0
  148.0293  139.0610  152.8689 H   0  0  0  0  0  0  0  0  0  0  0  0
  147.4343  138.9222  154.5211 H   0  0  0  0  0  0  0  0  0  0  0  0
  149.0337  138.3130  154.1022 H   0  0  0  0  0  0  0  0  0  0  0  0
  147.5288  141.5834  152.9902 H   0  0  0  0  0  0  0  0  0  0  0  0
  147.1270  141.6189  154.6982 H   0  0  0  0  0  0  0  0  0  0  0  0
  148.8555  142.9847  155.0585 H   0  0  0  0  0  0  0  0  0  0  0  0
  148.6341  140.4748  156.3457 H   0  0  0  0  0  0  0  0  0  0  0  0
  150.1305  143.0861  157.0775 H   0  0  0  0  0  0  0  0  0  0  0  0
  151.3164  145.1385  157.8725 H   0  0  0  0  0  0  0  0  0  0  0  0
  153.3739  144.8782  159.2889 H   0  0  0  0  0  0  0  0  0  0  0  0
  154.1557  142.5617  159.8484 H   0  0  0  0  0  0  0  0  0  0  0  0
  1  2  1  0  0  0  0
  1 18  1  0  0  0  0
  1 19  1  0  0  0  0
  1 20  1  0  0  0  0
  2 17  1  0  0  0  0
  2  3  1  0  0  0  0
  2  5  1  0  0  0  0
  3  4  1  0  0  0  0
  3 21  1  0  0  0  0
  3 22  1  0  0  0  0
  4 23  1  0  0  0  0
  5  6  1  0  0  0  0
  5 24  1  0  0  0  0
  6  7  2  0  0  0  0
  6  8  1  0  0  0  0
  8  9  1  0  0  0  0
  8 10  1  0  0  0  0
  8 11  1  0  0  0  0
 11 16  1  0  0  0  0
 11 12  2  0  0  0  0
 12 13  1  0  0  0  0
 12 25  1  0  0  0  0
 13 14  2  0  0  0  0
 13 26  1  0  0  0  0
 14 15  1  0  0  0  0
 14 27  1  0  0  0  0
 15 16  2  0  0  0  0
 15 28  1  0  0  0  0
M  END
> <s_m_source_file>
AV-unprocessed.smi

> <i_m_source_file_index>
3194

> <i_lp_mmshare_version>
43012

> <i_f3d_flags>
0

> <s_epik_input>
W09IXVtDSDJdW0NASF0oW0NIM10pW05IXUMoPU8pQyhGKShGKWMxW2NIXVtjSF1bY0hdW2NIXW4x

> <s_epik_cmdline>
J2VwaWtfcHl0aG9uJywgJy1waCcsICc3LjAnLCAnLXRuJywgJzgnLCAnLW1hJywgJzIwMCcsICctbWV0YWxfYmluZGluZycsICctaW1hZScsICc8aW5maWxlLm1hZT4nLCAnLW9tYWUnLCAnPG91dGZpbGUubWFlPic=

> <r_lp_tautomer_probability>
1

> <r_epik_Ionization_Penalty>
3.67967e-05

> <r_epik_Ionization_Penalty_Charging>
0

> <r_epik_Ionization_Penalty_Neutral>
3.67967e-05

> <r_epik_State_Penalty>
-0

> <r_epik_Charging_Adjusted_Penalty>
0

> <i_epik_Tot_Q>
0

> <i_epik_Tot_abs_Q>
0

> <r_epik_Metal_State_Penalty>
0.0311521

> <b_epik_Metal_Only>
0

> <s_lp_Force_Field>
OPLS_2005

> <r_lp_Energy>
9.58736

> <b_lp_Chiralities_Consistent>
1

> <s_lp_Variant>
AV-unprocessed.smi:3194-1

> <Gold.Version>
5.8.1

> <Gold.Id.Protein>
6NUR|6NUR_protein|mol2

> <Gold.PLP.Fitness>
39.5076

> <Gold.PLP.PLP>
-33.9467

> <Gold.PLP.part.hbond>
-3.4587

> <Gold.PLP.part.metal>
0.0000

> <Gold.PLP.part.buried>
-0.9840

> <Gold.PLP.part.nonpolar>
-28.4911

> <Gold.PLP.part.repulsive>
0.0908

> <Gold.PLP.ligand.clash>
0.0000

> <Gold.PLP.ligand.torsion>
0.3868

> <Gold.PLP.Chemscore.Hbond>
2.0880

> <Gold.PLP.Chemscore.CHOScore>
0.0000

> <Gold.PLP.Chemscore.Metal>
0.0000

> <Gold.Chemscore.Hbonds>
donor molecule, donor type, donor heavy atom, donor atom, acceptor molecule, acceptor atom, score
      L1  H     4    23       P1  8028  0.26
      P1  H  7989  7998       L1     7  0.82
      P1  H  8022  8030       L1     4  1.00

> <Gold.PLP.Chemscore.Internal.Correction>
0.0706

> <Gold.Rescore>
     Score         DG    S(hbond)    S(metal)    S(lipo)     H(rot)  DE(clash)    DE(int)     intcor
     13.95     -14.24       1.82        0.00      77.56       2.50       0.12       0.17       ----

> <Gold.Chemscore.Fitness>
13.9486

> <Gold.Chemscore.DG>
-14.2412

> <Gold.Chemscore.ZeroCoef>
-5.4800

> <Gold.Chemscore.Hbond>
1.8199

> <Gold.Chemscore.Metal>
0.0000

> <Gold.Chemscore.Lipo>
77.5621

> <Gold.Chemscore.Internal_Hbond>
0.0000

> <Gold.Chemscore.DEClash>
0.1183

> <Gold.Chemscore.DEInternal>
0.1743

> <Gold.Chemscore.Rot>
2.4970

> <Gold.Chemscore.Internal.Correction>
   9.000000E+99

> <Gold.Chemscore.Hbonds>
donor molecule, donor type, donor heavy atom, donor atom, acceptor molecule, acceptor atom, score
      L1  H     4    23       P1  8028  0.26
      P1  H  7989  7998       L1     7  0.81
      P1  H  8022  8030       L1     4  0.25

> <Gold.Chemscore.Hbond.Weighted>
-6.0786

> <Gold.Chemscore.Metal.Weighted>
-0.0000

> <Gold.Chemscore.Lipo.Weighted>
-9.0748

> <Gold.Chemscore.Internal_Hbond.Weighted>
0.0000

> <Gold.Chemscore.DEClash.Weighted>
0.1183

> <Gold.Chemscore.DEInternal.Weighted>
0.1743

> <Gold.Chemscore.Rot.Weighted>
6.3922

> <Gold.Chemscore.Internal.Correction.Weighted>
   9.000000E+99

> <Gold.Protein.RotatedTorsions>
[ 6907 6896 6895 6894 ] final   36.01 input  -60.11 | X-H torsion
[ 7974 7965 7964 7962 ] final  143.68 input  175.53 | X-H torsion
[ 8008 7997 7996 7995 ] final  101.55 input   59.86 | X-H torsion
[ 10167 10162 10161 10158 ] final -117.69 input  -65.29 | X-H torsion
[ 10718 10713 10712 10709 ] final  -98.57 input   66.30 | X-H torsion
[ 10763 10752 10751 10750 ] final -109.24 input  -60.55 | X-H torsion
[ 11005 11000 10999 10996 ] final   -3.60 input  -57.11 | X-H torsion

> <Gold.Protein.ActiveResidues>
 VAL166  LYS551  ARG553  GLY616  TRP617  ASP618  TYR619  PRO620  LYS621  CYS622 
 ASP623  PHE694  ASN695  SER759  ASP760  ASP761  ALA762  ILE779  LEU786  VAL792 
 PHE793  MET794  SER795  GLU796  ALA797  LYS798  CYS799  TRP800  GLU811  SER814 

> <Gold.Protein.RotatedAtoms>
  152.1239  134.9185  160.0561 H   0  0  0  0  0  0  0  0  0  0  0  0  # atno 6907 bound_to 6896
  152.0315  133.3934  159.4307 H   0  0  0  0  0  0  0  0  0  0  0  0  # atno 6908 bound_to 6896
  150.6851  134.3437  159.4922 H   0  0  0  0  0  0  0  0  0  0  0  0  # atno 6909 bound_to 6896
  144.8900  139.5572  143.5803 H   0  0  0  0  0  0  0  0  0  0  0  0  # atno 7974 bound_to 7965
  156.1309  140.3195  155.8348 H   0  0  0  0  0  0  0  0  0  0  0  0  # atno 8008 bound_to 7997
  155.4333  140.0520  157.3034 H   0  0  0  0  0  0  0  0  0  0  0  0  # atno 8009 bound_to 7997
  154.4899  140.2088  155.9585 H   0  0  0  0  0  0  0  0  0  0  0  0  # atno 8010 bound_to 7997
  140.0657  143.4925  152.2008 H   0  0  0  0  0  0  0  0  0  0  0  0  # atno 10167 bound_to 10162
  156.0111  130.5244  150.6543 H   0  0  0  0  0  0  0  0  0  0  0  0  # atno 10718 bound_to 10713
  154.8182  135.4608  154.0702 H   0  0  0  0  0  0  0  0  0  0  0  0  # atno 10763 bound_to 10752
  153.2078  135.6878  153.8158 H   0  0  0  0  0  0  0  0  0  0  0  0  # atno 10764 bound_to 10752
  153.7619  135.3283  155.3315 H   0  0  0  0  0  0  0  0  0  0  0  0  # atno 10765 bound_to 10752
  140.6711  133.9236  155.8495 H   0  0  0  0  0  0  0  0  0  0  0  0  # atno 11005 bound_to 11000
  146.3048  139.7543  142.9064 LP  0  0  0  0  0  0  0  0  0  0  0  0  # atno 17320 bound_to 7965
  145.3800  141.0357  143.3183 LP  0  0  0  0  0  0  0  0  0  0  0  0  # atno 17321 bound_to 7965
  139.5867  144.7533  151.3503 LP  0  0  0  0  0  0  0  0  0  0  0  0  # atno 17342 bound_to 10162
  140.7150  143.7289  150.7638 LP  0  0  0  0  0  0  0  0  0  0  0  0  # atno 17343 bound_to 10162
  157.4298  131.0848  151.1050 LP  0  0  0  0  0  0  0  0  0  0  0  0  # atno 17370 bound_to 10713
  157.1626  130.6232  149.5615 LP  0  0  0  0  0  0  0  0  0  0  0  0  # atno 17371 bound_to 10713
  141.0392  134.0646  157.3923 LP  0  0  0  0  0  0  0  0  0  0  0  0  # atno 17394 bound_to 11000
  139.8981  135.0153  156.7134 LP  0  0  0  0  0  0  0  0  0  0  0  0  # atno 17395 bound_to 11000

$$$$
