AV-unprocessed.smi:1927|AV-procd|sdf|7796|dock4
  -GOLD-   22720 9543D 1   1.00000     0.00000
 Structure written by MMmdl.
 34 35  0  0  0  0  0  0  0  0  1 V2000
  151.9773  144.9365  157.6383 C   0  0  0  0  0  0  0  0  0  0  0  0
  152.1281  143.6041  158.3545 C   0  0  0  0  0  0  0  0  0  0  0  0
  152.9882  143.5129  159.4695 C   0  0  0  0  0  0  0  0  0  0  0  0
  153.1274  142.2796  160.1291 C   0  0  0  0  0  0  0  0  0  0  0  0
  152.3954  141.1830  159.6426 C   0  0  0  0  0  0  0  0  0  0  0  0
  151.5707  141.2613  158.5784 N   0  0  0  0  0  0  0  0  0  0  0  0
  151.4250  142.4444  157.9304 C   0  0  0  0  0  0  0  0  0  0  0  0
  150.5702  142.6033  156.8033 N   0  0  0  0  0  0  0  0  0  0  0  0
  150.2129  141.6873  155.8859 C   0  0  0  0  0  0  0  0  0  0  0  0
  150.5973  140.5178  155.8571 O   0  0  0  0  0  0  0  0  0  0  0  0
  149.3724  142.2132  154.9829 N   0  0  0  0  0  0  0  0  0  0  0  0
  148.7907  141.5015  153.8493 C   0  0  0  0  0  0  0  0  0  0  0  0
  147.2526  141.5678  153.8616 C   0  0  2  0  0  0  0  0  0  0  0  0
  146.7016  142.9785  153.8236 C   0  0  0  0  0  0  0  0  0  0  0  0
  145.2683  142.7765  154.3076 C   0  0  0  0  0  0  0  0  0  0  0  0
  145.3005  141.6439  155.1722 O   0  0  0  0  0  0  0  0  0  0  0  0
  146.5878  141.0363  155.1325 C   0  0  0  0  0  0  0  0  0  0  0  0
  152.5894  145.7098  158.1037 H   0  0  0  0  0  0  0  0  0  0  0  0
  150.9392  145.2693  157.6642 H   0  0  0  0  0  0  0  0  0  0  0  0
  152.2872  144.8469  156.5967 H   0  0  0  0  0  0  0  0  0  0  0  0
  153.5362  144.3759  159.8184 H   0  0  0  0  0  0  0  0  0  0  0  0
  153.7776  142.1772  160.9852 H   0  0  0  0  0  0  0  0  0  0  0  0
  152.4718  140.2178  160.1211 H   0  0  0  0  0  0  0  0  0  0  0  0
  150.1782  143.5258  156.6872 H   0  0  0  0  0  0  0  0  0  0  0  0
  149.1128  143.1832  155.0870 H   0  0  0  0  0  0  0  0  0  0  0  0
  149.1862  141.8791  152.9046 H   0  0  0  0  0  0  0  0  0  0  0  0
  149.1091  140.4610  153.9164 H   0  0  0  0  0  0  0  0  0  0  0  0
  146.8579  141.0204  153.0038 H   0  0  0  0  0  0  0  0  0  0  0  0
  147.2443  143.6179  154.5218 H   0  0  0  0  0  0  0  0  0  0  0  0
  146.7548  143.4333  152.8340 H   0  0  0  0  0  0  0  0  0  0  0  0
  144.8764  143.6562  154.8186 H   0  0  0  0  0  0  0  0  0  0  0  0
  144.6098  142.5524  153.4676 H   0  0  0  0  0  0  0  0  0  0  0  0
  146.5147  139.9487  155.1462 H   0  0  0  0  0  0  0  0  0  0  0  0
  147.1430  141.3489  156.0181 H   0  0  0  0  0  0  0  0  0  0  0  0
  1  2  1  0  0  0  0
  1 18  1  0  0  0  0
  1 19  1  0  0  0  0
  1 20  1  0  0  0  0
  2  7  1  0  0  0  0
  2  3  2  0  0  0  0
  3  4  1  0  0  0  0
  3 21  1  0  0  0  0
  4  5  2  0  0  0  0
  4 22  1  0  0  0  0
  5  6  1  0  0  0  0
  5 23  1  0  0  0  0
  6  7  2  0  0  0  0
  7  8  1  0  0  0  0
  8  9  1  0  0  0  0
  8 24  1  0  0  0  0
  9 10  2  0  0  0  0
  9 11  1  0  0  0  0
 11 12  1  0  0  0  0
 11 25  1  0  0  0  0
 12 13  1  0  0  0  0
 12 26  1  0  0  0  0
 12 27  1  0  0  0  0
 13 17  1  0  0  0  0
 13 14  1  0  0  0  0
 13 28  1  0  0  0  0
 14 15  1  0  0  0  0
 14 29  1  0  0  0  0
 14 30  1  0  0  0  0
 15 16  1  0  0  0  0
 15 31  1  0  0  0  0
 15 32  1  0  0  0  0
 16 17  1  0  0  0  0
 17 33  1  0  0  0  0
 17 34  1  0  0  0  0
M  END
> <s_m_source_file>
AV-unprocessed.smi

> <i_m_source_file_index>
1927

> <i_lp_mmshare_version>
43012

> <i_f3d_flags>
0

> <s_epik_input>
W0NIM11jMVtjSF1bY0hdW2NIXW5jMVtOSF1DKD1PKVtOSF1bQ0gyXVtDQEBIXTJbQ0gyXVtDSDJdT1tDSDJdMg==

> <s_epik_cmdline>
J2VwaWtfcHl0aG9uJywgJy1waCcsICc3LjAnLCAnLXRuJywgJzgnLCAnLW1hJywgJzIwMCcsICctbWV0YWxfYmluZGluZycsICctaW1hZScsICc8aW5maWxlLm1hZT4nLCAnLW9tYWUnLCAnPG91dGZpbGUubWFlPic=

> <r_lp_tautomer_probability>
1

> <r_epik_Ionization_Penalty>
5.84082e-05

> <r_epik_Ionization_Penalty_Charging>
0

> <r_epik_Ionization_Penalty_Neutral>
5.84082e-05

> <r_epik_State_Penalty>
-0

> <r_epik_Charging_Adjusted_Penalty>
0

> <i_epik_Tot_Q>
0

> <i_epik_Tot_abs_Q>
0

> <r_epik_Metal_State_Penalty>
-0

> <b_epik_Metal_Only>
0

> <s_lp_Force_Field>
OPLS_2005

> <r_lp_Energy>
21.003

> <b_lp_Chiralities_Consistent>
1

> <s_lp_Variant>
AV-unprocessed.smi:1927-1

> <Gold.Version>
5.8.1

> <Gold.Id.Protein>
6NUR|6NUR_protein|mol2

> <Gold.PLP.Fitness>
43.1643

> <Gold.PLP.PLP>
-37.6454

> <Gold.PLP.part.hbond>
-2.0000

> <Gold.PLP.part.metal>
0.0000

> <Gold.PLP.part.buried>
-5.6197

> <Gold.PLP.part.nonpolar>
-31.3337

> <Gold.PLP.part.repulsive>
0.3818

> <Gold.PLP.ligand.clash>
0.0000

> <Gold.PLP.ligand.torsion>
0.1834

> <Gold.PLP.Chemscore.Hbond>
1.9600

> <Gold.PLP.Chemscore.CHOScore>
0.0000

> <Gold.PLP.Chemscore.Metal>
0.0000

> <Gold.Chemscore.Hbonds>
donor molecule, donor type, donor heavy atom, donor atom, acceptor molecule, acceptor atom, score
      L1  H     8    24       P1  8028  0.96
      L1  H    11    25       P1  8028  1.00

> <Gold.PLP.Chemscore.Internal.Correction>
0.0057

> <Gold.Rescore>
     Score         DG    S(hbond)    S(metal)    S(lipo)     H(rot)  DE(clash)    DE(int)     intcor
     16.86     -18.94       1.94        0.00      86.75       1.23       0.74       1.34       ----

> <Gold.Chemscore.Fitness>
16.8596

> <Gold.Chemscore.DG>
-18.9365

> <Gold.Chemscore.ZeroCoef>
-5.4800

> <Gold.Chemscore.Hbond>
1.9356

> <Gold.Chemscore.Metal>
0.0000

> <Gold.Chemscore.Lipo>
86.7501

> <Gold.Chemscore.Internal_Hbond>
0.0000

> <Gold.Chemscore.DEClash>
0.7405

> <Gold.Chemscore.DEInternal>
1.3364

> <Gold.Chemscore.Rot>
1.2337

> <Gold.Chemscore.Internal.Correction>
   9.000000E+99

> <Gold.Chemscore.Hbonds>
donor molecule, donor type, donor heavy atom, donor atom, acceptor molecule, acceptor atom, score
      L1  H     8    24       P1  8028  0.86
      L1  H    11    25       P1  8028  1.00

> <Gold.Chemscore.Hbond.Weighted>
-6.4649

> <Gold.Chemscore.Metal.Weighted>
-0.0000

> <Gold.Chemscore.Lipo.Weighted>
-10.1498

> <Gold.Chemscore.Internal_Hbond.Weighted>
0.0000

> <Gold.Chemscore.DEClash.Weighted>
0.7405

> <Gold.Chemscore.DEInternal.Weighted>
1.3364

> <Gold.Chemscore.Rot.Weighted>
3.1582

> <Gold.Chemscore.Internal.Correction.Weighted>
   9.000000E+99

> <Gold.Protein.RotatedTorsions>
[ 6907 6896 6895 6894 ] final   20.76 input  -60.11 | X-H torsion
[ 7974 7965 7964 7962 ] final  165.53 input  175.53 | X-H torsion
[ 8008 7997 7996 7995 ] final -177.24 input   59.86 | X-H torsion
[ 10167 10162 10161 10158 ] final -140.17 input  -65.29 | X-H torsion
[ 10718 10713 10712 10709 ] final -123.04 input   66.30 | X-H torsion
[ 10763 10752 10751 10750 ] final   78.80 input  -60.55 | X-H torsion
[ 11005 11000 10999 10996 ] final   32.30 input  -57.11 | X-H torsion

> <Gold.Protein.ActiveResidues>
 VAL166  LYS551  ARG553  GLY616  TRP617  ASP618  TYR619  PRO620  LYS621  CYS622 
 ASP623  PHE694  ASN695  SER759  ASP760  ASP761  ALA762  ILE779  LEU786  VAL792 
 PHE793  MET794  SER795  GLU796  ALA797  LYS798  CYS799  TRP800  GLU811  SER814 

> <Gold.Protein.RotatedAtoms>
  151.9014  135.0376  160.0506 H   0  0  0  0  0  0  0  0  0  0  0  0  # atno 6907 bound_to 6896
  152.2355  133.5088  159.5248 H   0  0  0  0  0  0  0  0  0  0  0  0  # atno 6908 bound_to 6896
  150.7038  134.1076  159.4031 H   0  0  0  0  0  0  0  0  0  0  0  0  # atno 6909 bound_to 6896
  144.7499  139.8484  143.6370 H   0  0  0  0  0  0  0  0  0  0  0  0  # atno 7974 bound_to 7965
  156.0045  140.1227  157.0514 H   0  0  0  0  0  0  0  0  0  0  0  0  # atno 8008 bound_to 7997
  154.4254  140.1100  156.5813 H   0  0  0  0  0  0  0  0  0  0  0  0  # atno 8009 bound_to 7997
  155.6166  140.3472  155.4641 H   0  0  0  0  0  0  0  0  0  0  0  0  # atno 8010 bound_to 7997
  139.8307  143.7450  152.2666 H   0  0  0  0  0  0  0  0  0  0  0  0  # atno 10167 bound_to 10162
  156.1468  130.6506  150.9855 H   0  0  0  0  0  0  0  0  0  0  0  0  # atno 10718 bound_to 10713
  153.0903  135.4863  154.8676 H   0  0  0  0  0  0  0  0  0  0  0  0  # atno 10763 bound_to 10752
  154.7260  135.3049  154.8972 H   0  0  0  0  0  0  0  0  0  0  0  0  # atno 10764 bound_to 10752
  153.9622  135.6811  153.4798 H   0  0  0  0  0  0  0  0  0  0  0  0  # atno 10765 bound_to 10752
  140.2749  134.3039  155.7817 H   0  0  0  0  0  0  0  0  0  0  0  0  # atno 11005 bound_to 11000
  146.1433  139.4496  143.0095 LP  0  0  0  0  0  0  0  0  0  0  0  0  # atno 17320 bound_to 7965
  145.6984  141.0143  143.1518 LP  0  0  0  0  0  0  0  0  0  0  0  0  # atno 17321 bound_to 7965
  139.7657  144.7492  151.0298 LP  0  0  0  0  0  0  0  0  0  0  0  0  # atno 17342 bound_to 10162
  140.7807  143.4701  151.0158 LP  0  0  0  0  0  0  0  0  0  0  0  0  # atno 17343 bound_to 10162
  157.6623  131.0878  150.7808 LP  0  0  0  0  0  0  0  0  0  0  0  0  # atno 17370 bound_to 10713
  156.7879  130.4880  149.5389 LP  0  0  0  0  0  0  0  0  0  0  0  0  # atno 17371 bound_to 10713
  141.2172  133.7489  156.9392 LP  0  0  0  0  0  0  0  0  0  0  0  0  # atno 17394 bound_to 11000
  140.1338  134.9338  157.2373 LP  0  0  0  0  0  0  0  0  0  0  0  0  # atno 17395 bound_to 11000

$$$$
