AV-unprocessed.smi:381|AV-procd|sdf|2461|dock6
  -GOLD-   2262022403D 1   1.00000     0.00000
 Structure written by MMmdl.
 45 46  0  0  0  0  0  0  0  0  1 V2000
  147.5869  134.8220  155.7930 O   0  0  0  0  0  0  0  0  0  0  0  0
  147.9296  135.1817  154.6684 C   0  0  0  0  0  0  0  0  0  0  0  0
  148.8794  136.1044  154.4466 N   0  0  0  0  0  0  0  0  0  0  0  0
  149.6301  136.7817  155.4942 C   0  0  0  0  0  0  0  0  0  0  0  0
  150.5047  137.8940  154.9007 C   0  0  0  0  0  0  0  0  0  0  0  0
  149.7013  139.1372  154.5727 C   0  0  0  0  0  0  0  0  0  0  0  0
  150.1268  140.4082  155.0112 C   0  0  0  0  0  0  0  0  0  0  0  0
  149.3529  141.5359  154.6760 C   0  0  0  0  0  0  0  0  0  0  0  0
  148.1821  141.3434  153.9157 C   0  0  0  0  0  0  0  0  0  0  0  0
  147.7642  140.1313  153.4913 N   0  0  0  0  0  0  0  0  0  0  0  0
  148.5129  139.0552  153.8157 C   0  0  0  0  0  0  0  0  0  0  0  0
  147.3716  134.6645  153.5584 N   0  0  0  0  0  0  0  0  0  0  0  0
  146.3195  133.6496  153.4445 C   0  0  0  0  0  0  0  0  0  0  0  0
  146.9065  132.4301  152.6959 C   0  0  0  0  0  0  0  0  0  0  0  0
  145.9204  131.3003  152.3454 C   0  0  0  0  0  0  0  0  0  0  0  0
  145.3057  131.3759  150.9290 C   0  0  0  0  0  0  0  0  0  0  0  0
  143.9985  132.1823  150.8149 C   0  0  0  0  0  0  0  0  0  0  0  0
  144.1418  133.6773  150.4585 C   0  0  0  0  0  0  0  0  0  0  0  0
  145.1331  134.5036  151.2977 C   0  0  0  0  0  0  0  0  0  0  0  0
  145.0456  134.2609  152.8172 C   0  0  0  0  0  0  0  0  0  0  0  0
  149.1027  136.3421  153.4911 H   0  0  0  0  0  0  0  0  0  0  0  0
  148.9404  137.2023  156.2282 H   0  0  0  0  0  0  0  0  0  0  0  0
  150.2506  136.0511  156.0152 H   0  0  0  0  0  0  0  0  0  0  0  0
  151.3031  138.1552  155.5968 H   0  0  0  0  0  0  0  0  0  0  0  0
  150.9922  137.5418  153.9904 H   0  0  0  0  0  0  0  0  0  0  0  0
  151.0317  140.5187  155.5908 H   0  0  0  0  0  0  0  0  0  0  0  0
  149.6501  142.5245  154.9928 H   0  0  0  0  0  0  0  0  0  0  0  0
  147.5652  142.1861  153.6407 H   0  0  0  0  0  0  0  0  0  0  0  0
  148.1532  138.1017  153.4581 H   0  0  0  0  0  0  0  0  0  0  0  0
  147.7200  135.0236  152.6812 H   0  0  0  0  0  0  0  0  0  0  0  0
  146.0570  133.3034  154.4455 H   0  0  0  0  0  0  0  0  0  0  0  0
  147.4432  132.7388  151.7983 H   0  0  0  0  0  0  0  0  0  0  0  0
  147.6779  132.0052  153.3400 H   0  0  0  0  0  0  0  0  0  0  0  0
  146.4860  130.3686  152.3885 H   0  0  0  0  0  0  0  0  0  0  0  0
  145.1496  131.1988  153.1101 H   0  0  0  0  0  0  0  0  0  0  0  0
  146.0378  131.7133  150.1951 H   0  0  0  0  0  0  0  0  0  0  0  0
  145.0663  130.3518  150.6393 H   0  0  0  0  0  0  0  0  0  0  0  0
  143.3947  131.7301  150.0272 H   0  0  0  0  0  0  0  0  0  0  0  0
  143.4031  132.0545  151.7188 H   0  0  0  0  0  0  0  0  0  0  0  0
  144.4253  133.7672  149.4092 H   0  0  0  0  0  0  0  0  0  0  0  0
  143.1551  134.1355  150.5334 H   0  0  0  0  0  0  0  0  0  0  0  0
  146.1448  134.3345  150.9321 H   0  0  0  0  0  0  0  0  0  0  0  0
  144.9490  135.5599  151.0994 H   0  0  0  0  0  0  0  0  0  0  0  0
  144.1898  133.6346  153.0623 H   0  0  0  0  0  0  0  0  0  0  0  0
  144.8203  135.2079  153.3088 H   0  0  0  0  0  0  0  0  0  0  0  0
  1  2  2  0  0  0  0
  2  3  1  0  0  0  0
  2 12  1  0  0  0  0
  3  4  1  0  0  0  0
  3 21  1  0  0  0  0
  4  5  1  0  0  0  0
  4 22  1  0  0  0  0
  4 23  1  0  0  0  0
  5  6  1  0  0  0  0
  5 24  1  0  0  0  0
  5 25  1  0  0  0  0
  6 11  1  0  0  0  0
  6  7  2  0  0  0  0
  7  8  1  0  0  0  0
  7 26  1  0  0  0  0
  8  9  2  0  0  0  0
  8 27  1  0  0  0  0
  9 10  1  0  0  0  0
  9 28  1  0  0  0  0
 10 11  2  0  0  0  0
 11 29  1  0  0  0  0
 12 13  1  0  0  0  0
 12 30  1  0  0  0  0
 13 20  1  0  0  0  0
 13 14  1  0  0  0  0
 13 31  1  0  0  0  0
 14 15  1  0  0  0  0
 14 32  1  0  0  0  0
 14 33  1  0  0  0  0
 15 16  1  0  0  0  0
 15 34  1  0  0  0  0
 15 35  1  0  0  0  0
 16 17  1  0  0  0  0
 16 36  1  0  0  0  0
 16 37  1  0  0  0  0
 17 18  1  0  0  0  0
 17 38  1  0  0  0  0
 17 39  1  0  0  0  0
 18 19  1  0  0  0  0
 18 40  1  0  0  0  0
 18 41  1  0  0  0  0
 19 20  1  0  0  0  0
 19 42  1  0  0  0  0
 19 43  1  0  0  0  0
 20 44  1  0  0  0  0
 20 45  1  0  0  0  0
M  END
> <s_m_source_file>
AV-unprocessed.smi

> <i_m_source_file_index>
381

> <i_lp_mmshare_version>
43012

> <i_f3d_flags>
0

> <s_epik_input>
W0NIMl0xW0NIMl1bQ0gyXVtDSDJdW0NIMl1bQ0gyXVtDSDJdW0NIXTFbTkhdQyg9TylbTkhdW0NIMl1bQ0gyXWMyW2NIXVtjSF1bY0hdbltjSF0y

> <s_epik_cmdline>
J2VwaWtfcHl0aG9uJywgJy1waCcsICc3LjAnLCAnLXRuJywgJzgnLCAnLW1hJywgJzIwMCcsICctbWV0YWxfYmluZGluZycsICctaW1hZScsICc8aW5maWxlLm1hZT4nLCAnLW9tYWUnLCAnPG91dGZpbGUubWFlPic=

> <r_epik_Ionization_Penalty>
0.0144395

> <r_epik_Ionization_Penalty_Charging>
0

> <r_epik_Ionization_Penalty_Neutral>
0.0144395

> <r_epik_State_Penalty>
0.0112394

> <r_epik_Charging_Adjusted_Penalty>
0.0112394

> <i_epik_Tot_Q>
0

> <i_epik_Tot_abs_Q>
0

> <r_epik_Metal_State_Penalty>
0.0109727

> <b_epik_Metal_Only>
0

> <s_lp_Force_Field>
OPLS_2005

> <r_lp_Energy>
29.8357

> <b_lp_Chiralities_Consistent>
1

> <s_lp_Variant>
AV-unprocessed.smi:381-1

> <Gold.Version>
5.8.1

> <Gold.Id.Protein>
6NUR|6NUR_protein|mol2

> <Gold.PLP.Fitness>
43.0867

> <Gold.PLP.PLP>
-34.6727

> <Gold.PLP.part.hbond>
-2.0000

> <Gold.PLP.part.metal>
0.0000

> <Gold.PLP.part.buried>
-3.1704

> <Gold.PLP.part.nonpolar>
-30.0373

> <Gold.PLP.part.repulsive>
0.9298

> <Gold.PLP.ligand.clash>
0.0000

> <Gold.PLP.ligand.torsion>
0.2082

> <Gold.PLP.Chemscore.Hbond>
1.9280

> <Gold.PLP.Chemscore.CHOScore>
1.0000

> <Gold.PLP.Chemscore.Metal>
0.0000

> <Gold.Chemscore.Hbonds>
donor molecule, donor type, donor heavy atom, donor atom, acceptor molecule, acceptor atom, score
      L1  H     3    21       P1  7948  1.00
      L1  H    12    30       P1  7948  0.93
      L1  C    11    29       P1  7948  0.89

> <Gold.PLP.Chemscore.Internal.Correction>
0.0464

> <Gold.Rescore>
     Score         DG    S(hbond)    S(metal)    S(lipo)     H(rot)  DE(clash)    DE(int)     intcor
     18.38     -18.63       1.82        0.00      91.54       1.42       0.03       0.22       ----

> <Gold.Chemscore.Fitness>
18.3821

> <Gold.Chemscore.DG>
-18.6286

> <Gold.Chemscore.ZeroCoef>
-5.4800

> <Gold.Chemscore.Hbond>
1.8196

> <Gold.Chemscore.Metal>
0.0000

> <Gold.Chemscore.Lipo>
91.5353

> <Gold.Chemscore.Internal_Hbond>
0.0000

> <Gold.Chemscore.DEClash>
0.0292

> <Gold.Chemscore.DEInternal>
0.2172

> <Gold.Chemscore.Rot>
1.4213

> <Gold.Chemscore.Internal.Correction>
   9.000000E+99

> <Gold.Chemscore.Hbonds>
donor molecule, donor type, donor heavy atom, donor atom, acceptor molecule, acceptor atom, score
      L1  H     3    21       P1  7948  0.95
      L1  H    12    30       P1  7948  0.88

> <Gold.Chemscore.Hbond.Weighted>
-6.0774

> <Gold.Chemscore.Metal.Weighted>
-0.0000

> <Gold.Chemscore.Lipo.Weighted>
-10.7096

> <Gold.Chemscore.Internal_Hbond.Weighted>
0.0000

> <Gold.Chemscore.DEClash.Weighted>
0.0292

> <Gold.Chemscore.DEInternal.Weighted>
0.2172

> <Gold.Chemscore.Rot.Weighted>
3.6385

> <Gold.Chemscore.Internal.Correction.Weighted>
   9.000000E+99

> <Gold.Protein.RotatedTorsions>
[ 6907 6896 6895 6894 ] final   45.95 input  -60.11 | X-H torsion
[ 7974 7965 7964 7962 ] final   41.15 input  175.53 | X-H torsion
[ 8008 7997 7996 7995 ] final -173.04 input   59.86 | X-H torsion
[ 10167 10162 10161 10158 ] final  139.34 input  -65.29 | X-H torsion
[ 10718 10713 10712 10709 ] final -165.11 input   66.30 | X-H torsion
[ 10763 10752 10751 10750 ] final  157.55 input  -60.55 | X-H torsion
[ 11005 11000 10999 10996 ] final   19.95 input  -57.11 | X-H torsion

> <Gold.Protein.ActiveResidues>
 VAL166  LYS551  ARG553  GLY616  TRP617  ASP618  TYR619  PRO620  LYS621  CYS622 
 ASP623  PHE694  ASN695  SER759  ASP760  ASP761  ALA762  ILE779  LEU786  VAL792 
 PHE793  MET794  SER795  GLU796  ALA797  LYS798  CYS799  TRP800  GLU811  SER814 

> <Gold.Protein.RotatedAtoms>
  152.2506  134.8136  160.0446 H   0  0  0  0  0  0  0  0  0  0  0  0  # atno 6907 bound_to 6896
  151.8817  133.3491  159.3777 H   0  0  0  0  0  0  0  0  0  0  0  0  # atno 6908 bound_to 6896
  150.7083  134.4938  159.5572 H   0  0  0  0  0  0  0  0  0  0  0  0  # atno 6909 bound_to 6896
  146.0847  139.5449  142.9514 H   0  0  0  0  0  0  0  0  0  0  0  0  # atno 7974 bound_to 7965
  155.9524  140.1129  157.0966 H   0  0  0  0  0  0  0  0  0  0  0  0  # atno 8008 bound_to 7997
  154.4112  140.1198  156.5136 H   0  0  0  0  0  0  0  0  0  0  0  0  # atno 8009 bound_to 7997
  155.6826  140.3473  155.4863 H   0  0  0  0  0  0  0  0  0  0  0  0  # atno 8010 bound_to 7997
  139.5082  144.6300  151.5841 H   0  0  0  0  0  0  0  0  0  0  0  0  # atno 10167 bound_to 10162
  156.6487  130.8999  151.3009 H   0  0  0  0  0  0  0  0  0  0  0  0  # atno 10718 bound_to 10713
  154.2020  135.2790  155.2987 H   0  0  0  0  0  0  0  0  0  0  0  0  # atno 10763 bound_to 10752
  154.5847  135.5578  153.7222 H   0  0  0  0  0  0  0  0  0  0  0  0  # atno 10764 bound_to 10752
  153.0085  135.6353  154.2158 H   0  0  0  0  0  0  0  0  0  0  0  0  # atno 10765 bound_to 10752
  140.4080  134.1648  155.7666 H   0  0  0  0  0  0  0  0  0  0  0  0  # atno 11005 bound_to 11000
  145.6152  141.0332  143.1945 LP  0  0  0  0  0  0  0  0  0  0  0  0  # atno 17320 bound_to 7965
  144.7317  139.7705  143.7344 LP  0  0  0  0  0  0  0  0  0  0  0  0  # atno 17321 bound_to 7965
  140.6030  143.9576  150.6399 LP  0  0  0  0  0  0  0  0  0  0  0  0  # atno 17342 bound_to 10162
  140.2793  143.3400  152.1166 LP  0  0  0  0  0  0  0  0  0  0  0  0  # atno 17343 bound_to 10162
  157.7148  130.9483  150.1215 LP  0  0  0  0  0  0  0  0  0  0  0  0  # atno 17370 bound_to 10713
  156.2101  130.3666  149.8681 LP  0  0  0  0  0  0  0  0  0  0  0  0  # atno 17371 bound_to 10713
  141.1832  133.8370  157.1184 LP  0  0  0  0  0  0  0  0  0  0  0  0  # atno 17394 bound_to 11000
  140.0288  134.9911  157.0739 LP  0  0  0  0  0  0  0  0  0  0  0  0  # atno 17395 bound_to 11000

$$$$
