AV-unprocessed.smi:1191|AV-procd|sdf|4986|dock3
  -GOLD-   22720 3583D 1   1.00000     0.00000
 Structure written by MMmdl.
 47 48  0  0  0  0  0  0  0  0  2 V2000
  151.8137  145.5343  159.4167 C   0  0  0  0  0  0  0  0  0  0  0  0
  152.2754  144.3246  160.1747 C   0  0  0  0  0  0  0  0  0  0  0  0
  152.6211  144.2252  161.5514 C   0  0  0  0  0  0  0  0  0  0  0  0
  152.9667  142.9138  161.7193 C   0  0  0  0  0  0  0  0  0  0  0  0
  153.4197  142.1857  162.9421 C   0  0  0  0  0  0  0  0  0  0  0  0
  152.8244  142.3006  160.4870 N   0  0  0  0  0  0  0  0  0  0  0  0
  153.0554  140.9120  160.1200 C   0  0  0  0  0  0  0  0  0  0  0  0
  152.6386  140.6464  158.6727 C   0  0  0  0  0  0  0  0  0  0  0  0
  153.3421  139.9444  157.9467 O   0  0  0  0  0  0  0  0  0  0  0  0
  151.4896  141.2089  158.2673 N   0  0  0  0  0  0  0  0  0  0  0  0
  150.9061  141.0579  156.9406 C   0  0  0  0  0  0  0  0  0  0  0  0
  150.8881  142.3969  156.1792 C   0  0  0  0  0  0  0  0  0  0  0  0
  149.8037  142.4512  155.1675 N   0  3  1  0  0  0  0  0  0  0  0  0
  150.0967  141.6096  153.9789 C   0  0  0  0  0  0  0  0  0  0  0  0
  149.0387  141.8138  152.8830 C   0  0  0  0  0  0  0  0  0  0  0  0
  147.6268  141.5389  153.4199 C   0  0  0  0  0  0  0  0  0  0  0  0
  147.3416  142.3598  154.6916 C   0  0  2  0  0  0  0  0  0  0  0  0
  147.0942  143.8499  154.3981 C   0  0  0  0  0  0  0  0  0  0  0  0
  148.4602  142.1501  155.7328 C   0  0  0  0  0  0  0  0  0  0  0  0
  152.3972  143.1686  159.5434 N   0  0  0  0  0  0  0  0  0  0  0  0
  151.8338  146.4249  160.0450 H   0  0  0  0  0  0  0  0  0  0  0  0
  150.7926  145.4053  159.0572 H   0  0  0  0  0  0  0  0  0  0  0  0
  152.4509  145.7243  158.5527 H   0  0  0  0  0  0  0  0  0  0  0  0
  152.6162  145.0005  162.3032 H   0  0  0  0  0  0  0  0  0  0  0  0
  153.4564  142.8546  163.8022 H   0  0  0  0  0  0  0  0  0  0  0  0
  154.4170  141.7689  162.8000 H   0  0  0  0  0  0  0  0  0  0  0  0
  152.7400  141.3681  163.1829 H   0  0  0  0  0  0  0  0  0  0  0  0
  154.1115  140.6709  160.2522 H   0  0  0  0  0  0  0  0  0  0  0  0
  152.4968  140.2654  160.7974 H   0  0  0  0  0  0  0  0  0  0  0  0
  150.9777  141.7695  158.9340 H   0  0  0  0  0  0  0  0  0  0  0  0
  151.4994  140.3147  156.4095 H   0  0  0  0  0  0  0  0  0  0  0  0
  149.8970  140.6498  157.0218 H   0  0  0  0  0  0  0  0  0  0  0  0
  150.7397  143.1996  156.9029 H   0  0  0  0  0  0  0  0  0  0  0  0
  151.8512  142.5888  155.7036 H   0  0  0  0  0  0  0  0  0  0  0  0
  151.0771  141.8657  153.5751 H   0  0  0  0  0  0  0  0  0  0  0  0
  150.1386  140.5602  154.2748 H   0  0  0  0  0  0  0  0  0  0  0  0
  149.0999  142.8320  152.4978 H   0  0  0  0  0  0  0  0  0  0  0  0
  149.2479  141.1558  152.0391 H   0  0  0  0  0  0  0  0  0  0  0  0
  146.8814  141.7487  152.6521 H   0  0  0  0  0  0  0  0  0  0  0  0
  147.5359  140.4767  153.6511 H   0  0  0  0  0  0  0  0  0  0  0  0
  146.4169  141.9752  155.1241 H   0  0  0  0  0  0  0  0  0  0  0  0
  147.9767  144.3364  153.9827 H   0  0  0  0  0  0  0  0  0  0  0  0
  146.8211  144.3867  155.3072 H   0  0  0  0  0  0  0  0  0  0  0  0
  146.2783  143.9785  153.6862 H   0  0  0  0  0  0  0  0  0  0  0  0
  148.4468  141.1167  156.0836 H   0  0  0  0  0  0  0  0  0  0  0  0
  148.2608  142.7726  156.6044 H   0  0  0  0  0  0  0  0  0  0  0  0
  149.7763  143.4041  154.8335 H   0  0  0  0  0  0  0  0  0  0  0  0
  1  2  1  0  0  0  0
  1 21  1  0  0  0  0
  1 22  1  0  0  0  0
  1 23  1  0  0  0  0
  2 20  2  0  0  0  0
  2  3  1  0  0  0  0
  3  4  2  0  0  0  0
  3 24  1  0  0  0  0
  4  5  1  0  0  0  0
  4  6  1  0  0  0  0
  5 25  1  0  0  0  0
  5 26  1  0  0  0  0
  5 27  1  0  0  0  0
  6  7  1  0  0  0  0
  6 20  1  0  0  0  0
  7  8  1  0  0  0  0
  7 28  1  0  0  0  0
  7 29  1  0  0  0  0
  8  9  2  0  0  0  0
  8 10  1  0  0  0  0
 10 11  1  0  0  0  0
 10 30  1  0  0  0  0
 11 12  1  0  0  0  0
 11 31  1  0  0  0  0
 11 32  1  0  0  0  0
 12 13  1  0  0  0  0
 12 33  1  0  0  0  0
 12 34  1  0  0  0  0
 13 19  1  0  0  0  0
 13 14  1  0  0  0  0
 13 47  1  0  0  0  0
 14 15  1  0  0  0  0
 14 35  1  0  0  0  0
 14 36  1  0  0  0  0
 15 16  1  0  0  0  0
 15 37  1  0  0  0  0
 15 38  1  0  0  0  0
 16 17  1  0  0  0  0
 16 39  1  0  0  0  0
 16 40  1  0  0  0  0
 17 18  1  0  0  0  0
 17 19  1  0  0  0  0
 17 41  1  0  0  0  0
 18 42  1  0  0  0  0
 18 43  1  0  0  0  0
 18 44  1  0  0  0  0
 19 45  1  0  0  0  0
 19 46  1  0  0  0  0
M  CHG  1  13   1
M  END
> <s_m_source_file>
AV-unprocessed.smi

> <i_m_source_file_index>
1191

> <i_lp_mmshare_version>
43012

> <i_f3d_flags>
0

> <s_epik_input>
W0NIM11jMVtjSF1jKFtDSDNdKW4objEpW0NIMl1DKD1PKVtOSF1bQ0gyXVtDSDJdTjJbQ0gyXVtDSDJdW0NIMl1bQ0BASF0oW0NIM10pW0NIMl0y

> <s_epik_cmdline>
J2VwaWtfcHl0aG9uJywgJy1waCcsICc3LjAnLCAnLXRuJywgJzgnLCAnLW1hJywgJzIwMCcsICctbWV0YWxfYmluZGluZycsICctaW1hZScsICc8aW5maWxlLm1hZT4nLCAnLW9tYWUnLCAnPG91dGZpbGUubWFlPic=

> <r_lp_tautomer_probability>
1

> <r_epik_Ionization_Penalty>
0.00249932

> <r_epik_Ionization_Penalty_Charging>
0.00230623

> <r_epik_Ionization_Penalty_Neutral>
0.000193092

> <r_epik_State_Penalty>
-0

> <r_epik_Charging_Adjusted_Penalty>
0.00230623

> <i_epik_Tot_Q>
1

> <i_epik_Tot_abs_Q>
1

> <r_epik_Metal_State_Penalty>
-0

> <b_epik_Metal_Only>
0

> <s_lp_Force_Field>
OPLS_2005

> <r_lp_Energy>
16.3649

> <b_lp_Chiralities_Consistent>
1

> <s_lp_Variant>
AV-unprocessed.smi:1191-3

> <Gold.Version>
5.8.1

> <Gold.Id.Protein>
6NUR|6NUR_protein|mol2

> <Gold.PLP.Fitness>
52.3021

> <Gold.PLP.PLP>
-44.2774

> <Gold.PLP.part.hbond>
-2.0000

> <Gold.PLP.part.metal>
0.0000

> <Gold.PLP.part.buried>
-4.1100

> <Gold.PLP.part.nonpolar>
-36.8046

> <Gold.PLP.part.repulsive>
0.2528

> <Gold.PLP.ligand.clash>
0.0000

> <Gold.PLP.ligand.torsion>
0.5019

> <Gold.PLP.Chemscore.Hbond>
3.0000

> <Gold.PLP.Chemscore.CHOScore>
0.0000

> <Gold.PLP.Chemscore.Metal>
0.0000

> <Gold.Chemscore.Hbonds>
donor molecule, donor type, donor heavy atom, donor atom, acceptor molecule, acceptor atom, score
      L1  H    13    47       P1  8028  0.99
      P1  H  7997  8008       L1     9  1.00

> <Gold.PLP.Chemscore.Internal.Correction>
0.0285

> <Gold.Rescore>
     Score         DG    S(hbond)    S(metal)    S(lipo)     H(rot)  DE(clash)    DE(int)     intcor
     17.65     -20.32       1.78        0.00     112.47       1.67       0.63       2.03       ----

> <Gold.Chemscore.Fitness>
17.6538

> <Gold.Chemscore.DG>
-20.3171

> <Gold.Chemscore.ZeroCoef>
-5.4800

> <Gold.Chemscore.Hbond>
1.7792

> <Gold.Chemscore.Metal>
0.0000

> <Gold.Chemscore.Lipo>
112.4679

> <Gold.Chemscore.Internal_Hbond>
0.0000

> <Gold.Chemscore.DEClash>
0.6337

> <Gold.Chemscore.DEInternal>
2.0296

> <Gold.Chemscore.Rot>
1.6657

> <Gold.Chemscore.Internal.Correction>
   9.000000E+99

> <Gold.Chemscore.Hbonds>
donor molecule, donor type, donor heavy atom, donor atom, acceptor molecule, acceptor atom, score
      L1  H    13    47       P1  8028  0.50
      P1  H  7997  8008       L1     9  0.94

> <Gold.Chemscore.Hbond.Weighted>
-5.9424

> <Gold.Chemscore.Metal.Weighted>
-0.0000

> <Gold.Chemscore.Lipo.Weighted>
-13.1587

> <Gold.Chemscore.Internal_Hbond.Weighted>
0.0000

> <Gold.Chemscore.DEClash.Weighted>
0.6337

> <Gold.Chemscore.DEInternal.Weighted>
2.0296

> <Gold.Chemscore.Rot.Weighted>
4.2641

> <Gold.Chemscore.Internal.Correction.Weighted>
   9.000000E+99

> <Gold.Protein.RotatedTorsions>
[ 6907 6896 6895 6894 ] final   14.21 input  -60.11 | X-H torsion
[ 7974 7965 7964 7962 ] final   51.39 input  175.53 | X-H torsion
[ 8008 7997 7996 7995 ] final  -86.91 input   59.86 | X-H torsion
[ 10167 10162 10161 10158 ] final   49.68 input  -65.29 | X-H torsion
[ 10718 10713 10712 10709 ] final -169.75 input   66.30 | X-H torsion
[ 10763 10752 10751 10750 ] final  154.65 input  -60.55 | X-H torsion
[ 11005 11000 10999 10996 ] final -113.87 input  -57.11 | X-H torsion

> <Gold.Protein.ActiveResidues>
 VAL166  LYS551  ARG553  GLY616  TRP617  ASP618  TYR619  PRO620  LYS621  CYS622 
 ASP623  PHE694  ASN695  SER759  ASP760  ASP761  ALA762  ILE779  LEU786  VAL792 
 PHE793  MET794  SER795  GLU796  ALA797  LYS798  CYS799  TRP800  GLU811  SER814 

> <Gold.Protein.RotatedAtoms>
  151.7986  135.0715  160.0396 H   0  0  0  0  0  0  0  0  0  0  0  0  # atno 6907 bound_to 6896
  152.3105  133.5743  159.5686 H   0  0  0  0  0  0  0  0  0  0  0  0  # atno 6908 bound_to 6896
  150.7317  134.0075  159.3700 H   0  0  0  0  0  0  0  0  0  0  0  0  # atno 6909 bound_to 6896
  145.9918  139.4346  143.0069 H   0  0  0  0  0  0  0  0  0  0  0  0  # atno 7974 bound_to 7965
  154.6572  140.0572  157.0022 H   0  0  0  0  0  0  0  0  0  0  0  0  # atno 8008 bound_to 7997
  155.1282  140.3254  155.4462 H   0  0  0  0  0  0  0  0  0  0  0  0  # atno 8009 bound_to 7997
  156.2602  140.1985  156.6402 H   0  0  0  0  0  0  0  0  0  0  0  0  # atno 8010 bound_to 7997
  140.2803  144.3164  150.6266 H   0  0  0  0  0  0  0  0  0  0  0  0  # atno 10167 bound_to 10162
  156.7161  130.9252  151.3093 H   0  0  0  0  0  0  0  0  0  0  0  0  # atno 10718 bound_to 10713
  154.1557  135.2812  155.3123 H   0  0  0  0  0  0  0  0  0  0  0  0  # atno 10763 bound_to 10752
  154.6184  135.5475  153.7552 H   0  0  0  0  0  0  0  0  0  0  0  0  # atno 10764 bound_to 10752
  153.0207  135.6433  154.1700 H   0  0  0  0  0  0  0  0  0  0  0  0  # atno 10765 bound_to 10752
  141.0587  133.9570  157.2706 H   0  0  0  0  0  0  0  0  0  0  0  0  # atno 11005 bound_to 11000
  145.7619  140.9932  143.1195 LP  0  0  0  0  0  0  0  0  0  0  0  0  # atno 17320 bound_to 7965
  144.6891  139.9341  143.7473 LP  0  0  0  0  0  0  0  0  0  0  0  0  # atno 17321 bound_to 7965
  140.5817  143.2172  151.7416 LP  0  0  0  0  0  0  0  0  0  0  0  0  # atno 17342 bound_to 10162
  139.4964  144.4070  152.0121 LP  0  0  0  0  0  0  0  0  0  0  0  0  # atno 17343 bound_to 10162
  157.6917  130.9240  150.0531 LP  0  0  0  0  0  0  0  0  0  0  0  0  # atno 17370 bound_to 10713
  156.1627  130.3644  149.9276 LP  0  0  0  0  0  0  0  0  0  0  0  0  # atno 17371 bound_to 10713
  139.9413  135.0190  156.8718 LP  0  0  0  0  0  0  0  0  0  0  0  0  # atno 17394 bound_to 11000
  140.5911  134.0260  155.7500 LP  0  0  0  0  0  0  0  0  0  0  0  0  # atno 17395 bound_to 11000

$$$$
