AV-unprocessed.smi:2128|AV-procd|sdf|8681|dock10
  -GOLD-   2272011433D 1   1.00000     0.00000
 Structure written by MMmdl.
 50 52  0  0  0  0  0  0  0  0  1 V2000
  151.7118  145.1634  158.7938 O   0  0  0  0  0  0  0  0  0  0  0  0
  151.9525  143.9741  158.5989 C   0  0  0  0  0  0  0  0  0  0  0  0
  151.3231  143.2633  157.3865 C   0  0  0  0  0  0  0  0  0  0  0  0
  151.5293  141.8087  157.3192 N   0  0  0  0  0  0  0  0  0  0  0  0
  150.7691  141.0971  156.3575 C   0  0  0  0  0  0  0  0  0  0  0  0
  149.6920  141.7134  155.6719 C   0  0  0  0  0  0  0  0  0  0  0  0
  148.9568  140.9735  154.7260 C   0  0  0  0  0  0  0  0  0  0  0  0
  149.3163  139.6296  154.4765 C   0  0  0  0  0  0  0  0  0  0  0  0
  148.6412  138.7751  153.5635 N   0  0  0  0  0  0  0  0  0  0  0  0
  147.3226  138.6915  153.3181 C   0  0  0  0  0  0  0  0  0  0  0  0
  146.4547  139.3766  153.8589 O   0  0  0  0  0  0  0  0  0  0  0  0
  147.0641  137.7748  152.3739 N   0  0  0  0  0  0  0  0  0  0  0  0
  145.7452  137.4697  151.8243 C   0  0  0  0  0  0  0  0  0  0  0  0
  145.8315  136.5529  150.5881 C   0  0  0  0  0  0  0  0  0  0  0  0
  145.4472  135.1063  150.8618 C   0  0  0  0  0  0  0  0  0  0  0  0
  144.3875  134.5268  150.2643 C   0  0  0  0  0  0  0  0  0  0  0  0
  143.9664  133.0849  150.4839 C   0  0  0  0  0  0  0  0  0  0  0  0
  145.0629  132.2524  151.1692 C   0  0  0  0  0  0  0  0  0  0  0  0
  145.7085  133.0293  152.3231 C   0  0  0  0  0  0  0  0  0  0  0  0
  146.3429  134.3424  151.8309 C   0  0  0  0  0  0  0  0  0  0  0  0
  150.3913  139.0966  155.2129 C   0  0  0  0  0  0  0  0  0  0  0  0
  151.0990  139.8034  156.1180 N   0  0  0  0  0  0  0  0  0  0  0  0
  151.9831  141.1003  158.5195 C   0  0  0  0  0  0  0  0  0  0  0  0
  153.1016  141.8765  159.2281 C   0  0  0  0  0  0  0  0  0  0  0  0
  152.7432  143.2739  159.4266 N   0  0  0  0  0  0  0  0  0  0  0  0
  150.2539  143.4816  157.3800 H   0  0  0  0  0  0  0  0  0  0  0  0
  151.7557  143.7260  156.4992 H   0  0  0  0  0  0  0  0  0  0  0  0
  149.4146  142.7411  155.8489 H   0  0  0  0  0  0  0  0  0  0  0  0
  148.1280  141.4479  154.2240 H   0  0  0  0  0  0  0  0  0  0  0  0
  149.2382  138.2077  152.9799 H   0  0  0  0  0  0  0  0  0  0  0  0
  147.8433  137.2625  151.9870 H   0  0  0  0  0  0  0  0  0  0  0  0
  145.1700  136.9677  152.6024 H   0  0  0  0  0  0  0  0  0  0  0  0
  145.1954  138.3830  151.5927 H   0  0  0  0  0  0  0  0  0  0  0  0
  145.1865  136.9527  149.8044 H   0  0  0  0  0  0  0  0  0  0  0  0
  146.8438  136.5717  150.1831 H   0  0  0  0  0  0  0  0  0  0  0  0
  143.7673  135.1042  149.5941 H   0  0  0  0  0  0  0  0  0  0  0  0
  143.0616  133.0892  151.0924 H   0  0  0  0  0  0  0  0  0  0  0  0
  143.7038  132.6359  149.5259 H   0  0  0  0  0  0  0  0  0  0  0  0
  144.6465  131.3115  151.5298 H   0  0  0  0  0  0  0  0  0  0  0  0
  145.8312  131.9912  150.4403 H   0  0  0  0  0  0  0  0  0  0  0  0
  144.9485  133.2533  153.0732 H   0  0  0  0  0  0  0  0  0  0  0  0
  146.4605  132.4160  152.8200 H   0  0  0  0  0  0  0  0  0  0  0  0
  147.2852  134.1337  151.3232 H   0  0  0  0  0  0  0  0  0  0  0  0
  146.5835  134.9655  152.6918 H   0  0  0  0  0  0  0  0  0  0  0  0
  150.6992  138.0710  155.0702 H   0  0  0  0  0  0  0  0  0  0  0  0
  151.1349  140.9647  159.1926 H   0  0  0  0  0  0  0  0  0  0  0  0
  152.3634  140.1079  158.2730 H   0  0  0  0  0  0  0  0  0  0  0  0
  153.3293  141.4208  160.1920 H   0  0  0  0  0  0  0  0  0  0  0  0
  154.0162  141.8397  158.6347 H   0  0  0  0  0  0  0  0  0  0  0  0
  153.1403  143.7468  160.2255 H   0  0  0  0  0  0  0  0  0  0  0  0
  1  2  2  0  0  0  0
  2 25  1  0  0  0  0
  2  3  1  0  0  0  0
  3  4  1  0  0  0  0
  3 26  1  0  0  0  0
  3 27  1  0  0  0  0
  4  5  1  0  0  0  0
  4 23  1  0  0  0  0
  5 22  1  0  0  0  0
  5  6  2  0  0  0  0
  6  7  1  0  0  0  0
  6 28  1  0  0  0  0
  7  8  2  0  0  0  0
  7 29  1  0  0  0  0
  8  9  1  0  0  0  0
  8 21  1  0  0  0  0
  9 10  1  0  0  0  0
  9 30  1  0  0  0  0
 10 11  2  0  0  0  0
 10 12  1  0  0  0  0
 12 13  1  0  0  0  0
 12 31  1  0  0  0  0
 13 14  1  0  0  0  0
 13 32  1  0  0  0  0
 13 33  1  0  0  0  0
 14 15  1  0  0  0  0
 14 34  1  0  0  0  0
 14 35  1  0  0  0  0
 15 20  1  0  0  0  0
 15 16  2  0  0  0  0
 16 17  1  0  0  0  0
 16 36  1  0  0  0  0
 17 18  1  0  0  0  0
 17 37  1  0  0  0  0
 17 38  1  0  0  0  0
 18 19  1  0  0  0  0
 18 39  1  0  0  0  0
 18 40  1  0  0  0  0
 19 20  1  0  0  0  0
 19 41  1  0  0  0  0
 19 42  1  0  0  0  0
 20 43  1  0  0  0  0
 20 44  1  0  0  0  0
 21 22  2  0  0  0  0
 21 45  1  0  0  0  0
 23 24  1  0  0  0  0
 23 46  1  0  0  0  0
 23 47  1  0  0  0  0
 24 25  1  0  0  0  0
 24 48  1  0  0  0  0
 24 49  1  0  0  0  0
 25 50  1  0  0  0  0
M  END
> <s_m_source_file>
AV-unprocessed.smi

> <i_m_source_file_index>
2128

> <i_lp_mmshare_version>
43012

> <i_f3d_flags>
0

> <s_epik_input>
Tz1DMVtDSDJdTihbQ0gyXVtDSDJdW05IXTEpYzJbY0hdW2NIXWMoW2NIXW4yKVtOSF1DKD1PKVtOSF1bQ0gyXVtDSDJdQzM9W0NIXVtDSDJdW0NIMl1bQ0gyXVtDSDJdMw==

> <s_epik_cmdline>
J2VwaWtfcHl0aG9uJywgJy1waCcsICc3LjAnLCAnLXRuJywgJzgnLCAnLW1hJywgJzIwMCcsICctbWV0YWxfYmluZGluZycsICctaW1hZScsICc8aW5maWxlLm1hZT4nLCAnLW9tYWUnLCAnPG91dGZpbGUubWFlPic=

> <r_lp_tautomer_probability>
1

> <r_epik_Ionization_Penalty>
0.0211825

> <r_epik_Ionization_Penalty_Charging>
0

> <r_epik_Ionization_Penalty_Neutral>
0.0211825

> <r_epik_State_Penalty>
0.0169697

> <r_epik_Charging_Adjusted_Penalty>
0.0169697

> <i_epik_Tot_Q>
0

> <i_epik_Tot_abs_Q>
0

> <r_epik_Metal_State_Penalty>
0.0163833

> <b_epik_Metal_Only>
0

> <s_lp_Force_Field>
OPLS_2005

> <r_lp_Energy>
24.085

> <b_lp_Chiralities_Consistent>
1

> <s_lp_Variant>
AV-unprocessed.smi:2128-1

> <Gold.Version>
5.8.1

> <Gold.Id.Protein>
6NUR|6NUR_protein|mol2

> <Gold.PLP.Fitness>
49.4589

> <Gold.PLP.PLP>
-47.5583

> <Gold.PLP.part.hbond>
-2.7410

> <Gold.PLP.part.metal>
0.0000

> <Gold.PLP.part.buried>
-2.0442

> <Gold.PLP.part.nonpolar>
-43.3396

> <Gold.PLP.part.repulsive>
0.4104

> <Gold.PLP.ligand.clash>
0.0000

> <Gold.PLP.ligand.torsion>
0.9804

> <Gold.PLP.Chemscore.Hbond>
1.2255

> <Gold.PLP.Chemscore.CHOScore>
0.0000

> <Gold.PLP.Chemscore.Metal>
0.0000

> <Gold.Chemscore.Hbonds>
donor molecule, donor type, donor heavy atom, donor atom, acceptor molecule, acceptor atom, score
      L1  H     9    30       P1  7948  0.31
      L1  H    12    31       P1  7948  0.91

> <Gold.PLP.Chemscore.Internal.Correction>
0.1849

> <Gold.Rescore>
     Score         DG    S(hbond)    S(metal)    S(lipo)     H(rot)  DE(clash)    DE(int)     intcor
     16.78     -18.07       1.20        0.00     104.06       1.41       0.34       0.95       ----

> <Gold.Chemscore.Fitness>
16.7826

> <Gold.Chemscore.DG>
-18.0656

> <Gold.Chemscore.ZeroCoef>
-5.4800

> <Gold.Chemscore.Hbond>
1.2025

> <Gold.Chemscore.Metal>
0.0000

> <Gold.Chemscore.Lipo>
104.0632

> <Gold.Chemscore.Internal_Hbond>
0.0000

> <Gold.Chemscore.DEClash>
0.3358

> <Gold.Chemscore.DEInternal>
0.9471

> <Gold.Chemscore.Rot>
1.4087

> <Gold.Chemscore.Internal.Correction>
   9.000000E+99

> <Gold.Chemscore.Hbonds>
donor molecule, donor type, donor heavy atom, donor atom, acceptor molecule, acceptor atom, score
      L1  H     9    30       P1  7948  0.30
      L1  H    12    31       P1  7948  0.88

> <Gold.Chemscore.Hbond.Weighted>
-4.0163

> <Gold.Chemscore.Metal.Weighted>
-0.0000

> <Gold.Chemscore.Lipo.Weighted>
-12.1754

> <Gold.Chemscore.Internal_Hbond.Weighted>
0.0000

> <Gold.Chemscore.DEClash.Weighted>
0.3358

> <Gold.Chemscore.DEInternal.Weighted>
0.9471

> <Gold.Chemscore.Rot.Weighted>
3.6061

> <Gold.Chemscore.Internal.Correction.Weighted>
   9.000000E+99

> <Gold.Protein.RotatedTorsions>
[ 6907 6896 6895 6894 ] final  137.82 input  -60.11 | X-H torsion
[ 7974 7965 7964 7962 ] final  -86.41 input  175.53 | X-H torsion
[ 8008 7997 7996 7995 ] final  130.40 input   59.86 | X-H torsion
[ 10167 10162 10161 10158 ] final -172.75 input  -65.29 | X-H torsion
[ 10718 10713 10712 10709 ] final -111.78 input   66.30 | X-H torsion
[ 10763 10752 10751 10750 ] final -173.72 input  -60.55 | X-H torsion
[ 11005 11000 10999 10996 ] final   63.75 input  -57.11 | X-H torsion

> <Gold.Protein.ActiveResidues>
 VAL166  LYS551  ARG553  GLY616  TRP617  ASP618  TYR619  PRO620  LYS621  CYS622 
 ASP623  PHE694  ASN695  SER759  ASP760  ASP761  ALA762  ILE779  LEU786  VAL792 
 PHE793  MET794  SER795  GLU796  ALA797  LYS798  CYS799  TRP800  GLU811  SER814 

> <Gold.Protein.RotatedAtoms>
  152.2737  133.5406  159.5454 H   0  0  0  0  0  0  0  0  0  0  0  0  # atno 6907 bound_to 6896
  150.7169  134.0662  159.3857 H   0  0  0  0  0  0  0  0  0  0  0  0  # atno 6908 bound_to 6896
  151.8575  135.0536  160.0516 H   0  0  0  0  0  0  0  0  0  0  0  0  # atno 6909 bound_to 6896
  145.4803  140.9557  143.1868 H   0  0  0  0  0  0  0  0  0  0  0  0  # atno 7974 bound_to 7965
  156.2954  140.2597  156.2756 H   0  0  0  0  0  0  0  0  0  0  0  0  # atno 8008 bound_to 7997
  154.9652  140.0392  157.2227 H   0  0  0  0  0  0  0  0  0  0  0  0  # atno 8009 bound_to 7997
  154.7909  140.2811  155.5997 H   0  0  0  0  0  0  0  0  0  0  0  0  # atno 8010 bound_to 7997
  139.5727  144.1604  152.1407 H   0  0  0  0  0  0  0  0  0  0  0  0  # atno 10167 bound_to 10162
  156.0667  130.5885  150.8420 H   0  0  0  0  0  0  0  0  0  0  0  0  # atno 10718 bound_to 10713
  154.6045  135.2858  155.0499 H   0  0  0  0  0  0  0  0  0  0  0  0  # atno 10763 bound_to 10752
  154.1751  135.6466  153.5023 H   0  0  0  0  0  0  0  0  0  0  0  0  # atno 10764 bound_to 10752
  153.0170  135.5410  154.6777 H   0  0  0  0  0  0  0  0  0  0  0  0  # atno 10765 bound_to 10752
  140.0004  134.6451  155.9940 H   0  0  0  0  0  0  0  0  0  0  0  0  # atno 11005 bound_to 11000
  144.7893  139.6362  143.7120 LP  0  0  0  0  0  0  0  0  0  0  0  0  # atno 17320 bound_to 7965
  146.2345  139.5878  142.9533 LP  0  0  0  0  0  0  0  0  0  0  0  0  # atno 17321 bound_to 7965
  140.1140  144.5432  150.6906 LP  0  0  0  0  0  0  0  0  0  0  0  0  # atno 17342 bound_to 10162
  140.7011  143.2435  151.4862 LP  0  0  0  0  0  0  0  0  0  0  0  0  # atno 17343 bound_to 10162
  157.5713  131.0946  150.9413 LP  0  0  0  0  0  0  0  0  0  0  0  0  # atno 17370 bound_to 10713
  156.9629  130.5462  149.5287 LP  0  0  0  0  0  0  0  0  0  0  0  0  # atno 17371 bound_to 10713
  141.1637  133.6537  156.4407 LP  0  0  0  0  0  0  0  0  0  0  0  0  # atno 17394 bound_to 11000
  140.4739  134.6728  157.5141 LP  0  0  0  0  0  0  0  0  0  0  0  0  # atno 17395 bound_to 11000

$$$$
