AV-unprocessed.smi:1514|AV-procd|sdf|6115|dock6
  -GOLD-   22720 6253D 1   1.00000     0.00000
 Structure written by MMmdl.
 48 49  0  0  0  0  0  0  0  0  2 V2000
  144.6407  131.6919  150.8824 C   0  0  0  0  0  0  0  0  0  0  0  0
  145.0900  133.0152  151.5187 C   0  0  0  0  0  0  0  0  0  0  0  0
  144.0932  134.0744  151.3450 N   0  0  0  0  0  0  0  0  0  0  0  0
  143.6097  134.6013  152.6233 C   0  0  0  0  0  0  0  0  0  0  0  0
  144.6808  135.4472  153.3440 C   0  0  0  0  0  0  0  0  0  0  0  0
  145.1229  136.5731  152.4863 N   0  3  0  0  0  0  0  0  0  0  0  0
  146.0971  137.4574  153.1723 C   0  0  0  0  0  0  0  0  0  0  0  0
  146.6370  138.5673  152.2496 C   0  0  0  0  0  0  0  0  0  0  0  0
  147.9970  138.9505  152.6110 N   0  0  0  0  0  0  0  0  0  0  0  0
  148.4009  139.2573  153.8524 C   0  0  0  0  0  0  0  0  0  0  0  0
  147.6468  139.2559  154.8256 O   0  0  0  0  0  0  0  0  0  0  0  0
  149.7106  139.5606  153.8781 N   0  0  0  0  0  0  0  0  0  0  0  0
  150.4773  139.9244  154.9404 C   0  0  0  0  0  0  0  0  0  0  0  0
  150.2168  140.8502  155.9135 C   0  0  0  0  0  0  0  0  0  0  0  0
  151.3807  140.7794  156.7331 C   0  0  0  0  0  0  0  0  0  0  0  0
  151.6869  141.5677  157.9723 C   0  0  0  0  0  0  0  0  0  0  0  0
  152.2644  139.8907  156.2930 N   0  0  0  0  0  0  0  0  0  0  0  0
  151.7091  139.3581  155.1831 N   0  0  0  0  0  0  0  0  0  0  0  0
  152.4161  138.3356  154.4365 C   0  0  0  0  0  0  0  0  0  0  0  0
  145.6063  136.0577  151.1803 C   0  0  0  0  0  0  0  0  0  0  0  0
  144.5201  135.1963  150.5020 C   0  0  0  0  0  0  0  0  0  0  0  0
  145.3351  130.8920  151.1396 H   0  0  0  0  0  0  0  0  0  0  0  0
  144.6076  131.7494  149.7950 H   0  0  0  0  0  0  0  0  0  0  0  0
  143.6529  131.3965  151.2378 H   0  0  0  0  0  0  0  0  0  0  0  0
  145.2251  132.8437  152.5874 H   0  0  0  0  0  0  0  0  0  0  0  0
  146.0638  133.3084  151.1286 H   0  0  0  0  0  0  0  0  0  0  0  0
  142.7262  135.2133  152.4366 H   0  0  0  0  0  0  0  0  0  0  0  0
  143.2823  133.7792  153.2609 H   0  0  0  0  0  0  0  0  0  0  0  0
  144.2555  135.8415  154.2676 H   0  0  0  0  0  0  0  0  0  0  0  0
  145.5373  134.8362  153.6324 H   0  0  0  0  0  0  0  0  0  0  0  0
  145.6085  137.9343  154.0235 H   0  0  0  0  0  0  0  0  0  0  0  0
  146.9088  136.8543  153.5824 H   0  0  0  0  0  0  0  0  0  0  0  0
  146.6213  138.2618  151.2030 H   0  0  0  0  0  0  0  0  0  0  0  0
  146.0047  139.4525  152.3236 H   0  0  0  0  0  0  0  0  0  0  0  0
  148.6798  138.9732  151.8673 H   0  0  0  0  0  0  0  0  0  0  0  0
  150.1963  139.5159  152.9945 H   0  0  0  0  0  0  0  0  0  0  0  0
  149.3500  141.4811  156.0386 H   0  0  0  0  0  0  0  0  0  0  0  0
  150.8254  142.1566  158.2873 H   0  0  0  0  0  0  0  0  0  0  0  0
  152.5155  142.2558  157.8034 H   0  0  0  0  0  0  0  0  0  0  0  0
  151.9598  140.9117  158.7993 H   0  0  0  0  0  0  0  0  0  0  0  0
  152.5861  138.6792  153.4160 H   0  0  0  0  0  0  0  0  0  0  0  0
  151.8210  137.4226  154.4119 H   0  0  0  0  0  0  0  0  0  0  0  0
  153.3790  138.1171  154.9004 H   0  0  0  0  0  0  0  0  0  0  0  0
  145.8502  136.8884  150.5192 H   0  0  0  0  0  0  0  0  0  0  0  0
  146.5289  135.4921  151.3157 H   0  0  0  0  0  0  0  0  0  0  0  0
  144.8694  134.8379  149.5345 H   0  0  0  0  0  0  0  0  0  0  0  0
  143.6485  135.8173  150.2913 H   0  0  0  0  0  0  0  0  0  0  0  0
  144.3001  137.1288  152.3013 H   0  0  0  0  0  0  0  0  0  0  0  0
  1  2  1  0  0  0  0
  1 22  1  0  0  0  0
  1 23  1  0  0  0  0
  1 24  1  0  0  0  0
  2  3  1  0  0  0  0
  2 25  1  0  0  0  0
  2 26  1  0  0  0  0
  3 21  1  0  0  0  0
  3  4  1  0  0  0  0
  4  5  1  0  0  0  0
  4 27  1  0  0  0  0
  4 28  1  0  0  0  0
  5  6  1  0  0  0  0
  5 29  1  0  0  0  0
  5 30  1  0  0  0  0
  6  7  1  0  0  0  0
  6 20  1  0  0  0  0
  6 48  1  0  0  0  0
  7  8  1  0  0  0  0
  7 31  1  0  0  0  0
  7 32  1  0  0  0  0
  8  9  1  0  0  0  0
  8 33  1  0  0  0  0
  8 34  1  0  0  0  0
  9 10  1  0  0  0  0
  9 35  1  0  0  0  0
 10 11  2  0  0  0  0
 10 12  1  0  0  0  0
 12 13  1  0  0  0  0
 12 36  1  0  0  0  0
 13 18  1  0  0  0  0
 13 14  2  0  0  0  0
 14 15  1  0  0  0  0
 14 37  1  0  0  0  0
 15 16  1  0  0  0  0
 15 17  2  0  0  0  0
 16 38  1  0  0  0  0
 16 39  1  0  0  0  0
 16 40  1  0  0  0  0
 17 18  1  0  0  0  0
 18 19  1  0  0  0  0
 19 41  1  0  0  0  0
 19 42  1  0  0  0  0
 19 43  1  0  0  0  0
 20 21  1  0  0  0  0
 20 44  1  0  0  0  0
 20 45  1  0  0  0  0
 21 46  1  0  0  0  0
 21 47  1  0  0  0  0
M  CHG  1   6   1
M  END
> <s_m_source_file>
AV-unprocessed.smi

> <i_m_source_file_index>
1514

> <i_lp_mmshare_version>
43012

> <i_f3d_flags>
0

> <s_epik_input>
W0NIM11bQ0gyXU4xW0NIMl1bQ0gyXU4oW0NIMl1bQ0gyXTEpW0NIMl1bQ0gyXVtOSF1DKD1PKVtOSF1jMltjSF1jKFtDSDNdKW5uMltDSDNd

> <s_epik_cmdline>
J2VwaWtfcHl0aG9uJywgJy1waCcsICc3LjAnLCAnLXRuJywgJzgnLCAnLW1hJywgJzIwMCcsICctbWV0YWxfYmluZGluZycsICctaW1hZScsICc8aW5maWxlLm1hZT4nLCAnLW9tYWUnLCAnPG91dGZpbGUubWFlPic=

> <r_epik_Ionization_Penalty>
0.237948

> <r_epik_Ionization_Penalty_Charging>
0.236594

> <r_epik_Ionization_Penalty_Neutral>
0.00135429

> <r_epik_State_Penalty>
1.1865

> <r_epik_Charging_Adjusted_Penalty>
1.42309

> <i_epik_Tot_Q>
1

> <i_epik_Tot_abs_Q>
1

> <r_epik_Metal_State_Penalty>
1.18651

> <b_epik_Metal_Only>
0

> <s_lp_Force_Field>
OPLS_2005

> <r_lp_Energy>
18.1448

> <b_lp_Chiralities_Consistent>
1

> <s_lp_Variant>
AV-unprocessed.smi:1514-2

> <Gold.Version>
5.8.1

> <Gold.Id.Protein>
6NUR|6NUR_protein|mol2

> <Gold.PLP.Fitness>
44.0981

> <Gold.PLP.PLP>
-39.5841

> <Gold.PLP.part.hbond>
-3.5572

> <Gold.PLP.part.metal>
0.0000

> <Gold.PLP.part.buried>
-4.7782

> <Gold.PLP.part.nonpolar>
-31.7443

> <Gold.PLP.part.repulsive>
0.4368

> <Gold.PLP.ligand.clash>
0.0000

> <Gold.PLP.ligand.torsion>
1.4135

> <Gold.PLP.Chemscore.Hbond>
2.4295

> <Gold.PLP.Chemscore.CHOScore>
0.0000

> <Gold.PLP.Chemscore.Metal>
0.0000

> <Gold.Chemscore.Hbonds>
donor molecule, donor type, donor heavy atom, donor atom, acceptor molecule, acceptor atom, score
      L1  H     9    35       P1  7957  0.78
      L1  H    12    36       P1  7957  0.64
      P1  H  7997  8010       L1    17  0.86

> <Gold.PLP.Chemscore.Internal.Correction>
0.0524

> <Gold.Rescore>
     Score         DG    S(hbond)    S(metal)    S(lipo)     H(rot)  DE(clash)    DE(int)     intcor
     15.20     -18.01       2.37        0.00      76.44       1.69       0.01       2.79       ----

> <Gold.Chemscore.Fitness>
15.2030

> <Gold.Chemscore.DG>
-18.0088

> <Gold.Chemscore.ZeroCoef>
-5.4800

> <Gold.Chemscore.Hbond>
2.3699

> <Gold.Chemscore.Metal>
0.0000

> <Gold.Chemscore.Lipo>
76.4375

> <Gold.Chemscore.Internal_Hbond>
0.0000

> <Gold.Chemscore.DEClash>
0.0126

> <Gold.Chemscore.DEInternal>
2.7932

> <Gold.Chemscore.Rot>
1.6914

> <Gold.Chemscore.Internal.Correction>
   9.000000E+99

> <Gold.Chemscore.Hbonds>
donor molecule, donor type, donor heavy atom, donor atom, acceptor molecule, acceptor atom, score
      L1  H     9    35       P1  7957  0.65
      L1  H    12    36       P1  7957  0.60
      P1  H  7997  8010       L1    17  0.80

> <Gold.Chemscore.Hbond.Weighted>
-7.9156

> <Gold.Chemscore.Metal.Weighted>
-0.0000

> <Gold.Chemscore.Lipo.Weighted>
-8.9432

> <Gold.Chemscore.Internal_Hbond.Weighted>
0.0000

> <Gold.Chemscore.DEClash.Weighted>
0.0126

> <Gold.Chemscore.DEInternal.Weighted>
2.7932

> <Gold.Chemscore.Rot.Weighted>
4.3299

> <Gold.Chemscore.Internal.Correction.Weighted>
   9.000000E+99

> <Gold.Protein.RotatedTorsions>
[ 6907 6896 6895 6894 ] final   91.91 input  -60.11 | X-H torsion
[ 7974 7965 7964 7962 ] final -157.61 input  175.53 | X-H torsion
[ 8008 7997 7996 7995 ] final   78.91 input   59.86 | X-H torsion
[ 10167 10162 10161 10158 ] final  -72.67 input  -65.29 | X-H torsion
[ 10718 10713 10712 10709 ] final   31.32 input   66.30 | X-H torsion
[ 10763 10752 10751 10750 ] final  -53.53 input  -60.55 | X-H torsion
[ 11005 11000 10999 10996 ] final  -81.21 input  -57.11 | X-H torsion

> <Gold.Protein.ActiveResidues>
 VAL166  LYS551  ARG553  GLY616  TRP617  ASP618  TYR619  PRO620  LYS621  CYS622 
 ASP623  PHE694  ASN695  SER759  ASP760  ASP761  ALA762  ILE779  LEU786  VAL792 
 PHE793  MET794  SER795  GLU796  ALA797  LYS798  CYS799  TRP800  GLU811  SER814 

> <Gold.Protein.RotatedAtoms>
  152.5451  134.1583  159.8546 H   0  0  0  0  0  0  0  0  0  0  0  0  # atno 6907 bound_to 6896
  151.1604  133.4842  159.2602 H   0  0  0  0  0  0  0  0  0  0  0  0  # atno 6908 bound_to 6896
  151.1379  135.0175  159.8667 H   0  0  0  0  0  0  0  0  0  0  0  0  # atno 6909 bound_to 6896
  144.7541  140.3945  143.6026 H   0  0  0  0  0  0  0  0  0  0  0  0  # atno 7974 bound_to 7965
  155.8623  140.3453  155.5765 H   0  0  0  0  0  0  0  0  0  0  0  0  # atno 8008 bound_to 7997
  155.7919  140.0873  157.2023 H   0  0  0  0  0  0  0  0  0  0  0  0  # atno 8009 bound_to 7997
  154.4012  140.1481  156.3160 H   0  0  0  0  0  0  0  0  0  0  0  0  # atno 8010 bound_to 7997
  140.5173  143.2336  151.7490 H   0  0  0  0  0  0  0  0  0  0  0  0  # atno 10167 bound_to 10162
  157.2710  130.7208  149.6504 H   0  0  0  0  0  0  0  0  0  0  0  0  # atno 10718 bound_to 10713
  154.1603  135.6475  153.4984 H   0  0  0  0  0  0  0  0  0  0  0  0  # atno 10763 bound_to 10752
  153.0112  135.5359  154.6717 H   0  0  0  0  0  0  0  0  0  0  0  0  # atno 10764 bound_to 10752
  154.6029  135.2945  155.0488 H   0  0  0  0  0  0  0  0  0  0  0  0  # atno 10765 bound_to 10752
  141.1667  133.7186  156.8388 H   0  0  0  0  0  0  0  0  0  0  0  0  # atno 11005 bound_to 11000
  145.6841  139.1625  143.2684 LP  0  0  0  0  0  0  0  0  0  0  0  0  # atno 17320 bound_to 7965
  146.1529  140.6900  142.9314 LP  0  0  0  0  0  0  0  0  0  0  0  0  # atno 17321 bound_to 7965
  139.4913  144.4305  151.9877 LP  0  0  0  0  0  0  0  0  0  0  0  0  # atno 17342 bound_to 10162
  140.3400  144.3215  150.5969 LP  0  0  0  0  0  0  0  0  0  0  0  0  # atno 17343 bound_to 10162
  155.9663  130.4367  150.5147 LP  0  0  0  0  0  0  0  0  0  0  0  0  # atno 17370 bound_to 10713
  157.3071  131.0656  151.2027 LP  0  0  0  0  0  0  0  0  0  0  0  0  # atno 17371 bound_to 10713
  140.1998  134.8905  157.3156 LP  0  0  0  0  0  0  0  0  0  0  0  0  # atno 17394 bound_to 11000
  140.2200  134.4035  155.7570 LP  0  0  0  0  0  0  0  0  0  0  0  0  # atno 17395 bound_to 11000

$$$$
