AV-unprocessed.smi:1093|AV-procd|sdf|4742|dock4
  -GOLD-   22720 3273D 1   1.00000     0.00000
 Structure written by MMmdl.
 47 48  0  0  0  0  0  0  0  0  2 V2000
  145.5759  132.6382  150.7438 C   0  0  0  0  0  0  0  0  0  0  0  0
  144.3544  133.2376  150.0318 C   0  0  0  0  0  0  0  0  0  0  0  0
  143.6063  134.1937  150.8871 N   0  3  1  0  0  0  0  0  0  0  0  0
  143.0667  133.5432  152.1099 C   0  0  0  0  0  0  0  0  0  0  0  0
  142.1847  134.5118  152.9141 C   0  0  0  0  0  0  0  0  0  0  0  0
  142.9545  135.7882  153.2739 C   0  0  0  0  0  0  0  0  0  0  0  0
  143.5289  136.4330  151.9998 C   0  0  1  0  0  0  0  0  0  0  0  0
  144.3337  137.6061  152.3280 N   0  0  0  0  0  0  0  0  0  0  0  0
  145.5734  137.5740  152.8374 C   0  0  0  0  0  0  0  0  0  0  0  0
  146.1760  136.5307  153.0886 O   0  0  0  0  0  0  0  0  0  0  0  0
  146.0437  138.8151  153.0481 N   0  0  0  0  0  0  0  0  0  0  0  0
  147.3118  139.2026  153.5573 C   0  0  0  0  0  0  0  0  0  0  0  0
  147.5967  140.5799  153.6471 C   0  0  0  0  0  0  0  0  0  0  0  0
  148.8525  140.9921  154.1309 C   0  0  0  0  0  0  0  0  0  0  0  0
  149.7916  140.0077  154.5013 C   0  0  0  0  0  0  0  0  0  0  0  0
  151.0449  140.4064  154.9864 N   0  0  0  0  0  0  0  0  0  0  0  0
  150.9521  141.3933  156.0519 C   0  0  0  0  0  0  0  0  0  0  0  0
  151.9426  139.2877  155.2318 C   0  0  0  0  0  0  0  0  0  0  0  0
  149.5348  138.6819  154.4034 N   0  0  0  0  0  0  0  0  0  0  0  0
  148.3274  138.2930  153.9408 C   0  0  0  0  0  0  0  0  0  0  0  0
  144.3850  135.4171  151.2196 C   0  0  0  0  0  0  0  0  0  0  0  0
  146.1510  132.0163  150.0573 H   0  0  0  0  0  0  0  0  0  0  0  0
  145.2934  132.0082  151.5866 H   0  0  0  0  0  0  0  0  0  0  0  0
  146.2396  133.4199  151.1143 H   0  0  0  0  0  0  0  0  0  0  0  0
  144.7136  133.7577  149.1427 H   0  0  0  0  0  0  0  0  0  0  0  0
  143.6881  132.4495  149.6784 H   0  0  0  0  0  0  0  0  0  0  0  0
  142.4744  132.6702  151.8331 H   0  0  0  0  0  0  0  0  0  0  0  0
  143.8920  133.1840  152.7271 H   0  0  0  0  0  0  0  0  0  0  0  0
  141.2989  134.7703  152.3321 H   0  0  0  0  0  0  0  0  0  0  0  0
  141.8275  134.0246  153.8218 H   0  0  0  0  0  0  0  0  0  0  0  0
  142.2940  136.4842  153.7926 H   0  0  0  0  0  0  0  0  0  0  0  0
  143.7610  135.5463  153.9678 H   0  0  0  0  0  0  0  0  0  0  0  0
  142.7029  136.7428  151.3561 H   0  0  0  0  0  0  0  0  0  0  0  0
  143.9163  138.5093  152.1571 H   0  0  0  0  0  0  0  0  0  0  0  0
  145.3981  139.5715  152.8750 H   0  0  0  0  0  0  0  0  0  0  0  0
  146.8620  141.3154  153.3531 H   0  0  0  0  0  0  0  0  0  0  0  0
  149.0887  142.0428  154.2140 H   0  0  0  0  0  0  0  0  0  0  0  0
  150.2753  142.2024  155.7738 H   0  0  0  0  0  0  0  0  0  0  0  0
  151.9325  141.8274  156.2496 H   0  0  0  0  0  0  0  0  0  0  0  0
  150.5874  140.9389  156.9740 H   0  0  0  0  0  0  0  0  0  0  0  0
  151.9584  138.6079  154.3790 H   0  0  0  0  0  0  0  0  0  0  0  0
  151.6355  138.7269  156.1153 H   0  0  0  0  0  0  0  0  0  0  0  0
  152.9587  139.6487  155.3931 H   0  0  0  0  0  0  0  0  0  0  0  0
  148.1974  137.2250  153.8624 H   0  0  0  0  0  0  0  0  0  0  0  0
  145.2663  135.1386  151.8000 H   0  0  0  0  0  0  0  0  0  0  0  0
  144.7457  135.8898  150.3065 H   0  0  0  0  0  0  0  0  0  0  0  0
  142.8044  134.4911  150.3496 H   0  0  0  0  0  0  0  0  0  0  0  0
  1  2  1  0  0  0  0
  1 22  1  0  0  0  0
  1 23  1  0  0  0  0
  1 24  1  0  0  0  0
  2  3  1  0  0  0  0
  2 25  1  0  0  0  0
  2 26  1  0  0  0  0
  3 21  1  0  0  0  0
  3  4  1  0  0  0  0
  3 47  1  0  0  0  0
  4  5  1  0  0  0  0
  4 27  1  0  0  0  0
  4 28  1  0  0  0  0
  5  6  1  0  0  0  0
  5 29  1  0  0  0  0
  5 30  1  0  0  0  0
  6  7  1  0  0  0  0
  6 31  1  0  0  0  0
  6 32  1  0  0  0  0
  7  8  1  0  0  0  0
  7 21  1  0  0  0  0
  7 33  1  0  0  0  0
  8  9  1  0  0  0  0
  8 34  1  0  0  0  0
  9 10  2  0  0  0  0
  9 11  1  0  0  0  0
 11 12  1  0  0  0  0
 11 35  1  0  0  0  0
 12 20  1  0  0  0  0
 12 13  2  0  0  0  0
 13 14  1  0  0  0  0
 13 36  1  0  0  0  0
 14 15  2  0  0  0  0
 14 37  1  0  0  0  0
 15 16  1  0  0  0  0
 15 19  1  0  0  0  0
 16 17  1  0  0  0  0
 16 18  1  0  0  0  0
 17 38  1  0  0  0  0
 17 39  1  0  0  0  0
 17 40  1  0  0  0  0
 18 41  1  0  0  0  0
 18 42  1  0  0  0  0
 18 43  1  0  0  0  0
 19 20  2  0  0  0  0
 20 44  1  0  0  0  0
 21 45  1  0  0  0  0
 21 46  1  0  0  0  0
M  CHG  1   3   1
M  END
> <s_m_source_file>
AV-unprocessed.smi

> <i_m_source_file_index>
1093

> <i_lp_mmshare_version>
43012

> <i_f3d_flags>
0

> <s_epik_input>
W0NIM11bQ0gyXU4xW0NIMl1bQ0gyXVtDSDJdW0NASF0oW0NIMl0xKVtOSF1DKD1PKVtOSF1jMltjSF1bY0hdYyhOKFtDSDNdKVtDSDNdKW5bY0hdMg==

> <s_epik_cmdline>
J2VwaWtfcHl0aG9uJywgJy1waCcsICc3LjAnLCAnLXRuJywgJzgnLCAnLW1hJywgJzIwMCcsICctbWV0YWxfYmluZGluZycsICctaW1hZScsICc8aW5maWxlLm1hZT4nLCAnLW9tYWUnLCAnPG91dGZpbGUubWFlPic=

> <r_lp_tautomer_probability>
1

> <r_epik_Ionization_Penalty>
0.489418

> <r_epik_Ionization_Penalty_Charging>
0.00268196

> <r_epik_Ionization_Penalty_Neutral>
0.486736

> <r_epik_State_Penalty>
0.491157

> <r_epik_Charging_Adjusted_Penalty>
0.493839

> <i_epik_Tot_Q>
1

> <i_epik_Tot_abs_Q>
1

> <r_epik_Metal_State_Penalty>
0.266953

> <b_epik_Metal_Only>
0

> <s_lp_Force_Field>
OPLS_2005

> <r_lp_Energy>
24.8298

> <b_lp_Chiralities_Consistent>
1

> <s_lp_Variant>
AV-unprocessed.smi:1093-5

> <Gold.Version>
5.8.1

> <Gold.Id.Protein>
6NUR|6NUR_protein|mol2

> <Gold.PLP.Fitness>
53.2717

> <Gold.PLP.PLP>
-37.0305

> <Gold.PLP.part.hbond>
-5.0000

> <Gold.PLP.part.metal>
0.0000

> <Gold.PLP.part.buried>
-0.5878

> <Gold.PLP.part.nonpolar>
-31.6716

> <Gold.PLP.part.repulsive>
1.0906

> <Gold.PLP.ligand.clash>
0.0000

> <Gold.PLP.ligand.torsion>
0.3031

> <Gold.PLP.Chemscore.Hbond>
4.8075

> <Gold.PLP.Chemscore.CHOScore>
0.7350

> <Gold.PLP.Chemscore.Metal>
0.0000

> <Gold.Chemscore.Hbonds>
donor molecule, donor type, donor heavy atom, donor atom, acceptor molecule, acceptor atom, score
      L1  H     3    47       P1 10186  2.00
      L1  H     8    34       P1 10175  1.00
      L1  H    11    35       P1 10175  1.00
      P1  H  7989  7998       L1    16  0.71
      L1  C    20    44       P1  7948  0.71

> <Gold.PLP.Chemscore.Internal.Correction>
0.2199

> <Gold.Rescore>
     Score         DG    S(hbond)    S(metal)    S(lipo)     H(rot)  DE(clash)    DE(int)     intcor
     14.15     -19.44       2.18        0.00      87.03       1.37       2.43       2.86       ----

> <Gold.Chemscore.Fitness>
14.1533

> <Gold.Chemscore.DG>
-19.4432

> <Gold.Chemscore.ZeroCoef>
-5.4800

> <Gold.Chemscore.Hbond>
2.1822

> <Gold.Chemscore.Metal>
0.0000

> <Gold.Chemscore.Lipo>
87.0331

> <Gold.Chemscore.Internal_Hbond>
0.0000

> <Gold.Chemscore.DEClash>
2.4266

> <Gold.Chemscore.DEInternal>
2.8633

> <Gold.Chemscore.Rot>
1.3704

> <Gold.Chemscore.Internal.Correction>
   9.000000E+99

> <Gold.Chemscore.Hbonds>
donor molecule, donor type, donor heavy atom, donor atom, acceptor molecule, acceptor atom, score
      L1  H     3    47       P1 10186  0.59
      L1  H     8    34       P1 10175  0.97
      L1  H    11    35       P1 10175  0.97
      P1  H  7989  7998       L1    16  0.02

> <Gold.Chemscore.Hbond.Weighted>
-7.2885

> <Gold.Chemscore.Metal.Weighted>
-0.0000

> <Gold.Chemscore.Lipo.Weighted>
-10.1829

> <Gold.Chemscore.Internal_Hbond.Weighted>
0.0000

> <Gold.Chemscore.DEClash.Weighted>
2.4266

> <Gold.Chemscore.DEInternal.Weighted>
2.8633

> <Gold.Chemscore.Rot.Weighted>
3.5082

> <Gold.Chemscore.Internal.Correction.Weighted>
   9.000000E+99

> <Gold.Protein.RotatedTorsions>
[ 6907 6896 6895 6894 ] final  134.71 input  -60.11 | X-H torsion
[ 7974 7965 7964 7962 ] final   90.54 input  175.53 | X-H torsion
[ 8008 7997 7996 7995 ] final  138.26 input   59.86 | X-H torsion
[ 10167 10162 10161 10158 ] final  -49.47 input  -65.29 | X-H torsion
[ 10718 10713 10712 10709 ] final -165.95 input   66.30 | X-H torsion
[ 10763 10752 10751 10750 ] final  155.84 input  -60.55 | X-H torsion
[ 11005 11000 10999 10996 ] final  -75.85 input  -57.11 | X-H torsion

> <Gold.Protein.ActiveResidues>
 VAL166  LYS551  ARG553  GLY616  TRP617  ASP618  TYR619  PRO620  LYS621  CYS622 
 ASP623  PHE694  ASN695  SER759  ASP760  ASP761  ALA762  ILE779  LEU786  VAL792 
 PHE793  MET794  SER795  GLU796  ALA797  LYS798  CYS799  TRP800  GLU811  SER814 

> <Gold.Protein.RotatedAtoms>
  152.3084  133.5727  159.5664 H   0  0  0  0  0  0  0  0  0  0  0  0  # atno 6907 bound_to 6896
  150.7311  134.0189  159.3703 H   0  0  0  0  0  0  0  0  0  0  0  0  # atno 6908 bound_to 6896
  151.8083  135.0689  160.0460 H   0  0  0  0  0  0  0  0  0  0  0  0  # atno 6909 bound_to 6896
  145.5177  139.2278  143.2689 H   0  0  0  0  0  0  0  0  0  0  0  0  # atno 7974 bound_to 7965
  156.2998  140.2398  156.4044 H   0  0  0  0  0  0  0  0  0  0  0  0  # atno 8008 bound_to 7997
  154.8498  140.0424  157.1616 H   0  0  0  0  0  0  0  0  0  0  0  0  # atno 8009 bound_to 7997
  154.9011  140.2977  155.5321 H   0  0  0  0  0  0  0  0  0  0  0  0  # atno 8010 bound_to 7997
  140.6683  143.2696  151.4220 H   0  0  0  0  0  0  0  0  0  0  0  0  # atno 10167 bound_to 10162
  156.6608  130.9045  151.3029 H   0  0  0  0  0  0  0  0  0  0  0  0  # atno 10718 bound_to 10713
  154.1748  135.2802  155.3070 H   0  0  0  0  0  0  0  0  0  0  0  0  # atno 10763 bound_to 10752
  154.6048  135.5518  153.7414 H   0  0  0  0  0  0  0  0  0  0  0  0  # atno 10764 bound_to 10752
  153.0154  135.6400  154.1888 H   0  0  0  0  0  0  0  0  0  0  0  0  # atno 10765 bound_to 10752
  141.1649  133.6962  156.7580 H   0  0  0  0  0  0  0  0  0  0  0  0  # atno 11005 bound_to 11000
  146.2126  140.5987  142.9053 LP  0  0  0  0  0  0  0  0  0  0  0  0  # atno 17320 bound_to 7965
  144.7693  140.5601  143.6681 LP  0  0  0  0  0  0  0  0  0  0  0  0  # atno 17321 bound_to 7965
  139.5941  144.1436  152.2123 LP  0  0  0  0  0  0  0  0  0  0  0  0  # atno 17342 bound_to 10162
  140.0799  144.5709  150.7129 LP  0  0  0  0  0  0  0  0  0  0  0  0  # atno 17343 bound_to 10162
  157.7110  130.9440  150.1090 LP  0  0  0  0  0  0  0  0  0  0  0  0  # atno 17370 bound_to 10713
  156.2012  130.3660  149.8785 LP  0  0  0  0  0  0  0  0  0  0  0  0  # atno 17371 bound_to 10713
  140.2555  134.8507  157.3709 LP  0  0  0  0  0  0  0  0  0  0  0  0  # atno 17394 bound_to 11000
  140.1661  134.4667  155.7862 LP  0  0  0  0  0  0  0  0  0  0  0  0  # atno 17395 bound_to 11000

$$$$
