AV-unprocessed.smi:2916|AV-procd|sdf|11188|dock7
  -GOLD-   2272016 83D 1   1.00000     0.00000
 Structure written by MMmdl.
 38 39  0  0  0  0  0  0  0  0  2 V2000
  149.6192  138.9348  154.8208 N   0  0  0  0  0  0  0  0  0  0  0  0
  150.1886  140.0987  155.1523 C   0  0  0  0  0  0  0  0  0  0  0  0
  151.4113  140.2276  155.1487 O   0  0  0  0  0  0  0  0  0  0  0  0
  149.2578  141.2925  155.4959 C   0  0  0  0  0  0  0  0  0  0  0  0
  150.1160  142.4595  155.8397 N   0  3  0  0  0  0  0  0  0  0  0  0
  150.8221  142.4510  157.1452 C   0  0  0  0  0  0  0  0  0  0  0  0
  151.6801  143.7164  157.3156 C   0  0  0  0  0  0  0  0  0  0  0  0
  151.8751  144.0816  158.7085 N   0  0  0  0  0  0  0  0  0  0  0  0
  152.2522  143.2727  159.7599 C   0  0  0  0  0  0  0  0  0  0  0  0
  152.2890  144.0524  160.8801 C   0  0  0  0  0  0  0  0  0  0  0  0
  151.8997  145.3380  160.4110 C   0  0  0  0  0  0  0  0  0  0  0  0
  151.6484  145.3506  159.1121 N   0  0  0  0  0  0  0  0  0  0  0  0
  148.3986  141.7012  154.2651 C   0  0  0  0  0  0  0  0  0  0  0  0
  147.3362  140.6560  153.8794 C   0  0  0  0  0  0  0  0  0  0  0  0
  146.3964  140.3745  155.0585 C   0  0  0  0  0  0  0  0  0  0  0  0
  147.1871  139.9410  156.2997 C   0  0  0  0  0  0  0  0  0  0  0  0
  148.2778  140.9686  156.6660 C   0  0  0  0  0  0  0  0  0  0  0  0
  150.2034  138.1360  154.6172 H   0  0  0  0  0  0  0  0  0  0  0  0
  148.6138  138.8450  154.7975 H   0  0  0  0  0  0  0  0  0  0  0  0
  150.8089  142.5568  155.1118 H   0  0  0  0  0  0  0  0  0  0  0  0
  150.1086  142.3859  157.9660 H   0  0  0  0  0  0  0  0  0  0  0  0
  151.4667  141.5750  157.2176 H   0  0  0  0  0  0  0  0  0  0  0  0
  152.6612  143.5671  156.8631 H   0  0  0  0  0  0  0  0  0  0  0  0
  151.2190  144.5564  156.7945 H   0  0  0  0  0  0  0  0  0  0  0  0
  152.4632  142.2219  159.6259 H   0  0  0  0  0  0  0  0  0  0  0  0
  152.5490  143.7494  161.8836 H   0  0  0  0  0  0  0  0  0  0  0  0
  151.7916  146.2548  160.9715 H   0  0  0  0  0  0  0  0  0  0  0  0
  147.8874  142.6403  154.4839 H   0  0  0  0  0  0  0  0  0  0  0  0
  149.0260  141.9159  153.3990 H   0  0  0  0  0  0  0  0  0  0  0  0
  146.7580  141.0153  153.0276 H   0  0  0  0  0  0  0  0  0  0  0  0
  147.8135  139.7305  153.5555 H   0  0  0  0  0  0  0  0  0  0  0  0
  145.8189  141.2712  155.2878 H   0  0  0  0  0  0  0  0  0  0  0  0
  145.6750  139.6032  154.7865 H   0  0  0  0  0  0  0  0  0  0  0  0
  146.5060  139.8133  157.1415 H   0  0  0  0  0  0  0  0  0  0  0  0
  147.6323  138.9619  156.1231 H   0  0  0  0  0  0  0  0  0  0  0  0
  148.8152  140.5974  157.5392 H   0  0  0  0  0  0  0  0  0  0  0  0
  147.7898  141.8894  156.9897 H   0  0  0  0  0  0  0  0  0  0  0  0
  149.5279  143.2809  155.8272 H   0  0  0  0  0  0  0  0  0  0  0  0
  1  2  1  0  0  0  0
  1 18  1  0  0  0  0
  1 19  1  0  0  0  0
  2  3  2  0  0  0  0
  2  4  1  0  0  0  0
  4 17  1  0  0  0  0
  4  5  1  0  0  0  0
  4 13  1  0  0  0  0
  5  6  1  0  0  0  0
  5 20  1  0  0  0  0
  5 38  1  0  0  0  0
  6  7  1  0  0  0  0
  6 21  1  0  0  0  0
  6 22  1  0  0  0  0
  7  8  1  0  0  0  0
  7 23  1  0  0  0  0
  7 24  1  0  0  0  0
  8 12  1  0  0  0  0
  8  9  1  0  0  0  0
  9 10  2  0  0  0  0
  9 25  1  0  0  0  0
 10 11  1  0  0  0  0
 10 26  1  0  0  0  0
 11 12  2  0  0  0  0
 11 27  1  0  0  0  0
 13 14  1  0  0  0  0
 13 28  1  0  0  0  0
 13 29  1  0  0  0  0
 14 15  1  0  0  0  0
 14 30  1  0  0  0  0
 14 31  1  0  0  0  0
 15 16  1  0  0  0  0
 15 32  1  0  0  0  0
 15 33  1  0  0  0  0
 16 17  1  0  0  0  0
 16 34  1  0  0  0  0
 16 35  1  0  0  0  0
 17 36  1  0  0  0  0
 17 37  1  0  0  0  0
M  CHG  1   5   1
M  END
> <s_m_source_file>
AV-unprocessed.smi

> <i_m_source_file_index>
2916

> <i_lp_mmshare_version>
43012

> <i_f3d_flags>
0

> <s_epik_input>
W0NIMl0xW0NIMl1bQ0gyXVtDSDJdW0NIMl1DMShDKD1PKVtOSDJdKVtOSF1bQ0gyXVtDSDJdbjJbY0hdW2NIXVtjSF1uMg==

> <s_epik_cmdline>
J2VwaWtfcHl0aG9uJywgJy1waCcsICc3LjAnLCAnLXRuJywgJzgnLCAnLW1hJywgJzIwMCcsICctbWV0YWxfYmluZGluZycsICctaW1hZScsICc8aW5maWxlLm1hZT4nLCAnLW9tYWUnLCAnPG91dGZpbGUubWFlPic=

> <r_lp_tautomer_probability>
1

> <r_epik_Ionization_Penalty>
0.147888

> <r_epik_Ionization_Penalty_Charging>
0.147883

> <r_epik_Ionization_Penalty_Neutral>
4.65475e-06

> <r_epik_State_Penalty>
0.137176

> <r_epik_Charging_Adjusted_Penalty>
0.285059

> <i_epik_Tot_Q>
1

> <i_epik_Tot_abs_Q>
1

> <r_epik_Metal_State_Penalty>
0.137393

> <b_epik_Metal_Only>
0

> <s_lp_Force_Field>
OPLS_2005

> <r_lp_Energy>
14.4928

> <b_lp_Chiralities_Consistent>
1

> <s_lp_Variant>
AV-unprocessed.smi:2916-1

> <Gold.Version>
5.8.1

> <Gold.Id.Protein>
6NUR|6NUR_protein|mol2

> <Gold.PLP.Fitness>
44.3167

> <Gold.PLP.PLP>
-36.1336

> <Gold.PLP.part.hbond>
-2.3436

> <Gold.PLP.part.metal>
0.0000

> <Gold.PLP.part.buried>
-5.4842

> <Gold.PLP.part.nonpolar>
-29.8406

> <Gold.PLP.part.repulsive>
0.3548

> <Gold.PLP.ligand.clash>
0.0000

> <Gold.PLP.ligand.torsion>
0.4255

> <Gold.PLP.Chemscore.Hbond>
3.0000

> <Gold.PLP.Chemscore.CHOScore>
0.0000

> <Gold.PLP.Chemscore.Metal>
0.0000

> <Gold.Chemscore.Hbonds>
donor molecule, donor type, donor heavy atom, donor atom, acceptor molecule, acceptor atom, score
      L1  H     5    38       P1  8028  2.00
      P1  H  7989  7998       L1     3  1.00

> <Gold.PLP.Chemscore.Internal.Correction>
0.0340

> <Gold.Rescore>
     Score         DG    S(hbond)    S(metal)    S(lipo)     H(rot)  DE(clash)    DE(int)     intcor
     13.87     -15.90       1.90        0.00      84.20       2.26       0.12       1.91       ----

> <Gold.Chemscore.Fitness>
13.8690

> <Gold.Chemscore.DG>
-15.8963

> <Gold.Chemscore.ZeroCoef>
-5.4800

> <Gold.Chemscore.Hbond>
1.9029

> <Gold.Chemscore.Metal>
0.0000

> <Gold.Chemscore.Lipo>
84.1965

> <Gold.Chemscore.Internal_Hbond>
0.0000

> <Gold.Chemscore.DEClash>
0.1179

> <Gold.Chemscore.DEInternal>
1.9094

> <Gold.Chemscore.Rot>
2.2619

> <Gold.Chemscore.Internal.Correction>
   9.000000E+99

> <Gold.Chemscore.Hbonds>
donor molecule, donor type, donor heavy atom, donor atom, acceptor molecule, acceptor atom, score
      L1  H     5    38       P1  8028  0.98
      P1  H  7989  7998       L1     3  0.25

> <Gold.Chemscore.Hbond.Weighted>
-6.3557

> <Gold.Chemscore.Metal.Weighted>
-0.0000

> <Gold.Chemscore.Lipo.Weighted>
-9.8510

> <Gold.Chemscore.Internal_Hbond.Weighted>
0.0000

> <Gold.Chemscore.DEClash.Weighted>
0.1179

> <Gold.Chemscore.DEInternal.Weighted>
1.9094

> <Gold.Chemscore.Rot.Weighted>
5.7904

> <Gold.Chemscore.Internal.Correction.Weighted>
   9.000000E+99

> <Gold.Protein.RotatedTorsions>
[ 6907 6896 6895 6894 ] final    0.92 input  -60.11 | X-H torsion
[ 7974 7965 7964 7962 ] final  -35.73 input  175.53 | X-H torsion
[ 8008 7997 7996 7995 ] final  -75.21 input   59.86 | X-H torsion
[ 10167 10162 10161 10158 ] final  108.50 input  -65.29 | X-H torsion
[ 10718 10713 10712 10709 ] final   -1.42 input   66.30 | X-H torsion
[ 10763 10752 10751 10750 ] final   82.27 input  -60.55 | X-H torsion
[ 11005 11000 10999 10996 ] final -117.82 input  -57.11 | X-H torsion

> <Gold.Protein.ActiveResidues>
 VAL166  LYS551  ARG553  GLY616  TRP617  ASP618  TYR619  PRO620  LYS621  CYS622 
 ASP623  PHE694  ASN695  SER759  ASP760  ASP761  ALA762  ILE779  LEU786  VAL792 
 PHE793  MET794  SER795  GLU796  ALA797  LYS798  CYS799  TRP800  GLU811  SER814 

> <Gold.Protein.RotatedAtoms>
  151.5842  135.1057  160.0023 H   0  0  0  0  0  0  0  0  0  0  0  0  # atno 6907 bound_to 6896
  152.4339  133.7322  159.6604 H   0  0  0  0  0  0  0  0  0  0  0  0  # atno 6908 bound_to 6896
  150.8234  133.8143  159.3152 H   0  0  0  0  0  0  0  0  0  0  0  0  # atno 6909 bound_to 6896
  146.0721  140.6194  142.8947 H   0  0  0  0  0  0  0  0  0  0  0  0  # atno 7974 bound_to 7965
  154.5397  140.0748  156.8489 H   0  0  0  0  0  0  0  0  0  0  0  0  # atno 8008 bound_to 7997
  155.3205  140.3396  155.4223 H   0  0  0  0  0  0  0  0  0  0  0  0  # atno 8009 bound_to 7997
  156.1863  140.1670  156.8166 H   0  0  0  0  0  0  0  0  0  0  0  0  # atno 8010 bound_to 7997
  139.6841  144.7115  151.1463 H   0  0  0  0  0  0  0  0  0  0  0  0  # atno 10167 bound_to 10162
  156.8058  130.5408  149.5715 H   0  0  0  0  0  0  0  0  0  0  0  0  # atno 10718 bound_to 10713
  153.1188  135.4734  154.9161 H   0  0  0  0  0  0  0  0  0  0  0  0  # atno 10763 bound_to 10752
  154.7555  135.3117  154.8480 H   0  0  0  0  0  0  0  0  0  0  0  0  # atno 10764 bound_to 10752
  153.9049  135.6871  153.4807 H   0  0  0  0  0  0  0  0  0  0  0  0  # atno 10765 bound_to 10752
  141.0329  133.9954  157.3116 H   0  0  0  0  0  0  0  0  0  0  0  0  # atno 11005 bound_to 11000
  144.7238  140.4460  143.6988 LP  0  0  0  0  0  0  0  0  0  0  0  0  # atno 17320 bound_to 7965
  145.6372  139.1544  143.2936 LP  0  0  0  0  0  0  0  0  0  0  0  0  # atno 17321 bound_to 7965
  140.7662  143.5655  150.9052 LP  0  0  0  0  0  0  0  0  0  0  0  0  # atno 17342 bound_to 10162
  139.9329  143.6472  152.3072 LP  0  0  0  0  0  0  0  0  0  0  0  0  # atno 17343 bound_to 10162
  156.1073  130.6014  150.9992 LP  0  0  0  0  0  0  0  0  0  0  0  0  # atno 17370 bound_to 10713
  157.6530  131.0894  150.8008 LP  0  0  0  0  0  0  0  0  0  0  0  0  # atno 17371 bound_to 10713
  139.9220  135.0201  156.8099 LP  0  0  0  0  0  0  0  0  0  0  0  0  # atno 17394 bound_to 11000
  140.6375  133.9849  155.7691 LP  0  0  0  0  0  0  0  0  0  0  0  0  # atno 17395 bound_to 11000

$$$$
