AV-unprocessed.smi:756|AV-procd|sdf|3612|dock4
  -GOLD-   22720 1 13D 1   1.00000     0.00000
 Structure written by MMmdl.
 42 43  0  0  0  0  0  0  0  0  1 V2000
  151.1981  144.8146  159.1076 C   0  0  0  0  0  0  0  0  0  0  0  0
  152.0240  143.5886  159.4552 C   0  0  0  0  0  0  0  0  0  0  0  0
  152.6611  143.3814  160.6124 C   0  0  0  0  0  0  0  0  0  0  0  0
  153.4810  141.8401  160.6659 S   0  0  0  0  0  0  0  0  0  0  0  0
  152.9052  141.4662  159.0017 C   0  0  0  0  0  0  0  0  0  0  0  0
  153.1760  140.4156  158.4223 O   0  0  0  0  0  0  0  0  0  0  0  0
  152.1455  142.5384  158.5343 N   0  0  0  0  0  0  0  0  0  0  0  0
  151.5365  142.5548  157.1975 C   0  0  0  0  0  0  0  0  0  0  0  0
  150.2086  141.7889  157.1291 C   0  0  0  0  0  0  0  0  0  0  0  0
  149.5953  141.4862  158.1536 O   0  0  0  0  0  0  0  0  0  0  0  0
  149.7660  141.4955  155.8990 N   0  0  0  0  0  0  0  0  0  0  0  0
  148.5277  140.7792  155.6139 C   0  0  0  0  0  0  0  0  0  0  0  0
  148.1259  140.8399  154.1179 C   0  0  1  0  0  0  0  0  0  0  0  0
  147.0878  141.9497  153.8390 C   0  0  0  0  0  0  0  0  0  0  0  0
  149.2959  141.1447  153.3803 O   0  0  0  0  0  0  0  0  0  0  0  0
  147.5900  139.4558  153.6489 C   0  0  0  0  0  0  0  0  0  0  0  0
  147.0827  139.3880  152.2013 C   0  0  0  0  0  0  0  0  0  0  0  0
  146.3055  138.0737  152.1371 C   0  0  0  0  0  0  0  0  0  0  0  0
  145.7036  137.8793  153.5344 C   0  0  0  0  0  0  0  0  0  0  0  0
  146.4232  138.8683  154.4641 C   0  0  0  0  0  0  0  0  0  0  0  0
  150.9812  145.3935  160.0060 H   0  0  0  0  0  0  0  0  0  0  0  0
  150.2441  144.5394  158.6572 H   0  0  0  0  0  0  0  0  0  0  0  0
  151.7430  145.4565  158.4151 H   0  0  0  0  0  0  0  0  0  0  0  0
  152.6890  144.0535  161.4575 H   0  0  0  0  0  0  0  0  0  0  0  0
  151.3802  143.5750  156.8483 H   0  0  0  0  0  0  0  0  0  0  0  0
  152.2318  142.1108  156.4827 H   0  0  0  0  0  0  0  0  0  0  0  0
  150.3268  141.7725  155.1064 H   0  0  0  0  0  0  0  0  0  0  0  0
  148.6323  139.7455  155.9478 H   0  0  0  0  0  0  0  0  0  0  0  0
  147.7340  141.2234  156.2173 H   0  0  0  0  0  0  0  0  0  0  0  0
  146.1711  141.7782  154.4039 H   0  0  0  0  0  0  0  0  0  0  0  0
  146.8196  141.9963  152.7836 H   0  0  0  0  0  0  0  0  0  0  0  0
  147.4597  142.9391  154.1068 H   0  0  0  0  0  0  0  0  0  0  0  0
  149.4666  140.4341  152.7812 H   0  0  0  0  0  0  0  0  0  0  0  0
  148.4134  138.7431  153.7236 H   0  0  0  0  0  0  0  0  0  0  0  0
  146.4091  140.2191  151.9889 H   0  0  0  0  0  0  0  0  0  0  0  0
  147.8899  139.4183  151.4689 H   0  0  0  0  0  0  0  0  0  0  0  0
  145.5476  138.0790  151.3533 H   0  0  0  0  0  0  0  0  0  0  0  0
  146.9946  137.2558  151.9217 H   0  0  0  0  0  0  0  0  0  0  0  0
  144.6322  138.0824  153.5266 H   0  0  0  0  0  0  0  0  0  0  0  0
  145.8365  136.8500  153.8693 H   0  0  0  0  0  0  0  0  0  0  0  0
  146.7694  138.3830  155.3771 H   0  0  0  0  0  0  0  0  0  0  0  0
  145.7225  139.6495  154.7601 H   0  0  0  0  0  0  0  0  0  0  0  0
  1  2  1  0  0  0  0
  1 21  1  0  0  0  0
  1 22  1  0  0  0  0
  1 23  1  0  0  0  0
  2  7  1  0  0  0  0
  2  3  2  0  0  0  0
  3  4  1  0  0  0  0
  3 24  1  0  0  0  0
  4  5  1  0  0  0  0
  5  6  2  0  0  0  0
  5  7  1  0  0  0  0
  7  8  1  0  0  0  0
  8  9  1  0  0  0  0
  8 25  1  0  0  0  0
  8 26  1  0  0  0  0
  9 10  2  0  0  0  0
  9 11  1  0  0  0  0
 11 12  1  0  0  0  0
 11 27  1  0  0  0  0
 12 13  1  0  0  0  0
 12 28  1  0  0  0  0
 12 29  1  0  0  0  0
 13 14  1  0  0  0  0
 13 15  1  0  0  0  0
 13 16  1  0  0  0  0
 14 30  1  0  0  0  0
 14 31  1  0  0  0  0
 14 32  1  0  0  0  0
 15 33  1  0  0  0  0
 16 20  1  0  0  0  0
 16 17  1  0  0  0  0
 16 34  1  0  0  0  0
 17 18  1  0  0  0  0
 17 35  1  0  0  0  0
 17 36  1  0  0  0  0
 18 19  1  0  0  0  0
 18 37  1  0  0  0  0
 18 38  1  0  0  0  0
 19 20  1  0  0  0  0
 19 39  1  0  0  0  0
 19 40  1  0  0  0  0
 20 41  1  0  0  0  0
 20 42  1  0  0  0  0
M  END
> <s_m_source_file>
AV-unprocessed.smi

> <i_m_source_file_index>
756

> <i_lp_mmshare_version>
43012

> <i_f3d_flags>
0

> <s_epik_input>
W0NIM11jMVtjSF1zYyg9TyluMVtDSDJdQyg9TylbTkhdW0NIMl1bQ0BAXShbQ0gzXSkoW09IXSlbQ0hdMltDSDJdW0NIMl1bQ0gyXVtDSDJdMg==

> <s_epik_cmdline>
J2VwaWtfcHl0aG9uJywgJy1waCcsICc3LjAnLCAnLXRuJywgJzgnLCAnLW1hJywgJzIwMCcsICctbWV0YWxfYmluZGluZycsICctaW1hZScsICc8aW5maWxlLm1hZT4nLCAnLW9tYWUnLCAnPG91dGZpbGUubWFlPic=

> <r_lp_tautomer_probability>
1

> <r_epik_Ionization_Penalty>
1.53576e-06

> <r_epik_Ionization_Penalty_Charging>
1.31044e-06

> <r_epik_Ionization_Penalty_Neutral>
2.25323e-07

> <r_epik_State_Penalty>
-0

> <r_epik_Charging_Adjusted_Penalty>
1.31044e-06

> <i_epik_Tot_Q>
0

> <i_epik_Tot_abs_Q>
0

> <r_epik_Metal_State_Penalty>
-0

> <b_epik_Metal_Only>
0

> <s_lp_Force_Field>
OPLS_2005

> <r_lp_Energy>
32.8559

> <b_lp_Chiralities_Consistent>
1

> <s_lp_Variant>
AV-unprocessed.smi:756-1

> <Gold.Version>
5.8.1

> <Gold.Id.Protein>
6NUR|6NUR_protein|mol2

> <Gold.PLP.Fitness>
46.6422

> <Gold.PLP.PLP>
-41.4122

> <Gold.PLP.part.hbond>
-3.8033

> <Gold.PLP.part.metal>
0.0000

> <Gold.PLP.part.buried>
-3.6526

> <Gold.PLP.part.nonpolar>
-34.1594

> <Gold.PLP.part.repulsive>
0.1489

> <Gold.PLP.ligand.clash>
0.0000

> <Gold.PLP.ligand.torsion>
1.4639

> <Gold.PLP.Chemscore.Hbond>
2.7039

> <Gold.PLP.Chemscore.CHOScore>
0.0000

> <Gold.PLP.Chemscore.Metal>
0.0000

> <Gold.Chemscore.Hbonds>
donor molecule, donor type, donor heavy atom, donor atom, acceptor molecule, acceptor atom, score
      L1  H    15    33       P1  7957  0.86
      P1  H  7997  8010       L1     6  0.83
      P1  H  8011  8017       L1    15  0.80

> <Gold.PLP.Chemscore.Internal.Correction>
0.0462

> <Gold.Rescore>
     Score         DG    S(hbond)    S(metal)    S(lipo)     H(rot)  DE(clash)    DE(int)     intcor
     14.28     -17.98       1.89        0.00     104.74       2.37       2.12       1.58       ----

> <Gold.Chemscore.Fitness>
14.2811

> <Gold.Chemscore.DG>
-17.9785

> <Gold.Chemscore.ZeroCoef>
-5.4800

> <Gold.Chemscore.Hbond>
1.8910

> <Gold.Chemscore.Metal>
0.0000

> <Gold.Chemscore.Lipo>
104.7372

> <Gold.Chemscore.Internal_Hbond>
0.0000

> <Gold.Chemscore.DEClash>
2.1224

> <Gold.Chemscore.DEInternal>
1.5751

> <Gold.Chemscore.Rot>
2.3717

> <Gold.Chemscore.Internal.Correction>
   9.000000E+99

> <Gold.Chemscore.Hbonds>
donor molecule, donor type, donor heavy atom, donor atom, acceptor molecule, acceptor atom, score
      L1  H    15    33       P1  7957  0.85
      P1  H  7997  8010       L1     6  0.78
      P1  H  8011  8017       L1    15  0.12

> <Gold.Chemscore.Hbond.Weighted>
-6.3158

> <Gold.Chemscore.Metal.Weighted>
-0.0000

> <Gold.Chemscore.Lipo.Weighted>
-12.2542

> <Gold.Chemscore.Internal_Hbond.Weighted>
0.0000

> <Gold.Chemscore.DEClash.Weighted>
2.1224

> <Gold.Chemscore.DEInternal.Weighted>
1.5751

> <Gold.Chemscore.Rot.Weighted>
6.0715

> <Gold.Chemscore.Internal.Correction.Weighted>
   9.000000E+99

> <Gold.Protein.RotatedTorsions>
[ 6907 6896 6895 6894 ] final  -98.41 input  -60.11 | X-H torsion
[ 7974 7965 7964 7962 ] final   42.76 input  175.53 | X-H torsion
[ 8008 7997 7996 7995 ] final   29.72 input   59.86 | X-H torsion
[ 10167 10162 10161 10158 ] final   -6.88 input  -65.29 | X-H torsion
[ 10718 10713 10712 10709 ] final  132.20 input   66.30 | X-H torsion
[ 10763 10752 10751 10750 ] final   78.33 input  -60.55 | X-H torsion
[ 11005 11000 10999 10996 ] final  -84.00 input  -57.11 | X-H torsion

> <Gold.Protein.ActiveResidues>
 VAL166  LYS551  ARG553  GLY616  TRP617  ASP618  TYR619  PRO620  LYS621  CYS622 
 ASP623  PHE694  ASN695  SER759  ASP760  ASP761  ALA762  ILE779  LEU786  VAL792 
 PHE793  MET794  SER795  GLU796  ALA797  LYS798  CYS799  TRP800  GLU811  SER814 

> <Gold.Protein.RotatedAtoms>
  150.7046  134.1198  159.4030 H   0  0  0  0  0  0  0  0  0  0  0  0  # atno 6907 bound_to 6896
  151.9185  135.0306  160.0529 H   0  0  0  0  0  0  0  0  0  0  0  0  # atno 6908 bound_to 6896
  152.2276  133.4997  159.5234 H   0  0  0  0  0  0  0  0  0  0  0  0  # atno 6909 bound_to 6896
  146.0713  139.5263  142.9596 H   0  0  0  0  0  0  0  0  0  0  0  0  # atno 7974 bound_to 7965
  155.0790  140.3208  155.4607 H   0  0  0  0  0  0  0  0  0  0  0  0  # atno 8008 bound_to 7997
  156.2772  140.2098  156.5863 H   0  0  0  0  0  0  0  0  0  0  0  0  # atno 8009 bound_to 7997
  154.6994  140.0508  157.0430 H   0  0  0  0  0  0  0  0  0  0  0  0  # atno 8010 bound_to 7997
  140.7011  143.6143  150.8673 H   0  0  0  0  0  0  0  0  0  0  0  0  # atno 10167 bound_to 10162
  157.4895  131.1090  150.9576 H   0  0  0  0  0  0  0  0  0  0  0  0  # atno 10718 bound_to 10713
  153.0866  135.4881  154.8608 H   0  0  0  0  0  0  0  0  0  0  0  0  # atno 10763 bound_to 10752
  154.7218  135.3041  154.9038 H   0  0  0  0  0  0  0  0  0  0  0  0  # atno 10764 bound_to 10752
  153.9700  135.6802  153.4800 H   0  0  0  0  0  0  0  0  0  0  0  0  # atno 10765 bound_to 10752
  141.1654  133.7323  156.8803 H   0  0  0  0  0  0  0  0  0  0  0  0  # atno 11005 bound_to 11000
  145.6387  141.0289  143.1824 LP  0  0  0  0  0  0  0  0  0  0  0  0  # atno 17320 bound_to 7965
  144.7233  139.7957  143.7374 LP  0  0  0  0  0  0  0  0  0  0  0  0  # atno 17321 bound_to 7965
  139.9865  143.5893  152.2925 LP  0  0  0  0  0  0  0  0  0  0  0  0  # atno 17342 bound_to 10162
  139.6533  144.7661  151.2105 LP  0  0  0  0  0  0  0  0  0  0  0  0  # atno 17343 bound_to 10162
  157.0282  130.5701  149.5340 LP  0  0  0  0  0  0  0  0  0  0  0  0  # atno 17370 bound_to 10713
  156.0165  130.5259  150.8150 LP  0  0  0  0  0  0  0  0  0  0  0  0  # atno 17371 bound_to 10713
  140.1720  134.9093  157.2844 LP  0  0  0  0  0  0  0  0  0  0  0  0  # atno 17394 bound_to 11000
  140.2492  134.3703  155.7449 LP  0  0  0  0  0  0  0  0  0  0  0  0  # atno 17395 bound_to 11000

$$$$
