AV-unprocessed.smi:1338|AV-procd|sdf|5500|dock10
  -GOLD-   22720 5 83D 1   1.00000     0.00000
 Structure written by MMmdl.
 40 41  0  0  0  0  0  0  0  0  1 V2000
  147.6586  135.9860  159.8610 C   0  0  0  0  0  0  0  0  0  0  0  0
  148.6811  136.8324  159.1343 C   0  0  0  0  0  0  0  0  0  0  0  0
  148.1229  137.7716  158.2830 N   0  0  0  0  0  0  0  0  0  0  0  0
  148.9805  138.5995  157.5804 C   0  0  0  0  0  0  0  0  0  0  0  0
  148.2868  139.6044  156.6769 C   0  0  0  0  0  0  0  0  0  0  0  0
  150.3271  138.4921  157.7139 C   0  0  0  0  0  0  0  0  0  0  0  0
  151.3070  139.3864  156.9567 C   0  0  0  0  0  0  0  0  0  0  0  0
  152.0841  140.3795  157.8226 C   0  0  0  0  0  0  0  0  0  0  0  0
  153.1184  140.0241  158.3871 O   0  0  0  0  0  0  0  0  0  0  0  0
  151.5815  141.6207  157.9121 N   0  0  0  0  0  0  0  0  0  0  0  0
  152.1778  142.7205  158.6642 C   0  0  0  0  0  0  0  0  0  0  0  0
  151.8665  142.5819  160.1688 C   0  0  0  0  0  0  0  0  0  0  0  0
  152.4218  143.7713  160.9690 C   0  0  0  0  0  0  0  0  0  0  0  0
  151.8992  145.1076  160.4183 C   0  0  0  0  0  0  0  0  0  0  0  0
  152.2123  145.2508  158.9206 C   0  0  0  0  0  0  0  0  0  0  0  0
  151.6556  144.0631  158.1186 C   0  0  0  0  0  0  0  0  0  0  0  0
  150.8655  137.4589  158.6306 C   0  0  0  0  0  0  0  0  0  0  0  0
  152.0758  137.2994  158.7825 O   0  0  0  0  0  0  0  0  0  0  0  0
  149.9521  136.6517  159.3278 N   0  0  0  0  0  0  0  0  0  0  0  0
  147.1277  137.8845  158.1538 H   0  0  0  0  0  0  0  0  0  0  0  0
  148.1402  135.3337  160.5905 H   0  0  0  0  0  0  0  0  0  0  0  0
  147.1119  135.3618  159.1537 H   0  0  0  0  0  0  0  0  0  0  0  0
  146.9453  136.6187  160.3901 H   0  0  0  0  0  0  0  0  0  0  0  0
  148.5455  140.6227  156.9678 H   0  0  0  0  0  0  0  0  0  0  0  0
  147.2015  139.5091  156.7289 H   0  0  0  0  0  0  0  0  0  0  0  0
  148.5850  139.4540  155.6391 H   0  0  0  0  0  0  0  0  0  0  0  0
  150.7930  139.9465  156.1750 H   0  0  0  0  0  0  0  0  0  0  0  0
  152.0106  138.7503  156.4184 H   0  0  0  0  0  0  0  0  0  0  0  0
  150.7259  141.8214  157.4151 H   0  0  0  0  0  0  0  0  0  0  0  0
  153.2606  142.7006  158.5258 H   0  0  0  0  0  0  0  0  0  0  0  0
  150.7877  142.5180  160.3189 H   0  0  0  0  0  0  0  0  0  0  0  0
  152.2872  141.6538  160.5574 H   0  0  0  0  0  0  0  0  0  0  0  0
  152.1508  143.6710  162.0204 H   0  0  0  0  0  0  0  0  0  0  0  0
  153.5116  143.7609  160.9284 H   0  0  0  0  0  0  0  0  0  0  0  0
  150.8215  145.1707  160.5744 H   0  0  0  0  0  0  0  0  0  0  0  0
  152.3414  145.9363  160.9719 H   0  0  0  0  0  0  0  0  0  0  0  0
  151.7948  146.1838  158.5412 H   0  0  0  0  0  0  0  0  0  0  0  0
  153.2918  145.3141  158.7774 H   0  0  0  0  0  0  0  0  0  0  0  0
  151.9273  144.1711  157.0677 H   0  0  0  0  0  0  0  0  0  0  0  0
  150.5655  144.0806  158.1593 H   0  0  0  0  0  0  0  0  0  0  0  0
  1 21  1  0  0  0  0
  1 22  1  0  0  0  0
  1 23  1  0  0  0  0
  1  2  1  0  0  0  0
  2  3  1  0  0  0  0
  2 19  2  0  0  0  0
  3  4  1  0  0  0  0
  3 20  1  0  0  0  0
  4  6  2  0  0  0  0
  4  5  1  0  0  0  0
  5 24  1  0  0  0  0
  5 25  1  0  0  0  0
  5 26  1  0  0  0  0
  6 17  1  0  0  0  0
  6  7  1  0  0  0  0
  7  8  1  0  0  0  0
  7 27  1  0  0  0  0
  7 28  1  0  0  0  0
  8  9  2  0  0  0  0
  8 10  1  0  0  0  0
 10 11  1  0  0  0  0
 10 29  1  0  0  0  0
 11 16  1  0  0  0  0
 11 12  1  0  0  0  0
 11 30  1  0  0  0  0
 12 13  1  0  0  0  0
 12 31  1  0  0  0  0
 12 32  1  0  0  0  0
 13 14  1  0  0  0  0
 13 33  1  0  0  0  0
 13 34  1  0  0  0  0
 14 15  1  0  0  0  0
 14 35  1  0  0  0  0
 14 36  1  0  0  0  0
 15 16  1  0  0  0  0
 15 37  1  0  0  0  0
 15 38  1  0  0  0  0
 16 39  1  0  0  0  0
 16 40  1  0  0  0  0
 17 18  2  0  0  0  0
 17 19  1  0  0  0  0
M  END
> <s_m_source_file>
AV-unprocessed.smi

> <i_m_source_file_index>
1338

> <i_lp_mmshare_version>
43012

> <i_f3d_flags>
0

> <s_epik_input>
W0NIM11jMW5jKFtDSDNdKWMoYyg9TylbbkhdMSlbQ0gyXUMoPU8pW05IXVtDSF0yW0NIMl1bQ0gyXVtDSDJdW0NIMl1bQ0gyXTI=

> <s_epik_cmdline>
J2VwaWtfcHl0aG9uJywgJy1waCcsICc3LjAnLCAnLXRuJywgJzgnLCAnLW1hJywgJzIwMCcsICctbWV0YWxfYmluZGluZycsICctaW1hZScsICc8aW5maWxlLm1hZT4nLCAnLW9tYWUnLCAnPG91dGZpbGUubWFlPic=

> <r_lp_tautomer_probability>
0.156392

> <r_epik_Ionization_Penalty>
0.0136832

> <r_epik_Ionization_Penalty_Charging>
0.0135532

> <r_epik_Ionization_Penalty_Neutral>
0.000130025

> <r_epik_State_Penalty>
1.15342

> <r_epik_Charging_Adjusted_Penalty>
1.16697

> <i_epik_Tot_Q>
0

> <i_epik_Tot_abs_Q>
0

> <r_epik_Metal_State_Penalty>
1.31441

> <b_epik_Metal_Only>
0

> <s_lp_Force_Field>
OPLS_2005

> <r_lp_Energy>
13.63

> <b_lp_Chiralities_Consistent>
1

> <s_lp_Variant>
AV-unprocessed.smi:1338-2

> <Gold.Version>
5.8.1

> <Gold.Id.Protein>
6NUR|6NUR_protein|mol2

> <Gold.PLP.Fitness>
39.6103

> <Gold.PLP.PLP>
-35.0136

> <Gold.PLP.part.hbond>
-2.0000

> <Gold.PLP.part.metal>
0.0000

> <Gold.PLP.part.buried>
-5.1563

> <Gold.PLP.part.nonpolar>
-27.6882

> <Gold.PLP.part.repulsive>
0.2046

> <Gold.PLP.ligand.clash>
0.0000

> <Gold.PLP.ligand.torsion>
0.7036

> <Gold.PLP.Chemscore.Hbond>
2.0000

> <Gold.PLP.Chemscore.CHOScore>
0.0000

> <Gold.PLP.Chemscore.Metal>
0.0000

> <Gold.Chemscore.Hbonds>
donor molecule, donor type, donor heavy atom, donor atom, acceptor molecule, acceptor atom, score
      P1  H  6896  6908       L1    19  1.00
      P1  H  7997  8010       L1     9  1.00

> <Gold.PLP.Chemscore.Internal.Correction>
0.0039

> <Gold.Rescore>
     Score         DG    S(hbond)    S(metal)    S(lipo)     H(rot)  DE(clash)    DE(int)     intcor
     17.34     -18.30       1.92        0.00      87.44       1.49       0.11       0.84       ----

> <Gold.Chemscore.Fitness>
17.3449

> <Gold.Chemscore.DG>
-18.2966

> <Gold.Chemscore.ZeroCoef>
-5.4800

> <Gold.Chemscore.Hbond>
1.9195

> <Gold.Chemscore.Metal>
0.0000

> <Gold.Chemscore.Lipo>
87.4422

> <Gold.Chemscore.Internal_Hbond>
0.0000

> <Gold.Chemscore.DEClash>
0.1144

> <Gold.Chemscore.DEInternal>
0.8372

> <Gold.Chemscore.Rot>
1.4942

> <Gold.Chemscore.Internal.Correction>
   9.000000E+99

> <Gold.Chemscore.Hbonds>
donor molecule, donor type, donor heavy atom, donor atom, acceptor molecule, acceptor atom, score
      P1  H  6896  6908       L1    19  0.58
      P1  H  7997  8010       L1     9  0.56

> <Gold.Chemscore.Hbond.Weighted>
-6.4111

> <Gold.Chemscore.Metal.Weighted>
-0.0000

> <Gold.Chemscore.Lipo.Weighted>
-10.2307

> <Gold.Chemscore.Internal_Hbond.Weighted>
0.0000

> <Gold.Chemscore.DEClash.Weighted>
0.1144

> <Gold.Chemscore.DEInternal.Weighted>
0.8372

> <Gold.Chemscore.Rot.Weighted>
3.8253

> <Gold.Chemscore.Internal.Correction.Weighted>
   9.000000E+99

> <Gold.Protein.RotatedTorsions>
[ 6907 6896 6895 6894 ] final -164.19 input  -60.11 | X-H torsion
[ 7974 7965 7964 7962 ] final  -68.95 input  175.53 | X-H torsion
[ 8008 7997 7996 7995 ] final   35.05 input   59.86 | X-H torsion
[ 10167 10162 10161 10158 ] final -132.33 input  -65.29 | X-H torsion
[ 10718 10713 10712 10709 ] final -113.34 input   66.30 | X-H torsion
[ 10763 10752 10751 10750 ] final  141.61 input  -60.55 | X-H torsion
[ 11005 11000 10999 10996 ] final    9.76 input  -57.11 | X-H torsion

> <Gold.Protein.ActiveResidues>
 VAL166  LYS551  ARG553  GLY616  TRP617  ASP618  TYR619  PRO620  LYS621  CYS622 
 ASP623  PHE694  ASN695  SER759  ASP760  ASP761  ALA762  ILE779  LEU786  VAL792 
 PHE793  MET794  SER795  GLU796  ALA797  LYS798  CYS799  TRP800  GLU811  SER814 

> <Gold.Protein.RotatedAtoms>
  151.4079  133.3736  159.2740 H   0  0  0  0  0  0  0  0  0  0  0  0  # atno 6907 bound_to 6896
  150.9384  134.8797  159.7607 H   0  0  0  0  0  0  0  0  0  0  0  0  # atno 6908 bound_to 6896
  152.5060  134.4028  159.9474 H   0  0  0  0  0  0  0  0  0  0  0  0  # atno 6909 bound_to 6896
  145.7100  140.9082  143.0686 H   0  0  0  0  0  0  0  0  0  0  0  0  # atno 7974 bound_to 7965
  155.1648  140.3286  155.4404 H   0  0  0  0  0  0  0  0  0  0  0  0  # atno 8008 bound_to 7997
  156.2530  140.1954  156.6704 H   0  0  0  0  0  0  0  0  0  0  0  0  # atno 8009 bound_to 7997
  154.6379  140.0574  156.9797 H   0  0  0  0  0  0  0  0  0  0  0  0  # atno 8010 bound_to 7997
  139.9097  143.6509  152.2578 H   0  0  0  0  0  0  0  0  0  0  0  0  # atno 10167 bound_to 10162
  156.0760  130.5968  150.8629 H   0  0  0  0  0  0  0  0  0  0  0  0  # atno 10718 bound_to 10713
  153.9420  135.2979  155.3442 H   0  0  0  0  0  0  0  0  0  0  0  0  # atno 10763 bound_to 10752
  154.7472  135.4997  153.9227 H   0  0  0  0  0  0  0  0  0  0  0  0  # atno 10764 bound_to 10752
  153.1037  135.6741  153.9732 H   0  0  0  0  0  0  0  0  0  0  0  0  # atno 10765 bound_to 10752
  140.5220  134.0549  155.7848 H   0  0  0  0  0  0  0  0  0  0  0  0  # atno 11005 bound_to 11000
  144.6944  139.9061  143.7461 LP  0  0  0  0  0  0  0  0  0  0  0  0  # atno 17320 bound_to 7965
  146.0721  139.3710  143.0516 LP  0  0  0  0  0  0  0  0  0  0  0  0  # atno 17321 bound_to 7965
  139.6953  144.7642  151.1366 LP  0  0  0  0  0  0  0  0  0  0  0  0  # atno 17342 bound_to 10162
  140.7688  143.5532  150.9181 LP  0  0  0  0  0  0  0  0  0  0  0  0  # atno 17343 bound_to 10162
  157.5856  131.0945  150.9201 LP  0  0  0  0  0  0  0  0  0  0  0  0  # atno 17370 bound_to 10713
  156.9388  130.5377  149.5280 LP  0  0  0  0  0  0  0  0  0  0  0  0  # atno 17371 bound_to 10713
  141.1329  133.9272  157.2498 LP  0  0  0  0  0  0  0  0  0  0  0  0  # atno 17394 bound_to 11000
  139.9600  135.0156  156.9235 LP  0  0  0  0  0  0  0  0  0  0  0  0  # atno 17395 bound_to 11000

$$$$
