AV-unprocessed.smi:167|AV-procd|sdf|1392|dock3
  -GOLD-   2262019133D 1   1.00000     0.00000
 Structure written by MMmdl.
 51 55  0  0  0  0  0  0  0  0  1 V2000
  154.0517  133.2786  158.9185 O   0  0  0  0  0  0  0  0  0  0  0  0
  154.2829  132.5189  157.7508 C   0  0  0  0  0  0  0  0  0  0  0  0
  153.1533  131.4925  157.5475 C   0  0  2  0  0  0  0  0  0  0  0  0
  153.2798  130.7163  156.2217 C   0  0  0  0  0  0  0  0  0  0  0  0
  151.9331  131.0253  155.5464 C   0  0  1  0  0  0  0  0  0  0  0  0
  150.8132  130.2465  156.2645 C   0  0  0  0  0  0  0  0  0  0  0  0
  150.6836  131.0458  157.5710 C   0  0  0  0  0  0  0  0  0  0  0  0
  151.7598  132.1343  157.3674 C   0  0  2  0  0  0  0  0  0  0  0  0
  151.7066  132.4077  155.9359 N   0  0  0  0  0  0  0  0  0  0  0  0
  150.6706  133.1238  155.4158 C   0  0  0  0  0  0  0  0  0  0  0  0
  150.5316  134.4239  155.7900 N   0  0  0  0  0  0  0  0  0  0  0  0
  149.5349  135.1696  155.3068 C   0  0  0  0  0  0  0  0  0  0  0  0
  148.5775  134.8237  154.4460 N   0  0  0  0  0  0  0  0  0  0  0  0
  148.7136  133.5255  154.0528 C   0  0  0  0  0  0  0  0  0  0  0  0
  149.7265  132.6152  154.4742 C   0  0  0  0  0  0  0  0  0  0  0  0
  149.5500  131.3967  153.8276 N   0  0  0  0  0  0  0  0  0  0  0  0
  148.4955  131.5730  153.0802 C   0  0  0  0  0  0  0  0  0  0  0  0
  147.9120  132.8148  153.1768 N   0  0  0  0  0  0  0  0  0  0  0  0
  146.7737  133.2914  152.4472 C   0  0  0  0  0  0  0  0  0  0  0  0
  145.5375  132.4081  152.2538 C   0  0  0  0  0  0  0  0  0  0  0  0
  145.2958  133.0685  150.8764 C   0  0  0  0  0  0  0  0  0  0  0  0
  144.8357  132.1549  149.7228 C   0  0  0  0  0  0  0  0  0  0  0  0
  143.5247  131.6608  149.9113 O   0  0  0  0  0  0  0  0  0  0  0  0
  144.3625  134.2942  150.8857 C   0  0  0  0  0  0  0  0  0  0  0  0
  143.1168  133.9942  151.4821 O   0  0  0  0  0  0  0  0  0  0  0  0
  146.8009  133.4205  150.9203 C   0  0  0  0  0  0  0  0  0  0  0  0
  154.6718  133.0106  159.5795 H   0  0  0  0  0  0  0  0  0  0  0  0
  154.3658  133.1885  156.8940 H   0  0  0  0  0  0  0  0  0  0  0  0
  155.2411  132.0095  157.8571 H   0  0  0  0  0  0  0  0  0  0  0  0
  153.1548  130.8004  158.3911 H   0  0  0  0  0  0  0  0  0  0  0  0
  154.1038  131.0960  155.6157 H   0  0  0  0  0  0  0  0  0  0  0  0
  153.4402  129.6480  156.3708 H   0  0  0  0  0  0  0  0  0  0  0  0
  151.9733  130.8340  154.4760 H   0  0  0  0  0  0  0  0  0  0  0  0
  149.8826  130.2836  155.6964 H   0  0  0  0  0  0  0  0  0  0  0  0
  151.0686  129.1991  156.4294 H   0  0  0  0  0  0  0  0  0  0  0  0
  149.6891  131.4859  157.6543 H   0  0  0  0  0  0  0  0  0  0  0  0
  150.8565  130.4384  158.4600 H   0  0  0  0  0  0  0  0  0  0  0  0
  151.6119  133.0037  158.0093 H   0  0  0  0  0  0  0  0  0  0  0  0
  149.4989  136.1890  155.6615 H   0  0  0  0  0  0  0  0  0  0  0  0
  148.1112  130.7931  152.4390 H   0  0  0  0  0  0  0  0  0  0  0  0
  146.4984  134.2407  152.9095 H   0  0  0  0  0  0  0  0  0  0  0  0
  145.7940  131.3491  152.1931 H   0  0  0  0  0  0  0  0  0  0  0  0
  144.7516  132.5714  152.9918 H   0  0  0  0  0  0  0  0  0  0  0  0
  144.8507  132.6856  148.7707 H   0  0  0  0  0  0  0  0  0  0  0  0
  145.5030  131.2991  149.6161 H   0  0  0  0  0  0  0  0  0  0  0  0
  142.9226  132.3886  149.8815 H   0  0  0  0  0  0  0  0  0  0  0  0
  144.8031  135.1257  151.4360 H   0  0  0  0  0  0  0  0  0  0  0  0
  144.1859  134.6600  149.8736 H   0  0  0  0  0  0  0  0  0  0  0  0
  142.4797  133.8639  150.7961 H   0  0  0  0  0  0  0  0  0  0  0  0
  147.0492  134.4188  150.5588 H   0  0  0  0  0  0  0  0  0  0  0  0
  147.4408  132.6707  150.4528 H   0  0  0  0  0  0  0  0  0  0  0  0
  1  2  1  0  0  0  0
  1 27  1  0  0  0  0
  2  3  1  0  0  0  0
  2 28  1  0  0  0  0
  2 29  1  0  0  0  0
  3  8  1  0  0  0  0
  3  4  1  0  0  0  0
  3 30  1  0  0  0  0
  4  5  1  0  0  0  0
  4 31  1  0  0  0  0
  4 32  1  0  0  0  0
  5  9  1  0  0  0  0
  5  6  1  0  0  0  0
  5 33  1  0  0  0  0
  6  7  1  0  0  0  0
  6 34  1  0  0  0  0
  6 35  1  0  0  0  0
  7  8  1  0  0  0  0
  7 36  1  0  0  0  0
  7 37  1  0  0  0  0
  8  9  1  0  0  0  0
  8 38  1  0  0  0  0
  9 10  1  0  0  0  0
 10 15  1  0  0  0  0
 10 11  2  0  0  0  0
 11 12  1  0  0  0  0
 12 13  2  0  0  0  0
 12 39  1  0  0  0  0
 13 14  1  0  0  0  0
 14 18  1  0  0  0  0
 14 15  2  0  0  0  0
 15 16  1  0  0  0  0
 16 17  2  0  0  0  0
 17 18  1  0  0  0  0
 17 40  1  0  0  0  0
 18 19  1  0  0  0  0
 19 26  1  0  0  0  0
 19 20  1  0  0  0  0
 19 41  1  0  0  0  0
 20 21  1  0  0  0  0
 20 42  1  0  0  0  0
 20 43  1  0  0  0  0
 21 22  1  0  0  0  0
 21 24  1  0  0  0  0
 21 26  1  0  0  0  0
 22 23  1  0  0  0  0
 22 44  1  0  0  0  0
 22 45  1  0  0  0  0
 23 46  1  0  0  0  0
 24 25  1  0  0  0  0
 24 47  1  0  0  0  0
 24 48  1  0  0  0  0
 25 49  1  0  0  0  0
 26 50  1  0  0  0  0
 26 51  1  0  0  0  0
M  END
> <s_m_source_file>
AV-unprocessed.smi

> <i_m_source_file_index>
167

> <i_lp_mmshare_version>
43012

> <i_f3d_flags>
0

> <s_epik_input>
W09IXVtDSDJdW0NASF0oW0NIMl1bQ0BASF0xMilbQ0BIXShbQ0gyXVtDSDJdMSlOMmMobltjSF1uMyljKGMzNCluW2NIXW40W0NIXShbQ0gyXTUpW0NIMl1DNShbQ0gyXVtPSF0pW0NIMl1bT0hd

> <s_epik_cmdline>
J2VwaWtfcHl0aG9uJywgJy1waCcsICc3LjAnLCAnLXRuJywgJzgnLCAnLW1hJywgJzIwMCcsICctbWV0YWxfYmluZGluZycsICctaW1hZScsICc8aW5maWxlLm1hZT4nLCAnLW9tYWUnLCAnPG91dGZpbGUubWFlPic=

> <r_lp_tautomer_probability>
1

> <r_epik_Ionization_Penalty>
0.0047903

> <r_epik_Ionization_Penalty_Charging>
0

> <r_epik_Ionization_Penalty_Neutral>
0.0047903

> <r_epik_State_Penalty>
0.00341021

> <r_epik_Charging_Adjusted_Penalty>
0.00341021

> <i_epik_Tot_Q>
0

> <i_epik_Tot_abs_Q>
0

> <r_epik_Metal_State_Penalty>
-0

> <b_epik_Metal_Only>
0

> <s_lp_Force_Field>
OPLS_2005

> <r_lp_Energy>
90.0047

> <b_lp_Chiralities_Consistent>
1

> <s_lp_Variant>
AV-unprocessed.smi:167-1

> <Gold.Version>
5.8.1

> <Gold.Id.Protein>
6NUR|6NUR_protein|mol2

> <Gold.PLP.Fitness>
48.8688

> <Gold.PLP.PLP>
-39.1785

> <Gold.PLP.part.hbond>
-4.0000

> <Gold.PLP.part.metal>
0.0000

> <Gold.PLP.part.buried>
-5.0782

> <Gold.PLP.part.nonpolar>
-30.7061

> <Gold.PLP.part.repulsive>
1.5475

> <Gold.PLP.ligand.clash>
0.0000

> <Gold.PLP.ligand.torsion>
0.6356

> <Gold.PLP.Chemscore.Hbond>
3.0000

> <Gold.PLP.Chemscore.CHOScore>
0.4899

> <Gold.PLP.Chemscore.Metal>
0.0000

> <Gold.Chemscore.Hbonds>
donor molecule, donor type, donor heavy atom, donor atom, acceptor molecule, acceptor atom, score
      L1  H    25    49       P1 10186  1.00
      P1  H  6896  6907       L1     1  1.00
      P1  H 10785 10796       L1    23  0.98
      L1  C    17    40       P1 10747  0.67

> <Gold.PLP.Chemscore.Internal.Correction>
0.4919

> <Gold.Rescore>
     Score         DG    S(hbond)    S(metal)    S(lipo)     H(rot)  DE(clash)    DE(int)     intcor
      7.90     -11.54       2.38        0.00      75.68       4.20       1.57       2.06       ----

> <Gold.Chemscore.Fitness>
7.9010

> <Gold.Chemscore.DG>
-11.5360

> <Gold.Chemscore.ZeroCoef>
-5.4800

> <Gold.Chemscore.Hbond>
2.3842

> <Gold.Chemscore.Metal>
0.0000

> <Gold.Chemscore.Lipo>
75.6802

> <Gold.Chemscore.Internal_Hbond>
0.0000

> <Gold.Chemscore.DEClash>
1.5742

> <Gold.Chemscore.DEInternal>
2.0608

> <Gold.Chemscore.Rot>
4.2038

> <Gold.Chemscore.Internal.Correction>
   9.000000E+99

> <Gold.Chemscore.Hbonds>
donor molecule, donor type, donor heavy atom, donor atom, acceptor molecule, acceptor atom, score
      L1  H    25    49       P1 10186  0.70
      P1  H  6896  6907       L1     1  0.70
      P1  H 10785 10796       L1    23  0.67

> <Gold.Chemscore.Hbond.Weighted>
-7.9631

> <Gold.Chemscore.Metal.Weighted>
-0.0000

> <Gold.Chemscore.Lipo.Weighted>
-8.8546

> <Gold.Chemscore.Internal_Hbond.Weighted>
0.0000

> <Gold.Chemscore.DEClash.Weighted>
1.5742

> <Gold.Chemscore.DEInternal.Weighted>
2.0608

> <Gold.Chemscore.Rot.Weighted>
10.7617

> <Gold.Chemscore.Internal.Correction.Weighted>
   9.000000E+99

> <Gold.Protein.RotatedTorsions>
[ 6907 6896 6895 6894 ] final  108.94 input  -60.11 | X-H torsion
[ 7974 7965 7964 7962 ] final  112.29 input  175.53 | X-H torsion
[ 8008 7997 7996 7995 ] final  -69.12 input   59.86 | X-H torsion
[ 10167 10162 10161 10158 ] final  146.13 input  -65.29 | X-H torsion
[ 10718 10713 10712 10709 ] final -138.26 input   66.30 | X-H torsion
[ 10763 10752 10751 10750 ] final  -46.33 input  -60.55 | X-H torsion
[ 11005 11000 10999 10996 ] final  -32.41 input  -57.11 | X-H torsion

> <Gold.Protein.ActiveResidues>
 VAL166  LYS551  ARG553  GLY616  TRP617  ASP618  TYR619  PRO620  LYS621  CYS622 
 ASP623  PHE694  ASN695  SER759  ASP760  ASP761  ALA762  ILE779  LEU786  VAL792 
 PHE793  MET794  SER795  GLU796  ALA797  LYS798  CYS799  TRP800  GLU811  SER814 

> <Gold.Protein.RotatedAtoms>
  152.5090  133.9015  159.7443 H   0  0  0  0  0  0  0  0  0  0  0  0  # atno 6907 bound_to 6896
  150.9430  133.6626  159.2794 H   0  0  0  0  0  0  0  0  0  0  0  0  # atno 6908 bound_to 6896
  151.3931  135.0964  159.9585 H   0  0  0  0  0  0  0  0  0  0  0  0  # atno 6909 bound_to 6896
  145.2315  139.2818  143.4166 H   0  0  0  0  0  0  0  0  0  0  0  0  # atno 7974 bound_to 7965
  154.4916  140.0859  156.7606 H   0  0  0  0  0  0  0  0  0  0  0  0  # atno 8008 bound_to 7997
  155.4218  140.3446  155.4254 H   0  0  0  0  0  0  0  0  0  0  0  0  # atno 8009 bound_to 7997
  156.1337  140.1509  156.9015 H   0  0  0  0  0  0  0  0  0  0  0  0  # atno 8010 bound_to 7997
  139.4913  144.5851  151.6793 H   0  0  0  0  0  0  0  0  0  0  0  0  # atno 10167 bound_to 10162
  156.2973  130.7409  151.1451 H   0  0  0  0  0  0  0  0  0  0  0  0  # atno 10718 bound_to 10713
  154.0432  135.6641  153.4792 H   0  0  0  0  0  0  0  0  0  0  0  0  # atno 10763 bound_to 10752
  153.0493  135.5094  154.7822 H   0  0  0  0  0  0  0  0  0  0  0  0  # atno 10764 bound_to 10752
  154.6805  135.3044  154.9585 H   0  0  0  0  0  0  0  0  0  0  0  0  # atno 10765 bound_to 10752
  140.9550  133.7198  156.1279 H   0  0  0  0  0  0  0  0  0  0  0  0  # atno 11005 bound_to 11000
  146.3352  140.2651  142.8603 LP  0  0  0  0  0  0  0  0  0  0  0  0  # atno 17320 bound_to 7965
  144.9672  140.8334  143.5477 LP  0  0  0  0  0  0  0  0  0  0  0  0  # atno 17321 bound_to 7965
  140.5466  144.0493  150.6109 LP  0  0  0  0  0  0  0  0  0  0  0  0  # atno 17342 bound_to 10162
  140.3533  143.2950  152.0463 LP  0  0  0  0  0  0  0  0  0  0  0  0  # atno 17343 bound_to 10162
  157.7359  131.0568  150.5446 LP  0  0  0  0  0  0  0  0  0  0  0  0  # atno 17370 bound_to 10713
  156.5569  130.4245  149.6081 LP  0  0  0  0  0  0  0  0  0  0  0  0  # atno 17371 bound_to 10713
  140.7549  134.4003  157.5535 LP  0  0  0  0  0  0  0  0  0  0  0  0  # atno 17394 bound_to 11000
  139.8859  134.8924  156.2615 LP  0  0  0  0  0  0  0  0  0  0  0  0  # atno 17395 bound_to 11000

$$$$
