AV-unprocessed.smi:1717|AV-procd|sdf|6919|dock3
  -GOLD-   22720 8123D 1   1.00000     0.00000
 Structure written by MMmdl.
 41 42  0  0  0  0  0  0  0  0  2 V2000
  140.8156  138.3908  153.4734 C   0  0  0  0  0  0  0  0  0  0  0  0
  142.1133  138.0115  152.9354 N   0  0  0  0  0  0  0  0  0  0  0  0
  142.6536  136.7917  153.0629 C   0  0  0  0  0  0  0  0  0  0  0  0
  142.1008  135.8675  153.6605 O   0  0  0  0  0  0  0  0  0  0  0  0
  144.0362  136.5924  152.4338 C   0  0  0  0  0  0  0  0  0  0  0  0
  144.8760  137.8171  152.4814 N   0  3  2  0  0  0  0  0  0  0  0  0
  145.9567  137.8037  151.4628 C   0  0  0  0  0  0  0  0  0  0  0  0
  146.7164  139.1429  151.4371 C   0  0  0  0  0  0  0  0  0  0  0  0
  147.2745  139.5190  152.8207 C   0  0  2  0  0  0  0  0  0  0  0  0
  148.3975  138.6499  153.1722 N   0  0  0  0  0  0  0  0  0  0  0  0
  149.3240  138.9193  154.1034 C   0  0  0  0  0  0  0  0  0  0  0  0
  149.3211  139.9415  154.7886 O   0  0  0  0  0  0  0  0  0  0  0  0
  150.2345  137.9358  154.1850 N   0  0  0  0  0  0  0  0  0  0  0  0
  151.3532  137.8735  155.0530 C   0  0  0  0  0  0  0  0  0  0  0  0
  152.4402  138.7861  155.1921 C   0  0  0  0  0  0  0  0  0  0  0  0
  153.2959  138.3749  156.1170 N   0  0  0  0  0  0  0  0  0  0  0  0
  152.7694  137.2137  156.5669 N   0  0  0  0  0  0  0  0  0  0  0  0
  151.5887  136.8711  155.9460 C   0  0  0  0  0  0  0  0  0  0  0  0
  146.1459  139.4559  153.8695 C   0  0  0  0  0  0  0  0  0  0  0  0
  145.4078  138.1065  153.8399 C   0  0  0  0  0  0  0  0  0  0  0  0
  153.2232  136.6728  157.2895 H   0  0  0  0  0  0  0  0  0  0  0  0
  140.5991  139.4298  153.2252 H   0  0  0  0  0  0  0  0  0  0  0  0
  140.8004  138.2894  154.5594 H   0  0  0  0  0  0  0  0  0  0  0  0
  140.0234  137.7687  153.0545 H   0  0  0  0  0  0  0  0  0  0  0  0
  142.6306  138.7217  152.4372 H   0  0  0  0  0  0  0  0  0  0  0  0
  144.5597  135.7607  152.9084 H   0  0  0  0  0  0  0  0  0  0  0  0
  143.8658  136.3036  151.3959 H   0  0  0  0  0  0  0  0  0  0  0  0
  146.6420  136.9799  151.6684 H   0  0  0  0  0  0  0  0  0  0  0  0
  145.5295  137.6197  150.4763 H   0  0  0  0  0  0  0  0  0  0  0  0
  147.5209  139.1047  150.7014 H   0  0  0  0  0  0  0  0  0  0  0  0
  146.0377  139.9284  151.1017 H   0  0  0  0  0  0  0  0  0  0  0  0
  147.6486  140.5432  152.7672 H   0  0  0  0  0  0  0  0  0  0  0  0
  148.4871  137.7881  152.6544 H   0  0  0  0  0  0  0  0  0  0  0  0
  150.1160  137.1493  153.5636 H   0  0  0  0  0  0  0  0  0  0  0  0
  152.6412  139.7106  154.6713 H   0  0  0  0  0  0  0  0  0  0  0  0
  151.0393  135.9731  156.1880 H   0  0  0  0  0  0  0  0  0  0  0  0
  146.5364  139.6471  154.8696 H   0  0  0  0  0  0  0  0  0  0  0  0
  145.4301  140.2548  153.6710 H   0  0  0  0  0  0  0  0  0  0  0  0
  144.5935  138.1322  154.5645 H   0  0  0  0  0  0  0  0  0  0  0  0
  146.0771  137.3028  154.1509 H   0  0  0  0  0  0  0  0  0  0  0  0
  144.2642  138.5831  152.2360 H   0  0  0  0  0  0  0  0  0  0  0  0
  1  2  1  0  0  0  0
  1 22  1  0  0  0  0
  1 23  1  0  0  0  0
  1 24  1  0  0  0  0
  2  3  1  0  0  0  0
  2 25  1  0  0  0  0
  3  4  2  0  0  0  0
  3  5  1  0  0  0  0
  5  6  1  0  0  0  0
  5 26  1  0  0  0  0
  5 27  1  0  0  0  0
  6 20  1  0  0  0  0
  6  7  1  0  0  0  0
  6 41  1  0  0  0  0
  7  8  1  0  0  0  0
  7 28  1  0  0  0  0
  7 29  1  0  0  0  0
  8  9  1  0  0  0  0
  8 30  1  0  0  0  0
  8 31  1  0  0  0  0
  9 10  1  0  0  0  0
  9 19  1  0  0  0  0
  9 32  1  0  0  0  0
 10 11  1  0  0  0  0
 10 33  1  0  0  0  0
 11 12  2  0  0  0  0
 11 13  1  0  0  0  0
 13 14  1  0  0  0  0
 13 34  1  0  0  0  0
 14 18  2  0  0  0  0
 14 15  1  0  0  0  0
 15 16  2  0  0  0  0
 15 35  1  0  0  0  0
 16 17  1  0  0  0  0
 17 21  1  0  0  0  0
 17 18  1  0  0  0  0
 18 36  1  0  0  0  0
 19 20  1  0  0  0  0
 19 37  1  0  0  0  0
 19 38  1  0  0  0  0
 20 39  1  0  0  0  0
 20 40  1  0  0  0  0
M  CHG  1   6   1
M  END
> <s_m_source_file>
AV-unprocessed.smi

> <i_m_source_file_index>
1717

> <i_lp_mmshare_version>
43012

> <i_f3d_flags>
0

> <s_epik_input>
W0NIM11bTkhdQyg9TylbQ0gyXU4xW0NIMl1bQ0gyXVtDSF0oW0NIMl1bQ0gyXTEpW05IXUMoPU8pW05IXWMyW2NIXW5bbkhdW2NIXTI=

> <s_epik_cmdline>
J2VwaWtfcHl0aG9uJywgJy1waCcsICc3LjAnLCAnLXRuJywgJzgnLCAnLW1hJywgJzIwMCcsICctbWV0YWxfYmluZGluZycsICctaW1hZScsICc8aW5maWxlLm1hZT4nLCAnLW9tYWUnLCAnPG91dGZpbGUubWFlPic=

> <r_lp_tautomer_probability>
0.5

> <r_epik_Ionization_Penalty>
0.838906

> <r_epik_Ionization_Penalty_Charging>
0.838844

> <r_epik_Ionization_Penalty_Neutral>
6.24243e-05

> <r_epik_State_Penalty>
0.8734

> <r_epik_Charging_Adjusted_Penalty>
1.71224

> <i_epik_Tot_Q>
1

> <i_epik_Tot_abs_Q>
1

> <r_epik_Metal_State_Penalty>
0.877921

> <b_epik_Metal_Only>
0

> <s_lp_Force_Field>
OPLS_2005

> <r_lp_Energy>
16.7427

> <b_lp_Chiralities_Consistent>
1

> <s_lp_Variant>
AV-unprocessed.smi:1717-3

> <Gold.Version>
5.8.1

> <Gold.Id.Protein>
6NUR|6NUR_protein|mol2

> <Gold.PLP.Fitness>
43.0832

> <Gold.PLP.PLP>
-29.7095

> <Gold.PLP.part.hbond>
-6.7073

> <Gold.PLP.part.metal>
0.0000

> <Gold.PLP.part.buried>
3.6615

> <Gold.PLP.part.nonpolar>
-28.1255

> <Gold.PLP.part.repulsive>
0.5071

> <Gold.PLP.ligand.clash>
0.0000

> <Gold.PLP.ligand.torsion>
1.3010

> <Gold.PLP.Chemscore.Hbond>
5.3148

> <Gold.PLP.Chemscore.CHOScore>
0.0000

> <Gold.PLP.Chemscore.Metal>
0.0000

> <Gold.Chemscore.Hbonds>
donor molecule, donor type, donor heavy atom, donor atom, acceptor molecule, acceptor atom, score
      L1  H     2    25       P1 10175  0.99
      L1  H     6    41       P1 10175  2.00
      L1  H    10    33       P1  7948  1.00
      L1  H    13    34       P1  7948  0.53
      P1  H  7997  8010       L1    16  0.76

> <Gold.PLP.Chemscore.Internal.Correction>
0.0313

> <Gold.Rescore>
     Score         DG    S(hbond)    S(metal)    S(lipo)     H(rot)  DE(clash)    DE(int)     intcor
     17.49     -20.44       3.64        0.00      63.59       1.81       1.76       1.19       ----

> <Gold.Chemscore.Fitness>
17.4865

> <Gold.Chemscore.DG>
-20.4400

> <Gold.Chemscore.ZeroCoef>
-5.4800

> <Gold.Chemscore.Hbond>
3.6386

> <Gold.Chemscore.Metal>
0.0000

> <Gold.Chemscore.Lipo>
63.5860

> <Gold.Chemscore.Internal_Hbond>
0.0000

> <Gold.Chemscore.DEClash>
1.7620

> <Gold.Chemscore.DEInternal>
1.1916

> <Gold.Chemscore.Rot>
1.8096

> <Gold.Chemscore.Internal.Correction>
   9.000000E+99

> <Gold.Chemscore.Hbonds>
donor molecule, donor type, donor heavy atom, donor atom, acceptor molecule, acceptor atom, score
      L1  H     2    25       P1 10175  0.92
      L1  H     6    41       P1 10175  0.95
      L1  H    10    33       P1  7948  1.00
      L1  H    13    34       P1  7948  0.13
      P1  H  7997  8010       L1    16  0.36

> <Gold.Chemscore.Hbond.Weighted>
-12.1530

> <Gold.Chemscore.Metal.Weighted>
-0.0000

> <Gold.Chemscore.Lipo.Weighted>
-7.4396

> <Gold.Chemscore.Internal_Hbond.Weighted>
0.0000

> <Gold.Chemscore.DEClash.Weighted>
1.7620

> <Gold.Chemscore.DEInternal.Weighted>
1.1916

> <Gold.Chemscore.Rot.Weighted>
4.6325

> <Gold.Chemscore.Internal.Correction.Weighted>
   9.000000E+99

> <Gold.Protein.RotatedTorsions>
[ 6907 6896 6895 6894 ] final  -48.73 input  -60.11 | X-H torsion
[ 7974 7965 7964 7962 ] final -178.85 input  175.53 | X-H torsion
[ 8008 7997 7996 7995 ] final   61.28 input   59.86 | X-H torsion
[ 10167 10162 10161 10158 ] final  -74.45 input  -65.29 | X-H torsion
[ 10718 10713 10712 10709 ] final -177.84 input   66.30 | X-H torsion
[ 10763 10752 10751 10750 ] final  -85.70 input  -60.55 | X-H torsion
[ 11005 11000 10999 10996 ] final  127.44 input  -57.11 | X-H torsion

> <Gold.Protein.ActiveResidues>
 VAL166  LYS551  ARG553  GLY616  TRP617  ASP618  TYR619  PRO620  LYS621  CYS622 
 ASP623  PHE694  ASN695  SER759  ASP760  ASP761  ALA762  ILE779  LEU786  VAL792 
 PHE793  MET794  SER795  GLU796  ALA797  LYS798  CYS799  TRP800  GLU811  SER814 

> <Gold.Protein.RotatedAtoms>
  150.8876  134.8276  159.7270 H   0  0  0  0  0  0  0  0  0  0  0  0  # atno 6907 bound_to 6896
  152.4817  134.4698  159.9641 H   0  0  0  0  0  0  0  0  0  0  0  0  # atno 6908 bound_to 6896
  151.4764  133.3518  159.2867 H   0  0  0  0  0  0  0  0  0  0  0  0  # atno 6909 bound_to 6896
  144.7133  140.0806  143.6426 H   0  0  0  0  0  0  0  0  0  0  0  0  # atno 7974 bound_to 7965
  155.5959  140.3493  155.4579 H   0  0  0  0  0  0  0  0  0  0  0  0  # atno 8008 bound_to 7997
  156.0266  140.1265  157.0327 H   0  0  0  0  0  0  0  0  0  0  0  0  # atno 8009 bound_to 7997
  154.4335  140.1052  156.6025 H   0  0  0  0  0  0  0  0  0  0  0  0  # atno 8010 bound_to 7997
  140.5026  143.2358  151.7726 H   0  0  0  0  0  0  0  0  0  0  0  0  # atno 10167 bound_to 10162
  156.8355  130.9668  151.3103 H   0  0  0  0  0  0  0  0  0  0  0  0  # atno 10718 bound_to 10713
  154.6140  135.5476  153.7504 H   0  0  0  0  0  0  0  0  0  0  0  0  # atno 10763 bound_to 10752
  153.0208  135.6396  154.1536 H   0  0  0  0  0  0  0  0  0  0  0  0  # atno 10764 bound_to 10752
  154.1473  135.2905  155.3125 H   0  0  0  0  0  0  0  0  0  0  0  0  # atno 10765 bound_to 10752
  139.9508  134.9622  156.8855 H   0  0  0  0  0  0  0  0  0  0  0  0  # atno 11005 bound_to 11000
  145.9705  139.2866  143.1101 LP  0  0  0  0  0  0  0  0  0  0  0  0  # atno 17320 bound_to 7965
  145.9121  140.9173  143.0448 LP  0  0  0  0  0  0  0  0  0  0  0  0  # atno 17321 bound_to 7965
  139.4876  144.4501  151.9664 LP  0  0  0  0  0  0  0  0  0  0  0  0  # atno 17342 bound_to 10162
  140.3590  144.2996  150.5936 LP  0  0  0  0  0  0  0  0  0  0  0  0  # atno 17343 bound_to 10162
  157.6384  130.8785  149.9402 LP  0  0  0  0  0  0  0  0  0  0  0  0  # atno 17370 bound_to 10713
  156.0910  130.3663  150.0395 LP  0  0  0  0  0  0  0  0  0  0  0  0  # atno 17371 bound_to 10713
  140.5725  134.0430  155.7435 LP  0  0  0  0  0  0  0  0  0  0  0  0  # atno 17394 bound_to 11000
  141.1170  133.9524  157.2804 LP  0  0  0  0  0  0  0  0  0  0  0  0  # atno 17395 bound_to 11000

$$$$
