AV-unprocessed.smi:393|AV-procd|sdf|2484|dock1
  -GOLD-   2262022423D 1   1.00000     0.00000
 Structure written by MMmdl.
 43 44  0  0  0  0  0  0  0  0  1 V2000
  148.3940  132.9611  152.8466 C   0  0  0  0  0  0  0  0  0  0  0  0
  149.1930  132.9877  154.1541 C   0  0  0  0  0  0  0  0  0  0  0  0
  149.4560  134.4151  154.6546 C   0  0  0  0  0  0  0  0  0  0  0  0
  148.1577  135.1684  154.9926 C   0  0  0  0  0  0  0  0  0  0  0  0
  148.3973  136.6658  155.1966 C   0  0  0  0  0  0  0  0  0  0  0  0
  148.2456  137.1717  156.3086 O   0  0  0  0  0  0  0  0  0  0  0  0
  148.7804  137.3634  154.1164 N   0  0  0  0  0  0  0  0  0  0  0  0
  149.1129  138.7848  154.1149 C   0  0  0  0  0  0  0  0  0  0  0  0
  150.4577  139.1261  154.7457 C   0  0  0  0  0  0  0  0  0  0  0  0
  151.5997  138.3813  154.3930 C   0  0  0  0  0  0  0  0  0  0  0  0
  152.8311  138.7200  154.9827 C   0  0  0  0  0  0  0  0  0  0  0  0
  152.9734  139.7204  155.8766 N   0  0  0  0  0  0  0  0  0  0  0  0
  151.8804  140.4371  156.2377 C   0  0  0  0  0  0  0  0  0  0  0  0
  152.0438  141.4801  157.1753 N   0  0  0  0  0  0  0  0  0  0  0  0
  151.0348  142.5359  157.1375 C   0  0  0  0  0  0  0  0  0  0  0  0
  151.4970  143.7475  157.9651 C   0  0  0  0  0  0  0  0  0  0  0  0
  151.8141  143.3342  159.2900 O   0  0  0  0  0  0  0  0  0  0  0  0
  152.8776  142.3877  159.3080 C   0  0  0  0  0  0  0  0  0  0  0  0
  152.4631  141.1271  158.5305 C   0  0  0  0  0  0  0  0  0  0  0  0
  150.6030  140.1661  155.6917 C   0  0  0  0  0  0  0  0  0  0  0  0
  148.2132  131.9364  152.5216 H   0  0  0  0  0  0  0  0  0  0  0  0
  148.9302  133.4738  152.0478 H   0  0  0  0  0  0  0  0  0  0  0  0
  147.4256  133.4476  152.9670 H   0  0  0  0  0  0  0  0  0  0  0  0
  148.6518  132.4264  154.9165 H   0  0  0  0  0  0  0  0  0  0  0  0
  150.1423  132.4717  154.0063 H   0  0  0  0  0  0  0  0  0  0  0  0
  150.0997  134.3739  155.5346 H   0  0  0  0  0  0  0  0  0  0  0  0
  150.0100  134.9670  153.8933 H   0  0  0  0  0  0  0  0  0  0  0  0
  147.4259  135.0170  154.1975 H   0  0  0  0  0  0  0  0  0  0  0  0
  147.7165  134.7629  155.9036 H   0  0  0  0  0  0  0  0  0  0  0  0
  148.8781  136.8704  153.2408 H   0  0  0  0  0  0  0  0  0  0  0  0
  149.1250  139.1281  153.0804 H   0  0  0  0  0  0  0  0  0  0  0  0
  148.3218  139.3448  154.6166 H   0  0  0  0  0  0  0  0  0  0  0  0
  151.5379  137.5720  153.6801 H   0  0  0  0  0  0  0  0  0  0  0  0
  153.7273  138.1735  154.7291 H   0  0  0  0  0  0  0  0  0  0  0  0
  150.8262  142.8624  156.1199 H   0  0  0  0  0  0  0  0  0  0  0  0
  150.1011  142.1434  157.5421 H   0  0  0  0  0  0  0  0  0  0  0  0
  152.3630  144.2251  157.5043 H   0  0  0  0  0  0  0  0  0  0  0  0
  150.7062  144.4964  158.0069 H   0  0  0  0  0  0  0  0  0  0  0  0
  153.7791  142.8294  158.8802 H   0  0  0  0  0  0  0  0  0  0  0  0
  153.1084  142.1318  160.3420 H   0  0  0  0  0  0  0  0  0  0  0  0
  151.6415  140.6248  159.0434 H   0  0  0  0  0  0  0  0  0  0  0  0
  153.3027  140.4317  158.4975 H   0  0  0  0  0  0  0  0  0  0  0  0
  149.7490  140.7610  155.9782 H   0  0  0  0  0  0  0  0  0  0  0  0
  1  2  1  0  0  0  0
  1 21  1  0  0  0  0
  1 22  1  0  0  0  0
  1 23  1  0  0  0  0
  2  3  1  0  0  0  0
  2 24  1  0  0  0  0
  2 25  1  0  0  0  0
  3  4  1  0  0  0  0
  3 26  1  0  0  0  0
  3 27  1  0  0  0  0
  4  5  1  0  0  0  0
  4 28  1  0  0  0  0
  4 29  1  0  0  0  0
  5  6  2  0  0  0  0
  5  7  1  0  0  0  0
  7  8  1  0  0  0  0
  7 30  1  0  0  0  0
  8  9  1  0  0  0  0
  8 31  1  0  0  0  0
  8 32  1  0  0  0  0
  9 20  1  0  0  0  0
  9 10  2  0  0  0  0
 10 11  1  0  0  0  0
 10 33  1  0  0  0  0
 11 12  2  0  0  0  0
 11 34  1  0  0  0  0
 12 13  1  0  0  0  0
 13 14  1  0  0  0  0
 13 20  2  0  0  0  0
 14 19  1  0  0  0  0
 14 15  1  0  0  0  0
 15 16  1  0  0  0  0
 15 35  1  0  0  0  0
 15 36  1  0  0  0  0
 16 17  1  0  0  0  0
 16 37  1  0  0  0  0
 16 38  1  0  0  0  0
 17 18  1  0  0  0  0
 18 19  1  0  0  0  0
 18 39  1  0  0  0  0
 18 40  1  0  0  0  0
 19 41  1  0  0  0  0
 19 42  1  0  0  0  0
 20 43  1  0  0  0  0
M  END
> <s_m_source_file>
AV-unprocessed.smi

> <i_m_source_file_index>
393

> <i_lp_mmshare_version>
43012

> <i_f3d_flags>
0

> <s_epik_input>
W0NIM11bQ0gyXVtDSDJdW0NIMl1DKD1PKVtOSF1bQ0gyXWMxW2NIXVtjSF1uYyhbY0hdMSlOMltDSDJdW0NIMl1PW0NIMl1bQ0gyXTI=

> <s_epik_cmdline>
J2VwaWtfcHl0aG9uJywgJy1waCcsICc3LjAnLCAnLXRuJywgJzgnLCAnLW1hJywgJzIwMCcsICctbWV0YWxfYmluZGluZycsICctaW1hZScsICc8aW5maWxlLm1hZT4nLCAnLW9tYWUnLCAnPG91dGZpbGUubWFlPic=

> <r_lp_tautomer_probability>
1

> <r_epik_Ionization_Penalty>
0.00585334

> <r_epik_Ionization_Penalty_Charging>
0

> <r_epik_Ionization_Penalty_Neutral>
0.00585334

> <r_epik_State_Penalty>
0.00430121

> <r_epik_Charging_Adjusted_Penalty>
0.00430121

> <i_epik_Tot_Q>
0

> <i_epik_Tot_abs_Q>
0

> <r_epik_Metal_State_Penalty>
-0

> <b_epik_Metal_Only>
0

> <s_lp_Force_Field>
OPLS_2005

> <r_lp_Energy>
14.3492

> <b_lp_Chiralities_Consistent>
1

> <s_lp_Variant>
AV-unprocessed.smi:393-1

> <Gold.Version>
5.8.1

> <Gold.Id.Protein>
6NUR|6NUR_protein|mol2

> <Gold.PLP.Fitness>
42.7104

> <Gold.PLP.PLP>
-37.6820

> <Gold.PLP.part.hbond>
-2.0000

> <Gold.PLP.part.metal>
0.0000

> <Gold.PLP.part.buried>
-2.2453

> <Gold.PLP.part.nonpolar>
-33.8235

> <Gold.PLP.part.repulsive>
0.0319

> <Gold.PLP.ligand.clash>
0.0000

> <Gold.PLP.ligand.torsion>
0.6617

> <Gold.PLP.Chemscore.Hbond>
1.9913

> <Gold.PLP.Chemscore.CHOScore>
0.0000

> <Gold.PLP.Chemscore.Metal>
0.0000

> <Gold.Chemscore.Hbonds>
donor molecule, donor type, donor heavy atom, donor atom, acceptor molecule, acceptor atom, score
      L1  H     7    30       P1  7948  0.94
      P1  H  7997  8010       L1    12  0.99

> <Gold.PLP.Chemscore.Internal.Correction>
0.3780

> <Gold.Rescore>
     Score         DG    S(hbond)    S(metal)    S(lipo)     H(rot)  DE(clash)    DE(int)     intcor
     17.07     -18.35       1.94        0.00      93.29       1.77       0.76       0.53       ----

> <Gold.Chemscore.Fitness>
17.0656

> <Gold.Chemscore.DG>
-18.3530

> <Gold.Chemscore.ZeroCoef>
-5.4800

> <Gold.Chemscore.Hbond>
1.9418

> <Gold.Chemscore.Metal>
0.0000

> <Gold.Chemscore.Lipo>
93.2862

> <Gold.Chemscore.Internal_Hbond>
0.0000

> <Gold.Chemscore.DEClash>
0.7585

> <Gold.Chemscore.DEInternal>
0.5289

> <Gold.Chemscore.Rot>
1.7684

> <Gold.Chemscore.Internal.Correction>
   9.000000E+99

> <Gold.Chemscore.Hbonds>
donor molecule, donor type, donor heavy atom, donor atom, acceptor molecule, acceptor atom, score
      L1  H     7    30       P1  7948  0.90
      P1  H  7997  8010       L1    12  0.88

> <Gold.Chemscore.Hbond.Weighted>
-6.4856

> <Gold.Chemscore.Metal.Weighted>
-0.0000

> <Gold.Chemscore.Lipo.Weighted>
-10.9145

> <Gold.Chemscore.Internal_Hbond.Weighted>
0.0000

> <Gold.Chemscore.DEClash.Weighted>
0.7585

> <Gold.Chemscore.DEInternal.Weighted>
0.5289

> <Gold.Chemscore.Rot.Weighted>
4.5271

> <Gold.Chemscore.Internal.Correction.Weighted>
   9.000000E+99

> <Gold.Protein.RotatedTorsions>
[ 6907 6896 6895 6894 ] final  172.85 input  -60.11 | X-H torsion
[ 7974 7965 7964 7962 ] final   43.90 input  175.53 | X-H torsion
[ 8008 7997 7996 7995 ] final   70.94 input   59.86 | X-H torsion
[ 10167 10162 10161 10158 ] final -129.15 input  -65.29 | X-H torsion
[ 10718 10713 10712 10709 ] final  -86.71 input   66.30 | X-H torsion
[ 10763 10752 10751 10750 ] final  123.50 input  -60.55 | X-H torsion
[ 11005 11000 10999 10996 ] final  -90.70 input  -57.11 | X-H torsion

> <Gold.Protein.ActiveResidues>
 VAL166  LYS551  ARG553  GLY616  TRP617  ASP618  TYR619  PRO620  LYS621  CYS622 
 ASP623  PHE694  ASN695  SER759  ASP760  ASP761  ALA762  ILE779  LEU786  VAL792 
 PHE793  MET794  SER795  GLU796  ALA797  LYS798  CYS799  TRP800  GLU811  SER814 

> <Gold.Protein.RotatedAtoms>
  151.7777  133.3347  159.3462 H   0  0  0  0  0  0  0  0  0  0  0  0  # atno 6907 bound_to 6896
  150.7438  134.5960  159.6021 H   0  0  0  0  0  0  0  0  0  0  0  0  # atno 6908 bound_to 6896
  152.3298  134.7276  160.0344 H   0  0  0  0  0  0  0  0  0  0  0  0  # atno 6909 bound_to 6896
  146.0615  139.5135  142.9655 H   0  0  0  0  0  0  0  0  0  0  0  0  # atno 7974 bound_to 7965
  155.7464  140.3489  155.5129 H   0  0  0  0  0  0  0  0  0  0  0  0  # atno 8008 bound_to 7997
  155.9046  140.1040  157.1346 H   0  0  0  0  0  0  0  0  0  0  0  0  # atno 8009 bound_to 7997
  154.4048  140.1279  156.4467 H   0  0  0  0  0  0  0  0  0  0  0  0  # atno 8010 bound_to 7997
  139.9428  143.6144  152.2499 H   0  0  0  0  0  0  0  0  0  0  0  0  # atno 10167 bound_to 10162
  155.9988  130.4774  150.4757 H   0  0  0  0  0  0  0  0  0  0  0  0  # atno 10718 bound_to 10713
  153.6465  135.3370  155.3087 H   0  0  0  0  0  0  0  0  0  0  0  0  # atno 10763 bound_to 10752
  154.8547  135.4330  154.1950 H   0  0  0  0  0  0  0  0  0  0  0  0  # atno 10764 bound_to 10752
  153.2882  135.7015  153.7393 H   0  0  0  0  0  0  0  0  0  0  0  0  # atno 10765 bound_to 10752
  141.1560  133.7709  156.9775 H   0  0  0  0  0  0  0  0  0  0  0  0  # atno 11005 bound_to 11000
  145.6551  141.0254  143.1739 LP  0  0  0  0  0  0  0  0  0  0  0  0  # atno 17320 bound_to 7965
  144.7178  139.8136  143.7392 LP  0  0  0  0  0  0  0  0  0  0  0  0  # atno 17321 bound_to 7965
  139.6691  144.7661  151.1817 LP  0  0  0  0  0  0  0  0  0  0  0  0  # atno 17342 bound_to 10162
  140.7606  143.5892  150.8814 LP  0  0  0  0  0  0  0  0  0  0  0  0  # atno 17343 bound_to 10162
  157.2767  131.0598  151.2224 LP  0  0  0  0  0  0  0  0  0  0  0  0  # atno 17370 bound_to 10713
  157.3285  130.6973  149.6310 LP  0  0  0  0  0  0  0  0  0  0  0  0  # atno 17371 bound_to 10713
  140.1088  134.9490  157.2034 LP  0  0  0  0  0  0  0  0  0  0  0  0  # atno 17394 bound_to 11000
  140.3221  134.2904  155.7244 LP  0  0  0  0  0  0  0  0  0  0  0  0  # atno 17395 bound_to 11000

$$$$
