AV-unprocessed.smi:1867|AV-procd|sdf|7576|dock6
  -GOLD-   22720 9283D 1   1.00000     0.00000
 Structure written by MMmdl.
 52 55  0  0  0  0  0  0  0  0  4 V2000
  148.5124  137.6380  158.3165 O   0  0  0  0  0  0  0  0  0  0  0  0
  148.2319  137.8151  157.1324 C   0  0  0  0  0  0  0  0  0  0  0  0
  148.6675  138.9420  156.5163 N   0  0  0  0  0  0  0  0  0  0  0  0
  149.3491  140.0603  157.0662 C   0  0  0  0  0  0  0  0  0  0  0  0
  150.3509  139.8135  158.0275 C   0  0  0  0  0  0  0  0  0  0  0  0
  151.0726  140.8914  158.5792 C   0  0  0  0  0  0  0  0  0  0  0  0
  150.7910  142.2120  158.1567 C   0  0  0  0  0  0  0  0  0  0  0  0
  151.4764  143.3346  158.6578 N   0  0  0  0  0  0  0  0  0  0  0  0
  151.0368  144.6890  158.3631 C   0  0  0  0  0  0  0  0  0  0  0  0
  151.9349  145.5799  159.2201 C   0  0  0  0  0  0  0  0  0  0  0  0
  152.1992  144.7198  160.4562 C   0  0  0  0  0  0  0  0  0  0  0  0
  152.1963  143.2824  159.9223 C   0  0  0  0  0  0  0  0  0  0  0  0
  149.8342  142.4001  157.2167 N   0  3  0  0  0  0  0  0  0  0  0  0
  149.1190  141.3968  156.6637 C   0  0  0  0  0  0  0  0  0  0  0  0
  147.5164  136.8872  156.4268 N   0  5  0  0  0  0  0  0  0  0  0  0
  147.5972  136.5465  154.9993 C   0  0  2  0  0  0  0  0  0  0  0  0
  146.2336  136.6959  154.2978 C   0  0  0  0  0  0  0  0  0  0  0  0
  146.1745  135.5547  153.2640 C   0  0  0  0  0  0  0  0  0  0  0  0
  147.4409  134.8130  153.4202 N   0  3  2  0  0  0  0  0  0  0  0  0
  147.4352  133.3778  153.0611 C   0  0  0  0  0  0  0  0  0  0  0  0
  148.8665  132.8167  153.1851 C   0  0  0  0  0  0  0  0  0  0  0  0
  149.4778  133.1038  154.5722 C   0  0  0  0  0  0  0  0  0  0  0  0
  149.3793  134.6010  154.9265 C   0  0  0  0  0  0  0  0  0  0  0  0
  147.9123  135.0603  154.7923 C   0  0  1  0  0  0  0  0  0  0  0  0
  148.5160  138.9750  155.5190 H   0  0  0  0  0  0  0  0  0  0  0  0
  150.5666  138.8034  158.3441 H   0  0  0  0  0  0  0  0  0  0  0  0
  151.8389  140.6904  159.3129 H   0  0  0  0  0  0  0  0  0  0  0  0
  151.1317  144.9226  157.3022 H   0  0  0  0  0  0  0  0  0  0  0  0
  149.9913  144.8043  158.6521 H   0  0  0  0  0  0  0  0  0  0  0  0
  152.8733  145.7719  158.6976 H   0  0  0  0  0  0  0  0  0  0  0  0
  151.4775  146.5407  159.4579 H   0  0  0  0  0  0  0  0  0  0  0  0
  153.1276  144.9802  160.9650 H   0  0  0  0  0  0  0  0  0  0  0  0
  151.3818  144.8472  161.1672 H   0  0  0  0  0  0  0  0  0  0  0  0
  151.7297  142.6028  160.6363 H   0  0  0  0  0  0  0  0  0  0  0  0
  153.2136  142.9377  159.7345 H   0  0  0  0  0  0  0  0  0  0  0  0
  148.4055  141.7042  155.9137 H   0  0  0  0  0  0  0  0  0  0  0  0
  148.3397  137.1392  154.4617 H   0  0  0  0  0  0  0  0  0  0  0  0
  145.4079  136.5854  155.0030 H   0  0  0  0  0  0  0  0  0  0  0  0
  146.1331  137.6766  153.8316 H   0  0  0  0  0  0  0  0  0  0  0  0
  145.3230  134.9037  153.4711 H   0  0  0  0  0  0  0  0  0  0  0  0
  146.0746  135.9242  152.2427 H   0  0  0  0  0  0  0  0  0  0  0  0
  146.7519  132.8344  153.7159 H   0  0  0  0  0  0  0  0  0  0  0  0
  147.0707  133.2573  152.0404 H   0  0  0  0  0  0  0  0  0  0  0  0
  148.8652  131.7435  152.9923 H   0  0  0  0  0  0  0  0  0  0  0  0
  149.4969  133.2663  152.4170 H   0  0  0  0  0  0  0  0  0  0  0  0
  148.9525  132.5180  155.3275 H   0  0  0  0  0  0  0  0  0  0  0  0
  150.5185  132.7795  154.5984 H   0  0  0  0  0  0  0  0  0  0  0  0
  149.7458  134.7621  155.9420 H   0  0  0  0  0  0  0  0  0  0  0  0
  150.0314  135.1725  154.2629 H   0  0  0  0  0  0  0  0  0  0  0  0
  147.2923  134.4707  155.4726 H   0  0  0  0  0  0  0  0  0  0  0  0
  148.1082  135.2706  152.8160 H   0  0  0  0  0  0  0  0  0  0  0  0
  149.6427  143.3522  156.9050 H   0  0  0  0  0  0  0  0  0  0  0  0
  1  2  2  0  0  0  0
  2  3  1  0  0  0  0
  2 15  1  0  0  0  0
  3  4  1  0  0  0  0
  3 25  1  0  0  0  0
  4 14  1  0  0  0  0
  4  5  2  0  0  0  0
  5  6  1  0  0  0  0
  5 26  1  0  0  0  0
  6  7  2  0  0  0  0
  6 27  1  0  0  0  0
  7  8  1  0  0  0  0
  7 13  1  0  0  0  0
  8 12  1  0  0  0  0
  8  9  1  0  0  0  0
  9 10  1  0  0  0  0
  9 28  1  0  0  0  0
  9 29  1  0  0  0  0
 10 11  1  0  0  0  0
 10 30  1  0  0  0  0
 10 31  1  0  0  0  0
 11 12  1  0  0  0  0
 11 32  1  0  0  0  0
 11 33  1  0  0  0  0
 12 34  1  0  0  0  0
 12 35  1  0  0  0  0
 13 14  2  0  0  0  0
 13 52  1  0  0  0  0
 14 36  1  0  0  0  0
 15 16  1  0  0  0  0
 16 24  1  0  0  0  0
 16 17  1  0  0  0  0
 16 37  1  0  0  0  0
 17 18  1  0  0  0  0
 17 38  1  0  0  0  0
 17 39  1  0  0  0  0
 18 19  1  0  0  0  0
 18 40  1  0  0  0  0
 18 41  1  0  0  0  0
 19 24  1  0  0  0  0
 19 20  1  0  0  0  0
 19 51  1  0  0  0  0
 20 21  1  0  0  0  0
 20 42  1  0  0  0  0
 20 43  1  0  0  0  0
 21 22  1  0  0  0  0
 21 44  1  0  0  0  0
 21 45  1  0  0  0  0
 22 23  1  0  0  0  0
 22 46  1  0  0  0  0
 22 47  1  0  0  0  0
 23 24  1  0  0  0  0
 23 48  1  0  0  0  0
 23 49  1  0  0  0  0
 24 50  1  0  0  0  0
M  CHG  1  13   1
M  CHG  1  15  -1
M  CHG  1  19   1
M  END
> <s_m_source_file>
AV-unprocessed.smi

> <i_m_source_file_index>
1867

> <i_lp_mmshare_version>
43012

> <i_f3d_flags>
0

> <s_epik_input>
W0NIMl0xW0NIMl1bQ0gyXVtDSDJdW0NASF0oTjEyKVtDQEBIXShbQ0gyXVtDSDJdMilbTkhdQyg9TylbTkhdYzNbY0hdW2NIXWMobltjSF0zKU40W0NIMl1bQ0gyXVtDSDJdW0NIMl00

> <s_epik_cmdline>
J2VwaWtfcHl0aG9uJywgJy1waCcsICc3LjAnLCAnLXRuJywgJzgnLCAnLW1hJywgJzIwMCcsICctbWV0YWxfYmluZGluZycsICctaW1hZScsICc8aW5maWxlLm1hZT4nLCAnLW9tYWUnLCAnPG91dGZpbGUubWFlPic=

> <r_lp_tautomer_probability>
0.999994

> <r_epik_Ionization_Penalty>
8.56137

> <r_epik_Ionization_Penalty_Charging>
8.56136

> <r_epik_Ionization_Penalty_Neutral>
3.91889e-06

> <r_epik_State_Penalty>
8.16255

> <r_epik_Charging_Adjusted_Penalty>
16.7239

> <i_epik_Tot_Q>
1

> <i_epik_Tot_abs_Q>
3

> <r_epik_Metal_State_Penalty>
4.14279

> <b_epik_Metal_Only>
1

> <s_lp_Force_Field>
OPLS_2005

> <r_lp_Energy>
66.0689

> <b_lp_Chiralities_Consistent>
1

> <s_lp_Variant>
AV-unprocessed.smi:1867-17

> <Gold.Version>
5.8.1

> <Gold.Id.Protein>
6NUR|6NUR_protein|mol2

> <Gold.PLP.Fitness>
49.3011

> <Gold.PLP.PLP>
-38.3080

> <Gold.PLP.part.hbond>
-2.0000

> <Gold.PLP.part.metal>
0.0000

> <Gold.PLP.part.buried>
-4.2147

> <Gold.PLP.part.nonpolar>
-32.0792

> <Gold.PLP.part.repulsive>
0.0317

> <Gold.PLP.ligand.clash>
0.0000

> <Gold.PLP.ligand.torsion>
0.6169

> <Gold.PLP.Chemscore.Hbond>
4.0000

> <Gold.PLP.Chemscore.CHOScore>
0.0000

> <Gold.PLP.Chemscore.Metal>
0.0000

> <Gold.Chemscore.Hbonds>
donor molecule, donor type, donor heavy atom, donor atom, acceptor molecule, acceptor atom, score
      L1  H    13    52       P1  8028  2.00
      L1  H    19    51       P1  7948  2.00

> <Gold.PLP.Chemscore.Internal.Correction>
0.2268

> <Gold.Rescore>
     Score         DG    S(hbond)    S(metal)    S(lipo)     H(rot)  DE(clash)    DE(int)     intcor
     18.88     -20.89       1.99        0.00      96.85       1.00       0.09       1.92       ----

> <Gold.Chemscore.Fitness>
18.8808

> <Gold.Chemscore.DG>
-20.8924

> <Gold.Chemscore.ZeroCoef>
-5.4800

> <Gold.Chemscore.Hbond>
1.9883

> <Gold.Chemscore.Metal>
0.0000

> <Gold.Chemscore.Lipo>
96.8510

> <Gold.Chemscore.Internal_Hbond>
0.0000

> <Gold.Chemscore.DEClash>
0.0932

> <Gold.Chemscore.DEInternal>
1.9184

> <Gold.Chemscore.Rot>
1.0000

> <Gold.Chemscore.Internal.Correction>
   9.000000E+99

> <Gold.Chemscore.Hbonds>
donor molecule, donor type, donor heavy atom, donor atom, acceptor molecule, acceptor atom, score
      L1  H    13    52       P1  8028  0.94
      L1  H    19    51       P1  7948  0.96

> <Gold.Chemscore.Hbond.Weighted>
-6.6408

> <Gold.Chemscore.Metal.Weighted>
-0.0000

> <Gold.Chemscore.Lipo.Weighted>
-11.3316

> <Gold.Chemscore.Internal_Hbond.Weighted>
0.0000

> <Gold.Chemscore.DEClash.Weighted>
0.0932

> <Gold.Chemscore.DEInternal.Weighted>
1.9184

> <Gold.Chemscore.Rot.Weighted>
2.5600

> <Gold.Chemscore.Internal.Correction.Weighted>
   9.000000E+99

> <Gold.Protein.RotatedTorsions>
[ 6907 6896 6895 6894 ] final   39.08 input  -60.11 | X-H torsion
[ 7974 7965 7964 7962 ] final  106.44 input  175.53 | X-H torsion
[ 8008 7997 7996 7995 ] final -100.37 input   59.86 | X-H torsion
[ 10167 10162 10161 10158 ] final   24.58 input  -65.29 | X-H torsion
[ 10718 10713 10712 10709 ] final   26.68 input   66.30 | X-H torsion
[ 10763 10752 10751 10750 ] final  -31.28 input  -60.55 | X-H torsion
[ 11005 11000 10999 10996 ] final  -91.09 input  -57.11 | X-H torsion

> <Gold.Protein.ActiveResidues>
 VAL166  LYS551  ARG553  GLY616  TRP617  ASP618  TYR619  PRO620  LYS621  CYS622 
 ASP623  PHE694  ASN695  SER759  ASP760  ASP761  ALA762  ILE779  LEU786  VAL792 
 PHE793  MET794  SER795  GLU796  ALA797  LYS798  CYS799  TRP800  GLU811  SER814 

> <Gold.Protein.RotatedAtoms>
  152.1649  134.8882  160.0538 H   0  0  0  0  0  0  0  0  0  0  0  0  # atno 6907 bound_to 6896
  151.9864  133.3770  159.4135 H   0  0  0  0  0  0  0  0  0  0  0  0  # atno 6908 bound_to 6896
  150.6893  134.3907  159.5119 H   0  0  0  0  0  0  0  0  0  0  0  0  # atno 6909 bound_to 6896
  145.3066  139.2553  143.3785 H   0  0  0  0  0  0  0  0  0  0  0  0  # atno 7974 bound_to 7965
  154.8277  140.0441  157.1455 H   0  0  0  0  0  0  0  0  0  0  0  0  # atno 8008 bound_to 7997
  154.9188  140.3024  155.5207 H   0  0  0  0  0  0  0  0  0  0  0  0  # atno 8009 bound_to 7997
  156.2985  140.2344  156.4235 H   0  0  0  0  0  0  0  0  0  0  0  0  # atno 8010 bound_to 7997
  140.5176  144.0056  150.6401 H   0  0  0  0  0  0  0  0  0  0  0  0  # atno 10167 bound_to 10162
  157.2100  130.6930  149.6224 H   0  0  0  0  0  0  0  0  0  0  0  0  # atno 10718 bound_to 10713
  153.7947  135.6895  153.4865 H   0  0  0  0  0  0  0  0  0  0  0  0  # atno 10763 bound_to 10752
  153.1726  135.4536  154.9922 H   0  0  0  0  0  0  0  0  0  0  0  0  # atno 10764 bound_to 10752
  154.8030  135.3345  154.7441 H   0  0  0  0  0  0  0  0  0  0  0  0  # atno 10765 bound_to 10752
  141.1552  133.7733  156.9830 H   0  0  0  0  0  0  0  0  0  0  0  0  # atno 11005 bound_to 11000
  146.3133  140.3593  142.8663 LP  0  0  0  0  0  0  0  0  0  0  0  0  # atno 17320 bound_to 7965
  144.9049  140.7688  143.5843 LP  0  0  0  0  0  0  0  0  0  0  0  0  # atno 17321 bound_to 7965
  140.3396  143.3027  152.0602 LP  0  0  0  0  0  0  0  0  0  0  0  0  # atno 17342 bound_to 10162
  139.4914  144.6452  151.6794 LP  0  0  0  0  0  0  0  0  0  0  0  0  # atno 17343 bound_to 10162
  155.9691  130.4554  150.5886 LP  0  0  0  0  0  0  0  0  0  0  0  0  # atno 17370 bound_to 10713
  157.3681  131.0761  151.1580 LP  0  0  0  0  0  0  0  0  0  0  0  0  # atno 17371 bound_to 10713
  140.1053  134.9510  157.1985 LP  0  0  0  0  0  0  0  0  0  0  0  0  # atno 17394 bound_to 11000
  140.3264  134.2858  155.7236 LP  0  0  0  0  0  0  0  0  0  0  0  0  # atno 17395 bound_to 11000

$$$$
