AV-unprocessed.smi:2418|AV-procd|sdf|9551|dock8
  -GOLD-   2272013183D 1   1.00000     0.00000
 Structure written by MMmdl.
 34 35  0  0  0  0  0  0  0  0  1 V2000
  152.0190  144.2432  160.5521 C   0  0  0  0  0  0  0  0  0  0  0  0
  151.9441  143.0957  159.5606 C   0  0  0  0  0  0  0  0  0  0  0  0
  150.7985  143.0625  158.7602 N   0  0  0  0  0  0  0  0  0  0  0  0
  150.6460  142.1171  157.8914 C   0  0  0  0  0  0  0  0  0  0  0  0
  151.6105  141.1109  157.7190 N   0  0  0  0  0  0  0  0  0  0  0  0
  151.3124  140.0878  156.7026 C   0  0  0  0  0  0  0  0  0  0  0  0
  151.1769  140.6923  155.2874 C   0  0  1  0  0  0  0  0  0  0  0  0
  152.1712  140.1233  154.4567 O   0  0  0  0  0  0  0  0  0  0  0  0
  149.7793  140.4587  154.7276 C   0  0  0  0  0  0  0  0  0  0  0  0
  148.8365  141.5112  154.6929 C   0  0  0  0  0  0  0  0  0  0  0  0
  147.5470  141.2960  154.1694 C   0  0  0  0  0  0  0  0  0  0  0  0
  146.6494  142.3093  154.1432 F   0  0  0  0  0  0  0  0  0  0  0  0
  147.1915  140.0285  153.6718 C   0  0  0  0  0  0  0  0  0  0  0  0
  148.1278  138.9775  153.6949 C   0  0  0  0  0  0  0  0  0  0  0  0
  149.4183  139.1902  154.2183 C   0  0  0  0  0  0  0  0  0  0  0  0
  150.3078  138.1683  154.2248 F   0  0  0  0  0  0  0  0  0  0  0  0
  152.7565  141.0685  158.4583 C   0  0  0  0  0  0  0  0  0  0  0  0
  153.5937  140.1771  158.3034 O   0  0  0  0  0  0  0  0  0  0  0  0
  152.9146  142.1484  159.4458 C   0  0  0  0  0  0  0  0  0  0  0  0
  154.1803  142.1298  160.2936 C   0  0  0  0  0  0  0  0  0  0  0  0
  152.9087  144.8472  160.3725 H   0  0  0  0  0  0  0  0  0  0  0  0
  152.0556  143.8621  161.5731 H   0  0  0  0  0  0  0  0  0  0  0  0
  151.1499  144.8974  160.4700 H   0  0  0  0  0  0  0  0  0  0  0  0
  149.7668  142.0404  157.2493 H   0  0  0  0  0  0  0  0  0  0  0  0
  152.0392  139.2726  156.7044 H   0  0  0  0  0  0  0  0  0  0  0  0
  150.3714  139.6074  156.9783 H   0  0  0  0  0  0  0  0  0  0  0  0
  151.3627  141.7663  155.3166 H   0  0  0  0  0  0  0  0  0  0  0  0
  152.2765  139.2149  154.6954 H   0  0  0  0  0  0  0  0  0  0  0  0
  149.0996  142.4901  155.0665 H   0  0  0  0  0  0  0  0  0  0  0  0
  146.2028  139.8625  153.2700 H   0  0  0  0  0  0  0  0  0  0  0  0
  147.8567  138.0059  153.3087 H   0  0  0  0  0  0  0  0  0  0  0  0
  154.2398  141.1991  160.8592 H   0  0  0  0  0  0  0  0  0  0  0  0
  154.2318  142.9502  161.0076 H   0  0  0  0  0  0  0  0  0  0  0  0
  155.0618  142.1944  159.6549 H   0  0  0  0  0  0  0  0  0  0  0  0
  1  2  1  0  0  0  0
  1 21  1  0  0  0  0
  1 22  1  0  0  0  0
  1 23  1  0  0  0  0
  2 19  2  0  0  0  0
  2  3  1  0  0  0  0
  3  4  2  0  0  0  0
  4  5  1  0  0  0  0
  4 24  1  0  0  0  0
  5  6  1  0  0  0  0
  5 17  1  0  0  0  0
  6  7  1  0  0  0  0
  6 25  1  0  0  0  0
  6 26  1  0  0  0  0
  7  8  1  0  0  0  0
  7  9  1  0  0  0  0
  7 27  1  0  0  0  0
  8 28  1  0  0  0  0
  9 15  1  0  0  0  0
  9 10  2  0  0  0  0
 10 11  1  0  0  0  0
 10 29  1  0  0  0  0
 11 12  1  0  0  0  0
 11 13  2  0  0  0  0
 13 14  1  0  0  0  0
 13 30  1  0  0  0  0
 14 15  2  0  0  0  0
 14 31  1  0  0  0  0
 15 16  1  0  0  0  0
 17 18  2  0  0  0  0
 17 19  1  0  0  0  0
 19 20  1  0  0  0  0
 20 32  1  0  0  0  0
 20 33  1  0  0  0  0
 20 34  1  0  0  0  0
M  END
> <s_m_source_file>
AV-unprocessed.smi

> <i_m_source_file_index>
2418

> <i_lp_mmshare_version>
43012

> <i_f3d_flags>
0

> <s_epik_input>
W0NIM11jMW5bY0hdbihjKD1PKWMxW0NIM10pW0NIMl1bQ0BIXShbT0hdKWMyW2NIXWMoRilbY0hdW2NIXWMyRg==

> <s_epik_cmdline>
J2VwaWtfcHl0aG9uJywgJy1waCcsICc3LjAnLCAnLXRuJywgJzgnLCAnLW1hJywgJzIwMCcsICctbWV0YWxfYmluZGluZycsICctaW1hZScsICc8aW5maWxlLm1hZT4nLCAnLW9tYWUnLCAnPG91dGZpbGUubWFlPic=

> <r_lp_tautomer_probability>
1

> <r_epik_Ionization_Penalty>
5.08222e-05

> <r_epik_Ionization_Penalty_Charging>
7.56727e-08

> <r_epik_Ionization_Penalty_Neutral>
5.07465e-05

> <r_epik_State_Penalty>
-0

> <r_epik_Charging_Adjusted_Penalty>
7.56727e-08

> <i_epik_Tot_Q>
0

> <i_epik_Tot_abs_Q>
0

> <r_epik_Metal_State_Penalty>
-0

> <b_epik_Metal_Only>
0

> <s_lp_Force_Field>
OPLS_2005

> <r_lp_Energy>
18.8119

> <b_lp_Chiralities_Consistent>
1

> <s_lp_Variant>
AV-unprocessed.smi:2418-2

> <Gold.Version>
5.8.1

> <Gold.Id.Protein>
6NUR|6NUR_protein|mol2

> <Gold.PLP.Fitness>
46.2650

> <Gold.PLP.PLP>
-44.9869

> <Gold.PLP.part.hbond>
-1.8789

> <Gold.PLP.part.metal>
0.0000

> <Gold.PLP.part.buried>
-3.0411

> <Gold.PLP.part.nonpolar>
-39.6289

> <Gold.PLP.part.repulsive>
0.0857

> <Gold.PLP.ligand.clash>
0.0000

> <Gold.PLP.ligand.torsion>
1.1709

> <Gold.PLP.Chemscore.Hbond>
1.2040

> <Gold.PLP.Chemscore.CHOScore>
0.0000

> <Gold.PLP.Chemscore.Metal>
0.0000

> <Gold.Chemscore.Hbonds>
donor molecule, donor type, donor heavy atom, donor atom, acceptor molecule, acceptor atom, score
      P1  H  7989  7998       L1     8  0.10
      P1  H  7997  8008       L1    18  0.94

> <Gold.PLP.Chemscore.Internal.Correction>
0.0080

> <Gold.Rescore>
     Score         DG    S(hbond)    S(metal)    S(lipo)     H(rot)  DE(clash)    DE(int)     intcor
     11.75     -14.34       1.06        0.00      91.69       2.11       0.37       2.22       ----

> <Gold.Chemscore.Fitness>
11.7503

> <Gold.Chemscore.DG>
-14.3351

> <Gold.Chemscore.ZeroCoef>
-5.4800

> <Gold.Chemscore.Hbond>
1.0562

> <Gold.Chemscore.Metal>
0.0000

> <Gold.Chemscore.Lipo>
91.6946

> <Gold.Chemscore.Internal_Hbond>
0.0000

> <Gold.Chemscore.DEClash>
0.3665

> <Gold.Chemscore.DEInternal>
2.2184

> <Gold.Chemscore.Rot>
2.1097

> <Gold.Chemscore.Internal.Correction>
   9.000000E+99

> <Gold.Chemscore.Hbonds>
donor molecule, donor type, donor heavy atom, donor atom, acceptor molecule, acceptor atom, score
      P1  H  7997  8008       L1    18  0.91

> <Gold.Chemscore.Hbond.Weighted>
-3.5278

> <Gold.Chemscore.Metal.Weighted>
-0.0000

> <Gold.Chemscore.Lipo.Weighted>
-10.7283

> <Gold.Chemscore.Internal_Hbond.Weighted>
0.0000

> <Gold.Chemscore.DEClash.Weighted>
0.3665

> <Gold.Chemscore.DEInternal.Weighted>
2.2184

> <Gold.Chemscore.Rot.Weighted>
5.4009

> <Gold.Chemscore.Internal.Correction.Weighted>
   9.000000E+99

> <Gold.Protein.RotatedTorsions>
[ 6907 6896 6895 6894 ] final  -77.52 input  -60.11 | X-H torsion
[ 7974 7965 7964 7962 ] final    0.55 input  175.53 | X-H torsion
[ 8008 7997 7996 7995 ] final  -89.93 input   59.86 | X-H torsion
[ 10167 10162 10161 10158 ] final  -17.04 input  -65.29 | X-H torsion
[ 10718 10713 10712 10709 ] final   22.68 input   66.30 | X-H torsion
[ 10763 10752 10751 10750 ] final   29.65 input  -60.55 | X-H torsion
[ 11005 11000 10999 10996 ] final -155.71 input  -57.11 | X-H torsion

> <Gold.Protein.ActiveResidues>
 VAL166  LYS551  ARG553  GLY616  TRP617  ASP618  TYR619  PRO620  LYS621  CYS622 
 ASP623  PHE694  ASN695  SER759  ASP760  ASP761  ALA762  ILE779  LEU786  VAL792 
 PHE793  MET794  SER795  GLU796  ALA797  LYS798  CYS799  TRP800  GLU811  SER814 

> <Gold.Protein.RotatedAtoms>
  150.6996  134.4410  159.5291 H   0  0  0  0  0  0  0  0  0  0  0  0  # atno 6907 bound_to 6896
  152.2120  134.8490  160.0505 H   0  0  0  0  0  0  0  0  0  0  0  0  # atno 6908 bound_to 6896
  151.9372  133.3592  159.3989 H   0  0  0  0  0  0  0  0  0  0  0  0  # atno 6909 bound_to 6896
  146.2435  140.1120  142.8343 H   0  0  0  0  0  0  0  0  0  0  0  0  # atno 7974 bound_to 7965
  154.6924  140.0536  157.0377 H   0  0  0  0  0  0  0  0  0  0  0  0  # atno 8008 bound_to 7997
  155.0798  140.3208  155.4586 H   0  0  0  0  0  0  0  0  0  0  0  0  # atno 8009 bound_to 7997
  156.2733  140.2067  156.5926 H   0  0  0  0  0  0  0  0  0  0  0  0  # atno 8010 bound_to 7997
  140.7242  143.5056  150.9814 H   0  0  0  0  0  0  0  0  0  0  0  0  # atno 10167 bound_to 10162
  157.1556  130.6694  149.6026 H   0  0  0  0  0  0  0  0  0  0  0  0  # atno 10718 bound_to 10713
  153.0418  135.6484  154.0923 H   0  0  0  0  0  0  0  0  0  0  0  0  # atno 10763 bound_to 10752
  154.0628  135.2886  155.3323 H   0  0  0  0  0  0  0  0  0  0  0  0  # atno 10764 bound_to 10752
  154.6646  135.5379  153.8126 H   0  0  0  0  0  0  0  0  0  0  0  0  # atno 10765 bound_to 10752
  140.6835  134.4119  157.5225 H   0  0  0  0  0  0  0  0  0  0  0  0  # atno 11005 bound_to 11000
  145.0479  140.8995  143.5013 LP  0  0  0  0  0  0  0  0  0  0  0  0  # atno 17320 bound_to 7965
  145.1213  139.2692  143.5587 LP  0  0  0  0  0  0  0  0  0  0  0  0  # atno 17321 bound_to 7965
  139.8767  143.7123  152.3161 LP  0  0  0  0  0  0  0  0  0  0  0  0  # atno 17342 bound_to 10162
  139.7391  144.7564  151.0680 LP  0  0  0  0  0  0  0  0  0  0  0  0  # atno 17343 bound_to 10162
  155.9762  130.4729  150.6516 LP  0  0  0  0  0  0  0  0  0  0  0  0  # atno 17370 bound_to 10713
  157.4180  131.0833  151.1158 LP  0  0  0  0  0  0  0  0  0  0  0  0  # atno 17371 bound_to 10713
  139.8945  134.8706  156.2176 LP  0  0  0  0  0  0  0  0  0  0  0  0  # atno 17394 bound_to 11000
  141.0299  133.6994  156.1412 LP  0  0  0  0  0  0  0  0  0  0  0  0  # atno 17395 bound_to 11000

$$$$
