AV-unprocessed.smi:371|AV-procd|sdf|2442|dock8
  -GOLD-   2262022383D 1   1.00000     0.00000
 Structure written by MMmdl.
 39 40  0  0  0  0  0  0  0  0  1 V2000
  152.0523  137.7795  154.3313 C   0  0  0  0  0  0  0  0  0  0  0  0
  151.5112  138.8286  155.2948 C   0  0  0  0  0  0  0  0  0  0  0  0
  150.6316  139.8453  154.7663 C   0  0  0  0  0  0  0  0  0  0  0  0
  150.1995  140.8575  155.5358 C   0  0  0  0  0  0  0  0  0  0  0  0
  149.2666  141.9226  154.9708 C   0  0  0  0  0  0  0  0  0  0  0  0
  150.5713  140.9326  156.9063 N   0  0  0  0  0  0  0  0  0  0  0  0
  150.1675  142.1173  157.7050 C   0  0  0  0  0  0  0  0  0  0  0  0
  151.3114  143.1498  157.8755 C   0  0  1  0  0  0  0  0  0  0  0  0
  150.7940  144.4325  157.5826 O   0  0  0  0  0  0  0  0  0  0  0  0
  151.9828  143.0924  159.2444 C   0  0  0  0  0  0  0  0  0  0  0  0
  152.9881  142.1340  159.5044 C   0  0  0  0  0  0  0  0  0  0  0  0
  153.6364  142.1021  160.7541 C   0  0  0  0  0  0  0  0  0  0  0  0
  153.2852  143.0287  161.7534 C   0  0  0  0  0  0  0  0  0  0  0  0
  152.2844  143.9864  161.5027 C   0  0  0  0  0  0  0  0  0  0  0  0
  151.6341  144.0198  160.2537 C   0  0  0  0  0  0  0  0  0  0  0  0
  150.6865  144.9607  160.0248 F   0  0  0  0  0  0  0  0  0  0  0  0
  151.2995  139.9397  157.5134 C   0  0  0  0  0  0  0  0  0  0  0  0
  151.4834  139.9557  158.7348 O   0  0  0  0  0  0  0  0  0  0  0  0
  151.8402  138.8858  156.6131 C   0  0  0  0  0  0  0  0  0  0  0  0
  152.7449  137.8952  157.2280 C   0  0  0  0  0  0  0  0  0  0  0  0
  153.3494  138.3000  158.3542 N   0  0  0  0  0  0  0  0  0  0  0  0
  153.0226  136.7998  156.7424 O   0  0  0  0  0  0  0  0  0  0  0  0
  151.8066  138.0289  153.2987 H   0  0  0  0  0  0  0  0  0  0  0  0
  151.6199  136.8025  154.5475 H   0  0  0  0  0  0  0  0  0  0  0  0
  153.1382  137.7062  154.3991 H   0  0  0  0  0  0  0  0  0  0  0  0
  150.3229  139.7928  153.7322 H   0  0  0  0  0  0  0  0  0  0  0  0
  149.1395  141.7940  153.8955 H   0  0  0  0  0  0  0  0  0  0  0  0
  149.6510  142.9296  155.1236 H   0  0  0  0  0  0  0  0  0  0  0  0
  148.2775  141.8459  155.4231 H   0  0  0  0  0  0  0  0  0  0  0  0
  149.2945  142.6018  157.2709 H   0  0  0  0  0  0  0  0  0  0  0  0
  149.8047  141.8274  158.6924 H   0  0  0  0  0  0  0  0  0  0  0  0
  152.0744  142.9653  157.1207 H   0  0  0  0  0  0  0  0  0  0  0  0
  150.1890  144.3537  156.8610 H   0  0  0  0  0  0  0  0  0  0  0  0
  153.2761  141.4270  158.7402 H   0  0  0  0  0  0  0  0  0  0  0  0
  154.4072  141.3694  160.9433 H   0  0  0  0  0  0  0  0  0  0  0  0
  153.7843  143.0067  162.7109 H   0  0  0  0  0  0  0  0  0  0  0  0
  152.0180  144.7003  162.2680 H   0  0  0  0  0  0  0  0  0  0  0  0
  153.9952  137.6863  158.8300 H   0  0  0  0  0  0  0  0  0  0  0  0
  153.1665  139.2249  158.7156 H   0  0  0  0  0  0  0  0  0  0  0  0
  1  2  1  0  0  0  0
  1 23  1  0  0  0  0
  1 24  1  0  0  0  0
  1 25  1  0  0  0  0
  2 19  2  0  0  0  0
  2  3  1  0  0  0  0
  3  4  2  0  0  0  0
  3 26  1  0  0  0  0
  4  5  1  0  0  0  0
  4  6  1  0  0  0  0
  5 27  1  0  0  0  0
  5 28  1  0  0  0  0
  5 29  1  0  0  0  0
  6  7  1  0  0  0  0
  6 17  1  0  0  0  0
  7  8  1  0  0  0  0
  7 30  1  0  0  0  0
  7 31  1  0  0  0  0
  8  9  1  0  0  0  0
  8 10  1  0  0  0  0
  8 32  1  0  0  0  0
  9 33  1  0  0  0  0
 10 15  1  0  0  0  0
 10 11  2  0  0  0  0
 11 12  1  0  0  0  0
 11 34  1  0  0  0  0
 12 13  2  0  0  0  0
 12 35  1  0  0  0  0
 13 14  1  0  0  0  0
 13 36  1  0  0  0  0
 14 15  2  0  0  0  0
 14 37  1  0  0  0  0
 15 16  1  0  0  0  0
 17 18  2  0  0  0  0
 17 19  1  0  0  0  0
 19 20  1  0  0  0  0
 20 21  1  0  0  0  0
 20 22  2  0  0  0  0
 21 38  1  0  0  0  0
 21 39  1  0  0  0  0
M  END
> <s_m_source_file>
AV-unprocessed.smi

> <i_m_source_file_index>
371

> <i_lp_mmshare_version>
43012

> <i_f3d_flags>
0

> <s_epik_input>
W0NIM11jMVtjSF1jKFtDSDNdKW4oYyg9TyljMUMoPU8pW05IMl0pW0NIMl1bQ0BIXShbT0hdKWMyW2NIXVtjSF1bY0hdW2NIXWMyRg==

> <s_epik_cmdline>
J2VwaWtfcHl0aG9uJywgJy1waCcsICc3LjAnLCAnLXRuJywgJzgnLCAnLW1hJywgJzIwMCcsICctbWV0YWxfYmluZGluZycsICctaW1hZScsICc8aW5maWxlLm1hZT4nLCAnLW9tYWUnLCAnPG91dGZpbGUubWFlPic=

> <r_lp_tautomer_probability>
1

> <r_epik_Ionization_Penalty>
3.46512e-07

> <r_epik_Ionization_Penalty_Charging>
1.35363e-07

> <r_epik_Ionization_Penalty_Neutral>
2.11149e-07

> <r_epik_State_Penalty>
-0

> <r_epik_Charging_Adjusted_Penalty>
1.35363e-07

> <i_epik_Tot_Q>
0

> <i_epik_Tot_abs_Q>
0

> <r_epik_Metal_State_Penalty>
-0

> <b_epik_Metal_Only>
0

> <s_lp_Force_Field>
OPLS_2005

> <r_lp_Energy>
37.7279

> <b_lp_Chiralities_Consistent>
1

> <s_lp_Variant>
AV-unprocessed.smi:371-2

> <Gold.Version>
5.8.1

> <Gold.Id.Protein>
6NUR|6NUR_protein|mol2

> <Gold.PLP.Fitness>
49.5948

> <Gold.PLP.PLP>
-46.6811

> <Gold.PLP.part.hbond>
-2.0376

> <Gold.PLP.part.metal>
0.0000

> <Gold.PLP.part.buried>
-0.6247

> <Gold.PLP.part.nonpolar>
-44.3263

> <Gold.PLP.part.repulsive>
0.0884

> <Gold.PLP.ligand.clash>
0.0000

> <Gold.PLP.ligand.torsion>
1.7382

> <Gold.PLP.Chemscore.Hbond>
2.0000

> <Gold.PLP.Chemscore.CHOScore>
0.0000

> <Gold.PLP.Chemscore.Metal>
0.0000

> <Gold.Chemscore.Hbonds>
donor molecule, donor type, donor heavy atom, donor atom, acceptor molecule, acceptor atom, score
      L1  H     9    33       P1  8028  1.00
      P1  H 10752 10765       L1    22  0.95

> <Gold.PLP.Chemscore.Internal.Correction>
0.3901

> <Gold.Rescore>
     Score         DG    S(hbond)    S(metal)    S(lipo)     H(rot)  DE(clash)    DE(int)     intcor
     14.70     -21.13       1.94        0.00     123.06       2.04       0.09       6.35       ----

> <Gold.Chemscore.Fitness>
14.6999

> <Gold.Chemscore.DG>
-21.1341

> <Gold.Chemscore.ZeroCoef>
-5.4800

> <Gold.Chemscore.Hbond>
1.9392

> <Gold.Chemscore.Metal>
0.0000

> <Gold.Chemscore.Lipo>
123.0630

> <Gold.Chemscore.Internal_Hbond>
0.0000

> <Gold.Chemscore.DEClash>
0.0859

> <Gold.Chemscore.DEInternal>
6.3483

> <Gold.Chemscore.Rot>
2.0396

> <Gold.Chemscore.Internal.Correction>
   9.000000E+99

> <Gold.Chemscore.Hbonds>
donor molecule, donor type, donor heavy atom, donor atom, acceptor molecule, acceptor atom, score
      L1  H     9    33       P1  8028  0.90
      P1  H 10752 10765       L1    22  0.84

> <Gold.Chemscore.Hbond.Weighted>
-6.4771

> <Gold.Chemscore.Metal.Weighted>
-0.0000

> <Gold.Chemscore.Lipo.Weighted>
-14.3984

> <Gold.Chemscore.Internal_Hbond.Weighted>
0.0000

> <Gold.Chemscore.DEClash.Weighted>
0.0859

> <Gold.Chemscore.DEInternal.Weighted>
6.3483

> <Gold.Chemscore.Rot.Weighted>
5.2214

> <Gold.Chemscore.Internal.Correction.Weighted>
   9.000000E+99

> <Gold.Protein.RotatedTorsions>
[ 6907 6896 6895 6894 ] final  -24.78 input  -60.11 | X-H torsion
[ 7974 7965 7964 7962 ] final  -97.82 input  175.53 | X-H torsion
[ 8008 7997 7996 7995 ] final   -2.62 input   59.86 | X-H torsion
[ 10167 10162 10161 10158 ] final   37.31 input  -65.29 | X-H torsion
[ 10718 10713 10712 10709 ] final  145.94 input   66.30 | X-H torsion
[ 10763 10752 10751 10750 ] final -126.99 input  -60.55 | X-H torsion
[ 11005 11000 10999 10996 ] final   48.48 input  -57.11 | X-H torsion

> <Gold.Protein.ActiveResidues>
 VAL166  LYS551  ARG553  GLY616  TRP617  ASP618  TYR619  PRO620  LYS621  CYS622 
 ASP623  PHE694  ASN695  SER759  ASP760  ASP761  ALA762  ILE779  LEU786  VAL792 
 PHE793  MET794  SER795  GLU796  ALA797  LYS798  CYS799  TRP800  GLU811  SER814 

> <Gold.Protein.RotatedAtoms>
  151.1847  135.0376  159.8806 H   0  0  0  0  0  0  0  0  0  0  0  0  # atno 6907 bound_to 6896
  152.5443  134.1024  159.8333 H   0  0  0  0  0  0  0  0  0  0  0  0  # atno 6908 bound_to 6896
  151.1145  133.5102  159.2636 H   0  0  0  0  0  0  0  0  0  0  0  0  # atno 6909 bound_to 6896
  145.3287  140.9437  143.2674 H   0  0  0  0  0  0  0  0  0  0  0  0  # atno 7974 bound_to 7965
  154.6338  140.2530  155.7403 H   0  0  0  0  0  0  0  0  0  0  0  0  # atno 8008 bound_to 7997
  156.2493  140.2901  156.0621 H   0  0  0  0  0  0  0  0  0  0  0  0  # atno 8009 bound_to 7997
  155.1704  140.0386  157.2852 H   0  0  0  0  0  0  0  0  0  0  0  0  # atno 8010 bound_to 7997
  140.4045  144.1678  150.6135 H   0  0  0  0  0  0  0  0  0  0  0  0  # atno 10167 bound_to 10162
  157.3392  131.0933  151.1097 H   0  0  0  0  0  0  0  0  0  0  0  0  # atno 10718 bound_to 10713
  154.8749  135.3977  154.3521 H   0  0  0  0  0  0  0  0  0  0  0  0  # atno 10763 bound_to 10752
  153.4305  135.7025  153.6239 H   0  0  0  0  0  0  0  0  0  0  0  0  # atno 10764 bound_to 10752
  153.4862  135.3758  155.2438 H   0  0  0  0  0  0  0  0  0  0  0  0  # atno 10765 bound_to 10752
  140.1187  134.4858  155.8616 H   0  0  0  0  0  0  0  0  0  0  0  0  # atno 11005 bound_to 11000
  144.8881  139.4811  143.6691 LP  0  0  0  0  0  0  0  0  0  0  0  0  # atno 17320 bound_to 7965
  146.3054  139.7563  142.9060 LP  0  0  0  0  0  0  0  0  0  0  0  0  # atno 17321 bound_to 7965
  140.4704  143.2415  151.9097 LP  0  0  0  0  0  0  0  0  0  0  0  0  # atno 17342 bound_to 10162
  139.4784  144.5375  151.8576 LP  0  0  0  0  0  0  0  0  0  0  0  0  # atno 17343 bound_to 10162
  157.2315  130.6527  149.5851 LP  0  0  0  0  0  0  0  0  0  0  0  0  # atno 17370 bound_to 10713
  155.9705  130.4597  150.6046 LP  0  0  0  0  0  0  0  0  0  0  0  0  # atno 17371 bound_to 10713
  141.2147  133.6753  156.6846 LP  0  0  0  0  0  0  0  0  0  0  0  0  # atno 17394 bound_to 11000
  140.2994  134.8176  157.4085 LP  0  0  0  0  0  0  0  0  0  0  0  0  # atno 17395 bound_to 11000

$$$$
