AV-unprocessed.smi:102|AV-procd|sdf|953|dock9
  -GOLD-   2262017483D 1   1.00000     0.00000
 Structure written by MMmdl.
 44 45  0  0  0  0  0  0  0  0  1 V2000
  153.3375  141.7077  159.3597 C   0  0  0  0  0  0  0  0  0  0  0  0
  153.3385  140.2224  159.0205 C   0  0  0  0  0  0  0  0  0  0  0  0
  154.3822  139.5697  159.0044 O   0  0  0  0  0  0  0  0  0  0  0  0
  152.1098  139.7514  158.7563 O   0  0  0  0  0  0  0  0  0  0  0  0
  151.8951  138.3507  158.7018 C   0  0  0  0  0  0  0  0  0  0  0  0
  150.4018  138.0518  158.8935 C   0  0  2  0  0  0  0  0  0  0  0  0
  150.2007  136.6943  159.2800 O   0  0  0  0  0  0  0  0  0  0  0  0
  148.9876  136.2135  158.7811 C   0  0  1  0  0  0  0  0  0  0  0  0
  148.1021  135.7548  159.9295 N   0  0  0  0  0  0  0  0  0  0  0  0
  147.8328  136.6317  160.9728 C   0  0  0  0  0  0  0  0  0  0  0  0
  147.0404  136.3153  162.0240 C   0  0  0  0  0  0  0  0  0  0  0  0
  146.8365  137.2191  162.9972 F   0  0  0  0  0  0  0  0  0  0  0  0
  146.4049  135.0047  162.1084 C   0  0  0  0  0  0  0  0  0  0  0  0
  145.6756  134.6228  163.0213 O   0  0  0  0  0  0  0  0  0  0  0  0
  146.6851  134.1598  161.0318 N   0  0  0  0  0  0  0  0  0  0  0  0
  147.4977  134.4744  159.9411 C   0  0  0  0  0  0  0  0  0  0  0  0
  147.6631  133.6427  159.0529 O   0  0  0  0  0  0  0  0  0  0  0  0
  148.3842  137.2787  157.8352 C   0  0  1  0  0  0  0  0  0  0  0  0
  147.2477  137.9592  158.3579 O   0  0  0  0  0  0  0  0  0  0  0  0
  146.0770  137.3142  158.5147 C   0  0  0  0  0  0  0  0  0  0  0  0
  144.9781  138.2291  159.0374 C   0  0  0  0  0  0  0  0  0  0  0  0
  145.8704  136.1209  158.2948 O   0  0  0  0  0  0  0  0  0  0  0  0
  149.5386  138.2521  157.6428 C   0  0  2  0  0  0  0  0  0  0  0  0
  150.2576  137.9308  156.4554 O   0  0  0  0  0  0  0  0  0  0  0  0
  151.0367  138.8529  155.8618 C   0  0  0  0  0  0  0  0  0  0  0  0
  151.6974  138.3262  154.5949 C   0  0  0  0  0  0  0  0  0  0  0  0
  151.2221  140.0051  156.2535 O   0  0  0  0  0  0  0  0  0  0  0  0
  146.2618  133.2432  161.0430 H   0  0  0  0  0  0  0  0  0  0  0  0
  152.3256  142.1133  159.3390 H   0  0  0  0  0  0  0  0  0  0  0  0
  153.9442  142.2580  158.6406 H   0  0  0  0  0  0  0  0  0  0  0  0
  153.7524  141.8672  160.3551 H   0  0  0  0  0  0  0  0  0  0  0  0
  152.2218  137.9840  157.7277 H   0  0  0  0  0  0  0  0  0  0  0  0
  152.4892  137.8417  159.4623 H   0  0  0  0  0  0  0  0  0  0  0  0
  150.0102  138.7033  159.6736 H   0  0  0  0  0  0  0  0  0  0  0  0
  149.2352  135.3082  158.2260 H   0  0  0  0  0  0  0  0  0  0  0  0
  148.2784  137.6160  160.9657 H   0  0  0  0  0  0  0  0  0  0  0  0
  148.1293  136.8032  156.8866 H   0  0  0  0  0  0  0  0  0  0  0  0
  145.3377  138.8045  159.8908 H   0  0  0  0  0  0  0  0  0  0  0  0
  144.1129  137.6465  159.3540 H   0  0  0  0  0  0  0  0  0  0  0  0
  144.6623  138.9228  158.2582 H   0  0  0  0  0  0  0  0  0  0  0  0
  149.1940  139.2865  157.5894 H   0  0  0  0  0  0  0  0  0  0  0  0
  152.2041  137.3821  154.7950 H   0  0  0  0  0  0  0  0  0  0  0  0
  152.4327  139.0395  154.2218 H   0  0  0  0  0  0  0  0  0  0  0  0
  150.9501  138.1621  153.8186 H   0  0  0  0  0  0  0  0  0  0  0  0
  1  2  1  0  0  0  0
  1 29  1  0  0  0  0
  1 30  1  0  0  0  0
  1 31  1  0  0  0  0
  2  3  2  0  0  0  0
  2  4  1  0  0  0  0
  4  5  1  0  0  0  0
  5  6  1  0  0  0  0
  5 32  1  0  0  0  0
  5 33  1  0  0  0  0
  6 23  1  0  0  0  0
  6  7  1  0  0  0  0
  6 34  1  0  0  0  0
  7  8  1  0  0  0  0
  8  9  1  0  0  0  0
  8 18  1  0  0  0  0
  8 35  1  0  0  0  0
  9 16  1  0  0  0  0
  9 10  1  0  0  0  0
 10 11  2  0  0  0  0
 10 36  1  0  0  0  0
 11 12  1  0  0  0  0
 11 13  1  0  0  0  0
 13 14  2  0  0  0  0
 13 15  1  0  0  0  0
 15 28  1  0  0  0  0
 15 16  1  0  0  0  0
 16 17  2  0  0  0  0
 18 19  1  0  0  0  0
 18 23  1  0  0  0  0
 18 37  1  0  0  0  0
 19 20  1  0  0  0  0
 20 21  1  0  0  0  0
 20 22  2  0  0  0  0
 21 38  1  0  0  0  0
 21 39  1  0  0  0  0
 21 40  1  0  0  0  0
 23 24  1  0  0  0  0
 23 41  1  0  0  0  0
 24 25  1  0  0  0  0
 25 26  1  0  0  0  0
 25 27  2  0  0  0  0
 26 42  1  0  0  0  0
 26 43  1  0  0  0  0
 26 44  1  0  0  0  0
M  END
> <s_m_source_file>
AV-unprocessed.smi

> <i_m_source_file_index>
102

> <i_lp_mmshare_version>
43012

> <i_f3d_flags>
0

> <s_epik_input>
W0NIM11DKD1PKU9bQ0gyXVtDQEBIXTFPW0NASF0oW0NAQEhdKE9DKD1PKVtDSDNdKVtDQEhdMU9DKD1PKVtDSDNdKW4yW2NIXWMoRiljKD1PKVtuSF1jMj1P

> <s_epik_cmdline>
J2VwaWtfcHl0aG9uJywgJy1waCcsICc3LjAnLCAnLXRuJywgJzgnLCAnLW1hJywgJzIwMCcsICctbWV0YWxfYmluZGluZycsICctaW1hZScsICc8aW5maWxlLm1hZT4nLCAnLW9tYWUnLCAnPG91dGZpbGUubWFlPic=

> <r_lp_tautomer_probability>
0.999537

> <r_epik_Ionization_Penalty>
0.058267

> <r_epik_Ionization_Penalty_Charging>
0.058267

> <r_epik_Ionization_Penalty_Neutral>
6.57791e-16

> <r_epik_State_Penalty>
0.0503774

> <r_epik_Charging_Adjusted_Penalty>
0.108644

> <i_epik_Tot_Q>
0

> <i_epik_Tot_abs_Q>
0

> <r_epik_Metal_State_Penalty>
2.6644

> <b_epik_Metal_Only>
0

> <s_epik_Chemistry_Notes>
This compound has an ester and may undergo hydrolysis at high or low pH. This compound contains an acetal/aminal-like group ( X-CH(R)-Y where X, Y are N, S, or O) that may be acid/base labile, releasing an aldehyde.

> <s_lp_Force_Field>
OPLS_2005

> <r_lp_Energy>
10.5548

> <b_lp_Chiralities_Consistent>
1

> <s_lp_Variant>
AV-unprocessed.smi:102-9

> <Gold.Version>
5.8.1

> <Gold.Id.Protein>
6NUR|6NUR_protein|mol2

> <Gold.PLP.Fitness>
41.7711

> <Gold.PLP.PLP>
-37.3371

> <Gold.PLP.part.hbond>
-4.0000

> <Gold.PLP.part.metal>
0.0000

> <Gold.PLP.part.buried>
-6.2612

> <Gold.PLP.part.nonpolar>
-28.4709

> <Gold.PLP.part.repulsive>
0.0437

> <Gold.PLP.ligand.clash>
0.0000

> <Gold.PLP.ligand.torsion>
0.8822

> <Gold.PLP.Chemscore.Hbond>
2.0000

> <Gold.PLP.Chemscore.CHOScore>
0.0000

> <Gold.PLP.Chemscore.Metal>
0.0000

> <Gold.Chemscore.Hbonds>
donor molecule, donor type, donor heavy atom, donor atom, acceptor molecule, acceptor atom, score
      P1  H  6896  6907       L1     7  0.75
      P1  H  7997  8008       L1     3  1.00

> <Gold.PLP.Chemscore.Internal.Correction>
0.1985

> <Gold.Rescore>
     Score         DG    S(hbond)    S(metal)    S(lipo)     H(rot)  DE(clash)    DE(int)     intcor
      2.12      -6.03       1.71        0.00      44.61       4.05       0.26       3.66       ----

> <Gold.Chemscore.Fitness>
2.1181

> <Gold.Chemscore.DG>
-6.0328

> <Gold.Chemscore.ZeroCoef>
-5.4800

> <Gold.Chemscore.Hbond>
1.7084

> <Gold.Chemscore.Metal>
0.0000

> <Gold.Chemscore.Lipo>
44.6140

> <Gold.Chemscore.Internal_Hbond>
0.0000

> <Gold.Chemscore.DEClash>
0.2566

> <Gold.Chemscore.DEInternal>
3.6581

> <Gold.Chemscore.Rot>
4.0520

> <Gold.Chemscore.Internal.Correction>
   9.000000E+99

> <Gold.Chemscore.Hbonds>
donor molecule, donor type, donor heavy atom, donor atom, acceptor molecule, acceptor atom, score
      P1  H  6896  6907       L1     7  0.09
      P1  H  7997  8008       L1     3  0.49

> <Gold.Chemscore.Hbond.Weighted>
-5.7062

> <Gold.Chemscore.Metal.Weighted>
-0.0000

> <Gold.Chemscore.Lipo.Weighted>
-5.2198

> <Gold.Chemscore.Internal_Hbond.Weighted>
0.0000

> <Gold.Chemscore.DEClash.Weighted>
0.2566

> <Gold.Chemscore.DEInternal.Weighted>
3.6581

> <Gold.Chemscore.Rot.Weighted>
10.3732

> <Gold.Chemscore.Internal.Correction.Weighted>
   9.000000E+99

> <Gold.Protein.RotatedTorsions>
[ 6907 6896 6895 6894 ] final  -45.64 input  -60.11 | X-H torsion
[ 7974 7965 7964 7962 ] final   90.48 input  175.53 | X-H torsion
[ 8008 7997 7996 7995 ] final -128.76 input   59.86 | X-H torsion
[ 10167 10162 10161 10158 ] final -134.63 input  -65.29 | X-H torsion
[ 10718 10713 10712 10709 ] final   -4.36 input   66.30 | X-H torsion
[ 10763 10752 10751 10750 ] final -120.61 input  -60.55 | X-H torsion
[ 11005 11000 10999 10996 ] final   25.59 input  -57.11 | X-H torsion

> <Gold.Protein.ActiveResidues>
 VAL166  LYS551  ARG553  GLY616  TRP617  ASP618  TYR619  PRO620  LYS621  CYS622 
 ASP623  PHE694  ASN695  SER759  ASP760  ASP761  ALA762  ILE779  LEU786  VAL792 
 PHE793  MET794  SER795  GLU796  ALA797  LYS798  CYS799  TRP800  GLU811  SER814 

> <Gold.Protein.RotatedAtoms>
  150.9198  134.8615  159.7480 H   0  0  0  0  0  0  0  0  0  0  0  0  # atno 6907 bound_to 6896
  152.4987  134.4235  159.9498 H   0  0  0  0  0  0  0  0  0  0  0  0  # atno 6908 bound_to 6896
  151.4270  133.3642  159.2799 H   0  0  0  0  0  0  0  0  0  0  0  0  # atno 6909 bound_to 6896
  145.5185  139.2278  143.2685 H   0  0  0  0  0  0  0  0  0  0  0  0  # atno 7974 bound_to 7965
  155.2680  140.0439  157.3004 H   0  0  0  0  0  0  0  0  0  0  0  0  # atno 8008 bound_to 7997
  154.5670  140.2363  155.8217 H   0  0  0  0  0  0  0  0  0  0  0  0  # atno 8009 bound_to 7997
  156.2093  140.3003  155.9704 H   0  0  0  0  0  0  0  0  0  0  0  0  # atno 8010 bound_to 7997
  139.8861  143.6780  152.2620 H   0  0  0  0  0  0  0  0  0  0  0  0  # atno 10167 bound_to 10162
  156.7625  130.5274  149.5782 H   0  0  0  0  0  0  0  0  0  0  0  0  # atno 10718 bound_to 10713
  154.8648  135.4197  154.2487 H   0  0  0  0  0  0  0  0  0  0  0  0  # atno 10763 bound_to 10752
  153.3438  135.6995  153.6851 H   0  0  0  0  0  0  0  0  0  0  0  0  # atno 10764 bound_to 10752
  153.5818  135.3571  155.2851 H   0  0  0  0  0  0  0  0  0  0  0  0  # atno 10765 bound_to 10752
  140.3462  134.2278  155.7684 H   0  0  0  0  0  0  0  0  0  0  0  0  # atno 11005 bound_to 11000
  146.2121  140.5995  142.9055 LP  0  0  0  0  0  0  0  0  0  0  0  0  # atno 17320 bound_to 7965
  144.7689  140.5593  143.6684 LP  0  0  0  0  0  0  0  0  0  0  0  0  # atno 17321 bound_to 7965
  139.7152  144.7613  151.1046 LP  0  0  0  0  0  0  0  0  0  0  0  0  # atno 17342 bound_to 10162
  140.7735  143.5279  150.9459 LP  0  0  0  0  0  0  0  0  0  0  0  0  # atno 17343 bound_to 10162
  156.1330  130.6191  151.0360 LP  0  0  0  0  0  0  0  0  0  0  0  0  # atno 17370 bound_to 10713
  157.6728  131.0857  150.7569 LP  0  0  0  0  0  0  0  0  0  0  0  0  # atno 17371 bound_to 10713
  141.2025  133.7936  157.0389 LP  0  0  0  0  0  0  0  0  0  0  0  0  # atno 17394 bound_to 11000
  140.0740  134.9686  157.1515 LP  0  0  0  0  0  0  0  0  0  0  0  0  # atno 17395 bound_to 11000

$$$$
