AV-unprocessed.smi:1218|AV-procd|sdf|5106|dock8
  -GOLD-   22720 4163D 1   1.00000     0.00000
 Structure written by MMmdl.
 45 46  0  0  0  0  0  0  0  0  2 V2000
  149.0284  131.7004  154.8988 C   0  0  0  0  0  0  0  0  0  0  0  0
  148.6763  133.1078  154.3937 C   0  0  0  0  0  0  0  0  0  0  0  0
  148.1329  133.0422  152.9563 C   0  0  0  0  0  0  0  0  0  0  0  0
  149.8991  134.0440  154.5030 C   0  0  0  0  0  0  0  0  0  0  0  0
  149.5435  135.4832  154.4070 N   0  3  1  0  0  0  0  0  0  0  0  0
  148.3280  135.8466  155.1764 C   0  0  0  0  0  0  0  0  0  0  0  0
  148.0128  137.3410  155.0082 C   0  0  0  0  0  0  0  0  0  0  0  0
  149.1390  138.1096  155.4079 O   0  0  0  0  0  0  0  0  0  0  0  0
  150.2862  137.8522  154.6045 C   0  0  1  0  0  0  0  0  0  0  0  0
  151.4250  138.7922  155.0400 C   0  0  0  0  0  0  0  0  0  0  0  0
  150.9183  140.0696  155.5319 N   0  0  0  0  0  0  0  0  0  0  0  0
  151.4685  140.7894  156.5221 C   0  0  0  0  0  0  0  0  0  0  0  0
  152.4776  140.4324  157.1320 O   0  0  0  0  0  0  0  0  0  0  0  0
  150.7586  142.1029  156.8714 C   0  0  0  0  0  0  0  0  0  0  0  0
  151.5821  142.9826  157.6849 N   0  0  0  0  0  0  0  0  0  0  0  0
  151.7697  144.3437  157.5566 C   0  0  0  0  0  0  0  0  0  0  0  0
  152.6274  144.7311  158.5458 C   0  0  0  0  0  0  0  0  0  0  0  0
  152.9112  143.5215  159.2398 C   0  0  0  0  0  0  0  0  0  0  0  0
  152.2824  142.4776  158.7241 N   0  0  0  0  0  0  0  0  0  0  0  0
  150.6736  136.3697  154.7754 C   0  0  0  0  0  0  0  0  0  0  0  0
  149.8199  131.2494  154.2996 H   0  0  0  0  0  0  0  0  0  0  0  0
  148.1625  131.0387  154.8576 H   0  0  0  0  0  0  0  0  0  0  0  0
  149.3696  131.7280  155.9342 H   0  0  0  0  0  0  0  0  0  0  0  0
  147.8796  133.4800  155.0373 H   0  0  0  0  0  0  0  0  0  0  0  0
  148.8887  132.6711  152.2632 H   0  0  0  0  0  0  0  0  0  0  0  0
  147.8117  134.0229  152.6053 H   0  0  0  0  0  0  0  0  0  0  0  0
  147.2709  132.3775  152.8927 H   0  0  0  0  0  0  0  0  0  0  0  0
  150.4352  133.8701  155.4374 H   0  0  0  0  0  0  0  0  0  0  0  0
  150.5962  133.7886  153.7032 H   0  0  0  0  0  0  0  0  0  0  0  0
  147.4726  135.2606  154.8426 H   0  0  0  0  0  0  0  0  0  0  0  0
  148.4801  135.6177  156.2324 H   0  0  0  0  0  0  0  0  0  0  0  0
  147.7444  137.5718  153.9760 H   0  0  0  0  0  0  0  0  0  0  0  0
  147.1599  137.6169  155.6286 H   0  0  0  0  0  0  0  0  0  0  0  0
  150.0484  138.0480  153.5570 H   0  0  0  0  0  0  0  0  0  0  0  0
  152.0586  138.3116  155.7875 H   0  0  0  0  0  0  0  0  0  0  0  0
  152.0691  139.0058  154.1865 H   0  0  0  0  0  0  0  0  0  0  0  0
  150.0897  140.4352  155.0852 H   0  0  0  0  0  0  0  0  0  0  0  0
  150.4882  142.6357  155.9588 H   0  0  0  0  0  0  0  0  0  0  0  0
  149.8307  141.8800  157.4008 H   0  0  0  0  0  0  0  0  0  0  0  0
  151.2852  144.9148  156.7783 H   0  0  0  0  0  0  0  0  0  0  0  0
  152.9965  145.7264  158.7433 H   0  0  0  0  0  0  0  0  0  0  0  0
  153.5506  143.3719  160.0973 H   0  0  0  0  0  0  0  0  0  0  0  0
  150.9677  136.1731  155.8079 H   0  0  0  0  0  0  0  0  0  0  0  0
  151.5356  136.1422  154.1469 H   0  0  0  0  0  0  0  0  0  0  0  0
  149.3460  135.6673  153.4336 H   0  0  0  0  0  0  0  0  0  0  0  0
  1  2  1  0  0  0  0
  1 21  1  0  0  0  0
  1 22  1  0  0  0  0
  1 23  1  0  0  0  0
  2  3  1  0  0  0  0
  2  4  1  0  0  0  0
  2 24  1  0  0  0  0
  3 25  1  0  0  0  0
  3 26  1  0  0  0  0
  3 27  1  0  0  0  0
  4  5  1  0  0  0  0
  4 28  1  0  0  0  0
  4 29  1  0  0  0  0
  5 20  1  0  0  0  0
  5  6  1  0  0  0  0
  5 45  1  0  0  0  0
  6  7  1  0  0  0  0
  6 30  1  0  0  0  0
  6 31  1  0  0  0  0
  7  8  1  0  0  0  0
  7 32  1  0  0  0  0
  7 33  1  0  0  0  0
  8  9  1  0  0  0  0
  9 10  1  0  0  0  0
  9 20  1  0  0  0  0
  9 34  1  0  0  0  0
 10 11  1  0  0  0  0
 10 35  1  0  0  0  0
 10 36  1  0  0  0  0
 11 12  1  0  0  0  0
 11 37  1  0  0  0  0
 12 13  2  0  0  0  0
 12 14  1  0  0  0  0
 14 15  1  0  0  0  0
 14 38  1  0  0  0  0
 14 39  1  0  0  0  0
 15 19  1  0  0  0  0
 15 16  1  0  0  0  0
 16 17  2  0  0  0  0
 16 40  1  0  0  0  0
 17 18  1  0  0  0  0
 17 41  1  0  0  0  0
 18 19  2  0  0  0  0
 18 42  1  0  0  0  0
 20 43  1  0  0  0  0
 20 44  1  0  0  0  0
M  CHG  1   5   1
M  END
> <s_m_source_file>
AV-unprocessed.smi

> <i_m_source_file_index>
1218

> <i_lp_mmshare_version>
43012

> <i_f3d_flags>
0

> <s_epik_input>
W0NIM11bQ0hdKFtDSDNdKVtDSDJdTjFbQ0gyXVtDSDJdT1tDQEhdKFtDSDJdMSlbQ0gyXVtOSF1DKD1PKVtDSDJdbjJbY0hdW2NIXVtjSF1uMg==

> <s_epik_cmdline>
J2VwaWtfcHl0aG9uJywgJy1waCcsICc3LjAnLCAnLXRuJywgJzgnLCAnLW1hJywgJzIwMCcsICctbWV0YWxfYmluZGluZycsICctaW1hZScsICc8aW5maWxlLm1hZT4nLCAnLW9tYWUnLCAnPG91dGZpbGUubWFlPic=

> <r_lp_tautomer_probability>
1

> <r_epik_Ionization_Penalty>
0.0995066

> <r_epik_Ionization_Penalty_Charging>
0.0994921

> <r_epik_Ionization_Penalty_Neutral>
1.44634e-05

> <r_epik_State_Penalty>
0.0895432

> <r_epik_Charging_Adjusted_Penalty>
0.189035

> <i_epik_Tot_Q>
1

> <i_epik_Tot_abs_Q>
1

> <r_epik_Metal_State_Penalty>
0.0895432

> <b_epik_Metal_Only>
0

> <s_lp_Force_Field>
OPLS_2005

> <r_lp_Energy>
18.9521

> <b_lp_Chiralities_Consistent>
1

> <s_lp_Variant>
AV-unprocessed.smi:1218-1

> <Gold.Version>
5.8.1

> <Gold.Id.Protein>
6NUR|6NUR_protein|mol2

> <Gold.PLP.Fitness>
49.7436

> <Gold.PLP.PLP>
-40.0786

> <Gold.PLP.part.hbond>
-2.0343

> <Gold.PLP.part.metal>
0.0000

> <Gold.PLP.part.buried>
-2.8204

> <Gold.PLP.part.nonpolar>
-35.2040

> <Gold.PLP.part.repulsive>
0.2161

> <Gold.PLP.ligand.clash>
0.0000

> <Gold.PLP.ligand.torsion>
1.1418

> <Gold.PLP.Chemscore.Hbond>
2.9440

> <Gold.PLP.Chemscore.CHOScore>
0.9955

> <Gold.PLP.Chemscore.Metal>
0.0000

> <Gold.Chemscore.Hbonds>
donor molecule, donor type, donor heavy atom, donor atom, acceptor molecule, acceptor atom, score
      L1  H     5    45       P1  7948  2.00
      P1  H  7997  8008       L1    13  0.93
      L1  C    16    40       P1  8028  0.80

> <Gold.PLP.Chemscore.Internal.Correction>
0.1301

> <Gold.Rescore>
     Score         DG    S(hbond)    S(metal)    S(lipo)     H(rot)  DE(clash)    DE(int)     intcor
     14.79     -17.33       1.90        0.00      90.07       1.96       0.00       2.54       ----

> <Gold.Chemscore.Fitness>
14.7912

> <Gold.Chemscore.DG>
-17.3337

> <Gold.Chemscore.ZeroCoef>
-5.4800

> <Gold.Chemscore.Hbond>
1.8980

> <Gold.Chemscore.Metal>
0.0000

> <Gold.Chemscore.Lipo>
90.0685

> <Gold.Chemscore.Internal_Hbond>
0.0000

> <Gold.Chemscore.DEClash>
0.0038

> <Gold.Chemscore.DEInternal>
2.5387

> <Gold.Chemscore.Rot>
1.9624

> <Gold.Chemscore.Internal.Correction>
   9.000000E+99

> <Gold.Chemscore.Hbonds>
donor molecule, donor type, donor heavy atom, donor atom, acceptor molecule, acceptor atom, score
      L1  H     5    45       P1  7948  0.35
      P1  H  7997  8008       L1    13  0.87

> <Gold.Chemscore.Hbond.Weighted>
-6.3394

> <Gold.Chemscore.Metal.Weighted>
-0.0000

> <Gold.Chemscore.Lipo.Weighted>
-10.5380

> <Gold.Chemscore.Internal_Hbond.Weighted>
0.0000

> <Gold.Chemscore.DEClash.Weighted>
0.0038

> <Gold.Chemscore.DEInternal.Weighted>
2.5387

> <Gold.Chemscore.Rot.Weighted>
5.0237

> <Gold.Chemscore.Internal.Correction.Weighted>
   9.000000E+99

> <Gold.Protein.RotatedTorsions>
[ 6907 6896 6895 6894 ] final  -99.88 input  -60.11 | X-H torsion
[ 7974 7965 7964 7962 ] final -129.60 input  175.53 | X-H torsion
[ 8008 7997 7996 7995 ] final  -57.75 input   59.86 | X-H torsion
[ 10167 10162 10161 10158 ] final -148.78 input  -65.29 | X-H torsion
[ 10718 10713 10712 10709 ] final  -84.93 input   66.30 | X-H torsion
[ 10763 10752 10751 10750 ] final  112.84 input  -60.55 | X-H torsion
[ 11005 11000 10999 10996 ] final  -39.89 input  -57.11 | X-H torsion

> <Gold.Protein.ActiveResidues>
 VAL166  LYS551  ARG553  GLY616  TRP617  ASP618  TYR619  PRO620  LYS621  CYS622 
 ASP623  PHE694  ASN695  SER759  ASP760  ASP761  ALA762  ILE779  LEU786  VAL792 
 PHE793  MET794  SER795  GLU796  ALA797  LYS798  CYS799  TRP800  GLU811  SER814 

> <Gold.Protein.RotatedAtoms>
  150.7095  134.0973  159.3952 H   0  0  0  0  0  0  0  0  0  0  0  0  # atno 6907 bound_to 6896
  151.8959  135.0395  160.0511 H   0  0  0  0  0  0  0  0  0  0  0  0  # atno 6908 bound_to 6896
  152.2454  133.5134  159.5331 H   0  0  0  0  0  0  0  0  0  0  0  0  # atno 6909 bound_to 6896
  144.9556  140.7392  143.4761 H   0  0  0  0  0  0  0  0  0  0  0  0  # atno 7974 bound_to 7965
  154.4281  140.1099  156.5848 H   0  0  0  0  0  0  0  0  0  0  0  0  # atno 8008 bound_to 7997
  155.6075  140.3494  155.4593 H   0  0  0  0  0  0  0  0  0  0  0  0  # atno 8009 bound_to 7997
  156.0126  140.1222  157.0428 H   0  0  0  0  0  0  0  0  0  0  0  0  # atno 8010 bound_to 7997
  139.7501  143.8531  152.2584 H   0  0  0  0  0  0  0  0  0  0  0  0  # atno 10167 bound_to 10162
  156.0001  130.4714  150.4485 H   0  0  0  0  0  0  0  0  0  0  0  0  # atno 10718 bound_to 10713
  153.4837  135.3674  155.2455 H   0  0  0  0  0  0  0  0  0  0  0  0  # atno 10763 bound_to 10752
  154.8754  135.3960  154.3670 H   0  0  0  0  0  0  0  0  0  0  0  0  # atno 10764 bound_to 10752
  153.4278  135.7081  153.6316 H   0  0  0  0  0  0  0  0  0  0  0  0  # atno 10765 bound_to 10752
  141.0135  133.6896  156.2247 H   0  0  0  0  0  0  0  0  0  0  0  0  # atno 11005 bound_to 11000
  145.2777  139.1930  143.4807 LP  0  0  0  0  0  0  0  0  0  0  0  0  # atno 17320 bound_to 7965
  146.3336  140.2734  142.8607 LP  0  0  0  0  0  0  0  0  0  0  0  0  # atno 17321 bound_to 7965
  139.8507  144.7166  150.9218 LP  0  0  0  0  0  0  0  0  0  0  0  0  # atno 17342 bound_to 10162
  140.7797  143.3902  151.1324 LP  0  0  0  0  0  0  0  0  0  0  0  0  # atno 17343 bound_to 10162
  157.2520  131.0548  151.2373 LP  0  0  0  0  0  0  0  0  0  0  0  0  # atno 17370 bound_to 10713
  157.3519  130.7086  149.6446 LP  0  0  0  0  0  0  0  0  0  0  0  0  # atno 17371 bound_to 10713
  140.6694  134.4884  157.5586 LP  0  0  0  0  0  0  0  0  0  0  0  0  # atno 17394 bound_to 11000
  139.9103  134.8359  156.1552 LP  0  0  0  0  0  0  0  0  0  0  0  0  # atno 17395 bound_to 11000

$$$$
