AV-unprocessed.smi:1978|AV-procd|sdf|7996|dock6
  -GOLD-   2272010183D 1   1.00000     0.00000
 Structure written by MMmdl.
 45 46  0  0  0  0  0  0  0  0  2 V2000
  151.6966  141.4763  157.4401 C   0  0  0  0  0  0  0  0  0  0  0  0
  151.3789  140.5469  156.3193 C   0  0  0  0  0  0  0  0  0  0  0  0
  150.2355  140.2950  155.6145 C   0  0  0  0  0  0  0  0  0  0  0  0
  150.6412  139.2909  154.6956 C   0  0  0  0  0  0  0  0  0  0  0  0
  149.7235  138.7414  153.7645 N   0  0  0  0  0  0  0  0  0  0  0  0
  148.4343  139.0789  153.5916 C   0  0  0  0  0  0  0  0  0  0  0  0
  147.8320  139.9359  154.2389 O   0  0  0  0  0  0  0  0  0  0  0  0
  147.8712  138.3681  152.6030 N   0  0  0  0  0  0  0  0  0  0  0  0
  146.4857  138.4926  152.1558 C   0  0  0  0  0  0  0  0  0  0  0  0
  145.5702  137.3885  152.7419 C   0  0  2  0  0  0  0  0  0  0  0  0
  145.0677  137.6941  154.1705 C   0  0  0  0  0  0  0  0  0  0  0  0
  146.2158  136.0387  152.6369 N   0  3  1  0  0  0  0  0  0  0  0  0
  146.7410  135.5237  153.9368 C   0  0  0  0  0  0  0  0  0  0  0  0
  147.6294  134.2885  153.7353 C   0  0  0  0  0  0  0  0  0  0  0  0
  146.8516  133.1823  153.0203 C   0  0  0  0  0  0  0  0  0  0  0  0
  146.2858  133.7215  151.7029 C   0  0  0  0  0  0  0  0  0  0  0  0
  145.4231  134.9858  151.9159 C   0  0  2  0  0  0  0  0  0  0  0  0
  144.8728  135.4448  150.5498 C   0  0  0  0  0  0  0  0  0  0  0  0
  151.9170  138.9613  154.8261 N   0  0  0  0  0  0  0  0  0  0  0  0
  152.3964  139.7648  155.8672 O   0  0  0  0  0  0  0  0  0  0  0  0
  150.8320  142.0885  157.6966 H   0  0  0  0  0  0  0  0  0  0  0  0
  152.5147  142.1435  157.1687 H   0  0  0  0  0  0  0  0  0  0  0  0
  151.9930  140.9206  158.3297 H   0  0  0  0  0  0  0  0  0  0  0  0
  149.2668  140.7552  155.7404 H   0  0  0  0  0  0  0  0  0  0  0  0
  150.0923  138.0233  153.1587 H   0  0  0  0  0  0  0  0  0  0  0  0
  148.4431  137.6861  152.1263 H   0  0  0  0  0  0  0  0  0  0  0  0
  146.1274  139.4705  152.4790 H   0  0  0  0  0  0  0  0  0  0  0  0
  146.4552  138.5090  151.0670 H   0  0  0  0  0  0  0  0  0  0  0  0
  144.6995  137.4067  152.0914 H   0  0  0  0  0  0  0  0  0  0  0  0
  144.4473  138.5899  154.1878 H   0  0  0  0  0  0  0  0  0  0  0  0
  145.8924  137.8596  154.8638 H   0  0  0  0  0  0  0  0  0  0  0  0
  144.4542  136.8848  154.5649 H   0  0  0  0  0  0  0  0  0  0  0  0
  147.3266  136.2805  154.4546 H   0  0  0  0  0  0  0  0  0  0  0  0
  145.9113  135.2665  154.5965 H   0  0  0  0  0  0  0  0  0  0  0  0
  148.5130  134.5580  153.1549 H   0  0  0  0  0  0  0  0  0  0  0  0
  147.9889  133.9259  154.6987 H   0  0  0  0  0  0  0  0  0  0  0  0
  147.4996  132.3258  152.8320 H   0  0  0  0  0  0  0  0  0  0  0  0
  146.0388  132.8281  153.6558 H   0  0  0  0  0  0  0  0  0  0  0  0
  147.1078  133.9478  151.0219 H   0  0  0  0  0  0  0  0  0  0  0  0
  145.6956  132.9406  151.2217 H   0  0  0  0  0  0  0  0  0  0  0  0
  144.5733  134.7089  152.5415 H   0  0  0  0  0  0  0  0  0  0  0  0
  144.4537  134.6034  149.9973 H   0  0  0  0  0  0  0  0  0  0  0  0
  145.6545  135.8859  149.9305 H   0  0  0  0  0  0  0  0  0  0  0  0
  144.0635  136.1673  150.6520 H   0  0  0  0  0  0  0  0  0  0  0  0
  147.0282  136.1909  152.0565 H   0  0  0  0  0  0  0  0  0  0  0  0
  1  2  1  0  0  0  0
  1 21  1  0  0  0  0
  1 22  1  0  0  0  0
  1 23  1  0  0  0  0
  2 20  1  0  0  0  0
  2  3  2  0  0  0  0
  3  4  1  0  0  0  0
  3 24  1  0  0  0  0
  4  5  1  0  0  0  0
  4 19  2  0  0  0  0
  5  6  1  0  0  0  0
  5 25  1  0  0  0  0
  6  7  2  0  0  0  0
  6  8  1  0  0  0  0
  8  9  1  0  0  0  0
  8 26  1  0  0  0  0
  9 10  1  0  0  0  0
  9 27  1  0  0  0  0
  9 28  1  0  0  0  0
 10 11  1  0  0  0  0
 10 12  1  0  0  0  0
 10 29  1  0  0  0  0
 11 30  1  0  0  0  0
 11 31  1  0  0  0  0
 11 32  1  0  0  0  0
 12 17  1  0  0  0  0
 12 13  1  0  0  0  0
 12 45  1  0  0  0  0
 13 14  1  0  0  0  0
 13 33  1  0  0  0  0
 13 34  1  0  0  0  0
 14 15  1  0  0  0  0
 14 35  1  0  0  0  0
 14 36  1  0  0  0  0
 15 16  1  0  0  0  0
 15 37  1  0  0  0  0
 15 38  1  0  0  0  0
 16 17  1  0  0  0  0
 16 39  1  0  0  0  0
 16 40  1  0  0  0  0
 17 18  1  0  0  0  0
 17 41  1  0  0  0  0
 18 42  1  0  0  0  0
 18 43  1  0  0  0  0
 18 44  1  0  0  0  0
 19 20  1  0  0  0  0
M  CHG  1  12   1
M  END
> <s_m_source_file>
AV-unprocessed.smi

> <i_m_source_file_index>
1978

> <i_lp_mmshare_version>
43012

> <i_f3d_flags>
0

> <s_epik_input>
W0NIM11jMVtjSF1jKG5vMSlbTkhdQyg9TylbTkhdW0NIMl1bQ0BIXShbQ0gzXSlOMltDSDJdW0NIMl1bQ0gyXVtDSDJdW0NASF0yW0NIM10=

> <s_epik_cmdline>
J2VwaWtfcHl0aG9uJywgJy1waCcsICc3LjAnLCAnLXRuJywgJzgnLCAnLW1hJywgJzIwMCcsICctbWV0YWxfYmluZGluZycsICctaW1hZScsICc8aW5maWxlLm1hZT4nLCAnLW9tYWUnLCAnPG91dGZpbGUubWFlPic=

> <r_epik_Ionization_Penalty>
0.00265971

> <r_epik_Ionization_Penalty_Charging>
0.00262393

> <r_epik_Ionization_Penalty_Neutral>
3.57846e-05

> <r_epik_State_Penalty>
0.00182566

> <r_epik_Charging_Adjusted_Penalty>
0.00444959

> <i_epik_Tot_Q>
1

> <i_epik_Tot_abs_Q>
1

> <r_epik_Metal_State_Penalty>
0.0216344

> <b_epik_Metal_Only>
0

> <s_lp_Force_Field>
OPLS_2005

> <r_lp_Energy>
21.464

> <b_lp_Chiralities_Consistent>
1

> <s_lp_Variant>
AV-unprocessed.smi:1978-5

> <Gold.Version>
5.8.1

> <Gold.Id.Protein>
6NUR|6NUR_protein|mol2

> <Gold.PLP.Fitness>
39.8340

> <Gold.PLP.PLP>
-30.8664

> <Gold.PLP.part.hbond>
-5.5623

> <Gold.PLP.part.metal>
0.0000

> <Gold.PLP.part.buried>
-0.4406

> <Gold.PLP.part.nonpolar>
-25.0348

> <Gold.PLP.part.repulsive>
0.3281

> <Gold.PLP.ligand.clash>
0.0000

> <Gold.PLP.ligand.torsion>
1.5850

> <Gold.PLP.Chemscore.Hbond>
4.0000

> <Gold.PLP.Chemscore.CHOScore>
0.0000

> <Gold.PLP.Chemscore.Metal>
0.0000

> <Gold.Chemscore.Hbonds>
donor molecule, donor type, donor heavy atom, donor atom, acceptor molecule, acceptor atom, score
      L1  H     8    26       P1  7948  1.00
      L1  H    12    45       P1  7948  2.00
      P1  H  7997  8008       L1    20  1.00

> <Gold.PLP.Chemscore.Internal.Correction>
0.1375

> <Gold.Rescore>
     Score         DG    S(hbond)    S(metal)    S(lipo)     H(rot)  DE(clash)    DE(int)     intcor
     15.12     -18.21       2.97        0.00      57.96       1.55       0.11       2.99       ----

> <Gold.Chemscore.Fitness>
15.1181

> <Gold.Chemscore.DG>
-18.2134

> <Gold.Chemscore.ZeroCoef>
-5.4800

> <Gold.Chemscore.Hbond>
2.9680

> <Gold.Chemscore.Metal>
0.0000

> <Gold.Chemscore.Lipo>
57.9625

> <Gold.Chemscore.Internal_Hbond>
0.0000

> <Gold.Chemscore.DEClash>
0.1095

> <Gold.Chemscore.DEInternal>
2.9858

> <Gold.Chemscore.Rot>
1.5474

> <Gold.Chemscore.Internal.Correction>
   9.000000E+99

> <Gold.Chemscore.Hbonds>
donor molecule, donor type, donor heavy atom, donor atom, acceptor molecule, acceptor atom, score
      L1  H     5    25       P1  7948  0.01
      L1  H     8    26       P1  7948  0.92
      L1  H    12    45       P1  7948  0.95
      P1  H  7997  8008       L1    20  0.92

> <Gold.Chemscore.Hbond.Weighted>
-9.9130

> <Gold.Chemscore.Metal.Weighted>
-0.0000

> <Gold.Chemscore.Lipo.Weighted>
-6.7816

> <Gold.Chemscore.Internal_Hbond.Weighted>
0.0000

> <Gold.Chemscore.DEClash.Weighted>
0.1095

> <Gold.Chemscore.DEInternal.Weighted>
2.9858

> <Gold.Chemscore.Rot.Weighted>
3.9612

> <Gold.Chemscore.Internal.Correction.Weighted>
   9.000000E+99

> <Gold.Protein.RotatedTorsions>
[ 6907 6896 6895 6894 ] final  -93.61 input  -60.11 | X-H torsion
[ 7974 7965 7964 7962 ] final -102.00 input  175.53 | X-H torsion
[ 8008 7997 7996 7995 ] final  -42.72 input   59.86 | X-H torsion
[ 10167 10162 10161 10158 ] final   58.63 input  -65.29 | X-H torsion
[ 10718 10713 10712 10709 ] final -102.49 input   66.30 | X-H torsion
[ 10763 10752 10751 10750 ] final -105.79 input  -60.55 | X-H torsion
[ 11005 11000 10999 10996 ] final  -27.92 input  -57.11 | X-H torsion

> <Gold.Protein.ActiveResidues>
 VAL166  LYS551  ARG553  GLY616  TRP617  ASP618  TYR619  PRO620  LYS621  CYS622 
 ASP623  PHE694  ASN695  SER759  ASP760  ASP761  ALA762  ILE779  LEU786  VAL792 
 PHE793  MET794  SER795  GLU796  ALA797  LYS798  CYS799  TRP800  GLU811  SER814 

> <Gold.Protein.RotatedAtoms>
  150.6926  134.1940  159.4295 H   0  0  0  0  0  0  0  0  0  0  0  0  # atno 6907 bound_to 6896
  151.9909  134.9977  160.0570 H   0  0  0  0  0  0  0  0  0  0  0  0  # atno 6908 bound_to 6896
  152.1668  133.4582  159.4926 H   0  0  0  0  0  0  0  0  0  0  0  0  # atno 6909 bound_to 6896
  145.2743  140.9308  143.2968 H   0  0  0  0  0  0  0  0  0  0  0  0  # atno 7974 bound_to 7965
  154.3998  140.1466  156.3401 H   0  0  0  0  0  0  0  0  0  0  0  0  # atno 8008 bound_to 7997
  155.8364  140.3464  155.5583 H   0  0  0  0  0  0  0  0  0  0  0  0  # atno 8009 bound_to 7997
  155.8134  140.0887  157.1881 H   0  0  0  0  0  0  0  0  0  0  0  0  # atno 8010 bound_to 7997
  140.1852  144.4142  150.6597 H   0  0  0  0  0  0  0  0  0  0  0  0  # atno 10167 bound_to 10162
  156.0231  130.5423  150.7116 H   0  0  0  0  0  0  0  0  0  0  0  0  # atno 10718 bound_to 10713
  154.7970  135.4736  154.0184 H   0  0  0  0  0  0  0  0  0  0  0  0  # atno 10763 bound_to 10752
  153.1719  135.6826  153.8603 H   0  0  0  0  0  0  0  0  0  0  0  0  # atno 10764 bound_to 10752
  153.8182  135.3208  155.3385 H   0  0  0  0  0  0  0  0  0  0  0  0  # atno 10765 bound_to 10752
  140.9162  133.7428  156.0739 H   0  0  0  0  0  0  0  0  0  0  0  0  # atno 11005 bound_to 11000
  144.9308  139.4301  143.6496 LP  0  0  0  0  0  0  0  0  0  0  0  0  # atno 17320 bound_to 7965
  146.3236  139.8217  142.8925 LP  0  0  0  0  0  0  0  0  0  0  0  0  # atno 17321 bound_to 7965
  140.6493  143.2221  151.6114 LP  0  0  0  0  0  0  0  0  0  0  0  0  # atno 17342 bound_to 10162
  139.5279  144.3003  152.1079 LP  0  0  0  0  0  0  0  0  0  0  0  0  # atno 17343 bound_to 10162
  157.4753  131.0897  151.0597 LP  0  0  0  0  0  0  0  0  0  0  0  0  # atno 17370 bound_to 10713
  157.1046  130.5996  149.5468 LP  0  0  0  0  0  0  0  0  0  0  0  0  # atno 17371 bound_to 10713
  140.8046  134.3469  157.5429 LP  0  0  0  0  0  0  0  0  0  0  0  0  # atno 17394 bound_to 11000
  139.8766  134.9218  156.3285 LP  0  0  0  0  0  0  0  0  0  0  0  0  # atno 17395 bound_to 11000

$$$$
