AV-unprocessed.smi:1643|AV-procd|sdf|6574|dock7
  -GOLD-   22720 7263D 1   1.00000     0.00000
 Structure written by MMmdl.
 54 56  0  0  0  0  0  0  0  0  2 V2000
  145.8643  142.2057  154.6772 C   0  0  0  0  0  0  0  0  0  0  0  0
  145.6619  141.1789  155.7946 C   0  0  0  0  0  0  0  0  0  0  0  0
  144.8570  141.4469  156.6864 O   0  0  0  0  0  0  0  0  0  0  0  0
  146.3597  140.0166  155.7652 N   0  0  0  0  0  0  0  0  0  0  0  0
  146.1263  138.9578  156.7584 C   0  0  0  0  0  0  0  0  0  0  0  0
  147.1851  138.9627  157.8855 C   0  0  0  0  0  0  0  0  0  0  0  0
  148.4090  139.8796  157.6572 C   0  0  0  0  0  0  0  0  0  0  0  0
  149.2788  139.5149  156.4985 N   0  3  2  0  0  0  0  0  0  0  0  0
  150.1927  140.6172  156.0910 C   0  0  0  0  0  0  0  0  0  0  0  0
  151.2727  140.9276  157.1463 C   0  0  1  0  0  0  0  0  0  0  0  0
  152.3209  139.9853  157.0209 O   0  0  0  0  0  0  0  0  0  0  0  0
  151.8432  142.3495  156.9837 C   0  0  0  0  0  0  0  0  0  0  0  0
  151.7312  143.1314  158.2018 N   0  0  0  0  0  0  0  0  0  0  0  0
  150.9199  144.1832  158.4250 C   0  0  0  0  0  0  0  0  0  0  0  0
  150.9831  144.7571  159.6230 N   0  0  0  0  0  0  0  0  0  0  0  0
  151.9450  143.9856  160.2522 C   0  0  0  0  0  0  0  0  0  0  0  0
  152.4820  144.0711  161.5553 C   0  0  0  0  0  0  0  0  0  0  0  0
  153.4726  143.1629  161.9922 C   0  0  0  0  0  0  0  0  0  0  0  0
  154.0237  143.2925  163.4013 C   0  0  0  0  0  0  0  0  0  0  0  0
  153.9408  142.1478  161.1195 C   0  0  0  0  0  0  0  0  0  0  0  0
  155.0050  141.1612  161.5668 C   0  0  0  0  0  0  0  0  0  0  0  0
  153.4143  142.0474  159.8148 C   0  0  0  0  0  0  0  0  0  0  0  0
  152.4304  142.9584  159.3914 C   0  0  0  0  0  0  0  0  0  0  0  0
  148.5920  138.8915  155.3302 C   0  0  0  0  0  0  0  0  0  0  0  0
  147.3950  139.6994  154.7654 C   0  0  0  0  0  0  0  0  0  0  0  0
  145.7710  141.7404  153.6954 H   0  0  0  0  0  0  0  0  0  0  0  0
  146.8457  142.6734  154.7576 H   0  0  0  0  0  0  0  0  0  0  0  0
  145.1138  142.9944  154.7415 H   0  0  0  0  0  0  0  0  0  0  0  0
  145.1272  139.0193  157.1934 H   0  0  0  0  0  0  0  0  0  0  0  0
  146.1275  137.9929  156.2500 H   0  0  0  0  0  0  0  0  0  0  0  0
  146.6967  139.2877  158.8049 H   0  0  0  0  0  0  0  0  0  0  0  0
  147.5168  137.9422  158.0803 H   0  0  0  0  0  0  0  0  0  0  0  0
  148.0763  140.9145  157.5648 H   0  0  0  0  0  0  0  0  0  0  0  0
  149.0209  139.8500  158.5585 H   0  0  0  0  0  0  0  0  0  0  0  0
  150.6911  140.3626  155.1544 H   0  0  0  0  0  0  0  0  0  0  0  0
  149.6005  141.5099  155.8835 H   0  0  0  0  0  0  0  0  0  0  0  0
  150.8554  140.8418  158.1489 H   0  0  0  0  0  0  0  0  0  0  0  0
  151.9589  139.1153  157.0965 H   0  0  0  0  0  0  0  0  0  0  0  0
  152.8917  142.3123  156.6837 H   0  0  0  0  0  0  0  0  0  0  0  0
  151.3110  142.8808  156.1936 H   0  0  0  0  0  0  0  0  0  0  0  0
  150.2474  144.5515  157.6641 H   0  0  0  0  0  0  0  0  0  0  0  0
  152.1254  144.8443  162.2200 H   0  0  0  0  0  0  0  0  0  0  0  0
  153.8826  142.3642  163.9553 H   0  0  0  0  0  0  0  0  0  0  0  0
  153.5229  144.0886  163.9533 H   0  0  0  0  0  0  0  0  0  0  0  0
  155.0892  143.5219  163.3737 H   0  0  0  0  0  0  0  0  0  0  0  0
  155.2614  140.4635  160.7691 H   0  0  0  0  0  0  0  0  0  0  0  0
  154.6524  140.5796  162.4190 H   0  0  0  0  0  0  0  0  0  0  0  0
  155.9155  141.6857  161.8578 H   0  0  0  0  0  0  0  0  0  0  0  0
  153.7617  141.2788  159.1406 H   0  0  0  0  0  0  0  0  0  0  0  0
  149.3160  138.7229  154.5323 H   0  0  0  0  0  0  0  0  0  0  0  0
  148.2788  137.8862  155.6116 H   0  0  0  0  0  0  0  0  0  0  0  0
  146.9269  139.1384  153.9556 H   0  0  0  0  0  0  0  0  0  0  0  0
  147.8044  140.6004  154.3102 H   0  0  0  0  0  0  0  0  0  0  0  0
  149.8880  138.7852  156.8411 H   0  0  0  0  0  0  0  0  0  0  0  0
  1  2  1  0  0  0  0
  1 26  1  0  0  0  0
  1 27  1  0  0  0  0
  1 28  1  0  0  0  0
  2  3  2  0  0  0  0
  2  4  1  0  0  0  0
  4 25  1  0  0  0  0
  4  5  1  0  0  0  0
  5  6  1  0  0  0  0
  5 29  1  0  0  0  0
  5 30  1  0  0  0  0
  6  7  1  0  0  0  0
  6 31  1  0  0  0  0
  6 32  1  0  0  0  0
  7  8  1  0  0  0  0
  7 33  1  0  0  0  0
  7 34  1  0  0  0  0
  8  9  1  0  0  0  0
  8 24  1  0  0  0  0
  8 54  1  0  0  0  0
  9 10  1  0  0  0  0
  9 35  1  0  0  0  0
  9 36  1  0  0  0  0
 10 11  1  0  0  0  0
 10 12  1  0  0  0  0
 10 37  1  0  0  0  0
 11 38  1  0  0  0  0
 12 13  1  0  0  0  0
 12 39  1  0  0  0  0
 12 40  1  0  0  0  0
 13 23  1  0  0  0  0
 13 14  1  0  0  0  0
 14 15  2  0  0  0  0
 14 41  1  0  0  0  0
 15 16  1  0  0  0  0
 16 23  2  0  0  0  0
 16 17  1  0  0  0  0
 17 18  2  0  0  0  0
 17 42  1  0  0  0  0
 18 19  1  0  0  0  0
 18 20  1  0  0  0  0
 19 43  1  0  0  0  0
 19 44  1  0  0  0  0
 19 45  1  0  0  0  0
 20 21  1  0  0  0  0
 20 22  2  0  0  0  0
 21 46  1  0  0  0  0
 21 47  1  0  0  0  0
 21 48  1  0  0  0  0
 22 23  1  0  0  0  0
 22 49  1  0  0  0  0
 24 25  1  0  0  0  0
 24 50  1  0  0  0  0
 24 51  1  0  0  0  0
 25 52  1  0  0  0  0
 25 53  1  0  0  0  0
M  CHG  1   8   1
M  END
> <s_m_source_file>
AV-unprocessed.smi

> <i_m_source_file_index>
1643

> <i_lp_mmshare_version>
43012

> <i_f3d_flags>
0

> <s_epik_input>
W0NIM11DKD1PKU4xW0NIMl1bQ0gyXVtDSDJdTihbQ0gyXVtDSDJdMSlbQ0gyXVtDQEhdKFtPSF0pW0NIMl1uKFtjSF1uMiljKGMyMylbY0hdYyhbQ0gzXSljKFtjSF0zKVtDSDNd

> <s_epik_cmdline>
J2VwaWtfcHl0aG9uJywgJy1waCcsICc3LjAnLCAnLXRuJywgJzgnLCAnLW1hJywgJzIwMCcsICctbWV0YWxfYmluZGluZycsICctaW1hZScsICc8aW5maWxlLm1hZT4nLCAnLW9tYWUnLCAnPG91dGZpbGUubWFlPic=

> <r_epik_Ionization_Penalty>
0.189467

> <r_epik_Ionization_Penalty_Charging>
0.101761

> <r_epik_Ionization_Penalty_Neutral>
0.0877056

> <r_epik_State_Penalty>
0.170758

> <r_epik_Charging_Adjusted_Penalty>
0.272519

> <i_epik_Tot_Q>
1

> <i_epik_Tot_abs_Q>
1

> <r_epik_Metal_State_Penalty>
0.0948013

> <b_epik_Metal_Only>
0

> <s_lp_Force_Field>
OPLS_2005

> <r_lp_Energy>
48.7512

> <b_lp_Chiralities_Consistent>
1

> <s_lp_Variant>
AV-unprocessed.smi:1643-3

> <Gold.Version>
5.8.1

> <Gold.Id.Protein>
6NUR|6NUR_protein|mol2

> <Gold.PLP.Fitness>
53.8824

> <Gold.PLP.PLP>
-50.3478

> <Gold.PLP.part.hbond>
-1.0000

> <Gold.PLP.part.metal>
0.0000

> <Gold.PLP.part.buried>
-6.3399

> <Gold.PLP.part.nonpolar>
-42.2873

> <Gold.PLP.part.repulsive>
0.2870

> <Gold.PLP.ligand.clash>
0.0000

> <Gold.PLP.ligand.torsion>
1.1674

> <Gold.PLP.Chemscore.Hbond>
0.9263

> <Gold.PLP.Chemscore.CHOScore>
1.0017

> <Gold.PLP.Chemscore.Metal>
0.0000

> <Gold.Chemscore.Hbonds>
donor molecule, donor type, donor heavy atom, donor atom, acceptor molecule, acceptor atom, score
      P1  H  7997  8010       L1    11  0.86
      L1  C    14    41       P1  8028  1.00
      L1  C    14    41       P1  8029  0.09

> <Gold.PLP.Chemscore.Internal.Correction>
0.0856

> <Gold.Rescore>
     Score         DG    S(hbond)    S(metal)    S(lipo)     H(rot)  DE(clash)    DE(int)     intcor
     15.45     -18.90       0.97        0.00     133.49       2.12       2.18       1.28       ----

> <Gold.Chemscore.Fitness>
15.4452

> <Gold.Chemscore.DG>
-18.9005

> <Gold.Chemscore.ZeroCoef>
-5.4800

> <Gold.Chemscore.Hbond>
0.9650

> <Gold.Chemscore.Metal>
0.0000

> <Gold.Chemscore.Lipo>
133.4946

> <Gold.Chemscore.Internal_Hbond>
0.0000

> <Gold.Chemscore.DEClash>
2.1786

> <Gold.Chemscore.DEInternal>
1.2768

> <Gold.Chemscore.Rot>
2.1178

> <Gold.Chemscore.Internal.Correction>
   9.000000E+99

> <Gold.Chemscore.Hbonds>
donor molecule, donor type, donor heavy atom, donor atom, acceptor molecule, acceptor atom, score
      P1  H  7997  8010       L1    11  0.77

> <Gold.Chemscore.Hbond.Weighted>
-3.2231

> <Gold.Chemscore.Metal.Weighted>
-0.0000

> <Gold.Chemscore.Lipo.Weighted>
-15.6189

> <Gold.Chemscore.Internal_Hbond.Weighted>
0.0000

> <Gold.Chemscore.DEClash.Weighted>
2.1786

> <Gold.Chemscore.DEInternal.Weighted>
1.2768

> <Gold.Chemscore.Rot.Weighted>
5.4215

> <Gold.Chemscore.Internal.Correction.Weighted>
   9.000000E+99

> <Gold.Protein.RotatedTorsions>
[ 6907 6896 6895 6894 ] final  -53.68 input  -60.11 | X-H torsion
[ 7974 7965 7964 7962 ] final  160.38 input  175.53 | X-H torsion
[ 8008 7997 7996 7995 ] final   65.41 input   59.86 | X-H torsion
[ 10167 10162 10161 10158 ] final   37.36 input  -65.29 | X-H torsion
[ 10718 10713 10712 10709 ] final   55.14 input   66.30 | X-H torsion
[ 10763 10752 10751 10750 ] final -145.77 input  -60.55 | X-H torsion
[ 11005 11000 10999 10996 ] final  -17.08 input  -57.11 | X-H torsion

> <Gold.Protein.ActiveResidues>
 VAL166  LYS551  ARG553  GLY616  TRP617  ASP618  TYR619  PRO620  LYS621  CYS622 
 ASP623  PHE694  ASN695  SER759  ASP760  ASP761  ALA762  ILE779  LEU786  VAL792 
 PHE793  MET794  SER795  GLU796  ALA797  LYS798  CYS799  TRP800  GLU811  SER814 

> <Gold.Protein.RotatedAtoms>
  150.8405  134.7694  159.6927 H   0  0  0  0  0  0  0  0  0  0  0  0  # atno 6907 bound_to 6896
  152.4493  134.5425  159.9853 H   0  0  0  0  0  0  0  0  0  0  0  0  # atno 6908 bound_to 6896
  151.5566  133.3371  159.2999 H   0  0  0  0  0  0  0  0  0  0  0  0  # atno 6909 bound_to 6896
  144.7740  139.7749  143.6286 H   0  0  0  0  0  0  0  0  0  0  0  0  # atno 7974 bound_to 7965
  155.6612  140.3497  155.4783 H   0  0  0  0  0  0  0  0  0  0  0  0  # atno 8008 bound_to 7997
  155.9767  140.1166  157.0787 H   0  0  0  0  0  0  0  0  0  0  0  0  # atno 8009 bound_to 7997
  154.4180  140.1146  156.5365 H   0  0  0  0  0  0  0  0  0  0  0  0  # atno 8010 bound_to 7997
  140.4040  144.1684  150.6135 H   0  0  0  0  0  0  0  0  0  0  0  0  # atno 10167 bound_to 10162
  157.5319  130.8636  149.8699 H   0  0  0  0  0  0  0  0  0  0  0  0  # atno 10718 bound_to 10713
  154.8368  135.3404  154.6557 H   0  0  0  0  0  0  0  0  0  0  0  0  # atno 10763 bound_to 10752
  153.7171  135.6960  153.5027 H   0  0  0  0  0  0  0  0  0  0  0  0  # atno 10764 bound_to 10752
  153.2408  135.4385  155.0649 H   0  0  0  0  0  0  0  0  0  0  0  0  # atno 10765 bound_to 10752
  140.8132  133.8124  155.9584 H   0  0  0  0  0  0  0  0  0  0  0  0  # atno 11005 bound_to 11000
  146.1907  139.5146  142.9807 LP  0  0  0  0  0  0  0  0  0  0  0  0  # atno 17320 bound_to 7965
  145.6240  141.0317  143.1899 LP  0  0  0  0  0  0  0  0  0  0  0  0  # atno 17321 bound_to 7965
  140.4709  143.2413  151.9090 LP  0  0  0  0  0  0  0  0  0  0  0  0  # atno 17342 bound_to 10162
  139.4784  144.5370  151.8583 LP  0  0  0  0  0  0  0  0  0  0  0  0  # atno 17343 bound_to 10162
  156.0429  130.3735  150.1391 LP  0  0  0  0  0  0  0  0  0  0  0  0  # atno 17370 bound_to 10713
  156.9575  130.9794  151.3486 LP  0  0  0  0  0  0  0  0  0  0  0  0  # atno 17371 bound_to 10713
  140.9176  134.2182  157.4947 LP  0  0  0  0  0  0  0  0  0  0  0  0  # atno 17394 bound_to 11000
  139.8713  134.9778  156.4972 LP  0  0  0  0  0  0  0  0  0  0  0  0  # atno 17395 bound_to 11000

$$$$
