AV-unprocessed.smi:53|AV-procd|sdf|527|dock7
  -GOLD-   2262016403D 1   1.00000     0.00000
 Structure written by MMmdl.
 30 31  0  0  0  0  0  0  0  0  1 V2000
  152.8553  141.4979  159.3717 N   0  0  0  0  0  0  0  0  0  0  0  0
  152.2809  141.2524  158.1858 C   0  0  0  0  0  0  0  0  0  0  0  0
  151.2555  142.1325  157.6749 C   0  0  0  0  0  0  0  0  0  0  0  0
  150.7201  141.8164  156.4751 C   0  0  0  0  0  0  0  0  0  0  0  0
  151.1099  140.6879  155.7619 N   0  0  0  0  0  0  0  0  0  0  0  0
  150.5335  140.3420  154.3982 C   0  0  2  0  0  0  0  0  0  0  0  0
  149.5320  141.2521  154.0575 O   0  0  0  0  0  0  0  0  0  0  0  0
  148.2680  140.7354  154.4529 C   0  0  1  0  0  0  0  0  0  0  0  0
  147.1461  141.4623  153.6970 C   0  0  0  0  0  0  0  0  0  0  0  0
  145.8887  140.9907  154.1324 O   0  0  0  0  0  0  0  0  0  0  0  0
  148.4040  139.2577  154.0831 C   0  0  2  0  0  0  0  0  0  0  0  0
  147.5373  138.4704  154.8753 O   0  0  0  0  0  0  0  0  0  0  0  0
  149.8642  138.9471  154.4049 C   0  0  1  0  0  0  0  0  0  0  0  0
  150.4125  138.0977  153.4174 O   0  0  0  0  0  0  0  0  0  0  0  0
  152.1447  139.8678  156.2754 C   0  0  0  0  0  0  0  0  0  0  0  0
  152.5634  138.8911  155.6546 O   0  0  0  0  0  0  0  0  0  0  0  0
  152.6722  140.2008  157.4937 N   0  0  0  0  0  0  0  0  0  0  0  0
  151.3725  140.4441  153.7067 H   0  0  0  0  0  0  0  0  0  0  0  0
  148.1428  140.8352  155.5330 H   0  0  0  0  0  0  0  0  0  0  0  0
  148.1937  139.1122  153.0218 H   0  0  0  0  0  0  0  0  0  0  0  0
  149.9622  138.4852  155.3889 H   0  0  0  0  0  0  0  0  0  0  0  0
  153.5753  140.8838  159.7237 H   0  0  0  0  0  0  0  0  0  0  0  0
  152.5659  142.3006  159.9119 H   0  0  0  0  0  0  0  0  0  0  0  0
  150.9105  143.0110  158.2012 H   0  0  0  0  0  0  0  0  0  0  0  0
  149.9657  142.4851  156.0893 H   0  0  0  0  0  0  0  0  0  0  0  0
  147.2143  142.5426  153.8268 H   0  0  0  0  0  0  0  0  0  0  0  0
  147.2204  141.2582  152.6284 H   0  0  0  0  0  0  0  0  0  0  0  0
  145.2891  141.0160  153.4025 H   0  0  0  0  0  0  0  0  0  0  0  0
  146.9123  138.0499  154.3049 H   0  0  0  0  0  0  0  0  0  0  0  0
  149.6997  137.7139  152.9287 H   0  0  0  0  0  0  0  0  0  0  0  0
  1  2  1  0  0  0  0
  1 22  1  0  0  0  0
  1 23  1  0  0  0  0
  2 17  2  0  0  0  0
  2  3  1  0  0  0  0
  3  4  2  0  0  0  0
  3 24  1  0  0  0  0
  4  5  1  0  0  0  0
  4 25  1  0  0  0  0
  5  6  1  0  0  0  0
  5 15  1  0  0  0  0
  6 18  1  0  0  0  0
  6 13  1  0  0  0  0
  6  7  1  0  0  0  0
  7  8  1  0  0  0  0
  8 19  1  0  0  0  0
  8  9  1  0  0  0  0
  8 11  1  0  0  0  0
  9 10  1  0  0  0  0
  9 26  1  0  0  0  0
  9 27  1  0  0  0  0
 10 28  1  0  0  0  0
 11 20  1  0  0  0  0
 11 12  1  0  0  0  0
 11 13  1  0  0  0  0
 12 29  1  0  0  0  0
 13 21  1  0  0  0  0
 13 14  1  0  0  0  0
 14 30  1  0  0  0  0
 15 16  2  0  0  0  0
 15 17  1  0  0  0  0
M  END
> <s_m_source_file>
AV-unprocessed.smi

> <i_m_source_file_index>
53

> <i_lp_mmshare_version>
43012

> <i_f3d_flags>
0

> <s_epik_input>
W05IMl1jMVtjSF1bY0hdbihjKD1PKW4xKVtDQEBIXTJPW0NASF0oW0NIMl1bT0hdKVtDQEBIXShbT0hdKVtDQEBIXTJbT0hd

> <s_epik_cmdline>
J2VwaWtfcHl0aG9uJywgJy1waCcsICc3LjAnLCAnLXRuJywgJzgnLCAnLW1hJywgJzIwMCcsICctbWV0YWxfYmluZGluZycsICctaW1hZScsICc8aW5maWxlLm1hZT4nLCAnLW9tYWUnLCAnPG91dGZpbGUubWFlPic=

> <r_lp_tautomer_probability>
0.99996

> <r_epik_Ionization_Penalty>
0.00069087

> <r_epik_Ionization_Penalty_Charging>
2.61959e-08

> <r_epik_Ionization_Penalty_Neutral>
0.000690844

> <r_epik_State_Penalty>
1.15523e-05

> <r_epik_Charging_Adjusted_Penalty>
1.15785e-05

> <i_epik_Tot_Q>
0

> <i_epik_Tot_abs_Q>
0

> <r_epik_Metal_State_Penalty>
-0

> <b_epik_Metal_Only>
0

> <s_epik_Chemistry_Notes>
This compound contains an acetal/aminal-like group ( X-CH(R)-Y where X, Y are N, S, or O) that may be acid/base labile, releasing an aldehyde.

> <s_lp_Force_Field>
OPLS_2005

> <r_lp_Energy>
26.1744

> <b_lp_Chiralities_Consistent>
1

> <s_lp_Variant>
AV-unprocessed.smi:53-15

> <Gold.Version>
5.8.1

> <Gold.Id.Protein>
6NUR|6NUR_protein|mol2

> <Gold.PLP.Fitness>
40.7551

> <Gold.PLP.PLP>
-28.0018

> <Gold.PLP.part.hbond>
-6.8225

> <Gold.PLP.part.metal>
0.0000

> <Gold.PLP.part.buried>
2.2990

> <Gold.PLP.part.nonpolar>
-22.2324

> <Gold.PLP.part.repulsive>
0.2831

> <Gold.PLP.ligand.clash>
0.0000

> <Gold.PLP.ligand.torsion>
0.0354

> <Gold.PLP.Chemscore.Hbond>
3.2630

> <Gold.PLP.Chemscore.CHOScore>
1.0000

> <Gold.PLP.Chemscore.Metal>
0.0000

> <Gold.Chemscore.Hbonds>
donor molecule, donor type, donor heavy atom, donor atom, acceptor molecule, acceptor atom, score
      L1  H    10    28       P1 10175  1.00
      L1  H    14    30       P1  7948  0.99
      P1  H  7997  8010       L1    17  0.69
      P1  H  8011  8017       L1     7  0.65
      L1  C     4    25       P1  8028  1.00

> <Gold.PLP.Chemscore.Internal.Correction>
0.0350

> <Gold.Rescore>
     Score         DG    S(hbond)    S(metal)    S(lipo)     H(rot)  DE(clash)    DE(int)     intcor
      5.56      -8.61       2.32        0.00      41.72       3.71       1.82       1.22       ----

> <Gold.Chemscore.Fitness>
5.5647

> <Gold.Chemscore.DG>
-8.6100

> <Gold.Chemscore.ZeroCoef>
-5.4800

> <Gold.Chemscore.Hbond>
2.3190

> <Gold.Chemscore.Metal>
0.0000

> <Gold.Chemscore.Lipo>
41.7178

> <Gold.Chemscore.Internal_Hbond>
0.0000

> <Gold.Chemscore.DEClash>
1.8214

> <Gold.Chemscore.DEInternal>
1.2239

> <Gold.Chemscore.Rot>
3.7095

> <Gold.Chemscore.Internal.Correction>
   9.000000E+99

> <Gold.Chemscore.Hbonds>
donor molecule, donor type, donor heavy atom, donor atom, acceptor molecule, acceptor atom, score
      L1  H    10    28       P1 10175  0.54
      L1  H    14    30       P1  7948  0.56
      P1  H  7997  8010       L1    17  0.10
      P1  H  8011  8017       L1     7  0.59

> <Gold.Chemscore.Hbond.Weighted>
-7.7454

> <Gold.Chemscore.Metal.Weighted>
-0.0000

> <Gold.Chemscore.Lipo.Weighted>
-4.8810

> <Gold.Chemscore.Internal_Hbond.Weighted>
0.0000

> <Gold.Chemscore.DEClash.Weighted>
1.8214

> <Gold.Chemscore.DEInternal.Weighted>
1.2239

> <Gold.Chemscore.Rot.Weighted>
9.4964

> <Gold.Chemscore.Internal.Correction.Weighted>
   9.000000E+99

> <Gold.Protein.RotatedTorsions>
[ 6907 6896 6895 6894 ] final  -11.41 input  -60.11 | X-H torsion
[ 7974 7965 7964 7962 ] final -154.20 input  175.53 | X-H torsion
[ 8008 7997 7996 7995 ] final   37.65 input   59.86 | X-H torsion
[ 10167 10162 10161 10158 ] final   60.92 input  -65.29 | X-H torsion
[ 10718 10713 10712 10709 ] final  -91.51 input   66.30 | X-H torsion
[ 10763 10752 10751 10750 ] final  -87.50 input  -60.55 | X-H torsion
[ 11005 11000 10999 10996 ] final  130.63 input  -57.11 | X-H torsion

> <Gold.Protein.ActiveResidues>
 VAL166  LYS551  ARG553  GLY616  TRP617  ASP618  TYR619  PRO620  LYS621  CYS622 
 ASP623  PHE694  ASN695  SER759  ASP760  ASP761  ALA762  ILE779  LEU786  VAL792 
 PHE793  MET794  SER795  GLU796  ALA797  LYS798  CYS799  TRP800  GLU811  SER814 

> <Gold.Protein.RotatedAtoms>
  151.3866  135.0949  159.9512 H   0  0  0  0  0  0  0  0  0  0  0  0  # atno 6907 bound_to 6896
  152.5092  133.9020  159.7456 H   0  0  0  0  0  0  0  0  0  0  0  0  # atno 6908 bound_to 6896
  150.9465  133.6542  159.2809 H   0  0  0  0  0  0  0  0  0  0  0  0  # atno 6909 bound_to 6896
  144.7701  140.4420  143.5913 H   0  0  0  0  0  0  0  0  0  0  0  0  # atno 7974 bound_to 7965
  155.2073  140.3320  155.4334 H   0  0  0  0  0  0  0  0  0  0  0  0  # atno 8008 bound_to 7997
  156.2384  140.1883  156.7105 H   0  0  0  0  0  0  0  0  0  0  0  0  # atno 8009 bound_to 7997
  154.6101  140.0610  156.9468 H   0  0  0  0  0  0  0  0  0  0  0  0  # atno 8010 bound_to 7997
  140.1604  144.4376  150.6712 H   0  0  0  0  0  0  0  0  0  0  0  0  # atno 10167 bound_to 10162
  155.9994  130.4951  150.5485 H   0  0  0  0  0  0  0  0  0  0  0  0  # atno 10718 bound_to 10713
  154.6343  135.5411  153.7716 H   0  0  0  0  0  0  0  0  0  0  0  0  # atno 10763 bound_to 10752
  153.0300  135.6443  154.1254 H   0  0  0  0  0  0  0  0  0  0  0  0  # atno 10764 bound_to 10752
  154.1182  135.2922  155.3194 H   0  0  0  0  0  0  0  0  0  0  0  0  # atno 10765 bound_to 10752
  139.9683  134.9584  156.9321 H   0  0  0  0  0  0  0  0  0  0  0  0  # atno 11005 bound_to 11000
  145.6349  139.1541  143.2948 LP  0  0  0  0  0  0  0  0  0  0  0  0  # atno 17320 bound_to 7965
  146.1841  140.6450  142.9176 LP  0  0  0  0  0  0  0  0  0  0  0  0  # atno 17321 bound_to 7965
  140.6646  143.2263  151.5773 LP  0  0  0  0  0  0  0  0  0  0  0  0  # atno 17342 bound_to 10162
  139.5384  144.2717  152.1299 LP  0  0  0  0  0  0  0  0  0  0  0  0  # atno 17343 bound_to 10162
  157.3411  131.0717  151.1787 LP  0  0  0  0  0  0  0  0  0  0  0  0  # atno 17370 bound_to 10713
  157.2635  130.6670  149.5985 LP  0  0  0  0  0  0  0  0  0  0  0  0  # atno 17371 bound_to 10713
  140.5348  134.0777  155.7325 LP  0  0  0  0  0  0  0  0  0  0  0  0  # atno 17394 bound_to 11000
  141.1363  133.9216  157.2427 LP  0  0  0  0  0  0  0  0  0  0  0  0  # atno 17395 bound_to 11000

$$$$
