AV-unprocessed.smi:22|AV-procd|sdf|169|dock6
  -GOLD-   2262015423D 1   1.00000     0.00000
 Structure written by MMmdl.
 56 59  0  0  0  0  0  0  0  0  2 V2000
  144.0351  132.3434  149.4187 C   0  0  0  0  0  0  0  0  0  0  0  0
  144.9434  133.3520  150.0171 N   0  3  2  0  0  0  0  0  0  0  0  0
  146.1045  132.7379  150.7177 C   0  0  0  0  0  0  0  0  0  0  0  0
  145.7325  131.4163  151.4103 C   0  0  0  0  0  0  0  0  0  0  0  0
  146.8691  130.8688  152.0441 O   0  0  0  0  0  0  0  0  0  0  0  0
  144.2078  134.3900  150.7969 C   0  0  0  0  0  0  0  0  0  0  0  0
  145.1342  135.5413  151.2407 C   0  0  0  0  0  0  0  0  0  0  0  0
  144.3419  136.6224  151.9936 C   0  0  0  0  0  0  0  0  0  0  0  0
  143.5976  136.0394  153.1097 N   0  0  0  0  0  0  0  0  0  0  0  0
  143.1817  136.9314  154.0447 C   0  0  0  0  0  0  0  0  0  0  0  0
  143.8900  137.0890  155.1952 N   0  0  0  0  0  0  0  0  0  0  0  0
  143.4838  137.9593  156.1243 C   0  0  0  0  0  0  0  0  0  0  0  0
  142.4174  138.7610  156.1069 N   0  0  0  0  0  0  0  0  0  0  0  0
  141.7053  138.6127  154.9535 C   0  0  0  0  0  0  0  0  0  0  0  0
  142.0148  137.7301  153.8801 C   0  0  0  0  0  0  0  0  0  0  0  0
  141.0714  137.8675  152.8686 N   0  0  0  0  0  0  0  0  0  0  0  0
  140.2460  138.7707  153.3229 C   0  0  0  0  0  0  0  0  0  0  0  0
  140.5479  139.2679  154.5706 N   0  0  0  0  0  0  0  0  0  0  0  0
  139.8032  140.2766  155.3084 C   0  0  0  0  0  0  0  0  0  0  0  0
  139.1939  141.3727  154.4040 C   0  0  1  0  0  0  0  0  0  0  0  0
  140.1734  141.7958  153.4706 O   0  0  0  0  0  0  0  0  0  0  0  0
  137.9514  140.9306  153.6360 C   0  0  0  0  0  0  0  0  0  0  0  0
  137.1441  142.2166  153.5294 C   0  0  0  0  0  0  0  0  0  0  0  0
  137.3458  142.8130  154.7994 O   0  0  0  0  0  0  0  0  0  0  0  0
  138.7009  142.6070  155.1859 C   0  0  0  0  0  0  0  0  0  0  0  0
  142.6849  134.9533  152.7482 C   0  0  0  0  0  0  0  0  0  0  0  0
  143.4343  133.8297  152.0131 C   0  0  0  0  0  0  0  0  0  0  0  0
  143.5590  131.7345  150.1877 H   0  0  0  0  0  0  0  0  0  0  0  0
  144.5717  131.6755  148.7460 H   0  0  0  0  0  0  0  0  0  0  0  0
  143.2518  132.8245  148.8323 H   0  0  0  0  0  0  0  0  0  0  0  0
  146.9194  132.5347  150.0240 H   0  0  0  0  0  0  0  0  0  0  0  0
  146.5025  133.4447  151.4472 H   0  0  0  0  0  0  0  0  0  0  0  0
  144.9740  131.6004  152.1713 H   0  0  0  0  0  0  0  0  0  0  0  0
  145.3125  130.6902  150.7152 H   0  0  0  0  0  0  0  0  0  0  0  0
  147.5850  130.8601  151.4262 H   0  0  0  0  0  0  0  0  0  0  0  0
  143.4772  134.8377  150.1210 H   0  0  0  0  0  0  0  0  0  0  0  0
  145.9279  135.1761  151.8919 H   0  0  0  0  0  0  0  0  0  0  0  0
  145.6258  135.9846  150.3740 H   0  0  0  0  0  0  0  0  0  0  0  0
  145.0259  137.4008  152.3301 H   0  0  0  0  0  0  0  0  0  0  0  0
  143.6345  137.1033  151.3168 H   0  0  0  0  0  0  0  0  0  0  0  0
  144.1008  138.0215  157.0084 H   0  0  0  0  0  0  0  0  0  0  0  0
  139.3859  139.0998  152.7579 H   0  0  0  0  0  0  0  0  0  0  0  0
  139.0146  139.7747  155.8708 H   0  0  0  0  0  0  0  0  0  0  0  0
  140.4689  140.7225  156.0490 H   0  0  0  0  0  0  0  0  0  0  0  0
  140.3005  141.1060  152.8373 H   0  0  0  0  0  0  0  0  0  0  0  0
  138.1676  140.4738  152.6693 H   0  0  0  0  0  0  0  0  0  0  0  0
  137.3808  140.2103  154.2234 H   0  0  0  0  0  0  0  0  0  0  0  0
  137.5404  142.8673  152.7482 H   0  0  0  0  0  0  0  0  0  0  0  0
  136.0872  142.0380  153.3300 H   0  0  0  0  0  0  0  0  0  0  0  0
  138.7429  142.4588  156.2654 H   0  0  0  0  0  0  0  0  0  0  0  0
  139.2858  143.4995  154.9579 H   0  0  0  0  0  0  0  0  0  0  0  0
  142.2123  134.5460  153.6432 H   0  0  0  0  0  0  0  0  0  0  0  0
  141.8892  135.3482  152.1147 H   0  0  0  0  0  0  0  0  0  0  0  0
  142.7226  133.0661  151.6994 H   0  0  0  0  0  0  0  0  0  0  0  0
  144.1150  133.3500  152.7167 H   0  0  0  0  0  0  0  0  0  0  0  0
  145.3397  133.8548  149.2354 H   0  0  0  0  0  0  0  0  0  0  0  0
  1  2  1  0  0  0  0
  1 28  1  0  0  0  0
  1 29  1  0  0  0  0
  1 30  1  0  0  0  0
  2  3  1  0  0  0  0
  2  6  1  0  0  0  0
  2 56  1  0  0  0  0
  3  4  1  0  0  0  0
  3 31  1  0  0  0  0
  3 32  1  0  0  0  0
  4  5  1  0  0  0  0
  4 33  1  0  0  0  0
  4 34  1  0  0  0  0
  5 35  1  0  0  0  0
  6 27  1  0  0  0  0
  6  7  1  0  0  0  0
  6 36  1  0  0  0  0
  7  8  1  0  0  0  0
  7 37  1  0  0  0  0
  7 38  1  0  0  0  0
  8  9  1  0  0  0  0
  8 39  1  0  0  0  0
  8 40  1  0  0  0  0
  9 10  1  0  0  0  0
  9 26  1  0  0  0  0
 10 15  1  0  0  0  0
 10 11  2  0  0  0  0
 11 12  1  0  0  0  0
 12 13  2  0  0  0  0
 12 41  1  0  0  0  0
 13 14  1  0  0  0  0
 14 18  1  0  0  0  0
 14 15  2  0  0  0  0
 15 16  1  0  0  0  0
 16 17  2  0  0  0  0
 17 18  1  0  0  0  0
 17 42  1  0  0  0  0
 18 19  1  0  0  0  0
 19 20  1  0  0  0  0
 19 43  1  0  0  0  0
 19 44  1  0  0  0  0
 20 25  1  0  0  0  0
 20 21  1  0  0  0  0
 20 22  1  0  0  0  0
 21 45  1  0  0  0  0
 22 23  1  0  0  0  0
 22 46  1  0  0  0  0
 22 47  1  0  0  0  0
 23 24  1  0  0  0  0
 23 48  1  0  0  0  0
 23 49  1  0  0  0  0
 24 25  1  0  0  0  0
 25 50  1  0  0  0  0
 25 51  1  0  0  0  0
 26 27  1  0  0  0  0
 26 52  1  0  0  0  0
 26 53  1  0  0  0  0
 27 54  1  0  0  0  0
 27 55  1  0  0  0  0
M  CHG  1   2   1
M  END
> <s_m_source_file>
AV-unprocessed.smi

> <i_m_source_file_index>
22

> <i_lp_mmshare_version>
43012

> <i_f3d_flags>
0

> <s_epik_input>
W09IXVtDSDJdW0NIMl1OKFtDSDNdKVtDSF0xW0NIMl1bQ0gyXU4oW0NIMl1bQ0gyXTEpYyhuW2NIXW4yKWMoYzIzKW5bY0hdbjNbQ0gyXVtDQEBdNChbT0hdKVtDSDJdW0NIMl1PW0NIMl00

> <s_epik_cmdline>
J2VwaWtfcHl0aG9uJywgJy1waCcsICc3LjAnLCAnLXRuJywgJzgnLCAnLW1hJywgJzIwMCcsICctbWV0YWxfYmluZGluZycsICctaW1hZScsICc8aW5maWxlLm1hZT4nLCAnLW9tYWUnLCAnPG91dGZpbGUubWFlPic=

> <r_lp_tautomer_probability>
1

> <r_epik_Ionization_Penalty>
0.00317524

> <r_epik_Ionization_Penalty_Charging>
0.00191487

> <r_epik_Ionization_Penalty_Neutral>
0.00126037

> <r_epik_State_Penalty>
-0

> <r_epik_Charging_Adjusted_Penalty>
0.00191487

> <i_epik_Tot_Q>
1

> <i_epik_Tot_abs_Q>
1

> <r_epik_Metal_State_Penalty>
-0

> <b_epik_Metal_Only>
0

> <s_lp_Force_Field>
OPLS_2005

> <r_lp_Energy>
45.1339

> <b_lp_Chiralities_Consistent>
1

> <s_lp_Variant>
AV-unprocessed.smi:22-1

> <Gold.Version>
5.8.1

> <Gold.Id.Protein>
6NUR|6NUR_protein|mol2

> <Gold.PLP.Fitness>
47.0701

> <Gold.PLP.PLP>
-35.7110

> <Gold.PLP.part.hbond>
-5.0000

> <Gold.PLP.part.metal>
0.0000

> <Gold.PLP.part.buried>
-1.9480

> <Gold.PLP.part.nonpolar>
-29.6820

> <Gold.PLP.part.repulsive>
0.5515

> <Gold.PLP.ligand.clash>
0.0000

> <Gold.PLP.ligand.torsion>
1.2119

> <Gold.PLP.Chemscore.Hbond>
3.9272

> <Gold.PLP.Chemscore.CHOScore>
0.4751

> <Gold.PLP.Chemscore.Metal>
0.0000

> <Gold.Chemscore.Hbonds>
donor molecule, donor type, donor heavy atom, donor atom, acceptor molecule, acceptor atom, score
      L1  H     2    56       P1  7921  1.00
      L1  H     5    35       P1 10747  1.00
      L1  H    21    45       P1 10160  0.90
      P1  H 10162 10167       L1    21  0.92
      L1  C    17    42       P1 10160  0.39

> <Gold.PLP.Chemscore.Internal.Correction>
0.5762

> <Gold.Rescore>
     Score         DG    S(hbond)    S(metal)    S(lipo)     H(rot)  DE(clash)    DE(int)     intcor
     11.44     -16.42       3.06        0.00      88.35       3.76       2.99       1.99       ----

> <Gold.Chemscore.Fitness>
11.4389

> <Gold.Chemscore.DG>
-16.4242

> <Gold.Chemscore.ZeroCoef>
-5.4800

> <Gold.Chemscore.Hbond>
3.0624

> <Gold.Chemscore.Metal>
0.0000

> <Gold.Chemscore.Lipo>
88.3508

> <Gold.Chemscore.Internal_Hbond>
0.0000

> <Gold.Chemscore.DEClash>
2.9911

> <Gold.Chemscore.DEInternal>
1.9943

> <Gold.Chemscore.Rot>
3.7583

> <Gold.Chemscore.Internal.Correction>
   9.000000E+99

> <Gold.Chemscore.Hbonds>
donor molecule, donor type, donor heavy atom, donor atom, acceptor molecule, acceptor atom, score
      L1  H     2    56       P1  7921  0.73
      L1  H     5    35       P1 10747  1.00
      L1  H    21    45       P1 10160  0.83
      P1  H 10162 10167       L1    21  0.21

> <Gold.Chemscore.Hbond.Weighted>
-10.2284

> <Gold.Chemscore.Metal.Weighted>
-0.0000

> <Gold.Chemscore.Lipo.Weighted>
-10.3370

> <Gold.Chemscore.Internal_Hbond.Weighted>
0.0000

> <Gold.Chemscore.DEClash.Weighted>
2.9911

> <Gold.Chemscore.DEInternal.Weighted>
1.9943

> <Gold.Chemscore.Rot.Weighted>
9.6213

> <Gold.Chemscore.Internal.Correction.Weighted>
   9.000000E+99

> <Gold.Protein.RotatedTorsions>
[ 6907 6896 6895 6894 ] final  114.04 input  -60.11 | X-H torsion
[ 7974 7965 7964 7962 ] final  -39.28 input  175.53 | X-H torsion
[ 8008 7997 7996 7995 ] final  174.98 input   59.86 | X-H torsion
[ 10167 10162 10161 10158 ] final -114.73 input  -65.29 | X-H torsion
[ 10718 10713 10712 10709 ] final   16.12 input   66.30 | X-H torsion
[ 10763 10752 10751 10750 ] final  119.64 input  -60.55 | X-H torsion
[ 11005 11000 10999 10996 ] final  -68.55 input  -57.11 | X-H torsion

> <Gold.Protein.ActiveResidues>
 VAL166  LYS551  ARG553  GLY616  TRP617  ASP618  TYR619  PRO620  LYS621  CYS622 
 ASP623  PHE694  ASN695  SER759  ASP760  ASP761  ALA762  ILE779  LEU786  VAL792 
 PHE793  MET794  SER795  GLU796  ALA797  LYS798  CYS799  TRP800  GLU811  SER814 

> <Gold.Protein.RotatedAtoms>
  152.4826  133.8291  159.7093 H   0  0  0  0  0  0  0  0  0  0  0  0  # atno 6907 bound_to 6896
  150.8886  133.7264  159.2917 H   0  0  0  0  0  0  0  0  0  0  0  0  # atno 6908 bound_to 6896
  151.4744  135.1052  159.9812 H   0  0  0  0  0  0  0  0  0  0  0  0  # atno 6909 bound_to 6896
  146.0410  140.6608  142.9087 H   0  0  0  0  0  0  0  0  0  0  0  0  # atno 7974 bound_to 7965
  156.0918  140.1420  156.9582 H   0  0  0  0  0  0  0  0  0  0  0  0  # atno 8008 bound_to 7997
  154.4646  140.0930  156.7034 H   0  0  0  0  0  0  0  0  0  0  0  0  # atno 8009 bound_to 7997
  155.4907  140.3448  155.4356 H   0  0  0  0  0  0  0  0  0  0  0  0  # atno 8010 bound_to 7997
  140.0978  143.4640  152.1830 H   0  0  0  0  0  0  0  0  0  0  0  0  # atno 10167 bound_to 10162
  157.0633  130.6318  149.5790 H   0  0  0  0  0  0  0  0  0  0  0  0  # atno 10718 bound_to 10713
  153.5862  135.3474  155.2893 H   0  0  0  0  0  0  0  0  0  0  0  0  # atno 10763 bound_to 10752
  154.8660  135.4194  154.2566 H   0  0  0  0  0  0  0  0  0  0  0  0  # atno 10764 bound_to 10752
  153.3363  135.7047  153.6975 H   0  0  0  0  0  0  0  0  0  0  0  0  # atno 10765 bound_to 10752
  141.1534  133.6743  156.6463 H   0  0  0  0  0  0  0  0  0  0  0  0  # atno 11005 bound_to 11000
  144.7075  140.3908  143.7107 LP  0  0  0  0  0  0  0  0  0  0  0  0  # atno 17320 bound_to 7965
  145.6884  139.1633  143.2661 LP  0  0  0  0  0  0  0  0  0  0  0  0  # atno 17321 bound_to 7965
  139.5688  144.7451  151.3948 LP  0  0  0  0  0  0  0  0  0  0  0  0  # atno 17342 bound_to 10162
  140.6994  143.7669  150.7378 LP  0  0  0  0  0  0  0  0  0  0  0  0  # atno 17343 bound_to 10162
  155.9972  130.5043  150.7524 LP  0  0  0  0  0  0  0  0  0  0  0  0  # atno 17370 bound_to 10713
  157.4937  131.0913  151.0397 LP  0  0  0  0  0  0  0  0  0  0  0  0  # atno 17371 bound_to 10713
  140.3355  134.7893  157.4358 LP  0  0  0  0  0  0  0  0  0  0  0  0  # atno 17394 bound_to 11000
  140.0981  134.5509  155.8379 LP  0  0  0  0  0  0  0  0  0  0  0  0  # atno 17395 bound_to 11000

$$$$
