AV-unprocessed.smi:170|AV-procd|sdf|1409|dock2
  -GOLD-   2262019163D 1   1.00000     0.00000
 Structure written by MMmdl.
 57 61  0  0  0  0  0  0  0  0  1 V2000
  151.9663  142.0939  161.9303 O   0  0  0  0  0  0  0  0  0  0  0  0
  152.7353  142.6319  160.8709 C   0  0  1  0  0  0  0  0  0  0  0  0
  153.3225  141.5061  159.9980 C   0  0  0  0  0  0  0  0  0  0  0  0
  152.2942  140.6592  159.4211 N   0  0  0  0  0  0  0  0  0  0  0  0
  151.2122  141.0656  158.6750 C   0  0  0  0  0  0  0  0  0  0  0  0
  150.4271  140.1055  158.2693 N   0  0  0  0  0  0  0  0  0  0  0  0
  151.0156  138.9478  158.7663 C   0  0  0  0  0  0  0  0  0  0  0  0
  150.7064  137.5575  158.6977 C   0  0  0  0  0  0  0  0  0  0  0  0
  149.6471  137.0189  158.0482 N   0  0  0  0  0  0  0  0  0  0  0  0
  150.0867  136.3150  156.8488 C   0  0  0  0  0  0  0  0  0  0  0  0
  148.8778  135.8977  156.0008 C   0  0  0  0  0  0  0  0  0  0  0  0
  148.0063  135.1058  156.7960 O   0  0  0  0  0  0  0  0  0  0  0  0
  147.5002  135.8302  157.9114 C   0  0  0  0  0  0  0  0  0  0  0  0
  148.6547  136.2778  158.8385 C   0  0  2  0  0  0  0  0  0  0  0  0
  148.1213  137.0965  160.0434 C   0  0  0  0  0  0  0  0  0  0  0  0
  146.9580  136.4315  160.7759 C   0  0  0  0  0  0  0  0  0  0  0  0
  146.6274  136.8494  162.2166 C   0  0  0  0  0  0  0  0  0  0  0  0
  146.2368  135.3961  162.4999 C   0  0  0  0  0  0  0  0  0  0  0  0
  147.1118  134.9984  161.3086 C   0  0  0  0  0  0  0  0  0  0  0  0
  151.5261  136.6946  159.3483 N   0  0  0  0  0  0  0  0  0  0  0  0
  152.5946  137.1519  160.0080 C   0  0  0  0  0  0  0  0  0  0  0  0
  153.0172  138.4107  160.1435 N   0  0  0  0  0  0  0  0  0  0  0  0
  152.1876  139.2827  159.5021 C   0  0  0  0  0  0  0  0  0  0  0  0
  151.8964  143.6389  160.0592 C   0  0  2  0  0  0  0  0  0  0  0  0
  152.6732  144.5591  159.1021 C   0  0  0  0  0  0  0  0  0  0  0  0
  152.1463  145.9491  159.4237 C   0  0  0  0  0  0  0  0  0  0  0  0
  150.8495  145.6701  160.1745 C   0  0  0  0  0  0  0  0  0  0  0  0
  151.1569  144.5017  160.9156 O   0  0  0  0  0  0  0  0  0  0  0  0
  152.2699  142.4748  162.7402 H   0  0  0  0  0  0  0  0  0  0  0  0
  153.5599  143.1779  161.3310 H   0  0  0  0  0  0  0  0  0  0  0  0
  153.9255  141.9199  159.1887 H   0  0  0  0  0  0  0  0  0  0  0  0
  153.9877  140.8777  160.5916 H   0  0  0  0  0  0  0  0  0  0  0  0
  151.0201  142.1032  158.4431 H   0  0  0  0  0  0  0  0  0  0  0  0
  150.7465  136.9499  156.2557 H   0  0  0  0  0  0  0  0  0  0  0  0
  150.6621  135.4337  157.1366 H   0  0  0  0  0  0  0  0  0  0  0  0
  148.3497  136.7705  155.6134 H   0  0  0  0  0  0  0  0  0  0  0  0
  149.2048  135.3133  155.1410 H   0  0  0  0  0  0  0  0  0  0  0  0
  146.9205  136.6876  157.5653 H   0  0  0  0  0  0  0  0  0  0  0  0
  146.8104  135.1749  158.4423 H   0  0  0  0  0  0  0  0  0  0  0  0
  149.1333  135.3731  159.2121 H   0  0  0  0  0  0  0  0  0  0  0  0
  148.9185  137.2691  160.7656 H   0  0  0  0  0  0  0  0  0  0  0  0
  147.8235  138.0886  159.7020 H   0  0  0  0  0  0  0  0  0  0  0  0
  146.0401  136.4894  160.1881 H   0  0  0  0  0  0  0  0  0  0  0  0
  147.5058  137.1658  162.7815 H   0  0  0  0  0  0  0  0  0  0  0  0
  145.8117  137.5674  162.3072 H   0  0  0  0  0  0  0  0  0  0  0  0
  146.5729  135.0111  163.4630 H   0  0  0  0  0  0  0  0  0  0  0  0
  145.1768  135.2004  162.3300 H   0  0  0  0  0  0  0  0  0  0  0  0
  146.6885  134.2255  160.6663 H   0  0  0  0  0  0  0  0  0  0  0  0
  148.1371  134.7626  161.5991 H   0  0  0  0  0  0  0  0  0  0  0  0
  153.1983  136.4013  160.4967 H   0  0  0  0  0  0  0  0  0  0  0  0
  151.1634  143.0831  159.4715 H   0  0  0  0  0  0  0  0  0  0  0  0
  153.7544  144.5111  159.2339 H   0  0  0  0  0  0  0  0  0  0  0  0
  152.4587  144.2904  158.0672 H   0  0  0  0  0  0  0  0  0  0  0  0
  152.8466  146.4643  160.0823 H   0  0  0  0  0  0  0  0  0  0  0  0
  151.9984  146.5665  158.5373 H   0  0  0  0  0  0  0  0  0  0  0  0
  150.5503  146.4935  160.8230 H   0  0  0  0  0  0  0  0  0  0  0  0
  150.0331  145.4605  159.4813 H   0  0  0  0  0  0  0  0  0  0  0  0
  1  2  1  0  0  0  0
  1 29  1  0  0  0  0
  2  3  1  0  0  0  0
  2 24  1  0  0  0  0
  2 30  1  0  0  0  0
  3  4  1  0  0  0  0
  3 31  1  0  0  0  0
  3 32  1  0  0  0  0
  4 23  1  0  0  0  0
  4  5  1  0  0  0  0
  5  6  2  0  0  0  0
  5 33  1  0  0  0  0
  6  7  1  0  0  0  0
  7 23  2  0  0  0  0
  7  8  1  0  0  0  0
  8  9  1  0  0  0  0
  8 20  2  0  0  0  0
  9 14  1  0  0  0  0
  9 10  1  0  0  0  0
 10 11  1  0  0  0  0
 10 34  1  0  0  0  0
 10 35  1  0  0  0  0
 11 12  1  0  0  0  0
 11 36  1  0  0  0  0
 11 37  1  0  0  0  0
 12 13  1  0  0  0  0
 13 14  1  0  0  0  0
 13 38  1  0  0  0  0
 13 39  1  0  0  0  0
 14 15  1  0  0  0  0
 14 40  1  0  0  0  0
 15 16  1  0  0  0  0
 15 41  1  0  0  0  0
 15 42  1  0  0  0  0
 16 19  1  0  0  0  0
 16 17  1  0  0  0  0
 16 43  1  0  0  0  0
 17 18  1  0  0  0  0
 17 44  1  0  0  0  0
 17 45  1  0  0  0  0
 18 19  1  0  0  0  0
 18 46  1  0  0  0  0
 18 47  1  0  0  0  0
 19 48  1  0  0  0  0
 19 49  1  0  0  0  0
 20 21  1  0  0  0  0
 21 22  2  0  0  0  0
 21 50  1  0  0  0  0
 22 23  1  0  0  0  0
 24 28  1  0  0  0  0
 24 25  1  0  0  0  0
 24 51  1  0  0  0  0
 25 26  1  0  0  0  0
 25 52  1  0  0  0  0
 25 53  1  0  0  0  0
 26 27  1  0  0  0  0
 26 54  1  0  0  0  0
 26 55  1  0  0  0  0
 27 28  1  0  0  0  0
 27 56  1  0  0  0  0
 27 57  1  0  0  0  0
M  END
> <s_m_source_file>
AV-unprocessed.smi

> <i_m_source_file_index>
170

> <i_lp_mmshare_version>
43012

> <i_f3d_flags>
0

> <s_epik_input>
TzFbQ0gyXVtDSDJdW0NIMl1bQ0BIXTFbQ0BIXShbT0hdKVtDSDJdbihbY0hdbjIpYyhjMjMpbltjSF1uYzNONFtDSDJdW0NIMl1PW0NIMl1bQ0BIXTRbQ0gyXVtDSF01W0NIMl1bQ0gyXVtDSDJdNQ==

> <s_epik_cmdline>
J2VwaWtfcHl0aG9uJywgJy1waCcsICc3LjAnLCAnLXRuJywgJzgnLCAnLW1hJywgJzIwMCcsICctbWV0YWxfYmluZGluZycsICctaW1hZScsICc8aW5maWxlLm1hZT4nLCAnLW9tYWUnLCAnPG91dGZpbGUubWFlPic=

> <r_lp_tautomer_probability>
1

> <r_epik_Ionization_Penalty>
4.98275e-05

> <r_epik_Ionization_Penalty_Charging>
0

> <r_epik_Ionization_Penalty_Neutral>
4.98275e-05

> <r_epik_State_Penalty>
-0

> <r_epik_Charging_Adjusted_Penalty>
0

> <i_epik_Tot_Q>
0

> <i_epik_Tot_abs_Q>
0

> <r_epik_Metal_State_Penalty>
-0

> <b_epik_Metal_Only>
0

> <s_lp_Force_Field>
OPLS_2005

> <r_lp_Energy>
52.3548

> <b_lp_Chiralities_Consistent>
1

> <s_lp_Variant>
AV-unprocessed.smi:170-4

> <Gold.Version>
5.8.1

> <Gold.Id.Protein>
6NUR|6NUR_protein|mol2

> <Gold.PLP.Fitness>
50.9250

> <Gold.PLP.PLP>
-46.9800

> <Gold.PLP.part.hbond>
-1.9954

> <Gold.PLP.part.metal>
0.0000

> <Gold.PLP.part.buried>
-1.7826

> <Gold.PLP.part.nonpolar>
-44.5249

> <Gold.PLP.part.repulsive>
0.1599

> <Gold.PLP.ligand.clash>
0.0000

> <Gold.PLP.ligand.torsion>
0.4958

> <Gold.PLP.Chemscore.Hbond>
1.4730

> <Gold.PLP.Chemscore.CHOScore>
0.0000

> <Gold.PLP.Chemscore.Metal>
0.0000

> <Gold.Chemscore.Hbonds>
donor molecule, donor type, donor heavy atom, donor atom, acceptor molecule, acceptor atom, score
      P1  H  6896  6907       L1    20  0.85
      P1  H  6933  6945       L1     1  0.88

> <Gold.PLP.Chemscore.Internal.Correction>
0.5177

> <Gold.Rescore>
     Score         DG    S(hbond)    S(metal)    S(lipo)     H(rot)  DE(clash)    DE(int)     intcor
     15.22     -16.64       0.82        0.00     129.27       2.61       0.84       0.58       ----

> <Gold.Chemscore.Fitness>
15.2210

> <Gold.Chemscore.DG>
-16.6408

> <Gold.Chemscore.ZeroCoef>
-5.4800

> <Gold.Chemscore.Hbond>
0.8172

> <Gold.Chemscore.Metal>
0.0000

> <Gold.Chemscore.Lipo>
129.2664

> <Gold.Chemscore.Internal_Hbond>
0.0000

> <Gold.Chemscore.DEClash>
0.8386

> <Gold.Chemscore.DEInternal>
0.5812

> <Gold.Chemscore.Rot>
2.6144

> <Gold.Chemscore.Internal.Correction>
   9.000000E+99

> <Gold.Chemscore.Hbonds>
donor molecule, donor type, donor heavy atom, donor atom, acceptor molecule, acceptor atom, score
      P1  H  6896  6907       L1    20  0.14
      P1  H  6933  6945       L1     1  0.38

> <Gold.Chemscore.Hbond.Weighted>
-2.7295

> <Gold.Chemscore.Metal.Weighted>
-0.0000

> <Gold.Chemscore.Lipo.Weighted>
-15.1242

> <Gold.Chemscore.Internal_Hbond.Weighted>
0.0000

> <Gold.Chemscore.DEClash.Weighted>
0.8386

> <Gold.Chemscore.DEInternal.Weighted>
0.5812

> <Gold.Chemscore.Rot.Weighted>
6.6929

> <Gold.Chemscore.Internal.Correction.Weighted>
   9.000000E+99

> <Gold.Protein.RotatedTorsions>
[ 6907 6896 6895 6894 ] final   -0.71 input  -60.11 | X-H torsion
[ 7974 7965 7964 7962 ] final  -69.07 input  175.53 | X-H torsion
[ 8008 7997 7996 7995 ] final  -97.15 input   59.86 | X-H torsion
[ 10167 10162 10161 10158 ] final -178.69 input  -65.29 | X-H torsion
[ 10718 10713 10712 10709 ] final -178.13 input   66.30 | X-H torsion
[ 10763 10752 10751 10750 ] final    5.01 input  -60.55 | X-H torsion
[ 11005 11000 10999 10996 ] final  177.69 input  -57.11 | X-H torsion

> <Gold.Protein.ActiveResidues>
 VAL166  LYS551  ARG553  GLY616  TRP617  ASP618  TYR619  PRO620  LYS621  CYS622 
 ASP623  PHE694  ASN695  SER759  ASP760  ASP761  ALA762  ILE779  LEU786  VAL792 
 PHE793  MET794  SER795  GLU796  ALA797  LYS798  CYS799  TRP800  GLU811  SER814 

> <Gold.Protein.RotatedAtoms>
  151.5579  135.1066  159.9965 H   0  0  0  0  0  0  0  0  0  0  0  0  # atno 6907 bound_to 6896
  152.4461  133.7534  159.6717 H   0  0  0  0  0  0  0  0  0  0  0  0  # atno 6908 bound_to 6896
  150.8376  133.7920  159.3097 H   0  0  0  0  0  0  0  0  0  0  0  0  # atno 6909 bound_to 6896
  145.7084  140.9088  143.0694 H   0  0  0  0  0  0  0  0  0  0  0  0  # atno 7974 bound_to 7965
  154.7839  140.0465  157.1148 H   0  0  0  0  0  0  0  0  0  0  0  0  # atno 8008 bound_to 7997
  154.9672  140.3085  155.4984 H   0  0  0  0  0  0  0  0  0  0  0  0  # atno 8009 bound_to 7997
  156.2940  140.2260  156.4762 H   0  0  0  0  0  0  0  0  0  0  0  0  # atno 8010 bound_to 7997
  139.5420  144.2336  152.0914 H   0  0  0  0  0  0  0  0  0  0  0  0  # atno 10167 bound_to 10162
  156.8397  130.9682  151.3101 H   0  0  0  0  0  0  0  0  0  0  0  0  # atno 10718 bound_to 10713
  153.2644  135.6926  153.7545 H   0  0  0  0  0  0  0  0  0  0  0  0  # atno 10763 bound_to 10752
  153.6592  135.3363  155.3123 H   0  0  0  0  0  0  0  0  0  0  0  0  # atno 10764 bound_to 10752
  154.8442  135.4473  154.1645 H   0  0  0  0  0  0  0  0  0  0  0  0  # atno 10765 bound_to 10752
  140.3869  134.6897  157.4484 H   0  0  0  0  0  0  0  0  0  0  0  0  # atno 11005 bound_to 11000
  144.6949  139.9041  143.7460 LP  0  0  0  0  0  0  0  0  0  0  0  0  # atno 17320 bound_to 7965
  146.0735  139.3723  143.0508 LP  0  0  0  0  0  0  0  0  0  0  0  0  # atno 17321 bound_to 7965
  140.1817  144.4838  150.6525 LP  0  0  0  0  0  0  0  0  0  0  0  0  # atno 17342 bound_to 10162
  140.6654  143.2266  151.5755 LP  0  0  0  0  0  0  0  0  0  0  0  0  # atno 17343 bound_to 10162
  157.6362  130.8769  149.9364 LP  0  0  0  0  0  0  0  0  0  0  0  0  # atno 17370 bound_to 10713
  156.0888  130.3665  150.0436 LP  0  0  0  0  0  0  0  0  0  0  0  0  # atno 17371 bound_to 10713
  140.0436  134.6231  155.8949 LP  0  0  0  0  0  0  0  0  0  0  0  0  # atno 17394 bound_to 11000
  141.1904  133.6568  156.5412 LP  0  0  0  0  0  0  0  0  0  0  0  0  # atno 17395 bound_to 11000

$$$$
