AV-unprocessed.smi:560|AV-procd|sdf|2928|dock6
  -GOLD-   2262023423D 1   1.00000     0.00000
 Structure written by MMmdl.
 42 43  0  0  0  0  0  0  0  0  2 V2000
  151.1438  130.6302  157.3933 C   0  0  0  0  0  0  0  0  0  0  0  0
  150.9080  131.4989  156.1408 C   0  0  2  0  0  0  0  0  0  0  0  0
  150.3531  132.8960  156.4706 C   0  0  0  0  0  0  0  0  0  0  0  0
  150.0910  133.2155  157.6311 O   0  0  0  0  0  0  0  0  0  0  0  0
  150.1801  133.7277  155.4301 N   0  0  0  0  0  0  0  0  0  0  0  0
  149.6413  135.0809  155.5145 C   0  0  2  0  0  0  0  0  0  0  0  0
  148.2215  135.1438  154.9200 C   0  0  0  0  0  0  0  0  0  0  0  0
  147.6908  136.5862  154.9046 C   0  0  0  0  0  0  0  0  0  0  0  0
  148.6072  137.4848  154.1529 N   0  3  1  0  0  0  0  0  0  0  0  0
  148.0678  138.8606  153.9908 C   0  0  0  0  0  0  0  0  0  0  0  0
  146.8496  138.9695  153.0604 C   0  0  0  0  0  0  0  0  0  0  0  0
  146.9493  139.6875  151.9360 N   0  0  0  0  0  0  0  0  0  0  0  0
  145.8074  138.3950  153.3639 O   0  0  0  0  0  0  0  0  0  0  0  0
  149.9722  137.4763  154.7387 C   0  0  0  0  0  0  0  0  0  0  0  0
  150.5589  136.0546  154.7573 C   0  0  0  0  0  0  0  0  0  0  0  0
  150.0585  130.8197  155.1679 N   0  0  0  0  0  0  0  0  0  0  0  0
  149.7519  129.4757  155.0995 C   0  0  0  0  0  0  0  0  0  0  0  0
  148.9434  129.2934  154.0144 C   0  0  0  0  0  0  0  0  0  0  0  0
  148.8116  130.6000  153.4680 C   0  0  0  0  0  0  0  0  0  0  0  0
  149.4843  131.5090  154.1543 N   0  0  0  0  0  0  0  0  0  0  0  0
  151.8358  131.1132  158.0841 H   0  0  0  0  0  0  0  0  0  0  0  0
  151.5760  129.6668  157.1216 H   0  0  0  0  0  0  0  0  0  0  0  0
  150.2171  130.4350  157.9347 H   0  0  0  0  0  0  0  0  0  0  0  0
  151.8789  131.6532  155.6674 H   0  0  0  0  0  0  0  0  0  0  0  0
  150.4243  133.3884  154.5109 H   0  0  0  0  0  0  0  0  0  0  0  0
  149.6054  135.3856  156.5623 H   0  0  0  0  0  0  0  0  0  0  0  0
  148.2257  134.7474  153.9033 H   0  0  0  0  0  0  0  0  0  0  0  0
  147.5421  134.5123  155.4937 H   0  0  0  0  0  0  0  0  0  0  0  0
  146.6973  136.5973  154.4559 H   0  0  0  0  0  0  0  0  0  0  0  0
  147.5765  136.9531  155.9261 H   0  0  0  0  0  0  0  0  0  0  0  0
  147.8276  139.2855  154.9669 H   0  0  0  0  0  0  0  0  0  0  0  0
  148.8359  139.5031  153.5583 H   0  0  0  0  0  0  0  0  0  0  0  0
  146.1671  139.7743  151.3049 H   0  0  0  0  0  0  0  0  0  0  0  0
  147.8237  140.1453  151.7186 H   0  0  0  0  0  0  0  0  0  0  0  0
  150.6283  138.1239  154.1557 H   0  0  0  0  0  0  0  0  0  0  0  0
  149.9387  137.8853  155.7500 H   0  0  0  0  0  0  0  0  0  0  0  0
  151.5478  136.0710  155.2174 H   0  0  0  0  0  0  0  0  0  0  0  0
  150.7008  135.7100  153.7317 H   0  0  0  0  0  0  0  0  0  0  0  0
  150.1299  128.7673  155.8220 H   0  0  0  0  0  0  0  0  0  0  0  0
  148.5117  128.3677  153.6640 H   0  0  0  0  0  0  0  0  0  0  0  0
  148.2533  130.9126  152.5978 H   0  0  0  0  0  0  0  0  0  0  0  0
  148.7006  137.1059  153.2217 H   0  0  0  0  0  0  0  0  0  0  0  0
  1  2  1  0  0  0  0
  1 21  1  0  0  0  0
  1 22  1  0  0  0  0
  1 23  1  0  0  0  0
  2  3  1  0  0  0  0
  2 16  1  0  0  0  0
  2 24  1  0  0  0  0
  3  4  2  0  0  0  0
  3  5  1  0  0  0  0
  5  6  1  0  0  0  0
  5 25  1  0  0  0  0
  6 15  1  0  0  0  0
  6  7  1  0  0  0  0
  6 26  1  0  0  0  0
  7  8  1  0  0  0  0
  7 27  1  0  0  0  0
  7 28  1  0  0  0  0
  8  9  1  0  0  0  0
  8 29  1  0  0  0  0
  8 30  1  0  0  0  0
  9 10  1  0  0  0  0
  9 14  1  0  0  0  0
  9 42  1  0  0  0  0
 10 11  1  0  0  0  0
 10 31  1  0  0  0  0
 10 32  1  0  0  0  0
 11 12  1  0  0  0  0
 11 13  2  0  0  0  0
 12 33  1  0  0  0  0
 12 34  1  0  0  0  0
 14 15  1  0  0  0  0
 14 35  1  0  0  0  0
 14 36  1  0  0  0  0
 15 37  1  0  0  0  0
 15 38  1  0  0  0  0
 16 20  1  0  0  0  0
 16 17  1  0  0  0  0
 17 18  2  0  0  0  0
 17 39  1  0  0  0  0
 18 19  1  0  0  0  0
 18 40  1  0  0  0  0
 19 20  2  0  0  0  0
 19 41  1  0  0  0  0
M  CHG  1   9   1
M  END
> <s_m_source_file>
AV-unprocessed.smi

> <i_m_source_file_index>
560

> <i_lp_mmshare_version>
43012

> <i_f3d_flags>
0

> <s_epik_input>
bjFbY0hdW2NIXVtjSF1uMVtDQEhdKFtDSDNdKUMoPU8pW05IXVtDSF0yW0NIMl1bQ0gyXU4oW0NIMl1bQ0gyXTIpW0NIMl1DKD1PKVtOSDJd

> <s_epik_cmdline>
J2VwaWtfcHl0aG9uJywgJy1waCcsICc3LjAnLCAnLXRuJywgJzgnLCAnLW1hJywgJzIwMCcsICctbWV0YWxfYmluZGluZycsICctaW1hZScsICc8aW5maWxlLm1hZT4nLCAnLW9tYWUnLCAnPG91dGZpbGUubWFlPic=

> <r_lp_tautomer_probability>
1

> <r_epik_Ionization_Penalty>
1.02943

> <r_epik_Ionization_Penalty_Charging>
1.02936

> <r_epik_Ionization_Penalty_Neutral>
7.4537e-05

> <r_epik_State_Penalty>
1.08036

> <r_epik_Charging_Adjusted_Penalty>
2.10972

> <i_epik_Tot_Q>
1

> <i_epik_Tot_abs_Q>
1

> <r_epik_Metal_State_Penalty>
1.09347

> <b_epik_Metal_Only>
0

> <s_lp_Force_Field>
OPLS_2005

> <r_lp_Energy>
17.0208

> <b_lp_Chiralities_Consistent>
1

> <s_lp_Variant>
AV-unprocessed.smi:560-3

> <Gold.Version>
5.8.1

> <Gold.Id.Protein>
6NUR|6NUR_protein|mol2

> <Gold.PLP.Fitness>
38.8244

> <Gold.PLP.PLP>
-25.2229

> <Gold.PLP.part.hbond>
-3.0353

> <Gold.PLP.part.metal>
0.0000

> <Gold.PLP.part.buried>
-3.1940

> <Gold.PLP.part.nonpolar>
-18.9765

> <Gold.PLP.part.repulsive>
0.3878

> <Gold.PLP.ligand.clash>
0.0000

> <Gold.PLP.ligand.torsion>
0.7638

> <Gold.PLP.Chemscore.Hbond>
4.0000

> <Gold.PLP.Chemscore.CHOScore>
0.9998

> <Gold.PLP.Chemscore.Metal>
0.0000

> <Gold.Chemscore.Hbonds>
donor molecule, donor type, donor heavy atom, donor atom, acceptor molecule, acceptor atom, score
      L1  H     9    42       P1  7948  2.00
      L1  H    12    34       P1  7957  0.99
      P1  H  6896  6908       L1     4  1.00
      L1  C    19    41       P1 10747  0.93

> <Gold.PLP.Chemscore.Internal.Correction>
0.1298

> <Gold.Rescore>
     Score         DG    S(hbond)    S(metal)    S(lipo)     H(rot)  DE(clash)    DE(int)     intcor
     11.96     -14.61       2.97        0.00      48.39       2.52       0.02       2.64       ----

> <Gold.Chemscore.Fitness>
11.9572

> <Gold.Chemscore.DG>
-14.6130

> <Gold.Chemscore.ZeroCoef>
-5.4800

> <Gold.Chemscore.Hbond>
2.9740

> <Gold.Chemscore.Metal>
0.0000

> <Gold.Chemscore.Lipo>
48.3926

> <Gold.Chemscore.Internal_Hbond>
0.0000

> <Gold.Chemscore.DEClash>
0.0158

> <Gold.Chemscore.DEInternal>
2.6400

> <Gold.Chemscore.Rot>
2.5243

> <Gold.Chemscore.Internal.Correction>
   9.000000E+99

> <Gold.Chemscore.Hbonds>
donor molecule, donor type, donor heavy atom, donor atom, acceptor molecule, acceptor atom, score
      L1  H     9    42       P1  7948  0.99
      L1  H    12    34       P1  7957  0.94
      P1  H  6896  6908       L1     4  0.97

> <Gold.Chemscore.Hbond.Weighted>
-9.9333

> <Gold.Chemscore.Metal.Weighted>
-0.0000

> <Gold.Chemscore.Lipo.Weighted>
-5.6619

> <Gold.Chemscore.Internal_Hbond.Weighted>
0.0000

> <Gold.Chemscore.DEClash.Weighted>
0.0158

> <Gold.Chemscore.DEInternal.Weighted>
2.6400

> <Gold.Chemscore.Rot.Weighted>
6.4622

> <Gold.Chemscore.Internal.Correction.Weighted>
   9.000000E+99

> <Gold.Protein.RotatedTorsions>
[ 6907 6896 6895 6894 ] final   94.78 input  -60.11 | X-H torsion
[ 7974 7965 7964 7962 ] final  -18.84 input  175.53 | X-H torsion
[ 8008 7997 7996 7995 ] final   67.77 input   59.86 | X-H torsion
[ 10167 10162 10161 10158 ] final   80.11 input  -65.29 | X-H torsion
[ 10718 10713 10712 10709 ] final -163.14 input   66.30 | X-H torsion
[ 10763 10752 10751 10750 ] final   43.14 input  -60.55 | X-H torsion
[ 11005 11000 10999 10996 ] final -159.96 input  -57.11 | X-H torsion

> <Gold.Protein.ActiveResidues>
 VAL166  LYS551  ARG553  GLY616  TRP617  ASP618  TYR619  PRO620  LYS621  CYS622 
 ASP623  PHE694  ASN695  SER759  ASP760  ASP761  ALA762  ILE779  LEU786  VAL792 
 PHE793  MET794  SER795  GLU796  ALA797  LYS798  CYS799  TRP800  GLU811  SER814 

> <Gold.Protein.RotatedAtoms>
  152.5447  134.1140  159.8370 H   0  0  0  0  0  0  0  0  0  0  0  0  # atno 6907 bound_to 6896
  151.1204  133.5101  159.2609 H   0  0  0  0  0  0  0  0  0  0  0  0  # atno 6908 bound_to 6896
  151.1786  135.0360  159.8837 H   0  0  0  0  0  0  0  0  0  0  0  0  # atno 6909 bound_to 6896
  146.1872  140.3978  142.8472 H   0  0  0  0  0  0  0  0  0  0  0  0  # atno 7974 bound_to 7965
  155.6981  140.3495  155.4921 H   0  0  0  0  0  0  0  0  0  0  0  0  # atno 8008 bound_to 7997
  155.9465  140.1111  157.1035 H   0  0  0  0  0  0  0  0  0  0  0  0  # atno 8009 bound_to 7997
  154.4113  140.1202  156.4982 H   0  0  0  0  0  0  0  0  0  0  0  0  # atno 8010 bound_to 7997
  139.9532  144.6011  150.8141 H   0  0  0  0  0  0  0  0  0  0  0  0  # atno 10167 bound_to 10162
  156.6205  130.8888  151.2956 H   0  0  0  0  0  0  0  0  0  0  0  0  # atno 10718 bound_to 10713
  152.9867  135.6110  154.3063 H   0  0  0  0  0  0  0  0  0  0  0  0  # atno 10763 bound_to 10752
  154.2780  135.2778  155.2711 H   0  0  0  0  0  0  0  0  0  0  0  0  # atno 10764 bound_to 10752
  154.5063  135.5853  153.6626 H   0  0  0  0  0  0  0  0  0  0  0  0  # atno 10765 bound_to 10752
  140.6368  134.4593  157.5232 H   0  0  0  0  0  0  0  0  0  0  0  0  # atno 11005 bound_to 11000
  144.8418  140.6869  143.6224 LP  0  0  0  0  0  0  0  0  0  0  0  0  # atno 17320 bound_to 7965
  145.3904  139.1618  143.4232 LP  0  0  0  0  0  0  0  0  0  0  0  0  # atno 17321 bound_to 7965
  140.7576  143.3090  151.2891 LP  0  0  0  0  0  0  0  0  0  0  0  0  # atno 17342 bound_to 10162
  139.6612  144.0187  152.2693 LP  0  0  0  0  0  0  0  0  0  0  0  0  # atno 17343 bound_to 10162
  157.7229  130.9582  150.1512 LP  0  0  0  0  0  0  0  0  0  0  0  0  # atno 17370 bound_to 10713
  156.2316  130.3682  149.8439 LP  0  0  0  0  0  0  0  0  0  0  0  0  # atno 17371 bound_to 10713
  139.9095  134.8376  156.1581 LP  0  0  0  0  0  0  0  0  0  0  0  0  # atno 17394 bound_to 11000
  141.0635  133.6830  156.1999 LP  0  0  0  0  0  0  0  0  0  0  0  0  # atno 17395 bound_to 11000

$$$$
