AV-unprocessed.smi:18|AV-procd|sdf|108|dock4
  -GOLD-   2262015263D 1   1.00000     0.00000
 Structure written by MMmdl.
 47 50  0  0  0  0  0  0  0  0  1 V2000
  146.7112  140.5789  152.2450 O   0  0  0  0  0  0  0  0  0  0  0  0
  147.0126  139.6247  153.2433 C   0  0  0  0  0  0  0  0  0  0  0  0
  147.6362  140.2860  154.4855 C   0  0  0  0  0  0  0  0  0  0  0  0
  147.8389  139.2552  155.6161 C   0  0  0  0  0  0  0  0  0  0  0  0
  148.8111  139.6555  156.6224 N   0  0  0  0  0  0  0  0  0  0  0  0
  148.5435  140.2964  157.8122 C   0  0  0  0  0  0  0  0  0  0  0  0
  149.5852  140.5521  158.5558 N   0  0  0  0  0  0  0  0  0  0  0  0
  150.6531  140.0627  157.8152 C   0  0  0  0  0  0  0  0  0  0  0  0
  152.0572  140.0187  158.0232 C   0  0  0  0  0  0  0  0  0  0  0  0
  152.6268  140.4983  159.1554 N   0  0  0  0  0  0  0  0  0  0  0  0
  153.7983  139.6964  159.4944 C   0  0  0  0  0  0  0  0  0  0  0  0
  154.3541  140.1063  160.8634 C   0  0  0  0  0  0  0  0  0  0  0  0
  154.6525  141.4943  160.8376 O   0  0  0  0  0  0  0  0  0  0  0  0
  153.4868  142.2796  160.6197 C   0  0  0  0  0  0  0  0  0  0  0  0
  152.8469  141.9495  159.2501 C   0  0  2  0  0  0  0  0  0  0  0  0
  151.5348  142.7535  159.0534 C   0  0  0  0  0  0  0  0  0  0  0  0
  151.6874  144.2704  159.2454 C   0  0  0  0  0  0  0  0  0  0  0  0
  152.3656  144.8063  158.2309 F   0  0  0  0  0  0  0  0  0  0  0  0
  150.4839  144.8383  159.3100 F   0  0  0  0  0  0  0  0  0  0  0  0
  152.8220  139.4393  157.0595 N   0  0  0  0  0  0  0  0  0  0  0  0
  152.2500  138.9535  155.9537 C   0  0  0  0  0  0  0  0  0  0  0  0
  150.9572  138.9343  155.6223 N   0  0  0  0  0  0  0  0  0  0  0  0
  150.1862  139.5003  156.5944 C   0  0  0  0  0  0  0  0  0  0  0  0
  148.8361  141.1945  154.1802 C   0  0  0  0  0  0  0  0  0  0  0  0
  148.0265  142.3857  154.2675 O   0  0  0  0  0  0  0  0  0  0  0  0
  146.9861  141.6127  154.9022 C   0  0  0  0  0  0  0  0  0  0  0  0
  147.5154  140.8283  151.8151 H   0  0  0  0  0  0  0  0  0  0  0  0
  146.1093  139.0679  153.4929 H   0  0  0  0  0  0  0  0  0  0  0  0
  147.7016  138.8985  152.8108 H   0  0  0  0  0  0  0  0  0  0  0  0
  146.8955  139.0560  156.1261 H   0  0  0  0  0  0  0  0  0  0  0  0
  148.1527  138.2955  155.2038 H   0  0  0  0  0  0  0  0  0  0  0  0
  147.5417  140.5628  158.1172 H   0  0  0  0  0  0  0  0  0  0  0  0
  153.5423  138.6359  159.5088 H   0  0  0  0  0  0  0  0  0  0  0  0
  154.5643  139.8314  158.7288 H   0  0  0  0  0  0  0  0  0  0  0  0
  153.6423  139.8835  161.6597 H   0  0  0  0  0  0  0  0  0  0  0  0
  155.2656  139.5500  161.0820 H   0  0  0  0  0  0  0  0  0  0  0  0
  152.7769  142.1186  161.4329 H   0  0  0  0  0  0  0  0  0  0  0  0
  153.7855  143.3261  160.6626 H   0  0  0  0  0  0  0  0  0  0  0  0
  153.5553  142.2329  158.4706 H   0  0  0  0  0  0  0  0  0  0  0  0
  151.1323  142.5938  158.0535 H   0  0  0  0  0  0  0  0  0  0  0  0
  150.7754  142.3784  159.7407 H   0  0  0  0  0  0  0  0  0  0  0  0
  152.2050  144.5289  160.1683 H   0  0  0  0  0  0  0  0  0  0  0  0
  152.9243  138.5152  155.2329 H   0  0  0  0  0  0  0  0  0  0  0  0
  149.6124  141.1857  154.9462 H   0  0  0  0  0  0  0  0  0  0  0  0
  149.2660  141.0470  153.1889 H   0  0  0  0  0  0  0  0  0  0  0  0
  146.0040  141.7871  154.4610 H   0  0  0  0  0  0  0  0  0  0  0  0
  146.9622  141.7753  155.9811 H   0  0  0  0  0  0  0  0  0  0  0  0
  1  2  1  0  0  0  0
  1 27  1  0  0  0  0
  2  3  1  0  0  0  0
  2 28  1  0  0  0  0
  2 29  1  0  0  0  0
  3 26  1  0  0  0  0
  3  4  1  0  0  0  0
  3 24  1  0  0  0  0
  4  5  1  0  0  0  0
  4 30  1  0  0  0  0
  4 31  1  0  0  0  0
  5 23  1  0  0  0  0
  5  6  1  0  0  0  0
  6  7  2  0  0  0  0
  6 32  1  0  0  0  0
  7  8  1  0  0  0  0
  8 23  2  0  0  0  0
  8  9  1  0  0  0  0
  9 10  1  0  0  0  0
  9 20  2  0  0  0  0
 10 15  1  0  0  0  0
 10 11  1  0  0  0  0
 11 12  1  0  0  0  0
 11 33  1  0  0  0  0
 11 34  1  0  0  0  0
 12 13  1  0  0  0  0
 12 35  1  0  0  0  0
 12 36  1  0  0  0  0
 13 14  1  0  0  0  0
 14 15  1  0  0  0  0
 14 37  1  0  0  0  0
 14 38  1  0  0  0  0
 15 16  1  0  0  0  0
 15 39  1  0  0  0  0
 16 17  1  0  0  0  0
 16 40  1  0  0  0  0
 16 41  1  0  0  0  0
 17 18  1  0  0  0  0
 17 19  1  0  0  0  0
 17 42  1  0  0  0  0
 20 21  1  0  0  0  0
 21 22  2  0  0  0  0
 21 43  1  0  0  0  0
 22 23  1  0  0  0  0
 24 25  1  0  0  0  0
 24 44  1  0  0  0  0
 24 45  1  0  0  0  0
 25 26  1  0  0  0  0
 26 46  1  0  0  0  0
 26 47  1  0  0  0  0
M  END
> <s_m_source_file>
AV-unprocessed.smi

> <i_m_source_file_index>
18

> <i_lp_mmshare_version>
43012

> <i_f3d_flags>
0

> <s_epik_input>
W0NIMl0xT1tDSDJdQzEoW0NIMl1bT0hdKVtDSDJdbihbY0hdbjIpYyhjMjMpbltjSF1uYzNONFtDSDJdW0NIMl1PW0NIMl1bQ0BIXTRbQ0gyXVtDSF0oRilG

> <s_epik_cmdline>
J2VwaWtfcHl0aG9uJywgJy1waCcsICc3LjAnLCAnLXRuJywgJzgnLCAnLW1hJywgJzIwMCcsICctbWV0YWxfYmluZGluZycsICctaW1hZScsICc8aW5maWxlLm1hZT4nLCAnLW9tYWUnLCAnPG91dGZpbGUubWFlPic=

> <r_lp_tautomer_probability>
1

> <r_epik_Ionization_Penalty>
6.63711e-05

> <r_epik_Ionization_Penalty_Charging>
0

> <r_epik_Ionization_Penalty_Neutral>
6.63711e-05

> <r_epik_State_Penalty>
-0

> <r_epik_Charging_Adjusted_Penalty>
0

> <i_epik_Tot_Q>
0

> <i_epik_Tot_abs_Q>
0

> <r_epik_Metal_State_Penalty>
-0

> <b_epik_Metal_Only>
0

> <s_lp_Force_Field>
OPLS_2005

> <r_lp_Energy>
38.6195

> <b_lp_Chiralities_Consistent>
1

> <s_lp_Variant>
AV-unprocessed.smi:18-2

> <Gold.Version>
5.8.1

> <Gold.Id.Protein>
6NUR|6NUR_protein|mol2

> <Gold.PLP.Fitness>
48.0830

> <Gold.PLP.PLP>
-44.5401

> <Gold.PLP.part.hbond>
-4.5219

> <Gold.PLP.part.metal>
0.0000

> <Gold.PLP.part.buried>
-3.0079

> <Gold.PLP.part.nonpolar>
-36.6472

> <Gold.PLP.part.repulsive>
1.6221

> <Gold.PLP.ligand.clash>
0.0000

> <Gold.PLP.ligand.torsion>
1.5064

> <Gold.PLP.Chemscore.Hbond>
2.0000

> <Gold.PLP.Chemscore.CHOScore>
0.0000

> <Gold.PLP.Chemscore.Metal>
0.0000

> <Gold.Chemscore.Hbonds>
donor molecule, donor type, donor heavy atom, donor atom, acceptor molecule, acceptor atom, score
      L1  H     1    27       P1  7957  0.30
      P1  H  7997  8010       L1    20  1.00

> <Gold.PLP.Chemscore.Internal.Correction>
0.5559

> <Gold.Rescore>
     Score         DG    S(hbond)    S(metal)    S(lipo)     H(rot)  DE(clash)    DE(int)     intcor
     10.01     -13.45       1.59        0.00      87.63       2.96       0.77       2.67       ----

> <Gold.Chemscore.Fitness>
10.0058

> <Gold.Chemscore.DG>
-13.4533

> <Gold.Chemscore.ZeroCoef>
-5.4800

> <Gold.Chemscore.Hbond>
1.5895

> <Gold.Chemscore.Metal>
0.0000

> <Gold.Chemscore.Lipo>
87.6317

> <Gold.Chemscore.Internal_Hbond>
0.0000

> <Gold.Chemscore.DEClash>
0.7730

> <Gold.Chemscore.DEInternal>
2.6746

> <Gold.Chemscore.Rot>
2.9643

> <Gold.Chemscore.Internal.Correction>
   9.000000E+99

> <Gold.Chemscore.Hbonds>
donor molecule, donor type, donor heavy atom, donor atom, acceptor molecule, acceptor atom, score
      L1  H     1    27       P1  7957  0.30
      P1  H  7997  8010       L1    20  0.60
      P1  H  8022  8030       L1    25  0.01

> <Gold.Chemscore.Hbond.Weighted>
-5.3090

> <Gold.Chemscore.Metal.Weighted>
-0.0000

> <Gold.Chemscore.Lipo.Weighted>
-10.2529

> <Gold.Chemscore.Internal_Hbond.Weighted>
0.0000

> <Gold.Chemscore.DEClash.Weighted>
0.7730

> <Gold.Chemscore.DEInternal.Weighted>
2.6746

> <Gold.Chemscore.Rot.Weighted>
7.5886

> <Gold.Chemscore.Internal.Correction.Weighted>
   9.000000E+99

> <Gold.Protein.RotatedTorsions>
[ 6907 6896 6895 6894 ] final   78.32 input  -60.11 | X-H torsion
[ 7974 7965 7964 7962 ] final  158.41 input  175.53 | X-H torsion
[ 8008 7997 7996 7995 ] final   62.16 input   59.86 | X-H torsion
[ 10167 10162 10161 10158 ] final  -82.95 input  -65.29 | X-H torsion
[ 10718 10713 10712 10709 ] final   10.83 input   66.30 | X-H torsion
[ 10763 10752 10751 10750 ] final  158.54 input  -60.55 | X-H torsion
[ 11005 11000 10999 10996 ] final -138.87 input  -57.11 | X-H torsion

> <Gold.Protein.ActiveResidues>
 VAL166  LYS551  ARG553  GLY616  TRP617  ASP618  TYR619  PRO620  LYS621  CYS622 
 ASP623  PHE694  ASN695  SER759  ASP760  ASP761  ALA762  ILE779  LEU786  VAL792 
 PHE793  MET794  SER795  GLU796  ALA797  LYS798  CYS799  TRP800  GLU811  SER814 

> <Gold.Protein.RotatedAtoms>
  152.5154  134.3682  159.9308 H   0  0  0  0  0  0  0  0  0  0  0  0  # atno 6907 bound_to 6896
  151.3636  133.3874  159.2700 H   0  0  0  0  0  0  0  0  0  0  0  0  # atno 6908 bound_to 6896
  150.9633  134.9036  159.7802 H   0  0  0  0  0  0  0  0  0  0  0  0  # atno 6909 bound_to 6896
  144.7847  139.7474  143.6245 H   0  0  0  0  0  0  0  0  0  0  0  0  # atno 7974 bound_to 7965
  155.6099  140.3495  155.4619 H   0  0  0  0  0  0  0  0  0  0  0  0  # atno 8008 bound_to 7997
  156.0162  140.1244  157.0428 H   0  0  0  0  0  0  0  0  0  0  0  0  # atno 8009 bound_to 7997
  154.4298  140.1071  156.5885 H   0  0  0  0  0  0  0  0  0  0  0  0  # atno 8010 bound_to 7997
  140.4272  143.2562  151.8809 H   0  0  0  0  0  0  0  0  0  0  0  0  # atno 10167 bound_to 10162
  156.9868  130.6027  149.5682 H   0  0  0  0  0  0  0  0  0  0  0  0  # atno 10718 bound_to 10713
  154.2176  135.2783  155.2936 H   0  0  0  0  0  0  0  0  0  0  0  0  # atno 10763 bound_to 10752
  154.5728  135.5613  153.7114 H   0  0  0  0  0  0  0  0  0  0  0  0  # atno 10764 bound_to 10752
  153.0049  135.6325  154.2316 H   0  0  0  0  0  0  0  0  0  0  0  0  # atno 10765 bound_to 10752
  140.8574  134.2211  157.4727 H   0  0  0  0  0  0  0  0  0  0  0  0  # atno 11005 bound_to 11000
  146.2073  139.5406  142.9704 LP  0  0  0  0  0  0  0  0  0  0  0  0  # atno 17320 bound_to 7965
  145.5953  141.0363  143.2048 LP  0  0  0  0  0  0  0  0  0  0  0  0  # atno 17321 bound_to 7965
  139.4784  144.5373  151.8579 LP  0  0  0  0  0  0  0  0  0  0  0  0  # atno 17342 bound_to 10162
  140.4467  144.1911  150.5894 LP  0  0  0  0  0  0  0  0  0  0  0  0  # atno 17343 bound_to 10162
  156.0223  130.5317  150.8309 LP  0  0  0  0  0  0  0  0  0  0  0  0  # atno 17370 bound_to 10713
  157.5487  131.0943  150.9726 LP  0  0  0  0  0  0  0  0  0  0  0  0  # atno 17371 bound_to 10713
  139.8706  134.9713  156.4732 LP  0  0  0  0  0  0  0  0  0  0  0  0  # atno 17394 bound_to 11000
  140.8722  133.7980  155.9376 LP  0  0  0  0  0  0  0  0  0  0  0  0  # atno 17395 bound_to 11000

$$$$
