AV-unprocessed.smi:1677|AV-procd|sdf|6725|dock5
  -GOLD-   22720 7473D 1   1.00000     0.00000
 Structure written by MMmdl.
 36 37  0  0  0  0  0  0  0  0  1 V2000
  149.6069  138.3038  156.6809 C   0  0  0  0  0  0  0  0  0  0  0  0
  150.6801  139.2558  156.1276 C   0  0  1  0  0  0  0  0  0  0  0  0
  150.4339  139.6619  154.6582 C   0  0  0  0  0  0  0  0  0  0  0  0
  149.0349  139.9197  154.3743 N   0  0  0  0  0  0  0  0  0  0  0  0
  148.1174  139.0339  153.8252 C   0  0  0  0  0  0  0  0  0  0  0  0
  146.9211  139.7098  153.7402 C   0  0  0  0  0  0  0  0  0  0  0  0
  147.0799  141.0068  154.2227 N   0  0  0  0  0  0  0  0  0  0  0  0
  148.3575  141.0586  154.5764 C   0  0  0  0  0  0  0  0  0  0  0  0
  150.7437  140.4447  156.9726 N   0  0  0  0  0  0  0  0  0  0  0  0
  151.7800  140.7942  157.7511 C   0  0  0  0  0  0  0  0  0  0  0  0
  152.8170  140.1348  157.8308 O   0  0  0  0  0  0  0  0  0  0  0  0
  151.6193  142.0856  158.5646 C   0  0  2  0  0  0  0  0  0  0  0  0
  151.4707  143.3175  157.6417 C   0  0  0  0  0  0  0  0  0  0  0  0
  151.5655  144.6238  158.4105 C   0  0  0  0  0  0  0  0  0  0  0  0
  152.0571  144.7132  159.6584 C   0  0  0  0  0  0  0  0  0  0  0  0
  152.5778  143.5194  160.4389 C   0  0  0  0  0  0  0  0  0  0  0  0
  152.7945  142.2850  159.5429 C   0  0  0  0  0  0  0  0  0  0  0  0
  149.5906  137.3590  156.1372 H   0  0  0  0  0  0  0  0  0  0  0  0
  148.6124  138.7457  156.6115 H   0  0  0  0  0  0  0  0  0  0  0  0
  149.7947  138.0685  157.7289 H   0  0  0  0  0  0  0  0  0  0  0  0
  151.6375  138.7345  156.1882 H   0  0  0  0  0  0  0  0  0  0  0  0
  151.0086  140.5560  154.4114 H   0  0  0  0  0  0  0  0  0  0  0  0
  150.7744  138.8762  153.9825 H   0  0  0  0  0  0  0  0  0  0  0  0
  148.3847  138.0238  153.5513 H   0  0  0  0  0  0  0  0  0  0  0  0
  145.9664  139.3655  153.3704 H   0  0  0  0  0  0  0  0  0  0  0  0
  148.8090  141.9445  154.9985 H   0  0  0  0  0  0  0  0  0  0  0  0
  149.9332  141.0467  156.9698 H   0  0  0  0  0  0  0  0  0  0  0  0
  150.7076  142.0004  159.1594 H   0  0  0  0  0  0  0  0  0  0  0  0
  152.2385  143.3295  156.8668 H   0  0  0  0  0  0  0  0  0  0  0  0
  150.5068  143.2831  157.1326 H   0  0  0  0  0  0  0  0  0  0  0  0
  151.2261  145.5144  157.9023 H   0  0  0  0  0  0  0  0  0  0  0  0
  152.0855  145.6708  160.1573 H   0  0  0  0  0  0  0  0  0  0  0  0
  153.5127  143.7900  160.9301 H   0  0  0  0  0  0  0  0  0  0  0  0
  151.8590  143.2916  161.2265 H   0  0  0  0  0  0  0  0  0  0  0  0
  152.9343  141.4010  160.1664 H   0  0  0  0  0  0  0  0  0  0  0  0
  153.7202  142.4120  158.9791 H   0  0  0  0  0  0  0  0  0  0  0  0
  1  2  1  0  0  0  0
  1 18  1  0  0  0  0
  1 19  1  0  0  0  0
  1 20  1  0  0  0  0
  2  3  1  0  0  0  0
  2  9  1  0  0  0  0
  2 21  1  0  0  0  0
  3  4  1  0  0  0  0
  3 22  1  0  0  0  0
  3 23  1  0  0  0  0
  4  8  1  0  0  0  0
  4  5  1  0  0  0  0
  5  6  2  0  0  0  0
  5 24  1  0  0  0  0
  6  7  1  0  0  0  0
  6 25  1  0  0  0  0
  7  8  2  0  0  0  0
  8 26  1  0  0  0  0
  9 10  1  0  0  0  0
  9 27  1  0  0  0  0
 10 11  2  0  0  0  0
 10 12  1  0  0  0  0
 12 17  1  0  0  0  0
 12 13  1  0  0  0  0
 12 28  1  0  0  0  0
 13 14  1  0  0  0  0
 13 29  1  0  0  0  0
 13 30  1  0  0  0  0
 14 15  2  0  0  0  0
 14 31  1  0  0  0  0
 15 16  1  0  0  0  0
 15 32  1  0  0  0  0
 16 17  1  0  0  0  0
 16 33  1  0  0  0  0
 16 34  1  0  0  0  0
 17 35  1  0  0  0  0
 17 36  1  0  0  0  0
M  END
> <s_m_source_file>
AV-unprocessed.smi

> <i_m_source_file_index>
1677

> <i_lp_mmshare_version>
43012

> <i_f3d_flags>
0

> <s_epik_input>
W2NIXTFuW2NIXVtjSF1uMVtDSDJdW0NAQEhdKFtDSDNdKVtOSF1DKD1PKVtDQEBIXTJbQ0gyXVtDSF09W0NIXVtDSDJdW0NIMl0y

> <s_epik_cmdline>
J2VwaWtfcHl0aG9uJywgJy1waCcsICc3LjAnLCAnLXRuJywgJzgnLCAnLW1hJywgJzIwMCcsICctbWV0YWxfYmluZGluZycsICctaW1hZScsICc8aW5maWxlLm1hZT4nLCAnLW9tYWUnLCAnPG91dGZpbGUubWFlPic=

> <r_lp_tautomer_probability>
1

> <r_epik_Ionization_Penalty>
0.640435

> <r_epik_Ionization_Penalty_Charging>
0.640435

> <r_epik_Ionization_Penalty_Neutral>
2.11108e-08

> <r_epik_State_Penalty>
0.658069

> <r_epik_Charging_Adjusted_Penalty>
1.2985

> <i_epik_Tot_Q>
0

> <i_epik_Tot_abs_Q>
0

> <r_epik_Metal_State_Penalty>
0.311689

> <b_epik_Metal_Only>
0

> <s_lp_Force_Field>
OPLS_2005

> <r_lp_Energy>
10.0444

> <b_lp_Chiralities_Consistent>
1

> <s_lp_Variant>
AV-unprocessed.smi:1677-6

> <Gold.Version>
5.8.1

> <Gold.Id.Protein>
6NUR|6NUR_protein|mol2

> <Gold.PLP.Fitness>
45.2094

> <Gold.PLP.PLP>
-35.5822

> <Gold.PLP.part.hbond>
-1.0000

> <Gold.PLP.part.metal>
0.0000

> <Gold.PLP.part.buried>
1.2403

> <Gold.PLP.part.nonpolar>
-35.6127

> <Gold.PLP.part.repulsive>
0.2135

> <Gold.PLP.ligand.clash>
0.0000

> <Gold.PLP.ligand.torsion>
0.6225

> <Gold.PLP.Chemscore.Hbond>
1.0000

> <Gold.PLP.Chemscore.CHOScore>
2.6085

> <Gold.PLP.Chemscore.Metal>
0.0000

> <Gold.Chemscore.Hbonds>
donor molecule, donor type, donor heavy atom, donor atom, acceptor molecule, acceptor atom, score
      P1  H  7997  8008       L1    11  1.00
      L1  C     5    24       P1  7948  1.00
      L1  C     6    25       P1 10175  0.59
      L1  C     8    26       P1  8028  0.22

> <Gold.PLP.Chemscore.Internal.Correction>
0.0468

> <Gold.Rescore>
     Score         DG    S(hbond)    S(metal)    S(lipo)     H(rot)  DE(clash)    DE(int)     intcor
     14.60     -15.25       0.92        0.00      95.41       1.75       0.04       0.61       ----

> <Gold.Chemscore.Fitness>
14.6016

> <Gold.Chemscore.DG>
-15.2460

> <Gold.Chemscore.ZeroCoef>
-5.4800

> <Gold.Chemscore.Hbond>
0.9210

> <Gold.Chemscore.Metal>
0.0000

> <Gold.Chemscore.Lipo>
95.4145

> <Gold.Chemscore.Internal_Hbond>
0.0000

> <Gold.Chemscore.DEClash>
0.0392

> <Gold.Chemscore.DEInternal>
0.6053

> <Gold.Chemscore.Rot>
1.7475

> <Gold.Chemscore.Internal.Correction>
   9.000000E+99

> <Gold.Chemscore.Hbonds>
donor molecule, donor type, donor heavy atom, donor atom, acceptor molecule, acceptor atom, score
      P1  H  7997  8008       L1    11  0.95

> <Gold.Chemscore.Hbond.Weighted>
-3.0761

> <Gold.Chemscore.Metal.Weighted>
-0.0000

> <Gold.Chemscore.Lipo.Weighted>
-11.1635

> <Gold.Chemscore.Internal_Hbond.Weighted>
0.0000

> <Gold.Chemscore.DEClash.Weighted>
0.0392

> <Gold.Chemscore.DEInternal.Weighted>
0.6053

> <Gold.Chemscore.Rot.Weighted>
4.4735

> <Gold.Chemscore.Internal.Correction.Weighted>
   9.000000E+99

> <Gold.Protein.RotatedTorsions>
[ 6907 6896 6895 6894 ] final   31.62 input  -60.11 | X-H torsion
[ 7974 7965 7964 7962 ] final -103.11 input  175.53 | X-H torsion
[ 8008 7997 7996 7995 ] final  -69.65 input   59.86 | X-H torsion
[ 10167 10162 10161 10158 ] final   76.59 input  -65.29 | X-H torsion
[ 10718 10713 10712 10709 ] final  -64.45 input   66.30 | X-H torsion
[ 10763 10752 10751 10750 ] final   73.24 input  -60.55 | X-H torsion
[ 11005 11000 10999 10996 ] final   24.31 input  -57.11 | X-H torsion

> <Gold.Protein.ActiveResidues>
 VAL166  LYS551  ARG553  GLY616  TRP617  ASP618  TYR619  PRO620  LYS621  CYS622 
 ASP623  PHE694  ASN695  SER759  ASP760  ASP761  ALA762  ILE779  LEU786  VAL792 
 PHE793  MET794  SER795  GLU796  ALA797  LYS798  CYS799  TRP800  GLU811  SER814 

> <Gold.Protein.RotatedAtoms>
  152.0628  134.9583  160.0574 H   0  0  0  0  0  0  0  0  0  0  0  0  # atno 6907 bound_to 6896
  152.0939  133.4210  159.4565 H   0  0  0  0  0  0  0  0  0  0  0  0  # atno 6908 bound_to 6896
  150.6837  134.2758  159.4650 H   0  0  0  0  0  0  0  0  0  0  0  0  # atno 6909 bound_to 6896
  145.2601  140.9266  143.3046 H   0  0  0  0  0  0  0  0  0  0  0  0  # atno 7974 bound_to 7965
  154.4954  140.0849  156.7685 H   0  0  0  0  0  0  0  0  0  0  0  0  # atno 8008 bound_to 7997
  155.4129  140.3442  155.4247 H   0  0  0  0  0  0  0  0  0  0  0  0  # atno 8009 bound_to 7997
  156.1387  140.1523  156.8942 H   0  0  0  0  0  0  0  0  0  0  0  0  # atno 8010 bound_to 7997
  139.9906  144.5760  150.7821 H   0  0  0  0  0  0  0  0  0  0  0  0  # atno 10167 bound_to 10162
  156.0728  130.4234  150.1422 H   0  0  0  0  0  0  0  0  0  0  0  0  # atno 10718 bound_to 10713
  153.0509  135.5070  154.7865 H   0  0  0  0  0  0  0  0  0  0  0  0  # atno 10763 bound_to 10752
  154.6728  135.2955  154.9722 H   0  0  0  0  0  0  0  0  0  0  0  0  # atno 10764 bound_to 10752
  154.0534  135.6701  153.4856 H   0  0  0  0  0  0  0  0  0  0  0  0  # atno 10765 bound_to 10752
  140.3601  134.2135  155.7673 H   0  0  0  0  0  0  0  0  0  0  0  0  # atno 11005 bound_to 11000
  144.9426  139.4172  143.6441 LP  0  0  0  0  0  0  0  0  0  0  0  0  # atno 17320 bound_to 7965
  146.3278  139.8393  142.8893 LP  0  0  0  0  0  0  0  0  0  0  0  0  # atno 17321 bound_to 7965
  140.7456  143.2878  151.3415 LP  0  0  0  0  0  0  0  0  0  0  0  0  # atno 17342 bound_to 10162
  139.6343  144.0661  152.2502 LP  0  0  0  0  0  0  0  0  0  0  0  0  # atno 17343 bound_to 10162
  156.9470  130.9762  151.3505 LP  0  0  0  0  0  0  0  0  0  0  0  0  # atno 17370 bound_to 10713
  157.5808  130.8375  149.8520 LP  0  0  0  0  0  0  0  0  0  0  0  0  # atno 17371 bound_to 10713
  141.1987  133.8030  157.0572 LP  0  0  0  0  0  0  0  0  0  0  0  0  # atno 17394 bound_to 11000
  140.0634  134.9742  157.1344 LP  0  0  0  0  0  0  0  0  0  0  0  0  # atno 17395 bound_to 11000

$$$$
