AV-unprocessed.smi:2435|AV-procd|sdf|9592|dock10
  -GOLD-   2272013223D 1   1.00000     0.00000
 Structure written by MMmdl.
 44 45  0  0  0  0  0  0  0  0  1 V2000
  150.5644  138.6144  154.0894 C   0  0  0  0  0  0  0  0  0  0  0  0
  149.6381  139.1043  155.0439 O   0  0  0  0  0  0  0  0  0  0  0  0
  148.6673  139.8730  154.5061 C   0  0  0  0  0  0  0  0  0  0  0  0
  148.3311  141.1857  154.6896 C   0  0  0  0  0  0  0  0  0  0  0  0
  148.9163  142.1696  155.5272 N   0  0  0  0  0  0  0  0  0  0  0  0
  149.9537  142.0134  156.3647 C   0  0  0  0  0  0  0  0  0  0  0  0
  150.5702  140.9625  156.5381 O   0  0  0  0  0  0  0  0  0  0  0  0
  150.2550  143.1635  156.9849 N   0  0  0  0  0  0  0  0  0  0  0  0
  151.3309  143.3482  157.9563 C   0  0  0  0  0  0  0  0  0  0  0  0
  151.3344  142.1347  158.9050 C   0  0  0  0  0  0  0  0  0  0  0  0
  152.3965  142.1730  160.0176 C   0  0  0  0  0  0  0  0  0  0  0  0
  152.0460  143.1625  161.1404 C   0  0  0  0  0  0  0  0  0  0  0  0
  152.4970  144.6144  160.9046 C   0  0  0  0  0  0  0  0  0  0  0  0
  152.4119  145.1358  159.4593 C   0  0  0  0  0  0  0  0  0  0  0  0
  151.1633  144.7087  158.6700 C   0  0  0  0  0  0  0  0  0  0  0  0
  147.1764  141.3860  153.8837 C   0  0  0  0  0  0  0  0  0  0  0  0
  146.3426  142.6230  153.7108 C   0  0  0  0  0  0  0  0  0  0  0  0
  146.8599  140.2822  153.2156 N   0  0  0  0  0  0  0  0  0  0  0  0
  147.7776  139.3566  153.5879 N   0  0  0  0  0  0  0  0  0  0  0  0
  147.7100  138.0165  153.0424 C   0  0  0  0  0  0  0  0  0  0  0  0
  151.3274  138.0205  154.5921 H   0  0  0  0  0  0  0  0  0  0  0  0
  151.0629  139.4349  153.5710 H   0  0  0  0  0  0  0  0  0  0  0  0
  150.0789  137.9784  153.3482 H   0  0  0  0  0  0  0  0  0  0  0  0
  148.5657  143.1091  155.4119 H   0  0  0  0  0  0  0  0  0  0  0  0
  149.6959  143.9764  156.7712 H   0  0  0  0  0  0  0  0  0  0  0  0
  152.2812  143.3501  157.4185 H   0  0  0  0  0  0  0  0  0  0  0  0
  150.3468  142.0074  159.3510 H   0  0  0  0  0  0  0  0  0  0  0  0
  151.5030  141.2371  158.3082 H   0  0  0  0  0  0  0  0  0  0  0  0
  152.4488  141.1755  160.4557 H   0  0  0  0  0  0  0  0  0  0  0  0
  153.3891  142.3711  159.6115 H   0  0  0  0  0  0  0  0  0  0  0  0
  150.9707  143.1393  161.3205 H   0  0  0  0  0  0  0  0  0  0  0  0
  152.4985  142.8184  162.0713 H   0  0  0  0  0  0  0  0  0  0  0  0
  151.9078  145.2623  161.5544 H   0  0  0  0  0  0  0  0  0  0  0  0
  153.5284  144.7252  161.2413 H   0  0  0  0  0  0  0  0  0  0  0  0
  152.4486  146.2251  159.4974 H   0  0  0  0  0  0  0  0  0  0  0  0
  153.3067  144.8414  158.9096 H   0  0  0  0  0  0  0  0  0  0  0  0
  150.9842  145.4737  157.9132 H   0  0  0  0  0  0  0  0  0  0  0  0
  150.2790  144.7125  159.3088 H   0  0  0  0  0  0  0  0  0  0  0  0
  146.8790  143.5132  154.0397 H   0  0  0  0  0  0  0  0  0  0  0  0
  145.4223  142.5565  154.2915 H   0  0  0  0  0  0  0  0  0  0  0  0
  146.0682  142.7725  152.6663 H   0  0  0  0  0  0  0  0  0  0  0  0
  148.7165  137.6156  152.9201 H   0  0  0  0  0  0  0  0  0  0  0  0
  147.2159  138.0264  152.0699 H   0  0  0  0  0  0  0  0  0  0  0  0
  147.1506  137.3739  153.7224 H   0  0  0  0  0  0  0  0  0  0  0  0
  1  2  1  0  0  0  0
  1 21  1  0  0  0  0
  1 22  1  0  0  0  0
  1 23  1  0  0  0  0
  2  3  1  0  0  0  0
  3 19  1  0  0  0  0
  3  4  2  0  0  0  0
  4  5  1  0  0  0  0
  4 16  1  0  0  0  0
  5  6  1  0  0  0  0
  5 24  1  0  0  0  0
  6  7  2  0  0  0  0
  6  8  1  0  0  0  0
  8  9  1  0  0  0  0
  8 25  1  0  0  0  0
  9 15  1  0  0  0  0
  9 10  1  0  0  0  0
  9 26  1  0  0  0  0
 10 11  1  0  0  0  0
 10 27  1  0  0  0  0
 10 28  1  0  0  0  0
 11 12  1  0  0  0  0
 11 29  1  0  0  0  0
 11 30  1  0  0  0  0
 12 13  1  0  0  0  0
 12 31  1  0  0  0  0
 12 32  1  0  0  0  0
 13 14  1  0  0  0  0
 13 33  1  0  0  0  0
 13 34  1  0  0  0  0
 14 15  1  0  0  0  0
 14 35  1  0  0  0  0
 14 36  1  0  0  0  0
 15 37  1  0  0  0  0
 15 38  1  0  0  0  0
 16 17  1  0  0  0  0
 16 18  2  0  0  0  0
 17 39  1  0  0  0  0
 17 40  1  0  0  0  0
 17 41  1  0  0  0  0
 18 19  1  0  0  0  0
 19 20  1  0  0  0  0
 20 42  1  0  0  0  0
 20 43  1  0  0  0  0
 20 44  1  0  0  0  0
M  END
> <s_m_source_file>
AV-unprocessed.smi

> <i_m_source_file_index>
2435

> <i_lp_mmshare_version>
43012

> <i_f3d_flags>
0

> <s_epik_input>
W0NIM11uMW5jKFtDSDNdKWMoYzFPW0NIM10pW05IXUMoPU8pW05IXVtDSF0yW0NIMl1bQ0gyXVtDSDJdW0NIMl1bQ0gyXVtDSDJdMg==

> <s_epik_cmdline>
J2VwaWtfcHl0aG9uJywgJy1waCcsICc3LjAnLCAnLXRuJywgJzgnLCAnLW1hJywgJzIwMCcsICctbWV0YWxfYmluZGluZycsICctaW1hZScsICc8aW5maWxlLm1hZT4nLCAnLW9tYWUnLCAnPG91dGZpbGUubWFlPic=

> <r_lp_tautomer_probability>
1

> <r_epik_Ionization_Penalty>
0.000417553

> <r_epik_Ionization_Penalty_Charging>
0

> <r_epik_Ionization_Penalty_Neutral>
0.000417553

> <r_epik_State_Penalty>
-0

> <r_epik_Charging_Adjusted_Penalty>
0

> <i_epik_Tot_Q>
0

> <i_epik_Tot_abs_Q>
0

> <r_epik_Metal_State_Penalty>
-0

> <b_epik_Metal_Only>
0

> <s_lp_Force_Field>
OPLS_2005

> <r_lp_Energy>
21.6667

> <b_lp_Chiralities_Consistent>
1

> <s_lp_Variant>
AV-unprocessed.smi:2435-1

> <Gold.Version>
5.8.1

> <Gold.Id.Protein>
6NUR|6NUR_protein|mol2

> <Gold.PLP.Fitness>
39.9623

> <Gold.PLP.PLP>
-34.6905

> <Gold.PLP.part.hbond>
-1.7709

> <Gold.PLP.part.metal>
0.0000

> <Gold.PLP.part.buried>
-0.9030

> <Gold.PLP.part.nonpolar>
-32.0292

> <Gold.PLP.part.repulsive>
0.4875

> <Gold.PLP.ligand.clash>
0.0151

> <Gold.PLP.ligand.torsion>
0.1976

> <Gold.PLP.Chemscore.Hbond>
1.8880

> <Gold.PLP.Chemscore.CHOScore>
0.0000

> <Gold.PLP.Chemscore.Metal>
0.0000

> <Gold.Chemscore.Hbonds>
donor molecule, donor type, donor heavy atom, donor atom, acceptor molecule, acceptor atom, score
      L1  H     5    24       P1  8028  0.93
      L1  H     8    25       P1  8028  0.93

> <Gold.PLP.Chemscore.Internal.Correction>
0.0181

> <Gold.Rescore>
     Score         DG    S(hbond)    S(metal)    S(lipo)     H(rot)  DE(clash)    DE(int)     intcor
     14.79     -21.45       1.83        0.00     110.72       1.21       2.19       4.47       ----

> <Gold.Chemscore.Fitness>
14.7930

> <Gold.Chemscore.DG>
-21.4527

> <Gold.Chemscore.ZeroCoef>
-5.4800

> <Gold.Chemscore.Hbond>
1.8326

> <Gold.Chemscore.Metal>
0.0000

> <Gold.Chemscore.Lipo>
110.7180

> <Gold.Chemscore.Internal_Hbond>
0.0000

> <Gold.Chemscore.DEClash>
2.1943

> <Gold.Chemscore.DEInternal>
4.4653

> <Gold.Chemscore.Rot>
1.2119

> <Gold.Chemscore.Internal.Correction>
   9.000000E+99

> <Gold.Chemscore.Hbonds>
donor molecule, donor type, donor heavy atom, donor atom, acceptor molecule, acceptor atom, score
      L1  H     5    24       P1  8028  0.89
      L1  H     8    25       P1  8028  0.83

> <Gold.Chemscore.Hbond.Weighted>
-6.1210

> <Gold.Chemscore.Metal.Weighted>
-0.0000

> <Gold.Chemscore.Lipo.Weighted>
-12.9540

> <Gold.Chemscore.Internal_Hbond.Weighted>
0.0000

> <Gold.Chemscore.DEClash.Weighted>
2.1943

> <Gold.Chemscore.DEInternal.Weighted>
4.4653

> <Gold.Chemscore.Rot.Weighted>
3.1024

> <Gold.Chemscore.Internal.Correction.Weighted>
   9.000000E+99

> <Gold.Protein.RotatedTorsions>
[ 6907 6896 6895 6894 ] final  148.97 input  -60.11 | X-H torsion
[ 7974 7965 7964 7962 ] final  147.96 input  175.53 | X-H torsion
[ 8008 7997 7996 7995 ] final   88.95 input   59.86 | X-H torsion
[ 10167 10162 10161 10158 ] final -135.68 input  -65.29 | X-H torsion
[ 10718 10713 10712 10709 ] final  110.01 input   66.30 | X-H torsion
[ 10763 10752 10751 10750 ] final   34.09 input  -60.55 | X-H torsion
[ 11005 11000 10999 10996 ] final   75.86 input  -57.11 | X-H torsion

> <Gold.Protein.ActiveResidues>
 VAL166  LYS551  ARG553  GLY616  TRP617  ASP618  TYR619  PRO620  LYS621  CYS622 
 ASP623  PHE694  ASN695  SER759  ASP760  ASP761  ALA762  ILE779  LEU786  VAL792 
 PHE793  MET794  SER795  GLU796  ALA797  LYS798  CYS799  TRP800  GLU811  SER814 

> <Gold.Protein.RotatedAtoms>
  152.1344  133.4426  159.4735 H   0  0  0  0  0  0  0  0  0  0  0  0  # atno 6907 bound_to 6896
  150.6880  134.2382  159.4471 H   0  0  0  0  0  0  0  0  0  0  0  0  # atno 6908 bound_to 6896
  152.0268  134.9790  160.0622 H   0  0  0  0  0  0  0  0  0  0  0  0  # atno 6909 bound_to 6896
  144.8550  139.6094  143.5956 H   0  0  0  0  0  0  0  0  0  0  0  0  # atno 7974 bound_to 7965
  155.9940  140.3366  155.6781 H   0  0  0  0  0  0  0  0  0  0  0  0  # atno 8008 bound_to 7997
  155.6381  140.0692  157.2645 H   0  0  0  0  0  0  0  0  0  0  0  0  # atno 8009 bound_to 7997
  154.4228  140.1747  156.1531 H   0  0  0  0  0  0  0  0  0  0  0  0  # atno 8010 bound_to 7997
  139.8754  143.6904  152.2634 H   0  0  0  0  0  0  0  0  0  0  0  0  # atno 10167 bound_to 10162
  157.6514  131.0924  150.6539 H   0  0  0  0  0  0  0  0  0  0  0  0  # atno 10718 bound_to 10713
  153.0180  135.6369  154.1614 H   0  0  0  0  0  0  0  0  0  0  0  0  # atno 10763 bound_to 10752
  154.1352  135.2838  155.3177 H   0  0  0  0  0  0  0  0  0  0  0  0  # atno 10764 bound_to 10752
  154.6165  135.5539  153.7591 H   0  0  0  0  0  0  0  0  0  0  0  0  # atno 10765 bound_to 10752
  139.9324  134.7552  156.1323 H   0  0  0  0  0  0  0  0  0  0  0  0  # atno 11005 bound_to 11000
  146.2816  139.6892  142.9225 LP  0  0  0  0  0  0  0  0  0  0  0  0  # atno 17320 bound_to 7965
  145.4423  141.0423  143.2850 LP  0  0  0  0  0  0  0  0  0  0  0  0  # atno 17321 bound_to 7965
  139.7245  144.7596  151.0902 LP  0  0  0  0  0  0  0  0  0  0  0  0  # atno 17342 bound_to 10162
  140.7753  143.5166  150.9587 LP  0  0  0  0  0  0  0  0  0  0  0  0  # atno 17343 bound_to 10162
  156.6849  130.4578  149.5616 LP  0  0  0  0  0  0  0  0  0  0  0  0  # atno 17370 bound_to 10713
  156.1902  130.6555  151.1053 LP  0  0  0  0  0  0  0  0  0  0  0  0  # atno 17371 bound_to 10713
  141.0921  133.6710  156.2563 LP  0  0  0  0  0  0  0  0  0  0  0  0  # atno 17394 bound_to 11000
  140.6165  134.5405  157.5541 LP  0  0  0  0  0  0  0  0  0  0  0  0  # atno 17395 bound_to 11000

$$$$
