AV-unprocessed.smi:2041|AV-procd|sdf|8292|dock5
  -GOLD-   2272010553D 1   1.00000     0.00000
 Structure written by MMmdl.
 30 31  0  0  0  0  0  0  0  0  2 V2000
  149.1617  135.7327  158.7789 O   0  0  0  0  0  0  0  0  0  0  0  0
  148.7322  136.7977  159.2288 C   0  0  0  0  0  0  0  0  0  0  0  0
  147.8949  136.9442  160.2812 N   0  5  0  0  0  0  0  0  0  0  0  0
  147.4430  135.8626  160.9365 C   0  0  0  0  0  0  0  0  0  0  0  0
  147.2663  134.6741  160.3475 N   0  0  0  0  0  0  0  0  0  0  0  0
  146.7981  133.6876  161.2174 C   0  0  0  0  0  0  0  0  0  0  0  0
  146.6211  134.1332  162.5003 C   0  0  0  0  0  0  0  0  0  0  0  0
  147.0399  135.8156  162.6552 S   0  0  0  0  0  0  0  0  0  0  0  0
  149.0954  137.9590  158.6629 N   0  0  0  0  0  0  0  0  0  0  0  0
  149.9814  138.1223  157.5080 C   0  0  2  0  0  0  0  0  0  0  0  0
  150.2413  139.6376  157.3146 C   0  0  0  0  0  0  0  0  0  0  0  0
  150.8125  140.0693  155.9451 C   0  0  0  0  0  0  0  0  0  0  0  0
  151.9559  139.1875  155.4028 C   0  0  0  0  0  0  0  0  0  0  0  0
  151.6232  137.6941  155.1481 C   0  0  0  0  0  0  0  0  0  0  0  0
  150.1966  137.3703  155.1649 N   0  0  0  0  0  0  0  0  0  0  0  0
  149.3760  137.5235  156.2184 C   0  0  0  0  0  0  0  0  0  0  0  0
  148.1838  137.2273  156.1488 O   0  0  0  0  0  0  0  0  0  0  0  0
  146.6188  132.6929  160.8372 H   0  0  0  0  0  0  0  0  0  0  0  0
  146.2738  133.5792  163.3590 H   0  0  0  0  0  0  0  0  0  0  0  0
  148.7128  138.8031  159.0626 H   0  0  0  0  0  0  0  0  0  0  0  0
  150.9246  137.6222  157.7320 H   0  0  0  0  0  0  0  0  0  0  0  0
  149.3187  140.1961  157.4813 H   0  0  0  0  0  0  0  0  0  0  0  0
  150.9259  139.9648  158.0979 H   0  0  0  0  0  0  0  0  0  0  0  0
  150.0085  140.1053  155.2088 H   0  0  0  0  0  0  0  0  0  0  0  0
  151.1654  141.0977  156.0254 H   0  0  0  0  0  0  0  0  0  0  0  0
  152.2929  139.6257  154.4627 H   0  0  0  0  0  0  0  0  0  0  0  0
  152.8125  139.2521  156.0744 H   0  0  0  0  0  0  0  0  0  0  0  0
  152.0281  137.3910  154.1823 H   0  0  0  0  0  0  0  0  0  0  0  0
  152.1322  137.0683  155.8823 H   0  0  0  0  0  0  0  0  0  0  0  0
  149.8039  136.9903  154.3160 H   0  0  0  0  0  0  0  0  0  0  0  0
  1  2  2  0  0  0  0
  2  3  1  0  0  0  0
  2  9  1  0  0  0  0
  3  4  1  0  0  0  0
  4  8  1  0  0  0  0
  4  5  2  0  0  0  0
  5  6  1  0  0  0  0
  6  7  2  0  0  0  0
  6 18  1  0  0  0  0
  7  8  1  0  0  0  0
  7 19  1  0  0  0  0
  9 10  1  0  0  0  0
  9 20  1  0  0  0  0
 10 16  1  0  0  0  0
 10 11  1  0  0  0  0
 10 21  1  0  0  0  0
 11 12  1  0  0  0  0
 11 22  1  0  0  0  0
 11 23  1  0  0  0  0
 12 13  1  0  0  0  0
 12 24  1  0  0  0  0
 12 25  1  0  0  0  0
 13 14  1  0  0  0  0
 13 26  1  0  0  0  0
 13 27  1  0  0  0  0
 14 15  1  0  0  0  0
 14 28  1  0  0  0  0
 14 29  1  0  0  0  0
 15 16  1  0  0  0  0
 15 30  1  0  0  0  0
 16 17  2  0  0  0  0
M  CHG  1   3  -1
M  END
> <s_m_source_file>
AV-unprocessed.smi

> <i_m_source_file_index>
2041

> <i_lp_mmshare_version>
43012

> <i_f3d_flags>
0

> <s_epik_input>
czFbY0hdW2NIXW5jMVtOSF1DKD1PKVtOSF1bQ0BASF0yW0NIMl1bQ0gyXVtDSDJdW0NIMl1bTkhdQzI9Tw==

> <s_epik_cmdline>
J2VwaWtfcHl0aG9uJywgJy1waCcsICc3LjAnLCAnLXRuJywgJzgnLCAnLW1hJywgJzIwMCcsICctbWV0YWxfYmluZGluZycsICctaW1hZScsICc8aW5maWxlLm1hZT4nLCAnLW9tYWUnLCAnPG91dGZpbGUubWFlPic=

> <r_lp_tautomer_probability>
1

> <r_epik_Ionization_Penalty>
7.83857

> <r_epik_Ionization_Penalty_Charging>
6.39911

> <r_epik_Ionization_Penalty_Neutral>
1.43945

> <r_epik_State_Penalty>
6.3991

> <r_epik_Charging_Adjusted_Penalty>
12.7982

> <i_epik_Tot_Q>
-1

> <i_epik_Tot_abs_Q>
1

> <r_epik_Metal_State_Penalty>
2.33024

> <b_epik_Metal_Only>
1

> <s_lp_Force_Field>
OPLS_2005

> <r_lp_Energy>
11.6521

> <b_lp_Chiralities_Consistent>
1

> <s_lp_Variant>
AV-unprocessed.smi:2041-3

> <Gold.Version>
5.8.1

> <Gold.Id.Protein>
6NUR|6NUR_protein|mol2

> <Gold.PLP.Fitness>
39.2776

> <Gold.PLP.PLP>
-29.1316

> <Gold.PLP.part.hbond>
-3.0000

> <Gold.PLP.part.metal>
0.0000

> <Gold.PLP.part.buried>
-4.2523

> <Gold.PLP.part.nonpolar>
-23.8346

> <Gold.PLP.part.repulsive>
0.2587

> <Gold.PLP.ligand.clash>
0.0000

> <Gold.PLP.ligand.torsion>
0.2269

> <Gold.PLP.Chemscore.Hbond>
3.5320

> <Gold.PLP.Chemscore.CHOScore>
0.0000

> <Gold.PLP.Chemscore.Metal>
0.0000

> <Gold.Chemscore.Hbonds>
donor molecule, donor type, donor heavy atom, donor atom, acceptor molecule, acceptor atom, score
      P1  H  6896  6908       L1     1  0.88
      P1  H  6931  6943       L1     3  0.25
      P1  H  6934  6947       L1     3  0.61

> <Gold.PLP.Chemscore.Internal.Correction>
0.0037

> <Gold.Rescore>
     Score         DG    S(hbond)    S(metal)    S(lipo)     H(rot)  DE(clash)    DE(int)     intcor
     13.94     -15.68       1.97        0.00      52.67       1.00       0.00       1.74       ----

> <Gold.Chemscore.Fitness>
13.9411

> <Gold.Chemscore.DG>
-15.6792

> <Gold.Chemscore.ZeroCoef>
-5.4800

> <Gold.Chemscore.Hbond>
1.9750

> <Gold.Chemscore.Metal>
0.0000

> <Gold.Chemscore.Lipo>
52.6743

> <Gold.Chemscore.Internal_Hbond>
0.0000

> <Gold.Chemscore.DEClash>
0.0029

> <Gold.Chemscore.DEInternal>
1.7353

> <Gold.Chemscore.Rot>
1.0000

> <Gold.Chemscore.Internal.Correction>
   9.000000E+99

> <Gold.Chemscore.Hbonds>
donor molecule, donor type, donor heavy atom, donor atom, acceptor molecule, acceptor atom, score
      P1  H  6896  6908       L1     1  0.83
      P1  H  6931  6943       L1     3  0.05
      P1  H  6934  6947       L1     3  0.30

> <Gold.Chemscore.Hbond.Weighted>
-6.5964

> <Gold.Chemscore.Metal.Weighted>
-0.0000

> <Gold.Chemscore.Lipo.Weighted>
-6.1629

> <Gold.Chemscore.Internal_Hbond.Weighted>
0.0000

> <Gold.Chemscore.DEClash.Weighted>
0.0029

> <Gold.Chemscore.DEInternal.Weighted>
1.7353

> <Gold.Chemscore.Rot.Weighted>
2.5600

> <Gold.Chemscore.Internal.Correction.Weighted>
   9.000000E+99

> <Gold.Protein.RotatedTorsions>
[ 6907 6896 6895 6894 ] final -172.50 input  -60.11 | X-H torsion
[ 7974 7965 7964 7962 ] final   88.00 input  175.53 | X-H torsion
[ 8008 7997 7996 7995 ] final  -50.75 input   59.86 | X-H torsion
[ 10167 10162 10161 10158 ] final  103.33 input  -65.29 | X-H torsion
[ 10718 10713 10712 10709 ] final -158.19 input   66.30 | X-H torsion
[ 10763 10752 10751 10750 ] final -142.24 input  -60.55 | X-H torsion
[ 11005 11000 10999 10996 ] final   76.42 input  -57.11 | X-H torsion

> <Gold.Protein.ActiveResidues>
 VAL166  LYS551  ARG553  GLY616  TRP617  ASP618  TYR619  PRO620  LYS621  CYS622 
 ASP623  PHE694  ASN695  SER759  ASP760  ASP761  ALA762  ILE779  LEU786  VAL792 
 PHE793  MET794  SER795  GLU796  ALA797  LYS798  CYS799  TRP800  GLU811  SER814 

> <Gold.Protein.RotatedAtoms>
  151.5410  133.3433  159.2935 H   0  0  0  0  0  0  0  0  0  0  0  0  # atno 6907 bound_to 6896
  150.8536  134.7870  159.7039 H   0  0  0  0  0  0  0  0  0  0  0  0  # atno 6908 bound_to 6896
  152.4575  134.5266  159.9850 H   0  0  0  0  0  0  0  0  0  0  0  0  # atno 6909 bound_to 6896
  145.5515  139.2296  143.2510 H   0  0  0  0  0  0  0  0  0  0  0  0  # atno 7974 bound_to 7965
  154.4068  140.1264  156.4717 H   0  0  0  0  0  0  0  0  0  0  0  0  # atno 8008 bound_to 7997
  155.7172  140.3493  155.4980 H   0  0  0  0  0  0  0  0  0  0  0  0  # atno 8009 bound_to 7997
  155.9247  140.1059  157.1169 H   0  0  0  0  0  0  0  0  0  0  0  0  # atno 8010 bound_to 7997
  139.7273  144.7044  151.0778 H   0  0  0  0  0  0  0  0  0  0  0  0  # atno 10167 bound_to 10162
  156.5507  130.8604  151.2779 H   0  0  0  0  0  0  0  0  0  0  0  0  # atno 10718 bound_to 10713
  154.8516  135.3501  154.5996 H   0  0  0  0  0  0  0  0  0  0  0  0  # atno 10763 bound_to 10752
  153.6605  135.6990  153.5183 H   0  0  0  0  0  0  0  0  0  0  0  0  # atno 10764 bound_to 10752
  153.2821  135.4260  155.1046 H   0  0  0  0  0  0  0  0  0  0  0  0  # atno 10765 bound_to 10752
  139.9299  134.7600  156.1394 H   0  0  0  0  0  0  0  0  0  0  0  0  # atno 11005 bound_to 11000
  146.1913  140.6338  142.9144 LP  0  0  0  0  0  0  0  0  0  0  0  0  # atno 17320 bound_to 7965
  144.7527  140.5231  143.6790 LP  0  0  0  0  0  0  0  0  0  0  0  0  # atno 17321 bound_to 7965
  140.7765  143.5089  150.9677 LP  0  0  0  0  0  0  0  0  0  0  0  0  # atno 17342 bound_to 10162
  139.8777  143.7112  152.3160 LP  0  0  0  0  0  0  0  0  0  0  0  0  # atno 17343 bound_to 10162
  157.7388  130.9820  150.2274 LP  0  0  0  0  0  0  0  0  0  0  0  0  # atno 17370 bound_to 10713
  156.2887  130.3743  149.7862 LP  0  0  0  0  0  0  0  0  0  0  0  0  # atno 17371 bound_to 10713
  141.0881  133.6726  156.2480 LP  0  0  0  0  0  0  0  0  0  0  0  0  # atno 17394 bound_to 11000
  140.6232  134.5340  157.5550 LP  0  0  0  0  0  0  0  0  0  0  0  0  # atno 17395 bound_to 11000

$$$$
