AV-unprocessed.smi:539|AV-procd|sdf|2868|dock5
  -GOLD-   2262023363D 1   1.00000     0.00000
 Structure written by MMmdl.
 39 41  0  0  0  0  0  0  0  0  2 V2000
  150.6086  138.9020  154.3943 C   0  0  0  0  0  0  0  0  0  0  0  0
  151.5739  139.8616  154.7840 O   0  0  0  0  0  0  0  0  0  0  0  0
  152.1904  139.5464  156.0215 C   0  0  0  0  0  0  0  0  0  0  0  0
  151.3382  140.0835  157.1817 C   0  0  0  0  0  0  0  0  0  0  0  0
  152.0595  140.0496  158.4544 N   0  0  0  0  0  0  0  0  0  0  0  0
  152.5199  141.0930  159.2085 C   0  0  0  0  0  0  0  0  0  0  0  0
  152.3496  142.4475  158.8821 N   0  0  0  0  0  0  0  0  0  0  0  0
  153.2230  143.6008  159.1062 C   0  0  0  0  0  0  0  0  0  0  0  0
  152.7240  144.7624  158.2497 C   0  0  0  0  0  0  0  0  0  0  0  0
  151.2437  144.4692  158.1464 C   0  0  0  0  0  0  0  0  0  0  0  0
  151.2404  142.9469  158.0710 C   0  0  0  0  0  0  0  0  0  0  0  0
  153.1893  140.7203  160.3019 N   0  0  0  0  0  0  0  0  0  0  0  0
  153.1487  139.3387  160.2533 C   0  0  0  0  0  0  0  0  0  0  0  0
  152.4841  138.9060  159.1491 C   0  0  0  0  0  0  0  0  0  0  0  0
  152.3132  137.4706  158.8132 C   0  0  0  0  0  0  0  0  0  0  0  0
  151.7380  137.1148  157.7872 O   0  0  0  0  0  0  0  0  0  0  0  0
  152.8633  136.6457  159.7595 N   0  5  0  0  0  0  0  0  0  0  0  0
  153.5312  137.0466  160.8952 C   0  0  0  0  0  0  0  0  0  0  0  0
  153.9915  136.2352  161.6996 O   0  0  0  0  0  0  0  0  0  0  0  0
  153.6947  138.3816  161.1513 N   0  0  0  0  0  0  0  0  0  0  0  0
  154.4089  138.8390  162.3469 C   0  0  0  0  0  0  0  0  0  0  0  0
  150.1706  139.1920  153.4392 H   0  0  0  0  0  0  0  0  0  0  0  0
  149.8035  138.8330  155.1270 H   0  0  0  0  0  0  0  0  0  0  0  0
  151.0588  137.9161  154.2730 H   0  0  0  0  0  0  0  0  0  0  0  0
  152.3050  138.4651  156.1073 H   0  0  0  0  0  0  0  0  0  0  0  0
  153.1885  139.9846  156.0633 H   0  0  0  0  0  0  0  0  0  0  0  0
  150.9868  141.0892  156.9760 H   0  0  0  0  0  0  0  0  0  0  0  0
  150.4171  139.5128  157.2604 H   0  0  0  0  0  0  0  0  0  0  0  0
  153.1808  143.8821  160.1579 H   0  0  0  0  0  0  0  0  0  0  0  0
  154.2567  143.3640  158.8538 H   0  0  0  0  0  0  0  0  0  0  0  0
  152.9406  145.7380  158.6856 H   0  0  0  0  0  0  0  0  0  0  0  0
  153.1815  144.7211  157.2600 H   0  0  0  0  0  0  0  0  0  0  0  0
  150.7303  144.8036  159.0492 H   0  0  0  0  0  0  0  0  0  0  0  0
  150.7697  144.9407  157.2852 H   0  0  0  0  0  0  0  0  0  0  0  0
  151.3888  142.6181  157.0415 H   0  0  0  0  0  0  0  0  0  0  0  0
  150.2894  142.5384  158.4147 H   0  0  0  0  0  0  0  0  0  0  0  0
  155.4046  138.3949  162.3949 H   0  0  0  0  0  0  0  0  0  0  0  0
  153.8634  138.5519  163.2469 H   0  0  0  0  0  0  0  0  0  0  0  0
  154.5385  139.9209  162.3721 H   0  0  0  0  0  0  0  0  0  0  0  0
  1  2  1  0  0  0  0
  1 22  1  0  0  0  0
  1 23  1  0  0  0  0
  1 24  1  0  0  0  0
  2  3  1  0  0  0  0
  3  4  1  0  0  0  0
  3 25  1  0  0  0  0
  3 26  1  0  0  0  0
  4  5  1  0  0  0  0
  4 27  1  0  0  0  0
  4 28  1  0  0  0  0
  5 14  1  0  0  0  0
  5  6  1  0  0  0  0
  6  7  1  0  0  0  0
  6 12  2  0  0  0  0
  7 11  1  0  0  0  0
  7  8  1  0  0  0  0
  8  9  1  0  0  0  0
  8 29  1  0  0  0  0
  8 30  1  0  0  0  0
  9 10  1  0  0  0  0
  9 31  1  0  0  0  0
  9 32  1  0  0  0  0
 10 11  1  0  0  0  0
 10 33  1  0  0  0  0
 10 34  1  0  0  0  0
 11 35  1  0  0  0  0
 11 36  1  0  0  0  0
 12 13  1  0  0  0  0
 13 20  1  0  0  0  0
 13 14  2  0  0  0  0
 14 15  1  0  0  0  0
 15 16  2  0  0  0  0
 15 17  1  0  0  0  0
 17 18  1  0  0  0  0
 18 19  2  0  0  0  0
 18 20  1  0  0  0  0
 20 21  1  0  0  0  0
 21 37  1  0  0  0  0
 21 38  1  0  0  0  0
 21 39  1  0  0  0  0
M  CHG  1  17  -1
M  END
> <s_m_source_file>
AV-unprocessed.smi

> <i_m_source_file_index>
539

> <i_lp_mmshare_version>
43012

> <i_f3d_flags>
0

> <s_epik_input>
W0NIM11uMWMoPU8pW25IXWMoPU8pYyhjMTIpbihbQ0gyXVtDSDJdT1tDSDNdKWMobjIpTjNbQ0gyXVtDSDJdW0NIMl1bQ0gyXTM=

> <s_epik_cmdline>
J2VwaWtfcHl0aG9uJywgJy1waCcsICc3LjAnLCAnLXRuJywgJzgnLCAnLW1hJywgJzIwMCcsICctbWV0YWxfYmluZGluZycsICctaW1hZScsICc8aW5maWxlLm1hZT4nLCAnLW9tYWUnLCAnPG91dGZpbGUubWFlPic=

> <r_lp_tautomer_probability>
1

> <r_epik_Ionization_Penalty>
6.13244

> <r_epik_Ionization_Penalty_Charging>
0.078064

> <r_epik_Ionization_Penalty_Neutral>
6.05438

> <r_epik_State_Penalty>
6.05106

> <r_epik_Charging_Adjusted_Penalty>
6.12912

> <i_epik_Tot_Q>
-1

> <i_epik_Tot_abs_Q>
1

> <r_epik_Metal_State_Penalty>
2.00027

> <b_epik_Metal_Only>
1

> <s_lp_Force_Field>
OPLS_2005

> <r_lp_Energy>
49.7723

> <b_lp_Chiralities_Consistent>
1

> <s_lp_Variant>
AV-unprocessed.smi:539-2

> <Gold.Version>
5.8.1

> <Gold.Id.Protein>
6NUR|6NUR_protein|mol2

> <Gold.PLP.Fitness>
49.4334

> <Gold.PLP.PLP>
-41.6354

> <Gold.PLP.part.hbond>
-2.0000

> <Gold.PLP.part.metal>
0.0000

> <Gold.PLP.part.buried>
-5.7898

> <Gold.PLP.part.nonpolar>
-33.5608

> <Gold.PLP.part.repulsive>
0.0639

> <Gold.PLP.ligand.clash>
0.0036

> <Gold.PLP.ligand.torsion>
0.6128

> <Gold.PLP.Chemscore.Hbond>
3.0000

> <Gold.PLP.Chemscore.CHOScore>
0.0000

> <Gold.PLP.Chemscore.Metal>
0.0000

> <Gold.Chemscore.Hbonds>
donor molecule, donor type, donor heavy atom, donor atom, acceptor molecule, acceptor atom, score
      P1  H  6896  6907       L1    17  2.00
      P1  H  7989  7998       L1     2  1.00

> <Gold.PLP.Chemscore.Internal.Correction>
0.0273

> <Gold.Rescore>
     Score         DG    S(hbond)    S(metal)    S(lipo)     H(rot)  DE(clash)    DE(int)     intcor
     15.88     -17.54       1.84        0.00      83.20       1.50       0.01       1.65       ----

> <Gold.Chemscore.Fitness>
15.8778

> <Gold.Chemscore.DG>
-17.5403

> <Gold.Chemscore.ZeroCoef>
-5.4800

> <Gold.Chemscore.Hbond>
1.8427

> <Gold.Chemscore.Metal>
0.0000

> <Gold.Chemscore.Lipo>
83.2026

> <Gold.Chemscore.Internal_Hbond>
0.0000

> <Gold.Chemscore.DEClash>
0.0136

> <Gold.Chemscore.DEInternal>
1.6490

> <Gold.Chemscore.Rot>
1.4957

> <Gold.Chemscore.Internal.Correction>
   9.000000E+99

> <Gold.Chemscore.Hbonds>
donor molecule, donor type, donor heavy atom, donor atom, acceptor molecule, acceptor atom, score
      P1  H  6896  6907       L1    17  0.64
      P1  H  7989  7998       L1     2  0.44

> <Gold.Chemscore.Hbond.Weighted>
-6.1546

> <Gold.Chemscore.Metal.Weighted>
-0.0000

> <Gold.Chemscore.Lipo.Weighted>
-9.7347

> <Gold.Chemscore.Internal_Hbond.Weighted>
0.0000

> <Gold.Chemscore.DEClash.Weighted>
0.0136

> <Gold.Chemscore.DEInternal.Weighted>
1.6490

> <Gold.Chemscore.Rot.Weighted>
3.8290

> <Gold.Chemscore.Internal.Correction.Weighted>
   9.000000E+99

> <Gold.Protein.RotatedTorsions>
[ 6907 6896 6895 6894 ] final   40.09 input  -60.11 | X-H torsion
[ 7974 7965 7964 7962 ] final  146.62 input  175.53 | X-H torsion
[ 8008 7997 7996 7995 ] final  -49.64 input   59.86 | X-H torsion
[ 10167 10162 10161 10158 ] final   30.61 input  -65.29 | X-H torsion
[ 10718 10713 10712 10709 ] final   74.00 input   66.30 | X-H torsion
[ 10763 10752 10751 10750 ] final  -56.06 input  -60.55 | X-H torsion
[ 11005 11000 10999 10996 ] final  158.07 input  -57.11 | X-H torsion

> <Gold.Protein.ActiveResidues>
 VAL166  LYS551  ARG553  GLY616  TRP617  ASP618  TYR619  PRO620  LYS621  CYS622 
 ASP623  PHE694  ASN695  SER759  ASP760  ASP761  ALA762  ILE779  LEU786  VAL792 
 PHE793  MET794  SER795  GLU796  ALA797  LYS798  CYS799  TRP800  GLU811  SER814 

> <Gold.Protein.RotatedAtoms>
  152.1780  134.8778  160.0528 H   0  0  0  0  0  0  0  0  0  0  0  0  # atno 6907 bound_to 6896
  151.9713  133.3722  159.4080 H   0  0  0  0  0  0  0  0  0  0  0  0  # atno 6908 bound_to 6896
  150.6912  134.4060  159.5184 H   0  0  0  0  0  0  0  0  0  0  0  0  # atno 6909 bound_to 6896
  144.8657  139.5927  143.5910 H   0  0  0  0  0  0  0  0  0  0  0  0  # atno 7974 bound_to 7965
  154.4047  140.1292  156.4535 H   0  0  0  0  0  0  0  0  0  0  0  0  # atno 8008 bound_to 7997
  155.7343  140.3491  155.5054 H   0  0  0  0  0  0  0  0  0  0  0  0  # atno 8009 bound_to 7997
  155.9098  140.1034  157.1278 H   0  0  0  0  0  0  0  0  0  0  0  0  # atno 8010 bound_to 7997
  140.4662  144.0831  150.6225 H   0  0  0  0  0  0  0  0  0  0  0  0  # atno 10167 bound_to 10162
  157.6573  130.9656  150.1149 H   0  0  0  0  0  0  0  0  0  0  0  0  # atno 10718 bound_to 10713
  154.2006  135.6411  153.5086 H   0  0  0  0  0  0  0  0  0  0  0  0  # atno 10763 bound_to 10752
  153.0013  135.5450  154.6319 H   0  0  0  0  0  0  0  0  0  0  0  0  # atno 10764 bound_to 10752
  154.5731  135.2918  155.0781 H   0  0  0  0  0  0  0  0  0  0  0  0  # atno 10765 bound_to 10752
  140.1830  134.8462  157.2825 H   0  0  0  0  0  0  0  0  0  0  0  0  # atno 11005 bound_to 11000
  146.2893  139.7094  142.9172 LP  0  0  0  0  0  0  0  0  0  0  0  0  # atno 17320 bound_to 7965
  145.4227  141.0408  143.2955 LP  0  0  0  0  0  0  0  0  0  0  0  0  # atno 17321 bound_to 7965
  140.4033  143.2693  151.9922 LP  0  0  0  0  0  0  0  0  0  0  0  0  # atno 17342 bound_to 10162
  139.4812  144.5979  151.7658 LP  0  0  0  0  0  0  0  0  0  0  0  0  # atno 17343 bound_to 10162
  156.2036  130.3662  149.8757 LP  0  0  0  0  0  0  0  0  0  0  0  0  # atno 17370 bound_to 10713
  156.6655  130.8799  151.3554 LP  0  0  0  0  0  0  0  0  0  0  0  0  # atno 17371 bound_to 10713
  140.2245  134.3983  155.7550 LP  0  0  0  0  0  0  0  0  0  0  0  0  # atno 17394 bound_to 11000
  141.2224  133.7183  156.8544 LP  0  0  0  0  0  0  0  0  0  0  0  0  # atno 17395 bound_to 11000

$$$$
