AV-unprocessed.smi:2439|AV-procd|sdf|9606|dock4
  -GOLD-   2272013243D 1   1.00000     0.00000
 Structure written by MMmdl.
 41 43  0  0  0  0  0  0  0  0  2 V2000
  150.1499  133.6154  157.3433 N   0  0  0  0  0  0  0  0  0  0  0  0
  150.5104  132.6977  156.7380 C   0  0  0  0  0  0  0  0  0  0  0  0
  150.9656  131.5408  155.9761 C   0  0  0  0  0  0  0  0  0  0  0  0
  152.3277  131.1785  156.0340 C   0  0  0  0  0  0  0  0  0  0  0  0
  152.7730  130.0649  155.2988 C   0  0  0  0  0  0  0  0  0  0  0  0
  151.8324  129.3533  154.5328 C   0  0  0  0  0  0  0  0  0  0  0  0
  150.5271  129.6889  154.4685 N   0  0  0  0  0  0  0  0  0  0  0  0
  150.0899  130.7619  155.1727 C   0  0  0  0  0  0  0  0  0  0  0  0
  148.7235  131.0885  155.0857 N   0  0  0  0  0  0  0  0  0  0  0  0
  148.2168  132.0507  154.1142 C   0  0  0  0  0  0  0  0  0  0  0  0
  146.7805  131.7332  153.6642 C   0  0  1  0  0  0  0  0  0  0  0  0
  146.0735  132.9837  153.1121 C   0  0  0  0  0  0  0  0  0  0  0  0
  144.7234  132.6383  152.6021 N   0  3  1  0  0  0  0  0  0  0  0  0
  143.9526  133.8066  152.1015 C   0  0  0  0  0  0  0  0  0  0  0  0
  144.4560  134.2913  150.7282 C   0  0  0  0  0  0  0  0  0  0  0  0
  144.4714  133.1442  149.7088 C   0  0  0  0  0  0  0  0  0  0  0  0
  145.2788  131.9562  150.2508 C   0  0  0  0  0  0  0  0  0  0  0  0
  144.7526  131.5086  151.6325 C   0  0  1  0  0  0  0  0  0  0  0  0
  145.5506  130.3265  152.2171 C   0  0  0  0  0  0  0  0  0  0  0  0
  146.8421  130.7589  152.6278 O   0  0  0  0  0  0  0  0  0  0  0  0
  153.0277  131.7442  156.6325 H   0  0  0  0  0  0  0  0  0  0  0  0
  153.8099  129.7635  155.3224 H   0  0  0  0  0  0  0  0  0  0  0  0
  152.1356  128.4928  153.9549 H   0  0  0  0  0  0  0  0  0  0  0  0
  148.0844  130.7269  155.7794 H   0  0  0  0  0  0  0  0  0  0  0  0
  148.2696  133.0542  154.5382 H   0  0  0  0  0  0  0  0  0  0  0  0
  148.8834  132.0527  153.2513 H   0  0  0  0  0  0  0  0  0  0  0  0
  146.2076  131.3397  154.5058 H   0  0  0  0  0  0  0  0  0  0  0  0
  145.9796  133.7324  153.8999 H   0  0  0  0  0  0  0  0  0  0  0  0
  146.6773  133.4311  152.3226 H   0  0  0  0  0  0  0  0  0  0  0  0
  142.9048  133.5146  152.0193 H   0  0  0  0  0  0  0  0  0  0  0  0
  143.9883  134.6174  152.8300 H   0  0  0  0  0  0  0  0  0  0  0  0
  143.8189  135.0986  150.3656 H   0  0  0  0  0  0  0  0  0  0  0  0
  145.4561  134.7148  150.8219 H   0  0  0  0  0  0  0  0  0  0  0  0
  143.4493  132.8275  149.4975 H   0  0  0  0  0  0  0  0  0  0  0  0
  144.8933  133.4863  148.7633 H   0  0  0  0  0  0  0  0  0  0  0  0
  145.2223  131.1265  149.5455 H   0  0  0  0  0  0  0  0  0  0  0  0
  146.3331  132.2276  150.3145 H   0  0  0  0  0  0  0  0  0  0  0  0
  143.7228  131.1743  151.4974 H   0  0  0  0  0  0  0  0  0  0  0  0
  145.0227  129.8881  153.0655 H   0  0  0  0  0  0  0  0  0  0  0  0
  145.6587  129.5352  151.4751 H   0  0  0  0  0  0  0  0  0  0  0  0
  144.2170  132.2985  153.4076 H   0  0  0  0  0  0  0  0  0  0  0  0
  1  2  3  0  0  0  0
  2  3  1  0  0  0  0
  3  8  1  0  0  0  0
  3  4  2  0  0  0  0
  4  5  1  0  0  0  0
  4 21  1  0  0  0  0
  5  6  2  0  0  0  0
  5 22  1  0  0  0  0
  6  7  1  0  0  0  0
  6 23  1  0  0  0  0
  7  8  2  0  0  0  0
  8  9  1  0  0  0  0
  9 10  1  0  0  0  0
  9 24  1  0  0  0  0
 10 11  1  0  0  0  0
 10 25  1  0  0  0  0
 10 26  1  0  0  0  0
 11 20  1  0  0  0  0
 11 12  1  0  0  0  0
 11 27  1  0  0  0  0
 12 13  1  0  0  0  0
 12 28  1  0  0  0  0
 12 29  1  0  0  0  0
 13 18  1  0  0  0  0
 13 14  1  0  0  0  0
 13 41  1  0  0  0  0
 14 15  1  0  0  0  0
 14 30  1  0  0  0  0
 14 31  1  0  0  0  0
 15 16  1  0  0  0  0
 15 32  1  0  0  0  0
 15 33  1  0  0  0  0
 16 17  1  0  0  0  0
 16 34  1  0  0  0  0
 16 35  1  0  0  0  0
 17 18  1  0  0  0  0
 17 36  1  0  0  0  0
 17 37  1  0  0  0  0
 18 19  1  0  0  0  0
 18 38  1  0  0  0  0
 19 20  1  0  0  0  0
 19 39  1  0  0  0  0
 19 40  1  0  0  0  0
M  CHG  1  13   1
M  END
> <s_m_source_file>
AV-unprocessed.smi

> <i_m_source_file_index>
2439

> <i_lp_mmshare_version>
43012

> <i_f3d_flags>
0

> <s_epik_input>
TiNDYzFbY0hdW2NIXVtjSF1uYzFbTkhdW0NIMl1bQ0BIXShbQ0gyXTIpT1tDSDJdW0NAQEhdKE4yMylbQ0gyXVtDSDJdW0NIMl1bQ0gyXTM=

> <s_epik_cmdline>
J2VwaWtfcHl0aG9uJywgJy1waCcsICc3LjAnLCAnLXRuJywgJzgnLCAnLW1hJywgJzIwMCcsICctbWV0YWxfYmluZGluZycsICctaW1hZScsICc8aW5maWxlLm1hZT4nLCAnLW9tYWUnLCAnPG91dGZpbGUubWFlPic=

> <r_epik_Ionization_Penalty>
0.0803594

> <r_epik_Ionization_Penalty_Charging>
0.0803403

> <r_epik_Ionization_Penalty_Neutral>
1.90988e-05

> <r_epik_State_Penalty>
0.0711481

> <r_epik_Charging_Adjusted_Penalty>
0.151488

> <i_epik_Tot_Q>
1

> <i_epik_Tot_abs_Q>
1

> <r_epik_Metal_State_Penalty>
0.0711482

> <b_epik_Metal_Only>
0

> <s_lp_Force_Field>
OPLS_2005

> <r_lp_Energy>
29.8986

> <b_lp_Chiralities_Consistent>
1

> <s_lp_Variant>
AV-unprocessed.smi:2439-4

> <Gold.Version>
5.8.1

> <Gold.Id.Protein>
6NUR|6NUR_protein|mol2

> <Gold.PLP.Fitness>
39.4121

> <Gold.PLP.PLP>
-32.2463

> <Gold.PLP.part.hbond>
-1.7537

> <Gold.PLP.part.metal>
0.0000

> <Gold.PLP.part.buried>
-4.6271

> <Gold.PLP.part.nonpolar>
-27.6323

> <Gold.PLP.part.repulsive>
0.2306

> <Gold.PLP.ligand.clash>
0.0000

> <Gold.PLP.ligand.torsion>
1.1735

> <Gold.PLP.Chemscore.Hbond>
2.1700

> <Gold.PLP.Chemscore.CHOScore>
1.0000

> <Gold.PLP.Chemscore.Metal>
0.0000

> <Gold.Chemscore.Hbonds>
donor molecule, donor type, donor heavy atom, donor atom, acceptor molecule, acceptor atom, score
      L1  H    13    41       P1 10957  1.17
      P1  H  6896  6909       L1     1  1.00
      L1  C     6    23       P1 10737  1.00

> <Gold.PLP.Chemscore.Internal.Correction>
0.0028

> <Gold.Rescore>
     Score         DG    S(hbond)    S(metal)    S(lipo)     H(rot)  DE(clash)    DE(int)     intcor
     14.41     -15.54       1.01        0.00      84.87       1.27       0.05       1.08       ----

> <Gold.Chemscore.Fitness>
14.4101

> <Gold.Chemscore.DG>
-15.5382

> <Gold.Chemscore.ZeroCoef>
-5.4800

> <Gold.Chemscore.Hbond>
1.0088

> <Gold.Chemscore.Metal>
0.0000

> <Gold.Chemscore.Lipo>
84.8694

> <Gold.Chemscore.Internal_Hbond>
0.0000

> <Gold.Chemscore.DEClash>
0.0477

> <Gold.Chemscore.DEInternal>
1.0804

> <Gold.Chemscore.Rot>
1.2659

> <Gold.Chemscore.Internal.Correction>
   9.000000E+99

> <Gold.Chemscore.Hbonds>
donor molecule, donor type, donor heavy atom, donor atom, acceptor molecule, acceptor atom, score
      L1  H    13    41       P1 10957  0.07
      P1  H  6896  6909       L1     1  0.79

> <Gold.Chemscore.Hbond.Weighted>
-3.3693

> <Gold.Chemscore.Metal.Weighted>
-0.0000

> <Gold.Chemscore.Lipo.Weighted>
-9.9297

> <Gold.Chemscore.Internal_Hbond.Weighted>
0.0000

> <Gold.Chemscore.DEClash.Weighted>
0.0477

> <Gold.Chemscore.DEInternal.Weighted>
1.0804

> <Gold.Chemscore.Rot.Weighted>
3.2408

> <Gold.Chemscore.Internal.Correction.Weighted>
   9.000000E+99

> <Gold.Protein.RotatedTorsions>
[ 6907 6896 6895 6894 ] final   -7.90 input  -60.11 | X-H torsion
[ 7974 7965 7964 7962 ] final  -25.08 input  175.53 | X-H torsion
[ 8008 7997 7996 7995 ] final -110.02 input   59.86 | X-H torsion
[ 10167 10162 10161 10158 ] final   69.23 input  -65.29 | X-H torsion
[ 10718 10713 10712 10709 ] final  -49.32 input   66.30 | X-H torsion
[ 10763 10752 10751 10750 ] final  -46.51 input  -60.55 | X-H torsion
[ 11005 11000 10999 10996 ] final  -93.44 input  -57.11 | X-H torsion

> <Gold.Protein.ActiveResidues>
 VAL166  LYS551  ARG553  GLY616  TRP617  ASP618  TYR619  PRO620  LYS621  CYS622 
 ASP623  PHE694  ASN695  SER759  ASP760  ASP761  ALA762  ILE779  LEU786  VAL792 
 PHE793  MET794  SER795  GLU796  ALA797  LYS798  CYS799  TRP800  GLU811  SER814 

> <Gold.Protein.RotatedAtoms>
  151.4423  135.1021  159.9673 H   0  0  0  0  0  0  0  0  0  0  0  0  # atno 6907 bound_to 6896
  152.4918  133.8517  159.7215 H   0  0  0  0  0  0  0  0  0  0  0  0  # atno 6908 bound_to 6896
  150.9080  133.6975  159.2889 H   0  0  0  0  0  0  0  0  0  0  0  0  # atno 6909 bound_to 6896
  146.1514  140.4838  142.8610 H   0  0  0  0  0  0  0  0  0  0  0  0  # atno 7974 bound_to 7965
  154.9681  140.0398  157.2222 H   0  0  0  0  0  0  0  0  0  0  0  0  # atno 8008 bound_to 7997
  154.7826  140.2821  155.6029 H   0  0  0  0  0  0  0  0  0  0  0  0  # atno 8009 bound_to 7997
  156.2938  140.2588  156.2655 H   0  0  0  0  0  0  0  0  0  0  0  0  # atno 8010 bound_to 7997
  140.0701  144.5160  150.7233 H   0  0  0  0  0  0  0  0  0  0  0  0  # atno 10167 bound_to 10162
  156.1904  130.4152  149.9380 H   0  0  0  0  0  0  0  0  0  0  0  0  # atno 10718 bound_to 10713
  154.0461  135.6637  153.4795 H   0  0  0  0  0  0  0  0  0  0  0  0  # atno 10763 bound_to 10752
  153.0482  135.5101  154.7795 H   0  0  0  0  0  0  0  0  0  0  0  0  # atno 10764 bound_to 10752
  154.6787  135.3041  154.9609 H   0  0  0  0  0  0  0  0  0  0  0  0  # atno 10765 bound_to 10752
  141.1497  133.7888  157.0160 H   0  0  0  0  0  0  0  0  0  0  0  0  # atno 11005 bound_to 11000
  144.7909  140.6029  143.6542 LP  0  0  0  0  0  0  0  0  0  0  0  0  # atno 17320 bound_to 7965
  145.4814  139.1495  143.3760 LP  0  0  0  0  0  0  0  0  0  0  0  0  # atno 17321 bound_to 7965
  140.7130  143.2520  151.4523 LP  0  0  0  0  0  0  0  0  0  0  0  0  # atno 17342 bound_to 10162
  139.5841  144.1643  152.2006 LP  0  0  0  0  0  0  0  0  0  0  0  0  # atno 17343 bound_to 10162
  156.7122  130.8974  151.3610 LP  0  0  0  0  0  0  0  0  0  0  0  0  # atno 17370 bound_to 10713
  157.6925  130.9248  150.0553 LP  0  0  0  0  0  0  0  0  0  0  0  0  # atno 17371 bound_to 10713
  140.0847  134.9628  157.1680 LP  0  0  0  0  0  0  0  0  0  0  0  0  # atno 17394 bound_to 11000
  140.3528  134.2579  155.7196 LP  0  0  0  0  0  0  0  0  0  0  0  0  # atno 17395 bound_to 11000

$$$$
