AV-unprocessed.smi:921|AV-procd|sdf|4171|dock2
  -GOLD-   22720 2 83D 1   1.00000     0.00000
 Structure written by MMmdl.
 40 42  0  0  0  0  0  0  0  0  2 V2000
  150.0132  135.8886  154.3095 N   0  0  0  0  0  0  0  0  0  0  0  0
  151.0594  136.4998  154.8708 C   0  0  0  0  0  0  0  0  0  0  0  0
  151.6505  136.0244  155.8389 O   0  0  0  0  0  0  0  0  0  0  0  0
  151.4969  137.8340  154.2578 C   0  0  0  0  0  0  0  0  0  0  0  0
  150.3684  138.8208  154.2470 C   0  0  0  0  0  0  0  0  0  0  0  0
  149.2222  138.7011  153.5183 N   0  3  0  0  0  0  0  0  0  0  0  0
  148.4132  139.8189  153.7189 C   0  0  0  0  0  0  0  0  0  0  0  0
  147.1686  140.1467  153.1903 C   0  0  0  0  0  0  0  0  0  0  0  0
  146.6142  141.3789  153.5937 C   0  0  0  0  0  0  0  0  0  0  0  0
  147.2949  142.2322  154.4857 C   0  0  0  0  0  0  0  0  0  0  0  0
  148.5563  141.8887  155.0136 C   0  0  0  0  0  0  0  0  0  0  0  0
  149.0958  140.6644  154.6169 C   0  0  0  0  0  0  0  0  0  0  0  0
  150.2862  139.9977  154.9371 N   0  0  0  0  0  0  0  0  0  0  0  0
  151.2332  140.6166  155.8840 C   0  0  0  0  0  0  0  0  0  0  0  0
  150.8963  140.3648  157.3737 C   0  0  2  0  0  0  0  0  0  0  0  0
  149.5011  140.4669  157.5838 O   0  0  0  0  0  0  0  0  0  0  0  0
  151.7016  141.2464  158.3227 C   0  0  0  0  0  0  0  0  0  0  0  0
  151.6402  142.6560  158.2284 C   0  0  0  0  0  0  0  0  0  0  0  0
  152.4039  143.4628  159.0934 C   0  0  0  0  0  0  0  0  0  0  0  0
  152.3464  144.8113  158.9870 F   0  0  0  0  0  0  0  0  0  0  0  0
  153.2306  142.8677  160.0645 C   0  0  0  0  0  0  0  0  0  0  0  0
  153.2965  141.4654  160.1661 C   0  0  0  0  0  0  0  0  0  0  0  0
  152.5375  140.6563  159.2980 C   0  0  0  0  0  0  0  0  0  0  0  0
  152.6244  139.3084  159.4000 F   0  0  0  0  0  0  0  0  0  0  0  0
  149.6864  135.0105  154.6874 H   0  0  0  0  0  0  0  0  0  0  0  0
  149.5459  136.3048  153.5170 H   0  0  0  0  0  0  0  0  0  0  0  0
  152.3327  138.2555  154.8178 H   0  0  0  0  0  0  0  0  0  0  0  0
  151.8528  137.6536  153.2447 H   0  0  0  0  0  0  0  0  0  0  0  0
  146.6469  139.4964  152.5034 H   0  0  0  0  0  0  0  0  0  0  0  0
  145.6492  141.6765  153.2097 H   0  0  0  0  0  0  0  0  0  0  0  0
  146.8405  143.1697  154.7713 H   0  0  0  0  0  0  0  0  0  0  0  0
  149.0651  142.5516  155.6971 H   0  0  0  0  0  0  0  0  0  0  0  0
  152.2186  140.2071  155.6592 H   0  0  0  0  0  0  0  0  0  0  0  0
  151.3065  141.6838  155.6739 H   0  0  0  0  0  0  0  0  0  0  0  0
  151.1477  139.3278  157.5988 H   0  0  0  0  0  0  0  0  0  0  0  0
  149.0672  139.8505  157.0134 H   0  0  0  0  0  0  0  0  0  0  0  0
  151.0188  143.1279  157.4816 H   0  0  0  0  0  0  0  0  0  0  0  0
  153.8158  143.4859  160.7292 H   0  0  0  0  0  0  0  0  0  0  0  0
  153.9332  141.0087  160.9093 H   0  0  0  0  0  0  0  0  0  0  0  0
  149.0170  137.9139  152.9166 H   0  0  0  0  0  0  0  0  0  0  0  0
  1  2  1  0  0  0  0
  1 25  1  0  0  0  0
  1 26  1  0  0  0  0
  2  3  2  0  0  0  0
  2  4  1  0  0  0  0
  4  5  1  0  0  0  0
  4 27  1  0  0  0  0
  4 28  1  0  0  0  0
  5 13  1  0  0  0  0
  5  6  2  0  0  0  0
  6  7  1  0  0  0  0
  6 40  1  0  0  0  0
  7 12  2  0  0  0  0
  7  8  1  0  0  0  0
  8  9  2  0  0  0  0
  8 29  1  0  0  0  0
  9 10  1  0  0  0  0
  9 30  1  0  0  0  0
 10 11  2  0  0  0  0
 10 31  1  0  0  0  0
 11 12  1  0  0  0  0
 11 32  1  0  0  0  0
 12 13  1  0  0  0  0
 13 14  1  0  0  0  0
 14 15  1  0  0  0  0
 14 33  1  0  0  0  0
 14 34  1  0  0  0  0
 15 16  1  0  0  0  0
 15 17  1  0  0  0  0
 15 35  1  0  0  0  0
 16 36  1  0  0  0  0
 17 23  1  0  0  0  0
 17 18  2  0  0  0  0
 18 19  1  0  0  0  0
 18 37  1  0  0  0  0
 19 20  1  0  0  0  0
 19 21  2  0  0  0  0
 21 22  1  0  0  0  0
 21 38  1  0  0  0  0
 22 23  2  0  0  0  0
 22 39  1  0  0  0  0
 23 24  1  0  0  0  0
M  CHG  1   6   1
M  END
> <s_m_source_file>
AV-unprocessed.smi

> <i_m_source_file_index>
921

> <i_lp_mmshare_version>
43012

> <i_f3d_flags>
0

> <s_epik_input>
W2NIXTFbY0hdW2NIXVtjSF1jKGMxMiluKGMobjIpW0NIMl1DKD1PKVtOSDJdKVtDSDJdW0NASF0oW09IXSljM1tjSF1jKEYpW2NIXVtjSF1jM0Y=

> <s_epik_cmdline>
J2VwaWtfcHl0aG9uJywgJy1waCcsICc3LjAnLCAnLXRuJywgJzgnLCAnLW1hJywgJzIwMCcsICctbWV0YWxfYmluZGluZycsICctaW1hZScsICc8aW5maWxlLm1hZT4nLCAnLW9tYWUnLCAnPG91dGZpbGUubWFlPic=

> <r_epik_Ionization_Penalty>
1.66646

> <r_epik_Ionization_Penalty_Charging>
1.66645

> <r_epik_Ionization_Penalty_Neutral>
3.86504e-06

> <r_epik_State_Penalty>
1.76975

> <r_epik_Charging_Adjusted_Penalty>
3.43621

> <i_epik_Tot_Q>
1

> <i_epik_Tot_abs_Q>
1

> <r_epik_Metal_State_Penalty>
1.80493

> <b_epik_Metal_Only>
0

> <s_lp_Force_Field>
OPLS_2005

> <r_lp_Energy>
13.8702

> <b_lp_Chiralities_Consistent>
1

> <s_lp_Variant>
AV-unprocessed.smi:921-3

> <Gold.Version>
5.8.1

> <Gold.Id.Protein>
6NUR|6NUR_protein|mol2

> <Gold.PLP.Fitness>
66.2574

> <Gold.PLP.PLP>
-55.2567

> <Gold.PLP.part.hbond>
-4.6571

> <Gold.PLP.part.metal>
0.0000

> <Gold.PLP.part.buried>
2.2154

> <Gold.PLP.part.nonpolar>
-53.3727

> <Gold.PLP.part.repulsive>
0.1594

> <Gold.PLP.ligand.clash>
0.0000

> <Gold.PLP.ligand.torsion>
0.5386

> <Gold.PLP.Chemscore.Hbond>
4.0000

> <Gold.PLP.Chemscore.CHOScore>
0.0000

> <Gold.PLP.Chemscore.Metal>
0.0000

> <Gold.Chemscore.Hbonds>
donor molecule, donor type, donor heavy atom, donor atom, acceptor molecule, acceptor atom, score
      L1  H     1    26       P1  7948  1.00
      L1  H     6    40       P1  7948  2.00
      P1  H 10752 10765       L1     3  1.00

> <Gold.PLP.Chemscore.Internal.Correction>
0.0780

> <Gold.Rescore>
     Score         DG    S(hbond)    S(metal)    S(lipo)     H(rot)  DE(clash)    DE(int)     intcor
     16.71     -19.33       2.53        0.00     115.60       3.17       1.12       1.50       ----

> <Gold.Chemscore.Fitness>
16.7084

> <Gold.Chemscore.DG>
-19.3269

> <Gold.Chemscore.ZeroCoef>
-5.4800

> <Gold.Chemscore.Hbond>
2.5272

> <Gold.Chemscore.Metal>
0.0000

> <Gold.Chemscore.Lipo>
115.6038

> <Gold.Chemscore.Internal_Hbond>
0.0000

> <Gold.Chemscore.DEClash>
1.1229

> <Gold.Chemscore.DEInternal>
1.4956

> <Gold.Chemscore.Rot>
3.1717

> <Gold.Chemscore.Internal.Correction>
   9.000000E+99

> <Gold.Chemscore.Hbonds>
donor molecule, donor type, donor heavy atom, donor atom, acceptor molecule, acceptor atom, score
      L1  H     1    26       P1  7948  0.52
      L1  H     6    40       P1  7948  0.98
      P1  H 10752 10765       L1     3  0.43

> <Gold.Chemscore.Hbond.Weighted>
-8.4409

> <Gold.Chemscore.Metal.Weighted>
-0.0000

> <Gold.Chemscore.Lipo.Weighted>
-13.5256

> <Gold.Chemscore.Internal_Hbond.Weighted>
0.0000

> <Gold.Chemscore.DEClash.Weighted>
1.1229

> <Gold.Chemscore.DEInternal.Weighted>
1.4956

> <Gold.Chemscore.Rot.Weighted>
8.1196

> <Gold.Chemscore.Internal.Correction.Weighted>
   9.000000E+99

> <Gold.Protein.RotatedTorsions>
[ 6907 6896 6895 6894 ] final   19.16 input  -60.11 | X-H torsion
[ 7974 7965 7964 7962 ] final  -67.71 input  175.53 | X-H torsion
[ 8008 7997 7996 7995 ] final  177.72 input   59.86 | X-H torsion
[ 10167 10162 10161 10158 ] final -115.20 input  -65.29 | X-H torsion
[ 10718 10713 10712 10709 ] final   -5.91 input   66.30 | X-H torsion
[ 10763 10752 10751 10750 ] final -140.97 input  -60.55 | X-H torsion
[ 11005 11000 10999 10996 ] final -142.57 input  -57.11 | X-H torsion

> <Gold.Protein.ActiveResidues>
 VAL166  LYS551  ARG553  GLY616  TRP617  ASP618  TYR619  PRO620  LYS621  CYS622 
 ASP623  PHE694  ASN695  SER759  ASP760  ASP761  ALA762  ILE779  LEU786  VAL792 
 PHE793  MET794  SER795  GLU796  ALA797  LYS798  CYS799  TRP800  GLU811  SER814 

> <Gold.Protein.RotatedAtoms>
  151.8765  135.0470  160.0484 H   0  0  0  0  0  0  0  0  0  0  0  0  # atno 6907 bound_to 6896
  152.2547  133.5240  159.5354 H   0  0  0  0  0  0  0  0  0  0  0  0  # atno 6908 bound_to 6896
  150.7095  134.0829  159.3946 H   0  0  0  0  0  0  0  0  0  0  0  0  # atno 6909 bound_to 6896
  145.7258  140.9019  143.0606 H   0  0  0  0  0  0  0  0  0  0  0  0  # atno 7974 bound_to 7965
  156.0626  140.1351  156.9923 H   0  0  0  0  0  0  0  0  0  0  0  0  # atno 8008 bound_to 7997
  154.4489  140.0988  156.6611 H   0  0  0  0  0  0  0  0  0  0  0  0  # atno 8009 bound_to 7997
  155.5353  140.3459  155.4437 H   0  0  0  0  0  0  0  0  0  0  0  0  # atno 8010 bound_to 7997
  140.0927  143.4685  152.1860 H   0  0  0  0  0  0  0  0  0  0  0  0  # atno 10167 bound_to 10162
  156.7396  130.5205  149.5827 H   0  0  0  0  0  0  0  0  0  0  0  0  # atno 10718 bound_to 10713
  154.8561  135.3538  154.5793 H   0  0  0  0  0  0  0  0  0  0  0  0  # atno 10763 bound_to 10752
  153.6404  135.6998  153.5248 H   0  0  0  0  0  0  0  0  0  0  0  0  # atno 10764 bound_to 10752
  153.2976  135.4216  155.1182 H   0  0  0  0  0  0  0  0  0  0  0  0  # atno 10765 bound_to 10752
  140.8212  134.2629  157.4899 H   0  0  0  0  0  0  0  0  0  0  0  0  # atno 11005 bound_to 11000
  144.6905  139.9264  143.7470 LP  0  0  0  0  0  0  0  0  0  0  0  0  # atno 17320 bound_to 7965
  146.0584  139.3579  143.0597 LP  0  0  0  0  0  0  0  0  0  0  0  0  # atno 17321 bound_to 7965
  139.5715  144.7465  151.3877 LP  0  0  0  0  0  0  0  0  0  0  0  0  # atno 17342 bound_to 10162
  140.7020  143.7608  150.7418 LP  0  0  0  0  0  0  0  0  0  0  0  0  # atno 17343 bound_to 10162
  156.1473  130.6286  151.0549 LP  0  0  0  0  0  0  0  0  0  0  0  0  # atno 17370 bound_to 10713
  157.6824  131.0834  150.7334 LP  0  0  0  0  0  0  0  0  0  0  0  0  # atno 17371 bound_to 10713
  139.8708  134.9536  156.4151 LP  0  0  0  0  0  0  0  0  0  0  0  0  # atno 17394 bound_to 11000
  140.9097  133.7720  155.9777 LP  0  0  0  0  0  0  0  0  0  0  0  0  # atno 17395 bound_to 11000

$$$$
