AV-unprocessed.smi:171|AV-procd|sdf|1414|dock4
  -GOLD-   2262019173D 1   1.00000     0.00000
 Structure written by MMmdl.
 56 59  0  0  0  0  0  0  0  0  1 V2000
  152.1652  138.5285  154.1416 C   0  0  0  0  0  0  0  0  0  0  0  0
  150.9249  139.3060  154.6126 C   0  0  0  0  0  0  0  0  0  0  0  0
  150.8700  139.3361  156.1485 C   0  0  0  0  0  0  0  0  0  0  0  0
  149.6047  138.7401  154.0240 C   0  0  0  0  0  0  0  0  0  0  0  0
  148.3497  139.6555  154.1291 C   0  0  2  0  0  0  0  0  0  0  0  0
  148.7056  141.1403  154.3711 C   0  0  0  0  0  0  0  0  0  0  0  0
  149.5902  141.6740  153.7044 O   0  0  0  0  0  0  0  0  0  0  0  0
  148.0161  141.8370  155.2909 N   0  0  0  0  0  0  0  0  0  0  0  0
  146.9515  141.3030  156.1355 C   0  0  0  0  0  0  0  0  0  0  0  0
  146.3279  140.0272  155.5524 C   0  0  0  0  0  0  0  0  0  0  0  0
  147.3790  139.1251  155.1012 N   0  0  0  0  0  0  0  0  0  0  0  0
  146.9286  137.8689  154.8858 C   0  0  0  0  0  0  0  0  0  0  0  0
  147.0299  136.9312  155.8635 N   0  0  0  0  0  0  0  0  0  0  0  0
  146.5597  135.6979  155.6518 C   0  0  0  0  0  0  0  0  0  0  0  0
  145.9614  135.2073  154.5635 N   0  0  0  0  0  0  0  0  0  0  0  0
  145.8648  136.1500  153.5818 C   0  0  0  0  0  0  0  0  0  0  0  0
  146.3317  137.4906  153.6560 C   0  0  0  0  0  0  0  0  0  0  0  0
  146.0722  138.1566  152.4656 N   0  0  0  0  0  0  0  0  0  0  0  0
  145.4709  137.2617  151.7306 C   0  0  0  0  0  0  0  0  0  0  0  0
  145.2914  136.0335  152.3277 N   0  0  0  0  0  0  0  0  0  0  0  0
  144.6371  134.8701  151.7504 C   0  0  0  0  0  0  0  0  0  0  0  0
  145.6228  133.7244  151.3988 C   0  0  1  0  0  0  0  0  0  0  0  0
  146.5006  134.1915  150.3880 O   0  0  0  0  0  0  0  0  0  0  0  0
  146.4771  133.2725  152.5814 C   0  0  0  0  0  0  0  0  0  0  0  0
  146.7433  131.8067  152.2760 C   0  0  0  0  0  0  0  0  0  0  0  0
  145.5014  131.3770  151.7484 O   0  0  0  0  0  0  0  0  0  0  0  0
  144.9873  132.3969  150.8961 C   0  0  1  0  0  0  0  0  0  0  0  0
  143.4536  132.3056  150.9260 C   0  0  0  0  0  0  0  0  0  0  0  0
  152.1049  137.4764  154.4220 H   0  0  0  0  0  0  0  0  0  0  0  0
  153.0736  138.9370  154.5848 H   0  0  0  0  0  0  0  0  0  0  0  0
  152.2879  138.5798  153.0609 H   0  0  0  0  0  0  0  0  0  0  0  0
  151.0502  140.3393  154.2909 H   0  0  0  0  0  0  0  0  0  0  0  0
  150.7453  138.3344  156.5610 H   0  0  0  0  0  0  0  0  0  0  0  0
  150.0394  139.9488  156.5011 H   0  0  0  0  0  0  0  0  0  0  0  0
  151.7839  139.7585  156.5671 H   0  0  0  0  0  0  0  0  0  0  0  0
  149.7662  138.4406  152.9876 H   0  0  0  0  0  0  0  0  0  0  0  0
  149.3681  137.8023  154.5281 H   0  0  0  0  0  0  0  0  0  0  0  0
  147.8656  139.6541  153.1511 H   0  0  0  0  0  0  0  0  0  0  0  0
  148.2575  142.8087  155.4221 H   0  0  0  0  0  0  0  0  0  0  0  0
  147.3807  141.0876  157.1147 H   0  0  0  0  0  0  0  0  0  0  0  0
  146.1876  142.0662  156.2854 H   0  0  0  0  0  0  0  0  0  0  0  0
  145.6957  139.5487  156.3024 H   0  0  0  0  0  0  0  0  0  0  0  0
  145.6862  140.2782  154.7059 H   0  0  0  0  0  0  0  0  0  0  0  0
  146.6740  135.0068  156.4739 H   0  0  0  0  0  0  0  0  0  0  0  0
  145.1298  137.4786  150.7288 H   0  0  0  0  0  0  0  0  0  0  0  0
  143.8893  134.5255  152.4652 H   0  0  0  0  0  0  0  0  0  0  0  0
  144.0923  135.1914  150.8618 H   0  0  0  0  0  0  0  0  0  0  0  0
  145.9879  134.4216  149.6283 H   0  0  0  0  0  0  0  0  0  0  0  0
  147.3885  133.8566  152.7184 H   0  0  0  0  0  0  0  0  0  0  0  0
  145.9007  133.3355  153.5052 H   0  0  0  0  0  0  0  0  0  0  0  0
  147.5257  131.6944  151.5240 H   0  0  0  0  0  0  0  0  0  0  0  0
  147.0247  131.2352  153.1605 H   0  0  0  0  0  0  0  0  0  0  0  0
  145.3242  132.1752  149.8816 H   0  0  0  0  0  0  0  0  0  0  0  0
  142.9966  133.0574  150.2823 H   0  0  0  0  0  0  0  0  0  0  0  0
  143.0635  132.4358  151.9356 H   0  0  0  0  0  0  0  0  0  0  0  0
  143.1212  131.3295  150.5722 H   0  0  0  0  0  0  0  0  0  0  0  0
  1  2  1  0  0  0  0
  1 29  1  0  0  0  0
  1 30  1  0  0  0  0
  1 31  1  0  0  0  0
  2  3  1  0  0  0  0
  2  4  1  0  0  0  0
  2 32  1  0  0  0  0
  3 33  1  0  0  0  0
  3 34  1  0  0  0  0
  3 35  1  0  0  0  0
  4  5  1  0  0  0  0
  4 36  1  0  0  0  0
  4 37  1  0  0  0  0
  5 11  1  0  0  0  0
  5  6  1  0  0  0  0
  5 38  1  0  0  0  0
  6  7  2  0  0  0  0
  6  8  1  0  0  0  0
  8  9  1  0  0  0  0
  8 39  1  0  0  0  0
  9 10  1  0  0  0  0
  9 40  1  0  0  0  0
  9 41  1  0  0  0  0
 10 11  1  0  0  0  0
 10 42  1  0  0  0  0
 10 43  1  0  0  0  0
 11 12  1  0  0  0  0
 12 17  1  0  0  0  0
 12 13  2  0  0  0  0
 13 14  1  0  0  0  0
 14 15  2  0  0  0  0
 14 44  1  0  0  0  0
 15 16  1  0  0  0  0
 16 20  1  0  0  0  0
 16 17  2  0  0  0  0
 17 18  1  0  0  0  0
 18 19  2  0  0  0  0
 19 20  1  0  0  0  0
 19 45  1  0  0  0  0
 20 21  1  0  0  0  0
 21 22  1  0  0  0  0
 21 46  1  0  0  0  0
 21 47  1  0  0  0  0
 22 27  1  0  0  0  0
 22 23  1  0  0  0  0
 22 24  1  0  0  0  0
 23 48  1  0  0  0  0
 24 25  1  0  0  0  0
 24 49  1  0  0  0  0
 24 50  1  0  0  0  0
 25 26  1  0  0  0  0
 25 51  1  0  0  0  0
 25 52  1  0  0  0  0
 26 27  1  0  0  0  0
 27 28  1  0  0  0  0
 27 53  1  0  0  0  0
 28 54  1  0  0  0  0
 28 55  1  0  0  0  0
 28 56  1  0  0  0  0
M  END
> <s_m_source_file>
AV-unprocessed.smi

> <i_m_source_file_index>
171

> <i_lp_mmshare_version>
43012

> <i_f3d_flags>
0

> <s_epik_input>
W0NIM11bQ0hdKFtDSDNdKVtDSDJdW0NAQEhdMUMoPU8pW05IXVtDSDJdW0NIMl1OMWMobltjSF1uMiljKGMyMyluW2NIXW4zW0NIMl1bQ0BAXTQoW09IXSlbQ0gyXVtDSDJdT1tDQEhdNFtDSDNd

> <s_epik_cmdline>
J2VwaWtfcHl0aG9uJywgJy1waCcsICc3LjAnLCAnLXRuJywgJzgnLCAnLW1hJywgJzIwMCcsICctbWV0YWxfYmluZGluZycsICctaW1hZScsICc8aW5maWxlLm1hZT4nLCAnLW9tYWUnLCAnPG91dGZpbGUubWFlPic=

> <r_lp_tautomer_probability>
1

> <r_epik_Ionization_Penalty>
0.000670584

> <r_epik_Ionization_Penalty_Charging>
0

> <r_epik_Ionization_Penalty_Neutral>
0.000670584

> <r_epik_State_Penalty>
0.000304767

> <r_epik_Charging_Adjusted_Penalty>
0.000304767

> <i_epik_Tot_Q>
0

> <i_epik_Tot_abs_Q>
0

> <r_epik_Metal_State_Penalty>
-0

> <b_epik_Metal_Only>
0

> <s_lp_Force_Field>
OPLS_2005

> <r_lp_Energy>
42.1077

> <b_lp_Chiralities_Consistent>
1

> <s_lp_Variant>
AV-unprocessed.smi:171-1

> <Gold.Version>
5.8.1

> <Gold.Id.Protein>
6NUR|6NUR_protein|mol2

> <Gold.PLP.Fitness>
39.1362

> <Gold.PLP.PLP>
-30.2658

> <Gold.PLP.part.hbond>
-4.6692

> <Gold.PLP.part.metal>
0.0000

> <Gold.PLP.part.buried>
3.7749

> <Gold.PLP.part.nonpolar>
-29.8835

> <Gold.PLP.part.repulsive>
1.3508

> <Gold.PLP.ligand.clash>
0.0000

> <Gold.PLP.ligand.torsion>
1.2341

> <Gold.PLP.Chemscore.Hbond>
2.7693

> <Gold.PLP.Chemscore.CHOScore>
0.8589

> <Gold.PLP.Chemscore.Metal>
0.0000

> <Gold.Chemscore.Hbonds>
donor molecule, donor type, donor heavy atom, donor atom, acceptor molecule, acceptor atom, score
      L1  H     8    39       P1  8028  1.00
      L1  H    23    48       P1  7921  0.83
      P1  H  7989  7998       L1     7  0.04
      P1  H  8011  8017       L1     7  0.67
      L1  C    19    45       P1 10171  0.70

> <Gold.PLP.Chemscore.Internal.Correction>
0.4539

> <Gold.Rescore>
     Score         DG    S(hbond)    S(metal)    S(lipo)     H(rot)  DE(clash)    DE(int)     intcor
      8.72     -15.47       2.37        0.00      74.87       2.61       3.37       3.37       ----

> <Gold.Chemscore.Fitness>
8.7222

> <Gold.Chemscore.DG>
-15.4677

> <Gold.Chemscore.ZeroCoef>
-5.4800

> <Gold.Chemscore.Hbond>
2.3661

> <Gold.Chemscore.Metal>
0.0000

> <Gold.Chemscore.Lipo>
74.8698

> <Gold.Chemscore.Internal_Hbond>
0.0000

> <Gold.Chemscore.DEClash>
3.3745

> <Gold.Chemscore.DEInternal>
3.3710

> <Gold.Chemscore.Rot>
2.6074

> <Gold.Chemscore.Internal.Correction>
   9.000000E+99

> <Gold.Chemscore.Hbonds>
donor molecule, donor type, donor heavy atom, donor atom, acceptor molecule, acceptor atom, score
      L1  H     8    39       P1  8028  0.94
      L1  H    23    48       P1  7921  0.35
      P1  H  7989  7998       L1     7  0.06
      P1  H  8011  8017       L1     7  0.64

> <Gold.Chemscore.Hbond.Weighted>
-7.9027

> <Gold.Chemscore.Metal.Weighted>
-0.0000

> <Gold.Chemscore.Lipo.Weighted>
-8.7598

> <Gold.Chemscore.Internal_Hbond.Weighted>
0.0000

> <Gold.Chemscore.DEClash.Weighted>
3.3745

> <Gold.Chemscore.DEInternal.Weighted>
3.3710

> <Gold.Chemscore.Rot.Weighted>
6.6748

> <Gold.Chemscore.Internal.Correction.Weighted>
   9.000000E+99

> <Gold.Protein.RotatedTorsions>
[ 6907 6896 6895 6894 ] final  139.56 input  -60.11 | X-H torsion
[ 7974 7965 7964 7962 ] final   16.87 input  175.53 | X-H torsion
[ 8008 7997 7996 7995 ] final -141.76 input   59.86 | X-H torsion
[ 10167 10162 10161 10158 ] final  118.10 input  -65.29 | X-H torsion
[ 10718 10713 10712 10709 ] final  131.21 input   66.30 | X-H torsion
[ 10763 10752 10751 10750 ] final    7.86 input  -60.55 | X-H torsion
[ 11005 11000 10999 10996 ] final   61.21 input  -57.11 | X-H torsion

> <Gold.Protein.ActiveResidues>
 VAL166  LYS551  ARG553  GLY616  TRP617  ASP618  TYR619  PRO620  LYS621  CYS622 
 ASP623  PHE694  ASN695  SER759  ASP760  ASP761  ALA762  ILE779  LEU786  VAL792 
 PHE793  MET794  SER795  GLU796  ALA797  LYS798  CYS799  TRP800  GLU811  SER814 

> <Gold.Protein.RotatedAtoms>
  152.2534  133.5235  159.5338 H   0  0  0  0  0  0  0  0  0  0  0  0  # atno 6907 bound_to 6896
  150.7101  134.0928  159.3947 H   0  0  0  0  0  0  0  0  0  0  0  0  # atno 6908 bound_to 6896
  151.8847  135.0440  160.0543 H   0  0  0  0  0  0  0  0  0  0  0  0  # atno 6909 bound_to 6896
  146.2236  139.8685  142.8591 H   0  0  0  0  0  0  0  0  0  0  0  0  # atno 7974 bound_to 7965
  155.4830  140.0562  157.2964 H   0  0  0  0  0  0  0  0  0  0  0  0  # atno 8008 bound_to 7997
  154.4653  140.2015  156.0088 H   0  0  0  0  0  0  0  0  0  0  0  0  # atno 8009 bound_to 7997
  156.0962  140.3226  155.7886 H   0  0  0  0  0  0  0  0  0  0  0  0  # atno 8010 bound_to 7997
  139.6134  144.7087  151.2793 H   0  0  0  0  0  0  0  0  0  0  0  0  # atno 10167 bound_to 10162
  157.4989  131.1093  150.9455 H   0  0  0  0  0  0  0  0  0  0  0  0  # atno 10718 bound_to 10713
  153.2316  135.6893  153.7884 H   0  0  0  0  0  0  0  0  0  0  0  0  # atno 10763 bound_to 10752
  153.7046  135.3292  155.3233 H   0  0  0  0  0  0  0  0  0  0  0  0  # atno 10764 bound_to 10752
  154.8316  135.4576  154.1203 H   0  0  0  0  0  0  0  0  0  0  0  0  # atno 10765 bound_to 10752
  140.0177  134.6200  155.9685 H   0  0  0  0  0  0  0  0  0  0  0  0  # atno 11005 bound_to 11000
  145.2632  141.0084  143.3814 LP  0  0  0  0  0  0  0  0  0  0  0  0  # atno 17320 bound_to 7965
  144.9282  139.4330  143.6508 LP  0  0  0  0  0  0  0  0  0  0  0  0  # atno 17321 bound_to 7965
  140.7335  143.6794  150.8014 LP  0  0  0  0  0  0  0  0  0  0  0  0  # atno 17342 bound_to 10162
  140.0392  143.5363  152.2725 LP  0  0  0  0  0  0  0  0  0  0  0  0  # atno 17343 bound_to 10162
  157.0132  130.5645  149.5323 LP  0  0  0  0  0  0  0  0  0  0  0  0  # atno 17370 bound_to 10713
  156.0217  130.5312  150.8294 LP  0  0  0  0  0  0  0  0  0  0  0  0  # atno 17371 bound_to 10713
  141.1753  133.6540  156.4807 LP  0  0  0  0  0  0  0  0  0  0  0  0  # atno 17394 bound_to 11000
  140.4442  134.6988  157.5007 LP  0  0  0  0  0  0  0  0  0  0  0  0  # atno 17395 bound_to 11000

$$$$
