AV-unprocessed.smi:1224|AV-procd|sdf|5128|dock1
  -GOLD-   22720 4183D 1   1.00000     0.00000
 Structure written by MMmdl.
 44 46  0  0  0  0  0  0  0  0  2 V2000
  152.6510  143.0864  161.0672 C   0  0  0  0  0  0  0  0  0  0  0  0
  152.0737  142.4768  159.8019 C   0  0  0  0  0  0  0  0  0  0  0  0
  152.7089  141.3514  159.2299 C   0  0  0  0  0  0  0  0  0  0  0  0
  152.2000  140.7508  158.0578 C   0  0  0  0  0  0  0  0  0  0  0  0
  152.6514  139.6578  157.3382 N   0  0  0  0  0  0  0  0  0  0  0  0
  151.7545  139.5917  156.3588 C   0  0  0  0  0  0  0  0  0  0  0  0
  150.7690  140.5104  156.3630 N   0  0  0  0  0  0  0  0  0  0  0  0
  149.6768  140.6307  155.4139 C   0  0  0  0  0  0  0  0  0  0  0  0
  149.4728  139.3440  154.5910 C   0  0  2  0  0  0  0  0  0  0  0  0
  150.4046  139.3170  153.5263 O   0  0  0  0  0  0  0  0  0  0  0  0
  148.0558  139.2530  154.0034 C   0  0  0  0  0  0  0  0  0  0  0  0
  148.0926  138.8070  152.5941 N   0  3  0  0  0  0  0  0  0  0  0  0
  146.8072  138.9061  151.8730 C   0  0  0  0  0  0  0  0  0  0  0  0
  146.1730  137.5701  151.6575 C   0  0  0  0  0  0  0  0  0  0  0  0
  146.0122  136.8967  150.4729 C   0  0  0  0  0  0  0  0  0  0  0  0
  145.3779  135.6296  150.6304 C   0  0  0  0  0  0  0  0  0  0  0  0
  145.0627  135.3522  151.9340 C   0  0  0  0  0  0  0  0  0  0  0  0
  145.5385  136.6473  152.9973 S   0  0  0  0  0  0  0  0  0  0  0  0
  151.0280  141.3104  157.4703 C   0  0  0  0  0  0  0  0  0  0  0  0
  150.3901  142.4332  158.0265 C   0  0  0  0  0  0  0  0  0  0  0  0
  150.9121  143.0213  159.1974 C   0  0  0  0  0  0  0  0  0  0  0  0
  150.2151  144.2322  159.7922 C   0  0  0  0  0  0  0  0  0  0  0  0
  153.5664  142.5784  161.3720 H   0  0  0  0  0  0  0  0  0  0  0  0
  151.9363  143.0096  161.8868 H   0  0  0  0  0  0  0  0  0  0  0  0
  152.8893  144.1389  160.9127 H   0  0  0  0  0  0  0  0  0  0  0  0
  153.5941  140.9372  159.6898 H   0  0  0  0  0  0  0  0  0  0  0  0
  151.8117  138.8258  155.5991 H   0  0  0  0  0  0  0  0  0  0  0  0
  148.7699  140.8732  155.9694 H   0  0  0  0  0  0  0  0  0  0  0  0
  149.8765  141.4780  154.7560 H   0  0  0  0  0  0  0  0  0  0  0  0
  149.6574  138.4787  155.2294 H   0  0  0  0  0  0  0  0  0  0  0  0
  149.9311  139.3873  152.7105 H   0  0  0  0  0  0  0  0  0  0  0  0
  147.4621  138.5377  154.5743 H   0  0  0  0  0  0  0  0  0  0  0  0
  147.5559  140.2191  154.0853 H   0  0  0  0  0  0  0  0  0  0  0  0
  148.7775  139.3641  152.1029 H   0  0  0  0  0  0  0  0  0  0  0  0
  146.1361  139.5347  152.4587 H   0  0  0  0  0  0  0  0  0  0  0  0
  146.9602  139.4172  150.9215 H   0  0  0  0  0  0  0  0  0  0  0  0
  146.3269  137.2642  149.5072 H   0  0  0  0  0  0  0  0  0  0  0  0
  145.1783  134.9753  149.7946 H   0  0  0  0  0  0  0  0  0  0  0  0
  144.5817  134.4708  152.3329 H   0  0  0  0  0  0  0  0  0  0  0  0
  149.5059  142.8374  157.5568 H   0  0  0  0  0  0  0  0  0  0  0  0
  149.3335  144.5087  159.2132 H   0  0  0  0  0  0  0  0  0  0  0  0
  150.8876  145.0901  159.8073 H   0  0  0  0  0  0  0  0  0  0  0  0
  149.8937  144.0255  160.8132 H   0  0  0  0  0  0  0  0  0  0  0  0
  148.3931  137.8429  152.5788 H   0  0  0  0  0  0  0  0  0  0  0  0
  1  2  1  0  0  0  0
  1 23  1  0  0  0  0
  1 24  1  0  0  0  0
  1 25  1  0  0  0  0
  2 21  1  0  0  0  0
  2  3  2  0  0  0  0
  3  4  1  0  0  0  0
  3 26  1  0  0  0  0
  4 19  2  0  0  0  0
  4  5  1  0  0  0  0
  5  6  2  0  0  0  0
  6  7  1  0  0  0  0
  6 27  1  0  0  0  0
  7  8  1  0  0  0  0
  7 19  1  0  0  0  0
  8  9  1  0  0  0  0
  8 28  1  0  0  0  0
  8 29  1  0  0  0  0
  9 10  1  0  0  0  0
  9 11  1  0  0  0  0
  9 30  1  0  0  0  0
 10 31  1  0  0  0  0
 11 12  1  0  0  0  0
 11 32  1  0  0  0  0
 11 33  1  0  0  0  0
 12 13  1  0  0  0  0
 12 34  1  0  0  0  0
 12 44  1  0  0  0  0
 13 14  1  0  0  0  0
 13 35  1  0  0  0  0
 13 36  1  0  0  0  0
 14 18  1  0  0  0  0
 14 15  2  0  0  0  0
 15 16  1  0  0  0  0
 15 37  1  0  0  0  0
 16 17  2  0  0  0  0
 16 38  1  0  0  0  0
 17 18  1  0  0  0  0
 17 39  1  0  0  0  0
 19 20  1  0  0  0  0
 20 21  2  0  0  0  0
 20 40  1  0  0  0  0
 21 22  1  0  0  0  0
 22 41  1  0  0  0  0
 22 42  1  0  0  0  0
 22 43  1  0  0  0  0
M  CHG  1  12   1
M  END
> <s_m_source_file>
AV-unprocessed.smi

> <i_m_source_file_index>
1224

> <i_lp_mmshare_version>
43012

> <i_f3d_flags>
0

> <s_epik_input>
W0NIM11jKFtjSF0xKWMoW0NIM10pW2NIXWMoYzEyKW4oW2NIXW4yKVtDSDJdW0NASF0oW09IXSlbQ0gyXVtOSF1bQ0gyXWMzW2NIXVtjSF1bY0hdczM=

> <s_epik_cmdline>
J2VwaWtfcHl0aG9uJywgJy1waCcsICc3LjAnLCAnLXRuJywgJzgnLCAnLW1hJywgJzIwMCcsICctbWV0YWxfYmluZGluZycsICctaW1hZScsICc8aW5maWxlLm1hZT4nLCAnLW9tYWUnLCAnPG91dGZpbGUubWFlPic=

> <r_epik_Ionization_Penalty>
0.145091

> <r_epik_Ionization_Penalty_Charging>
0.0551904

> <r_epik_Ionization_Penalty_Neutral>
0.0899003

> <r_epik_State_Penalty>
0.131364

> <r_epik_Charging_Adjusted_Penalty>
0.186554

> <i_epik_Tot_Q>
1

> <i_epik_Tot_abs_Q>
1

> <r_epik_Metal_State_Penalty>
0.0472291

> <b_epik_Metal_Only>
0

> <s_lp_Force_Field>
OPLS_2005

> <r_lp_Energy>
7.24279

> <b_lp_Chiralities_Consistent>
1

> <s_lp_Variant>
AV-unprocessed.smi:1224-1

> <Gold.Version>
5.8.1

> <Gold.Id.Protein>
6NUR|6NUR_protein|mol2

> <Gold.PLP.Fitness>
59.2860

> <Gold.PLP.PLP>
-45.0383

> <Gold.PLP.part.hbond>
-4.7488

> <Gold.PLP.part.metal>
0.0000

> <Gold.PLP.part.buried>
1.3240

> <Gold.PLP.part.nonpolar>
-42.7708

> <Gold.PLP.part.repulsive>
0.0749

> <Gold.PLP.ligand.clash>
0.0000

> <Gold.PLP.ligand.torsion>
1.5112

> <Gold.PLP.Chemscore.Hbond>
5.6928

> <Gold.PLP.Chemscore.CHOScore>
0.0000

> <Gold.PLP.Chemscore.Metal>
0.0000

> <Gold.Chemscore.Hbonds>
donor molecule, donor type, donor heavy atom, donor atom, acceptor molecule, acceptor atom, score
      L1  H    10    31       P1  7957  1.00
      L1  H    12    34       P1  7957  0.70
      L1  H    12    44       P1  7948  2.00
      P1  H  7989  7998       L1    10  0.85
      P1  H  7997  8010       L1     5  1.00

> <Gold.PLP.Chemscore.Internal.Correction>
0.1917

> <Gold.Rescore>
     Score         DG    S(hbond)    S(metal)    S(lipo)     H(rot)  DE(clash)    DE(int)     intcor
     24.09     -26.44       3.86        0.00     121.95       2.42       0.87       1.49       ----

> <Gold.Chemscore.Fitness>
24.0856

> <Gold.Chemscore.DG>
-26.4413

> <Gold.Chemscore.ZeroCoef>
-5.4800

> <Gold.Chemscore.Hbond>
3.8619

> <Gold.Chemscore.Metal>
0.0000

> <Gold.Chemscore.Lipo>
121.9488

> <Gold.Chemscore.Internal_Hbond>
0.0000

> <Gold.Chemscore.DEClash>
0.8685

> <Gold.Chemscore.DEInternal>
1.4872

> <Gold.Chemscore.Rot>
2.4240

> <Gold.Chemscore.Internal.Correction>
   9.000000E+99

> <Gold.Chemscore.Hbonds>
donor molecule, donor type, donor heavy atom, donor atom, acceptor molecule, acceptor atom, score
      L1  H    10    31       P1  7957  0.93
      L1  H    12    34       P1  7957  0.71
      L1  H    12    44       P1  7948  0.99
      P1  H  7989  7998       L1    10  0.30
      P1  H  7997  8010       L1     5  0.33

> <Gold.Chemscore.Hbond.Weighted>
-12.8988

> <Gold.Chemscore.Metal.Weighted>
-0.0000

> <Gold.Chemscore.Lipo.Weighted>
-14.2680

> <Gold.Chemscore.Internal_Hbond.Weighted>
0.0000

> <Gold.Chemscore.DEClash.Weighted>
0.8685

> <Gold.Chemscore.DEInternal.Weighted>
1.4872

> <Gold.Chemscore.Rot.Weighted>
6.2055

> <Gold.Chemscore.Internal.Correction.Weighted>
   9.000000E+99

> <Gold.Protein.RotatedTorsions>
[ 6907 6896 6895 6894 ] final  -64.50 input  -60.11 | X-H torsion
[ 7974 7965 7964 7962 ] final   62.82 input  175.53 | X-H torsion
[ 8008 7997 7996 7995 ] final   71.90 input   59.86 | X-H torsion
[ 10167 10162 10161 10158 ] final  127.56 input  -65.29 | X-H torsion
[ 10718 10713 10712 10709 ] final   -9.09 input   66.30 | X-H torsion
[ 10763 10752 10751 10750 ] final  -71.50 input  -60.55 | X-H torsion
[ 11005 11000 10999 10996 ] final  -79.36 input  -57.11 | X-H torsion

> <Gold.Protein.ActiveResidues>
 VAL166  LYS551  ARG553  GLY616  TRP617  ASP618  TYR619  PRO620  LYS621  CYS622 
 ASP623  PHE694  ASN695  SER759  ASP760  ASP761  ALA762  ILE779  LEU786  VAL792 
 PHE793  MET794  SER795  GLU796  ALA797  LYS798  CYS799  TRP800  GLU811  SER814 

> <Gold.Protein.RotatedAtoms>
  150.7581  134.6289  159.6175 H   0  0  0  0  0  0  0  0  0  0  0  0  # atno 6907 bound_to 6896
  152.3573  134.6919  160.0227 H   0  0  0  0  0  0  0  0  0  0  0  0  # atno 6908 bound_to 6896
  151.7320  133.3282  159.3379 H   0  0  0  0  0  0  0  0  0  0  0  0  # atno 6909 bound_to 6896
  145.8689  139.3364  143.0774 H   0  0  0  0  0  0  0  0  0  0  0  0  # atno 7974 bound_to 7965
  155.7609  140.3486  155.5197 H   0  0  0  0  0  0  0  0  0  0  0  0  # atno 8008 bound_to 7997
  155.8915  140.1018  157.1436 H   0  0  0  0  0  0  0  0  0  0  0  0  # atno 8009 bound_to 7997
  154.4034  140.1303  156.4309 H   0  0  0  0  0  0  0  0  0  0  0  0  # atno 8010 bound_to 7997
  139.5572  144.6857  151.4149 H   0  0  0  0  0  0  0  0  0  0  0  0  # atno 10167 bound_to 10162
  156.6931  130.5071  149.5938 H   0  0  0  0  0  0  0  0  0  0  0  0  # atno 10718 bound_to 10713
  154.4326  135.5960  153.6078 H   0  0  0  0  0  0  0  0  0  0  0  0  # atno 10763 bound_to 10752
  152.9800  135.5979  154.3820 H   0  0  0  0  0  0  0  0  0  0  0  0  # atno 10764 bound_to 10752
  154.3660  135.2841  155.2272 H   0  0  0  0  0  0  0  0  0  0  0  0  # atno 10765 bound_to 10752
  141.1667  133.7103  156.8111 H   0  0  0  0  0  0  0  0  0  0  0  0  # atno 11005 bound_to 11000
  145.9160  140.9148  143.0429 LP  0  0  0  0  0  0  0  0  0  0  0  0  # atno 17320 bound_to 7965
  144.6726  140.1225  143.7449 LP  0  0  0  0  0  0  0  0  0  0  0  0  # atno 17321 bound_to 7965
  140.6846  143.8003  150.7168 LP  0  0  0  0  0  0  0  0  0  0  0  0  # atno 17342 bound_to 10162
  140.1467  143.4394  152.2158 LP  0  0  0  0  0  0  0  0  0  0  0  0  # atno 17343 bound_to 10162
  156.1783  130.6482  151.0921 LP  0  0  0  0  0  0  0  0  0  0  0  0  # atno 17370 bound_to 10713
  157.7001  131.0779  150.6846 LP  0  0  0  0  0  0  0  0  0  0  0  0  # atno 17371 bound_to 10713
  140.2187  134.8773  157.3353 LP  0  0  0  0  0  0  0  0  0  0  0  0  # atno 17394 bound_to 11000
  140.2011  134.4254  155.7662 LP  0  0  0  0  0  0  0  0  0  0  0  0  # atno 17395 bound_to 11000

$$$$
