AV-unprocessed.smi:2724|AV-procd|sdf|10507|dock3
  -GOLD-   2272014553D 1   1.00000     0.00000
 Structure written by MMmdl.
 25 26  0  0  0  0  0  0  0  0  1 V2000
  151.1911  143.6768  162.0848 O   0  0  0  0  0  0  0  0  0  0  0  0
  152.0355  144.0600  161.0193 C   0  0  2  0  0  0  0  0  0  0  0  0
  151.5342  145.3360  160.3448 C   0  0  0  0  0  0  0  0  0  0  0  0
  152.1882  145.3056  158.9641 C   0  0  0  0  0  0  0  0  0  0  0  0
  152.3185  143.8203  158.5965 C   0  0  0  0  0  0  0  0  0  0  0  0
  152.0493  143.0197  159.8871 C   0  0  1  0  0  0  0  0  0  0  0  0
  153.0335  141.8783  160.1089 C   0  0  0  0  0  0  0  0  0  0  0  0
  153.6324  141.6529  161.3677 C   0  0  0  0  0  0  0  0  0  0  0  0
  154.5341  140.5814  161.5118 C   0  0  0  0  0  0  0  0  0  0  0  0
  154.8016  139.7748  160.3881 C   0  0  0  0  0  0  0  0  0  0  0  0
  154.2365  139.9784  159.1790 N   0  0  0  0  0  0  0  0  0  0  0  0
  153.3734  141.0090  159.0497 C   0  0  0  0  0  0  0  0  0  0  0  0
  151.4718  144.1285  162.8660 H   0  0  0  0  0  0  0  0  0  0  0  0
  153.0419  144.2395  161.3988 H   0  0  0  0  0  0  0  0  0  0  0  0
  150.4495  145.3007  160.2313 H   0  0  0  0  0  0  0  0  0  0  0  0
  151.7815  146.2363  160.9081 H   0  0  0  0  0  0  0  0  0  0  0  0
  151.6183  145.8691  158.2249 H   0  0  0  0  0  0  0  0  0  0  0  0
  153.1811  145.7531  159.0238 H   0  0  0  0  0  0  0  0  0  0  0  0
  151.6037  143.5394  157.8224 H   0  0  0  0  0  0  0  0  0  0  0  0
  153.3131  143.6321  158.1905 H   0  0  0  0  0  0  0  0  0  0  0  0
  151.0447  142.6013  159.7995 H   0  0  0  0  0  0  0  0  0  0  0  0
  153.4077  142.2899  162.2106 H   0  0  0  0  0  0  0  0  0  0  0  0
  155.0099  140.3828  162.4606 H   0  0  0  0  0  0  0  0  0  0  0  0
  155.4885  138.9448  160.4628 H   0  0  0  0  0  0  0  0  0  0  0  0
  152.9423  141.1413  158.0681 H   0  0  0  0  0  0  0  0  0  0  0  0
  1  2  1  0  0  0  0
  1 13  1  0  0  0  0
  2  6  1  0  0  0  0
  2  3  1  0  0  0  0
  2 14  1  0  0  0  0
  3  4  1  0  0  0  0
  3 15  1  0  0  0  0
  3 16  1  0  0  0  0
  4  5  1  0  0  0  0
  4 17  1  0  0  0  0
  4 18  1  0  0  0  0
  5  6  1  0  0  0  0
  5 19  1  0  0  0  0
  5 20  1  0  0  0  0
  6  7  1  0  0  0  0
  6 21  1  0  0  0  0
  7 12  1  0  0  0  0
  7  8  2  0  0  0  0
  8  9  1  0  0  0  0
  8 22  1  0  0  0  0
  9 10  2  0  0  0  0
  9 23  1  0  0  0  0
 10 11  1  0  0  0  0
 10 24  1  0  0  0  0
 11 12  2  0  0  0  0
 12 25  1  0  0  0  0
M  END
> <s_m_source_file>
AV-unprocessed.smi

> <i_m_source_file_index>
2724

> <i_lp_mmshare_version>
43012

> <i_f3d_flags>
0

> <s_epik_input>
W09IXVtDQEBIXTFbQ0gyXVtDSDJdW0NIMl1bQ0BIXTFjMltjSF1bY0hdW2NIXW5bY0hdMg==

> <s_epik_cmdline>
J2VwaWtfcHl0aG9uJywgJy1waCcsICc3LjAnLCAnLXRuJywgJzgnLCAnLW1hJywgJzIwMCcsICctbWV0YWxfYmluZGluZycsICctaW1hZScsICc8aW5maWxlLm1hZT4nLCAnLW9tYWUnLCAnPG91dGZpbGUubWFlPic=

> <r_epik_Ionization_Penalty>
0.0175299

> <r_epik_Ionization_Penalty_Charging>
0

> <r_epik_Ionization_Penalty_Neutral>
0.0175299

> <r_epik_State_Penalty>
0.0138989

> <r_epik_Charging_Adjusted_Penalty>
0.0138989

> <i_epik_Tot_Q>
0

> <i_epik_Tot_abs_Q>
0

> <r_epik_Metal_State_Penalty>
1.40631e-05

> <b_epik_Metal_Only>
0

> <s_lp_Force_Field>
OPLS_2005

> <r_lp_Energy>
19.5065

> <b_lp_Chiralities_Consistent>
1

> <s_lp_Variant>
AV-unprocessed.smi:2724-1

> <Gold.Version>
5.8.1

> <Gold.Id.Protein>
6NUR|6NUR_protein|mol2

> <Gold.PLP.Fitness>
40.6714

> <Gold.PLP.PLP>
-37.8064

> <Gold.PLP.part.hbond>
-3.7659

> <Gold.PLP.part.metal>
0.0000

> <Gold.PLP.part.buried>
-4.1387

> <Gold.PLP.part.nonpolar>
-31.0982

> <Gold.PLP.part.repulsive>
0.0000

> <Gold.PLP.ligand.clash>
0.0000

> <Gold.PLP.ligand.torsion>
0.3352

> <Gold.PLP.Chemscore.Hbond>
1.1783

> <Gold.PLP.Chemscore.CHOScore>
0.0000

> <Gold.PLP.Chemscore.Metal>
0.0000

> <Gold.Chemscore.Hbonds>
donor molecule, donor type, donor heavy atom, donor atom, acceptor molecule, acceptor atom, score
      P1  H  6933  6945       L1     1  0.28
      P1  H  7997  8008       L1    11  0.95

> <Gold.PLP.Chemscore.Internal.Correction>
0.0005

> <Gold.Rescore>
     Score         DG    S(hbond)    S(metal)    S(lipo)     H(rot)  DE(clash)    DE(int)     intcor
     16.24     -18.63       1.32        0.00     103.45       1.32       1.92       0.46       ----

> <Gold.Chemscore.Fitness>
16.2435

> <Gold.Chemscore.DG>
-18.6314

> <Gold.Chemscore.ZeroCoef>
-5.4800

> <Gold.Chemscore.Hbond>
1.3248

> <Gold.Chemscore.Metal>
0.0000

> <Gold.Chemscore.Lipo>
103.4511

> <Gold.Chemscore.Internal_Hbond>
0.0000

> <Gold.Chemscore.DEClash>
1.9240

> <Gold.Chemscore.DEInternal>
0.4638

> <Gold.Chemscore.Rot>
1.3192

> <Gold.Chemscore.Internal.Correction>
   9.000000E+99

> <Gold.Chemscore.Hbonds>
donor molecule, donor type, donor heavy atom, donor atom, acceptor molecule, acceptor atom, score
      P1  H  6933  6945       L1     1  0.26
      P1  H  7997  8008       L1    11  0.19

> <Gold.Chemscore.Hbond.Weighted>
-4.4247

> <Gold.Chemscore.Metal.Weighted>
-0.0000

> <Gold.Chemscore.Lipo.Weighted>
-12.1038

> <Gold.Chemscore.Internal_Hbond.Weighted>
0.0000

> <Gold.Chemscore.DEClash.Weighted>
1.9240

> <Gold.Chemscore.DEInternal.Weighted>
0.4638

> <Gold.Chemscore.Rot.Weighted>
3.3772

> <Gold.Chemscore.Internal.Correction.Weighted>
   9.000000E+99

> <Gold.Protein.RotatedTorsions>
[ 6907 6896 6895 6894 ] final  138.45 input  -60.11 | X-H torsion
[ 7974 7965 7964 7962 ] final  -48.87 input  175.53 | X-H torsion
[ 8008 7997 7996 7995 ] final -119.71 input   59.86 | X-H torsion
[ 10167 10162 10161 10158 ] final -151.58 input  -65.29 | X-H torsion
[ 10718 10713 10712 10709 ] final   48.35 input   66.30 | X-H torsion
[ 10763 10752 10751 10750 ] final  110.31 input  -60.55 | X-H torsion
[ 11005 11000 10999 10996 ] final    5.45 input  -57.11 | X-H torsion

> <Gold.Protein.ActiveResidues>
 VAL166  LYS551  ARG553  GLY616  TRP617  ASP618  TYR619  PRO620  LYS621  CYS622 
 ASP623  PHE694  ASN695  SER759  ASP760  ASP761  ALA762  ILE779  LEU786  VAL792 
 PHE793  MET794  SER795  GLU796  ALA797  LYS798  CYS799  TRP800  GLU811  SER814 

> <Gold.Protein.RotatedAtoms>
  152.2664  133.5343  159.5412 H   0  0  0  0  0  0  0  0  0  0  0  0  # atno 6907 bound_to 6896
  150.7143  134.0759  159.3889 H   0  0  0  0  0  0  0  0  0  0  0  0  # atno 6908 bound_to 6896
  151.8675  135.0502  160.0526 H   0  0  0  0  0  0  0  0  0  0  0  0  # atno 6909 bound_to 6896
  145.9466  140.7612  142.9525 H   0  0  0  0  0  0  0  0  0  0  0  0  # atno 7974 bound_to 7965
  155.1200  140.0398  157.2747 H   0  0  0  0  0  0  0  0  0  0  0  0  # atno 8008 bound_to 7997
  154.6620  140.2593  155.7072 H   0  0  0  0  0  0  0  0  0  0  0  0  # atno 8009 bound_to 7997
  156.2623  140.2815  156.1096 H   0  0  0  0  0  0  0  0  0  0  0  0  # atno 8010 bound_to 7997
  139.7255  143.8890  152.2517 H   0  0  0  0  0  0  0  0  0  0  0  0  # atno 10167 bound_to 10162
  157.4678  130.8236  149.7955 H   0  0  0  0  0  0  0  0  0  0  0  0  # atno 10718 bound_to 10713
  153.4471  135.3752  155.2262 H   0  0  0  0  0  0  0  0  0  0  0  0  # atno 10763 bound_to 10752
  154.8755  135.3877  154.4083 H   0  0  0  0  0  0  0  0  0  0  0  0  # atno 10764 bound_to 10752
  153.4637  135.7087  153.6098 H   0  0  0  0  0  0  0  0  0  0  0  0  # atno 10765 bound_to 10752
  140.5705  134.0106  155.8007 H   0  0  0  0  0  0  0  0  0  0  0  0  # atno 11005 bound_to 11000
  144.6788  140.2366  143.7349 LP  0  0  0  0  0  0  0  0  0  0  0  0  # atno 17320 bound_to 7965
  145.8228  139.2051  143.1928 LP  0  0  0  0  0  0  0  0  0  0  0  0  # atno 17321 bound_to 7965
  139.8798  144.7023  150.8890 LP  0  0  0  0  0  0  0  0  0  0  0  0  # atno 17342 bound_to 10162
  140.7762  143.3670  151.1720 LP  0  0  0  0  0  0  0  0  0  0  0  0  # atno 17343 bound_to 10162
  156.0059  130.3856  150.2435 LP  0  0  0  0  0  0  0  0  0  0  0  0  # atno 17370 bound_to 10713
  157.0616  131.0091  151.3221 LP  0  0  0  0  0  0  0  0  0  0  0  0  # atno 17371 bound_to 10713
  141.1059  133.9695  157.2998 LP  0  0  0  0  0  0  0  0  0  0  0  0  # atno 17394 bound_to 11000
  139.9364  135.0196  156.8568 LP  0  0  0  0  0  0  0  0  0  0  0  0  # atno 17395 bound_to 11000

$$$$
