AV-unprocessed.smi:2004|AV-procd|sdf|8122|dock9
  -GOLD-   2272010353D 1   1.00000     0.00000
 Structure written by MMmdl.
 39 41  0  0  0  0  0  0  0  0  1 V2000
  151.2813  140.0640  154.8645 O   0  0  0  0  0  0  0  0  0  0  0  0
  150.4746  141.0130  155.5348 C   0  0  1  0  0  0  0  0  0  0  0  0
  149.2292  141.2835  154.6771 C   0  0  0  0  0  0  0  0  0  0  0  0
  148.3544  140.1719  154.7759 O   0  0  0  0  0  0  0  0  0  0  0  0
  147.1631  140.3377  154.0243 C   0  0  0  0  0  0  0  0  0  0  0  0
  146.4029  141.5806  154.4450 C   0  0  0  0  0  0  0  0  0  0  0  0
  145.7763  141.6333  155.7083 C   0  0  0  0  0  0  0  0  0  0  0  0
  145.0576  142.7813  156.0953 C   0  0  0  0  0  0  0  0  0  0  0  0
  144.9580  143.8792  155.2189 C   0  0  0  0  0  0  0  0  0  0  0  0
  145.5748  143.8272  153.9538 C   0  0  0  0  0  0  0  0  0  0  0  0
  146.2935  142.6792  153.5662 C   0  0  0  0  0  0  0  0  0  0  0  0
  150.1076  140.4626  156.9267 C   0  0  0  0  0  0  0  0  0  0  0  0
  151.0795  140.8285  157.9415 N   0  0  0  0  0  0  0  0  0  0  0  0
  151.7135  140.0036  158.7975 C   0  0  0  0  0  0  0  0  0  0  0  0
  152.5723  140.5543  159.6510 N   0  0  0  0  0  0  0  0  0  0  0  0
  152.4857  141.8932  159.3092 C   0  0  0  0  0  0  0  0  0  0  0  0
  153.1515  143.0207  159.8413 C   0  0  0  0  0  0  0  0  0  0  0  0
  152.8988  144.3091  159.3252 C   0  0  0  0  0  0  0  0  0  0  0  0
  151.9791  144.4901  158.2716 C   0  0  0  0  0  0  0  0  0  0  0  0
  151.3035  143.3820  157.7253 C   0  0  0  0  0  0  0  0  0  0  0  0
  151.5585  142.0983  158.2431 C   0  0  0  0  0  0  0  0  0  0  0  0
  151.2599  139.2561  155.3549 H   0  0  0  0  0  0  0  0  0  0  0  0
  151.0416  141.9370  155.6562 H   0  0  0  0  0  0  0  0  0  0  0  0
  148.7358  142.2098  154.9777 H   0  0  0  0  0  0  0  0  0  0  0  0
  149.5204  141.3964  153.6315 H   0  0  0  0  0  0  0  0  0  0  0  0
  147.4055  140.3971  152.9619 H   0  0  0  0  0  0  0  0  0  0  0  0
  146.5110  139.4740  154.1618 H   0  0  0  0  0  0  0  0  0  0  0  0
  145.8461  140.7934  156.3842 H   0  0  0  0  0  0  0  0  0  0  0  0
  144.5819  142.8189  157.0643 H   0  0  0  0  0  0  0  0  0  0  0  0
  144.4068  144.7595  155.5151 H   0  0  0  0  0  0  0  0  0  0  0  0
  145.4958  144.6675  153.2798 H   0  0  0  0  0  0  0  0  0  0  0  0
  146.7612  142.6470  152.5930 H   0  0  0  0  0  0  0  0  0  0  0  0
  149.1346  140.8436  157.2389 H   0  0  0  0  0  0  0  0  0  0  0  0
  150.0223  139.3751  156.8978 H   0  0  0  0  0  0  0  0  0  0  0  0
  151.5366  138.9379  158.7913 H   0  0  0  0  0  0  0  0  0  0  0  0
  153.8582  142.8936  160.6480 H   0  0  0  0  0  0  0  0  0  0  0  0
  153.4139  145.1632  159.7397 H   0  0  0  0  0  0  0  0  0  0  0  0
  151.7929  145.4807  157.8828 H   0  0  0  0  0  0  0  0  0  0  0  0
  150.5990  143.5160  156.9180 H   0  0  0  0  0  0  0  0  0  0  0  0
  1  2  1  0  0  0  0
  1 22  1  0  0  0  0
  2  3  1  0  0  0  0
  2 12  1  0  0  0  0
  2 23  1  0  0  0  0
  3  4  1  0  0  0  0
  3 24  1  0  0  0  0
  3 25  1  0  0  0  0
  4  5  1  0  0  0  0
  5  6  1  0  0  0  0
  5 26  1  0  0  0  0
  5 27  1  0  0  0  0
  6 11  1  0  0  0  0
  6  7  2  0  0  0  0
  7  8  1  0  0  0  0
  7 28  1  0  0  0  0
  8  9  2  0  0  0  0
  8 29  1  0  0  0  0
  9 10  1  0  0  0  0
  9 30  1  0  0  0  0
 10 11  2  0  0  0  0
 10 31  1  0  0  0  0
 11 32  1  0  0  0  0
 12 13  1  0  0  0  0
 12 33  1  0  0  0  0
 12 34  1  0  0  0  0
 13 21  1  0  0  0  0
 13 14  1  0  0  0  0
 14 15  2  0  0  0  0
 14 35  1  0  0  0  0
 15 16  1  0  0  0  0
 16 21  2  0  0  0  0
 16 17  1  0  0  0  0
 17 18  2  0  0  0  0
 17 36  1  0  0  0  0
 18 19  1  0  0  0  0
 18 37  1  0  0  0  0
 19 20  2  0  0  0  0
 19 38  1  0  0  0  0
 20 21  1  0  0  0  0
 20 39  1  0  0  0  0
M  END
> <s_m_source_file>
AV-unprocessed.smi

> <i_m_source_file_index>
2004

> <i_lp_mmshare_version>
43012

> <i_f3d_flags>
0

> <s_epik_input>
W2NIXTFbY0hdW2NIXVtjSF1jKGMxMiluKFtjSF1uMilbQ0gyXVtDQEhdKFtPSF0pW0NIMl1PW0NIMl1jM1tjSF1bY0hdW2NIXVtjSF1bY0hdMw==

> <s_epik_cmdline>
J2VwaWtfcHl0aG9uJywgJy1waCcsICc3LjAnLCAnLXRuJywgJzgnLCAnLW1hJywgJzIwMCcsICctbWV0YWxfYmluZGluZycsICctaW1hZScsICc8aW5maWxlLm1hZT4nLCAnLW9tYWUnLCAnPG91dGZpbGUubWFlPic=

> <r_epik_Ionization_Penalty>
0.0713119

> <r_epik_Ionization_Penalty_Charging>
0

> <r_epik_Ionization_Penalty_Neutral>
0.0713119

> <r_epik_State_Penalty>
0.06259

> <r_epik_Charging_Adjusted_Penalty>
0.06259

> <i_epik_Tot_Q>
0

> <i_epik_Tot_abs_Q>
0

> <r_epik_Metal_State_Penalty>
6.60119e-05

> <b_epik_Metal_Only>
0

> <s_lp_Force_Field>
OPLS_2005

> <r_lp_Energy>
14.5219

> <b_lp_Chiralities_Consistent>
1

> <s_lp_Variant>
AV-unprocessed.smi:2004-2

> <Gold.Version>
5.8.1

> <Gold.Id.Protein>
6NUR|6NUR_protein|mol2

> <Gold.PLP.Fitness>
47.8205

> <Gold.PLP.PLP>
-45.8607

> <Gold.PLP.part.hbond>
-1.0000

> <Gold.PLP.part.metal>
0.0000

> <Gold.PLP.part.buried>
-7.6100

> <Gold.PLP.part.nonpolar>
-37.3736

> <Gold.PLP.part.repulsive>
0.0779

> <Gold.PLP.ligand.clash>
0.0000

> <Gold.PLP.ligand.torsion>
0.5976

> <Gold.PLP.Chemscore.Hbond>
1.0000

> <Gold.PLP.Chemscore.CHOScore>
0.0000

> <Gold.PLP.Chemscore.Metal>
0.0000

> <Gold.Chemscore.Hbonds>
donor molecule, donor type, donor heavy atom, donor atom, acceptor molecule, acceptor atom, score
      P1  H  7989  7998       L1     1  1.00

> <Gold.PLP.Chemscore.Internal.Correction>
0.1550

> <Gold.Rescore>
     Score         DG    S(hbond)    S(metal)    S(lipo)     H(rot)  DE(clash)    DE(int)     intcor
     15.85     -16.47       0.81        0.00     121.72       2.33       0.06       0.56       ----

> <Gold.Chemscore.Fitness>
15.8475

> <Gold.Chemscore.DG>
-16.4669

> <Gold.Chemscore.ZeroCoef>
-5.4800

> <Gold.Chemscore.Hbond>
0.8104

> <Gold.Chemscore.Metal>
0.0000

> <Gold.Chemscore.Lipo>
121.7237

> <Gold.Chemscore.Internal_Hbond>
0.0000

> <Gold.Chemscore.DEClash>
0.0608

> <Gold.Chemscore.DEInternal>
0.5587

> <Gold.Chemscore.Rot>
2.3288

> <Gold.Chemscore.Internal.Correction>
   9.000000E+99

> <Gold.Chemscore.Hbonds>
donor molecule, donor type, donor heavy atom, donor atom, acceptor molecule, acceptor atom, score
      P1  H  7989  7998       L1     1  0.30

> <Gold.Chemscore.Hbond.Weighted>
-2.7069

> <Gold.Chemscore.Metal.Weighted>
-0.0000

> <Gold.Chemscore.Lipo.Weighted>
-14.2417

> <Gold.Chemscore.Internal_Hbond.Weighted>
0.0000

> <Gold.Chemscore.DEClash.Weighted>
0.0608

> <Gold.Chemscore.DEInternal.Weighted>
0.5587

> <Gold.Chemscore.Rot.Weighted>
5.9616

> <Gold.Chemscore.Internal.Correction.Weighted>
   9.000000E+99

> <Gold.Protein.RotatedTorsions>
[ 6907 6896 6895 6894 ] final   98.16 input  -60.11 | X-H torsion
[ 7974 7965 7964 7962 ] final  165.56 input  175.53 | X-H torsion
[ 8008 7997 7996 7995 ] final   -5.48 input   59.86 | X-H torsion
[ 10167 10162 10161 10158 ] final -100.50 input  -65.29 | X-H torsion
[ 10718 10713 10712 10709 ] final  -13.97 input   66.30 | X-H torsion
[ 10763 10752 10751 10750 ] final   19.38 input  -60.55 | X-H torsion
[ 11005 11000 10999 10996 ] final  140.28 input  -57.11 | X-H torsion

> <Gold.Protein.ActiveResidues>
 VAL166  LYS551  ARG553  GLY616  TRP617  ASP618  TYR619  PRO620  LYS621  CYS622 
 ASP623  PHE694  ASN695  SER759  ASP760  ASP761  ALA762  ILE779  LEU786  VAL792 
 PHE793  MET794  SER795  GLU796  ALA797  LYS798  CYS799  TRP800  GLU811  SER814 

> <Gold.Protein.RotatedAtoms>
  152.5413  134.0623  159.8157 H   0  0  0  0  0  0  0  0  0  0  0  0  # atno 6907 bound_to 6896
  151.0749  133.5429  159.2632 H   0  0  0  0  0  0  0  0  0  0  0  0  # atno 6908 bound_to 6896
  151.2278  135.0551  159.9029 H   0  0  0  0  0  0  0  0  0  0  0  0  # atno 6909 bound_to 6896
  144.7497  139.8488  143.6370 H   0  0  0  0  0  0  0  0  0  0  0  0  # atno 7974 bound_to 7965
  154.6035  140.2457  155.7761 H   0  0  0  0  0  0  0  0  0  0  0  0  # atno 8008 bound_to 7997
  156.2326  140.2961  156.0179 H   0  0  0  0  0  0  0  0  0  0  0  0  # atno 8009 bound_to 7997
  155.2171  140.0399  157.2933 H   0  0  0  0  0  0  0  0  0  0  0  0  # atno 8010 bound_to 7997
  140.2513  143.3471  152.0712 H   0  0  0  0  0  0  0  0  0  0  0  0  # atno 10167 bound_to 10162
  156.6226  130.4879  149.6159 H   0  0  0  0  0  0  0  0  0  0  0  0  # atno 10718 bound_to 10713
  153.1167  135.6709  153.9405 H   0  0  0  0  0  0  0  0  0  0  0  0  # atno 10763 bound_to 10752
  153.8933  135.3044  155.3449 H   0  0  0  0  0  0  0  0  0  0  0  0  # atno 10764 bound_to 10752
  154.7583  135.5001  153.9494 H   0  0  0  0  0  0  0  0  0  0  0  0  # atno 10765 bound_to 10752
  140.0316  134.9349  157.0673 H   0  0  0  0  0  0  0  0  0  0  0  0  # atno 11005 bound_to 11000
  146.1430  139.4492  143.0096 LP  0  0  0  0  0  0  0  0  0  0  0  0  # atno 17320 bound_to 7965
  145.6988  141.0142  143.1515 LP  0  0  0  0  0  0  0  0  0  0  0  0  # atno 17321 bound_to 7965
  139.5045  144.6777  151.6086 LP  0  0  0  0  0  0  0  0  0  0  0  0  # atno 17342 bound_to 10162
  140.6038  143.9561  150.6405 LP  0  0  0  0  0  0  0  0  0  0  0  0  # atno 17343 bound_to 10162
  156.2299  130.6788  151.1453 LP  0  0  0  0  0  0  0  0  0  0  0  0  # atno 17370 bound_to 10713
  157.7223  131.0673  150.6082 LP  0  0  0  0  0  0  0  0  0  0  0  0  # atno 17371 bound_to 10713
  140.4216  134.1874  155.7164 LP  0  0  0  0  0  0  0  0  0  0  0  0  # atno 17394 bound_to 11000
  141.1834  133.8365  157.1176 LP  0  0  0  0  0  0  0  0  0  0  0  0  # atno 17395 bound_to 11000

$$$$
