AV-unprocessed.smi:22|AV-procd|sdf|171|dock1
  -GOLD-   2262015423D 1   1.00000     0.00000
 Structure written by MMmdl.
 56 59  0  0  0  0  0  0  0  0  2 V2000
  143.5098  132.1874  151.0966 C   0  0  0  0  0  0  0  0  0  0  0  0
  143.4418  133.6408  150.7896 N   0  3  2  0  0  0  0  0  0  0  0  0
  144.1681  133.9829  149.5291 C   0  0  0  0  0  0  0  0  0  0  0  0
  143.5452  133.3755  148.2573 C   0  0  0  0  0  0  0  0  0  0  0  0
  143.8596  134.1668  147.1305 O   0  0  0  0  0  0  0  0  0  0  0  0
  143.7990  134.4696  151.9883 C   0  0  0  0  0  0  0  0  0  0  0  0
  144.1253  135.9207  151.5606 C   0  0  0  0  0  0  0  0  0  0  0  0
  144.4694  136.8100  152.7655 C   0  0  0  0  0  0  0  0  0  0  0  0
  145.5636  136.2326  153.5438 N   0  0  0  0  0  0  0  0  0  0  0  0
  146.1751  137.0307  154.4558 C   0  0  0  0  0  0  0  0  0  0  0  0
  146.1269  136.7130  155.7774 N   0  0  0  0  0  0  0  0  0  0  0  0
  146.7390  137.4851  156.6800 C   0  0  0  0  0  0  0  0  0  0  0  0
  147.4401  138.6029  156.4831 N   0  0  0  0  0  0  0  0  0  0  0  0
  147.4831  138.9341  155.1609 C   0  0  0  0  0  0  0  0  0  0  0  0
  146.8859  138.2089  154.0912 C   0  0  0  0  0  0  0  0  0  0  0  0
  147.1374  138.8522  152.8852 N   0  0  0  0  0  0  0  0  0  0  0  0
  147.8495  139.8929  153.2219 C   0  0  0  0  0  0  0  0  0  0  0  0
  148.0976  140.0246  154.5698 N   0  0  0  0  0  0  0  0  0  0  0  0
  148.8595  141.0831  155.2161 C   0  0  0  0  0  0  0  0  0  0  0  0
  150.1911  140.5988  155.8366 C   0  0  2  0  0  0  0  0  0  0  0  0
  150.9821  140.0040  154.8215 O   0  0  0  0  0  0  0  0  0  0  0  0
  149.9904  139.5753  156.9473 C   0  0  0  0  0  0  0  0  0  0  0  0
  151.2108  139.7953  157.8308 C   0  0  0  0  0  0  0  0  0  0  0  0
  151.3597  141.2050  157.8209 O   0  0  0  0  0  0  0  0  0  0  0  0
  151.0262  141.6980  156.5262 C   0  0  0  0  0  0  0  0  0  0  0  0
  145.3285  134.8656  154.0001 C   0  0  0  0  0  0  0  0  0  0  0  0
  144.9968  133.9393  152.8186 C   0  0  0  0  0  0  0  0  0  0  0  0
  144.5451  131.8462  151.1336 H   0  0  0  0  0  0  0  0  0  0  0  0
  142.9788  131.5972  150.3511 H   0  0  0  0  0  0  0  0  0  0  0  0
  143.0503  131.9432  152.0527 H   0  0  0  0  0  0  0  0  0  0  0  0
  144.1791  135.0611  149.3747 H   0  0  0  0  0  0  0  0  0  0  0  0
  145.2076  133.6639  149.6182 H   0  0  0  0  0  0  0  0  0  0  0  0
  143.9527  132.3778  148.0922 H   0  0  0  0  0  0  0  0  0  0  0  0
  142.4663  133.2498  148.3387 H   0  0  0  0  0  0  0  0  0  0  0  0
  144.4451  134.8587  147.3994 H   0  0  0  0  0  0  0  0  0  0  0  0
  142.9332  134.4832  152.6529 H   0  0  0  0  0  0  0  0  0  0  0  0
  144.9666  135.9155  150.8658 H   0  0  0  0  0  0  0  0  0  0  0  0
  143.2945  136.3783  151.0262 H   0  0  0  0  0  0  0  0  0  0  0  0
  144.7476  137.8044  152.4127 H   0  0  0  0  0  0  0  0  0  0  0  0
  143.5922  136.9272  153.4037 H   0  0  0  0  0  0  0  0  0  0  0  0
  146.6564  137.1598  157.7066 H   0  0  0  0  0  0  0  0  0  0  0  0
  148.2115  140.6022  152.4917 H   0  0  0  0  0  0  0  0  0  0  0  0
  149.0515  141.8636  154.4788 H   0  0  0  0  0  0  0  0  0  0  0  0
  148.2296  141.5372  155.9823 H   0  0  0  0  0  0  0  0  0  0  0  0
  151.2603  139.1519  155.1207 H   0  0  0  0  0  0  0  0  0  0  0  0
  149.0918  139.8088  157.5203 H   0  0  0  0  0  0  0  0  0  0  0  0
  149.8980  138.5491  156.5889 H   0  0  0  0  0  0  0  0  0  0  0  0
  151.0771  139.4119  158.8423 H   0  0  0  0  0  0  0  0  0  0  0  0
  152.0976  139.3297  157.3981 H   0  0  0  0  0  0  0  0  0  0  0  0
  151.9329  141.9401  155.9698 H   0  0  0  0  0  0  0  0  0  0  0  0
  150.4673  142.6238  156.6557 H   0  0  0  0  0  0  0  0  0  0  0  0
  146.1930  134.4712  154.5333 H   0  0  0  0  0  0  0  0  0  0  0  0
  144.5010  134.8710  154.7107 H   0  0  0  0  0  0  0  0  0  0  0  0
  144.7828  132.9512  153.2262 H   0  0  0  0  0  0  0  0  0  0  0  0
  145.8792  133.8410  152.1843 H   0  0  0  0  0  0  0  0  0  0  0  0
  142.4715  133.8475  150.5986 H   0  0  0  0  0  0  0  0  0  0  0  0
  1  2  1  0  0  0  0
  1 28  1  0  0  0  0
  1 29  1  0  0  0  0
  1 30  1  0  0  0  0
  2  3  1  0  0  0  0
  2  6  1  0  0  0  0
  2 56  1  0  0  0  0
  3  4  1  0  0  0  0
  3 31  1  0  0  0  0
  3 32  1  0  0  0  0
  4  5  1  0  0  0  0
  4 33  1  0  0  0  0
  4 34  1  0  0  0  0
  5 35  1  0  0  0  0
  6 27  1  0  0  0  0
  6  7  1  0  0  0  0
  6 36  1  0  0  0  0
  7  8  1  0  0  0  0
  7 37  1  0  0  0  0
  7 38  1  0  0  0  0
  8  9  1  0  0  0  0
  8 39  1  0  0  0  0
  8 40  1  0  0  0  0
  9 10  1  0  0  0  0
  9 26  1  0  0  0  0
 10 15  1  0  0  0  0
 10 11  2  0  0  0  0
 11 12  1  0  0  0  0
 12 13  2  0  0  0  0
 12 41  1  0  0  0  0
 13 14  1  0  0  0  0
 14 18  1  0  0  0  0
 14 15  2  0  0  0  0
 15 16  1  0  0  0  0
 16 17  2  0  0  0  0
 17 18  1  0  0  0  0
 17 42  1  0  0  0  0
 18 19  1  0  0  0  0
 19 20  1  0  0  0  0
 19 43  1  0  0  0  0
 19 44  1  0  0  0  0
 20 25  1  0  0  0  0
 20 21  1  0  0  0  0
 20 22  1  0  0  0  0
 21 45  1  0  0  0  0
 22 23  1  0  0  0  0
 22 46  1  0  0  0  0
 22 47  1  0  0  0  0
 23 24  1  0  0  0  0
 23 48  1  0  0  0  0
 23 49  1  0  0  0  0
 24 25  1  0  0  0  0
 25 50  1  0  0  0  0
 25 51  1  0  0  0  0
 26 27  1  0  0  0  0
 26 52  1  0  0  0  0
 26 53  1  0  0  0  0
 27 54  1  0  0  0  0
 27 55  1  0  0  0  0
M  CHG  1   2   1
M  END
> <s_m_source_file>
AV-unprocessed.smi

> <i_m_source_file_index>
22

> <i_lp_mmshare_version>
43012

> <i_f3d_flags>
0

> <s_epik_input>
W09IXVtDSDJdW0NIMl1OKFtDSDNdKVtDSF0xW0NIMl1bQ0gyXU4oW0NIMl1bQ0gyXTEpYyhuW2NIXW4yKWMoYzIzKW5bY0hdbjNbQ0gyXVtDQEBdNChbT0hdKVtDSDJdW0NIMl1PW0NIMl00

> <s_epik_cmdline>
J2VwaWtfcHl0aG9uJywgJy1waCcsICc3LjAnLCAnLXRuJywgJzgnLCAnLW1hJywgJzIwMCcsICctbWV0YWxfYmluZGluZycsICctaW1hZScsICc8aW5maWxlLm1hZT4nLCAnLW9tYWUnLCAnPG91dGZpbGUubWFlPic=

> <r_lp_tautomer_probability>
1

> <r_epik_Ionization_Penalty>
0.00317524

> <r_epik_Ionization_Penalty_Charging>
0.00191487

> <r_epik_Ionization_Penalty_Neutral>
0.00126037

> <r_epik_State_Penalty>
-0

> <r_epik_Charging_Adjusted_Penalty>
0.00191487

> <i_epik_Tot_Q>
1

> <i_epik_Tot_abs_Q>
1

> <r_epik_Metal_State_Penalty>
-0

> <b_epik_Metal_Only>
0

> <s_lp_Force_Field>
OPLS_2005

> <r_lp_Energy>
48.0385

> <b_lp_Chiralities_Consistent>
1

> <s_lp_Variant>
AV-unprocessed.smi:22-3

> <Gold.Version>
5.8.1

> <Gold.Id.Protein>
6NUR|6NUR_protein|mol2

> <Gold.PLP.Fitness>
47.6082

> <Gold.PLP.PLP>
-31.3871

> <Gold.PLP.part.hbond>
-5.6509

> <Gold.PLP.part.metal>
0.0000

> <Gold.PLP.part.buried>
0.8649

> <Gold.PLP.part.nonpolar>
-27.1877

> <Gold.PLP.part.repulsive>
0.3692

> <Gold.PLP.ligand.clash>
0.0000

> <Gold.PLP.ligand.torsion>
1.0408

> <Gold.PLP.Chemscore.Hbond>
5.2280

> <Gold.PLP.Chemscore.CHOScore>
0.7226

> <Gold.PLP.Chemscore.Metal>
0.0000

> <Gold.Chemscore.Hbonds>
donor molecule, donor type, donor heavy atom, donor atom, acceptor molecule, acceptor atom, score
      L1  H     2    56       P1 10186  2.00
      L1  H     5    35       P1  7921  0.58
      P1  H  7918  7932       L1     5  0.70
      P1  H  7989  7998       L1    21  1.00
      P1  H 10192 10197       L1     5  0.66
      L1  C    17    42       P1  7957  0.74

> <Gold.PLP.Chemscore.Internal.Correction>
0.4510

> <Gold.Rescore>
     Score         DG    S(hbond)    S(metal)    S(lipo)     H(rot)  DE(clash)    DE(int)     intcor
      8.86     -13.88       2.63        0.00      79.04       3.76       2.72       2.29       ----

> <Gold.Chemscore.Fitness>
8.8611

> <Gold.Chemscore.DG>
-13.8771

> <Gold.Chemscore.ZeroCoef>
-5.4800

> <Gold.Chemscore.Hbond>
2.6261

> <Gold.Chemscore.Metal>
0.0000

> <Gold.Chemscore.Lipo>
79.0359

> <Gold.Chemscore.Internal_Hbond>
0.0000

> <Gold.Chemscore.DEClash>
2.7244

> <Gold.Chemscore.DEInternal>
2.2916

> <Gold.Chemscore.Rot>
3.7583

> <Gold.Chemscore.Internal.Correction>
   9.000000E+99

> <Gold.Chemscore.Hbonds>
donor molecule, donor type, donor heavy atom, donor atom, acceptor molecule, acceptor atom, score
      L1  H     2    56       P1 10186  0.87
      L1  H     5    35       P1  7921  0.58
      P1  H  7918  7932       L1     5  0.05
      P1  H  7989  7998       L1    21  0.99
      P1  H 10192 10197       L1     5  0.02

> <Gold.Chemscore.Hbond.Weighted>
-8.7711

> <Gold.Chemscore.Metal.Weighted>
-0.0000

> <Gold.Chemscore.Lipo.Weighted>
-9.2472

> <Gold.Chemscore.Internal_Hbond.Weighted>
0.0000

> <Gold.Chemscore.DEClash.Weighted>
2.7244

> <Gold.Chemscore.DEInternal.Weighted>
2.2916

> <Gold.Chemscore.Rot.Weighted>
9.6213

> <Gold.Chemscore.Internal.Correction.Weighted>
   9.000000E+99

> <Gold.Protein.RotatedTorsions>
[ 6907 6896 6895 6894 ] final -156.53 input  -60.11 | X-H torsion
[ 7974 7965 7964 7962 ] final -165.27 input  175.53 | X-H torsion
[ 8008 7997 7996 7995 ] final -128.41 input   59.86 | X-H torsion
[ 10167 10162 10161 10158 ] final -137.60 input  -65.29 | X-H torsion
[ 10718 10713 10712 10709 ] final  -52.18 input   66.30 | X-H torsion
[ 10763 10752 10751 10750 ] final   52.67 input  -60.55 | X-H torsion
[ 11005 11000 10999 10996 ] final   56.80 input  -57.11 | X-H torsion

> <Gold.Protein.ActiveResidues>
 VAL166  LYS551  ARG553  GLY616  TRP617  ASP618  TYR619  PRO620  LYS621  CYS622 
 ASP623  PHE694  ASN695  SER759  ASP760  ASP761  ALA762  ILE779  LEU786  VAL792 
 PHE793  MET794  SER795  GLU796  ALA797  LYS798  CYS799  TRP800  GLU811  SER814 

> <Gold.Protein.RotatedAtoms>
  151.2890  133.4174  159.2631 H   0  0  0  0  0  0  0  0  0  0  0  0  # atno 6907 bound_to 6896
  151.0294  134.9528  159.8113 H   0  0  0  0  0  0  0  0  0  0  0  0  # atno 6908 bound_to 6896
  152.5342  134.2852  159.9075 H   0  0  0  0  0  0  0  0  0  0  0  0  # atno 6909 bound_to 6896
  144.7274  140.2839  143.6231 H   0  0  0  0  0  0  0  0  0  0  0  0  # atno 7974 bound_to 7965
  155.2622  140.0436  157.2998 H   0  0  0  0  0  0  0  0  0  0  0  0  # atno 8008 bound_to 7997
  154.5704  140.2372  155.8170 H   0  0  0  0  0  0  0  0  0  0  0  0  # atno 8009 bound_to 7997
  156.2118  140.2996  155.9756 H   0  0  0  0  0  0  0  0  0  0  0  0  # atno 8010 bound_to 7997
  139.8561  143.7136  152.2654 H   0  0  0  0  0  0  0  0  0  0  0  0  # atno 10167 bound_to 10162
  156.1644  130.4149  149.9742 H   0  0  0  0  0  0  0  0  0  0  0  0  # atno 10718 bound_to 10713
  152.9790  135.5804  154.4617 H   0  0  0  0  0  0  0  0  0  0  0  0  # atno 10763 bound_to 10752
  154.4192  135.2771  155.1989 H   0  0  0  0  0  0  0  0  0  0  0  0  # atno 10764 bound_to 10752
  154.3745  135.6160  153.5811 H   0  0  0  0  0  0  0  0  0  0  0  0  # atno 10765 bound_to 10752
  140.0501  134.5749  155.9274 H   0  0  0  0  0  0  0  0  0  0  0  0  # atno 11005 bound_to 11000
  145.7922  139.1931  143.2096 LP  0  0  0  0  0  0  0  0  0  0  0  0  # atno 17320 bound_to 7965
  146.0746  140.7831  142.9671 LP  0  0  0  0  0  0  0  0  0  0  0  0  # atno 17321 bound_to 7965
  139.7418  144.7557  151.0640 LP  0  0  0  0  0  0  0  0  0  0  0  0  # atno 17342 bound_to 10162
  140.7781  143.4963  150.9828 LP  0  0  0  0  0  0  0  0  0  0  0  0  # atno 17343 bound_to 10162
  156.7562  130.9134  151.3639 LP  0  0  0  0  0  0  0  0  0  0  0  0  # atno 17370 bound_to 10713
  157.6757  130.9092  150.0145 LP  0  0  0  0  0  0  0  0  0  0  0  0  # atno 17371 bound_to 10713
  141.1926  133.6576  156.5510 LP  0  0  0  0  0  0  0  0  0  0  0  0  # atno 17394 bound_to 11000
  140.3931  134.7423  157.4734 LP  0  0  0  0  0  0  0  0  0  0  0  0  # atno 17395 bound_to 11000

$$$$
