AV-unprocessed.smi:35|AV-procd|sdf|277|dock2
  -GOLD-   2262016 43D 1   1.00000     0.00000
 Structure written by MMmdl.
 28 29  0  0  0  0  0  0  0  0  2 V2000
  152.7665  140.7706  158.8873 O   0  0  0  0  0  0  0  0  0  0  0  0
  152.0764  140.7920  157.8698 C   0  0  0  0  0  0  0  0  0  0  0  0
  152.3001  139.9680  156.8054 N   0  5  0  0  0  0  0  0  0  0  0  0
  151.5284  139.9937  155.6791 C   0  0  0  0  0  0  0  0  0  0  0  0
  151.7142  139.2477  154.7175 O   0  0  0  0  0  0  0  0  0  0  0  0
  150.4483  140.9154  155.6045 N   0  0  0  0  0  0  0  0  0  0  0  0
  149.5942  140.9387  154.3516 C   0  0  2  0  0  0  0  0  0  0  0  0
  148.7170  142.0331  154.3924 O   0  0  0  0  0  0  0  0  0  0  0  0
  147.3542  141.6215  154.2789 C   0  0  2  0  0  0  0  0  0  0  0  0
  146.6942  141.6752  155.6735 C   0  0  0  0  0  0  0  0  0  0  0  0
  147.3057  142.6563  156.4850 O   0  0  0  0  0  0  0  0  0  0  0  0
  147.4522  140.2391  153.6195 C   0  0  2  0  0  0  0  0  0  0  0  0
  146.3264  139.3980  153.7892 O   0  0  0  0  0  0  0  0  0  0  0  0
  148.7475  139.6607  154.1684 C   0  0  2  0  0  0  0  0  0  0  0  0
  148.5548  138.9272  155.3681 O   0  0  0  0  0  0  0  0  0  0  0  0
  150.1994  141.7662  156.6685 C   0  0  0  0  0  0  0  0  0  0  0  0
  150.9639  141.7336  157.7784 C   0  0  0  0  0  0  0  0  0  0  0  0
  150.4895  143.0047  159.2228 Br  0  0  0  0  0  0  0  0  0  0  0  0
  150.2889  141.1105  153.5274 H   0  0  0  0  0  0  0  0  0  0  0  0
  146.8418  142.3229  153.6191 H   0  0  0  0  0  0  0  0  0  0  0  0
  145.6220  141.8569  155.6137 H   0  0  0  0  0  0  0  0  0  0  0  0
  146.8264  140.7186  156.1787 H   0  0  0  0  0  0  0  0  0  0  0  0
  147.8037  143.2365  155.9297 H   0  0  0  0  0  0  0  0  0  0  0  0
  147.5845  140.3919  152.5474 H   0  0  0  0  0  0  0  0  0  0  0  0
  145.6212  139.7324  153.2568 H   0  0  0  0  0  0  0  0  0  0  0  0
  149.2322  139.0041  153.4450 H   0  0  0  0  0  0  0  0  0  0  0  0
  148.2576  139.5266  156.0361 H   0  0  0  0  0  0  0  0  0  0  0  0
  149.3857  142.4718  156.6257 H   0  0  0  0  0  0  0  0  0  0  0  0
  1  2  2  0  0  0  0
  2 17  1  0  0  0  0
  2  3  1  0  0  0  0
  3  4  1  0  0  0  0
  4  5  2  0  0  0  0
  4  6  1  0  0  0  0
  6  7  1  0  0  0  0
  6 16  1  0  0  0  0
  7 14  1  0  0  0  0
  7  8  1  0  0  0  0
  7 19  1  0  0  0  0
  8  9  1  0  0  0  0
  9 10  1  0  0  0  0
  9 12  1  0  0  0  0
  9 20  1  0  0  0  0
 10 11  1  0  0  0  0
 10 21  1  0  0  0  0
 10 22  1  0  0  0  0
 11 23  1  0  0  0  0
 12 13  1  0  0  0  0
 12 14  1  0  0  0  0
 12 24  1  0  0  0  0
 13 25  1  0  0  0  0
 14 15  1  0  0  0  0
 14 26  1  0  0  0  0
 15 27  1  0  0  0  0
 16 17  2  0  0  0  0
 16 28  1  0  0  0  0
 17 18  1  0  0  0  0
M  CHG  1   3  -1
M  END
> <s_m_source_file>
AV-unprocessed.smi

> <i_m_source_file_index>
35

> <i_lp_mmshare_version>
43012

> <i_f3d_flags>
0

> <s_epik_input>
Tz1jMVtuSF1jKD1PKW4oW2NIXWMxQnIpW0NAQEhdMk9bQ0BASF0oW0NIMl1bT0hdKVtDQEBIXShbT0hdKVtDQEhdMltPSF0=

> <s_epik_cmdline>
J2VwaWtfcHl0aG9uJywgJy1waCcsICc3LjAnLCAnLXRuJywgJzgnLCAnLW1hJywgJzIwMCcsICctbWV0YWxfYmluZGluZycsICctaW1hZScsICc8aW5maWxlLm1hZT4nLCAnLW9tYWUnLCAnPG91dGZpbGUubWFlPic=

> <r_epik_Ionization_Penalty>
1.06112

> <r_epik_Ionization_Penalty_Charging>
2.1796e-09

> <r_epik_Ionization_Penalty_Neutral>
1.06112

> <r_epik_State_Penalty>
1.11484

> <r_epik_Charging_Adjusted_Penalty>
1.11484

> <i_epik_Tot_Q>
-1

> <i_epik_Tot_abs_Q>
1

> <r_epik_Metal_State_Penalty>
0.0032876

> <b_epik_Metal_Only>
0

> <s_epik_Chemistry_Notes>
This compound contains an acetal/aminal-like group ( X-CH(R)-Y where X, Y are N, S, or O) that may be acid/base labile, releasing an aldehyde.

> <s_lp_Force_Field>
OPLS_2005

> <r_lp_Energy>
49.5496

> <b_lp_Chiralities_Consistent>
1

> <s_lp_Variant>
AV-unprocessed.smi:35-31

> <Gold.Version>
5.8.1

> <Gold.Id.Protein>
6NUR|6NUR_protein|mol2

> <Gold.PLP.Fitness>
39.5114

> <Gold.PLP.PLP>
-25.5480

> <Gold.PLP.part.hbond>
-4.7703

> <Gold.PLP.part.metal>
0.0000

> <Gold.PLP.part.buried>
0.7434

> <Gold.PLP.part.nonpolar>
-22.9788

> <Gold.PLP.part.repulsive>
1.4600

> <Gold.PLP.ligand.clash>
0.0000

> <Gold.PLP.ligand.torsion>
0.5692

> <Gold.PLP.Chemscore.Hbond>
4.0325

> <Gold.PLP.Chemscore.CHOScore>
1.0000

> <Gold.PLP.Chemscore.Metal>
0.0000

> <Gold.Chemscore.Hbonds>
donor molecule, donor type, donor heavy atom, donor atom, acceptor molecule, acceptor atom, score
      L1  H    11    23       P1  8028  1.00
      L1  H    13    25       P1 10175  0.52
      P1  H  7989  7998       L1     5  0.45
      P1  H  7997  8009       L1     3  1.82
      L1  C    16    28       P1  8028  1.00

> <Gold.PLP.Chemscore.Internal.Correction>
0.0043

> <Gold.Rescore>
     Score         DG    S(hbond)    S(metal)    S(lipo)     H(rot)  DE(clash)    DE(int)     intcor
      2.42      -5.91       1.42        0.00      42.49       3.63       1.45       2.04       ----

> <Gold.Chemscore.Fitness>
2.4224

> <Gold.Chemscore.DG>
-5.9083

> <Gold.Chemscore.ZeroCoef>
-5.4800

> <Gold.Chemscore.Hbond>
1.4192

> <Gold.Chemscore.Metal>
0.0000

> <Gold.Chemscore.Lipo>
42.4865

> <Gold.Chemscore.Internal_Hbond>
0.0000

> <Gold.Chemscore.DEClash>
1.4474

> <Gold.Chemscore.DEInternal>
2.0386

> <Gold.Chemscore.Rot>
3.6261

> <Gold.Chemscore.Internal.Correction>
   9.000000E+99

> <Gold.Chemscore.Hbonds>
donor molecule, donor type, donor heavy atom, donor atom, acceptor molecule, acceptor atom, score
      L1  H    11    23       P1  8028  0.25
      L1  H    13    25       P1 10175  0.52
      P1  H  7989  7998       L1     5  0.01
      P1  H  7997  8009       L1     3  0.34

> <Gold.Chemscore.Hbond.Weighted>
-4.7402

> <Gold.Chemscore.Metal.Weighted>
-0.0000

> <Gold.Chemscore.Lipo.Weighted>
-4.9709

> <Gold.Chemscore.Internal_Hbond.Weighted>
0.0000

> <Gold.Chemscore.DEClash.Weighted>
1.4474

> <Gold.Chemscore.DEInternal.Weighted>
2.0386

> <Gold.Chemscore.Rot.Weighted>
9.2828

> <Gold.Chemscore.Internal.Correction.Weighted>
   9.000000E+99

> <Gold.Protein.RotatedTorsions>
[ 6907 6896 6895 6894 ] final  116.20 input  -60.11 | X-H torsion
[ 7974 7965 7964 7962 ] final   30.66 input  175.53 | X-H torsion
[ 8008 7997 7996 7995 ] final -168.62 input   59.86 | X-H torsion
[ 10167 10162 10161 10158 ] final   -3.32 input  -65.29 | X-H torsion
[ 10718 10713 10712 10709 ] final   90.31 input   66.30 | X-H torsion
[ 10763 10752 10751 10750 ] final  158.26 input  -60.55 | X-H torsion
[ 11005 11000 10999 10996 ] final  -70.74 input  -57.11 | X-H torsion

> <Gold.Protein.ActiveResidues>
 VAL166  LYS551  ARG553  GLY616  TRP617  ASP618  TYR619  PRO620  LYS621  CYS622 
 ASP623  PHE694  ASN695  SER759  ASP760  ASP761  ALA762  ILE779  LEU786  VAL792 
 PHE793  MET794  SER795  GLU796  ALA797  LYS798  CYS799  TRP800  GLU811  SER814 

> <Gold.Protein.RotatedAtoms>
  152.4693  133.7993  159.6943 H   0  0  0  0  0  0  0  0  0  0  0  0  # atno 6907 bound_to 6896
  150.8673  133.7546  159.2979 H   0  0  0  0  0  0  0  0  0  0  0  0  # atno 6908 bound_to 6896
  151.5092  135.1067  159.9901 H   0  0  0  0  0  0  0  0  0  0  0  0  # atno 6909 bound_to 6896
  146.1598  139.6759  142.9041 H   0  0  0  0  0  0  0  0  0  0  0  0  # atno 7974 bound_to 7965
  155.8939  140.1029  157.1399 H   0  0  0  0  0  0  0  0  0  0  0  0  # atno 8008 bound_to 7997
  154.4018  140.1305  156.4414 H   0  0  0  0  0  0  0  0  0  0  0  0  # atno 8009 bound_to 7997
  155.7502  140.3465  155.5149 H   0  0  0  0  0  0  0  0  0  0  0  0  # atno 8010 bound_to 7997
  140.6886  143.6553  150.8314 H   0  0  0  0  0  0  0  0  0  0  0  0  # atno 10167 bound_to 10162
  157.6958  131.0366  150.3559 H   0  0  0  0  0  0  0  0  0  0  0  0  # atno 10718 bound_to 10713
  154.2132  135.2785  155.2951 H   0  0  0  0  0  0  0  0  0  0  0  0  # atno 10763 bound_to 10752
  154.5761  135.5603  153.7144 H   0  0  0  0  0  0  0  0  0  0  0  0  # atno 10764 bound_to 10752
  153.0059  135.6333  154.2271 H   0  0  0  0  0  0  0  0  0  0  0  0  # atno 10765 bound_to 10752
  141.1579  133.6798  156.6798 H   0  0  0  0  0  0  0  0  0  0  0  0  # atno 11005 bound_to 11000
  145.4617  141.0433  143.2748 LP  0  0  0  0  0  0  0  0  0  0  0  0  # atno 17320 bound_to 7965
  144.8011  139.6138  143.7071 LP  0  0  0  0  0  0  0  0  0  0  0  0  # atno 17321 bound_to 7965
  140.0263  143.5490  152.2779 LP  0  0  0  0  0  0  0  0  0  0  0  0  # atno 17342 bound_to 10162
  139.6266  144.7638  151.2625 LP  0  0  0  0  0  0  0  0  0  0  0  0  # atno 17343 bound_to 10162
  156.4001  130.3914  149.6966 LP  0  0  0  0  0  0  0  0  0  0  0  0  # atno 17370 bound_to 10713
  156.4286  130.7804  151.2823 LP  0  0  0  0  0  0  0  0  0  0  0  0  # atno 17371 bound_to 10713
  140.3111  134.8085  157.4177 LP  0  0  0  0  0  0  0  0  0  0  0  0  # atno 17394 bound_to 11000
  140.1178  134.5260  155.8210 LP  0  0  0  0  0  0  0  0  0  0  0  0  # atno 17395 bound_to 11000

$$$$
