AV-unprocessed.smi:1145|AV-procd|sdf|4883|dock2
  -GOLD-   22720 3453D 1   1.00000     0.00000
 Structure written by MMmdl.
 36 37  0  0  0  0  0  0  0  0  1 V2000
  147.1889  137.3861  154.5191 C   0  0  0  0  0  0  0  0  0  0  0  0
  146.3049  137.7436  153.3165 C   0  0  1  0  0  0  0  0  0  0  0  0
  146.7815  139.0453  152.6367 C   0  0  0  0  0  0  0  0  0  0  0  0
  147.0239  140.1197  153.5833 N   0  0  0  0  0  0  0  0  0  0  0  0
  148.1443  140.9141  153.7096 C   0  0  0  0  0  0  0  0  0  0  0  0
  147.9052  141.7954  154.7244 C   0  0  0  0  0  0  0  0  0  0  0  0
  146.5964  141.4539  155.1666 C   0  0  0  0  0  0  0  0  0  0  0  0
  146.0732  140.4478  154.4846 N   0  0  0  0  0  0  0  0  0  0  0  0
  146.3187  136.6290  152.3695 N   0  0  0  0  0  0  0  0  0  0  0  0
  145.2833  135.8192  152.0953 C   0  0  0  0  0  0  0  0  0  0  0  0
  144.1878  135.9084  152.6505 O   0  0  0  0  0  0  0  0  0  0  0  0
  145.5159  134.7597  151.0105 C   0  0  2  0  0  0  0  0  0  0  0  0
  144.2745  133.8681  150.8459 C   0  0  0  0  0  0  0  0  0  0  0  0
  144.4764  132.8435  149.7181 C   0  0  0  0  0  0  0  0  0  0  0  0
  145.8369  132.1327  149.7750 C   0  0  0  0  0  0  0  0  0  0  0  0
  145.9997  131.0886  149.1478 O   0  0  0  0  0  0  0  0  0  0  0  0
  146.8352  132.6901  150.4827 N   0  0  0  0  0  0  0  0  0  0  0  0
  146.7392  133.8757  151.3348 C   0  0  0  0  0  0  0  0  0  0  0  0
  147.1796  138.1832  155.2631 H   0  0  0  0  0  0  0  0  0  0  0  0
  148.2247  137.2247  154.2182 H   0  0  0  0  0  0  0  0  0  0  0  0
  146.8376  136.4770  155.0082 H   0  0  0  0  0  0  0  0  0  0  0  0
  145.2930  137.8957  153.6968 H   0  0  0  0  0  0  0  0  0  0  0  0
  147.7074  138.8652  152.0884 H   0  0  0  0  0  0  0  0  0  0  0  0
  146.0482  139.3846  151.9038 H   0  0  0  0  0  0  0  0  0  0  0  0
  149.0048  140.7926  153.0683 H   0  0  0  0  0  0  0  0  0  0  0  0
  148.5635  142.5676  155.0939 H   0  0  0  0  0  0  0  0  0  0  0  0
  146.0149  141.9040  155.9577 H   0  0  0  0  0  0  0  0  0  0  0  0
  147.1791  136.4781  151.8630 H   0  0  0  0  0  0  0  0  0  0  0  0
  145.6991  135.2663  150.0607 H   0  0  0  0  0  0  0  0  0  0  0  0
  144.0606  133.3427  151.7782 H   0  0  0  0  0  0  0  0  0  0  0  0
  143.3959  134.4774  150.6291 H   0  0  0  0  0  0  0  0  0  0  0  0
  143.6768  132.1024  149.7392 H   0  0  0  0  0  0  0  0  0  0  0  0
  144.4093  133.3472  148.7534 H   0  0  0  0  0  0  0  0  0  0  0  0
  147.7265  132.2152  150.4755 H   0  0  0  0  0  0  0  0  0  0  0  0
  147.6582  134.4534  151.2319 H   0  0  0  0  0  0  0  0  0  0  0  0
  146.7037  133.5280  152.3684 H   0  0  0  0  0  0  0  0  0  0  0  0
  1  2  1  0  0  0  0
  1 19  1  0  0  0  0
  1 20  1  0  0  0  0
  1 21  1  0  0  0  0
  2  3  1  0  0  0  0
  2  9  1  0  0  0  0
  2 22  1  0  0  0  0
  3  4  1  0  0  0  0
  3 23  1  0  0  0  0
  3 24  1  0  0  0  0
  4  8  1  0  0  0  0
  4  5  1  0  0  0  0
  5  6  2  0  0  0  0
  5 25  1  0  0  0  0
  6  7  1  0  0  0  0
  6 26  1  0  0  0  0
  7  8  2  0  0  0  0
  7 27  1  0  0  0  0
  9 10  1  0  0  0  0
  9 28  1  0  0  0  0
 10 11  2  0  0  0  0
 10 12  1  0  0  0  0
 12 18  1  0  0  0  0
 12 13  1  0  0  0  0
 12 29  1  0  0  0  0
 13 14  1  0  0  0  0
 13 30  1  0  0  0  0
 13 31  1  0  0  0  0
 14 15  1  0  0  0  0
 14 32  1  0  0  0  0
 14 33  1  0  0  0  0
 15 16  2  0  0  0  0
 15 17  1  0  0  0  0
 17 18  1  0  0  0  0
 17 34  1  0  0  0  0
 18 35  1  0  0  0  0
 18 36  1  0  0  0  0
M  END
> <s_m_source_file>
AV-unprocessed.smi

> <i_m_source_file_index>
1145

> <i_lp_mmshare_version>
43012

> <i_f3d_flags>
0

> <s_epik_input>
bjFbY0hdW2NIXVtjSF1uMVtDSDJdW0NAQEhdKFtDSDNdKVtOSF1DKD1PKVtDQEBIXTJbQ0gyXVtDSDJdQyg9TylbTkhdW0NIMl0y

> <s_epik_cmdline>
J2VwaWtfcHl0aG9uJywgJy1waCcsICc3LjAnLCAnLXRuJywgJzgnLCAnLW1hJywgJzIwMCcsICctbWV0YWxfYmluZGluZycsICctaW1hZScsICc8aW5maWxlLm1hZT4nLCAnLW9tYWUnLCAnPG91dGZpbGUubWFlPic=

> <r_lp_tautomer_probability>
1

> <r_epik_Ionization_Penalty>
0.000314064

> <r_epik_Ionization_Penalty_Charging>
0

> <r_epik_Ionization_Penalty_Neutral>
0.000314064

> <r_epik_State_Penalty>
-0

> <r_epik_Charging_Adjusted_Penalty>
0

> <i_epik_Tot_Q>
0

> <i_epik_Tot_abs_Q>
0

> <r_epik_Metal_State_Penalty>
-0

> <b_epik_Metal_Only>
0

> <s_lp_Force_Field>
OPLS_2005

> <r_lp_Energy>
11.8785

> <b_lp_Chiralities_Consistent>
1

> <s_lp_Variant>
AV-unprocessed.smi:1145-2

> <Gold.Version>
5.8.1

> <Gold.Id.Protein>
6NUR|6NUR_protein|mol2

> <Gold.PLP.Fitness>
37.4938

> <Gold.PLP.PLP>
-28.9355

> <Gold.PLP.part.hbond>
-2.9951

> <Gold.PLP.part.metal>
0.0000

> <Gold.PLP.part.buried>
-0.2943

> <Gold.PLP.part.nonpolar>
-26.8619

> <Gold.PLP.part.repulsive>
0.6472

> <Gold.PLP.ligand.clash>
0.0000

> <Gold.PLP.ligand.torsion>
0.2327

> <Gold.PLP.Chemscore.Hbond>
2.0000

> <Gold.PLP.Chemscore.CHOScore>
1.0000

> <Gold.PLP.Chemscore.Metal>
0.0000

> <Gold.Chemscore.Hbonds>
donor molecule, donor type, donor heavy atom, donor atom, acceptor molecule, acceptor atom, score
      L1  H     9    28       P1  7948  1.00
      L1  H    17    34       P1 10747  1.00
      L1  C     5    25       P1  7957  1.00

> <Gold.PLP.Chemscore.Internal.Correction>
0.0238

> <Gold.Rescore>
     Score         DG    S(hbond)    S(metal)    S(lipo)     H(rot)  DE(clash)    DE(int)     intcor
     12.46     -14.40       1.96        0.00      59.67       1.80       1.76       0.18       ----

> <Gold.Chemscore.Fitness>
12.4633

> <Gold.Chemscore.DG>
-14.3992

> <Gold.Chemscore.ZeroCoef>
-5.4800

> <Gold.Chemscore.Hbond>
1.9583

> <Gold.Chemscore.Metal>
0.0000

> <Gold.Chemscore.Lipo>
59.6744

> <Gold.Chemscore.Internal_Hbond>
0.0000

> <Gold.Chemscore.DEClash>
1.7551

> <Gold.Chemscore.DEInternal>
0.1808

> <Gold.Chemscore.Rot>
1.7982

> <Gold.Chemscore.Internal.Correction>
   9.000000E+99

> <Gold.Chemscore.Hbonds>
donor molecule, donor type, donor heavy atom, donor atom, acceptor molecule, acceptor atom, score
      L1  H     9    28       P1  7948  0.96
      L1  H    17    34       P1 10747  1.00

> <Gold.Chemscore.Hbond.Weighted>
-6.5408

> <Gold.Chemscore.Metal.Weighted>
-0.0000

> <Gold.Chemscore.Lipo.Weighted>
-6.9819

> <Gold.Chemscore.Internal_Hbond.Weighted>
0.0000

> <Gold.Chemscore.DEClash.Weighted>
1.7551

> <Gold.Chemscore.DEInternal.Weighted>
0.1808

> <Gold.Chemscore.Rot.Weighted>
4.6035

> <Gold.Chemscore.Internal.Correction.Weighted>
   9.000000E+99

> <Gold.Protein.RotatedTorsions>
[ 6907 6896 6895 6894 ] final  -50.59 input  -60.11 | X-H torsion
[ 7974 7965 7964 7962 ] final -127.53 input  175.53 | X-H torsion
[ 8008 7997 7996 7995 ] final  178.16 input   59.86 | X-H torsion
[ 10167 10162 10161 10158 ] final  -32.03 input  -65.29 | X-H torsion
[ 10718 10713 10712 10709 ] final  -88.15 input   66.30 | X-H torsion
[ 10763 10752 10751 10750 ] final  129.91 input  -60.55 | X-H torsion
[ 11005 11000 10999 10996 ] final  -62.75 input  -57.11 | X-H torsion

> <Gold.Protein.ActiveResidues>
 VAL166  LYS551  ARG553  GLY616  TRP617  ASP618  TYR619  PRO620  LYS621  CYS622 
 ASP623  PHE694  ASN695  SER759  ASP760  ASP761  ALA762  ILE779  LEU786  VAL792 
 PHE793  MET794  SER795  GLU796  ALA797  LYS798  CYS799  TRP800  GLU811  SER814 

> <Gold.Protein.RotatedAtoms>
  150.8692  134.8063  159.7141 H   0  0  0  0  0  0  0  0  0  0  0  0  # atno 6907 bound_to 6896
  152.4703  134.4973  159.9724 H   0  0  0  0  0  0  0  0  0  0  0  0  # atno 6908 bound_to 6896
  151.5065  133.3455  159.2913 H   0  0  0  0  0  0  0  0  0  0  0  0  # atno 6909 bound_to 6896
  144.9762  140.7595  143.4640 H   0  0  0  0  0  0  0  0  0  0  0  0  # atno 7974 bound_to 7965
  156.0577  140.1340  156.9978 H   0  0  0  0  0  0  0  0  0  0  0  0  # atno 8008 bound_to 7997
  154.4466  140.0998  156.6541 H   0  0  0  0  0  0  0  0  0  0  0  0  # atno 8009 bound_to 7997
  155.5426  140.3461  155.4452 H   0  0  0  0  0  0  0  0  0  0  0  0  # atno 8010 bound_to 7997
  140.7227  143.3725  151.1751 H   0  0  0  0  0  0  0  0  0  0  0  0  # atno 10167 bound_to 10162
  155.9984  130.4825  150.4976 H   0  0  0  0  0  0  0  0  0  0  0  0  # atno 10718 bound_to 10713
  153.7495  135.3212  155.3318 H   0  0  0  0  0  0  0  0  0  0  0  0  # atno 10763 bound_to 10752
  154.8268  135.4564  154.0946 H   0  0  0  0  0  0  0  0  0  0  0  0  # atno 10764 bound_to 10752
  153.2145  135.6940  153.8156 H   0  0  0  0  0  0  0  0  0  0  0  0  # atno 10765 bound_to 10752
  141.1370  133.6643  156.5575 H   0  0  0  0  0  0  0  0  0  0  0  0  # atno 11005 bound_to 11000
  145.2487  139.2041  143.4954 LP  0  0  0  0  0  0  0  0  0  0  0  0  # atno 17320 bound_to 7965
  146.3396  140.2396  142.8595 LP  0  0  0  0  0  0  0  0  0  0  0  0  # atno 17321 bound_to 7965
  139.7299  143.9089  152.3016 LP  0  0  0  0  0  0  0  0  0  0  0  0  # atno 17342 bound_to 10162
  139.8874  144.6984  150.8809 LP  0  0  0  0  0  0  0  0  0  0  0  0  # atno 17343 bound_to 10162
  157.2964  131.0636  151.2099 LP  0  0  0  0  0  0  0  0  0  0  0  0  # atno 17370 bound_to 10713
  157.3093  130.6882  149.6207 LP  0  0  0  0  0  0  0  0  0  0  0  0  # atno 17371 bound_to 10713
  140.4014  134.7353  157.4782 LP  0  0  0  0  0  0  0  0  0  0  0  0  # atno 17394 bound_to 11000
  140.0493  134.6154  155.8881 LP  0  0  0  0  0  0  0  0  0  0  0  0  # atno 17395 bound_to 11000

$$$$
