AV-unprocessed.smi:2083|AV-procd|sdf|8503|dock4
  -GOLD-   2272011213D 1   1.00000     0.00000
 Structure written by MMmdl.
 44 45  0  0  0  0  0  0  0  0  3 V2000
  147.2618  140.7878  154.3682 C   0  0  0  0  0  0  0  0  0  0  0  0
  148.5947  140.1284  154.4662 C   0  0  0  0  0  0  0  0  0  0  0  0
  149.0267  138.8639  154.1825 C   0  0  0  0  0  0  0  0  0  0  0  0
  150.4086  138.9117  154.5129 C   0  0  0  0  0  0  0  0  0  0  0  0
  151.2832  137.9003  154.3994 N   0  5  0  0  0  0  0  0  0  0  0  0
  151.1297  136.7831  155.1454 C   0  0  0  0  0  0  0  0  0  0  0  0
  151.6936  136.5316  156.2131 O   0  0  0  0  0  0  0  0  0  0  0  0
  150.2638  135.9017  154.6251 N   0  0  0  0  0  0  0  0  0  0  0  0
  149.8943  134.6195  155.2178 C   0  0  0  0  0  0  0  0  0  0  0  0
  149.8101  133.4725  154.1721 C   0  0  1  0  0  0  0  0  0  0  0  0
  149.9222  132.1001  154.8740 C   0  0  0  0  0  0  0  0  0  0  0  0
  148.5778  133.5044  153.3174 N   0  3  1  0  0  0  0  0  0  0  0  0
  148.3950  132.3543  152.3841 C   0  0  0  0  0  0  0  0  0  0  0  0
  147.1845  132.5618  151.4582 C   0  0  0  0  0  0  0  0  0  0  0  0
  145.9033  132.8281  152.2567 C   0  0  0  0  0  0  0  0  0  0  0  0
  146.1048  133.9852  153.2483 C   0  0  2  0  0  0  0  0  0  0  0  0
  146.1547  135.3631  152.5645 C   0  0  0  0  0  0  0  0  0  0  0  0
  147.3439  133.7246  154.1272 C   0  0  0  0  0  0  0  0  0  0  0  0
  150.7856  140.1047  154.9407 N   0  0  0  0  0  0  0  0  0  0  0  0
  149.6267  140.8896  154.9192 O   0  0  0  0  0  0  0  0  0  0  0  0
  146.9686  140.9087  153.3254 H   0  0  0  0  0  0  0  0  0  0  0  0
  147.2753  141.7740  154.8330 H   0  0  0  0  0  0  0  0  0  0  0  0
  146.4993  140.1903  154.8678 H   0  0  0  0  0  0  0  0  0  0  0  0
  148.4470  138.0355  153.8039 H   0  0  0  0  0  0  0  0  0  0  0  0
  149.8282  136.1443  153.7470 H   0  0  0  0  0  0  0  0  0  0  0  0
  150.6361  134.3806  155.9805 H   0  0  0  0  0  0  0  0  0  0  0  0
  148.9438  134.7621  155.7339 H   0  0  0  0  0  0  0  0  0  0  0  0
  150.6670  133.5858  153.5062 H   0  0  0  0  0  0  0  0  0  0  0  0
  150.8446  132.0137  155.4487 H   0  0  0  0  0  0  0  0  0  0  0  0
  149.9267  131.2684  154.1716 H   0  0  0  0  0  0  0  0  0  0  0  0
  149.0909  131.9438  155.5618 H   0  0  0  0  0  0  0  0  0  0  0  0
  149.2634  132.2349  151.7374 H   0  0  0  0  0  0  0  0  0  0  0  0
  148.2838  131.4314  152.9560 H   0  0  0  0  0  0  0  0  0  0  0  0
  147.3796  133.3939  150.7813 H   0  0  0  0  0  0  0  0  0  0  0  0
  147.0479  131.6837  150.8263 H   0  0  0  0  0  0  0  0  0  0  0  0
  145.0715  133.0386  151.5835 H   0  0  0  0  0  0  0  0  0  0  0  0
  145.6317  131.9256  152.8062 H   0  0  0  0  0  0  0  0  0  0  0  0
  145.2348  134.0008  153.9063 H   0  0  0  0  0  0  0  0  0  0  0  0
  147.0152  135.4600  151.9027 H   0  0  0  0  0  0  0  0  0  0  0  0
  146.2186  136.1623  153.3035 H   0  0  0  0  0  0  0  0  0  0  0  0
  145.2574  135.5386  151.9703 H   0  0  0  0  0  0  0  0  0  0  0  0
  147.1709  132.8448  154.7494 H   0  0  0  0  0  0  0  0  0  0  0  0
  147.4669  134.5594  154.8153 H   0  0  0  0  0  0  0  0  0  0  0  0
  148.6829  134.3144  152.7236 H   0  0  0  0  0  0  0  0  0  0  0  0
  1  2  1  0  0  0  0
  1 21  1  0  0  0  0
  1 22  1  0  0  0  0
  1 23  1  0  0  0  0
  2 20  1  0  0  0  0
  2  3  2  0  0  0  0
  3  4  1  0  0  0  0
  3 24  1  0  0  0  0
  4  5  1  0  0  0  0
  4 19  2  0  0  0  0
  5  6  1  0  0  0  0
  6  7  2  0  0  0  0
  6  8  1  0  0  0  0
  8  9  1  0  0  0  0
  8 25  1  0  0  0  0
  9 10  1  0  0  0  0
  9 26  1  0  0  0  0
  9 27  1  0  0  0  0
 10 11  1  0  0  0  0
 10 12  1  0  0  0  0
 10 28  1  0  0  0  0
 11 29  1  0  0  0  0
 11 30  1  0  0  0  0
 11 31  1  0  0  0  0
 12 18  1  0  0  0  0
 12 13  1  0  0  0  0
 12 44  1  0  0  0  0
 13 14  1  0  0  0  0
 13 32  1  0  0  0  0
 13 33  1  0  0  0  0
 14 15  1  0  0  0  0
 14 34  1  0  0  0  0
 14 35  1  0  0  0  0
 15 16  1  0  0  0  0
 15 36  1  0  0  0  0
 15 37  1  0  0  0  0
 16 17  1  0  0  0  0
 16 18  1  0  0  0  0
 16 38  1  0  0  0  0
 17 39  1  0  0  0  0
 17 40  1  0  0  0  0
 17 41  1  0  0  0  0
 18 42  1  0  0  0  0
 18 43  1  0  0  0  0
 19 20  1  0  0  0  0
M  CHG  1   5  -1
M  CHG  1  12   1
M  END
> <s_m_source_file>
AV-unprocessed.smi

> <i_m_source_file_index>
2083

> <i_lp_mmshare_version>
43012

> <i_f3d_flags>
0

> <s_epik_input>
W0NIM11jMVtjSF1jKG5vMSlbTkhdQyg9TylbTkhdW0NIMl1bQ0BIXShbQ0gzXSlOMltDSDJdW0NIMl1bQ0gyXVtDQEBIXShbQ0gzXSlbQ0gyXTI=

> <s_epik_cmdline>
J2VwaWtfcHl0aG9uJywgJy1waCcsICc3LjAnLCAnLXRuJywgJzgnLCAnLW1hJywgJzIwMCcsICctbWV0YWxfYmluZGluZycsICctaW1hZScsICc8aW5maWxlLm1hZT4nLCAnLW9tYWUnLCAnPG91dGZpbGUubWFlPic=

> <r_epik_Ionization_Penalty>
6.22434

> <r_epik_Ionization_Penalty_Charging>
6.22425

> <r_epik_Ionization_Penalty_Neutral>
9.62407e-05

> <r_epik_State_Penalty>
6.22423

> <r_epik_Charging_Adjusted_Penalty>
12.4485

> <i_epik_Tot_Q>
0

> <i_epik_Tot_abs_Q>
2

> <r_epik_Metal_State_Penalty>
2.16764

> <b_epik_Metal_Only>
1

> <s_lp_Force_Field>
OPLS_2005

> <r_lp_Energy>
12.2098

> <b_lp_Chiralities_Consistent>
1

> <s_lp_Variant>
AV-unprocessed.smi:2083-14

> <Gold.Version>
5.8.1

> <Gold.Id.Protein>
6NUR|6NUR_protein|mol2

> <Gold.PLP.Fitness>
43.9162

> <Gold.PLP.PLP>
-32.3435

> <Gold.PLP.part.hbond>
-5.7297

> <Gold.PLP.part.metal>
0.0000

> <Gold.PLP.part.buried>
-1.8729

> <Gold.PLP.part.nonpolar>
-25.4916

> <Gold.PLP.part.repulsive>
0.5207

> <Gold.PLP.ligand.clash>
0.0000

> <Gold.PLP.ligand.torsion>
1.7697

> <Gold.PLP.Chemscore.Hbond>
5.0000

> <Gold.PLP.Chemscore.CHOScore>
0.0000

> <Gold.PLP.Chemscore.Metal>
0.0000

> <Gold.Chemscore.Hbonds>
donor molecule, donor type, donor heavy atom, donor atom, acceptor molecule, acceptor atom, score
      L1  H     8    25       P1  7948  0.93
      L1  H    12    44       P1  7948  1.00
      P1  H  7989  7998       L1    19  0.90
      P1  H 10752 10764       L1     7  0.22

> <Gold.PLP.Chemscore.Internal.Correction>
0.1121

> <Gold.Rescore>
     Score         DG    S(hbond)    S(metal)    S(lipo)     H(rot)  DE(clash)    DE(int)     intcor
     15.76     -18.37       3.14        0.00      53.75       1.52       1.00       1.61       ----

> <Gold.Chemscore.Fitness>
15.7625

> <Gold.Chemscore.DG>
-18.3667

> <Gold.Chemscore.ZeroCoef>
-5.4800

> <Gold.Chemscore.Hbond>
3.1395

> <Gold.Chemscore.Metal>
0.0000

> <Gold.Chemscore.Lipo>
53.7548

> <Gold.Chemscore.Internal_Hbond>
0.0000

> <Gold.Chemscore.DEClash>
0.9956

> <Gold.Chemscore.DEInternal>
1.6086

> <Gold.Chemscore.Rot>
1.5190

> <Gold.Chemscore.Internal.Correction>
   9.000000E+99

> <Gold.Chemscore.Hbonds>
donor molecule, donor type, donor heavy atom, donor atom, acceptor molecule, acceptor atom, score
      L1  H     8    25       P1  7948  0.20
      L1  H    12    44       P1  7948  0.03
      P1  H  7989  7998       L1    19  0.09

> <Gold.Chemscore.Hbond.Weighted>
-10.4860

> <Gold.Chemscore.Metal.Weighted>
-0.0000

> <Gold.Chemscore.Lipo.Weighted>
-6.2893

> <Gold.Chemscore.Internal_Hbond.Weighted>
0.0000

> <Gold.Chemscore.DEClash.Weighted>
0.9956

> <Gold.Chemscore.DEInternal.Weighted>
1.6086

> <Gold.Chemscore.Rot.Weighted>
3.8886

> <Gold.Chemscore.Internal.Correction.Weighted>
   9.000000E+99

> <Gold.Protein.RotatedTorsions>
[ 6907 6896 6895 6894 ] final  -53.28 input  -60.11 | X-H torsion
[ 7974 7965 7964 7962 ] final  -63.75 input  175.53 | X-H torsion
[ 8008 7997 7996 7995 ] final   32.45 input   59.86 | X-H torsion
[ 10167 10162 10161 10158 ] final -102.68 input  -65.29 | X-H torsion
[ 10718 10713 10712 10709 ] final   93.27 input   66.30 | X-H torsion
[ 10763 10752 10751 10750 ] final  -31.17 input  -60.55 | X-H torsion
[ 11005 11000 10999 10996 ] final -143.37 input  -57.11 | X-H torsion

> <Gold.Protein.ActiveResidues>
 VAL166  LYS551  ARG553  GLY616  TRP617  ASP618  TYR619  PRO620  LYS621  CYS622 
 ASP623  PHE694  ASN695  SER759  ASP760  ASP761  ALA762  ILE779  LEU786  VAL792 
 PHE793  MET794  SER795  GLU796  ALA797  LYS798  CYS799  TRP800  GLU811  SER814 

> <Gold.Protein.RotatedAtoms>
  150.8441  134.7743  159.6955 H   0  0  0  0  0  0  0  0  0  0  0  0  # atno 6907 bound_to 6896
  152.4522  134.5366  159.9836 H   0  0  0  0  0  0  0  0  0  0  0  0  # atno 6908 bound_to 6896
  151.5500  133.3381  159.2987 H   0  0  0  0  0  0  0  0  0  0  0  0  # atno 6909 bound_to 6896
  145.7752  140.8792  143.0359 H   0  0  0  0  0  0  0  0  0  0  0  0  # atno 7974 bound_to 7965
  155.1227  140.3249  155.4493 H   0  0  0  0  0  0  0  0  0  0  0  0  # atno 8008 bound_to 7997
  156.2658  140.2024  156.6296 H   0  0  0  0  0  0  0  0  0  0  0  0  # atno 8009 bound_to 7997
  154.6672  140.0540  157.0113 H   0  0  0  0  0  0  0  0  0  0  0  0  # atno 8010 bound_to 7997
  140.2281  143.3627  152.0911 H   0  0  0  0  0  0  0  0  0  0  0  0  # atno 10167 bound_to 10162
  157.6955  131.0472  150.4009 H   0  0  0  0  0  0  0  0  0  0  0  0  # atno 10718 bound_to 10713
  153.7930  135.6896  153.4868 H   0  0  0  0  0  0  0  0  0  0  0  0  # atno 10763 bound_to 10752
  153.1737  135.4533  154.9935 H   0  0  0  0  0  0  0  0  0  0  0  0  # atno 10764 bound_to 10752
  154.8037  135.3348  154.7425 H   0  0  0  0  0  0  0  0  0  0  0  0  # atno 10765 bound_to 10752
  140.8132  134.2720  157.4932 H   0  0  0  0  0  0  0  0  0  0  0  0  # atno 11005 bound_to 11000
  144.6806  139.9911  143.7484 LP  0  0  0  0  0  0  0  0  0  0  0  0  # atno 17320 bound_to 7965
  146.0130  139.3186  143.0859 LP  0  0  0  0  0  0  0  0  0  0  0  0  # atno 17321 bound_to 7965
  139.5120  144.6909  151.5761 LP  0  0  0  0  0  0  0  0  0  0  0  0  # atno 17342 bound_to 10162
  140.6205  143.9266  150.6523 LP  0  0  0  0  0  0  0  0  0  0  0  0  # atno 17343 bound_to 10162
  156.4402  130.3990  149.6702 LP  0  0  0  0  0  0  0  0  0  0  0  0  # atno 17370 bound_to 10713
  156.3888  130.7616  151.2616 LP  0  0  0  0  0  0  0  0  0  0  0  0  # atno 17371 bound_to 10713
  139.8713  134.9494  156.4026 LP  0  0  0  0  0  0  0  0  0  0  0  0  # atno 17394 bound_to 11000
  140.9176  133.7667  155.9867 LP  0  0  0  0  0  0  0  0  0  0  0  0  # atno 17395 bound_to 11000

$$$$
