AV-unprocessed.smi:2193|AV-procd|sdf|8898|dock2
  -GOLD-   2272012103D 1   1.00000     0.00000
 Structure written by MMmdl.
 40 42  0  0  0  0  0  0  0  0  1 V2000
  152.5111  137.8755  155.2378 O   0  0  0  0  0  0  0  0  0  0  0  0
  151.6619  139.0006  155.1771 C   0  0  0  0  0  0  0  0  0  0  0  0
  151.8333  139.9257  156.3437 C   0  0  0  0  0  0  0  0  0  0  0  0
  152.6553  139.6319  157.3520 N   0  0  0  0  0  0  0  0  0  0  0  0
  152.5311  140.7312  158.1780 C   0  0  0  0  0  0  0  0  0  0  0  0
  153.1535  141.0280  159.4117 C   0  0  0  0  0  0  0  0  0  0  0  0
  152.8707  142.2363  160.0815 C   0  0  0  0  0  0  0  0  0  0  0  0
  151.9654  143.1644  159.5276 C   0  0  0  0  0  0  0  0  0  0  0  0
  151.3348  142.8882  158.2991 C   0  0  0  0  0  0  0  0  0  0  0  0
  151.6172  141.6784  157.6363 C   0  0  0  0  0  0  0  0  0  0  0  0
  151.1751  141.1099  156.4452 N   0  0  0  0  0  0  0  0  0  0  0  0
  150.2196  141.7081  155.5200 C   0  0  0  0  0  0  0  0  0  0  0  0
  148.7600  141.3228  155.8380 C   0  0  2  0  0  0  0  0  0  0  0  0
  148.6740  139.9390  156.1103 O   0  0  0  0  0  0  0  0  0  0  0  0
  147.8031  141.6524  154.6834 C   0  0  0  0  0  0  0  0  0  0  0  0
  146.4821  141.7597  155.1984 O   0  0  0  0  0  0  0  0  0  0  0  0
  145.7326  142.8629  154.8510 C   0  0  0  0  0  0  0  0  0  0  0  0
  144.7686  143.2999  155.7833 C   0  0  0  0  0  0  0  0  0  0  0  0
  143.9582  144.4192  155.5119 C   0  0  0  0  0  0  0  0  0  0  0  0
  144.1048  145.1155  154.2981 C   0  0  0  0  0  0  0  0  0  0  0  0
  143.3266  146.1920  154.0349 F   0  0  0  0  0  0  0  0  0  0  0  0
  145.0619  144.6902  153.3581 C   0  0  0  0  0  0  0  0  0  0  0  0
  145.8730  143.5709  153.6302 C   0  0  0  0  0  0  0  0  0  0  0  0
  153.2902  138.0600  154.7363 H   0  0  0  0  0  0  0  0  0  0  0  0
  151.8756  139.5422  154.2547 H   0  0  0  0  0  0  0  0  0  0  0  0
  150.6234  138.6768  155.1105 H   0  0  0  0  0  0  0  0  0  0  0  0
  153.8507  140.3247  159.8428 H   0  0  0  0  0  0  0  0  0  0  0  0
  153.3520  142.4527  161.0240 H   0  0  0  0  0  0  0  0  0  0  0  0
  151.7551  144.0884  160.0462 H   0  0  0  0  0  0  0  0  0  0  0  0
  150.6416  143.5979  157.8721 H   0  0  0  0  0  0  0  0  0  0  0  0
  150.3389  142.7906  155.5771 H   0  0  0  0  0  0  0  0  0  0  0  0
  150.4664  141.4324  154.4957 H   0  0  0  0  0  0  0  0  0  0  0  0
  148.4243  141.8492  156.7317 H   0  0  0  0  0  0  0  0  0  0  0  0
  149.0722  139.7734  156.9514 H   0  0  0  0  0  0  0  0  0  0  0  0
  148.1074  142.5811  154.1973 H   0  0  0  0  0  0  0  0  0  0  0  0
  147.8367  140.8539  153.9401 H   0  0  0  0  0  0  0  0  0  0  0  0
  144.6491  142.7712  156.7176 H   0  0  0  0  0  0  0  0  0  0  0  0
  143.2244  144.7426  156.2354 H   0  0  0  0  0  0  0  0  0  0  0  0
  145.1751  145.2231  152.4255 H   0  0  0  0  0  0  0  0  0  0  0  0
  146.5953  143.2755  152.8845 H   0  0  0  0  0  0  0  0  0  0  0  0
  1  2  1  0  0  0  0
  1 24  1  0  0  0  0
  2  3  1  0  0  0  0
  2 25  1  0  0  0  0
  2 26  1  0  0  0  0
  3 11  1  0  0  0  0
  3  4  2  0  0  0  0
  4  5  1  0  0  0  0
  5 10  2  0  0  0  0
  5  6  1  0  0  0  0
  6  7  2  0  0  0  0
  6 27  1  0  0  0  0
  7  8  1  0  0  0  0
  7 28  1  0  0  0  0
  8  9  2  0  0  0  0
  8 29  1  0  0  0  0
  9 10  1  0  0  0  0
  9 30  1  0  0  0  0
 10 11  1  0  0  0  0
 11 12  1  0  0  0  0
 12 13  1  0  0  0  0
 12 31  1  0  0  0  0
 12 32  1  0  0  0  0
 13 14  1  0  0  0  0
 13 15  1  0  0  0  0
 13 33  1  0  0  0  0
 14 34  1  0  0  0  0
 15 16  1  0  0  0  0
 15 35  1  0  0  0  0
 15 36  1  0  0  0  0
 16 17  1  0  0  0  0
 17 23  1  0  0  0  0
 17 18  2  0  0  0  0
 18 19  1  0  0  0  0
 18 37  1  0  0  0  0
 19 20  2  0  0  0  0
 19 38  1  0  0  0  0
 20 21  1  0  0  0  0
 20 22  1  0  0  0  0
 22 23  2  0  0  0  0
 22 39  1  0  0  0  0
 23 40  1  0  0  0  0
M  END
> <s_m_source_file>
AV-unprocessed.smi

> <i_m_source_file_index>
2193

> <i_lp_mmshare_version>
43012

> <i_f3d_flags>
0

> <s_epik_input>
W2NIXTFbY0hdW2NIXVtjSF1jKGMxMiluKGMobjIpW0NIMl1bT0hdKVtDSDJdW0NASF0oW09IXSlbQ0gyXU9jM1tjSF1bY0hdYyhGKVtjSF1bY0hdMw==

> <s_epik_cmdline>
J2VwaWtfcHl0aG9uJywgJy1waCcsICc3LjAnLCAnLXRuJywgJzgnLCAnLW1hJywgJzIwMCcsICctbWV0YWxfYmluZGluZycsICctaW1hZScsICc8aW5maWxlLm1hZT4nLCAnLW9tYWUnLCAnPG91dGZpbGUubWFlPic=

> <r_lp_tautomer_probability>
1

> <r_epik_Ionization_Penalty>
0.0549747

> <r_epik_Ionization_Penalty_Charging>
0

> <r_epik_Ionization_Penalty_Neutral>
0.0549747

> <r_epik_State_Penalty>
0.0472568

> <r_epik_Charging_Adjusted_Penalty>
0.0472568

> <i_epik_Tot_Q>
0

> <i_epik_Tot_abs_Q>
0

> <r_epik_Metal_State_Penalty>
4.91905e-05

> <b_epik_Metal_Only>
0

> <s_lp_Force_Field>
OPLS_2005

> <r_lp_Energy>
14.0704

> <b_lp_Chiralities_Consistent>
1

> <s_lp_Variant>
AV-unprocessed.smi:2193-1

> <Gold.Version>
5.8.1

> <Gold.Id.Protein>
6NUR|6NUR_protein|mol2

> <Gold.PLP.Fitness>
49.3811

> <Gold.PLP.PLP>
-49.0498

> <Gold.PLP.part.hbond>
-1.6821

> <Gold.PLP.part.metal>
0.0000

> <Gold.PLP.part.buried>
-6.3360

> <Gold.PLP.part.nonpolar>
-40.9645

> <Gold.PLP.part.repulsive>
0.1138

> <Gold.PLP.ligand.clash>
0.0000

> <Gold.PLP.ligand.torsion>
1.4208

> <Gold.PLP.Chemscore.Hbond>
1.0000

> <Gold.PLP.Chemscore.CHOScore>
0.0000

> <Gold.PLP.Chemscore.Metal>
0.0000

> <Gold.Chemscore.Hbonds>
donor molecule, donor type, donor heavy atom, donor atom, acceptor molecule, acceptor atom, score
      P1  H  7997  8009       L1     4  0.90
      P1  H 10752 10763       L1     1  0.01

> <Gold.PLP.Chemscore.Internal.Correction>
0.1730

> <Gold.Rescore>
     Score         DG    S(hbond)    S(metal)    S(lipo)     H(rot)  DE(clash)    DE(int)     intcor
     10.46     -12.08       0.30        0.00     118.17       3.22       0.15       1.46       ----

> <Gold.Chemscore.Fitness>
10.4634

> <Gold.Chemscore.DG>
-12.0792

> <Gold.Chemscore.ZeroCoef>
-5.4800

> <Gold.Chemscore.Hbond>
0.3039

> <Gold.Chemscore.Metal>
0.0000

> <Gold.Chemscore.Lipo>
118.1747

> <Gold.Chemscore.Internal_Hbond>
0.0000

> <Gold.Chemscore.DEClash>
0.1512

> <Gold.Chemscore.DEInternal>
1.4646

> <Gold.Chemscore.Rot>
3.2196

> <Gold.Chemscore.Internal.Correction>
   9.000000E+99

> <Gold.Chemscore.Hbonds>
donor molecule, donor type, donor heavy atom, donor atom, acceptor molecule, acceptor atom, score
      P1  H  7997  8009       L1     4  0.05

> <Gold.Chemscore.Hbond.Weighted>
-1.0150

> <Gold.Chemscore.Metal.Weighted>
-0.0000

> <Gold.Chemscore.Lipo.Weighted>
-13.8264

> <Gold.Chemscore.Internal_Hbond.Weighted>
0.0000

> <Gold.Chemscore.DEClash.Weighted>
0.1512

> <Gold.Chemscore.DEInternal.Weighted>
1.4646

> <Gold.Chemscore.Rot.Weighted>
8.2422

> <Gold.Chemscore.Internal.Correction.Weighted>
   9.000000E+99

> <Gold.Protein.RotatedTorsions>
[ 6907 6896 6895 6894 ] final   39.61 input  -60.11 | X-H torsion
[ 7974 7965 7964 7962 ] final   95.51 input  175.53 | X-H torsion
[ 8008 7997 7996 7995 ] final -174.35 input   59.86 | X-H torsion
[ 10167 10162 10161 10158 ] final -135.98 input  -65.29 | X-H torsion
[ 10718 10713 10712 10709 ] final   93.70 input   66.30 | X-H torsion
[ 10763 10752 10751 10750 ] final   64.47 input  -60.55 | X-H torsion
[ 11005 11000 10999 10996 ] final  -97.31 input  -57.11 | X-H torsion

> <Gold.Protein.ActiveResidues>
 VAL166  LYS551  ARG553  GLY616  TRP617  ASP618  TYR619  PRO620  LYS621  CYS622 
 ASP623  PHE694  ASN695  SER759  ASP760  ASP761  ALA762  ILE779  LEU786  VAL792 
 PHE793  MET794  SER795  GLU796  ALA797  LYS798  CYS799  TRP800  GLU811  SER814 

> <Gold.Protein.RotatedAtoms>
  152.1718  134.8828  160.0533 H   0  0  0  0  0  0  0  0  0  0  0  0  # atno 6907 bound_to 6896
  151.9785  133.3744  159.4106 H   0  0  0  0  0  0  0  0  0  0  0  0  # atno 6908 bound_to 6896
  150.6903  134.3987  159.5153 H   0  0  0  0  0  0  0  0  0  0  0  0  # atno 6909 bound_to 6896
  145.4512  139.2293  143.3038 H   0  0  0  0  0  0  0  0  0  0  0  0  # atno 7974 bound_to 7965
  155.9690  140.1159  157.0829 H   0  0  0  0  0  0  0  0  0  0  0  0  # atno 8008 bound_to 7997
  154.4151  140.1167  156.5348 H   0  0  0  0  0  0  0  0  0  0  0  0  # atno 8009 bound_to 7997
  155.6621  140.3473  155.4789 H   0  0  0  0  0  0  0  0  0  0  0  0  # atno 8010 bound_to 7997
  139.8724  143.6940  152.2638 H   0  0  0  0  0  0  0  0  0  0  0  0  # atno 10167 bound_to 10162
  157.6953  131.0487  150.4073 H   0  0  0  0  0  0  0  0  0  0  0  0  # atno 10718 bound_to 10713
  153.0057  135.5392  154.6514 H   0  0  0  0  0  0  0  0  0  0  0  0  # atno 10763 bound_to 10752
  154.5745  135.2844  155.0796 H   0  0  0  0  0  0  0  0  0  0  0  0  # atno 10764 bound_to 10752
  154.1949  135.6494  153.5123 H   0  0  0  0  0  0  0  0  0  0  0  0  # atno 10765 bound_to 10752
  141.1383  133.8161  157.0689 H   0  0  0  0  0  0  0  0  0  0  0  0  # atno 11005 bound_to 11000
  146.2503  140.5271  142.8896 LP  0  0  0  0  0  0  0  0  0  0  0  0  # atno 17320 bound_to 7965
  144.8060  140.6301  143.6446 LP  0  0  0  0  0  0  0  0  0  0  0  0  # atno 17321 bound_to 7965
  139.7271  144.7590  151.0861 LP  0  0  0  0  0  0  0  0  0  0  0  0  # atno 17342 bound_to 10162
  140.7758  143.5134  150.9624 LP  0  0  0  0  0  0  0  0  0  0  0  0  # atno 17343 bound_to 10162
  156.4461  130.4001  149.6666 LP  0  0  0  0  0  0  0  0  0  0  0  0  # atno 17370 bound_to 10713
  156.3832  130.7589  151.2584 LP  0  0  0  0  0  0  0  0  0  0  0  0  # atno 17371 bound_to 10713
  140.0524  134.9798  157.1160 LP  0  0  0  0  0  0  0  0  0  0  0  0  # atno 17394 bound_to 11000
  140.3970  134.2123  155.7164 LP  0  0  0  0  0  0  0  0  0  0  0  0  # atno 17395 bound_to 11000

$$$$
