AV-unprocessed.smi:54|AV-procd|sdf|529|dock1
  -GOLD-   2262016403D 1   1.00000     0.00000
 Structure written by MMmdl.
 44 46  0  0  0  0  0  0  0  0  1 V2000
  151.6966  144.6961  158.5269 C   0  0  0  0  0  0  0  0  0  0  0  0
  151.8300  143.3305  159.2201 C   0  0  0  0  0  0  0  0  0  0  0  0
  153.2264  143.1516  159.8377 C   0  0  0  0  0  0  0  0  0  0  0  0
  151.5273  142.1935  158.2379 C   0  0  0  0  0  0  0  0  0  0  0  0
  151.0587  142.4046  157.1194 O   0  0  0  0  0  0  0  0  0  0  0  0
  151.8175  140.8572  158.7217 N   0  0  0  0  0  0  0  0  0  0  0  0
  151.6668  139.6945  158.0473 C   0  0  0  0  0  0  0  0  0  0  0  0
  151.0982  139.6192  156.8519 N   0  0  0  0  0  0  0  0  0  0  0  0
  151.0686  138.3619  156.3111 C   0  0  0  0  0  0  0  0  0  0  0  0
  151.5620  137.2110  156.8930 C   0  0  0  0  0  0  0  0  0  0  0  0
  151.3571  136.1208  156.0558 N   0  0  0  0  0  0  0  0  0  0  0  0
  150.7663  136.6311  155.0126 C   0  0  0  0  0  0  0  0  0  0  0  0
  150.5533  137.9864  155.0841 N   0  0  0  0  0  0  0  0  0  0  0  0
  149.9062  138.8564  154.0547 C   0  0  2  0  0  0  0  0  0  0  0  0
  150.1454  140.1881  154.3936 O   0  0  0  0  0  0  0  0  0  0  0  0
  148.9565  140.9505  154.2202 C   0  0  2  0  0  0  0  0  0  0  0  0
  149.0021  142.1933  155.1229 C   0  0  0  0  0  0  0  0  0  0  0  0
  147.7100  142.7463  155.2540 O   0  0  0  0  0  0  0  0  0  0  0  0
  147.8617  139.9513  154.5991 C   0  0  1  0  0  0  0  0  0  0  0  0
  146.5879  140.3130  154.0989 O   0  0  0  0  0  0  0  0  0  0  0  0
  148.3854  138.6357  154.0304 C   0  0  1  0  0  0  0  0  0  0  0  0
  147.9316  138.4020  152.7093 O   0  0  0  0  0  0  0  0  0  0  0  0
  152.1783  137.2772  158.1865 C   0  0  0  0  0  0  0  0  0  0  0  0
  152.6648  136.3616  158.8465 O   0  0  0  0  0  0  0  0  0  0  0  0
  152.1948  138.5803  158.6976 N   0  0  0  0  0  0  0  0  0  0  0  0
  150.4047  138.5973  153.1193 H   0  0  0  0  0  0  0  0  0  0  0  0
  148.8532  141.2246  153.1682 H   0  0  0  0  0  0  0  0  0  0  0  0
  147.7965  139.8663  155.6826 H   0  0  0  0  0  0  0  0  0  0  0  0
  148.1000  137.7857  154.6520 H   0  0  0  0  0  0  0  0  0  0  0  0
  150.7077  144.8214  158.0839 H   0  0  0  0  0  0  0  0  0  0  0  0
  152.4348  144.8179  157.7332 H   0  0  0  0  0  0  0  0  0  0  0  0
  151.8405  145.5095  159.2387 H   0  0  0  0  0  0  0  0  0  0  0  0
  151.0964  143.2885  160.0265 H   0  0  0  0  0  0  0  0  0  0  0  0
  153.3241  142.1794  160.3229 H   0  0  0  0  0  0  0  0  0  0  0  0
  153.4182  143.9139  160.5934 H   0  0  0  0  0  0  0  0  0  0  0  0
  154.0124  143.2284  159.0849 H   0  0  0  0  0  0  0  0  0  0  0  0
  152.1310  140.7906  159.6789 H   0  0  0  0  0  0  0  0  0  0  0  0
  150.4689  136.0326  154.1638 H   0  0  0  0  0  0  0  0  0  0  0  0
  149.3455  141.9220  156.1217 H   0  0  0  0  0  0  0  0  0  0  0  0
  149.6936  142.9411  154.7343 H   0  0  0  0  0  0  0  0  0  0  0  0
  147.7959  143.6676  155.4458 H   0  0  0  0  0  0  0  0  0  0  0  0
  146.0288  140.5238  154.8310 H   0  0  0  0  0  0  0  0  0  0  0  0
  148.6103  138.6709  152.1089 H   0  0  0  0  0  0  0  0  0  0  0  0
  152.6212  138.7034  159.6042 H   0  0  0  0  0  0  0  0  0  0  0  0
  1  2  1  0  0  0  0
  1 30  1  0  0  0  0
  1 31  1  0  0  0  0
  1 32  1  0  0  0  0
  2  3  1  0  0  0  0
  2  4  1  0  0  0  0
  2 33  1  0  0  0  0
  3 34  1  0  0  0  0
  3 35  1  0  0  0  0
  3 36  1  0  0  0  0
  4  5  2  0  0  0  0
  4  6  1  0  0  0  0
  6 37  1  0  0  0  0
  6  7  1  0  0  0  0
  7 25  1  0  0  0  0
  7  8  2  0  0  0  0
  8  9  1  0  0  0  0
  9 13  1  0  0  0  0
  9 10  2  0  0  0  0
 10 11  1  0  0  0  0
 10 23  1  0  0  0  0
 11 12  2  0  0  0  0
 12 13  1  0  0  0  0
 12 38  1  0  0  0  0
 13 14  1  0  0  0  0
 14 26  1  0  0  0  0
 14 21  1  0  0  0  0
 14 15  1  0  0  0  0
 15 16  1  0  0  0  0
 16 27  1  0  0  0  0
 16 17  1  0  0  0  0
 16 19  1  0  0  0  0
 17 18  1  0  0  0  0
 17 39  1  0  0  0  0
 17 40  1  0  0  0  0
 18 41  1  0  0  0  0
 19 28  1  0  0  0  0
 19 20  1  0  0  0  0
 19 21  1  0  0  0  0
 20 42  1  0  0  0  0
 21 29  1  0  0  0  0
 21 22  1  0  0  0  0
 22 43  1  0  0  0  0
 23 24  2  0  0  0  0
 23 25  1  0  0  0  0
 25 44  1  0  0  0  0
M  END
> <s_m_source_file>
AV-unprocessed.smi

> <i_m_source_file_index>
54

> <i_lp_mmshare_version>
43012

> <i_f3d_flags>
0

> <s_epik_input>
W0NIM11bQ0hdKFtDSDNdKUMoPU8pW05IXWMobjEpW25IXWMoPU8pYyhjMTIpbltjSF1uMltDQEBIXTNPW0NASF0oW0NIMl1bT0hdKVtDQEBIXShbT0hdKVtDQEhdM1tPSF0=

> <s_epik_cmdline>
J2VwaWtfcHl0aG9uJywgJy1waCcsICc3LjAnLCAnLXRuJywgJzgnLCAnLW1hJywgJzIwMCcsICctbWV0YWxfYmluZGluZycsICctaW1hZScsICc8aW5maWxlLm1hZT4nLCAnLW9tYWUnLCAnPG91dGZpbGUubWFlPic=

> <r_lp_tautomer_probability>
0.85571

> <r_epik_Ionization_Penalty>
0.0316551

> <r_epik_Ionization_Penalty_Charging>
0.0316043

> <r_epik_Ionization_Penalty_Neutral>
5.07097e-05

> <r_epik_State_Penalty>
3.15494e-07

> <r_epik_Charging_Adjusted_Penalty>
0.0316047

> <i_epik_Tot_Q>
0

> <i_epik_Tot_abs_Q>
0

> <r_epik_Metal_State_Penalty>
0.421206

> <b_epik_Metal_Only>
0

> <s_epik_Chemistry_Notes>
This compound contains an acetal/aminal-like group ( X-CH(R)-Y where X, Y are N, S, or O) that may be acid/base labile, releasing an aldehyde.

> <s_lp_Force_Field>
OPLS_2005

> <r_lp_Energy>
41.8927

> <b_lp_Chiralities_Consistent>
1

> <s_lp_Variant>
AV-unprocessed.smi:54-1

> <Gold.Version>
5.8.1

> <Gold.Id.Protein>
6NUR|6NUR_protein|mol2

> <Gold.PLP.Fitness>
48.7969

> <Gold.PLP.PLP>
-34.4076

> <Gold.PLP.part.hbond>
-5.0844

> <Gold.PLP.part.metal>
0.0000

> <Gold.PLP.part.buried>
-0.1316

> <Gold.PLP.part.nonpolar>
-29.6160

> <Gold.PLP.part.repulsive>
0.4271

> <Gold.PLP.ligand.clash>
0.0000

> <Gold.PLP.ligand.torsion>
0.6391

> <Gold.PLP.Chemscore.Hbond>
4.5360

> <Gold.PLP.Chemscore.CHOScore>
0.6683

> <Gold.PLP.Chemscore.Metal>
0.0000

> <Gold.Chemscore.Hbonds>
donor molecule, donor type, donor heavy atom, donor atom, acceptor molecule, acceptor atom, score
      L1  H    18    41       P1  8028  0.59
      L1  H    22    43       P1  7957  1.00
      P1  H  6896  6907       L1    24  0.61
      P1  H  7989  7998       L1    15  1.00
      P1  H 10752 10763       L1    11  0.59
      L1  C    12    38       P1  7948  0.28
      L1  C    12    38       P1  7949  0.19

> <Gold.PLP.Chemscore.Internal.Correction>
0.0546

> <Gold.Rescore>
     Score         DG    S(hbond)    S(metal)    S(lipo)     H(rot)  DE(clash)    DE(int)     intcor
      6.55     -12.90       3.03        0.00      65.57       4.05       1.54       4.81       ----

> <Gold.Chemscore.Fitness>
6.5508

> <Gold.Chemscore.DG>
-12.8978

> <Gold.Chemscore.ZeroCoef>
-5.4800

> <Gold.Chemscore.Hbond>
3.0277

> <Gold.Chemscore.Metal>
0.0000

> <Gold.Chemscore.Lipo>
65.5678

> <Gold.Chemscore.Internal_Hbond>
0.0000

> <Gold.Chemscore.DEClash>
1.5380

> <Gold.Chemscore.DEInternal>
4.8090

> <Gold.Chemscore.Rot>
4.0493

> <Gold.Chemscore.Internal.Correction>
   9.000000E+99

> <Gold.Chemscore.Hbonds>
donor molecule, donor type, donor heavy atom, donor atom, acceptor molecule, acceptor atom, score
      L1  H    18    41       P1  8028  0.09
      L1  H    22    43       P1  7957  0.79
      P1  H  6896  6907       L1    24  0.60
      P1  H  7989  7998       L1    15  0.69
      P1  H 10752 10763       L1    11  0.12

> <Gold.Chemscore.Hbond.Weighted>
-10.1126

> <Gold.Chemscore.Metal.Weighted>
-0.0000

> <Gold.Chemscore.Lipo.Weighted>
-7.6714

> <Gold.Chemscore.Internal_Hbond.Weighted>
0.0000

> <Gold.Chemscore.DEClash.Weighted>
1.5380

> <Gold.Chemscore.DEInternal.Weighted>
4.8090

> <Gold.Chemscore.Rot.Weighted>
10.3662

> <Gold.Chemscore.Internal.Correction.Weighted>
   9.000000E+99

> <Gold.Protein.RotatedTorsions>
[ 6907 6896 6895 6894 ] final   45.74 input  -60.11 | X-H torsion
[ 7974 7965 7964 7962 ] final   16.53 input  175.53 | X-H torsion
[ 8008 7997 7996 7995 ] final -104.31 input   59.86 | X-H torsion
[ 10167 10162 10161 10158 ] final  173.12 input  -65.29 | X-H torsion
[ 10718 10713 10712 10709 ] final   87.72 input   66.30 | X-H torsion
[ 10763 10752 10751 10750 ] final   99.04 input  -60.55 | X-H torsion
[ 11005 11000 10999 10996 ] final  -55.91 input  -57.11 | X-H torsion

> <Gold.Protein.ActiveResidues>
 VAL166  LYS551  ARG553  GLY616  TRP617  ASP618  TYR619  PRO620  LYS621  CYS622 
 ASP623  PHE694  ASN695  SER759  ASP760  ASP761  ALA762  ILE779  LEU786  VAL792 
 PHE793  MET794  SER795  GLU796  ALA797  LYS798  CYS799  TRP800  GLU811  SER814 

> <Gold.Protein.RotatedAtoms>
  152.2482  134.8160  160.0449 H   0  0  0  0  0  0  0  0  0  0  0  0  # atno 6907 bound_to 6896
  151.8850  133.3498  159.3787 H   0  0  0  0  0  0  0  0  0  0  0  0  # atno 6908 bound_to 6896
  150.7075  134.4907  159.5558 H   0  0  0  0  0  0  0  0  0  0  0  0  # atno 6909 bound_to 6896
  146.2247  139.8735  142.8583 H   0  0  0  0  0  0  0  0  0  0  0  0  # atno 7974 bound_to 7965
  154.8835  140.0418  157.1796 H   0  0  0  0  0  0  0  0  0  0  0  0  # atno 8008 bound_to 7997
  154.8614  140.2944  155.5516 H   0  0  0  0  0  0  0  0  0  0  0  0  # atno 8009 bound_to 7997
  156.2998  140.2446  156.3589 H   0  0  0  0  0  0  0  0  0  0  0  0  # atno 8010 bound_to 7997
  139.5098  144.3297  152.0123 H   0  0  0  0  0  0  0  0  0  0  0  0  # atno 10167 bound_to 10162
  157.6943  131.0267  150.3167 H   0  0  0  0  0  0  0  0  0  0  0  0  # atno 10718 bound_to 10713
  153.2965  135.4127  155.1214 H   0  0  0  0  0  0  0  0  0  0  0  0  # atno 10763 bound_to 10752
  154.8536  135.3531  154.5910 H   0  0  0  0  0  0  0  0  0  0  0  0  # atno 10764 bound_to 10752
  153.6334  135.7060  153.5325 H   0  0  0  0  0  0  0  0  0  0  0  0  # atno 10765 bound_to 10752
  141.1096  133.6611  156.4541 H   0  0  0  0  0  0  0  0  0  0  0  0  # atno 11005 bound_to 11000
  145.2585  141.0069  143.3840 LP  0  0  0  0  0  0  0  0  0  0  0  0  # atno 17320 bound_to 7965
  144.9318  139.4290  143.6491 LP  0  0  0  0  0  0  0  0  0  0  0  0  # atno 17321 bound_to 7965
  140.2737  144.3936  150.6142 LP  0  0  0  0  0  0  0  0  0  0  0  0  # atno 17342 bound_to 10162
  140.6070  143.2168  151.6962 LP  0  0  0  0  0  0  0  0  0  0  0  0  # atno 17343 bound_to 10162
  156.3660  130.3855  149.7213 LP  0  0  0  0  0  0  0  0  0  0  0  0  # atno 17370 bound_to 10713
  156.4643  130.7967  151.2986 LP  0  0  0  0  0  0  0  0  0  0  0  0  # atno 17371 bound_to 10713
  140.4811  134.6664  157.5171 LP  0  0  0  0  0  0  0  0  0  0  0  0  # atno 17394 bound_to 11000
  139.9983  134.6877  155.9573 LP  0  0  0  0  0  0  0  0  0  0  0  0  # atno 17395 bound_to 11000

$$$$
