AV-unprocessed.smi:1973|AV-procd|sdf|7979|dock10
  -GOLD-   2272010163D 1   1.00000     0.00000
 Structure written by MMmdl.
 48 50  0  0  0  0  0  0  0  0  2 V2000
  153.0000  141.9451  159.6478 C   0  0  0  0  0  0  0  0  0  0  0  0
  152.1066  140.8578  159.4821 O   0  0  0  0  0  0  0  0  0  0  0  0
  152.0648  140.3889  158.1451 C   0  0  0  0  0  0  0  0  0  0  0  0
  150.7770  139.5762  157.9419 C   0  0  0  0  0  0  0  0  0  0  0  0
  150.8534  138.7362  156.7423 N   0  0  0  0  0  0  0  0  0  0  0  0
  150.7268  137.3794  156.9924 N   0  0  0  0  0  0  0  0  0  0  0  0
  150.7800  136.5311  156.0165 C   0  0  0  0  0  0  0  0  0  0  0  0
  150.6481  135.0645  156.2418 C   0  0  0  0  0  0  0  0  0  0  0  0
  150.8861  134.5499  157.3357 O   0  0  0  0  0  0  0  0  0  0  0  0
  150.2546  134.3488  155.1728 N   0  0  0  0  0  0  0  0  0  0  0  0
  150.0459  132.9046  155.1591 C   0  0  0  0  0  0  0  0  0  0  0  0
  148.7077  132.5176  154.5016 C   0  0  1  0  0  0  0  0  0  0  0  0
  148.3737  133.3239  153.2500 C   0  0  0  0  0  0  0  0  0  0  0  0
  147.3275  132.4498  152.5646 C   0  0  0  0  0  0  0  0  0  0  0  0
  147.7528  131.0570  152.8198 N   0  3  2  0  0  0  0  0  0  0  0  0
  146.6348  130.0925  152.8917 C   0  0  0  0  0  0  0  0  0  0  0  0
  146.7303  128.9819  151.8729 C   0  0  0  0  0  0  0  0  0  0  0  0
  145.7424  130.1112  151.6740 C   0  0  0  0  0  0  0  0  0  0  0  0
  148.6274  131.0622  154.0160 C   0  0  0  0  0  0  0  0  0  0  0  0
  150.9726  136.9818  154.6483 C   0  0  0  0  0  0  0  0  0  0  0  0
  151.1020  138.3073  154.4214 C   0  0  0  0  0  0  0  0  0  0  0  0
  151.0503  139.2876  155.5068 C   0  0  0  0  0  0  0  0  0  0  0  0
  151.1762  140.4984  155.3264 O   0  0  0  0  0  0  0  0  0  0  0  0
  153.0018  142.2629  160.6904 H   0  0  0  0  0  0  0  0  0  0  0  0
  152.7001  142.7979  159.0373 H   0  0  0  0  0  0  0  0  0  0  0  0
  154.0191  141.6637  159.3797 H   0  0  0  0  0  0  0  0  0  0  0  0
  152.0939  141.2331  157.4543 H   0  0  0  0  0  0  0  0  0  0  0  0
  152.9377  139.7663  157.9423 H   0  0  0  0  0  0  0  0  0  0  0  0
  150.5982  138.9544  158.8209 H   0  0  0  0  0  0  0  0  0  0  0  0
  149.9178  140.2469  157.8826 H   0  0  0  0  0  0  0  0  0  0  0  0
  150.0727  134.8470  154.3131 H   0  0  0  0  0  0  0  0  0  0  0  0
  150.8749  132.4156  154.6449 H   0  0  0  0  0  0  0  0  0  0  0  0
  150.0731  132.5505  156.1902 H   0  0  0  0  0  0  0  0  0  0  0  0
  147.8991  132.6785  155.2172 H   0  0  0  0  0  0  0  0  0  0  0  0
  148.0047  134.3248  153.4756 H   0  0  0  0  0  0  0  0  0  0  0  0
  149.2536  133.4217  152.6125 H   0  0  0  0  0  0  0  0  0  0  0  0
  146.3518  132.6292  153.0197 H   0  0  0  0  0  0  0  0  0  0  0  0
  147.2426  132.6538  151.4969 H   0  0  0  0  0  0  0  0  0  0  0  0
  146.2208  129.9012  153.8803 H   0  0  0  0  0  0  0  0  0  0  0  0
  147.6016  128.9544  151.2206 H   0  0  0  0  0  0  0  0  0  0  0  0
  146.3263  128.0101  152.1490 H   0  0  0  0  0  0  0  0  0  0  0  0
  144.6887  129.8825  151.8205 H   0  0  0  0  0  0  0  0  0  0  0  0
  145.9566  130.8340  150.8887 H   0  0  0  0  0  0  0  0  0  0  0  0
  149.6089  130.6958  153.7130 H   0  0  0  0  0  0  0  0  0  0  0  0
  148.2618  130.4026  154.8050 H   0  0  0  0  0  0  0  0  0  0  0  0
  151.0156  136.2808  153.8273 H   0  0  0  0  0  0  0  0  0  0  0  0
  151.2480  138.6563  153.4098 H   0  0  0  0  0  0  0  0  0  0  0  0
  148.3381  130.7844  152.0429 H   0  0  0  0  0  0  0  0  0  0  0  0
  1  2  1  0  0  0  0
  1 24  1  0  0  0  0
  1 25  1  0  0  0  0
  1 26  1  0  0  0  0
  2  3  1  0  0  0  0
  3  4  1  0  0  0  0
  3 27  1  0  0  0  0
  3 28  1  0  0  0  0
  4  5  1  0  0  0  0
  4 29  1  0  0  0  0
  4 30  1  0  0  0  0
  5 22  1  0  0  0  0
  5  6  1  0  0  0  0
  6  7  2  0  0  0  0
  7  8  1  0  0  0  0
  7 20  1  0  0  0  0
  8  9  2  0  0  0  0
  8 10  1  0  0  0  0
 10 11  1  0  0  0  0
 10 31  1  0  0  0  0
 11 12  1  0  0  0  0
 11 32  1  0  0  0  0
 11 33  1  0  0  0  0
 12 19  1  0  0  0  0
 12 13  1  0  0  0  0
 12 34  1  0  0  0  0
 13 14  1  0  0  0  0
 13 35  1  0  0  0  0
 13 36  1  0  0  0  0
 14 15  1  0  0  0  0
 14 37  1  0  0  0  0
 14 38  1  0  0  0  0
 15 16  1  0  0  0  0
 15 19  1  0  0  0  0
 15 48  1  0  0  0  0
 16 18  1  0  0  0  0
 16 17  1  0  0  0  0
 16 39  1  0  0  0  0
 17 18  1  0  0  0  0
 17 40  1  0  0  0  0
 17 41  1  0  0  0  0
 18 42  1  0  0  0  0
 18 43  1  0  0  0  0
 19 44  1  0  0  0  0
 19 45  1  0  0  0  0
 20 21  2  0  0  0  0
 20 46  1  0  0  0  0
 21 22  1  0  0  0  0
 21 47  1  0  0  0  0
 22 23  2  0  0  0  0
M  CHG  1  15   1
M  END
> <s_m_source_file>
AV-unprocessed.smi

> <i_m_source_file_index>
1973

> <i_lp_mmshare_version>
43012

> <i_f3d_flags>
0

> <s_epik_input>
W0NIM11PW0NIMl1bQ0gyXW4xbmMoW2NIXVtjSF1jMT1PKUMoPU8pW05IXVtDSDJdW0NAQEhdMltDSDJdW0NIMl1OKFtDSDJdMilbQ0hdM1tDSDJdW0NIMl0z

> <s_epik_cmdline>
J2VwaWtfcHl0aG9uJywgJy1waCcsICc3LjAnLCAnLXRuJywgJzgnLCAnLW1hJywgJzIwMCcsICctbWV0YWxfYmluZGluZycsICctaW1hZScsICc8aW5maWxlLm1hZT4nLCAnLW9tYWUnLCAnPG91dGZpbGUubWFlPic=

> <r_lp_tautomer_probability>
1

> <r_epik_Ionization_Penalty>
0.000225706

> <r_epik_Ionization_Penalty_Charging>
0.000223776

> <r_epik_Ionization_Penalty_Neutral>
1.93004e-06

> <r_epik_State_Penalty>
-0

> <r_epik_Charging_Adjusted_Penalty>
0.000223776

> <i_epik_Tot_Q>
1

> <i_epik_Tot_abs_Q>
1

> <r_epik_Metal_State_Penalty>
-0

> <b_epik_Metal_Only>
0

> <s_lp_Force_Field>
OPLS_2005

> <r_lp_Energy>
57.1885

> <b_lp_Chiralities_Consistent>
1

> <s_lp_Variant>
AV-unprocessed.smi:1973-4

> <Gold.Version>
5.8.1

> <Gold.Id.Protein>
6NUR|6NUR_protein|mol2

> <Gold.PLP.Fitness>
46.7479

> <Gold.PLP.PLP>
-41.5906

> <Gold.PLP.part.hbond>
-3.0000

> <Gold.PLP.part.metal>
0.0000

> <Gold.PLP.part.buried>
-4.8860

> <Gold.PLP.part.nonpolar>
-34.0451

> <Gold.PLP.part.repulsive>
0.1062

> <Gold.PLP.ligand.clash>
0.0000

> <Gold.PLP.ligand.torsion>
1.3716

> <Gold.PLP.Chemscore.Hbond>
2.1712

> <Gold.PLP.Chemscore.CHOScore>
0.0000

> <Gold.PLP.Chemscore.Metal>
0.0000

> <Gold.Chemscore.Hbonds>
donor molecule, donor type, donor heavy atom, donor atom, acceptor molecule, acceptor atom, score
      L1  H    15    48       P1 10747  1.00
      P1  H  6896  6907       L1     9  0.33
      P1  H  7989  7998       L1    23  0.93

> <Gold.PLP.Chemscore.Internal.Correction>
1.3868

> <Gold.Rescore>
     Score         DG    S(hbond)    S(metal)    S(lipo)     H(rot)  DE(clash)    DE(int)     intcor
     16.56     -18.58       2.12        0.00      94.56       1.97       0.26       1.76       ----

> <Gold.Chemscore.Fitness>
16.5624

> <Gold.Chemscore.DG>
-18.5771

> <Gold.Chemscore.ZeroCoef>
-5.4800

> <Gold.Chemscore.Hbond>
2.1198

> <Gold.Chemscore.Metal>
0.0000

> <Gold.Chemscore.Lipo>
94.5550

> <Gold.Chemscore.Internal_Hbond>
0.0000

> <Gold.Chemscore.DEClash>
0.2567

> <Gold.Chemscore.DEInternal>
1.7580

> <Gold.Chemscore.Rot>
1.9711

> <Gold.Chemscore.Internal.Correction>
   9.000000E+99

> <Gold.Chemscore.Hbonds>
donor molecule, donor type, donor heavy atom, donor atom, acceptor molecule, acceptor atom, score
      L1  H    15    48       P1 10747  0.97
      P1  H  6896  6907       L1     9  0.32
      P1  H  7989  7998       L1    23  0.71

> <Gold.Chemscore.Hbond.Weighted>
-7.0802

> <Gold.Chemscore.Metal.Weighted>
-0.0000

> <Gold.Chemscore.Lipo.Weighted>
-11.0629

> <Gold.Chemscore.Internal_Hbond.Weighted>
0.0000

> <Gold.Chemscore.DEClash.Weighted>
0.2567

> <Gold.Chemscore.DEInternal.Weighted>
1.7580

> <Gold.Chemscore.Rot.Weighted>
5.0460

> <Gold.Chemscore.Internal.Correction.Weighted>
   9.000000E+99

> <Gold.Protein.RotatedTorsions>
[ 6907 6896 6895 6894 ] final  -95.87 input  -60.11 | X-H torsion
[ 7974 7965 7964 7962 ] final   48.11 input  175.53 | X-H torsion
[ 8008 7997 7996 7995 ] final   31.02 input   59.86 | X-H torsion
[ 10167 10162 10161 10158 ] final  -43.84 input  -65.29 | X-H torsion
[ 10718 10713 10712 10709 ] final   44.21 input   66.30 | X-H torsion
[ 10763 10752 10751 10750 ] final -122.97 input  -60.55 | X-H torsion
[ 11005 11000 10999 10996 ] final -117.66 input  -57.11 | X-H torsion

> <Gold.Protein.ActiveResidues>
 VAL166  LYS551  ARG553  GLY616  TRP617  ASP618  TYR619  PRO620  LYS621  CYS622 
 ASP623  PHE694  ASN695  SER759  ASP760  ASP761  ALA762  ILE779  LEU786  VAL792 
 PHE793  MET794  SER795  GLU796  ALA797  LYS798  CYS799  TRP800  GLU811  SER814 

> <Gold.Protein.RotatedAtoms>
  150.6974  134.1590  159.4168 H   0  0  0  0  0  0  0  0  0  0  0  0  # atno 6907 bound_to 6896
  151.9571  135.0139  160.0555 H   0  0  0  0  0  0  0  0  0  0  0  0  # atno 6908 bound_to 6896
  152.1959  133.4771  159.5069 H   0  0  0  0  0  0  0  0  0  0  0  0  # atno 6909 bound_to 6896
  146.0235  139.4678  142.9882 H   0  0  0  0  0  0  0  0  0  0  0  0  # atno 7974 bound_to 7965
  155.0997  140.3228  155.4550 H   0  0  0  0  0  0  0  0  0  0  0  0  # atno 8008 bound_to 7997
  156.2720  140.2063  156.6070 H   0  0  0  0  0  0  0  0  0  0  0  0  # atno 8009 bound_to 7997
  154.6838  140.0523  157.0281 H   0  0  0  0  0  0  0  0  0  0  0  0  # atno 8010 bound_to 7997
  140.6919  143.2961  151.3409 H   0  0  0  0  0  0  0  0  0  0  0  0  # atno 10167 bound_to 10162
  157.4243  130.7988  149.7544 H   0  0  0  0  0  0  0  0  0  0  0  0  # atno 10718 bound_to 10713
  154.8699  135.4114  154.2868 H   0  0  0  0  0  0  0  0  0  0  0  0  # atno 10763 bound_to 10752
  153.3751  135.7009  153.6614 H   0  0  0  0  0  0  0  0  0  0  0  0  # atno 10764 bound_to 10752
  153.5459  135.3638  155.2710 H   0  0  0  0  0  0  0  0  0  0  0  0  # atno 10765 bound_to 10752
  141.0339  133.9939  157.3100 H   0  0  0  0  0  0  0  0  0  0  0  0  # atno 11005 bound_to 11000
  145.7156  141.0092  143.1430 LP  0  0  0  0  0  0  0  0  0  0  0  0  # atno 17320 bound_to 7965
  144.6999  139.8809  143.7447 LP  0  0  0  0  0  0  0  0  0  0  0  0  # atno 17321 bound_to 7965
  139.6331  144.0682  152.2493 LP  0  0  0  0  0  0  0  0  0  0  0  0  # atno 17342 bound_to 10162
  140.0163  144.6186  150.7604 LP  0  0  0  0  0  0  0  0  0  0  0  0  # atno 17343 bound_to 10162
  155.9891  130.3954  150.3087 LP  0  0  0  0  0  0  0  0  0  0  0  0  # atno 17370 bound_to 10713
  157.1238  131.0254  151.2998 LP  0  0  0  0  0  0  0  0  0  0  0  0  # atno 17371 bound_to 10713
  139.9227  135.0201  156.8123 LP  0  0  0  0  0  0  0  0  0  0  0  0  # atno 17394 bound_to 11000
  140.6357  133.9865  155.7683 LP  0  0  0  0  0  0  0  0  0  0  0  0  # atno 17395 bound_to 11000

$$$$
