AV-unprocessed.smi:2994|AV-procd|sdf|11404|dock1
  -GOLD-   2272016323D 1   1.00000     0.00000
 Structure written by MMmdl.
 47 49  0  0  0  0  0  0  0  0  1 V2000
  144.8549  137.1453  154.2272 C   0  0  0  0  0  0  0  0  0  0  0  0
  145.8289  136.1994  153.5053 C   0  0  2  0  0  0  0  0  0  0  0  0
  147.1844  136.7395  153.5650 N   0  0  0  0  0  0  0  0  0  0  0  0
  147.7467  137.3195  154.6355 C   0  0  0  0  0  0  0  0  0  0  0  0
  147.1642  137.4687  155.7092 O   0  0  0  0  0  0  0  0  0  0  0  0
  149.0022  137.7173  154.3653 N   0  0  0  0  0  0  0  0  0  0  0  0
  149.9268  138.3991  155.2037 C   0  0  0  0  0  0  0  0  0  0  0  0
  151.0658  139.1023  154.7431 C   0  0  0  0  0  0  0  0  0  0  0  0
  151.8980  139.7399  155.6828 C   0  0  0  0  0  0  0  0  0  0  0  0
  151.5682  139.6566  157.0540 C   0  0  0  0  0  0  0  0  0  0  0  0
  152.4200  140.3408  158.0830 C   0  0  0  0  0  0  0  0  0  0  0  0
  153.5286  139.8686  158.3391 O   0  0  0  0  0  0  0  0  0  0  0  0
  151.9234  141.4432  158.6995 N   0  0  0  0  0  0  0  0  0  0  0  0
  150.7716  142.2379  158.2430 C   0  0  0  0  0  0  0  0  0  0  0  0
  151.2801  143.5749  157.6719 C   0  0  0  0  0  0  0  0  0  0  0  0
  152.1327  144.3328  158.7062 C   0  0  0  0  0  0  0  0  0  0  0  0
  153.2285  143.4314  159.3031 C   0  0  0  0  0  0  0  0  0  0  0  0
  152.6324  142.1035  159.8040 C   0  0  0  0  0  0  0  0  0  0  0  0
  150.4680  139.0090  157.4979 N   0  0  0  0  0  0  0  0  0  0  0  0
  149.6759  138.3984  156.5918 C   0  0  0  0  0  0  0  0  0  0  0  0
  145.3708  135.9409  152.0823 C   0  0  0  0  0  0  0  0  0  0  0  0
  144.2958  134.9233  151.7843 C   0  0  0  0  0  0  0  0  0  0  0  0
  145.7251  134.6597  151.3663 C   0  0  0  0  0  0  0  0  0  0  0  0
  143.8414  136.7433  154.2195 H   0  0  0  0  0  0  0  0  0  0  0  0
  144.8269  138.1258  153.7508 H   0  0  0  0  0  0  0  0  0  0  0  0
  145.1375  137.2897  155.2704 H   0  0  0  0  0  0  0  0  0  0  0  0
  145.8176  135.2409  154.0281 H   0  0  0  0  0  0  0  0  0  0  0  0
  147.7374  136.6625  152.7241 H   0  0  0  0  0  0  0  0  0  0  0  0
  149.3171  137.5625  153.4188 H   0  0  0  0  0  0  0  0  0  0  0  0
  151.3158  139.1790  153.6971 H   0  0  0  0  0  0  0  0  0  0  0  0
  152.7718  140.2834  155.3538 H   0  0  0  0  0  0  0  0  0  0  0  0
  150.1643  141.7436  157.4869 H   0  0  0  0  0  0  0  0  0  0  0  0
  150.1040  142.4192  159.0864 H   0  0  0  0  0  0  0  0  0  0  0  0
  151.8749  143.3840  156.7776 H   0  0  0  0  0  0  0  0  0  0  0  0
  150.4390  144.1933  157.3573 H   0  0  0  0  0  0  0  0  0  0  0  0
  152.5775  145.2195  158.2534 H   0  0  0  0  0  0  0  0  0  0  0  0
  151.4862  144.6885  159.5094 H   0  0  0  0  0  0  0  0  0  0  0  0
  153.9882  143.2276  158.5472 H   0  0  0  0  0  0  0  0  0  0  0  0
  153.7337  143.9482  160.1197 H   0  0  0  0  0  0  0  0  0  0  0  0
  151.9308  142.2918  160.6179 H   0  0  0  0  0  0  0  0  0  0  0  0
  153.4181  141.4791  160.2318 H   0  0  0  0  0  0  0  0  0  0  0  0
  148.8119  137.8878  156.9918 H   0  0  0  0  0  0  0  0  0  0  0  0
  145.3475  136.8371  151.4647 H   0  0  0  0  0  0  0  0  0  0  0  0
  143.9015  134.3421  152.6157 H   0  0  0  0  0  0  0  0  0  0  0  0
  143.5784  135.1662  151.0030 H   0  0  0  0  0  0  0  0  0  0  0  0
  145.9588  134.7250  150.3056 H   0  0  0  0  0  0  0  0  0  0  0  0
  146.2790  133.9047  151.9206 H   0  0  0  0  0  0  0  0  0  0  0  0
  1  2  1  0  0  0  0
  1 24  1  0  0  0  0
  1 25  1  0  0  0  0
  1 26  1  0  0  0  0
  2  3  1  0  0  0  0
  2 21  1  0  0  0  0
  2 27  1  0  0  0  0
  3  4  1  0  0  0  0
  3 28  1  0  0  0  0
  4  5  2  0  0  0  0
  4  6  1  0  0  0  0
  6  7  1  0  0  0  0
  6 29  1  0  0  0  0
  7 20  1  0  0  0  0
  7  8  2  0  0  0  0
  8  9  1  0  0  0  0
  8 30  1  0  0  0  0
  9 10  2  0  0  0  0
  9 31  1  0  0  0  0
 10 11  1  0  0  0  0
 10 19  1  0  0  0  0
 11 12  2  0  0  0  0
 11 13  1  0  0  0  0
 13 18  1  0  0  0  0
 13 14  1  0  0  0  0
 14 15  1  0  0  0  0
 14 32  1  0  0  0  0
 14 33  1  0  0  0  0
 15 16  1  0  0  0  0
 15 34  1  0  0  0  0
 15 35  1  0  0  0  0
 16 17  1  0  0  0  0
 16 36  1  0  0  0  0
 16 37  1  0  0  0  0
 17 18  1  0  0  0  0
 17 38  1  0  0  0  0
 17 39  1  0  0  0  0
 18 40  1  0  0  0  0
 18 41  1  0  0  0  0
 19 20  2  0  0  0  0
 20 42  1  0  0  0  0
 21 23  1  0  0  0  0
 21 22  1  0  0  0  0
 21 43  1  0  0  0  0
 22 23  1  0  0  0  0
 22 44  1  0  0  0  0
 22 45  1  0  0  0  0
 23 46  1  0  0  0  0
 23 47  1  0  0  0  0
M  END
> <s_m_source_file>
AV-unprocessed.smi

> <i_m_source_file_index>
2994

> <i_lp_mmshare_version>
43012

> <i_f3d_flags>
0

> <s_epik_input>
W0NIMl0xW0NIMl1bQ0hdMVtDQEhdKFtDSDNdKVtOSF1DKD1PKVtOSF1jMltjSF1bY0hdYyhuW2NIXTIpQyg9TylOM1tDSDJdW0NIMl1bQ0gyXVtDSDJdW0NIMl0z

> <s_epik_cmdline>
J2VwaWtfcHl0aG9uJywgJy1waCcsICc3LjAnLCAnLXRuJywgJzgnLCAnLW1hJywgJzIwMCcsICctbWV0YWxfYmluZGluZycsICctaW1hZScsICc8aW5maWxlLm1hZT4nLCAnLW9tYWUnLCAnPG91dGZpbGUubWFlPic=

> <r_lp_tautomer_probability>
1

> <r_epik_Ionization_Penalty>
4.52104e-05

> <r_epik_Ionization_Penalty_Charging>
0

> <r_epik_Ionization_Penalty_Neutral>
4.52104e-05

> <r_epik_State_Penalty>
-0

> <r_epik_Charging_Adjusted_Penalty>
0

> <i_epik_Tot_Q>
0

> <i_epik_Tot_abs_Q>
0

> <r_epik_Metal_State_Penalty>
-0

> <b_epik_Metal_Only>
0

> <s_lp_Force_Field>
OPLS_2005

> <r_lp_Energy>
45.7479

> <b_lp_Chiralities_Consistent>
1

> <s_lp_Variant>
AV-unprocessed.smi:2994-1

> <Gold.Version>
5.8.1

> <Gold.Id.Protein>
6NUR|6NUR_protein|mol2

> <Gold.PLP.Fitness>
47.5014

> <Gold.PLP.PLP>
-41.6289

> <Gold.PLP.part.hbond>
-2.8300

> <Gold.PLP.part.metal>
0.0000

> <Gold.PLP.part.buried>
-3.9967

> <Gold.PLP.part.nonpolar>
-35.0151

> <Gold.PLP.part.repulsive>
0.0478

> <Gold.PLP.ligand.clash>
0.0000

> <Gold.PLP.ligand.torsion>
2.2199

> <Gold.PLP.Chemscore.Hbond>
2.7680

> <Gold.PLP.Chemscore.CHOScore>
0.0000

> <Gold.PLP.Chemscore.Metal>
0.0000

> <Gold.Chemscore.Hbonds>
donor molecule, donor type, donor heavy atom, donor atom, acceptor molecule, acceptor atom, score
      L1  H     3    28       P1  7948  1.00
      L1  H     6    29       P1  7948  0.74
      P1  H  7997  8010       L1    12  1.00

> <Gold.PLP.Chemscore.Internal.Correction>
2.0084

> <Gold.Rescore>
     Score         DG    S(hbond)    S(metal)    S(lipo)     H(rot)  DE(clash)    DE(int)     intcor
     20.56     -23.85       2.85        0.00     100.76       1.14       0.02       3.28       ----

> <Gold.Chemscore.Fitness>
20.5607

> <Gold.Chemscore.DG>
-23.8539

> <Gold.Chemscore.ZeroCoef>
-5.4800

> <Gold.Chemscore.Hbond>
2.8453

> <Gold.Chemscore.Metal>
0.0000

> <Gold.Chemscore.Lipo>
100.7567

> <Gold.Chemscore.Internal_Hbond>
0.0000

> <Gold.Chemscore.DEClash>
0.0154

> <Gold.Chemscore.DEInternal>
3.2777

> <Gold.Chemscore.Rot>
1.1399

> <Gold.Chemscore.Internal.Correction>
   9.000000E+99

> <Gold.Chemscore.Hbonds>
donor molecule, donor type, donor heavy atom, donor atom, acceptor molecule, acceptor atom, score
      L1  H     3    28       P1  7948  0.94
      L1  H     6    29       P1  7948  0.70
      P1  H  7997  8010       L1    12  0.92

> <Gold.Chemscore.Hbond.Weighted>
-9.5034

> <Gold.Chemscore.Metal.Weighted>
-0.0000

> <Gold.Chemscore.Lipo.Weighted>
-11.7885

> <Gold.Chemscore.Internal_Hbond.Weighted>
0.0000

> <Gold.Chemscore.DEClash.Weighted>
0.0154

> <Gold.Chemscore.DEInternal.Weighted>
3.2777

> <Gold.Chemscore.Rot.Weighted>
2.9180

> <Gold.Chemscore.Internal.Correction.Weighted>
   9.000000E+99

> <Gold.Protein.RotatedTorsions>
[ 6907 6896 6895 6894 ] final -172.45 input  -60.11 | X-H torsion
[ 7974 7965 7964 7962 ] final  120.21 input  175.53 | X-H torsion
[ 8008 7997 7996 7995 ] final   25.94 input   59.86 | X-H torsion
[ 10167 10162 10161 10158 ] final  -53.12 input  -65.29 | X-H torsion
[ 10718 10713 10712 10709 ] final  -31.61 input   66.30 | X-H torsion
[ 10763 10752 10751 10750 ] final  -79.19 input  -60.55 | X-H torsion
[ 11005 11000 10999 10996 ] final  137.37 input  -57.11 | X-H torsion

> <Gold.Protein.ActiveResidues>
 VAL166  LYS551  ARG553  GLY616  TRP617  ASP618  TYR619  PRO620  LYS621  CYS622 
 ASP623  PHE694  ASN695  SER759  ASP760  ASP761  ALA762  ILE779  LEU786  VAL792 
 PHE793  MET794  SER795  GLU796  ALA797  LYS798  CYS799  TRP800  GLU811  SER814 

> <Gold.Protein.RotatedAtoms>
  151.5401  133.3434  159.2933 H   0  0  0  0  0  0  0  0  0  0  0  0  # atno 6907 bound_to 6896
  150.8541  134.7877  159.7042 H   0  0  0  0  0  0  0  0  0  0  0  0  # atno 6908 bound_to 6896
  152.4579  134.5259  159.9848 H   0  0  0  0  0  0  0  0  0  0  0  0  # atno 6909 bound_to 6896
  145.1338  139.3310  143.4651 H   0  0  0  0  0  0  0  0  0  0  0  0  # atno 7974 bound_to 7965
  155.0196  140.3146  155.4798 H   0  0  0  0  0  0  0  0  0  0  0  0  # atno 8008 bound_to 7997
  156.2894  140.2200  156.5255 H   0  0  0  0  0  0  0  0  0  0  0  0  # atno 8009 bound_to 7997
  154.7463  140.0469  157.0843 H   0  0  0  0  0  0  0  0  0  0  0  0  # atno 8010 bound_to 7997
  140.6501  143.2560  151.4747 H   0  0  0  0  0  0  0  0  0  0  0  0  # atno 10167 bound_to 10162
  156.3851  130.4363  149.7438 H   0  0  0  0  0  0  0  0  0  0  0  0  # atno 10718 bound_to 10713
  154.5355  135.5704  153.6795 H   0  0  0  0  0  0  0  0  0  0  0  0  # atno 10763 bound_to 10752
  152.9950  135.6215  154.2572 H   0  0  0  0  0  0  0  0  0  0  0  0  # atno 10764 bound_to 10752
  154.2500  135.2859  155.2800 H   0  0  0  0  0  0  0  0  0  0  0  0  # atno 10765 bound_to 10752
  140.0110  134.9439  157.0277 H   0  0  0  0  0  0  0  0  0  0  0  0  # atno 11005 bound_to 11000
  146.3511  140.1348  142.8596 LP  0  0  0  0  0  0  0  0  0  0  0  0  # atno 17320 bound_to 7965
  145.0606  140.9085  143.4941 LP  0  0  0  0  0  0  0  0  0  0  0  0  # atno 17321 bound_to 7965
  139.5715  144.1916  152.1844 LP  0  0  0  0  0  0  0  0  0  0  0  0  # atno 17342 bound_to 10162
  140.1214  144.5370  150.6860 LP  0  0  0  0  0  0  0  0  0  0  0  0  # atno 17343 bound_to 10162
  156.4514  130.7908  151.2929 LP  0  0  0  0  0  0  0  0  0  0  0  0  # atno 17370 bound_to 10713
  157.7495  131.0094  150.3267 LP  0  0  0  0  0  0  0  0  0  0  0  0  # atno 17371 bound_to 10713
  140.4555  134.1538  155.7186 LP  0  0  0  0  0  0  0  0  0  0  0  0  # atno 17394 bound_to 11000
  141.1710  133.8608  157.1569 LP  0  0  0  0  0  0  0  0  0  0  0  0  # atno 17395 bound_to 11000

$$$$
