AV-unprocessed.smi:101|AV-procd|sdf|942|dock9
  -GOLD-   2262017463D 1   1.00000     0.00000
 Structure written by MMmdl.
 43 45  0  0  0  0  0  0  0  0  2 V2000
  143.6981  144.5789  155.9354 C   0  0  0  0  0  0  0  0  0  0  0  0
  144.7381  143.4788  156.0552 C   0  0  0  0  0  0  0  0  0  0  0  0
  145.6240  143.2137  155.0698 C   0  0  0  0  0  0  0  0  0  0  0  0
  146.5714  142.2114  155.1850 N   0  0  0  0  0  0  0  0  0  0  0  0
  147.5610  141.9466  154.0724 C   0  0  1  0  0  0  0  0  0  0  0  0
  148.8459  141.8479  154.6173 O   0  0  0  0  0  0  0  0  0  0  0  0
  149.4567  140.6227  154.2276 C   0  0  1  0  0  0  0  0  0  0  0  0
  150.4171  140.1619  155.3314 C   0  0  0  0  0  0  0  0  0  0  0  0
  150.7679  141.2664  156.1488 O   0  0  0  0  0  0  0  0  0  0  0  0
  151.7181  141.1335  157.0935 C   0  0  0  0  0  0  0  0  0  0  0  0
  152.4066  140.1202  157.2314 O   0  0  0  0  0  0  0  0  0  0  0  0
  151.8497  142.3423  157.9569 C   0  0  0  0  0  0  0  0  0  0  0  0
  152.5691  142.2518  159.1715 C   0  0  0  0  0  0  0  0  0  0  0  0
  152.7101  143.3767  160.0072 C   0  0  0  0  0  0  0  0  0  0  0  0
  152.1354  144.6067  159.6375 C   0  0  0  0  0  0  0  0  0  0  0  0
  151.4187  144.7103  158.4310 C   0  0  0  0  0  0  0  0  0  0  0  0
  151.2753  143.5861  157.5945 C   0  0  0  0  0  0  0  0  0  0  0  0
  148.2754  139.6840  153.9819 C   0  0  2  0  0  0  0  0  0  0  0  0
  148.5873  138.5912  153.1387 O   0  0  0  0  0  0  0  0  0  0  0  0
  147.2321  140.6154  153.3790 C   0  0  2  0  0  0  0  0  0  0  0  0
  147.3504  140.7403  151.9732 O   0  0  0  0  0  0  0  0  0  0  0  0
  146.6508  141.4548  156.3829 C   0  0  0  0  0  0  0  0  0  0  0  0
  147.5375  140.6052  156.4733 O   0  0  0  0  0  0  0  0  0  0  0  0
  145.7545  141.7080  157.3787 N   0  5  0  0  0  0  0  0  0  0  0  0
  144.7960  142.6739  157.2815 C   0  0  0  0  0  0  0  0  0  0  0  0
  143.9897  142.8883  158.1862 O   0  0  0  0  0  0  0  0  0  0  0  0
  143.7713  145.0907  154.9757 H   0  0  0  0  0  0  0  0  0  0  0  0
  143.8342  145.3188  156.7245 H   0  0  0  0  0  0  0  0  0  0  0  0
  142.6934  144.1643  156.0210 H   0  0  0  0  0  0  0  0  0  0  0  0
  145.5898  143.8108  154.1711 H   0  0  0  0  0  0  0  0  0  0  0  0
  147.5209  142.8177  153.4163 H   0  0  0  0  0  0  0  0  0  0  0  0
  149.9979  140.8060  153.2976 H   0  0  0  0  0  0  0  0  0  0  0  0
  149.9351  139.4029  155.9486 H   0  0  0  0  0  0  0  0  0  0  0  0
  151.3087  139.7101  154.8940 H   0  0  0  0  0  0  0  0  0  0  0  0
  153.0199  141.3182  159.4761 H   0  0  0  0  0  0  0  0  0  0  0  0
  153.2609  143.2949  160.9327 H   0  0  0  0  0  0  0  0  0  0  0  0
  152.2445  145.4694  160.2781 H   0  0  0  0  0  0  0  0  0  0  0  0
  150.9777  145.6539  158.1457 H   0  0  0  0  0  0  0  0  0  0  0  0
  150.7198  143.7005  156.6751 H   0  0  0  0  0  0  0  0  0  0  0  0
  147.9076  139.3033  154.9359 H   0  0  0  0  0  0  0  0  0  0  0  0
  149.0094  138.9296  152.3635 H   0  0  0  0  0  0  0  0  0  0  0  0
  146.2166  140.2882  153.6082 H   0  0  0  0  0  0  0  0  0  0  0  0
  148.1883  140.3862  151.7152 H   0  0  0  0  0  0  0  0  0  0  0  0
  1  2  1  0  0  0  0
  1 27  1  0  0  0  0
  1 28  1  0  0  0  0
  1 29  1  0  0  0  0
  2 25  1  0  0  0  0
  2  3  2  0  0  0  0
  3  4  1  0  0  0  0
  3 30  1  0  0  0  0
  4  5  1  0  0  0  0
  4 22  1  0  0  0  0
  5 20  1  0  0  0  0
  5  6  1  0  0  0  0
  5 31  1  0  0  0  0
  6  7  1  0  0  0  0
  7  8  1  0  0  0  0
  7 18  1  0  0  0  0
  7 32  1  0  0  0  0
  8  9  1  0  0  0  0
  8 33  1  0  0  0  0
  8 34  1  0  0  0  0
  9 10  1  0  0  0  0
 10 11  2  0  0  0  0
 10 12  1  0  0  0  0
 12 17  1  0  0  0  0
 12 13  2  0  0  0  0
 13 14  1  0  0  0  0
 13 35  1  0  0  0  0
 14 15  2  0  0  0  0
 14 36  1  0  0  0  0
 15 16  1  0  0  0  0
 15 37  1  0  0  0  0
 16 17  2  0  0  0  0
 16 38  1  0  0  0  0
 17 39  1  0  0  0  0
 18 19  1  0  0  0  0
 18 20  1  0  0  0  0
 18 40  1  0  0  0  0
 19 41  1  0  0  0  0
 20 21  1  0  0  0  0
 20 42  1  0  0  0  0
 21 43  1  0  0  0  0
 22 23  2  0  0  0  0
 22 24  1  0  0  0  0
 24 25  1  0  0  0  0
 25 26  2  0  0  0  0
M  CHG  1  24  -1
M  END
> <s_m_source_file>
AV-unprocessed.smi

> <i_m_source_file_index>
101

> <i_lp_mmshare_version>
43012

> <i_f3d_flags>
0

> <s_epik_input>
Tz1jMVtuSF1jKD1PKW4oW2NIXWMxW0NIM10pW0NAQEhdMk9bQ0BIXShbQ0BASF0oW09IXSlbQ0BIXTJbT0hdKVtDSDJdT0MoPU8pYzNbY0hdW2NIXVtjSF1bY0hdW2NIXTM=

> <s_epik_cmdline>
J2VwaWtfcHl0aG9uJywgJy1waCcsICc3LjAnLCAnLXRuJywgJzgnLCAnLW1hJywgJzIwMCcsICctbWV0YWxfYmluZGluZycsICctaW1hZScsICc8aW5maWxlLm1hZT4nLCAnLW9tYWUnLCAnPG91dGZpbGUubWFlPic=

> <r_lp_tautomer_probability>
0.999537

> <r_epik_Ionization_Penalty>
3.21006

> <r_epik_Ionization_Penalty_Charging>
5.75142e-08

> <r_epik_Ionization_Penalty_Neutral>
3.21006

> <r_epik_State_Penalty>
3.20925

> <r_epik_Charging_Adjusted_Penalty>
3.20925

> <i_epik_Tot_Q>
-1

> <i_epik_Tot_abs_Q>
1

> <r_epik_Metal_State_Penalty>
0.119957

> <b_epik_Metal_Only>
1

> <s_epik_Chemistry_Notes>
This compound has an ester and may undergo hydrolysis at high or low pH. This compound contains an acetal/aminal-like group ( X-CH(R)-Y where X, Y are N, S, or O) that may be acid/base labile, releasing an aldehyde.

> <s_lp_Force_Field>
OPLS_2005

> <r_lp_Energy>
44.5591

> <b_lp_Chiralities_Consistent>
1

> <s_lp_Variant>
AV-unprocessed.smi:101-30

> <Gold.Version>
5.8.1

> <Gold.Id.Protein>
6NUR|6NUR_protein|mol2

> <Gold.PLP.Fitness>
53.1931

> <Gold.PLP.PLP>
-46.1856

> <Gold.PLP.part.hbond>
-3.7258

> <Gold.PLP.part.metal>
0.0000

> <Gold.PLP.part.buried>
-5.6703

> <Gold.PLP.part.nonpolar>
-37.2418

> <Gold.PLP.part.repulsive>
0.2460

> <Gold.PLP.ligand.clash>
0.0000

> <Gold.PLP.ligand.torsion>
1.0231

> <Gold.PLP.Chemscore.Hbond>
3.0000

> <Gold.PLP.Chemscore.CHOScore>
0.0000

> <Gold.PLP.Chemscore.Metal>
0.0000

> <Gold.Chemscore.Hbonds>
donor molecule, donor type, donor heavy atom, donor atom, acceptor molecule, acceptor atom, score
      L1  H    19    41       P1  7957  1.00
      L1  H    21    43       P1  7957  1.00
      P1  H  7997  8009       L1    11  0.87

> <Gold.PLP.Chemscore.Internal.Correction>
0.0536

> <Gold.Rescore>
     Score         DG    S(hbond)    S(metal)    S(lipo)     H(rot)  DE(clash)    DE(int)     intcor
     12.92     -18.70       2.75        0.00     105.86       3.27       0.48       5.30       ----

> <Gold.Chemscore.Fitness>
12.9207

> <Gold.Chemscore.DG>
-18.7027

> <Gold.Chemscore.ZeroCoef>
-5.4800

> <Gold.Chemscore.Hbond>
2.7535

> <Gold.Chemscore.Metal>
0.0000

> <Gold.Chemscore.Lipo>
105.8630

> <Gold.Chemscore.Internal_Hbond>
0.0000

> <Gold.Chemscore.DEClash>
0.4784

> <Gold.Chemscore.DEInternal>
5.3036

> <Gold.Chemscore.Rot>
3.2656

> <Gold.Chemscore.Internal.Correction>
   9.000000E+99

> <Gold.Chemscore.Hbonds>
donor molecule, donor type, donor heavy atom, donor atom, acceptor molecule, acceptor atom, score
      L1  H    19    41       P1  7957  0.96
      L1  H    21    43       P1  7957  0.93
      P1  H  7997  8009       L1    11  0.79

> <Gold.Chemscore.Hbond.Weighted>
-9.1966

> <Gold.Chemscore.Metal.Weighted>
-0.0000

> <Gold.Chemscore.Lipo.Weighted>
-12.3860

> <Gold.Chemscore.Internal_Hbond.Weighted>
0.0000

> <Gold.Chemscore.DEClash.Weighted>
0.4784

> <Gold.Chemscore.DEInternal.Weighted>
5.3036

> <Gold.Chemscore.Rot.Weighted>
8.3598

> <Gold.Chemscore.Internal.Correction.Weighted>
   9.000000E+99

> <Gold.Protein.RotatedTorsions>
[ 6907 6896 6895 6894 ] final  179.12 input  -60.11 | X-H torsion
[ 7974 7965 7964 7962 ] final -179.31 input  175.53 | X-H torsion
[ 8008 7997 7996 7995 ] final  167.93 input   59.86 | X-H torsion
[ 10167 10162 10161 10158 ] final  105.13 input  -65.29 | X-H torsion
[ 10718 10713 10712 10709 ] final  150.61 input   66.30 | X-H torsion
[ 10763 10752 10751 10750 ] final  155.38 input  -60.55 | X-H torsion
[ 11005 11000 10999 10996 ] final   71.04 input  -57.11 | X-H torsion

> <Gold.Protein.ActiveResidues>
 VAL166  LYS551  ARG553  GLY616  TRP617  ASP618  TYR619  PRO620  LYS621  CYS622 
 ASP623  PHE694  ASN695  SER759  ASP760  ASP761  ALA762  ILE779  LEU786  VAL792 
 PHE793  MET794  SER795  GLU796  ALA797  LYS798  CYS799  TRP800  GLU811  SER814 

> <Gold.Protein.RotatedAtoms>
  151.6768  133.3312  159.3209 H   0  0  0  0  0  0  0  0  0  0  0  0  # atno 6907 bound_to 6896
  150.7841  134.6815  159.6456 H   0  0  0  0  0  0  0  0  0  0  0  0  # atno 6908 bound_to 6896
  152.3907  134.6450  160.0161 H   0  0  0  0  0  0  0  0  0  0  0  0  # atno 6909 bound_to 6896
  144.7136  140.0737  143.6428 H   0  0  0  0  0  0  0  0  0  0  0  0  # atno 7974 bound_to 7965
  156.1591  140.1604  156.8642 H   0  0  0  0  0  0  0  0  0  0  0  0  # atno 8008 bound_to 7997
  154.5143  140.0793  156.8087 H   0  0  0  0  0  0  0  0  0  0  0  0  # atno 8009 bound_to 7997
  155.3743  140.3402  155.4246 H   0  0  0  0  0  0  0  0  0  0  0  0  # atno 8010 bound_to 7997
  139.7118  144.7076  151.1014 H   0  0  0  0  0  0  0  0  0  0  0  0  # atno 10167 bound_to 10162
  157.2813  131.0836  151.1530 H   0  0  0  0  0  0  0  0  0  0  0  0  # atno 10718 bound_to 10713
  154.1675  135.2806  155.3091 H   0  0  0  0  0  0  0  0  0  0  0  0  # atno 10763 bound_to 10752
  154.6100  135.5502  153.7467 H   0  0  0  0  0  0  0  0  0  0  0  0  # atno 10764 bound_to 10752
  153.0174  135.6413  154.1815 H   0  0  0  0  0  0  0  0  0  0  0  0  # atno 10765 bound_to 10752
  139.9564  134.7136  156.0742 H   0  0  0  0  0  0  0  0  0  0  0  0  # atno 11005 bound_to 11000
  145.9761  139.2906  143.1069 LP  0  0  0  0  0  0  0  0  0  0  0  0  # atno 17320 bound_to 7965
  145.9062  140.9210  143.0477 LP  0  0  0  0  0  0  0  0  0  0  0  0  # atno 17321 bound_to 7965
  140.7735  143.5283  150.9454 LP  0  0  0  0  0  0  0  0  0  0  0  0  # atno 17342 bound_to 10162
  139.8967  143.6886  152.3137 LP  0  0  0  0  0  0  0  0  0  0  0  0  # atno 17343 bound_to 10162
  157.2963  130.6821  149.6140 LP  0  0  0  0  0  0  0  0  0  0  0  0  # atno 17370 bound_to 10713
  155.9664  130.4405  150.5304 LP  0  0  0  0  0  0  0  0  0  0  0  0  # atno 17371 bound_to 10713
  141.1236  133.6605  156.3279 LP  0  0  0  0  0  0  0  0  0  0  0  0  # atno 17394 bound_to 11000
  140.5598  134.5945  157.5430 LP  0  0  0  0  0  0  0  0  0  0  0  0  # atno 17395 bound_to 11000

$$$$
