AV-unprocessed.smi:2024|AV-procd|sdf|8194|dock10
  -GOLD-   2272010453D 1   1.00000     0.00000
 Structure written by MMmdl.
 43 44  0  0  0  0  0  0  0  0  3 V2000
  151.5467  143.3349  158.1764 C   0  0  0  0  0  0  0  0  0  0  0  0
  150.4597  142.8057  157.3211 N   0  3  0  0  0  0  0  0  0  0  0  0
  149.5156  141.9153  158.0356 C   0  0  0  0  0  0  0  0  0  0  0  0
  150.1071  140.5060  158.2522 C   0  0  0  0  0  0  0  0  0  0  0  0
  150.4569  139.9109  156.9538 N   0  0  0  0  0  0  0  0  0  0  0  0
  150.7609  138.4563  156.9544 C   0  0  0  0  0  0  0  0  0  0  0  0
  151.4824  138.0301  155.6544 C   0  0  0  0  0  0  0  0  0  0  0  0
  151.6659  138.0923  158.1595 C   0  0  0  0  0  0  0  0  0  0  0  0
  149.4362  137.6480  157.1036 C   0  0  0  0  0  0  0  0  0  0  0  0
  148.8474  137.7762  158.4382 N   0  0  0  0  0  0  0  0  0  0  0  0
  148.6299  136.7842  159.3141 C   0  0  0  0  0  0  0  0  0  0  0  0
  149.0259  135.6424  159.0688 O   0  0  0  0  0  0  0  0  0  0  0  0
  147.9454  137.1708  160.4137 N   0  5  0  0  0  0  0  0  0  0  0  0
  147.2843  136.2587  161.1446 C   0  0  0  0  0  0  0  0  0  0  0  0
  147.4670  134.9406  161.0076 N   0  0  0  0  0  0  0  0  0  0  0  0
  146.6796  134.1787  161.8729 C   0  0  0  0  0  0  0  0  0  0  0  0
  145.8837  134.9348  162.6922 C   0  0  0  0  0  0  0  0  0  0  0  0
  146.1021  136.6370  162.4014 S   0  0  0  0  0  0  0  0  0  0  0  0
  151.5017  140.7566  156.3556 C   0  0  0  0  0  0  0  0  0  0  0  0
  150.9359  142.1616  156.0755 C   0  0  0  0  0  0  0  0  0  0  0  0
  152.1900  142.5411  158.5555 H   0  0  0  0  0  0  0  0  0  0  0  0
  151.1322  143.8713  159.0303 H   0  0  0  0  0  0  0  0  0  0  0  0
  152.1661  144.0355  157.6158 H   0  0  0  0  0  0  0  0  0  0  0  0
  149.2296  142.3615  158.9887 H   0  0  0  0  0  0  0  0  0  0  0  0
  148.6003  141.8374  157.4465 H   0  0  0  0  0  0  0  0  0  0  0  0
  150.9760  140.5387  158.9102 H   0  0  0  0  0  0  0  0  0  0  0  0
  149.3443  139.9237  158.7644 H   0  0  0  0  0  0  0  0  0  0  0  0
  151.7587  136.9760  155.6943 H   0  0  0  0  0  0  0  0  0  0  0  0
  152.4006  138.5949  155.4930 H   0  0  0  0  0  0  0  0  0  0  0  0
  150.8541  138.1539  154.7723 H   0  0  0  0  0  0  0  0  0  0  0  0
  151.7252  137.0116  158.2930 H   0  0  0  0  0  0  0  0  0  0  0  0
  151.2906  138.5124  159.0938 H   0  0  0  0  0  0  0  0  0  0  0  0
  152.6923  138.4346  158.0259 H   0  0  0  0  0  0  0  0  0  0  0  0
  148.7130  137.8934  156.3261 H   0  0  0  0  0  0  0  0  0  0  0  0
  149.6418  136.5880  156.9516 H   0  0  0  0  0  0  0  0  0  0  0  0
  148.5143  138.6935  158.6962 H   0  0  0  0  0  0  0  0  0  0  0  0
  146.7514  133.1017  161.8380 H   0  0  0  0  0  0  0  0  0  0  0  0
  145.1887  134.5968  163.4458 H   0  0  0  0  0  0  0  0  0  0  0  0
  152.3710  140.8168  157.0110 H   0  0  0  0  0  0  0  0  0  0  0  0
  151.8588  140.3466  155.4144 H   0  0  0  0  0  0  0  0  0  0  0  0
  150.1013  142.0880  155.3762 H   0  0  0  0  0  0  0  0  0  0  0  0
  151.6868  142.7881  155.5933 H   0  0  0  0  0  0  0  0  0  0  0  0
  149.9260  143.6139  157.0346 H   0  0  0  0  0  0  0  0  0  0  0  0
  1  2  1  0  0  0  0
  1 21  1  0  0  0  0
  1 22  1  0  0  0  0
  1 23  1  0  0  0  0
  2 20  1  0  0  0  0
  2  3  1  0  0  0  0
  2 43  1  0  0  0  0
  3  4  1  0  0  0  0
  3 24  1  0  0  0  0
  3 25  1  0  0  0  0
  4  5  1  0  0  0  0
  4 26  1  0  0  0  0
  4 27  1  0  0  0  0
  5  6  1  0  0  0  0
  5 19  1  0  0  0  0
  6  7  1  0  0  0  0
  6  8  1  0  0  0  0
  6  9  1  0  0  0  0
  7 28  1  0  0  0  0
  7 29  1  0  0  0  0
  7 30  1  0  0  0  0
  8 31  1  0  0  0  0
  8 32  1  0  0  0  0
  8 33  1  0  0  0  0
  9 10  1  0  0  0  0
  9 34  1  0  0  0  0
  9 35  1  0  0  0  0
 10 11  1  0  0  0  0
 10 36  1  0  0  0  0
 11 12  2  0  0  0  0
 11 13  1  0  0  0  0
 13 14  1  0  0  0  0
 14 18  1  0  0  0  0
 14 15  2  0  0  0  0
 15 16  1  0  0  0  0
 16 17  2  0  0  0  0
 16 37  1  0  0  0  0
 17 18  1  0  0  0  0
 17 38  1  0  0  0  0
 19 20  1  0  0  0  0
 19 39  1  0  0  0  0
 19 40  1  0  0  0  0
 20 41  1  0  0  0  0
 20 42  1  0  0  0  0
M  CHG  1   2   1
M  CHG  1  13  -1
M  END
> <s_m_source_file>
AV-unprocessed.smi

> <i_m_source_file_index>
2024

> <i_lp_mmshare_version>
43012

> <i_f3d_flags>
0

> <s_epik_input>
W0NIM11OMVtDSDJdW0NIMl1OKFtDSDJdW0NIMl0xKUMoW0NIM10pKFtDSDNdKVtDSDJdW05IXUMoPU8pW05IXWMybltjSF1bY0hdczI=

> <s_epik_cmdline>
J2VwaWtfcHl0aG9uJywgJy1waCcsICc3LjAnLCAnLXRuJywgJzgnLCAnLW1hJywgJzIwMCcsICctbWV0YWxfYmluZGluZycsICctaW1hZScsICc8aW5maWxlLm1hZT4nLCAnLW9tYWUnLCAnPG91dGZpbGUubWFlPic=

> <r_lp_tautomer_probability>
0.999

> <r_epik_Ionization_Penalty>
7.04933

> <r_epik_Ionization_Penalty_Charging>
5.90256

> <r_epik_Ionization_Penalty_Neutral>
1.14676

> <r_epik_State_Penalty>
6.00717

> <r_epik_Charging_Adjusted_Penalty>
11.9097

> <i_epik_Tot_Q>
0

> <i_epik_Tot_abs_Q>
2

> <r_epik_Metal_State_Penalty>
1.97542

> <b_epik_Metal_Only>
1

> <s_lp_Force_Field>
OPLS_2005

> <r_lp_Energy>
14.8551

> <b_lp_Chiralities_Consistent>
1

> <s_lp_Variant>
AV-unprocessed.smi:2024-4

> <Gold.Version>
5.8.1

> <Gold.Id.Protein>
6NUR|6NUR_protein|mol2

> <Gold.PLP.Fitness>
46.4614

> <Gold.PLP.PLP>
-30.0633

> <Gold.PLP.part.hbond>
-4.0000

> <Gold.PLP.part.metal>
0.0000

> <Gold.PLP.part.buried>
-5.7543

> <Gold.PLP.part.nonpolar>
-20.1162

> <Gold.PLP.part.repulsive>
0.1657

> <Gold.PLP.ligand.clash>
0.0000

> <Gold.PLP.ligand.torsion>
0.7376

> <Gold.PLP.Chemscore.Hbond>
5.9392

> <Gold.PLP.Chemscore.CHOScore>
0.0000

> <Gold.PLP.Chemscore.Metal>
0.0000

> <Gold.Chemscore.Hbonds>
donor molecule, donor type, donor heavy atom, donor atom, acceptor molecule, acceptor atom, score
      L1  H     2    43       P1  8028  1.98
      P1  H  6896  6907       L1    12  1.00
      P1  H  6931  6943       L1    13  1.10
      P1  H  6934  6947       L1    13  1.45

> <Gold.PLP.Chemscore.Internal.Correction>
0.0558

> <Gold.Rescore>
     Score         DG    S(hbond)    S(metal)    S(lipo)     H(rot)  DE(clash)    DE(int)     intcor
     15.79     -19.15       2.78        0.00      71.69       1.57       0.00       3.35       ----

> <Gold.Chemscore.Fitness>
15.7948

> <Gold.Chemscore.DG>
-19.1531

> <Gold.Chemscore.ZeroCoef>
-5.4800

> <Gold.Chemscore.Hbond>
2.7843

> <Gold.Chemscore.Metal>
0.0000

> <Gold.Chemscore.Lipo>
71.6856

> <Gold.Chemscore.Internal_Hbond>
0.0000

> <Gold.Chemscore.DEClash>
0.0038

> <Gold.Chemscore.DEInternal>
3.3546

> <Gold.Chemscore.Rot>
1.5678

> <Gold.Chemscore.Internal.Correction>
   9.000000E+99

> <Gold.Chemscore.Hbonds>
donor molecule, donor type, donor heavy atom, donor atom, acceptor molecule, acceptor atom, score
      L1  H     2    43       P1  8028  0.89
      P1  H  6896  6907       L1    12  0.95
      P1  H  6931  6943       L1    13  0.21
      P1  H  6934  6947       L1    13  0.46

> <Gold.Chemscore.Hbond.Weighted>
-9.2996

> <Gold.Chemscore.Metal.Weighted>
-0.0000

> <Gold.Chemscore.Lipo.Weighted>
-8.3872

> <Gold.Chemscore.Internal_Hbond.Weighted>
0.0000

> <Gold.Chemscore.DEClash.Weighted>
0.0038

> <Gold.Chemscore.DEInternal.Weighted>
3.3546

> <Gold.Chemscore.Rot.Weighted>
4.0136

> <Gold.Chemscore.Internal.Correction.Weighted>
   9.000000E+99

> <Gold.Protein.RotatedTorsions>
[ 6907 6896 6895 6894 ] final  -69.06 input  -60.11 | X-H torsion
[ 7974 7965 7964 7962 ] final   30.92 input  175.53 | X-H torsion
[ 8008 7997 7996 7995 ] final   92.58 input   59.86 | X-H torsion
[ 10167 10162 10161 10158 ] final  -35.30 input  -65.29 | X-H torsion
[ 10718 10713 10712 10709 ] final  -79.39 input   66.30 | X-H torsion
[ 10763 10752 10751 10750 ] final  136.90 input  -60.55 | X-H torsion
[ 11005 11000 10999 10996 ] final  107.64 input  -57.11 | X-H torsion

> <Gold.Protein.ActiveResidues>
 VAL166  LYS551  ARG553  GLY616  TRP617  ASP618  TYR619  PRO620  LYS621  CYS622 
 ASP623  PHE694  ASN695  SER759  ASP760  ASP761  ALA762  ILE779  LEU786  VAL792 
 PHE793  MET794  SER795  GLU796  ALA797  LYS798  CYS799  TRP800  GLU811  SER814 

> <Gold.Protein.RotatedAtoms>
  150.7324  134.5650  159.5861 H   0  0  0  0  0  0  0  0  0  0  0  0  # atno 6907 bound_to 6896
  152.3104  134.7501  160.0347 H   0  0  0  0  0  0  0  0  0  0  0  0  # atno 6908 bound_to 6896
  151.8051  133.3339  159.3575 H   0  0  0  0  0  0  0  0  0  0  0  0  # atno 6909 bound_to 6896
  146.1582  139.6724  142.9052 H   0  0  0  0  0  0  0  0  0  0  0  0  # atno 7974 bound_to 7965
  156.0370  140.3323  155.7202 H   0  0  0  0  0  0  0  0  0  0  0  0  # atno 8008 bound_to 7997
  155.5801  140.0636  157.2803 H   0  0  0  0  0  0  0  0  0  0  0  0  # atno 8009 bound_to 7997
  154.4377  140.1845  156.0956 H   0  0  0  0  0  0  0  0  0  0  0  0  # atno 8010 bound_to 7997
  140.7168  143.3487  151.2202 H   0  0  0  0  0  0  0  0  0  0  0  0  # atno 10167 bound_to 10162
  156.0094  130.4544  150.3641 H   0  0  0  0  0  0  0  0  0  0  0  0  # atno 10718 bound_to 10713
  153.8641  135.3064  155.3439 H   0  0  0  0  0  0  0  0  0  0  0  0  # atno 10763 bound_to 10752
  154.7835  135.4822  153.9899 H   0  0  0  0  0  0  0  0  0  0  0  0  # atno 10764 bound_to 10752
  153.1444  135.6830  153.9072 H   0  0  0  0  0  0  0  0  0  0  0  0  # atno 10765 bound_to 10752
  139.8831  134.9407  156.5850 H   0  0  0  0  0  0  0  0  0  0  0  0  # atno 11005 bound_to 11000
  145.4655  141.0434  143.2727 LP  0  0  0  0  0  0  0  0  0  0  0  0  # atno 17320 bound_to 7965
  144.7991  139.6175  143.7079 LP  0  0  0  0  0  0  0  0  0  0  0  0  # atno 17321 bound_to 7965
  139.7012  143.9529  152.2906 LP  0  0  0  0  0  0  0  0  0  0  0  0  # atno 17342 bound_to 10162
  139.9223  144.6792  150.8448 LP  0  0  0  0  0  0  0  0  0  0  0  0  # atno 17343 bound_to 10162
  157.1728  131.0373  151.2787 LP  0  0  0  0  0  0  0  0  0  0  0  0  # atno 17370 bound_to 10713
  157.4214  130.7439  149.6916 LP  0  0  0  0  0  0  0  0  0  0  0  0  # atno 17371 bound_to 10713
  140.7998  133.8514  155.8717 LP  0  0  0  0  0  0  0  0  0  0  0  0  # atno 17394 bound_to 11000
  140.9602  134.1665  157.4660 LP  0  0  0  0  0  0  0  0  0  0  0  0  # atno 17395 bound_to 11000

$$$$
