AV-unprocessed.smi:995|AV-procd|sdf|4346|dock6
  -GOLD-   22720 2243D 1   1.00000     0.00000
 Structure written by MMmdl.
 37 38  0  0  0  0  0  0  0  0  1 V2000
  150.6045  135.2871  157.4576 O   0  0  0  0  0  0  0  0  0  0  0  0
  150.5595  135.4542  156.2387 C   0  0  0  0  0  0  0  0  0  0  0  0
  150.7796  136.6337  155.6273 N   0  0  0  0  0  0  0  0  0  0  0  0
  151.0419  137.9037  156.2089 C   0  0  0  0  0  0  0  0  0  0  0  0
  151.6770  138.8767  155.4112 C   0  0  0  0  0  0  0  0  0  0  0  0
  151.9329  140.1499  155.9537 C   0  0  0  0  0  0  0  0  0  0  0  0
  151.5360  140.4151  157.2792 C   0  0  0  0  0  0  0  0  0  0  0  0
  151.7918  141.6639  157.8070 O   0  0  0  0  0  0  0  0  0  0  0  0
  151.6328  141.8560  159.2104 C   0  0  0  0  0  0  0  0  0  0  0  0
  152.3917  143.1214  159.6371 C   0  0  0  0  0  0  0  0  0  0  0  0
  152.2813  143.2781  160.9570 F   0  0  0  0  0  0  0  0  0  0  0  0
  153.6760  142.9656  159.3132 F   0  0  0  0  0  0  0  0  0  0  0  0
  151.8687  144.3840  158.9337 C   0  0  0  0  0  0  0  0  0  0  0  0
  152.4028  145.4859  159.4611 F   0  0  0  0  0  0  0  0  0  0  0  0
  152.1363  144.3423  157.6284 F   0  0  0  0  0  0  0  0  0  0  0  0
  150.9102  139.4920  158.0501 N   0  0  0  0  0  0  0  0  0  0  0  0
  150.6685  138.2721  157.5246 C   0  0  0  0  0  0  0  0  0  0  0  0
  150.2914  134.2588  155.3112 C   0  0  1  0  0  0  0  0  0  0  0  0
  149.9574  132.9616  156.0842 C   0  0  0  0  0  0  0  0  0  0  0  0
  149.6859  131.9176  155.1578 O   0  0  0  0  0  0  0  0  0  0  0  0
  148.5882  132.2435  154.3172 C   0  0  0  0  0  0  0  0  0  0  0  0
  148.9225  133.5242  153.5363 C   0  0  0  0  0  0  0  0  0  0  0  0
  149.1914  134.5714  154.4588 O   0  0  0  0  0  0  0  0  0  0  0  0
  150.8031  136.6050  154.6180 H   0  0  0  0  0  0  0  0  0  0  0  0
  151.9697  138.6521  154.3958 H   0  0  0  0  0  0  0  0  0  0  0  0
  152.4241  140.9097  155.3639 H   0  0  0  0  0  0  0  0  0  0  0  0
  150.5753  141.9620  159.4587 H   0  0  0  0  0  0  0  0  0  0  0  0
  152.0194  140.9914  159.7527 H   0  0  0  0  0  0  0  0  0  0  0  0
  150.7870  144.4741  159.0372 H   0  0  0  0  0  0  0  0  0  0  0  0
  150.1438  137.5965  158.1816 H   0  0  0  0  0  0  0  0  0  0  0  0
  151.1851  134.1064  154.7034 H   0  0  0  0  0  0  0  0  0  0  0  0
  150.7978  132.6542  156.7074 H   0  0  0  0  0  0  0  0  0  0  0  0
  149.1014  133.1046  156.7461 H   0  0  0  0  0  0  0  0  0  0  0  0
  148.4066  131.4167  153.6304 H   0  0  0  0  0  0  0  0  0  0  0  0
  147.6824  132.3745  154.9114 H   0  0  0  0  0  0  0  0  0  0  0  0
  149.7804  133.3693  152.8800 H   0  0  0  0  0  0  0  0  0  0  0  0
  148.0821  133.8132  152.9051 H   0  0  0  0  0  0  0  0  0  0  0  0
  1  2  2  0  0  0  0
  2  3  1  0  0  0  0
  2 18  1  0  0  0  0
  3  4  1  0  0  0  0
  3 24  1  0  0  0  0
  4 17  1  0  0  0  0
  4  5  2  0  0  0  0
  5  6  1  0  0  0  0
  5 25  1  0  0  0  0
  6  7  2  0  0  0  0
  6 26  1  0  0  0  0
  7  8  1  0  0  0  0
  7 16  1  0  0  0  0
  8  9  1  0  0  0  0
  9 10  1  0  0  0  0
  9 27  1  0  0  0  0
  9 28  1  0  0  0  0
 10 11  1  0  0  0  0
 10 12  1  0  0  0  0
 10 13  1  0  0  0  0
 13 14  1  0  0  0  0
 13 15  1  0  0  0  0
 13 29  1  0  0  0  0
 16 17  2  0  0  0  0
 17 30  1  0  0  0  0
 18 23  1  0  0  0  0
 18 19  1  0  0  0  0
 18 31  1  0  0  0  0
 19 20  1  0  0  0  0
 19 32  1  0  0  0  0
 19 33  1  0  0  0  0
 20 21  1  0  0  0  0
 21 22  1  0  0  0  0
 21 34  1  0  0  0  0
 21 35  1  0  0  0  0
 22 23  1  0  0  0  0
 22 36  1  0  0  0  0
 22 37  1  0  0  0  0
M  END
> <s_m_source_file>
AV-unprocessed.smi

> <i_m_source_file_index>
995

> <i_lp_mmshare_version>
43012

> <i_f3d_flags>
0

> <s_epik_input>
TzFbQ0gyXVtDSDJdT1tDSDJdW0NASF0xQyg9TylbTkhdYzJbY0hdW2NIXWMobltjSF0yKU9bQ0gyXUMoRikoRilbQ0hdKEYpRg==

> <s_epik_cmdline>
J2VwaWtfcHl0aG9uJywgJy1waCcsICc3LjAnLCAnLXRuJywgJzgnLCAnLW1hJywgJzIwMCcsICctbWV0YWxfYmluZGluZycsICctaW1hZScsICc8aW5maWxlLm1hZT4nLCAnLW9tYWUnLCAnPG91dGZpbGUubWFlPic=

> <r_lp_tautomer_probability>
1

> <r_epik_Ionization_Penalty>
2.54436e-06

> <r_epik_Ionization_Penalty_Charging>
0

> <r_epik_Ionization_Penalty_Neutral>
2.54436e-06

> <r_epik_State_Penalty>
-0

> <r_epik_Charging_Adjusted_Penalty>
0

> <i_epik_Tot_Q>
0

> <i_epik_Tot_abs_Q>
0

> <r_epik_Metal_State_Penalty>
-0

> <b_epik_Metal_Only>
0

> <s_lp_Force_Field>
OPLS_2005

> <r_lp_Energy>
9.88959

> <b_lp_Chiralities_Consistent>
1

> <s_lp_Variant>
AV-unprocessed.smi:995-2

> <Gold.Version>
5.8.1

> <Gold.Id.Protein>
6NUR|6NUR_protein|mol2

> <Gold.PLP.Fitness>
45.9944

> <Gold.PLP.PLP>
-46.4559

> <Gold.PLP.part.hbond>
-1.0000

> <Gold.PLP.part.metal>
0.0000

> <Gold.PLP.part.buried>
-6.7279

> <Gold.PLP.part.nonpolar>
-38.4401

> <Gold.PLP.part.repulsive>
0.2597

> <Gold.PLP.ligand.clash>
0.0000

> <Gold.PLP.ligand.torsion>
0.5010

> <Gold.PLP.Chemscore.Hbond>
0.1290

> <Gold.PLP.Chemscore.CHOScore>
0.0000

> <Gold.PLP.Chemscore.Metal>
0.0000

> <Gold.Chemscore.Hbonds>
donor molecule, donor type, donor heavy atom, donor atom, acceptor molecule, acceptor atom, score
      P1  H  6896  6907       L1     1  0.20

> <Gold.PLP.Chemscore.Internal.Correction>
0.1536

> <Gold.Rescore>
     Score         DG    S(hbond)    S(metal)    S(lipo)     H(rot)  DE(clash)    DE(int)     intcor
      7.40     -10.49       0.61        0.00      71.60       2.12       0.02       3.07       ----

> <Gold.Chemscore.Fitness>
7.3950

> <Gold.Chemscore.DG>
-10.4861

> <Gold.Chemscore.ZeroCoef>
-5.4800

> <Gold.Chemscore.Hbond>
0.6134

> <Gold.Chemscore.Metal>
0.0000

> <Gold.Chemscore.Lipo>
71.6019

> <Gold.Chemscore.Internal_Hbond>
0.0000

> <Gold.Chemscore.DEClash>
0.0205

> <Gold.Chemscore.DEInternal>
3.0706

> <Gold.Chemscore.Rot>
2.1172

> <Gold.Chemscore.Internal.Correction>
   9.000000E+99

> <Gold.Chemscore.Hbonds>
donor molecule, donor type, donor heavy atom, donor atom, acceptor molecule, acceptor atom, score
      P1  H  6896  6907       L1     1  0.20

> <Gold.Chemscore.Hbond.Weighted>
-2.0487

> <Gold.Chemscore.Metal.Weighted>
-0.0000

> <Gold.Chemscore.Lipo.Weighted>
-8.3774

> <Gold.Chemscore.Internal_Hbond.Weighted>
0.0000

> <Gold.Chemscore.DEClash.Weighted>
0.0205

> <Gold.Chemscore.DEInternal.Weighted>
3.0706

> <Gold.Chemscore.Rot.Weighted>
5.4200

> <Gold.Chemscore.Internal.Correction.Weighted>
   9.000000E+99

> <Gold.Protein.RotatedTorsions>
[ 6907 6896 6895 6894 ] final  -55.69 input  -60.11 | X-H torsion
[ 7974 7965 7964 7962 ] final  117.83 input  175.53 | X-H torsion
[ 8008 7997 7996 7995 ] final -168.26 input   59.86 | X-H torsion
[ 10167 10162 10161 10158 ] final   86.47 input  -65.29 | X-H torsion
[ 10718 10713 10712 10709 ] final  172.09 input   66.30 | X-H torsion
[ 10763 10752 10751 10750 ] final  152.47 input  -60.55 | X-H torsion
[ 11005 11000 10999 10996 ] final   17.31 input  -57.11 | X-H torsion

> <Gold.Protein.ActiveResidues>
 VAL166  LYS551  ARG553  GLY616  TRP617  ASP618  TYR619  PRO620  LYS621  CYS622 
 ASP623  PHE694  ASN695  SER759  ASP760  ASP761  ALA762  ILE779  LEU786  VAL792 
 PHE793  MET794  SER795  GLU796  ALA797  LYS798  CYS799  TRP800  GLU811  SER814 

> <Gold.Protein.RotatedAtoms>
  150.8230  134.7447  159.6788 H   0  0  0  0  0  0  0  0  0  0  0  0  # atno 6907 bound_to 6896
  152.4344  134.5712  159.9931 H   0  0  0  0  0  0  0  0  0  0  0  0  # atno 6908 bound_to 6896
  151.5892  133.3331  159.3060 H   0  0  0  0  0  0  0  0  0  0  0  0  # atno 6909 bound_to 6896
  145.1626  139.3146  143.4509 H   0  0  0  0  0  0  0  0  0  0  0  0  # atno 7974 bound_to 7965
  155.8890  140.1021  157.1432 H   0  0  0  0  0  0  0  0  0  0  0  0  # atno 8008 bound_to 7997
  154.4013  140.1314  156.4355 H   0  0  0  0  0  0  0  0  0  0  0  0  # atno 8009 bound_to 7997
  155.7556  140.3464  155.5174 H   0  0  0  0  0  0  0  0  0  0  0  0  # atno 8010 bound_to 7997
  139.8872  144.6406  150.8778 H   0  0  0  0  0  0  0  0  0  0  0  0  # atno 10167 bound_to 10162
  156.9840  131.0127  151.2874 H   0  0  0  0  0  0  0  0  0  0  0  0  # atno 10718 bound_to 10713
  154.1206  135.2833  155.3209 H   0  0  0  0  0  0  0  0  0  0  0  0  # atno 10763 bound_to 10752
  154.6426  135.5397  153.7810 H   0  0  0  0  0  0  0  0  0  0  0  0  # atno 10764 bound_to 10752
  153.0314  135.6490  154.1360 H   0  0  0  0  0  0  0  0  0  0  0  0  # atno 10765 bound_to 10752
  140.4373  134.1358  155.7686 H   0  0  0  0  0  0  0  0  0  0  0  0  # atno 11005 bound_to 11000
  146.3480  140.1742  142.8589 LP  0  0  0  0  0  0  0  0  0  0  0  0  # atno 17320 bound_to 7965
  145.0315  140.8874  143.5107 LP  0  0  0  0  0  0  0  0  0  0  0  0  # atno 17321 bound_to 7965
  140.7733  143.3539  151.1960 LP  0  0  0  0  0  0  0  0  0  0  0  0  # atno 17342 bound_to 10162
  139.7142  143.9327  152.2960 LP  0  0  0  0  0  0  0  0  0  0  0  0  # atno 17343 bound_to 10162
  157.5506  130.8180  149.8140 LP  0  0  0  0  0  0  0  0  0  0  0  0  # atno 17370 bound_to 10713
  156.0233  130.3788  150.1897 LP  0  0  0  0  0  0  0  0  0  0  0  0  # atno 17371 bound_to 10713
  141.1720  133.8589  157.1540 LP  0  0  0  0  0  0  0  0  0  0  0  0  # atno 17394 bound_to 11000
  140.0093  134.9995  157.0361 LP  0  0  0  0  0  0  0  0  0  0  0  0  # atno 17395 bound_to 11000

$$$$
