AV-unprocessed.smi:247|AV-procd|sdf|1895|dock2
  -GOLD-   2262020563D 1   1.00000     0.00000
 Structure written by MMmdl.
 61 65  0  0  0  0  0  0  0  0  1 V2000
  145.1820  137.9551  156.9417 O   0  0  0  0  0  0  0  0  0  0  0  0
  145.7621  139.2301  156.7463 C   0  0  0  0  0  0  0  0  0  0  0  0
  146.7572  139.2806  155.5534 C   0  0  0  0  0  0  0  0  0  0  0  0
  147.9195  138.2758  155.8334 C   0  0  0  0  0  0  0  0  0  0  0  0
  148.8293  138.6611  156.9035 N   0  0  0  0  0  0  0  0  0  0  0  0
  148.5550  138.6752  158.2529 C   0  0  0  0  0  0  0  0  0  0  0  0
  149.5427  139.0483  159.0191 N   0  0  0  0  0  0  0  0  0  0  0  0
  150.5880  139.2886  158.1351 C   0  0  0  0  0  0  0  0  0  0  0  0
  151.9390  139.7125  158.2888 C   0  0  0  0  0  0  0  0  0  0  0  0
  152.4945  139.9695  159.5024 N   0  0  0  0  0  0  0  0  0  0  0  0
  153.2058  138.8658  160.1399 C   0  0  0  0  0  0  0  0  0  0  0  0
  154.4179  139.4817  160.8443 C   0  0  0  0  0  0  0  0  0  0  0  0
  154.0173  140.9393  161.0426 C   0  0  0  0  0  0  0  0  0  0  0  0
  153.1856  141.2285  159.7861 C   0  0  2  0  0  0  0  0  0  0  0  0
  152.2404  142.4614  159.8708 C   0  0  1  0  0  0  0  0  0  0  0  0
  152.4943  143.3474  161.1139 C   0  0  0  0  0  0  0  0  0  0  0  0
  151.5563  144.4172  161.1625 O   0  0  0  0  0  0  0  0  0  0  0  0
  151.6671  145.3024  160.0542 C   0  0  0  0  0  0  0  0  0  0  0  0
  151.3500  144.5443  158.7575 C   0  0  0  0  0  0  0  0  0  0  0  0
  152.2855  143.3375  158.6001 C   0  0  2  0  0  0  0  0  0  0  0  0
  151.8817  142.5978  157.4647 O   0  0  0  0  0  0  0  0  0  0  0  0
  152.6803  139.8484  157.1571 N   0  0  0  0  0  0  0  0  0  0  0  0
  152.1466  139.5843  155.9613 C   0  0  0  0  0  0  0  0  0  0  0  0
  150.9095  139.1779  155.6714 N   0  0  0  0  0  0  0  0  0  0  0  0
  150.1553  139.0469  156.8001 C   0  0  0  0  0  0  0  0  0  0  0  0
  146.0119  138.9550  154.2330 C   0  0  0  0  0  0  0  0  0  0  0  0
  146.8831  139.2137  152.9908 C   0  0  0  0  0  0  0  0  0  0  0  0
  147.3229  140.5664  152.9822 O   0  0  0  0  0  0  0  0  0  0  0  0
  148.1390  140.8950  154.1002 C   0  0  0  0  0  0  0  0  0  0  0  0
  147.3488  140.7071  155.4097 C   0  0  0  0  0  0  0  0  0  0  0  0
  145.5831  137.5550  157.6980 H   0  0  0  0  0  0  0  0  0  0  0  0
  144.9543  139.9473  156.5958 H   0  0  0  0  0  0  0  0  0  0  0  0
  146.2589  139.5037  157.6769 H   0  0  0  0  0  0  0  0  0  0  0  0
  147.5387  137.2864  156.0806 H   0  0  0  0  0  0  0  0  0  0  0  0
  148.5110  138.1358  154.9274 H   0  0  0  0  0  0  0  0  0  0  0  0
  147.5903  138.4028  158.6551 H   0  0  0  0  0  0  0  0  0  0  0  0
  152.5408  138.4000  160.8679 H   0  0  0  0  0  0  0  0  0  0  0  0
  153.5160  138.0994  159.4280 H   0  0  0  0  0  0  0  0  0  0  0  0
  154.6684  138.9765  161.7774 H   0  0  0  0  0  0  0  0  0  0  0  0
  155.2884  139.4286  160.1891 H   0  0  0  0  0  0  0  0  0  0  0  0
  153.4191  141.0258  161.9487 H   0  0  0  0  0  0  0  0  0  0  0  0
  154.8783  141.6008  161.1420 H   0  0  0  0  0  0  0  0  0  0  0  0
  153.8929  141.3939  158.9719 H   0  0  0  0  0  0  0  0  0  0  0  0
  151.2187  142.0921  159.9623 H   0  0  0  0  0  0  0  0  0  0  0  0
  152.3835  142.7629  162.0274 H   0  0  0  0  0  0  0  0  0  0  0  0
  153.5045  143.7566  161.1213 H   0  0  0  0  0  0  0  0  0  0  0  0
  150.9651  146.1256  160.1888 H   0  0  0  0  0  0  0  0  0  0  0  0
  152.6667  145.7382  160.0179 H   0  0  0  0  0  0  0  0  0  0  0  0
  150.3113  144.2113  158.7833 H   0  0  0  0  0  0  0  0  0  0  0  0
  151.4439  145.2124  157.9005 H   0  0  0  0  0  0  0  0  0  0  0  0
  153.3016  143.6963  158.4311 H   0  0  0  0  0  0  0  0  0  0  0  0
  152.6362  142.4569  156.9133 H   0  0  0  0  0  0  0  0  0  0  0  0
  152.8059  139.7165  155.1162 H   0  0  0  0  0  0  0  0  0  0  0  0
  145.6411  137.9308  154.2302 H   0  0  0  0  0  0  0  0  0  0  0  0
  145.1247  139.5831  154.1452 H   0  0  0  0  0  0  0  0  0  0  0  0
  147.7379  138.5382  152.9497 H   0  0  0  0  0  0  0  0  0  0  0  0
  146.3009  139.0331  152.0871 H   0  0  0  0  0  0  0  0  0  0  0  0
  149.0518  140.2992  154.0877 H   0  0  0  0  0  0  0  0  0  0  0  0
  148.4510  141.9351  154.0053 H   0  0  0  0  0  0  0  0  0  0  0  0
  146.5497  141.4486  155.4127 H   0  0  0  0  0  0  0  0  0  0  0  0
  147.9812  140.9459  156.2655 H   0  0  0  0  0  0  0  0  0  0  0  0
  1  2  1  0  0  0  0
  1 31  1  0  0  0  0
  2  3  1  0  0  0  0
  2 32  1  0  0  0  0
  2 33  1  0  0  0  0
  3 30  1  0  0  0  0
  3  4  1  0  0  0  0
  3 26  1  0  0  0  0
  4  5  1  0  0  0  0
  4 34  1  0  0  0  0
  4 35  1  0  0  0  0
  5 25  1  0  0  0  0
  5  6  1  0  0  0  0
  6  7  2  0  0  0  0
  6 36  1  0  0  0  0
  7  8  1  0  0  0  0
  8 25  2  0  0  0  0
  8  9  1  0  0  0  0
  9 10  1  0  0  0  0
  9 22  2  0  0  0  0
 10 14  1  0  0  0  0
 10 11  1  0  0  0  0
 11 12  1  0  0  0  0
 11 37  1  0  0  0  0
 11 38  1  0  0  0  0
 12 13  1  0  0  0  0
 12 39  1  0  0  0  0
 12 40  1  0  0  0  0
 13 14  1  0  0  0  0
 13 41  1  0  0  0  0
 13 42  1  0  0  0  0
 14 15  1  0  0  0  0
 14 43  1  0  0  0  0
 15 20  1  0  0  0  0
 15 16  1  0  0  0  0
 15 44  1  0  0  0  0
 16 17  1  0  0  0  0
 16 45  1  0  0  0  0
 16 46  1  0  0  0  0
 17 18  1  0  0  0  0
 18 19  1  0  0  0  0
 18 47  1  0  0  0  0
 18 48  1  0  0  0  0
 19 20  1  0  0  0  0
 19 49  1  0  0  0  0
 19 50  1  0  0  0  0
 20 21  1  0  0  0  0
 20 51  1  0  0  0  0
 21 52  1  0  0  0  0
 22 23  1  0  0  0  0
 23 24  2  0  0  0  0
 23 53  1  0  0  0  0
 24 25  1  0  0  0  0
 26 27  1  0  0  0  0
 26 54  1  0  0  0  0
 26 55  1  0  0  0  0
 27 28  1  0  0  0  0
 27 56  1  0  0  0  0
 27 57  1  0  0  0  0
 28 29  1  0  0  0  0
 29 30  1  0  0  0  0
 29 58  1  0  0  0  0
 29 59  1  0  0  0  0
 30 60  1  0  0  0  0
 30 61  1  0  0  0  0
M  END
> <s_m_source_file>
AV-unprocessed.smi

> <i_m_source_file_index>
247

> <i_lp_mmshare_version>
43012

> <i_f3d_flags>
0

> <s_epik_input>
W0NIMl0xW0NIMl1PW0NIMl1bQ0gyXUMxKFtDSDJdW09IXSlbQ0gyXW4oW2NIXW4yKWMoYzIzKW5bY0hdbmMzTjRbQ0gyXVtDSDJdW0NIMl1bQ0BIXTRbQ0BASF01W0NIMl1PW0NIMl1bQ0gyXVtDQEhdNVtPSF0=

> <s_epik_cmdline>
J2VwaWtfcHl0aG9uJywgJy1waCcsICc3LjAnLCAnLXRuJywgJzgnLCAnLW1hJywgJzIwMCcsICctbWV0YWxfYmluZGluZycsICctaW1hZScsICc8aW5maWxlLm1hZT4nLCAnLW9tYWUnLCAnPG91dGZpbGUubWFlPic=

> <r_lp_tautomer_probability>
1

> <r_epik_Ionization_Penalty>
0.00362597

> <r_epik_Ionization_Penalty_Charging>
0

> <r_epik_Ionization_Penalty_Neutral>
0.00362597

> <r_epik_State_Penalty>
0.00241433

> <r_epik_Charging_Adjusted_Penalty>
0.00241433

> <i_epik_Tot_Q>
0

> <i_epik_Tot_abs_Q>
0

> <r_epik_Metal_State_Penalty>
-0

> <b_epik_Metal_Only>
0

> <s_lp_Force_Field>
OPLS_2005

> <r_lp_Energy>
58.878

> <b_lp_Chiralities_Consistent>
1

> <s_lp_Variant>
AV-unprocessed.smi:247-8

> <Gold.Version>
5.8.1

> <Gold.Id.Protein>
6NUR|6NUR_protein|mol2

> <Gold.PLP.Fitness>
41.3197

> <Gold.PLP.PLP>
-41.7065

> <Gold.PLP.part.hbond>
-2.2963

> <Gold.PLP.part.metal>
0.0000

> <Gold.PLP.part.buried>
-3.8578

> <Gold.PLP.part.nonpolar>
-37.1090

> <Gold.PLP.part.repulsive>
0.8299

> <Gold.PLP.ligand.clash>
0.0000

> <Gold.PLP.ligand.torsion>
1.9029

> <Gold.PLP.Chemscore.Hbond>
1.0000

> <Gold.PLP.Chemscore.CHOScore>
0.0000

> <Gold.PLP.Chemscore.Metal>
0.0000

> <Gold.Chemscore.Hbonds>
donor molecule, donor type, donor heavy atom, donor atom, acceptor molecule, acceptor atom, score
      P1  H  7997  8008       L1    22  0.70

> <Gold.PLP.Chemscore.Internal.Correction>
0.4190

> <Gold.Rescore>
     Score         DG    S(hbond)    S(metal)    S(lipo)     H(rot)  DE(clash)    DE(int)     intcor
     10.36     -12.33       0.92        0.00     102.90       3.23       0.12       1.84       ----

> <Gold.Chemscore.Fitness>
10.3617

> <Gold.Chemscore.DG>
-12.3265

> <Gold.Chemscore.ZeroCoef>
-5.4800

> <Gold.Chemscore.Hbond>
0.9191

> <Gold.Chemscore.Metal>
0.0000

> <Gold.Chemscore.Lipo>
102.9048

> <Gold.Chemscore.Internal_Hbond>
0.0000

> <Gold.Chemscore.DEClash>
0.1249

> <Gold.Chemscore.DEInternal>
1.8398

> <Gold.Chemscore.Rot>
3.2278

> <Gold.Chemscore.Internal.Correction>
   9.000000E+99

> <Gold.Chemscore.Hbonds>
donor molecule, donor type, donor heavy atom, donor atom, acceptor molecule, acceptor atom, score
      P1  H  7997  8008       L1    22  0.07

> <Gold.Chemscore.Hbond.Weighted>
-3.0699

> <Gold.Chemscore.Metal.Weighted>
-0.0000

> <Gold.Chemscore.Lipo.Weighted>
-12.0399

> <Gold.Chemscore.Internal_Hbond.Weighted>
0.0000

> <Gold.Chemscore.DEClash.Weighted>
0.1249

> <Gold.Chemscore.DEInternal.Weighted>
1.8398

> <Gold.Chemscore.Rot.Weighted>
8.2633

> <Gold.Chemscore.Internal.Correction.Weighted>
   9.000000E+99

> <Gold.Protein.RotatedTorsions>
[ 6907 6896 6895 6894 ] final -142.15 input  -60.11 | X-H torsion
[ 7974 7965 7964 7962 ] final   31.48 input  175.53 | X-H torsion
[ 8008 7997 7996 7995 ] final  -50.82 input   59.86 | X-H torsion
[ 10167 10162 10161 10158 ] final  -78.16 input  -65.29 | X-H torsion
[ 10718 10713 10712 10709 ] final  -29.83 input   66.30 | X-H torsion
[ 10763 10752 10751 10750 ] final   49.43 input  -60.55 | X-H torsion
[ 11005 11000 10999 10996 ] final  105.24 input  -57.11 | X-H torsion

> <Gold.Protein.ActiveResidues>
 VAL166  LYS551  ARG553  GLY616  TRP617  ASP618  TYR619  PRO620  LYS621  CYS622 
 ASP623  PHE694  ASN695  SER759  ASP760  ASP761  ALA762  ILE779  LEU786  VAL792 
 PHE793  MET794  SER795  GLU796  ALA797  LYS798  CYS799  TRP800  GLU811  SER814 

> <Gold.Protein.RotatedAtoms>
  151.0833  133.5373  159.2619 H   0  0  0  0  0  0  0  0  0  0  0  0  # atno 6907 bound_to 6896
  151.2268  135.0539  159.8981 H   0  0  0  0  0  0  0  0  0  0  0  0  # atno 6908 bound_to 6896
  152.5426  134.0627  159.8213 H   0  0  0  0  0  0  0  0  0  0  0  0  # atno 6909 bound_to 6896
  146.1547  139.6650  142.9075 H   0  0  0  0  0  0  0  0  0  0  0  0  # atno 7974 bound_to 7965
  154.4070  140.1263  156.4729 H   0  0  0  0  0  0  0  0  0  0  0  0  # atno 8008 bound_to 7997
  155.7162  140.3493  155.4976 H   0  0  0  0  0  0  0  0  0  0  0  0  # atno 8009 bound_to 7997
  155.9256  140.1060  157.1163 H   0  0  0  0  0  0  0  0  0  0  0  0  # atno 8010 bound_to 7997
  140.4707  143.2427  151.8210 H   0  0  0  0  0  0  0  0  0  0  0  0  # atno 10167 bound_to 10162
  156.4074  130.4401  149.7277 H   0  0  0  0  0  0  0  0  0  0  0  0  # atno 10718 bound_to 10713
  152.9787  135.5912  154.4088 H   0  0  0  0  0  0  0  0  0  0  0  0  # atno 10763 bound_to 10752
  154.3726  135.2767  155.2260 H   0  0  0  0  0  0  0  0  0  0  0  0  # atno 10764 bound_to 10752
  154.4208  135.6059  153.6064 H   0  0  0  0  0  0  0  0  0  0  0  0  # atno 10765 bound_to 10752
  139.8800  134.9329  156.5484 H   0  0  0  0  0  0  0  0  0  0  0  0  # atno 11005 bound_to 11000
  145.4737  141.0436  143.2684 LP  0  0  0  0  0  0  0  0  0  0  0  0  # atno 17320 bound_to 7965
  144.7948  139.6256  143.7097 LP  0  0  0  0  0  0  0  0  0  0  0  0  # atno 17321 bound_to 7965
  139.4818  144.4896  151.9202 LP  0  0  0  0  0  0  0  0  0  0  0  0  # atno 17342 bound_to 10162
  140.3981  144.2529  150.5895 LP  0  0  0  0  0  0  0  0  0  0  0  0  # atno 17343 bound_to 10162
  156.4269  130.7796  151.2815 LP  0  0  0  0  0  0  0  0  0  0  0  0  # atno 17370 bound_to 10713
  157.7506  131.0166  150.3550 LP  0  0  0  0  0  0  0  0  0  0  0  0  # atno 17371 bound_to 10713
  140.8258  133.8317  155.8938 LP  0  0  0  0  0  0  0  0  0  0  0  0  # atno 17394 bound_to 11000
  140.9375  134.1943  157.4821 LP  0  0  0  0  0  0  0  0  0  0  0  0  # atno 17395 bound_to 11000

$$$$
