AV-unprocessed.smi:462|AV-procd|sdf|2632|dock6
  -GOLD-   2262023 43D 1   1.00000     0.00000
 Structure written by MMmdl.
 46 48  0  0  0  0  0  0  0  0  1 V2000
  152.0683  144.0682  157.9328 C   0  0  0  0  0  0  0  0  0  0  0  0
  152.4121  142.8082  158.4888 O   0  0  0  0  0  0  0  0  0  0  0  0
  152.6994  142.7420  159.8368 C   0  0  0  0  0  0  0  0  0  0  0  0
  152.4401  143.7955  160.7494 C   0  0  0  0  0  0  0  0  0  0  0  0
  152.7593  143.6536  162.1123 C   0  0  0  0  0  0  0  0  0  0  0  0
  153.3406  142.4618  162.5780 C   0  0  0  0  0  0  0  0  0  0  0  0
  153.6025  141.4102  161.6814 C   0  0  0  0  0  0  0  0  0  0  0  0
  153.2826  141.5431  160.3069 C   0  0  0  0  0  0  0  0  0  0  0  0
  153.5075  140.5576  159.3706 O   0  0  0  0  0  0  0  0  0  0  0  0
  154.1889  139.3754  159.7647 C   0  0  0  0  0  0  0  0  0  0  0  0
  153.2180  138.1881  159.6606 C   0  0  0  0  0  0  0  0  0  0  0  0
  153.7864  136.9590  160.2047 N   0  0  0  0  0  0  0  0  0  0  0  0
  154.4075  135.9226  159.5665 C   0  0  0  0  0  0  0  0  0  0  0  0
  154.5850  135.8172  158.0610 C   0  0  0  0  0  0  0  0  0  0  0  0
  155.3800  137.0129  157.4944 C   0  0  0  0  0  0  0  0  0  0  0  0
  155.2746  134.4930  157.6924 C   0  0  0  0  0  0  0  0  0  0  0  0
  153.3662  135.8734  157.3457 O   0  0  0  0  0  0  0  0  0  0  0  0
  154.7463  134.9014  160.3604 N   0  0  0  0  0  0  0  0  0  0  0  0
  154.3832  135.3350  161.6168 C   0  0  0  0  0  0  0  0  0  0  0  0
  154.5183  134.7111  162.8777 C   0  0  0  0  0  0  0  0  0  0  0  0
  154.0585  135.3543  164.0452 C   0  0  0  0  0  0  0  0  0  0  0  0
  153.4544  136.6254  163.9668 C   0  0  0  0  0  0  0  0  0  0  0  0
  153.3062  137.2597  162.7185 C   0  0  0  0  0  0  0  0  0  0  0  0
  153.7749  136.6170  161.5559 C   0  0  0  0  0  0  0  0  0  0  0  0
  151.8539  143.9441  156.8713 H   0  0  0  0  0  0  0  0  0  0  0  0
  152.8890  144.7812  158.0225 H   0  0  0  0  0  0  0  0  0  0  0  0
  151.1751  144.4819  158.4028 H   0  0  0  0  0  0  0  0  0  0  0  0
  151.9955  144.7250  160.4282 H   0  0  0  0  0  0  0  0  0  0  0  0
  152.5577  144.4608  162.8009 H   0  0  0  0  0  0  0  0  0  0  0  0
  153.5861  142.3538  163.6242 H   0  0  0  0  0  0  0  0  0  0  0  0
  154.0510  140.5096  162.0725 H   0  0  0  0  0  0  0  0  0  0  0  0
  155.0486  139.2043  159.1157 H   0  0  0  0  0  0  0  0  0  0  0  0
  154.5523  139.4739  160.7882 H   0  0  0  0  0  0  0  0  0  0  0  0
  152.3064  138.4165  160.2135 H   0  0  0  0  0  0  0  0  0  0  0  0
  152.8974  138.0285  158.6326 H   0  0  0  0  0  0  0  0  0  0  0  0
  156.3904  137.0550  157.9025 H   0  0  0  0  0  0  0  0  0  0  0  0
  154.8914  137.9605  157.7256 H   0  0  0  0  0  0  0  0  0  0  0  0
  155.4793  136.9509  156.4099 H   0  0  0  0  0  0  0  0  0  0  0  0
  156.2546  134.4169  158.1647 H   0  0  0  0  0  0  0  0  0  0  0  0
  155.4213  134.4034  156.6154 H   0  0  0  0  0  0  0  0  0  0  0  0
  154.6874  133.6336  158.0174 H   0  0  0  0  0  0  0  0  0  0  0  0
  152.9984  136.7375  157.4489 H   0  0  0  0  0  0  0  0  0  0  0  0
  154.9783  133.7364  162.9462 H   0  0  0  0  0  0  0  0  0  0  0  0
  154.1691  134.8701  165.0043 H   0  0  0  0  0  0  0  0  0  0  0  0
  153.1051  137.1139  164.8646 H   0  0  0  0  0  0  0  0  0  0  0  0
  152.8463  138.2349  162.6581 H   0  0  0  0  0  0  0  0  0  0  0  0
  1  2  1  0  0  0  0
  1 25  1  0  0  0  0
  1 26  1  0  0  0  0
  1 27  1  0  0  0  0
  2  3  1  0  0  0  0
  3  8  1  0  0  0  0
  3  4  2  0  0  0  0
  4  5  1  0  0  0  0
  4 28  1  0  0  0  0
  5  6  2  0  0  0  0
  5 29  1  0  0  0  0
  6  7  1  0  0  0  0
  6 30  1  0  0  0  0
  7  8  2  0  0  0  0
  7 31  1  0  0  0  0
  8  9  1  0  0  0  0
  9 10  1  0  0  0  0
 10 11  1  0  0  0  0
 10 32  1  0  0  0  0
 10 33  1  0  0  0  0
 11 12  1  0  0  0  0
 11 34  1  0  0  0  0
 11 35  1  0  0  0  0
 12 24  1  0  0  0  0
 12 13  1  0  0  0  0
 13 14  1  0  0  0  0
 13 18  2  0  0  0  0
 14 15  1  0  0  0  0
 14 16  1  0  0  0  0
 14 17  1  0  0  0  0
 15 36  1  0  0  0  0
 15 37  1  0  0  0  0
 15 38  1  0  0  0  0
 16 39  1  0  0  0  0
 16 40  1  0  0  0  0
 16 41  1  0  0  0  0
 17 42  1  0  0  0  0
 18 19  1  0  0  0  0
 19 24  2  0  0  0  0
 19 20  1  0  0  0  0
 20 21  2  0  0  0  0
 20 43  1  0  0  0  0
 21 22  1  0  0  0  0
 21 44  1  0  0  0  0
 22 23  2  0  0  0  0
 22 45  1  0  0  0  0
 23 24  1  0  0  0  0
 23 46  1  0  0  0  0
M  END
> <s_m_source_file>
AV-unprocessed.smi

> <i_m_source_file_index>
462

> <i_lp_mmshare_version>
43012

> <i_f3d_flags>
0

> <s_epik_input>
W0NIM11PYzFbY0hdW2NIXVtjSF1bY0hdYzFPW0NIMl1bQ0gyXW4oYyhuMilDKFtDSDNdKShbQ0gzXSlbT0hdKWMoYzIzKVtjSF1bY0hdW2NIXVtjSF0z

> <s_epik_cmdline>
J2VwaWtfcHl0aG9uJywgJy1waCcsICc3LjAnLCAnLXRuJywgJzgnLCAnLW1hJywgJzIwMCcsICctbWV0YWxfYmluZGluZycsICctaW1hZScsICc8aW5maWxlLm1hZT4nLCAnLW9tYWUnLCAnPG91dGZpbGUubWFlPic=

> <r_lp_tautomer_probability>
1

> <r_epik_Ionization_Penalty>
0.0665975

> <r_epik_Ionization_Penalty_Charging>
0

> <r_epik_Ionization_Penalty_Neutral>
0.0665975

> <r_epik_State_Penalty>
0.0581545

> <r_epik_Charging_Adjusted_Penalty>
0.0581545

> <i_epik_Tot_Q>
0

> <i_epik_Tot_abs_Q>
0

> <r_epik_Metal_State_Penalty>
6.11011e-05

> <b_epik_Metal_Only>
0

> <s_lp_Force_Field>
OPLS_2005

> <r_lp_Energy>
19.5197

> <b_lp_Chiralities_Consistent>
1

> <s_lp_Variant>
AV-unprocessed.smi:462-1

> <Gold.Version>
5.8.1

> <Gold.Id.Protein>
6NUR|6NUR_protein|mol2

> <Gold.PLP.Fitness>
52.4490

> <Gold.PLP.PLP>
-51.1181

> <Gold.PLP.part.hbond>
-0.9857

> <Gold.PLP.part.metal>
0.0000

> <Gold.PLP.part.buried>
-6.6077

> <Gold.PLP.part.nonpolar>
-43.4633

> <Gold.PLP.part.repulsive>
0.0016

> <Gold.PLP.ligand.clash>
0.0000

> <Gold.PLP.ligand.torsion>
0.9202

> <Gold.PLP.Chemscore.Hbond>
1.0000

> <Gold.PLP.Chemscore.CHOScore>
0.0000

> <Gold.PLP.Chemscore.Metal>
0.0000

> <Gold.Chemscore.Hbonds>
donor molecule, donor type, donor heavy atom, donor atom, acceptor molecule, acceptor atom, score
      P1  H 10752 10764       L1    17  0.94

> <Gold.PLP.Chemscore.Internal.Correction>
0.1712

> <Gold.Rescore>
     Score         DG    S(hbond)    S(metal)    S(lipo)     H(rot)  DE(clash)    DE(int)     intcor
     19.03     -19.87       0.98        0.00     144.40       2.25       0.03       0.82       ----

> <Gold.Chemscore.Fitness>
19.0269

> <Gold.Chemscore.DG>
-19.8699

> <Gold.Chemscore.ZeroCoef>
-5.4800

> <Gold.Chemscore.Hbond>
0.9777

> <Gold.Chemscore.Metal>
0.0000

> <Gold.Chemscore.Lipo>
144.3993

> <Gold.Chemscore.Internal_Hbond>
0.0000

> <Gold.Chemscore.DEClash>
0.0253

> <Gold.Chemscore.DEInternal>
0.8177

> <Gold.Chemscore.Rot>
2.2541

> <Gold.Chemscore.Internal.Correction>
   9.000000E+99

> <Gold.Chemscore.Hbonds>
donor molecule, donor type, donor heavy atom, donor atom, acceptor molecule, acceptor atom, score
      P1  H 10752 10764       L1    17  0.53

> <Gold.Chemscore.Hbond.Weighted>
-3.2657

> <Gold.Chemscore.Metal.Weighted>
-0.0000

> <Gold.Chemscore.Lipo.Weighted>
-16.8947

> <Gold.Chemscore.Internal_Hbond.Weighted>
0.0000

> <Gold.Chemscore.DEClash.Weighted>
0.0253

> <Gold.Chemscore.DEInternal.Weighted>
0.8177

> <Gold.Chemscore.Rot.Weighted>
5.7705

> <Gold.Chemscore.Internal.Correction.Weighted>
   9.000000E+99

> <Gold.Protein.RotatedTorsions>
[ 6907 6896 6895 6894 ] final   -1.45 input  -60.11 | X-H torsion
[ 7974 7965 7964 7962 ] final   69.17 input  175.53 | X-H torsion
[ 8008 7997 7996 7995 ] final -106.70 input   59.86 | X-H torsion
[ 10167 10162 10161 10158 ] final  142.57 input  -65.29 | X-H torsion
[ 10718 10713 10712 10709 ] final  -55.35 input   66.30 | X-H torsion
[ 10763 10752 10751 10750 ] final   12.33 input  -60.55 | X-H torsion
[ 11005 11000 10999 10996 ] final -124.90 input  -57.11 | X-H torsion

> <Gold.Protein.ActiveResidues>
 VAL166  LYS551  ARG553  GLY616  TRP617  ASP618  TYR619  PRO620  LYS621  CYS622 
 ASP623  PHE694  ASN695  SER759  ASP760  ASP761  ALA762  ILE779  LEU786  VAL792 
 PHE793  MET794  SER795  GLU796  ALA797  LYS798  CYS799  TRP800  GLU811  SER814 

> <Gold.Protein.RotatedAtoms>
  151.5458  135.1068  159.9937 H   0  0  0  0  0  0  0  0  0  0  0  0  # atno 6907 bound_to 6896
  152.4514  133.7633  159.6769 H   0  0  0  0  0  0  0  0  0  0  0  0  # atno 6908 bound_to 6896
  150.8444  133.7818  159.3073 H   0  0  0  0  0  0  0  0  0  0  0  0  # atno 6909 bound_to 6896
  145.7937  139.2947  143.1195 H   0  0  0  0  0  0  0  0  0  0  0  0  # atno 7974 bound_to 7965
  154.9184  140.0408  157.1984 H   0  0  0  0  0  0  0  0  0  0  0  0  # atno 8008 bound_to 7997
  154.8278  140.2894  155.5721 H   0  0  0  0  0  0  0  0  0  0  0  0  # atno 8009 bound_to 7997
  156.2985  140.2506  156.3198 H   0  0  0  0  0  0  0  0  0  0  0  0  # atno 8010 bound_to 7997
  139.4991  144.6098  151.6298 H   0  0  0  0  0  0  0  0  0  0  0  0  # atno 10167 bound_to 10162
  156.1376  130.4156  150.0159 H   0  0  0  0  0  0  0  0  0  0  0  0  # atno 10718 bound_to 10713
  153.1834  135.6831  153.8448 H   0  0  0  0  0  0  0  0  0  0  0  0  # atno 10763 bound_to 10752
  153.7772  135.3187  155.3361 H   0  0  0  0  0  0  0  0  0  0  0  0  # atno 10764 bound_to 10752
  154.8073  135.4740  154.0522 H   0  0  0  0  0  0  0  0  0  0  0  0  # atno 10765 bound_to 10752
  140.9805  134.0680  157.3771 H   0  0  0  0  0  0  0  0  0  0  0  0  # atno 11005 bound_to 11000
  145.9950  140.8569  143.0047 LP  0  0  0  0  0  0  0  0  0  0  0  0  # atno 17320 bound_to 7965
  144.6778  140.2270  143.7360 LP  0  0  0  0  0  0  0  0  0  0  0  0  # atno 17321 bound_to 7965
  140.5769  144.0013  150.6247 LP  0  0  0  0  0  0  0  0  0  0  0  0  # atno 17342 bound_to 10162
  140.3149  143.3174  152.0842 LP  0  0  0  0  0  0  0  0  0  0  0  0  # atno 17343 bound_to 10162
  156.8053  130.9305  151.3645 LP  0  0  0  0  0  0  0  0  0  0  0  0  # atno 17370 bound_to 10713
  157.6546  130.8914  149.9703 LP  0  0  0  0  0  0  0  0  0  0  0  0  # atno 17371 bound_to 10713
  139.8948  135.0138  156.6969 LP  0  0  0  0  0  0  0  0  0  0  0  0  # atno 17394 bound_to 11000
  140.7194  133.9154  155.8137 LP  0  0  0  0  0  0  0  0  0  0  0  0  # atno 17395 bound_to 11000

$$$$
