AV-unprocessed.smi:2907|AV-procd|sdf|11166|dock9
  -GOLD-   2272016 53D 1   1.00000     0.00000
 Structure written by MMmdl.
 45 46  0  0  0  0  0  0  0  0  1 V2000
  146.0757  143.3314  154.0751 C   0  0  0  0  0  0  0  0  0  0  0  0
  146.0838  141.8015  154.2087 C   0  0  0  0  0  0  0  0  0  0  0  0
  147.2358  141.1112  153.4516 C   0  0  0  0  0  0  0  0  0  0  0  0
  147.0770  139.5778  153.4578 C   0  0  0  0  0  0  0  0  0  0  0  0
  146.5954  138.9959  152.1200 C   0  0  0  0  0  0  0  0  0  0  0  0
  148.5250  141.4720  154.0396 N   0  0  0  0  0  0  0  0  0  0  0  0
  148.9171  141.2244  155.2999 C   0  0  0  0  0  0  0  0  0  0  0  0
  148.2563  140.5711  156.1067 O   0  0  0  0  0  0  0  0  0  0  0  0
  150.2559  141.8304  155.7223 C   0  0  0  0  0  0  0  0  0  0  0  0
  151.1932  140.7873  156.1097 N   0  0  0  0  0  0  0  0  0  0  0  0
  151.5622  139.8290  155.2237 N   0  0  0  0  0  0  0  0  0  0  0  0
  152.4314  139.0730  155.8283 N   0  0  0  0  0  0  0  0  0  0  0  0
  152.6626  139.5076  157.1188 N   0  0  0  0  0  0  0  0  0  0  0  0
  151.8637  140.5604  157.2506 C   0  0  0  0  0  0  0  0  0  0  0  0
  151.7705  141.4268  158.4741 C   0  0  0  0  0  0  0  0  0  0  0  0
  151.8872  142.9233  158.1257 C   0  0  0  0  0  0  0  0  0  0  0  0
  151.7619  143.8031  159.3797 C   0  0  0  0  0  0  0  0  0  0  0  0
  152.7910  143.4011  160.4482 C   0  0  0  0  0  0  0  0  0  0  0  0
  152.6695  141.9107  160.8043 C   0  0  0  0  0  0  0  0  0  0  0  0
  152.7959  141.0254  159.5534 C   0  0  0  0  0  0  0  0  0  0  0  0
  145.2062  143.7577  154.5755 H   0  0  0  0  0  0  0  0  0  0  0  0
  146.0387  143.6341  153.0285 H   0  0  0  0  0  0  0  0  0  0  0  0
  146.9633  143.7783  154.5232 H   0  0  0  0  0  0  0  0  0  0  0  0
  146.1219  141.5325  155.2652 H   0  0  0  0  0  0  0  0  0  0  0  0
  145.1332  141.4196  153.8349 H   0  0  0  0  0  0  0  0  0  0  0  0
  147.1958  141.4377  152.4109 H   0  0  0  0  0  0  0  0  0  0  0  0
  148.0238  139.1099  153.7305 H   0  0  0  0  0  0  0  0  0  0  0  0
  146.3654  139.2947  154.2342 H   0  0  0  0  0  0  0  0  0  0  0  0
  146.4546  137.9178  152.1965 H   0  0  0  0  0  0  0  0  0  0  0  0
  147.3138  139.1754  151.3195 H   0  0  0  0  0  0  0  0  0  0  0  0
  145.6428  139.4343  151.8216 H   0  0  0  0  0  0  0  0  0  0  0  0
  149.1472  142.0128  153.4560 H   0  0  0  0  0  0  0  0  0  0  0  0
  150.6871  142.4146  154.9087 H   0  0  0  0  0  0  0  0  0  0  0  0
  150.1023  142.5143  156.5586 H   0  0  0  0  0  0  0  0  0  0  0  0
  150.7849  141.2770  158.9141 H   0  0  0  0  0  0  0  0  0  0  0  0
  152.8431  143.1182  157.6376 H   0  0  0  0  0  0  0  0  0  0  0  0
  151.1118  143.2002  157.4110 H   0  0  0  0  0  0  0  0  0  0  0  0
  151.8925  144.8519  159.1119 H   0  0  0  0  0  0  0  0  0  0  0  0
  150.7551  143.7118  159.7893 H   0  0  0  0  0  0  0  0  0  0  0  0
  153.7973  143.6092  160.0826 H   0  0  0  0  0  0  0  0  0  0  0  0
  152.6549  144.0093  161.3428 H   0  0  0  0  0  0  0  0  0  0  0  0
  153.4358  141.6385  161.5306 H   0  0  0  0  0  0  0  0  0  0  0  0
  151.7081  141.7276  161.2859 H   0  0  0  0  0  0  0  0  0  0  0  0
  152.6574  139.9793  159.8293 H   0  0  0  0  0  0  0  0  0  0  0  0
  153.8079  141.1090  159.1549 H   0  0  0  0  0  0  0  0  0  0  0  0
  1  2  1  0  0  0  0
  1 21  1  0  0  0  0
  1 22  1  0  0  0  0
  1 23  1  0  0  0  0
  2  3  1  0  0  0  0
  2 24  1  0  0  0  0
  2 25  1  0  0  0  0
  3  4  1  0  0  0  0
  3  6  1  0  0  0  0
  3 26  1  0  0  0  0
  4  5  1  0  0  0  0
  4 27  1  0  0  0  0
  4 28  1  0  0  0  0
  5 29  1  0  0  0  0
  5 30  1  0  0  0  0
  5 31  1  0  0  0  0
  6  7  1  0  0  0  0
  6 32  1  0  0  0  0
  7  8  2  0  0  0  0
  7  9  1  0  0  0  0
  9 10  1  0  0  0  0
  9 33  1  0  0  0  0
  9 34  1  0  0  0  0
 10 14  1  0  0  0  0
 10 11  1  0  0  0  0
 11 12  2  0  0  0  0
 12 13  1  0  0  0  0
 13 14  2  0  0  0  0
 14 15  1  0  0  0  0
 15 20  1  0  0  0  0
 15 16  1  0  0  0  0
 15 35  1  0  0  0  0
 16 17  1  0  0  0  0
 16 36  1  0  0  0  0
 16 37  1  0  0  0  0
 17 18  1  0  0  0  0
 17 38  1  0  0  0  0
 17 39  1  0  0  0  0
 18 19  1  0  0  0  0
 18 40  1  0  0  0  0
 18 41  1  0  0  0  0
 19 20  1  0  0  0  0
 19 42  1  0  0  0  0
 19 43  1  0  0  0  0
 20 44  1  0  0  0  0
 20 45  1  0  0  0  0
M  END
> <s_m_source_file>
AV-unprocessed.smi

> <i_m_source_file_index>
2907

> <i_lp_mmshare_version>
43012

> <i_f3d_flags>
0

> <s_epik_input>
W0NIM11bQ0gyXVtDSF0oW0NIMl1bQ0gzXSlbTkhdQyg9TylbQ0gyXW4xbm5uYzFbQ0hdMltDSDJdW0NIMl1bQ0gyXVtDSDJdW0NIMl0y

> <s_epik_cmdline>
J2VwaWtfcHl0aG9uJywgJy1waCcsICc3LjAnLCAnLXRuJywgJzgnLCAnLW1hJywgJzIwMCcsICctbWV0YWxfYmluZGluZycsICctaW1hZScsICc8aW5maWxlLm1hZT4nLCAnLW9tYWUnLCAnPG91dGZpbGUubWFlPic=

> <r_lp_tautomer_probability>
1

> <r_epik_Ionization_Penalty>
4.92512e-07

> <r_epik_Ionization_Penalty_Charging>
0

> <r_epik_Ionization_Penalty_Neutral>
4.92512e-07

> <r_epik_State_Penalty>
-0

> <r_epik_Charging_Adjusted_Penalty>
0

> <i_epik_Tot_Q>
0

> <i_epik_Tot_abs_Q>
0

> <r_epik_Metal_State_Penalty>
-0

> <b_epik_Metal_Only>
0

> <s_lp_Force_Field>
OPLS_2005

> <r_lp_Energy>
10.8377

> <b_lp_Chiralities_Consistent>
1

> <s_lp_Variant>
AV-unprocessed.smi:2907-1

> <Gold.Version>
5.8.1

> <Gold.Id.Protein>
6NUR|6NUR_protein|mol2

> <Gold.PLP.Fitness>
48.4957

> <Gold.PLP.PLP>
-44.0904

> <Gold.PLP.part.hbond>
-3.2062

> <Gold.PLP.part.metal>
0.0000

> <Gold.PLP.part.buried>
-4.3987

> <Gold.PLP.part.nonpolar>
-36.0263

> <Gold.PLP.part.repulsive>
0.8452

> <Gold.PLP.ligand.clash>
0.0000

> <Gold.PLP.ligand.torsion>
0.8464

> <Gold.PLP.Chemscore.Hbond>
2.0000

> <Gold.PLP.Chemscore.CHOScore>
0.0000

> <Gold.PLP.Chemscore.Metal>
0.0000

> <Gold.Chemscore.Hbonds>
donor molecule, donor type, donor heavy atom, donor atom, acceptor molecule, acceptor atom, score
      P1  H  7989  7998       L1    11  1.00
      P1  H  7997  8010       L1    13  0.90

> <Gold.PLP.Chemscore.Internal.Correction>
0.0980

> <Gold.Rescore>
     Score         DG    S(hbond)    S(metal)    S(lipo)     H(rot)  DE(clash)    DE(int)     intcor
     14.85     -16.31       1.08        0.00     101.17       1.79       0.04       1.43       ----

> <Gold.Chemscore.Fitness>
14.8468

> <Gold.Chemscore.DG>
-16.3148

> <Gold.Chemscore.ZeroCoef>
-5.4800

> <Gold.Chemscore.Hbond>
1.0752

> <Gold.Chemscore.Metal>
0.0000

> <Gold.Chemscore.Lipo>
101.1735

> <Gold.Chemscore.Internal_Hbond>
0.0000

> <Gold.Chemscore.DEClash>
0.0387

> <Gold.Chemscore.DEInternal>
1.4293

> <Gold.Chemscore.Rot>
1.7944

> <Gold.Chemscore.Internal.Correction>
   9.000000E+99

> <Gold.Chemscore.Hbonds>
donor molecule, donor type, donor heavy atom, donor atom, acceptor molecule, acceptor atom, score
      P1  H  7989  7998       L1    11  0.32
      P1  H  7997  8010       L1    13  0.14

> <Gold.Chemscore.Hbond.Weighted>
-3.5913

> <Gold.Chemscore.Metal.Weighted>
-0.0000

> <Gold.Chemscore.Lipo.Weighted>
-11.8373

> <Gold.Chemscore.Internal_Hbond.Weighted>
0.0000

> <Gold.Chemscore.DEClash.Weighted>
0.0387

> <Gold.Chemscore.DEInternal.Weighted>
1.4293

> <Gold.Chemscore.Rot.Weighted>
4.5938

> <Gold.Chemscore.Internal.Correction.Weighted>
   9.000000E+99

> <Gold.Protein.RotatedTorsions>
[ 6907 6896 6895 6894 ] final -123.01 input  -60.11 | X-H torsion
[ 7974 7965 7964 7962 ] final   58.58 input  175.53 | X-H torsion
[ 8008 7997 7996 7995 ] final   41.25 input   59.86 | X-H torsion
[ 10167 10162 10161 10158 ] final   83.93 input  -65.29 | X-H torsion
[ 10718 10713 10712 10709 ] final  -99.79 input   66.30 | X-H torsion
[ 10763 10752 10751 10750 ] final -153.70 input  -60.55 | X-H torsion
[ 11005 11000 10999 10996 ] final -121.64 input  -57.11 | X-H torsion

> <Gold.Protein.ActiveResidues>
 VAL166  LYS551  ARG553  GLY616  TRP617  ASP618  TYR619  PRO620  LYS621  CYS622 
 ASP623  PHE694  ASN695  SER759  ASP760  ASP761  ALA762  ILE779  LEU786  VAL792 
 PHE793  MET794  SER795  GLU796  ALA797  LYS798  CYS799  TRP800  GLU811  SER814 

> <Gold.Protein.RotatedAtoms>
  150.8630  133.7615  159.2985 H   0  0  0  0  0  0  0  0  0  0  0  0  # atno 6907 bound_to 6896
  151.5252  135.1066  159.9898 H   0  0  0  0  0  0  0  0  0  0  0  0  # atno 6908 bound_to 6896
  152.4640  133.7839  159.6921 H   0  0  0  0  0  0  0  0  0  0  0  0  # atno 6909 bound_to 6896
  145.9166  139.3696  143.0503 H   0  0  0  0  0  0  0  0  0  0  0  0  # atno 7974 bound_to 7965
  155.2665  140.3363  155.4269 H   0  0  0  0  0  0  0  0  0  0  0  0  # atno 8008 bound_to 7997
  156.2152  140.1786  156.7648 H   0  0  0  0  0  0  0  0  0  0  0  0  # atno 8009 bound_to 7997
  154.5743  140.0664  156.8995 H   0  0  0  0  0  0  0  0  0  0  0  0  # atno 8010 bound_to 7997
  139.9132  144.6258  150.8515 H   0  0  0  0  0  0  0  0  0  0  0  0  # atno 10167 bound_to 10162
  156.0144  130.5298  150.6722 H   0  0  0  0  0  0  0  0  0  0  0  0  # atno 10718 bound_to 10713
  154.7910  135.3207  154.7778 H   0  0  0  0  0  0  0  0  0  0  0  0  # atno 10763 bound_to 10752
  153.8467  135.6866  153.4801 H   0  0  0  0  0  0  0  0  0  0  0  0  # atno 10764 bound_to 10752
  153.1580  135.4672  154.9672 H   0  0  0  0  0  0  0  0  0  0  0  0  # atno 10765 bound_to 10752
  141.0055  134.0341  157.3482 H   0  0  0  0  0  0  0  0  0  0  0  0  # atno 11005 bound_to 11000
  145.8603  140.9479  143.0703 LP  0  0  0  0  0  0  0  0  0  0  0  0  # atno 17320 bound_to 7965
  144.6748  140.0522  143.7478 LP  0  0  0  0  0  0  0  0  0  0  0  0  # atno 17321 bound_to 7965
  140.7680  143.3350  151.2328 LP  0  0  0  0  0  0  0  0  0  0  0  0  # atno 17342 bound_to 10162
  139.6924  143.9669  152.2866 LP  0  0  0  0  0  0  0  0  0  0  0  0  # atno 17343 bound_to 10162
  157.4442  131.0865  151.0912 LP  0  0  0  0  0  0  0  0  0  0  0  0  # atno 17370 bound_to 10713
  157.1447  130.6158  149.5565 LP  0  0  0  0  0  0  0  0  0  0  0  0  # atno 17371 bound_to 10713
  139.9061  135.0179  156.7491 LP  0  0  0  0  0  0  0  0  0  0  0  0  # atno 17394 bound_to 11000
  140.6819  133.9466  155.7915 LP  0  0  0  0  0  0  0  0  0  0  0  0  # atno 17395 bound_to 11000

$$$$
