AV-unprocessed.smi:400|AV-procd|sdf|2493|dock1
  -GOLD-   2262022443D 1   1.00000     0.00000
 Structure written by MMmdl.
 40 41  0  0  0  0  0  0  0  0  1 V2000
  154.4120  136.3454  164.2578 C   0  0  0  0  0  0  0  0  0  0  0  0
  154.7871  135.2636  163.2324 C   0  0  0  0  0  0  0  0  0  0  0  0
  155.3563  135.8151  161.9061 C   0  0  1  0  0  0  0  0  0  0  0  0
  155.5900  134.6795  160.8945 C   0  0  0  0  0  0  0  0  0  0  0  0
  154.4439  136.8911  161.2964 C   0  0  0  0  0  0  0  0  0  0  0  0
  153.3412  136.5724  160.8497 O   0  0  0  0  0  0  0  0  0  0  0  0
  154.9346  138.1452  161.2963 N   0  0  0  0  0  0  0  0  0  0  0  0
  154.3061  139.3364  160.8465 C   0  0  0  0  0  0  0  0  0  0  0  0
  154.6753  140.5078  161.5408 C   0  0  0  0  0  0  0  0  0  0  0  0
  154.0961  141.7397  161.1816 C   0  0  0  0  0  0  0  0  0  0  0  0
  153.1474  141.7853  160.1323 C   0  0  0  0  0  0  0  0  0  0  0  0
  152.5207  142.9813  159.7194 N   0  0  0  0  0  0  0  0  0  0  0  0
  152.2806  143.9682  160.7696 C   0  0  0  0  0  0  0  0  0  0  0  0
  151.3195  145.0606  160.2692 C   0  0  0  0  0  0  0  0  0  0  0  0
  151.8279  145.6382  159.0713 O   0  0  0  0  0  0  0  0  0  0  0  0
  151.9425  144.6763  158.0285 C   0  0  0  0  0  0  0  0  0  0  0  0
  152.9278  143.5717  158.4474 C   0  0  0  0  0  0  0  0  0  0  0  0
  152.8505  140.5588  159.4942 C   0  0  0  0  0  0  0  0  0  0  0  0
  153.4062  139.3776  159.8354 N   0  0  0  0  0  0  0  0  0  0  0  0
  154.0825  135.8920  165.1928 H   0  0  0  0  0  0  0  0  0  0  0  0
  153.6003  136.9785  163.8989 H   0  0  0  0  0  0  0  0  0  0  0  0
  155.2644  136.9870  164.4829 H   0  0  0  0  0  0  0  0  0  0  0  0
  155.5275  134.6047  163.6874 H   0  0  0  0  0  0  0  0  0  0  0  0
  153.9157  134.6378  163.0342 H   0  0  0  0  0  0  0  0  0  0  0  0
  156.3272  136.2661  162.1193 H   0  0  0  0  0  0  0  0  0  0  0  0
  155.9806  135.0614  159.9503 H   0  0  0  0  0  0  0  0  0  0  0  0
  154.6684  134.1370  160.6796 H   0  0  0  0  0  0  0  0  0  0  0  0
  156.3134  133.9594  161.2777 H   0  0  0  0  0  0  0  0  0  0  0  0
  155.8624  138.2603  161.6771 H   0  0  0  0  0  0  0  0  0  0  0  0
  155.3938  140.4682  162.3468 H   0  0  0  0  0  0  0  0  0  0  0  0
  154.3836  142.6248  161.7286 H   0  0  0  0  0  0  0  0  0  0  0  0
  151.8622  143.5129  161.6661 H   0  0  0  0  0  0  0  0  0  0  0  0
  153.2337  144.4148  161.0559 H   0  0  0  0  0  0  0  0  0  0  0  0
  150.3230  144.6515  160.0948 H   0  0  0  0  0  0  0  0  0  0  0  0
  151.2150  145.8414  161.0225 H   0  0  0  0  0  0  0  0  0  0  0  0
  150.9625  144.2561  157.7977 H   0  0  0  0  0  0  0  0  0  0  0  0
  152.2968  145.1726  157.1249 H   0  0  0  0  0  0  0  0  0  0  0  0
  153.9315  143.9875  158.5455 H   0  0  0  0  0  0  0  0  0  0  0  0
  152.9618  142.8070  157.6702 H   0  0  0  0  0  0  0  0  0  0  0  0
  152.1562  140.5134  158.6684 H   0  0  0  0  0  0  0  0  0  0  0  0
  1  2  1  0  0  0  0
  1 20  1  0  0  0  0
  1 21  1  0  0  0  0
  1 22  1  0  0  0  0
  2  3  1  0  0  0  0
  2 23  1  0  0  0  0
  2 24  1  0  0  0  0
  3  4  1  0  0  0  0
  3  5  1  0  0  0  0
  3 25  1  0  0  0  0
  4 26  1  0  0  0  0
  4 27  1  0  0  0  0
  4 28  1  0  0  0  0
  5  6  2  0  0  0  0
  5  7  1  0  0  0  0
  7  8  1  0  0  0  0
  7 29  1  0  0  0  0
  8 19  1  0  0  0  0
  8  9  2  0  0  0  0
  9 10  1  0  0  0  0
  9 30  1  0  0  0  0
 10 11  2  0  0  0  0
 10 31  1  0  0  0  0
 11 12  1  0  0  0  0
 11 18  1  0  0  0  0
 12 17  1  0  0  0  0
 12 13  1  0  0  0  0
 13 14  1  0  0  0  0
 13 32  1  0  0  0  0
 13 33  1  0  0  0  0
 14 15  1  0  0  0  0
 14 34  1  0  0  0  0
 14 35  1  0  0  0  0
 15 16  1  0  0  0  0
 16 17  1  0  0  0  0
 16 36  1  0  0  0  0
 16 37  1  0  0  0  0
 17 38  1  0  0  0  0
 17 39  1  0  0  0  0
 18 19  2  0  0  0  0
 18 40  1  0  0  0  0
M  END
> <s_m_source_file>
AV-unprocessed.smi

> <i_m_source_file_index>
400

> <i_lp_mmshare_version>
43012

> <i_f3d_flags>
0

> <s_epik_input>
W0NIM11bQ0gyXVtDQEhdKFtDSDNdKUMoPU8pW05IXWMxW2NIXVtjSF1jKFtjSF1uMSlOMltDSDJdW0NIMl1PW0NIMl1bQ0gyXTI=

> <s_epik_cmdline>
J2VwaWtfcHl0aG9uJywgJy1waCcsICc3LjAnLCAnLXRuJywgJzgnLCAnLW1hJywgJzIwMCcsICctbWV0YWxfYmluZGluZycsICctaW1hZScsICc8aW5maWxlLm1hZT4nLCAnLW9tYWUnLCAnPG91dGZpbGUubWFlPic=

> <r_lp_tautomer_probability>
1

> <r_epik_Ionization_Penalty>
0.00393323

> <r_epik_Ionization_Penalty_Charging>
0

> <r_epik_Ionization_Penalty_Neutral>
0.00393323

> <r_epik_State_Penalty>
0.00357844

> <r_epik_Charging_Adjusted_Penalty>
0.00357844

> <i_epik_Tot_Q>
0

> <i_epik_Tot_abs_Q>
0

> <r_epik_Metal_State_Penalty>
-0

> <b_epik_Metal_Only>
0

> <s_lp_Force_Field>
OPLS_2005

> <r_lp_Energy>
25.3606

> <b_lp_Chiralities_Consistent>
1

> <s_lp_Variant>
AV-unprocessed.smi:400-2

> <Gold.Version>
5.8.1

> <Gold.Id.Protein>
6NUR|6NUR_protein|mol2

> <Gold.PLP.Fitness>
43.6294

> <Gold.PLP.PLP>
-41.9538

> <Gold.PLP.part.hbond>
-1.9826

> <Gold.PLP.part.metal>
0.0000

> <Gold.PLP.part.buried>
-5.3121

> <Gold.PLP.part.nonpolar>
-35.0118

> <Gold.PLP.part.repulsive>
0.1210

> <Gold.PLP.ligand.clash>
0.0000

> <Gold.PLP.ligand.torsion>
0.8354

> <Gold.PLP.Chemscore.Hbond>
0.9750

> <Gold.PLP.Chemscore.CHOScore>
0.0000

> <Gold.PLP.Chemscore.Metal>
0.0000

> <Gold.Chemscore.Hbonds>
donor molecule, donor type, donor heavy atom, donor atom, acceptor molecule, acceptor atom, score
      P1  H  6896  6909       L1     6  0.75

> <Gold.PLP.Chemscore.Internal.Correction>
0.4214

> <Gold.Rescore>
     Score         DG    S(hbond)    S(metal)    S(lipo)     H(rot)  DE(clash)    DE(int)     intcor
     16.45     -18.22       1.00        0.00     108.89       1.30       0.26       1.50       ----

> <Gold.Chemscore.Fitness>
16.4544

> <Gold.Chemscore.DG>
-18.2221

> <Gold.Chemscore.ZeroCoef>
-5.4800

> <Gold.Chemscore.Hbond>
1.0000

> <Gold.Chemscore.Metal>
0.0000

> <Gold.Chemscore.Lipo>
108.8942

> <Gold.Chemscore.Internal_Hbond>
0.0000

> <Gold.Chemscore.DEClash>
0.2649

> <Gold.Chemscore.DEInternal>
1.5027

> <Gold.Chemscore.Rot>
1.3041

> <Gold.Chemscore.Internal.Correction>
   9.000000E+99

> <Gold.Chemscore.Hbonds>
donor molecule, donor type, donor heavy atom, donor atom, acceptor molecule, acceptor atom, score
      P1  H  6896  6909       L1     6  0.75

> <Gold.Chemscore.Hbond.Weighted>
-3.3400

> <Gold.Chemscore.Metal.Weighted>
-0.0000

> <Gold.Chemscore.Lipo.Weighted>
-12.7406

> <Gold.Chemscore.Internal_Hbond.Weighted>
0.0000

> <Gold.Chemscore.DEClash.Weighted>
0.2649

> <Gold.Chemscore.DEInternal.Weighted>
1.5027

> <Gold.Chemscore.Rot.Weighted>
3.3385

> <Gold.Chemscore.Internal.Correction.Weighted>
   9.000000E+99

> <Gold.Protein.RotatedTorsions>
[ 6907 6896 6895 6894 ] final  154.18 input  -60.11 | X-H torsion
[ 7974 7965 7964 7962 ] final  150.16 input  175.53 | X-H torsion
[ 8008 7997 7996 7995 ] final -147.85 input   59.86 | X-H torsion
[ 10167 10162 10161 10158 ] final   83.28 input  -65.29 | X-H torsion
[ 10718 10713 10712 10709 ] final   26.98 input   66.30 | X-H torsion
[ 10763 10752 10751 10750 ] final -110.66 input  -60.55 | X-H torsion
[ 11005 11000 10999 10996 ] final  -38.26 input  -57.11 | X-H torsion

> <Gold.Protein.ActiveResidues>
 VAL166  LYS551  ARG553  GLY616  TRP617  ASP618  TYR619  PRO620  LYS621  CYS622 
 ASP623  PHE694  ASN695  SER759  ASP760  ASP761  ALA762  ILE779  LEU786  VAL792 
 PHE793  MET794  SER795  GLU796  ALA797  LYS798  CYS799  TRP800  GLU811  SER814 

> <Gold.Protein.RotatedAtoms>
  152.0621  133.4067  159.4422 H   0  0  0  0  0  0  0  0  0  0  0  0  # atno 6907 bound_to 6896
  150.6866  134.3188  159.4787 H   0  0  0  0  0  0  0  0  0  0  0  0  # atno 6908 bound_to 6896
  152.1010  134.9341  160.0620 H   0  0  0  0  0  0  0  0  0  0  0  0  # atno 6909 bound_to 6896
  144.8384  139.6373  143.6027 H   0  0  0  0  0  0  0  0  0  0  0  0  # atno 7974 bound_to 7965
  155.5823  140.0644  157.2780 H   0  0  0  0  0  0  0  0  0  0  0  0  # atno 8008 bound_to 7997
  154.4329  140.1850  156.1035 H   0  0  0  0  0  0  0  0  0  0  0  0  # atno 8009 bound_to 7997
  156.0296  140.3308  155.7129 H   0  0  0  0  0  0  0  0  0  0  0  0  # atno 8010 bound_to 7997
  139.9201  144.6218  150.8449 H   0  0  0  0  0  0  0  0  0  0  0  0  # atno 10167 bound_to 10162
  157.2140  130.6947  149.6241 H   0  0  0  0  0  0  0  0  0  0  0  0  # atno 10718 bound_to 10713
  154.8259  135.4556  154.0919 H   0  0  0  0  0  0  0  0  0  0  0  0  # atno 10763 bound_to 10752
  153.2233  135.6896  153.7981 H   0  0  0  0  0  0  0  0  0  0  0  0  # atno 10764 bound_to 10752
  153.7390  135.3315  155.3277 H   0  0  0  0  0  0  0  0  0  0  0  0  # atno 10765 bound_to 10752
  141.0014  133.6953  156.2029 H   0  0  0  0  0  0  0  0  0  0  0  0  # atno 11005 bound_to 11000
  146.2680  139.6566  142.9316 LP  0  0  0  0  0  0  0  0  0  0  0  0  # atno 17320 bound_to 7965
  145.4746  141.0437  143.2680 LP  0  0  0  0  0  0  0  0  0  0  0  0  # atno 17321 bound_to 7965
  140.7664  143.3303  151.2424 LP  0  0  0  0  0  0  0  0  0  0  0  0  # atno 17342 bound_to 10162
  139.6869  143.9758  152.2839 LP  0  0  0  0  0  0  0  0  0  0  0  0  # atno 17343 bound_to 10162
  155.9688  130.4542  150.5839 LP  0  0  0  0  0  0  0  0  0  0  0  0  # atno 17370 bound_to 10713
  157.3643  131.0755  151.1610 LP  0  0  0  0  0  0  0  0  0  0  0  0  # atno 17371 bound_to 10713
  140.6883  134.4693  157.5589 LP  0  0  0  0  0  0  0  0  0  0  0  0  # atno 17394 bound_to 11000
  139.9040  134.8490  156.1778 LP  0  0  0  0  0  0  0  0  0  0  0  0  # atno 17395 bound_to 11000

$$$$
