AV-unprocessed.smi:2943|AV-procd|sdf|11270|dock3
  -GOLD-   2272016163D 1   1.00000     0.00000
 Structure written by MMmdl.
 37 39  0  0  0  0  0  0  0  0  2 V2000
  151.9455  144.4465  160.9491 C   0  0  0  0  0  0  0  0  0  0  0  0
  152.2746  143.0744  160.4394 C   0  0  0  0  0  0  0  0  0  0  0  0
  153.0179  142.1173  161.0931 C   0  0  0  0  0  0  0  0  0  0  0  0
  153.6561  142.2051  162.4458 C   0  0  0  0  0  0  0  0  0  0  0  0
  153.1255  140.9745  160.2972 N   0  0  0  0  0  0  0  0  0  0  0  0
  153.8464  139.7557  160.6376 C   0  0  0  0  0  0  0  0  0  0  0  0
  155.0613  139.5301  159.7233 C   0  0  2  0  0  0  0  0  0  0  0  0
  155.7507  138.1836  159.9306 C   0  0  0  0  0  0  0  0  0  0  0  0
  157.1372  138.4714  159.4024 C   0  0  0  0  0  0  0  0  0  0  0  0
  157.3655  139.9023  159.8825 C   0  0  0  0  0  0  0  0  0  0  0  0
  156.0752  140.5037  159.9619 O   0  0  0  0  0  0  0  0  0  0  0  0
  152.4208  141.1887  159.1237 C   0  0  0  0  0  0  0  0  0  0  0  0
  152.2488  140.3409  158.0732 N   0  3  0  0  0  0  0  0  0  0  0  0
  151.5129  140.7806  157.0469 C   0  0  0  0  0  0  0  0  0  0  0  0
  150.9567  142.0004  157.0239 N   0  0  0  0  0  0  0  0  0  0  0  0
  151.1091  142.8708  158.0523 C   0  0  0  0  0  0  0  0  0  0  0  0
  150.4862  144.1110  157.9319 N   0  0  0  0  0  0  0  0  0  0  0  0
  151.8740  142.4935  159.1868 C   0  0  0  0  0  0  0  0  0  0  0  0
  152.7444  144.8455  161.5742 H   0  0  0  0  0  0  0  0  0  0  0  0
  151.0323  144.4355  161.5442 H   0  0  0  0  0  0  0  0  0  0  0  0
  151.8016  145.1542  160.1332 H   0  0  0  0  0  0  0  0  0  0  0  0
  153.2546  143.0373  163.0233 H   0  0  0  0  0  0  0  0  0  0  0  0
  154.7332  142.3482  162.3567 H   0  0  0  0  0  0  0  0  0  0  0  0
  153.4810  141.2990  163.0256 H   0  0  0  0  0  0  0  0  0  0  0  0
  154.1650  139.8193  161.6787 H   0  0  0  0  0  0  0  0  0  0  0  0
  153.1649  138.9068  160.5822 H   0  0  0  0  0  0  0  0  0  0  0  0
  154.7648  139.6178  158.6770 H   0  0  0  0  0  0  0  0  0  0  0  0
  155.8006  137.9328  160.9912 H   0  0  0  0  0  0  0  0  0  0  0  0
  155.2540  137.3659  159.4077 H   0  0  0  0  0  0  0  0  0  0  0  0
  157.8908  137.7728  159.7671 H   0  0  0  0  0  0  0  0  0  0  0  0
  157.1368  138.4358  158.3120 H   0  0  0  0  0  0  0  0  0  0  0  0
  157.8084  139.9041  160.8791 H   0  0  0  0  0  0  0  0  0  0  0  0
  158.0249  140.4611  159.2179 H   0  0  0  0  0  0  0  0  0  0  0  0
  151.3771  140.1020  156.2177 H   0  0  0  0  0  0  0  0  0  0  0  0
  149.9443  144.3528  157.1147 H   0  0  0  0  0  0  0  0  0  0  0  0
  150.5723  144.8158  158.6503 H   0  0  0  0  0  0  0  0  0  0  0  0
  152.6616  139.4082  158.0819 H   0  0  0  0  0  0  0  0  0  0  0  0
  1  2  1  0  0  0  0
  1 19  1  0  0  0  0
  1 20  1  0  0  0  0
  1 21  1  0  0  0  0
  2 18  1  0  0  0  0
  2  3  2  0  0  0  0
  3  4  1  0  0  0  0
  3  5  1  0  0  0  0
  4 22  1  0  0  0  0
  4 23  1  0  0  0  0
  4 24  1  0  0  0  0
  5  6  1  0  0  0  0
  5 12  1  0  0  0  0
  6  7  1  0  0  0  0
  6 25  1  0  0  0  0
  6 26  1  0  0  0  0
  7 11  1  0  0  0  0
  7  8  1  0  0  0  0
  7 27  1  0  0  0  0
  8  9  1  0  0  0  0
  8 28  1  0  0  0  0
  8 29  1  0  0  0  0
  9 10  1  0  0  0  0
  9 30  1  0  0  0  0
  9 31  1  0  0  0  0
 10 11  1  0  0  0  0
 10 32  1  0  0  0  0
 10 33  1  0  0  0  0
 12 18  1  0  0  0  0
 12 13  2  0  0  0  0
 13 14  1  0  0  0  0
 13 37  1  0  0  0  0
 14 15  2  0  0  0  0
 14 34  1  0  0  0  0
 15 16  1  0  0  0  0
 16 17  1  0  0  0  0
 16 18  2  0  0  0  0
 17 35  1  0  0  0  0
 17 36  1  0  0  0  0
M  CHG  1  13   1
M  END
> <s_m_source_file>
AV-unprocessed.smi

> <i_m_source_file_index>
2943

> <i_lp_mmshare_version>
43012

> <i_f3d_flags>
0

> <s_epik_input>
bjFbY0hdbmMoW05IMl0pYyhjMTIpYyhbQ0gzXSljKFtDSDNdKW4yW0NIMl1bQ0BASF0zW0NIMl1bQ0gyXVtDSDJdTzM=

> <s_epik_cmdline>
J2VwaWtfcHl0aG9uJywgJy1waCcsICc3LjAnLCAnLXRuJywgJzgnLCAnLW1hJywgJzIwMCcsICctbWV0YWxfYmluZGluZycsICctaW1hZScsICc8aW5maWxlLm1hZT4nLCAnLW9tYWUnLCAnPG91dGZpbGUubWFlPic=

> <r_epik_Ionization_Penalty>
2.35523

> <r_epik_Ionization_Penalty_Charging>
2.35518

> <r_epik_Ionization_Penalty_Neutral>
5.21205e-05

> <r_epik_State_Penalty>
2.50981

> <r_epik_Charging_Adjusted_Penalty>
4.86499

> <i_epik_Tot_Q>
1

> <i_epik_Tot_abs_Q>
1

> <r_epik_Metal_State_Penalty>
2.52087

> <b_epik_Metal_Only>
0

> <s_lp_Force_Field>
OPLS_2005

> <r_lp_Energy>
21.0086

> <b_lp_Chiralities_Consistent>
1

> <s_lp_Variant>
AV-unprocessed.smi:2943-3

> <Gold.Version>
5.8.1

> <Gold.Id.Protein>
6NUR|6NUR_protein|mol2

> <Gold.PLP.Fitness>
39.9213

> <Gold.PLP.PLP>
-37.0691

> <Gold.PLP.part.hbond>
-2.1702

> <Gold.PLP.part.metal>
0.0000

> <Gold.PLP.part.buried>
-4.8939

> <Gold.PLP.part.nonpolar>
-29.4463

> <Gold.PLP.part.repulsive>
0.2013

> <Gold.PLP.ligand.clash>
0.0000

> <Gold.PLP.ligand.torsion>
0.0744

> <Gold.PLP.Chemscore.Hbond>
1.0000

> <Gold.PLP.Chemscore.CHOScore>
0.0000

> <Gold.PLP.Chemscore.Metal>
0.0000

> <Gold.Chemscore.Hbonds>
donor molecule, donor type, donor heavy atom, donor atom, acceptor molecule, acceptor atom, score
      L1  H    17    35       P1  8028  1.00

> <Gold.PLP.Chemscore.Internal.Correction>
0.0011

> <Gold.Rescore>
     Score         DG    S(hbond)    S(metal)    S(lipo)     H(rot)  DE(clash)    DE(int)     intcor
     15.39     -15.42       0.98        0.00      84.96       1.27       0.01       0.02       ----

> <Gold.Chemscore.Fitness>
15.3909

> <Gold.Chemscore.DG>
-15.4213

> <Gold.Chemscore.ZeroCoef>
-5.4800

> <Gold.Chemscore.Hbond>
0.9756

> <Gold.Chemscore.Metal>
0.0000

> <Gold.Chemscore.Lipo>
84.9622

> <Gold.Chemscore.Internal_Hbond>
0.0000

> <Gold.Chemscore.DEClash>
0.0121

> <Gold.Chemscore.DEInternal>
0.0183

> <Gold.Chemscore.Rot>
1.2725

> <Gold.Chemscore.Internal.Correction>
   9.000000E+99

> <Gold.Chemscore.Hbonds>
donor molecule, donor type, donor heavy atom, donor atom, acceptor molecule, acceptor atom, score
      L1  H    17    35       P1  8028  0.60

> <Gold.Chemscore.Hbond.Weighted>
-3.2584

> <Gold.Chemscore.Metal.Weighted>
-0.0000

> <Gold.Chemscore.Lipo.Weighted>
-9.9406

> <Gold.Chemscore.Internal_Hbond.Weighted>
0.0000

> <Gold.Chemscore.DEClash.Weighted>
0.0121

> <Gold.Chemscore.DEInternal.Weighted>
0.0183

> <Gold.Chemscore.Rot.Weighted>
3.2576

> <Gold.Chemscore.Internal.Correction.Weighted>
   9.000000E+99

> <Gold.Protein.RotatedTorsions>
[ 6907 6896 6895 6894 ] final  -90.30 input  -60.11 | X-H torsion
[ 7974 7965 7964 7962 ] final  150.03 input  175.53 | X-H torsion
[ 8008 7997 7996 7995 ] final -163.71 input   59.86 | X-H torsion
[ 10167 10162 10161 10158 ] final   11.42 input  -65.29 | X-H torsion
[ 10718 10713 10712 10709 ] final   45.64 input   66.30 | X-H torsion
[ 10763 10752 10751 10750 ] final -138.65 input  -60.55 | X-H torsion
[ 11005 11000 10999 10996 ] final -125.25 input  -57.11 | X-H torsion

> <Gold.Protein.ActiveResidues>
 VAL166  LYS551  ARG553  GLY616  TRP617  ASP618  TYR619  PRO620  LYS621  CYS622 
 ASP623  PHE694  ASN695  SER759  ASP760  ASP761  ALA762  ILE779  LEU786  VAL792 
 PHE793  MET794  SER795  GLU796  ALA797  LYS798  CYS799  TRP800  GLU811  SER814 

> <Gold.Protein.RotatedAtoms>
  150.6880  134.2453  159.4488 H   0  0  0  0  0  0  0  0  0  0  0  0  # atno 6907 bound_to 6896
  152.0394  134.9718  160.0583 H   0  0  0  0  0  0  0  0  0  0  0  0  # atno 6908 bound_to 6896
  152.1225  133.4327  159.4719 H   0  0  0  0  0  0  0  0  0  0  0  0  # atno 6909 bound_to 6896
  144.8394  139.6356  143.6023 H   0  0  0  0  0  0  0  0  0  0  0  0  # atno 7974 bound_to 7965
  155.8251  140.0925  157.1826 H   0  0  0  0  0  0  0  0  0  0  0  0  # atno 8008 bound_to 7997
  154.3979  140.1429  156.3607 H   0  0  0  0  0  0  0  0  0  0  0  0  # atno 8009 bound_to 7997
  155.8225  140.3446  155.5525 H   0  0  0  0  0  0  0  0  0  0  0  0  # atno 8010 bound_to 7997
  140.6133  143.8362  150.7089 H   0  0  0  0  0  0  0  0  0  0  0  0  # atno 10167 bound_to 10162
  157.4397  130.8074  149.7682 H   0  0  0  0  0  0  0  0  0  0  0  0  # atno 10718 bound_to 10713
  154.8631  135.3606  154.5419 H   0  0  0  0  0  0  0  0  0  0  0  0  # atno 10763 bound_to 10752
  153.6040  135.7011  153.5378 H   0  0  0  0  0  0  0  0  0  0  0  0  # atno 10764 bound_to 10752
  153.3266  135.4136  155.1422 H   0  0  0  0  0  0  0  0  0  0  0  0  # atno 10765 bound_to 10752
  140.9777  134.0717  157.3800 H   0  0  0  0  0  0  0  0  0  0  0  0  # atno 11005 bound_to 11000
  146.2688  139.6585  142.9310 LP  0  0  0  0  0  0  0  0  0  0  0  0  # atno 17320 bound_to 7965
  145.4726  141.0436  143.2690 LP  0  0  0  0  0  0  0  0  0  0  0  0  # atno 17321 bound_to 7965
  140.1935  143.4017  152.1845 LP  0  0  0  0  0  0  0  0  0  0  0  0  # atno 17342 bound_to 10162
  139.5378  144.7227  151.4834 LP  0  0  0  0  0  0  0  0  0  0  0  0  # atno 17343 bound_to 10162
  155.9944  130.3918  150.2861 LP  0  0  0  0  0  0  0  0  0  0  0  0  # atno 17370 bound_to 10713
  157.1024  131.0199  151.3080 LP  0  0  0  0  0  0  0  0  0  0  0  0  # atno 17371 bound_to 10713
  139.8937  135.0132  156.6913 LP  0  0  0  0  0  0  0  0  0  0  0  0  # atno 17394 bound_to 11000
  140.7234  133.9121  155.8162 LP  0  0  0  0  0  0  0  0  0  0  0  0  # atno 17395 bound_to 11000

$$$$
