AV-unprocessed.smi:1342|AV-procd|sdf|5507|dock4
  -GOLD-   22720 5 93D 1   1.00000     0.00000
 Structure written by MMmdl.
 37 37  0  0  0  0  0  0  0  0  1 V2000
  146.8720  139.0533  152.7385 C   0  0  0  0  0  0  0  0  0  0  0  0
  147.1415  139.6226  154.1381 C   0  0  0  0  0  0  0  0  0  0  0  0
  148.5403  139.4694  154.5207 N   0  0  0  0  0  0  0  0  0  0  0  0
  149.4654  140.4387  154.4582 C   0  0  0  0  0  0  0  0  0  0  0  0
  149.2157  141.5860  154.0838 O   0  0  0  0  0  0  0  0  0  0  0  0
  150.8818  140.0564  154.9051 C   0  0  0  0  0  0  0  0  0  0  0  0
  150.9307  139.7691  156.3347 N   0  0  0  0  0  0  0  0  0  0  0  0
  151.9854  139.2448  156.9806 C   0  0  0  0  0  0  0  0  0  0  0  0
  152.9898  138.8230  156.4071 O   0  0  0  0  0  0  0  0  0  0  0  0
  151.9057  139.2131  158.5098 C   0  0  0  0  0  0  0  0  0  0  0  0
  152.2689  140.5567  159.0805 C   0  0  0  0  0  0  0  0  0  0  0  0
  153.1469  140.8048  160.1063 C   0  0  0  0  0  0  0  0  0  0  0  0
  153.2308  142.5013  160.4954 S   0  0  0  0  0  0  0  0  0  0  0  0
  152.0554  142.8218  159.2252 C   0  0  0  0  0  0  0  0  0  0  0  0
  151.5272  144.1870  158.9170 C   0  0  0  0  0  0  0  0  0  0  0  0
  151.8974  144.6358  157.4952 C   0  0  0  0  0  0  0  0  0  0  0  0
  151.9132  145.2128  159.9923 C   0  0  0  0  0  0  0  0  0  0  0  0
  151.6750  141.7190  158.5752 N   0  0  0  0  0  0  0  0  0  0  0  0
  145.8168  139.1448  152.4811 H   0  0  0  0  0  0  0  0  0  0  0  0
  147.1371  137.9970  152.6844 H   0  0  0  0  0  0  0  0  0  0  0  0
  147.4445  139.5822  151.9759 H   0  0  0  0  0  0  0  0  0  0  0  0
  146.8505  140.6731  154.1833 H   0  0  0  0  0  0  0  0  0  0  0  0
  146.5289  139.0988  154.8719 H   0  0  0  0  0  0  0  0  0  0  0  0
  148.8284  138.5575  154.8453 H   0  0  0  0  0  0  0  0  0  0  0  0
  151.1887  139.1627  154.3617 H   0  0  0  0  0  0  0  0  0  0  0  0
  151.5927  140.8430  154.6454 H   0  0  0  0  0  0  0  0  0  0  0  0
  150.1489  140.0888  156.8880 H   0  0  0  0  0  0  0  0  0  0  0  0
  150.8964  138.9235  158.8044 H   0  0  0  0  0  0  0  0  0  0  0  0
  152.5759  138.4429  158.8940 H   0  0  0  0  0  0  0  0  0  0  0  0
  153.7359  140.0932  160.6657 H   0  0  0  0  0  0  0  0  0  0  0  0
  150.4398  144.1087  158.9421 H   0  0  0  0  0  0  0  0  0  0  0  0
  151.5381  143.9229  156.7524 H   0  0  0  0  0  0  0  0  0  0  0  0
  152.9780  144.7221  157.3760 H   0  0  0  0  0  0  0  0  0  0  0  0
  151.4590  145.6063  157.2621 H   0  0  0  0  0  0  0  0  0  0  0  0
  151.5658  144.8983  160.9769 H   0  0  0  0  0  0  0  0  0  0  0  0
  151.4717  146.1872  159.7819 H   0  0  0  0  0  0  0  0  0  0  0  0
  152.9946  145.3430  160.0459 H   0  0  0  0  0  0  0  0  0  0  0  0
  1  2  1  0  0  0  0
  1 19  1  0  0  0  0
  1 20  1  0  0  0  0
  1 21  1  0  0  0  0
  2  3  1  0  0  0  0
  2 22  1  0  0  0  0
  2 23  1  0  0  0  0
  3  4  1  0  0  0  0
  3 24  1  0  0  0  0
  4  5  2  0  0  0  0
  4  6  1  0  0  0  0
  6  7  1  0  0  0  0
  6 25  1  0  0  0  0
  6 26  1  0  0  0  0
  7  8  1  0  0  0  0
  7 27  1  0  0  0  0
  8  9  2  0  0  0  0
  8 10  1  0  0  0  0
 10 11  1  0  0  0  0
 10 28  1  0  0  0  0
 10 29  1  0  0  0  0
 11 18  1  0  0  0  0
 11 12  2  0  0  0  0
 12 13  1  0  0  0  0
 12 30  1  0  0  0  0
 13 14  1  0  0  0  0
 14 15  1  0  0  0  0
 14 18  2  0  0  0  0
 15 16  1  0  0  0  0
 15 17  1  0  0  0  0
 15 31  1  0  0  0  0
 16 32  1  0  0  0  0
 16 33  1  0  0  0  0
 16 34  1  0  0  0  0
 17 35  1  0  0  0  0
 17 36  1  0  0  0  0
 17 37  1  0  0  0  0
M  END
> <s_m_source_file>
AV-unprocessed.smi

> <i_m_source_file_index>
1342

> <i_lp_mmshare_version>
43012

> <i_f3d_flags>
0

> <s_epik_input>
W0NIM11bQ0gyXVtOSF1DKD1PKVtDSDJdW05IXUMoPU8pW0NIMl1jMVtjSF1zYyhuMSlbQ0hdKFtDSDNdKVtDSDNd

> <s_epik_cmdline>
J2VwaWtfcHl0aG9uJywgJy1waCcsICc3LjAnLCAnLXRuJywgJzgnLCAnLW1hJywgJzIwMCcsICctbWV0YWxfYmluZGluZycsICctaW1hZScsICc8aW5maWxlLm1hZT4nLCAnLW9tYWUnLCAnPG91dGZpbGUubWFlPic=

> <r_lp_tautomer_probability>
1

> <r_epik_Ionization_Penalty>
2.79632e-05

> <r_epik_Ionization_Penalty_Charging>
0

> <r_epik_Ionization_Penalty_Neutral>
2.79632e-05

> <r_epik_State_Penalty>
-0

> <r_epik_Charging_Adjusted_Penalty>
0

> <i_epik_Tot_Q>
0

> <i_epik_Tot_abs_Q>
0

> <r_epik_Metal_State_Penalty>
-0

> <b_epik_Metal_Only>
0

> <s_lp_Force_Field>
OPLS_2005

> <r_lp_Energy>
-9.53287

> <b_lp_Chiralities_Consistent>
1

> <s_lp_Variant>
AV-unprocessed.smi:1342-1

> <Gold.Version>
5.8.1

> <Gold.Id.Protein>
6NUR|6NUR_protein|mol2

> <Gold.PLP.Fitness>
42.1758

> <Gold.PLP.PLP>
-38.6081

> <Gold.PLP.part.hbond>
-3.0000

> <Gold.PLP.part.metal>
0.0000

> <Gold.PLP.part.buried>
-1.8369

> <Gold.PLP.part.nonpolar>
-33.8035

> <Gold.PLP.part.repulsive>
0.3076

> <Gold.PLP.ligand.clash>
0.0000

> <Gold.PLP.ligand.torsion>
0.7807

> <Gold.PLP.Chemscore.Hbond>
1.6560

> <Gold.PLP.Chemscore.CHOScore>
0.0000

> <Gold.PLP.Chemscore.Metal>
0.0000

> <Gold.Chemscore.Hbonds>
donor molecule, donor type, donor heavy atom, donor atom, acceptor molecule, acceptor atom, score
      P1  H  7997  8010       L1     9  1.00
      P1  H  8011  8017       L1     5  0.62

> <Gold.PLP.Chemscore.Internal.Correction>
0.1611

> <Gold.Rescore>
     Score         DG    S(hbond)    S(metal)    S(lipo)     H(rot)  DE(clash)    DE(int)     intcor
     14.77     -16.78       1.53        0.00      98.85       2.10       1.38       0.64       ----

> <Gold.Chemscore.Fitness>
14.7655

> <Gold.Chemscore.DG>
-16.7771

> <Gold.Chemscore.ZeroCoef>
-5.4800

> <Gold.Chemscore.Hbond>
1.5270

> <Gold.Chemscore.Metal>
0.0000

> <Gold.Chemscore.Lipo>
98.8489

> <Gold.Chemscore.Internal_Hbond>
0.0000

> <Gold.Chemscore.DEClash>
1.3755

> <Gold.Chemscore.DEInternal>
0.6361

> <Gold.Chemscore.Rot>
2.0970

> <Gold.Chemscore.Internal.Correction>
   9.000000E+99

> <Gold.Chemscore.Hbonds>
donor molecule, donor type, donor heavy atom, donor atom, acceptor molecule, acceptor atom, score
      P1  H  7997  8010       L1     9  0.74
      P1  H  8011  8017       L1     5  0.58

> <Gold.Chemscore.Hbond.Weighted>
-5.1002

> <Gold.Chemscore.Metal.Weighted>
-0.0000

> <Gold.Chemscore.Lipo.Weighted>
-11.5653

> <Gold.Chemscore.Internal_Hbond.Weighted>
0.0000

> <Gold.Chemscore.DEClash.Weighted>
1.3755

> <Gold.Chemscore.DEInternal.Weighted>
0.6361

> <Gold.Chemscore.Rot.Weighted>
5.3684

> <Gold.Chemscore.Internal.Correction.Weighted>
   9.000000E+99

> <Gold.Protein.RotatedTorsions>
[ 6907 6896 6895 6894 ] final   60.31 input  -60.11 | X-H torsion
[ 7974 7965 7964 7962 ] final   89.34 input  175.53 | X-H torsion
[ 8008 7997 7996 7995 ] final   65.32 input   59.86 | X-H torsion
[ 10167 10162 10161 10158 ] final  102.32 input  -65.29 | X-H torsion
[ 10718 10713 10712 10709 ] final  -99.68 input   66.30 | X-H torsion
[ 10763 10752 10751 10750 ] final -178.58 input  -60.55 | X-H torsion
[ 11005 11000 10999 10996 ] final -172.21 input  -57.11 | X-H torsion

> <Gold.Protein.ActiveResidues>
 VAL166  LYS551  ARG553  GLY616  TRP617  ASP618  TYR619  PRO620  LYS621  CYS622 
 ASP623  PHE694  ASN695  SER759  ASP760  ASP761  ALA762  ILE779  LEU786  VAL792 
 PHE793  MET794  SER795  GLU796  ALA797  LYS798  CYS799  TRP800  GLU811  SER814 

> <Gold.Protein.RotatedAtoms>
  152.3992  134.6314  160.0076 H   0  0  0  0  0  0  0  0  0  0  0  0  # atno 6907 bound_to 6896
  151.6525  133.3315  159.3163 H   0  0  0  0  0  0  0  0  0  0  0  0  # atno 6908 bound_to 6896
  150.7895  134.6950  159.6562 H   0  0  0  0  0  0  0  0  0  0  0  0  # atno 6909 bound_to 6896
  145.5337  139.2284  143.2605 H   0  0  0  0  0  0  0  0  0  0  0  0  # atno 7974 bound_to 7965
  155.6599  140.3497  155.4779 H   0  0  0  0  0  0  0  0  0  0  0  0  # atno 8008 bound_to 7997
  155.9777  140.1168  157.0778 H   0  0  0  0  0  0  0  0  0  0  0  0  # atno 8009 bound_to 7997
  154.4183  140.1144  156.5379 H   0  0  0  0  0  0  0  0  0  0  0  0  # atno 8010 bound_to 7997
  139.7360  144.7024  151.0648 H   0  0  0  0  0  0  0  0  0  0  0  0  # atno 10167 bound_to 10162
  156.0141  130.5293  150.6706 H   0  0  0  0  0  0  0  0  0  0  0  0  # atno 10718 bound_to 10713
  154.5459  135.2809  155.1053 H   0  0  0  0  0  0  0  0  0  0  0  0  # atno 10763 bound_to 10752
  154.2517  135.6338  153.5246 H   0  0  0  0  0  0  0  0  0  0  0  0  # atno 10764 bound_to 10752
  152.9990  135.5584  154.6012 H   0  0  0  0  0  0  0  0  0  0  0  0  # atno 10765 bound_to 10752
  140.4996  134.5906  157.4983 H   0  0  0  0  0  0  0  0  0  0  0  0  # atno 11005 bound_to 11000
  146.2027  140.6154  142.9095 LP  0  0  0  0  0  0  0  0  0  0  0  0  # atno 17320 bound_to 7965
  144.7613  140.5428  143.6734 LP  0  0  0  0  0  0  0  0  0  0  0  0  # atno 17321 bound_to 7965
  140.7779  143.4983  150.9804 LP  0  0  0  0  0  0  0  0  0  0  0  0  # atno 17342 bound_to 10162
  139.8672  143.7239  152.3169 LP  0  0  0  0  0  0  0  0  0  0  0  0  # atno 17343 bound_to 10162
  157.4429  131.0863  151.0925 LP  0  0  0  0  0  0  0  0  0  0  0  0  # atno 17370 bound_to 10713
  157.1463  130.6165  149.5569 LP  0  0  0  0  0  0  0  0  0  0  0  0  # atno 17371 bound_to 10713
  139.9721  134.7275  156.0021 LP  0  0  0  0  0  0  0  0  0  0  0  0  # atno 17394 bound_to 11000
  141.1442  133.6559  156.3819 LP  0  0  0  0  0  0  0  0  0  0  0  0  # atno 17395 bound_to 11000

$$$$
