AV-unprocessed.smi:396|AV-procd|sdf|2487|dock6
  -GOLD-   2262022433D 1   1.00000     0.00000
 Structure written by MMmdl.
 40 42  0  0  0  0  0  0  0  0  1 V2000
  153.8988  135.6400  157.4195 N   0  0  0  0  0  0  0  0  0  0  0  0
  154.2354  136.2066  158.3709 C   0  0  0  0  0  0  0  0  0  0  0  0
  154.6236  136.9209  159.5416 C   0  0  0  0  0  0  0  0  0  0  0  0
  155.1102  136.2904  160.6303 C   0  0  0  0  0  0  0  0  0  0  0  0
  155.5016  136.9667  161.7650 N   0  0  0  0  0  0  0  0  0  0  0  0
  155.8890  136.2683  162.9581 C   0  0  0  0  0  0  0  0  0  0  0  0
  155.0658  135.0976  163.4598 C   0  0  0  0  0  0  0  0  0  0  0  0
  155.0383  136.4115  164.2015 C   0  0  0  0  0  0  0  0  0  0  0  0
  155.3215  138.3642  161.8565 C   0  0  0  0  0  0  0  0  0  0  0  0
  155.5895  138.9758  162.8938 O   0  0  0  0  0  0  0  0  0  0  0  0
  154.8230  139.0437  160.7184 N   0  0  0  0  0  0  0  0  0  0  0  0
  154.6959  140.5167  160.7741 C   0  0  0  0  0  0  0  0  0  0  0  0
  153.2973  141.0237  160.3908 C   0  0  0  0  0  0  0  0  0  0  0  0
  152.4133  140.2437  160.0323 O   0  0  0  0  0  0  0  0  0  0  0  0
  153.1113  142.3490  160.4809 N   0  0  0  0  0  0  0  0  0  0  0  0
  151.8639  143.0419  160.1698 C   0  0  0  0  0  0  0  0  0  0  0  0
  151.8141  143.4269  158.6800 C   0  0  0  0  0  0  0  0  0  0  0  0
  151.9881  144.9452  158.6319 C   0  0  0  0  0  0  0  0  0  0  0  0
  151.3550  145.4325  159.9311 C   0  0  0  0  0  0  0  0  0  0  0  0
  151.7298  144.3622  160.9574 C   0  0  0  0  0  0  0  0  0  0  0  0
  154.4707  138.3738  159.5188 C   0  0  0  0  0  0  0  0  0  0  0  0
  154.0664  138.9991  158.5370 O   0  0  0  0  0  0  0  0  0  0  0  0
  155.2063  135.2143  160.6116 H   0  0  0  0  0  0  0  0  0  0  0  0
  156.9623  136.1980  163.1261 H   0  0  0  0  0  0  0  0  0  0  0  0
  154.1704  134.8220  162.9056 H   0  0  0  0  0  0  0  0  0  0  0  0
  155.6015  134.2700  163.9197 H   0  0  0  0  0  0  0  0  0  0  0  0
  155.5542  136.4600  165.1582 H   0  0  0  0  0  0  0  0  0  0  0  0
  154.1258  137.0008  164.1344 H   0  0  0  0  0  0  0  0  0  0  0  0
  154.9378  140.8964  161.7680 H   0  0  0  0  0  0  0  0  0  0  0  0
  155.4311  140.9948  160.1246 H   0  0  0  0  0  0  0  0  0  0  0  0
  153.8873  142.9190  160.7849 H   0  0  0  0  0  0  0  0  0  0  0  0
  151.0216  142.3834  160.3906 H   0  0  0  0  0  0  0  0  0  0  0  0
  152.5572  142.9090  158.0720 H   0  0  0  0  0  0  0  0  0  0  0  0
  150.8347  143.1672  158.2756 H   0  0  0  0  0  0  0  0  0  0  0  0
  153.0501  145.1946  158.6242 H   0  0  0  0  0  0  0  0  0  0  0  0
  151.5327  145.3925  157.7479 H   0  0  0  0  0  0  0  0  0  0  0  0
  151.6956  146.4276  160.2187 H   0  0  0  0  0  0  0  0  0  0  0  0
  150.2706  145.4705  159.8185 H   0  0  0  0  0  0  0  0  0  0  0  0
  150.9931  144.2894  161.7580 H   0  0  0  0  0  0  0  0  0  0  0  0
  152.6805  144.6333  161.4201 H   0  0  0  0  0  0  0  0  0  0  0  0
  1  2  3  0  0  0  0
  2  3  1  0  0  0  0
  3 21  1  0  0  0  0
  3  4  2  0  0  0  0
  4  5  1  0  0  0  0
  4 23  1  0  0  0  0
  5  6  1  0  0  0  0
  5  9  1  0  0  0  0
  6  8  1  0  0  0  0
  6  7  1  0  0  0  0
  6 24  1  0  0  0  0
  7  8  1  0  0  0  0
  7 25  1  0  0  0  0
  7 26  1  0  0  0  0
  8 27  1  0  0  0  0
  8 28  1  0  0  0  0
  9 10  2  0  0  0  0
  9 11  1  0  0  0  0
 11 12  1  0  0  0  0
 11 21  1  0  0  0  0
 12 13  1  0  0  0  0
 12 29  1  0  0  0  0
 12 30  1  0  0  0  0
 13 14  2  0  0  0  0
 13 15  1  0  0  0  0
 15 16  1  0  0  0  0
 15 31  1  0  0  0  0
 16 20  1  0  0  0  0
 16 17  1  0  0  0  0
 16 32  1  0  0  0  0
 17 18  1  0  0  0  0
 17 33  1  0  0  0  0
 17 34  1  0  0  0  0
 18 19  1  0  0  0  0
 18 35  1  0  0  0  0
 18 36  1  0  0  0  0
 19 20  1  0  0  0  0
 19 37  1  0  0  0  0
 19 38  1  0  0  0  0
 20 39  1  0  0  0  0
 20 40  1  0  0  0  0
 21 22  2  0  0  0  0
M  END
> <s_m_source_file>
AV-unprocessed.smi

> <i_m_source_file_index>
396

> <i_lp_mmshare_version>
43012

> <i_f3d_flags>
0

> <s_epik_input>
TiNDYzFbY0hdbihbQ0hdMltDSDJdW0NIMl0yKWMoPU8pbihjMT1PKVtDSDJdQyg9TylbTkhdW0NIXTNbQ0gyXVtDSDJdW0NIMl1bQ0gyXTM=

> <s_epik_cmdline>
J2VwaWtfcHl0aG9uJywgJy1waCcsICc3LjAnLCAnLXRuJywgJzgnLCAnLW1hJywgJzIwMCcsICctbWV0YWxfYmluZGluZycsICctaW1hZScsICc8aW5maWxlLm1hZT4nLCAnLW9tYWUnLCAnPG91dGZpbGUubWFlPic=

> <r_lp_tautomer_probability>
1

> <r_epik_Ionization_Penalty>
1.93885e-08

> <r_epik_Ionization_Penalty_Charging>
8.67893e-11

> <r_epik_Ionization_Penalty_Neutral>
1.93017e-08

> <r_epik_State_Penalty>
-0

> <r_epik_Charging_Adjusted_Penalty>
8.67893e-11

> <i_epik_Tot_Q>
0

> <i_epik_Tot_abs_Q>
0

> <r_epik_Metal_State_Penalty>
-0

> <b_epik_Metal_Only>
0

> <s_lp_Force_Field>
OPLS_2005

> <r_lp_Energy>
43.3866

> <b_lp_Chiralities_Consistent>
1

> <s_lp_Variant>
AV-unprocessed.smi:396-1

> <Gold.Version>
5.8.1

> <Gold.Id.Protein>
6NUR|6NUR_protein|mol2

> <Gold.PLP.Fitness>
48.5242

> <Gold.PLP.PLP>
-43.4663

> <Gold.PLP.part.hbond>
-1.9718

> <Gold.PLP.part.metal>
0.0000

> <Gold.PLP.part.buried>
-5.3440

> <Gold.PLP.part.nonpolar>
-35.9654

> <Gold.PLP.part.repulsive>
0.0399

> <Gold.PLP.ligand.clash>
0.0000

> <Gold.PLP.ligand.torsion>
0.5575

> <Gold.PLP.Chemscore.Hbond>
1.9913

> <Gold.PLP.Chemscore.CHOScore>
0.0000

> <Gold.PLP.Chemscore.Metal>
0.0000

> <Gold.Chemscore.Hbonds>
donor molecule, donor type, donor heavy atom, donor atom, acceptor molecule, acceptor atom, score
      P1  H  7997  8008       L1    22  1.00
      P1  H 10752 10764       L1     1  0.99

> <Gold.PLP.Chemscore.Internal.Correction>
0.1992

> <Gold.Rescore>
     Score         DG    S(hbond)    S(metal)    S(lipo)     H(rot)  DE(clash)    DE(int)     intcor
     16.22     -19.56       1.98        0.00     102.49       1.76       1.42       1.92       ----

> <Gold.Chemscore.Fitness>
16.2171

> <Gold.Chemscore.DG>
-19.5560

> <Gold.Chemscore.ZeroCoef>
-5.4800

> <Gold.Chemscore.Hbond>
1.9753

> <Gold.Chemscore.Metal>
0.0000

> <Gold.Chemscore.Lipo>
102.4887

> <Gold.Chemscore.Internal_Hbond>
0.0000

> <Gold.Chemscore.DEClash>
1.4174

> <Gold.Chemscore.DEInternal>
1.9215

> <Gold.Chemscore.Rot>
1.7627

> <Gold.Chemscore.Internal.Correction>
   9.000000E+99

> <Gold.Chemscore.Hbonds>
donor molecule, donor type, donor heavy atom, donor atom, acceptor molecule, acceptor atom, score
      P1  H  7997  8008       L1    22  1.00
      P1  H 10752 10764       L1     1  0.92

> <Gold.Chemscore.Hbond.Weighted>
-6.5974

> <Gold.Chemscore.Metal.Weighted>
-0.0000

> <Gold.Chemscore.Lipo.Weighted>
-11.9912

> <Gold.Chemscore.Internal_Hbond.Weighted>
0.0000

> <Gold.Chemscore.DEClash.Weighted>
1.4174

> <Gold.Chemscore.DEInternal.Weighted>
1.9215

> <Gold.Chemscore.Rot.Weighted>
4.5126

> <Gold.Chemscore.Internal.Correction.Weighted>
   9.000000E+99

> <Gold.Protein.RotatedTorsions>
[ 6907 6896 6895 6894 ] final  -43.81 input  -60.11 | X-H torsion
[ 7974 7965 7964 7962 ] final  -95.22 input  175.53 | X-H torsion
[ 8008 7997 7996 7995 ] final -117.46 input   59.86 | X-H torsion
[ 10167 10162 10161 10158 ] final -111.90 input  -65.29 | X-H torsion
[ 10718 10713 10712 10709 ] final  -46.00 input   66.30 | X-H torsion
[ 10763 10752 10751 10750 ] final   14.37 input  -60.55 | X-H torsion
[ 11005 11000 10999 10996 ] final   15.19 input  -57.11 | X-H torsion

> <Gold.Protein.ActiveResidues>
 VAL166  LYS551  ARG553  GLY616  TRP617  ASP618  TYR619  PRO620  LYS621  CYS622 
 ASP623  PHE694  ASN695  SER759  ASP760  ASP761  ALA762  ILE779  LEU786  VAL792 
 PHE793  MET794  SER795  GLU796  ALA797  LYS798  CYS799  TRP800  GLU811  SER814 

> <Gold.Protein.RotatedAtoms>
  150.9398  134.8807  159.7604 H   0  0  0  0  0  0  0  0  0  0  0  0  # atno 6907 bound_to 6896
  152.5075  134.3959  159.9410 H   0  0  0  0  0  0  0  0  0  0  0  0  # atno 6908 bound_to 6896
  151.3981  133.3726  159.2764 H   0  0  0  0  0  0  0  0  0  0  0  0  # atno 6909 bound_to 6896
  145.3630  140.9494  143.2490 H   0  0  0  0  0  0  0  0  0  0  0  0  # atno 7974 bound_to 7965
  155.0841  140.0394  157.2648 H   0  0  0  0  0  0  0  0  0  0  0  0  # atno 8008 bound_to 7997
  154.6883  140.2648  155.6813 H   0  0  0  0  0  0  0  0  0  0  0  0  # atno 8009 bound_to 7997
  156.2720  140.2764  156.1453 H   0  0  0  0  0  0  0  0  0  0  0  0  # atno 8010 bound_to 7997
  140.1286  143.4380  152.1643 H   0  0  0  0  0  0  0  0  0  0  0  0  # atno 10167 bound_to 10162
  156.2226  130.4167  149.8973 H   0  0  0  0  0  0  0  0  0  0  0  0  # atno 10718 bound_to 10713
  153.1629  135.6799  153.8717 H   0  0  0  0  0  0  0  0  0  0  0  0  # atno 10763 bound_to 10752
  153.8106  135.3143  155.3401 H   0  0  0  0  0  0  0  0  0  0  0  0  # atno 10764 bound_to 10752
  154.7945  135.4815  154.0218 H   0  0  0  0  0  0  0  0  0  0  0  0  # atno 10765 bound_to 10752
  140.4611  134.1127  155.7716 H   0  0  0  0  0  0  0  0  0  0  0  0  # atno 11005 bound_to 11000
  144.8632  139.5146  143.6802 LP  0  0  0  0  0  0  0  0  0  0  0  0  # atno 17320 bound_to 7965
  146.2919  139.7164  142.9155 LP  0  0  0  0  0  0  0  0  0  0  0  0  # atno 17321 bound_to 7965
  139.5531  144.7353  151.4374 LP  0  0  0  0  0  0  0  0  0  0  0  0  # atno 17342 bound_to 10162
  140.6830  143.8038  150.7148 LP  0  0  0  0  0  0  0  0  0  0  0  0  # atno 17343 bound_to 10162
  156.6614  130.8784  151.3548 LP  0  0  0  0  0  0  0  0  0  0  0  0  # atno 17370 bound_to 10713
  157.7095  130.9424  150.1041 LP  0  0  0  0  0  0  0  0  0  0  0  0  # atno 17371 bound_to 10713
  141.1621  133.8773  157.1819 LP  0  0  0  0  0  0  0  0  0  0  0  0  # atno 17394 bound_to 11000
  139.9945  135.0052  157.0051 LP  0  0  0  0  0  0  0  0  0  0  0  0  # atno 17395 bound_to 11000

$$$$
