AV-unprocessed.smi:1217|AV-procd|sdf|5104|dock1
  -GOLD-   22720 4153D 1   1.00000     0.00000
 Structure written by MMmdl.
 34 35  0  0  0  0  0  0  0  0  1 V2000
  145.8524  138.7661  154.4872 C   0  0  0  0  0  0  0  0  0  0  0  0
  146.5300  138.9342  153.1192 C   0  0  2  0  0  0  0  0  0  0  0  0
  146.7511  137.6103  152.5386 N   0  0  0  0  0  0  0  0  0  0  0  0
  145.7973  136.7243  152.2140 C   0  0  0  0  0  0  0  0  0  0  0  0
  144.5933  136.9322  152.3670 O   0  0  0  0  0  0  0  0  0  0  0  0
  146.3330  135.6019  151.7028 N   0  0  0  0  0  0  0  0  0  0  0  0
  145.6602  134.4422  151.2329 C   0  0  0  0  0  0  0  0  0  0  0  0
  146.5035  133.4091  150.7645 C   0  0  0  0  0  0  0  0  0  0  0  0
  145.9337  132.2167  150.2774 C   0  0  0  0  0  0  0  0  0  0  0  0
  144.5335  132.0880  150.2704 C   0  0  0  0  0  0  0  0  0  0  0  0
  143.7664  133.1643  150.7534 C   0  0  0  0  0  0  0  0  0  0  0  0
  144.3104  134.3075  151.2212 N   0  0  0  0  0  0  0  0  0  0  0  0
  147.8617  139.7058  153.2290 C   0  0  1  0  0  0  0  0  0  0  0  0
  147.7547  141.0987  153.8550 C   0  0  0  0  0  0  0  0  0  0  0  0
  149.1597  141.3130  154.3671 C   0  0  0  0  0  0  0  0  0  0  0  0
  149.5186  139.9197  154.8736 C   0  0  0  0  0  0  0  0  0  0  0  0
  148.7782  139.0058  154.0684 O   0  0  0  0  0  0  0  0  0  0  0  0
  145.6317  139.7333  154.9396 H   0  0  0  0  0  0  0  0  0  0  0  0
  146.4861  138.2123  155.1807 H   0  0  0  0  0  0  0  0  0  0  0  0
  144.9090  138.2272  154.3937 H   0  0  0  0  0  0  0  0  0  0  0  0
  145.8510  139.5084  152.4863 H   0  0  0  0  0  0  0  0  0  0  0  0
  147.7119  137.3499  152.3719 H   0  0  0  0  0  0  0  0  0  0  0  0
  147.3396  135.5756  151.6383 H   0  0  0  0  0  0  0  0  0  0  0  0
  147.5776  133.5245  150.7761 H   0  0  0  0  0  0  0  0  0  0  0  0
  146.5610  131.4155  149.9153 H   0  0  0  0  0  0  0  0  0  0  0  0
  144.0597  131.1892  149.9046 H   0  0  0  0  0  0  0  0  0  0  0  0
  142.6882  133.1062  150.7650 H   0  0  0  0  0  0  0  0  0  0  0  0
  148.3231  139.7980  152.2440 H   0  0  0  0  0  0  0  0  0  0  0  0
  147.4376  141.8628  153.1448 H   0  0  0  0  0  0  0  0  0  0  0  0
  147.0521  141.0937  154.6898 H   0  0  0  0  0  0  0  0  0  0  0  0
  149.8183  141.5976  153.5454 H   0  0  0  0  0  0  0  0  0  0  0  0
  149.2248  142.0784  155.1408 H   0  0  0  0  0  0  0  0  0  0  0  0
  150.5894  139.7214  154.8197 H   0  0  0  0  0  0  0  0  0  0  0  0
  149.2035  139.7983  155.9105 H   0  0  0  0  0  0  0  0  0  0  0  0
  1  2  1  0  0  0  0
  1 18  1  0  0  0  0
  1 19  1  0  0  0  0
  1 20  1  0  0  0  0
  2  3  1  0  0  0  0
  2 13  1  0  0  0  0
  2 21  1  0  0  0  0
  3  4  1  0  0  0  0
  3 22  1  0  0  0  0
  4  5  2  0  0  0  0
  4  6  1  0  0  0  0
  6  7  1  0  0  0  0
  6 23  1  0  0  0  0
  7 12  1  0  0  0  0
  7  8  2  0  0  0  0
  8  9  1  0  0  0  0
  8 24  1  0  0  0  0
  9 10  2  0  0  0  0
  9 25  1  0  0  0  0
 10 11  1  0  0  0  0
 10 26  1  0  0  0  0
 11 12  2  0  0  0  0
 11 27  1  0  0  0  0
 13 17  1  0  0  0  0
 13 14  1  0  0  0  0
 13 28  1  0  0  0  0
 14 15  1  0  0  0  0
 14 29  1  0  0  0  0
 14 30  1  0  0  0  0
 15 16  1  0  0  0  0
 15 31  1  0  0  0  0
 15 32  1  0  0  0  0
 16 17  1  0  0  0  0
 16 33  1  0  0  0  0
 16 34  1  0  0  0  0
M  END
> <s_m_source_file>
AV-unprocessed.smi

> <i_m_source_file_index>
1217

> <i_lp_mmshare_version>
43012

> <i_f3d_flags>
0

> <s_epik_input>
TzFbQ0gyXVtDSDJdW0NIMl1bQ0BIXTFbQ0BIXShbQ0gzXSlbTkhdQyg9TylbTkhdYzJbY0hdW2NIXVtjSF1bY0hdbjI=

> <s_epik_cmdline>
J2VwaWtfcHl0aG9uJywgJy1waCcsICc3LjAnLCAnLXRuJywgJzgnLCAnLW1hJywgJzIwMCcsICctbWV0YWxfYmluZGluZycsICctaW1hZScsICc8aW5maWxlLm1hZT4nLCAnLW9tYWUnLCAnPG91dGZpbGUubWFlPic=

> <r_lp_tautomer_probability>
1

> <r_epik_Ionization_Penalty>
4.51768e-05

> <r_epik_Ionization_Penalty_Charging>
0

> <r_epik_Ionization_Penalty_Neutral>
4.51768e-05

> <r_epik_State_Penalty>
-0

> <r_epik_Charging_Adjusted_Penalty>
0

> <i_epik_Tot_Q>
0

> <i_epik_Tot_abs_Q>
0

> <r_epik_Metal_State_Penalty>
-0

> <b_epik_Metal_Only>
0

> <s_lp_Force_Field>
OPLS_2005

> <r_lp_Energy>
19.7674

> <b_lp_Chiralities_Consistent>
1

> <s_lp_Variant>
AV-unprocessed.smi:1217-3

> <Gold.Version>
5.8.1

> <Gold.Id.Protein>
6NUR|6NUR_protein|mol2

> <Gold.PLP.Fitness>
38.0845

> <Gold.PLP.PLP>
-29.1060

> <Gold.PLP.part.hbond>
-2.0000

> <Gold.PLP.part.metal>
0.0000

> <Gold.PLP.part.buried>
-1.8175

> <Gold.PLP.part.nonpolar>
-26.3489

> <Gold.PLP.part.repulsive>
0.6597

> <Gold.PLP.ligand.clash>
0.0000

> <Gold.PLP.ligand.torsion>
0.0181

> <Gold.PLP.Chemscore.Hbond>
2.0000

> <Gold.PLP.Chemscore.CHOScore>
1.0000

> <Gold.PLP.Chemscore.Metal>
0.0000

> <Gold.Chemscore.Hbonds>
donor molecule, donor type, donor heavy atom, donor atom, acceptor molecule, acceptor atom, score
      L1  H     3    22       P1  7948  1.00
      L1  H     6    23       P1  7948  1.00
      L1  C    11    27       P1 10186  1.00

> <Gold.PLP.Chemscore.Internal.Correction>
0.0149

> <Gold.Rescore>
     Score         DG    S(hbond)    S(metal)    S(lipo)     H(rot)  DE(clash)    DE(int)     intcor
     15.40     -16.82       1.92        0.00      69.40       1.25       0.09       1.33       ----

> <Gold.Chemscore.Fitness>
15.4009

> <Gold.Chemscore.DG>
-16.8199

> <Gold.Chemscore.ZeroCoef>
-5.4800

> <Gold.Chemscore.Hbond>
1.9225

> <Gold.Chemscore.Metal>
0.0000

> <Gold.Chemscore.Lipo>
69.4046

> <Gold.Chemscore.Internal_Hbond>
0.0000

> <Gold.Chemscore.DEClash>
0.0940

> <Gold.Chemscore.DEInternal>
1.3251

> <Gold.Chemscore.Rot>
1.2506

> <Gold.Chemscore.Internal.Correction>
   9.000000E+99

> <Gold.Chemscore.Hbonds>
donor molecule, donor type, donor heavy atom, donor atom, acceptor molecule, acceptor atom, score
      L1  H     3    22       P1  7948  0.97
      L1  H     6    23       P1  7948  0.98

> <Gold.Chemscore.Hbond.Weighted>
-6.4212

> <Gold.Chemscore.Metal.Weighted>
-0.0000

> <Gold.Chemscore.Lipo.Weighted>
-8.1203

> <Gold.Chemscore.Internal_Hbond.Weighted>
0.0000

> <Gold.Chemscore.DEClash.Weighted>
0.0940

> <Gold.Chemscore.DEInternal.Weighted>
1.3251

> <Gold.Chemscore.Rot.Weighted>
3.2016

> <Gold.Chemscore.Internal.Correction.Weighted>
   9.000000E+99

> <Gold.Protein.RotatedTorsions>
[ 6907 6896 6895 6894 ] final   96.70 input  -60.11 | X-H torsion
[ 7974 7965 7964 7962 ] final  -30.05 input  175.53 | X-H torsion
[ 8008 7997 7996 7995 ] final  178.85 input   59.86 | X-H torsion
[ 10167 10162 10161 10158 ] final -144.93 input  -65.29 | X-H torsion
[ 10718 10713 10712 10709 ] final   88.45 input   66.30 | X-H torsion
[ 10763 10752 10751 10750 ] final  -25.07 input  -60.55 | X-H torsion
[ 11005 11000 10999 10996 ] final -151.21 input  -57.11 | X-H torsion

> <Gold.Protein.ActiveResidues>
 VAL166  LYS551  ARG553  GLY616  TRP617  ASP618  TYR619  PRO620  LYS621  CYS622 
 ASP623  PHE694  ASN695  SER759  ASP760  ASP761  ALA762  ILE779  LEU786  VAL792 
 PHE793  MET794  SER795  GLU796  ALA797  LYS798  CYS799  TRP800  GLU811  SER814 

> <Gold.Protein.RotatedAtoms>
  152.5432  134.0846  159.8250 H   0  0  0  0  0  0  0  0  0  0  0  0  # atno 6907 bound_to 6896
  151.0943  133.5284  159.2620 H   0  0  0  0  0  0  0  0  0  0  0  0  # atno 6908 bound_to 6896
  151.2063  135.0472  159.8947 H   0  0  0  0  0  0  0  0  0  0  0  0  # atno 6909 bound_to 6896
  146.1172  140.5490  142.8751 H   0  0  0  0  0  0  0  0  0  0  0  0  # atno 7974 bound_to 7965
  156.0501  140.1323  157.0060 H   0  0  0  0  0  0  0  0  0  0  0  0  # atno 8008 bound_to 7997
  154.4430  140.1012  156.6433 H   0  0  0  0  0  0  0  0  0  0  0  0  # atno 8009 bound_to 7997
  155.5537  140.3463  155.4477 H   0  0  0  0  0  0  0  0  0  0  0  0  # atno 8010 bound_to 7997
  139.7853  143.8043  152.2644 H   0  0  0  0  0  0  0  0  0  0  0  0  # atno 10167 bound_to 10162
  157.6949  131.0295  150.3277 H   0  0  0  0  0  0  0  0  0  0  0  0  # atno 10718 bound_to 10713
  153.6940  135.6960  153.5082 H   0  0  0  0  0  0  0  0  0  0  0  0  # atno 10763 bound_to 10752
  153.2392  135.4312  155.0678 H   0  0  0  0  0  0  0  0  0  0  0  0  # atno 10764 bound_to 10752
  154.8364  135.3503  154.6481 H   0  0  0  0  0  0  0  0  0  0  0  0  # atno 10765 bound_to 10752
  140.7319  134.3611  157.5165 H   0  0  0  0  0  0  0  0  0  0  0  0  # atno 11005 bound_to 11000
  144.7563  140.5316  143.6766 LP  0  0  0  0  0  0  0  0  0  0  0  0  # atno 17320 bound_to 7965
  145.5542  139.1477  143.3377 LP  0  0  0  0  0  0  0  0  0  0  0  0  # atno 17321 bound_to 7965
  139.8118  144.7332  150.9687 LP  0  0  0  0  0  0  0  0  0  0  0  0  # atno 17342 bound_to 10162
  140.7819  143.4243  151.0792 LP  0  0  0  0  0  0  0  0  0  0  0  0  # atno 17343 bound_to 10162
  156.3755  130.3871  149.7142 LP  0  0  0  0  0  0  0  0  0  0  0  0  # atno 17370 bound_to 10713
  156.4542  130.7921  151.2942 LP  0  0  0  0  0  0  0  0  0  0  0  0  # atno 17371 bound_to 10713
  139.8824  134.9024  156.2832 LP  0  0  0  0  0  0  0  0  0  0  0  0  # atno 17394 bound_to 11000
  140.9913  133.7207  156.0818 LP  0  0  0  0  0  0  0  0  0  0  0  0  # atno 17395 bound_to 11000

$$$$
