AV-unprocessed.smi:313|AV-procd|sdf|2310|dock6
  -GOLD-   2262022213D 1   1.00000     0.00000
 Structure written by MMmdl.
 50 51  0  0  0  0  0  0  0  0  1 V2000
  155.1618  144.3666  169.8767 C   0  0  0  0  0  0  0  0  0  0  0  0
  155.7611  143.2721  168.9810 C   0  0  0  0  0  0  0  0  0  0  0  0
  154.7120  142.3535  168.3229 C   0  0  1  0  0  0  0  0  0  0  0  0
  153.5076  143.1523  167.8059 C   0  0  0  0  0  0  0  0  0  0  0  0
  155.3016  141.6079  167.2127 N   0  0  0  0  0  0  0  0  0  0  0  0
  155.3712  140.2714  167.1077 C   0  0  0  0  0  0  0  0  0  0  0  0
  154.9147  139.4983  167.9514 O   0  0  0  0  0  0  0  0  0  0  0  0
  156.0629  139.7301  165.8467 C   0  0  2  0  0  0  0  0  0  0  0  0
  157.5518  140.1082  165.9120 C   0  0  0  0  0  0  0  0  0  0  0  0
  155.4921  140.3394  164.6468 N   0  0  0  0  0  0  0  0  0  0  0  0
  155.4827  139.7822  163.4238 C   0  0  0  0  0  0  0  0  0  0  0  0
  155.9476  138.6681  163.1814 O   0  0  0  0  0  0  0  0  0  0  0  0
  154.8014  140.5816  162.3512 C   0  0  0  0  0  0  0  0  0  0  0  0
  155.0893  140.3871  160.9827 C   0  0  0  0  0  0  0  0  0  0  0  0
  154.3948  141.1455  160.0211 C   0  0  0  0  0  0  0  0  0  0  0  0
  153.4184  142.0765  160.4478 C   0  0  0  0  0  0  0  0  0  0  0  0
  152.7033  142.8407  159.5000 N   0  0  0  0  0  0  0  0  0  0  0  0
  151.8888  143.9509  159.9912 C   0  0  0  0  0  0  0  0  0  0  0  0
  151.4142  144.8278  158.8204 C   0  0  0  0  0  0  0  0  0  0  0  0
  150.7269  144.0233  157.8683 O   0  0  0  0  0  0  0  0  0  0  0  0
  151.5718  143.0188  157.3176 C   0  0  0  0  0  0  0  0  0  0  0  0
  152.0595  142.0779  158.4329 C   0  0  0  0  0  0  0  0  0  0  0  0
  153.1435  142.2609  161.7628 N   0  0  0  0  0  0  0  0  0  0  0  0
  153.8109  141.5308  162.6813 C   0  0  0  0  0  0  0  0  0  0  0  0
  155.9433  145.0242  170.2575 H   0  0  0  0  0  0  0  0  0  0  0  0
  154.6426  143.9436  170.7369 H   0  0  0  0  0  0  0  0  0  0  0  0
  154.4507  144.9810  169.3243 H   0  0  0  0  0  0  0  0  0  0  0  0
  156.3527  143.7519  168.2004 H   0  0  0  0  0  0  0  0  0  0  0  0
  156.4617  142.6738  169.5650 H   0  0  0  0  0  0  0  0  0  0  0  0
  154.3396  141.6636  169.0821 H   0  0  0  0  0  0  0  0  0  0  0  0
  153.0249  143.7016  168.6145 H   0  0  0  0  0  0  0  0  0  0  0  0
  152.7589  142.4929  167.3651 H   0  0  0  0  0  0  0  0  0  0  0  0
  153.8052  143.8745  167.0449 H   0  0  0  0  0  0  0  0  0  0  0  0
  155.7064  142.1562  166.4679 H   0  0  0  0  0  0  0  0  0  0  0  0
  155.9633  138.6439  165.7944 H   0  0  0  0  0  0  0  0  0  0  0  0
  158.0312  139.6781  166.7924 H   0  0  0  0  0  0  0  0  0  0  0  0
  157.6960  141.1891  165.9489 H   0  0  0  0  0  0  0  0  0  0  0  0
  158.0860  139.7349  165.0378 H   0  0  0  0  0  0  0  0  0  0  0  0
  155.0574  141.2436  164.7594 H   0  0  0  0  0  0  0  0  0  0  0  0
  155.8286  139.6675  160.6616 H   0  0  0  0  0  0  0  0  0  0  0  0
  154.6250  141.0117  158.9747 H   0  0  0  0  0  0  0  0  0  0  0  0
  151.0285  143.5563  160.5338 H   0  0  0  0  0  0  0  0  0  0  0  0
  152.4637  144.5610  160.6893 H   0  0  0  0  0  0  0  0  0  0  0  0
  150.7400  145.6043  159.1820 H   0  0  0  0  0  0  0  0  0  0  0  0
  152.2570  145.3335  158.3458 H   0  0  0  0  0  0  0  0  0  0  0  0
  151.0133  142.4558  156.5700 H   0  0  0  0  0  0  0  0  0  0  0  0
  152.4156  143.4809  156.8026 H   0  0  0  0  0  0  0  0  0  0  0  0
  152.7338  141.3401  158.0012 H   0  0  0  0  0  0  0  0  0  0  0  0
  151.2157  141.5290  158.8527 H   0  0  0  0  0  0  0  0  0  0  0  0
  153.5425  141.7178  163.7111 H   0  0  0  0  0  0  0  0  0  0  0  0
  1  2  1  0  0  0  0
  1 25  1  0  0  0  0
  1 26  1  0  0  0  0
  1 27  1  0  0  0  0
  2  3  1  0  0  0  0
  2 28  1  0  0  0  0
  2 29  1  0  0  0  0
  3  4  1  0  0  0  0
  3  5  1  0  0  0  0
  3 30  1  0  0  0  0
  4 31  1  0  0  0  0
  4 32  1  0  0  0  0
  4 33  1  0  0  0  0
  5  6  1  0  0  0  0
  5 34  1  0  0  0  0
  6  7  2  0  0  0  0
  6  8  1  0  0  0  0
  8  9  1  0  0  0  0
  8 10  1  0  0  0  0
  8 35  1  0  0  0  0
  9 36  1  0  0  0  0
  9 37  1  0  0  0  0
  9 38  1  0  0  0  0
 10 11  1  0  0  0  0
 10 39  1  0  0  0  0
 11 12  2  0  0  0  0
 11 13  1  0  0  0  0
 13 24  1  0  0  0  0
 13 14  2  0  0  0  0
 14 15  1  0  0  0  0
 14 40  1  0  0  0  0
 15 16  2  0  0  0  0
 15 41  1  0  0  0  0
 16 17  1  0  0  0  0
 16 23  1  0  0  0  0
 17 22  1  0  0  0  0
 17 18  1  0  0  0  0
 18 19  1  0  0  0  0
 18 42  1  0  0  0  0
 18 43  1  0  0  0  0
 19 20  1  0  0  0  0
 19 44  1  0  0  0  0
 19 45  1  0  0  0  0
 20 21  1  0  0  0  0
 21 22  1  0  0  0  0
 21 46  1  0  0  0  0
 21 47  1  0  0  0  0
 22 48  1  0  0  0  0
 22 49  1  0  0  0  0
 23 24  2  0  0  0  0
 24 50  1  0  0  0  0
M  END
> <s_m_source_file>
AV-unprocessed.smi

> <i_m_source_file_index>
313

> <i_lp_mmshare_version>
43012

> <i_f3d_flags>
0

> <s_epik_input>
W0NIM11bQ0gyXVtDQEhdKFtDSDNdKVtOSF1DKD1PKVtDQEhdKFtDSDNdKVtOSF1DKD1PKWMxW2NIXVtjSF1jKG5bY0hdMSlOMltDSDJdW0NIMl1PW0NIMl1bQ0gyXTI=

> <s_epik_cmdline>
J2VwaWtfcHl0aG9uJywgJy1waCcsICc3LjAnLCAnLXRuJywgJzgnLCAnLW1hJywgJzIwMCcsICctbWV0YWxfYmluZGluZycsICctaW1hZScsICc8aW5maWxlLm1hZT4nLCAnLW9tYWUnLCAnPG91dGZpbGUubWFlPic=

> <r_lp_tautomer_probability>
1

> <r_epik_Ionization_Penalty>
9.96442e-06

> <r_epik_Ionization_Penalty_Charging>
0

> <r_epik_Ionization_Penalty_Neutral>
9.96442e-06

> <r_epik_State_Penalty>
-0

> <r_epik_Charging_Adjusted_Penalty>
0

> <i_epik_Tot_Q>
0

> <i_epik_Tot_abs_Q>
0

> <r_epik_Metal_State_Penalty>
-0

> <b_epik_Metal_Only>
0

> <s_lp_Force_Field>
OPLS_2005

> <r_lp_Energy>
19.2481

> <b_lp_Chiralities_Consistent>
1

> <s_lp_Variant>
AV-unprocessed.smi:313-2

> <Gold.Version>
5.8.1

> <Gold.Id.Protein>
6NUR|6NUR_protein|mol2

> <Gold.PLP.Fitness>
41.6381

> <Gold.PLP.PLP>
-43.3947

> <Gold.PLP.part.hbond>
-0.6393

> <Gold.PLP.part.metal>
0.0000

> <Gold.PLP.part.buried>
-5.8977

> <Gold.PLP.part.nonpolar>
-36.7221

> <Gold.PLP.part.repulsive>
1.2390

> <Gold.PLP.ligand.clash>
0.0000

> <Gold.PLP.ligand.torsion>
1.0533

> <Gold.PLP.Chemscore.Hbond>
0.0000

> <Gold.PLP.Chemscore.CHOScore>
0.0000

> <Gold.PLP.Chemscore.Metal>
0.0000

> <Gold.PLP.Chemscore.Internal.Correction>
0.3500

> <Gold.Rescore>
     Score         DG    S(hbond)    S(metal)    S(lipo)     H(rot)  DE(clash)    DE(int)     intcor
     12.83     -13.80       0.00        0.00     110.28       1.79       0.17       0.80       ----

> <Gold.Chemscore.Fitness>
12.8312

> <Gold.Chemscore.DG>
-13.8038

> <Gold.Chemscore.ZeroCoef>
-5.4800

> <Gold.Chemscore.Hbond>
0.0000

> <Gold.Chemscore.Metal>
0.0000

> <Gold.Chemscore.Lipo>
110.2832

> <Gold.Chemscore.Internal_Hbond>
0.0000

> <Gold.Chemscore.DEClash>
0.1743

> <Gold.Chemscore.DEInternal>
0.7983

> <Gold.Chemscore.Rot>
1.7888

> <Gold.Chemscore.Internal.Correction>
   9.000000E+99

> <Gold.Chemscore.Hbond.Weighted>
-0.0000

> <Gold.Chemscore.Metal.Weighted>
-0.0000

> <Gold.Chemscore.Lipo.Weighted>
-12.9031

> <Gold.Chemscore.Internal_Hbond.Weighted>
0.0000

> <Gold.Chemscore.DEClash.Weighted>
0.1743

> <Gold.Chemscore.DEInternal.Weighted>
0.7983

> <Gold.Chemscore.Rot.Weighted>
4.5793

> <Gold.Chemscore.Internal.Correction.Weighted>
   9.000000E+99

> <Gold.Protein.RotatedTorsions>
[ 6907 6896 6895 6894 ] final   54.60 input  -60.11 | X-H torsion
[ 7974 7965 7964 7962 ] final  -13.92 input  175.53 | X-H torsion
[ 8008 7997 7996 7995 ] final  115.49 input   59.86 | X-H torsion
[ 10167 10162 10161 10158 ] final    5.78 input  -65.29 | X-H torsion
[ 10718 10713 10712 10709 ] final  -76.31 input   66.30 | X-H torsion
[ 10763 10752 10751 10750 ] final   36.24 input  -60.55 | X-H torsion
[ 11005 11000 10999 10996 ] final  175.41 input  -57.11 | X-H torsion

> <Gold.Protein.ActiveResidues>
 VAL166  LYS551  ARG553  GLY616  TRP617  ASP618  TYR619  PRO620  LYS621  CYS622 
 ASP623  PHE694  ASN695  SER759  ASP760  ASP761  ALA762  ILE779  LEU786  VAL792 
 PHE793  MET794  SER795  GLU796  ALA797  LYS798  CYS799  TRP800  GLU811  SER814 

> <Gold.Protein.RotatedAtoms>
  152.3455  134.7076  160.0251 H   0  0  0  0  0  0  0  0  0  0  0  0  # atno 6907 bound_to 6896
  151.7447  133.3318  159.3383 H   0  0  0  0  0  0  0  0  0  0  0  0  # atno 6908 bound_to 6896
  150.7507  134.6179  159.6165 H   0  0  0  0  0  0  0  0  0  0  0  0  # atno 6909 bound_to 6896
  146.2095  140.3273  142.8396 H   0  0  0  0  0  0  0  0  0  0  0  0  # atno 7974 bound_to 7965
  156.2384  140.2937  156.0376 H   0  0  0  0  0  0  0  0  0  0  0  0  # atno 8008 bound_to 7997
  155.2023  140.0410  157.2937 H   0  0  0  0  0  0  0  0  0  0  0  0  # atno 8009 bound_to 7997
  154.6122  140.2454  155.7662 H   0  0  0  0  0  0  0  0  0  0  0  0  # atno 8010 bound_to 7997
  140.6463  143.7653  150.7505 H   0  0  0  0  0  0  0  0  0  0  0  0  # atno 10167 bound_to 10162
  156.0179  130.4462  150.3174 H   0  0  0  0  0  0  0  0  0  0  0  0  # atno 10718 bound_to 10713
  153.0085  135.6311  154.1953 H   0  0  0  0  0  0  0  0  0  0  0  0  # atno 10763 bound_to 10752
  154.1696  135.2819  155.3086 H   0  0  0  0  0  0  0  0  0  0  0  0  # atno 10764 bound_to 10752
  154.5918  135.5615  153.7347 H   0  0  0  0  0  0  0  0  0  0  0  0  # atno 10765 bound_to 10752
  140.3619  134.7105  157.4337 H   0  0  0  0  0  0  0  0  0  0  0  0  # atno 11005 bound_to 11000
  144.8877  140.7484  143.5946 LP  0  0  0  0  0  0  0  0  0  0  0  0  # atno 17320 bound_to 7965
  145.3194  139.1793  143.4596 LP  0  0  0  0  0  0  0  0  0  0  0  0  # atno 17321 bound_to 7965
  140.1294  143.4539  152.2263 LP  0  0  0  0  0  0  0  0  0  0  0  0  # atno 17342 bound_to 10162
  139.5674  144.7443  151.3983 LP  0  0  0  0  0  0  0  0  0  0  0  0  # atno 17343 bound_to 10162
  157.1275  131.0263  151.2983 LP  0  0  0  0  0  0  0  0  0  0  0  0  # atno 17370 bound_to 10713
  157.4578  130.7635  149.7208 LP  0  0  0  0  0  0  0  0  0  0  0  0  # atno 17371 bound_to 10713
  140.0620  134.5983  155.8738 LP  0  0  0  0  0  0  0  0  0  0  0  0  # atno 17394 bound_to 11000
  141.1981  133.6600  156.5777 LP  0  0  0  0  0  0  0  0  0  0  0  0  # atno 17395 bound_to 11000

$$$$
