AV-unprocessed.smi:1787|AV-procd|sdf|7206|dock6
  -GOLD-   22720 8443D 1   1.00000     0.00000
 Structure written by MMmdl.
 44 46  0  0  0  0  0  0  0  0  1 V2000
  149.1269  135.5018  156.0765 O   0  0  0  0  0  0  0  0  0  0  0  0
  148.8720  135.8252  154.9170 C   0  0  0  0  0  0  0  0  0  0  0  0
  148.0054  135.1619  154.1417 N   0  0  0  0  0  0  0  0  0  0  0  0
  147.2458  133.9857  154.5553 C   0  0  0  0  0  0  0  0  0  0  0  0
  147.2890  132.8536  153.4789 C   0  0  1  0  0  0  0  0  0  0  0  0
  146.3718  133.1801  152.3436 N   0  0  0  0  0  0  0  0  0  0  0  0
  146.1643  132.1139  151.3524 C   0  0  0  0  0  0  0  0  0  0  0  0
  145.2734  132.5656  150.1824 C   0  0  0  0  0  0  0  0  0  0  0  0
  144.0255  133.0299  150.6790 O   0  0  0  0  0  0  0  0  0  0  0  0
  144.1797  134.1164  151.5815 C   0  0  0  0  0  0  0  0  0  0  0  0
  145.0580  133.6842  152.7675 C   0  0  0  0  0  0  0  0  0  0  0  0
  148.7732  132.6779  153.0437 C   0  0  0  0  0  0  0  0  0  0  0  0
  149.5636  132.0269  154.1845 C   0  0  0  0  0  0  0  0  0  0  0  0
  148.4310  130.9310  155.0710 S   0  0  0  0  0  0  0  0  0  0  0  0
  146.9626  131.5080  154.1754 C   0  0  0  0  0  0  0  0  0  0  0  0
  149.4176  136.8593  154.2540 N   0  0  0  0  0  0  0  0  0  0  0  0
  150.3776  137.8065  154.7050 C   0  0  0  0  0  0  0  0  0  0  0  0
  151.3598  137.3603  155.6135 C   0  0  0  0  0  0  0  0  0  0  0  0
  152.3357  138.2657  156.0714 C   0  0  0  0  0  0  0  0  0  0  0  0
  152.2953  139.5900  155.5953 C   0  0  0  0  0  0  0  0  0  0  0  0
  151.3707  140.0324  154.7177 N   0  0  0  0  0  0  0  0  0  0  0  0
  150.4371  139.1586  154.2825 C   0  0  0  0  0  0  0  0  0  0  0  0
  147.8523  135.4913  153.1996 H   0  0  0  0  0  0  0  0  0  0  0  0
  147.6305  133.6360  155.5131 H   0  0  0  0  0  0  0  0  0  0  0  0
  146.2230  134.2905  154.7750 H   0  0  0  0  0  0  0  0  0  0  0  0
  147.1074  131.7956  150.9150 H   0  0  0  0  0  0  0  0  0  0  0  0
  145.7124  131.2384  151.8171 H   0  0  0  0  0  0  0  0  0  0  0  0
  145.7615  133.3539  149.6071 H   0  0  0  0  0  0  0  0  0  0  0  0
  145.0967  131.7346  149.4994 H   0  0  0  0  0  0  0  0  0  0  0  0
  144.6208  134.9703  151.0648 H   0  0  0  0  0  0  0  0  0  0  0  0
  143.1963  134.4283  151.9338 H   0  0  0  0  0  0  0  0  0  0  0  0
  144.5310  132.9183  153.3379 H   0  0  0  0  0  0  0  0  0  0  0  0
  145.1610  134.5474  153.4214 H   0  0  0  0  0  0  0  0  0  0  0  0
  148.8614  131.9867  152.2089 H   0  0  0  0  0  0  0  0  0  0  0  0
  149.2328  133.6121  152.7194 H   0  0  0  0  0  0  0  0  0  0  0  0
  150.4249  131.4710  153.8135 H   0  0  0  0  0  0  0  0  0  0  0  0
  149.9395  132.7805  154.8765 H   0  0  0  0  0  0  0  0  0  0  0  0
  146.1125  131.5834  154.8542 H   0  0  0  0  0  0  0  0  0  0  0  0
  146.7219  130.7307  153.4523 H   0  0  0  0  0  0  0  0  0  0  0  0
  149.1425  136.9551  153.2873 H   0  0  0  0  0  0  0  0  0  0  0  0
  151.3669  136.3367  155.9589 H   0  0  0  0  0  0  0  0  0  0  0  0
  153.0976  137.9524  156.7696 H   0  0  0  0  0  0  0  0  0  0  0  0
  153.0283  140.3118  155.9240 H   0  0  0  0  0  0  0  0  0  0  0  0
  149.7439  139.5702  153.5665 H   0  0  0  0  0  0  0  0  0  0  0  0
  1  2  2  0  0  0  0
  2  3  1  0  0  0  0
  2 16  1  0  0  0  0
  3  4  1  0  0  0  0
  3 23  1  0  0  0  0
  4  5  1  0  0  0  0
  4 24  1  0  0  0  0
  4 25  1  0  0  0  0
  5 15  1  0  0  0  0
  5  6  1  0  0  0  0
  5 12  1  0  0  0  0
  6 11  1  0  0  0  0
  6  7  1  0  0  0  0
  7  8  1  0  0  0  0
  7 26  1  0  0  0  0
  7 27  1  0  0  0  0
  8  9  1  0  0  0  0
  8 28  1  0  0  0  0
  8 29  1  0  0  0  0
  9 10  1  0  0  0  0
 10 11  1  0  0  0  0
 10 30  1  0  0  0  0
 10 31  1  0  0  0  0
 11 32  1  0  0  0  0
 11 33  1  0  0  0  0
 12 13  1  0  0  0  0
 12 34  1  0  0  0  0
 12 35  1  0  0  0  0
 13 14  1  0  0  0  0
 13 36  1  0  0  0  0
 13 37  1  0  0  0  0
 14 15  1  0  0  0  0
 15 38  1  0  0  0  0
 15 39  1  0  0  0  0
 16 17  1  0  0  0  0
 16 40  1  0  0  0  0
 17 22  1  0  0  0  0
 17 18  2  0  0  0  0
 18 19  1  0  0  0  0
 18 41  1  0  0  0  0
 19 20  2  0  0  0  0
 19 42  1  0  0  0  0
 20 21  1  0  0  0  0
 20 43  1  0  0  0  0
 21 22  2  0  0  0  0
 22 44  1  0  0  0  0
M  END
> <s_m_source_file>
AV-unprocessed.smi

> <i_m_source_file_index>
1787

> <i_lp_mmshare_version>
43012

> <i_f3d_flags>
0

> <s_epik_input>
W2NIXTFuW2NIXVtjSF1bY0hdYzFbTkhdQyg9TylbTkhdW0NIMl1bQ0BdMihbQ0gyXVtDSDJdU1tDSDJdMilOM1tDSDJdW0NIMl1PW0NIMl1bQ0gyXTM=

> <s_epik_cmdline>
J2VwaWtfcHl0aG9uJywgJy1waCcsICc3LjAnLCAnLXRuJywgJzgnLCAnLW1hJywgJzIwMCcsICctbWV0YWxfYmluZGluZycsICctaW1hZScsICc8aW5maWxlLm1hZT4nLCAnLW9tYWUnLCAnPG91dGZpbGUubWFlPic=

> <r_epik_Ionization_Penalty>
0.024212

> <r_epik_Ionization_Penalty_Charging>
0

> <r_epik_Ionization_Penalty_Neutral>
0.024212

> <r_epik_State_Penalty>
0.0155843

> <r_epik_Charging_Adjusted_Penalty>
0.0155843

> <i_epik_Tot_Q>
0

> <i_epik_Tot_abs_Q>
0

> <r_epik_Metal_State_Penalty>
0.01557

> <b_epik_Metal_Only>
0

> <s_lp_Force_Field>
OPLS_2005

> <r_lp_Energy>
57.3635

> <b_lp_Chiralities_Consistent>
1

> <s_lp_Variant>
AV-unprocessed.smi:1787-1

> <Gold.Version>
5.8.1

> <Gold.Id.Protein>
6NUR|6NUR_protein|mol2

> <Gold.PLP.Fitness>
41.0488

> <Gold.PLP.PLP>
-31.2771

> <Gold.PLP.part.hbond>
-3.0000

> <Gold.PLP.part.metal>
0.0000

> <Gold.PLP.part.buried>
-4.3483

> <Gold.PLP.part.nonpolar>
-24.5736

> <Gold.PLP.part.repulsive>
0.3980

> <Gold.PLP.ligand.clash>
0.0000

> <Gold.PLP.ligand.torsion>
0.7604

> <Gold.PLP.Chemscore.Hbond>
2.7440

> <Gold.PLP.Chemscore.CHOScore>
0.9989

> <Gold.PLP.Chemscore.Metal>
0.0000

> <Gold.Chemscore.Hbonds>
donor molecule, donor type, donor heavy atom, donor atom, acceptor molecule, acceptor atom, score
      L1  H     3    23       P1  7948  0.69
      L1  H    16    40       P1  7948  0.93
      P1  H  7989  7998       L1    21  0.93
      L1  C    22    44       P1  7957  1.00

> <Gold.PLP.Chemscore.Internal.Correction>
0.0640

> <Gold.Rescore>
     Score         DG    S(hbond)    S(metal)    S(lipo)     H(rot)  DE(clash)    DE(int)     intcor
     16.92     -19.04       2.20        0.00      84.67       1.44       0.04       2.08       ----

> <Gold.Chemscore.Fitness>
16.9214

> <Gold.Chemscore.DG>
-19.0424

> <Gold.Chemscore.ZeroCoef>
-5.4800

> <Gold.Chemscore.Hbond>
2.2017

> <Gold.Chemscore.Metal>
0.0000

> <Gold.Chemscore.Lipo>
84.6727

> <Gold.Chemscore.Internal_Hbond>
0.0000

> <Gold.Chemscore.DEClash>
0.0440

> <Gold.Chemscore.DEInternal>
2.0771

> <Gold.Chemscore.Rot>
1.4445

> <Gold.Chemscore.Internal.Correction>
   9.000000E+99

> <Gold.Chemscore.Hbonds>
donor molecule, donor type, donor heavy atom, donor atom, acceptor molecule, acceptor atom, score
      L1  H     3    23       P1  7948  0.70
      L1  H    16    40       P1  7948  0.89
      P1  H  7989  7998       L1    21  0.35

> <Gold.Chemscore.Hbond.Weighted>
-7.3537

> <Gold.Chemscore.Metal.Weighted>
-0.0000

> <Gold.Chemscore.Lipo.Weighted>
-9.9067

> <Gold.Chemscore.Internal_Hbond.Weighted>
0.0000

> <Gold.Chemscore.DEClash.Weighted>
0.0440

> <Gold.Chemscore.DEInternal.Weighted>
2.0771

> <Gold.Chemscore.Rot.Weighted>
3.6980

> <Gold.Chemscore.Internal.Correction.Weighted>
   9.000000E+99

> <Gold.Protein.RotatedTorsions>
[ 6907 6896 6895 6894 ] final  168.79 input  -60.11 | X-H torsion
[ 7974 7965 7964 7962 ] final  -40.29 input  175.53 | X-H torsion
[ 8008 7997 7996 7995 ] final  -88.98 input   59.86 | X-H torsion
[ 10167 10162 10161 10158 ] final   21.77 input  -65.29 | X-H torsion
[ 10718 10713 10712 10709 ] final -125.57 input   66.30 | X-H torsion
[ 10763 10752 10751 10750 ] final  110.97 input  -60.55 | X-H torsion
[ 11005 11000 10999 10996 ] final  136.64 input  -57.11 | X-H torsion

> <Gold.Protein.ActiveResidues>
 VAL166  LYS551  ARG553  GLY616  TRP617  ASP618  TYR619  PRO620  LYS621  CYS622 
 ASP623  PHE694  ASN695  SER759  ASP760  ASP761  ALA762  ILE779  LEU786  VAL792 
 PHE793  MET794  SER795  GLU796  ALA797  LYS798  CYS799  TRP800  GLU811  SER814 

> <Gold.Protein.RotatedAtoms>
  151.8420  133.3425  159.3645 H   0  0  0  0  0  0  0  0  0  0  0  0  # atno 6907 bound_to 6896
  150.7232  134.5382  159.5743 H   0  0  0  0  0  0  0  0  0  0  0  0  # atno 6908 bound_to 6896
  152.2857  134.7779  160.0439 H   0  0  0  0  0  0  0  0  0  0  0  0  # atno 6909 bound_to 6896
  146.0318  140.6722  142.9129 H   0  0  0  0  0  0  0  0  0  0  0  0  # atno 7974 bound_to 7965
  154.6811  140.0547  157.0267 H   0  0  0  0  0  0  0  0  0  0  0  0  # atno 8008 bound_to 7997
  155.0950  140.3223  155.4544 H   0  0  0  0  0  0  0  0  0  0  0  0  # atno 8009 bound_to 7997
  156.2694  140.2041  156.6077 H   0  0  0  0  0  0  0  0  0  0  0  0  # atno 8010 bound_to 7997
  140.5401  143.9693  150.6514 H   0  0  0  0  0  0  0  0  0  0  0  0  # atno 10167 bound_to 10162
  156.1687  130.6652  151.0150 H   0  0  0  0  0  0  0  0  0  0  0  0  # atno 10718 bound_to 10713
  153.4566  135.3731  155.2314 H   0  0  0  0  0  0  0  0  0  0  0  0  # atno 10763 bound_to 10752
  154.8757  135.3898  154.3974 H   0  0  0  0  0  0  0  0  0  0  0  0  # atno 10764 bound_to 10752
  153.4541  135.7086  153.6154 H   0  0  0  0  0  0  0  0  0  0  0  0  # atno 10765 bound_to 10752
  140.0060  134.9459  157.0175 H   0  0  0  0  0  0  0  0  0  0  0  0  # atno 11005 bound_to 11000
  144.7034  140.3749  143.7138 LP  0  0  0  0  0  0  0  0  0  0  0  0  # atno 17320 bound_to 7965
  145.7028  139.1665  143.2583 LP  0  0  0  0  0  0  0  0  0  0  0  0  # atno 17321 bound_to 7965
  140.3091  143.3210  152.0897 LP  0  0  0  0  0  0  0  0  0  0  0  0  # atno 17342 bound_to 10162
  139.4985  144.6648  151.6382 LP  0  0  0  0  0  0  0  0  0  0  0  0  # atno 17343 bound_to 10162
  157.6787  131.0844  150.7428 LP  0  0  0  0  0  0  0  0  0  0  0  0  # atno 17370 bound_to 10713
  156.7488  130.4762  149.5461 LP  0  0  0  0  0  0  0  0  0  0  0  0  # atno 17371 bound_to 10713
  140.4641  134.1454  155.7195 LP  0  0  0  0  0  0  0  0  0  0  0  0  # atno 17394 bound_to 11000
  141.1677  133.8671  157.1666 LP  0  0  0  0  0  0  0  0  0  0  0  0  # atno 17395 bound_to 11000

$$$$
