AV-unprocessed.smi:2777|AV-procd|sdf|10709|dock6
  -GOLD-   2272015143D 1   1.00000     0.00000
 Structure written by MMmdl.
 31 32  0  0  0  0  0  0  0  0  1 V2000
  154.5611  140.1906  161.0899 C   0  0  0  0  0  0  0  0  0  0  0  0
  153.5950  141.0038  160.3272 N   0  0  0  0  0  0  0  0  0  0  0  0
  153.2375  140.5796  159.0741 C   0  0  0  0  0  0  0  0  0  0  0  0
  153.6684  139.5652  158.5252 O   0  0  0  0  0  0  0  0  0  0  0  0
  152.2702  141.4554  158.4042 C   0  0  0  0  0  0  0  0  0  0  0  0
  151.7829  142.5845  158.9734 C   0  0  0  0  0  0  0  0  0  0  0  0
  150.8893  143.2337  158.1292 N   0  0  0  0  0  0  0  0  0  0  0  0
  150.8847  142.4340  157.0621 C   0  0  0  0  0  0  0  0  0  0  0  0
  151.6823  141.3494  157.1435 N   0  0  0  0  0  0  0  0  0  0  0  0
  151.8489  140.3327  156.1156 C   0  0  0  0  0  0  0  0  0  0  0  0
  150.5034  139.8230  155.5592 C   0  0  1  0  0  0  0  0  0  0  0  0
  150.2665  140.3709  154.2760 O   0  0  0  0  0  0  0  0  0  0  0  0
  150.4398  138.2864  155.4724 C   0  0  0  0  0  0  0  0  0  0  0  0
  151.3434  137.8374  154.6010 F   0  0  0  0  0  0  0  0  0  0  0  0
  150.6545  137.7307  156.6657 F   0  0  0  0  0  0  0  0  0  0  0  0
  149.2339  137.9166  155.0412 F   0  0  0  0  0  0  0  0  0  0  0  0
  152.2214  142.9353  160.2739 N   0  0  0  0  0  0  0  0  0  0  0  0
  151.6737  144.1647  160.8547 C   0  0  0  0  0  0  0  0  0  0  0  0
  153.1219  142.1472  160.9492 C   0  0  0  0  0  0  0  0  0  0  0  0
  153.5000  142.4528  162.0834 O   0  0  0  0  0  0  0  0  0  0  0  0
  154.9153  139.2955  160.5776 H   0  0  0  0  0  0  0  0  0  0  0  0
  154.1172  139.8538  162.0281 H   0  0  0  0  0  0  0  0  0  0  0  0
  155.4474  140.7799  161.3312 H   0  0  0  0  0  0  0  0  0  0  0  0
  150.2817  142.6441  156.1910 H   0  0  0  0  0  0  0  0  0  0  0  0
  152.4822  140.7209  155.3192 H   0  0  0  0  0  0  0  0  0  0  0  0
  152.4023  139.5017  156.5544 H   0  0  0  0  0  0  0  0  0  0  0  0
  149.6998  140.1689  156.2107 H   0  0  0  0  0  0  0  0  0  0  0  0
  149.5249  139.9288  153.8923 H   0  0  0  0  0  0  0  0  0  0  0  0
  152.0341  144.3892  161.8589 H   0  0  0  0  0  0  0  0  0  0  0  0
  150.5866  144.0975  160.9089 H   0  0  0  0  0  0  0  0  0  0  0  0
  151.9244  145.0172  160.2224 H   0  0  0  0  0  0  0  0  0  0  0  0
  1  2  1  0  0  0  0
  1 21  1  0  0  0  0
  1 22  1  0  0  0  0
  1 23  1  0  0  0  0
  2 19  1  0  0  0  0
  2  3  1  0  0  0  0
  3  4  2  0  0  0  0
  3  5  1  0  0  0  0
  5  9  1  0  0  0  0
  5  6  2  0  0  0  0
  6  7  1  0  0  0  0
  6 17  1  0  0  0  0
  7  8  2  0  0  0  0
  8  9  1  0  0  0  0
  8 24  1  0  0  0  0
  9 10  1  0  0  0  0
 10 11  1  0  0  0  0
 10 25  1  0  0  0  0
 10 26  1  0  0  0  0
 11 12  1  0  0  0  0
 11 13  1  0  0  0  0
 11 27  1  0  0  0  0
 12 28  1  0  0  0  0
 13 14  1  0  0  0  0
 13 15  1  0  0  0  0
 13 16  1  0  0  0  0
 17 18  1  0  0  0  0
 17 19  1  0  0  0  0
 18 29  1  0  0  0  0
 18 30  1  0  0  0  0
 18 31  1  0  0  0  0
 19 20  2  0  0  0  0
M  END
> <s_m_source_file>
AV-unprocessed.smi

> <i_m_source_file_index>
2777

> <i_lp_mmshare_version>
43012

> <i_f3d_flags>
0

> <s_epik_input>
Tz1jMW4oW0NIM10pYyg9TyluKFtDSDNdKWMoYzEyKW5bY0hdbjJbQ0gyXVtDQEhdKFtPSF0pQyhGKShGKUY=

> <s_epik_cmdline>
J2VwaWtfcHl0aG9uJywgJy1waCcsICc3LjAnLCAnLXRuJywgJzgnLCAnLW1hJywgJzIwMCcsICctbWV0YWxfYmluZGluZycsICctaW1hZScsICc8aW5maWxlLm1hZT4nLCAnLW9tYWUnLCAnPG91dGZpbGUubWFlPic=

> <r_epik_Ionization_Penalty>
0.000551612

> <r_epik_Ionization_Penalty_Charging>
2.619e-09

> <r_epik_Ionization_Penalty_Neutral>
0.00055161

> <r_epik_State_Penalty>
0.000345115

> <r_epik_Charging_Adjusted_Penalty>
0.000345118

> <i_epik_Tot_Q>
0

> <i_epik_Tot_abs_Q>
0

> <r_epik_Metal_State_Penalty>
-0

> <b_epik_Metal_Only>
0

> <s_lp_Force_Field>
OPLS_2005

> <r_lp_Energy>
33.5503

> <b_lp_Chiralities_Consistent>
1

> <s_lp_Variant>
AV-unprocessed.smi:2777-2

> <Gold.Version>
5.8.1

> <Gold.Id.Protein>
6NUR|6NUR_protein|mol2

> <Gold.PLP.Fitness>
46.4793

> <Gold.PLP.PLP>
-39.2463

> <Gold.PLP.part.hbond>
-2.3665

> <Gold.PLP.part.metal>
0.0000

> <Gold.PLP.part.buried>
-6.0284

> <Gold.PLP.part.nonpolar>
-30.9430

> <Gold.PLP.part.repulsive>
0.1656

> <Gold.PLP.ligand.clash>
0.0000

> <Gold.PLP.ligand.torsion>
0.7811

> <Gold.PLP.Chemscore.Hbond>
1.9280

> <Gold.PLP.Chemscore.CHOScore>
1.0000

> <Gold.PLP.Chemscore.Metal>
0.0000

> <Gold.Chemscore.Hbonds>
donor molecule, donor type, donor heavy atom, donor atom, acceptor molecule, acceptor atom, score
      P1  H  7989  7998       L1    12  0.96
      P1  H  7997  8010       L1     4  1.00
      L1  C     8    24       P1  8028  0.92

> <Gold.PLP.Chemscore.Internal.Correction>
0.0111

> <Gold.Rescore>
     Score         DG    S(hbond)    S(metal)    S(lipo)     H(rot)  DE(clash)    DE(int)     intcor
     10.78     -11.61       1.96        0.00      44.47       2.20       0.00       0.83       ----

> <Gold.Chemscore.Fitness>
10.7760

> <Gold.Chemscore.DG>
-11.6069

> <Gold.Chemscore.ZeroCoef>
-5.4800

> <Gold.Chemscore.Hbond>
1.9604

> <Gold.Chemscore.Metal>
0.0000

> <Gold.Chemscore.Lipo>
44.4702

> <Gold.Chemscore.Internal_Hbond>
0.0000

> <Gold.Chemscore.DEClash>
0.0036

> <Gold.Chemscore.DEInternal>
0.8273

> <Gold.Chemscore.Rot>
2.1969

> <Gold.Chemscore.Internal.Correction>
   9.000000E+99

> <Gold.Chemscore.Hbonds>
donor molecule, donor type, donor heavy atom, donor atom, acceptor molecule, acceptor atom, score
      P1  H  7989  7998       L1    12  0.83
      P1  H  7997  8010       L1     4  0.74

> <Gold.Chemscore.Hbond.Weighted>
-6.5479

> <Gold.Chemscore.Metal.Weighted>
-0.0000

> <Gold.Chemscore.Lipo.Weighted>
-5.2030

> <Gold.Chemscore.Internal_Hbond.Weighted>
0.0000

> <Gold.Chemscore.DEClash.Weighted>
0.0036

> <Gold.Chemscore.DEInternal.Weighted>
0.8273

> <Gold.Chemscore.Rot.Weighted>
5.6239

> <Gold.Chemscore.Internal.Correction.Weighted>
   9.000000E+99

> <Gold.Protein.RotatedTorsions>
[ 6907 6896 6895 6894 ] final -110.01 input  -60.11 | X-H torsion
[ 7974 7965 7964 7962 ] final   93.29 input  175.53 | X-H torsion
[ 8008 7997 7996 7995 ] final   12.80 input   59.86 | X-H torsion
[ 10167 10162 10161 10158 ] final   24.56 input  -65.29 | X-H torsion
[ 10718 10713 10712 10709 ] final   48.50 input   66.30 | X-H torsion
[ 10763 10752 10751 10750 ] final -113.45 input  -60.55 | X-H torsion
[ 11005 11000 10999 10996 ] final   57.27 input  -57.11 | X-H torsion

> <Gold.Protein.ActiveResidues>
 VAL166  LYS551  ARG553  GLY616  TRP617  ASP618  TYR619  PRO620  LYS621  CYS622 
 ASP623  PHE694  ASN695  SER759  ASP760  ASP761  ALA762  ILE779  LEU786  VAL792 
 PHE793  MET794  SER795  GLU796  ALA797  LYS798  CYS799  TRP800  GLU811  SER814 

> <Gold.Protein.RotatedAtoms>
  150.7597  133.9445  159.3466 H   0  0  0  0  0  0  0  0  0  0  0  0  # atno 6907 bound_to 6896
  151.7356  135.0863  160.0317 H   0  0  0  0  0  0  0  0  0  0  0  0  # atno 6908 bound_to 6896
  152.3561  133.6202  159.6016 H   0  0  0  0  0  0  0  0  0  0  0  0  # atno 6909 bound_to 6896
  145.4809  139.2278  143.2883 H   0  0  0  0  0  0  0  0  0  0  0  0  # atno 7974 bound_to 7965
  154.8256  140.2891  155.5757 H   0  0  0  0  0  0  0  0  0  0  0  0  # atno 8008 bound_to 7997
  156.3001  140.2542  156.3102 H   0  0  0  0  0  0  0  0  0  0  0  0  # atno 8009 bound_to 7997
  154.9289  140.0384  157.2027 H   0  0  0  0  0  0  0  0  0  0  0  0  # atno 8010 bound_to 7997
  140.5178  144.0053  150.6402 H   0  0  0  0  0  0  0  0  0  0  0  0  # atno 10167 bound_to 10162
  157.4693  130.8245  149.7970 H   0  0  0  0  0  0  0  0  0  0  0  0  # atno 10718 bound_to 10713
  154.8397  135.4454  154.1351 H   0  0  0  0  0  0  0  0  0  0  0  0  # atno 10763 bound_to 10752
  153.2551  135.6930  153.7644 H   0  0  0  0  0  0  0  0  0  0  0  0  # atno 10764 bound_to 10752
  153.6941  135.3382  155.3185 H   0  0  0  0  0  0  0  0  0  0  0  0  # atno 10765 bound_to 10752
  140.0465  134.5798  155.9316 H   0  0  0  0  0  0  0  0  0  0  0  0  # atno 11005 bound_to 11000
  146.2341  140.5595  142.8962 LP  0  0  0  0  0  0  0  0  0  0  0  0  # atno 17320 bound_to 7965
  144.7889  140.5993  143.6555 LP  0  0  0  0  0  0  0  0  0  0  0  0  # atno 17321 bound_to 7965
  140.3394  143.3029  152.0604 LP  0  0  0  0  0  0  0  0  0  0  0  0  # atno 17342 bound_to 10162
  139.4914  144.6453  151.6791 LP  0  0  0  0  0  0  0  0  0  0  0  0  # atno 17343 bound_to 10162
  156.0065  130.3853  150.2412 LP  0  0  0  0  0  0  0  0  0  0  0  0  # atno 17370 bound_to 10713
  157.0593  131.0085  151.3228 LP  0  0  0  0  0  0  0  0  0  0  0  0  # atno 17371 bound_to 10713
  141.1909  133.6570  156.5434 LP  0  0  0  0  0  0  0  0  0  0  0  0  # atno 17394 bound_to 11000
  140.3985  134.7378  157.4765 LP  0  0  0  0  0  0  0  0  0  0  0  0  # atno 17395 bound_to 11000

$$$$
