AV-unprocessed.smi:2822|AV-procd|sdf|10876|dock2
  -GOLD-   2272015313D 1   1.00000     0.00000
 Structure written by MMmdl.
 40 42  0  0  0  0  0  0  0  0  2 V2000
  149.1333  138.1213  154.4655 Cl  0  0  0  0  0  0  0  0  0  0  0  0
  148.2573  139.6008  154.2832 C   0  0  0  0  0  0  0  0  0  0  0  0
  146.9855  139.5773  153.6743 C   0  0  0  0  0  0  0  0  0  0  0  0
  146.2872  140.7225  153.5229 N   0  3  0  0  0  0  0  0  0  0  0  0
  146.7534  141.9203  153.9348 C   0  0  0  0  0  0  0  0  0  0  0  0
  148.0181  142.0083  154.5512 C   0  0  0  0  0  0  0  0  0  0  0  0
  148.7914  140.8341  154.7323 C   0  0  0  0  0  0  0  0  0  0  0  0
  150.0562  140.8557  155.3398 N   0  0  0  0  0  0  0  0  0  0  0  0
  150.5737  142.0660  155.9597 C   0  0  0  0  0  0  0  0  0  0  0  0
  150.7887  141.8773  157.4672 C   0  0  2  0  0  0  0  0  0  0  0  0
  151.3026  143.1654  158.1364 C   0  0  0  0  0  0  0  0  0  0  0  0
  151.5738  142.9688  159.5545 N   0  0  0  0  0  0  0  0  0  0  0  0
  152.0627  144.1972  160.1781 C   0  0  0  0  0  0  0  0  0  0  0  0
  152.3231  144.0266  161.6831 C   0  0  0  0  0  0  0  0  0  0  0  0
  153.3096  142.8755  161.9271 C   0  0  0  0  0  0  0  0  0  0  0  0
  152.8194  141.6008  161.2229 C   0  0  0  0  0  0  0  0  0  0  0  0
  152.5284  141.8702  159.7320 C   0  0  1  0  0  0  0  0  0  0  0  0
  152.0271  140.5890  159.0344 C   0  0  0  0  0  0  0  0  0  0  0  0
  151.7627  140.8548  157.6606 O   0  0  0  0  0  0  0  0  0  0  0  0
  146.5089  138.6805  153.3059 H   0  0  0  0  0  0  0  0  0  0  0  0
  146.1055  142.7672  153.7617 H   0  0  0  0  0  0  0  0  0  0  0  0
  148.3730  142.9746  154.8767 H   0  0  0  0  0  0  0  0  0  0  0  0
  150.6984  140.0937  155.1713 H   0  0  0  0  0  0  0  0  0  0  0  0
  151.5086  142.3595  155.4804 H   0  0  0  0  0  0  0  0  0  0  0  0
  149.8563  142.8711  155.7960 H   0  0  0  0  0  0  0  0  0  0  0  0
  149.8479  141.5788  157.9340 H   0  0  0  0  0  0  0  0  0  0  0  0
  152.2097  143.5004  157.6304 H   0  0  0  0  0  0  0  0  0  0  0  0
  150.5651  143.9591  158.0110 H   0  0  0  0  0  0  0  0  0  0  0  0
  152.9808  144.5225  159.6861 H   0  0  0  0  0  0  0  0  0  0  0  0
  151.3347  144.9961  160.0320 H   0  0  0  0  0  0  0  0  0  0  0  0
  152.7148  144.9528  162.1043 H   0  0  0  0  0  0  0  0  0  0  0  0
  151.3828  143.8223  162.1969 H   0  0  0  0  0  0  0  0  0  0  0  0
  154.2931  143.1496  161.5436 H   0  0  0  0  0  0  0  0  0  0  0  0
  153.4283  142.6972  162.9962 H   0  0  0  0  0  0  0  0  0  0  0  0
  153.5670  140.8135  161.3254 H   0  0  0  0  0  0  0  0  0  0  0  0
  151.9161  141.2376  161.7152 H   0  0  0  0  0  0  0  0  0  0  0  0
  153.4702  142.1523  159.2574 H   0  0  0  0  0  0  0  0  0  0  0  0
  152.7769  139.8003  159.1004 H   0  0  0  0  0  0  0  0  0  0  0  0
  151.1230  140.2113  159.5149 H   0  0  0  0  0  0  0  0  0  0  0  0
  145.3691  140.6805  153.0793 H   0  0  0  0  0  0  0  0  0  0  0  0
  1  2  1  0  0  0  0
  2  7  1  0  0  0  0
  2  3  2  0  0  0  0
  3  4  1  0  0  0  0
  3 20  1  0  0  0  0
  4  5  2  0  0  0  0
  4 40  1  0  0  0  0
  5  6  1  0  0  0  0
  5 21  1  0  0  0  0
  6  7  2  0  0  0  0
  6 22  1  0  0  0  0
  7  8  1  0  0  0  0
  8  9  1  0  0  0  0
  8 23  1  0  0  0  0
  9 10  1  0  0  0  0
  9 24  1  0  0  0  0
  9 25  1  0  0  0  0
 10 19  1  0  0  0  0
 10 11  1  0  0  0  0
 10 26  1  0  0  0  0
 11 12  1  0  0  0  0
 11 27  1  0  0  0  0
 11 28  1  0  0  0  0
 12 17  1  0  0  0  0
 12 13  1  0  0  0  0
 13 14  1  0  0  0  0
 13 29  1  0  0  0  0
 13 30  1  0  0  0  0
 14 15  1  0  0  0  0
 14 31  1  0  0  0  0
 14 32  1  0  0  0  0
 15 16  1  0  0  0  0
 15 33  1  0  0  0  0
 15 34  1  0  0  0  0
 16 17  1  0  0  0  0
 16 35  1  0  0  0  0
 16 36  1  0  0  0  0
 17 18  1  0  0  0  0
 17 37  1  0  0  0  0
 18 19  1  0  0  0  0
 18 38  1  0  0  0  0
 18 39  1  0  0  0  0
M  CHG  1   4   1
M  END
> <s_m_source_file>
AV-unprocessed.smi

> <i_m_source_file_index>
2822

> <i_lp_mmshare_version>
43012

> <i_f3d_flags>
0

> <s_epik_input>
Q2xjMVtjSF1uW2NIXVtjSF1jMVtOSF1bQ0gyXVtDQEhdKFtDSDJdMilPW0NIMl1bQ0BASF0oTjIzKVtDSDJdW0NIMl1bQ0gyXVtDSDJdMw==

> <s_epik_cmdline>
J2VwaWtfcHl0aG9uJywgJy1waCcsICc3LjAnLCAnLXRuJywgJzgnLCAnLW1hJywgJzIwMCcsICctbWV0YWxfYmluZGluZycsICctaW1hZScsICc8aW5maWxlLm1hZT4nLCAnLW9tYWUnLCAnPG91dGZpbGUubWFlPic=

> <r_epik_Ionization_Penalty>
1.37653

> <r_epik_Ionization_Penalty_Charging>
0.152973

> <r_epik_Ionization_Penalty_Neutral>
1.22356

> <r_epik_State_Penalty>
1.42693

> <r_epik_Charging_Adjusted_Penalty>
1.5799

> <i_epik_Tot_Q>
1

> <i_epik_Tot_abs_Q>
1

> <r_epik_Metal_State_Penalty>
4.59822

> <b_epik_Metal_Only>
0

> <s_lp_Force_Field>
OPLS_2005

> <r_lp_Energy>
43.1836

> <b_lp_Chiralities_Consistent>
1

> <s_lp_Variant>
AV-unprocessed.smi:2822-17

> <Gold.Version>
5.8.1

> <Gold.Id.Protein>
6NUR|6NUR_protein|mol2

> <Gold.PLP.Fitness>
45.5801

> <Gold.PLP.PLP>
-39.6177

> <Gold.PLP.part.hbond>
-1.0000

> <Gold.PLP.part.metal>
0.0000

> <Gold.PLP.part.buried>
-4.7916

> <Gold.PLP.part.nonpolar>
-34.6354

> <Gold.PLP.part.repulsive>
0.5493

> <Gold.PLP.ligand.clash>
0.0000

> <Gold.PLP.ligand.torsion>
0.0195

> <Gold.PLP.Chemscore.Hbond>
2.0000

> <Gold.PLP.Chemscore.CHOScore>
0.0000

> <Gold.PLP.Chemscore.Metal>
0.0000

> <Gold.Chemscore.Hbonds>
donor molecule, donor type, donor heavy atom, donor atom, acceptor molecule, acceptor atom, score
      L1  H     4    40       P1 10175  2.00

> <Gold.PLP.Chemscore.Internal.Correction>
0.0012

> <Gold.Rescore>
     Score         DG    S(hbond)    S(metal)    S(lipo)     H(rot)  DE(clash)    DE(int)     intcor
     19.79     -20.29       0.92        0.00     126.11       1.18       0.43       0.07       ----

> <Gold.Chemscore.Fitness>
19.7883

> <Gold.Chemscore.DG>
-20.2851

> <Gold.Chemscore.ZeroCoef>
-5.4800

> <Gold.Chemscore.Hbond>
0.9186

> <Gold.Chemscore.Metal>
0.0000

> <Gold.Chemscore.Lipo>
126.1081

> <Gold.Chemscore.Internal_Hbond>
0.0000

> <Gold.Chemscore.DEClash>
0.4251

> <Gold.Chemscore.DEInternal>
0.0718

> <Gold.Chemscore.Rot>
1.1788

> <Gold.Chemscore.Internal.Correction>
   9.000000E+99

> <Gold.Chemscore.Hbonds>
donor molecule, donor type, donor heavy atom, donor atom, acceptor molecule, acceptor atom, score
      L1  H     4    40       P1 10175  0.74

> <Gold.Chemscore.Hbond.Weighted>
-3.0681

> <Gold.Chemscore.Metal.Weighted>
-0.0000

> <Gold.Chemscore.Lipo.Weighted>
-14.7546

> <Gold.Chemscore.Internal_Hbond.Weighted>
0.0000

> <Gold.Chemscore.DEClash.Weighted>
0.4251

> <Gold.Chemscore.DEInternal.Weighted>
0.0718

> <Gold.Chemscore.Rot.Weighted>
3.0177

> <Gold.Chemscore.Internal.Correction.Weighted>
   9.000000E+99

> <Gold.Protein.RotatedTorsions>
[ 6907 6896 6895 6894 ] final   84.43 input  -60.11 | X-H torsion
[ 7974 7965 7964 7962 ] final -170.01 input  175.53 | X-H torsion
[ 8008 7997 7996 7995 ] final  173.58 input   59.86 | X-H torsion
[ 10167 10162 10161 10158 ] final   42.35 input  -65.29 | X-H torsion
[ 10718 10713 10712 10709 ] final -168.13 input   66.30 | X-H torsion
[ 10763 10752 10751 10750 ] final   82.08 input  -60.55 | X-H torsion
[ 11005 11000 10999 10996 ] final  -16.48 input  -57.11 | X-H torsion

> <Gold.Protein.ActiveResidues>
 VAL166  LYS551  ARG553  GLY616  TRP617  ASP618  TYR619  PRO620  LYS621  CYS622 
 ASP623  PHE694  ASN695  SER759  ASP760  ASP761  ALA762  ILE779  LEU786  VAL792 
 PHE793  MET794  SER795  GLU796  ALA797  LYS798  CYS799  TRP800  GLU811  SER814 

> <Gold.Protein.RotatedAtoms>
  152.5352  134.2741  159.8982 H   0  0  0  0  0  0  0  0  0  0  0  0  # atno 6907 bound_to 6896
  151.2697  133.4254  159.2628 H   0  0  0  0  0  0  0  0  0  0  0  0  # atno 6908 bound_to 6896
  151.0378  134.9601  159.8202 H   0  0  0  0  0  0  0  0  0  0  0  0  # atno 6909 bound_to 6896
  144.7176  140.2136  143.6324 H   0  0  0  0  0  0  0  0  0  0  0  0  # atno 7974 bound_to 7965
  156.1061  140.1456  156.9402 H   0  0  0  0  0  0  0  0  0  0  0  0  # atno 8008 bound_to 7997
  154.4735  140.0902  156.7247 H   0  0  0  0  0  0  0  0  0  0  0  0  # atno 8009 bound_to 7997
  155.4677  140.3440  155.4323 H   0  0  0  0  0  0  0  0  0  0  0  0  # atno 8010 bound_to 7997
  140.3552  144.2299  150.6142 H   0  0  0  0  0  0  0  0  0  0  0  0  # atno 10167 bound_to 10162
  156.6925  130.9165  151.3070 H   0  0  0  0  0  0  0  0  0  0  0  0  # atno 10718 bound_to 10713
  153.1171  135.4742  154.9134 H   0  0  0  0  0  0  0  0  0  0  0  0  # atno 10763 bound_to 10752
  154.7539  135.3113  154.8508 H   0  0  0  0  0  0  0  0  0  0  0  0  # atno 10764 bound_to 10752
  153.9082  135.6868  153.4806 H   0  0  0  0  0  0  0  0  0  0  0  0  # atno 10765 bound_to 10752
  140.8072  133.8168  155.9527 H   0  0  0  0  0  0  0  0  0  0  0  0  # atno 11005 bound_to 11000
  145.8568  139.2202  143.1740 LP  0  0  0  0  0  0  0  0  0  0  0  0  # atno 17320 bound_to 7965
  146.0210  140.8348  142.9923 LP  0  0  0  0  0  0  0  0  0  0  0  0  # atno 17321 bound_to 7965
  140.5180  143.2273  151.8433 LP  0  0  0  0  0  0  0  0  0  0  0  0  # atno 17342 bound_to 10162
  139.4821  144.4871  151.9233 LP  0  0  0  0  0  0  0  0  0  0  0  0  # atno 17343 bound_to 10162
  157.7003  130.9326  150.0767 LP  0  0  0  0  0  0  0  0  0  0  0  0  # atno 17370 bound_to 10713
  156.1787  130.3649  149.9065 LP  0  0  0  0  0  0  0  0  0  0  0  0  # atno 17371 bound_to 10713
  140.9235  134.2112  157.4911 LP  0  0  0  0  0  0  0  0  0  0  0  0  # atno 17394 bound_to 11000
  139.8717  134.9802  156.5068 LP  0  0  0  0  0  0  0  0  0  0  0  0  # atno 17395 bound_to 11000

$$$$
