AV-unprocessed.smi:3034|AV-procd|sdf|11580|dock9
  -GOLD-   2272016553D 1   1.00000     0.00000
 Structure written by MMmdl.
 31 31  0  0  0  0  0  0  0  0  2 V2000
  146.8893  141.9999  154.0878 C   0  0  0  0  0  0  0  0  0  0  0  0
  148.2576  141.3289  154.2468 C   0  0  0  0  0  0  0  0  0  0  0  0
  148.5977  141.0302  155.7126 C   0  0  0  0  0  0  0  0  0  0  0  0
  150.2780  140.2724  155.8676 S   0  0  0  0  0  0  0  0  0  0  0  0
  150.0954  139.0098  156.6034 O   0  0  0  0  0  0  0  0  0  0  0  0
  150.7756  140.1597  154.4881 O   0  0  0  0  0  0  0  0  0  0  0  0
  151.0949  141.4093  156.6935 N   0  5  0  0  0  0  0  0  0  0  0  0
  150.4170  142.2999  157.6277 C   0  0  0  0  0  0  0  0  0  0  0  0
  151.3705  143.4323  158.0877 C   0  0  1  0  0  0  0  0  0  0  0  0
  150.6708  144.6595  158.0002 O   0  0  0  0  0  0  0  0  0  0  0  0
  151.9904  143.2213  159.4738 C   0  0  0  0  0  0  0  0  0  0  0  0
  152.8673  142.1359  159.7032 C   0  0  0  0  0  0  0  0  0  0  0  0
  153.4269  141.9738  160.9848 C   0  0  0  0  0  0  0  0  0  0  0  0
  153.1009  142.9038  161.9898 C   0  0  0  0  0  0  0  0  0  0  0  0
  152.2248  143.9580  161.6665 C   0  0  0  0  0  0  0  0  0  0  0  0
  151.6825  144.1225  160.4412 N   0  0  0  0  0  0  0  0  0  0  0  0
  146.6717  142.1932  153.0374 H   0  0  0  0  0  0  0  0  0  0  0  0
  146.8550  142.9529  154.6163 H   0  0  0  0  0  0  0  0  0  0  0  0
  146.0930  141.3681  154.4821 H   0  0  0  0  0  0  0  0  0  0  0  0
  148.2737  140.4017  153.6731 H   0  0  0  0  0  0  0  0  0  0  0  0
  149.0251  141.9721  153.8156 H   0  0  0  0  0  0  0  0  0  0  0  0
  148.5853  141.9453  156.3046 H   0  0  0  0  0  0  0  0  0  0  0  0
  147.8657  140.3451  156.1392 H   0  0  0  0  0  0  0  0  0  0  0  0
  149.5423  142.7545  157.1603 H   0  0  0  0  0  0  0  0  0  0  0  0
  150.0389  141.7620  158.4979 H   0  0  0  0  0  0  0  0  0  0  0  0
  152.1870  143.5086  157.3679 H   0  0  0  0  0  0  0  0  0  0  0  0
  149.9194  144.5319  157.4425 H   0  0  0  0  0  0  0  0  0  0  0  0
  153.0970  141.4349  158.9142 H   0  0  0  0  0  0  0  0  0  0  0  0
  154.0943  141.1505  161.1926 H   0  0  0  0  0  0  0  0  0  0  0  0
  153.5116  142.8113  162.9842 H   0  0  0  0  0  0  0  0  0  0  0  0
  151.9539  144.6908  162.4121 H   0  0  0  0  0  0  0  0  0  0  0  0
  1  2  1  0  0  0  0
  1 17  1  0  0  0  0
  1 18  1  0  0  0  0
  1 19  1  0  0  0  0
  2  3  1  0  0  0  0
  2 20  1  0  0  0  0
  2 21  1  0  0  0  0
  3  4  1  0  0  0  0
  3 22  1  0  0  0  0
  3 23  1  0  0  0  0
  4  5  2  0  0  0  0
  4  6  2  0  0  0  0
  4  7  1  0  0  0  0
  7  8  1  0  0  0  0
  8  9  1  0  0  0  0
  8 24  1  0  0  0  0
  8 25  1  0  0  0  0
  9 10  1  0  0  0  0
  9 11  1  0  0  0  0
  9 26  1  0  0  0  0
 10 27  1  0  0  0  0
 11 16  1  0  0  0  0
 11 12  2  0  0  0  0
 12 13  1  0  0  0  0
 12 28  1  0  0  0  0
 13 14  2  0  0  0  0
 13 29  1  0  0  0  0
 14 15  1  0  0  0  0
 14 30  1  0  0  0  0
 15 16  2  0  0  0  0
 15 31  1  0  0  0  0
M  CHG  1   7  -1
M  END
> <s_m_source_file>
AV-unprocessed.smi

> <i_m_source_file_index>
3034

> <i_lp_mmshare_version>
43012

> <i_f3d_flags>
0

> <s_epik_input>
W0NIM11bQ0gyXVtDSDJdUyg9TykoPU8pW05IXVtDSDJdW0NASF0oW09IXSljMVtjSF1bY0hdW2NIXVtjSF1uMQ==

> <s_epik_cmdline>
J2VwaWtfcHl0aG9uJywgJy1waCcsICc3LjAnLCAnLXRuJywgJzgnLCAnLW1hJywgJzIwMCcsICctbWV0YWxfYmluZGluZycsICctaW1hZScsICc8aW5maWxlLm1hZT4nLCAnLW9tYWUnLCAnPG91dGZpbGUubWFlPic=

> <r_epik_Ionization_Penalty>
6.18156

> <r_epik_Ionization_Penalty_Charging>
6.17474

> <r_epik_Ionization_Penalty_Neutral>
0.0068235

> <r_epik_State_Penalty>
6.17598

> <r_epik_Charging_Adjusted_Penalty>
12.3507

> <i_epik_Tot_Q>
-1

> <i_epik_Tot_abs_Q>
1

> <r_epik_Metal_State_Penalty>
2.11803

> <b_epik_Metal_Only>
1

> <s_lp_Force_Field>
OPLS_2005

> <r_lp_Energy>
1.09161

> <b_lp_Chiralities_Consistent>
1

> <s_lp_Variant>
AV-unprocessed.smi:3034-4

> <Gold.Version>
5.8.1

> <Gold.Id.Protein>
6NUR|6NUR_protein|mol2

> <Gold.PLP.Fitness>
43.0022

> <Gold.PLP.PLP>
-38.6923

> <Gold.PLP.part.hbond>
-2.3738

> <Gold.PLP.part.metal>
0.0000

> <Gold.PLP.part.buried>
-6.4065

> <Gold.PLP.part.nonpolar>
-30.2802

> <Gold.PLP.part.repulsive>
0.2262

> <Gold.PLP.ligand.clash>
0.0000

> <Gold.PLP.ligand.torsion>
1.3706

> <Gold.PLP.Chemscore.Hbond>
2.0000

> <Gold.PLP.Chemscore.CHOScore>
0.0000

> <Gold.PLP.Chemscore.Metal>
0.0000

> <Gold.Chemscore.Hbonds>
donor molecule, donor type, donor heavy atom, donor atom, acceptor molecule, acceptor atom, score
      L1  H    10    27       P1  8028  0.89
      P1  H  7989  7998       L1     6  0.89

> <Gold.PLP.Chemscore.Internal.Correction>
1.0512

> <Gold.Rescore>
     Score         DG    S(hbond)    S(metal)    S(lipo)     H(rot)  DE(clash)    DE(int)     intcor
     15.55     -17.08       1.91        0.00      94.72       2.29       0.04       1.50       ----

> <Gold.Chemscore.Fitness>
15.5478

> <Gold.Chemscore.DG>
-17.0840

> <Gold.Chemscore.ZeroCoef>
-5.4800

> <Gold.Chemscore.Hbond>
1.9111

> <Gold.Chemscore.Metal>
0.0000

> <Gold.Chemscore.Lipo>
94.7198

> <Gold.Chemscore.Internal_Hbond>
0.0000

> <Gold.Chemscore.DEClash>
0.0365

> <Gold.Chemscore.DEInternal>
1.4997

> <Gold.Chemscore.Rot>
2.2895

> <Gold.Chemscore.Internal.Correction>
   9.000000E+99

> <Gold.Chemscore.Hbonds>
donor molecule, donor type, donor heavy atom, donor atom, acceptor molecule, acceptor atom, score
      L1  H    10    27       P1  8028  0.16
      P1  H  7989  7998       L1     6  0.87

> <Gold.Chemscore.Hbond.Weighted>
-6.3830

> <Gold.Chemscore.Metal.Weighted>
-0.0000

> <Gold.Chemscore.Lipo.Weighted>
-11.0822

> <Gold.Chemscore.Internal_Hbond.Weighted>
0.0000

> <Gold.Chemscore.DEClash.Weighted>
0.0365

> <Gold.Chemscore.DEInternal.Weighted>
1.4997

> <Gold.Chemscore.Rot.Weighted>
5.8612

> <Gold.Chemscore.Internal.Correction.Weighted>
   9.000000E+99

> <Gold.Protein.RotatedTorsions>
[ 6907 6896 6895 6894 ] final    8.66 input  -60.11 | X-H torsion
[ 7974 7965 7964 7962 ] final -121.93 input  175.53 | X-H torsion
[ 8008 7997 7996 7995 ] final -161.43 input   59.86 | X-H torsion
[ 10167 10162 10161 10158 ] final  -68.01 input  -65.29 | X-H torsion
[ 10718 10713 10712 10709 ] final  103.62 input   66.30 | X-H torsion
[ 10763 10752 10751 10750 ] final  137.77 input  -60.55 | X-H torsion
[ 11005 11000 10999 10996 ] final -106.82 input  -57.11 | X-H torsion

> <Gold.Protein.ActiveResidues>
 VAL166  LYS551  ARG553  GLY616  TRP617  ASP618  TYR619  PRO620  LYS621  CYS622 
 ASP623  PHE694  ASN695  SER759  ASP760  ASP761  ALA762  ILE779  LEU786  VAL792 
 PHE793  MET794  SER795  GLU796  ALA797  LYS798  CYS799  TRP800  GLU811  SER814 

> <Gold.Protein.RotatedAtoms>
  151.7096  135.0915  160.0265 H   0  0  0  0  0  0  0  0  0  0  0  0  # atno 6907 bound_to 6896
  152.3670  133.6365  159.6066 H   0  0  0  0  0  0  0  0  0  0  0  0  # atno 6908 bound_to 6896
  150.7645  133.9249  159.3450 H   0  0  0  0  0  0  0  0  0  0  0  0  # atno 6909 bound_to 6896
  145.0350  140.8098  143.4301 H   0  0  0  0  0  0  0  0  0  0  0  0  # atno 7974 bound_to 7965
  155.7921  140.0880  157.2003 H   0  0  0  0  0  0  0  0  0  0  0  0  # atno 8008 bound_to 7997
  154.3985  140.1488  156.3233 H   0  0  0  0  0  0  0  0  0  0  0  0  # atno 8009 bound_to 7997
  155.8548  140.3433  155.5720 H   0  0  0  0  0  0  0  0  0  0  0  0  # atno 8010 bound_to 7997
  140.5539  143.2312  151.6858 H   0  0  0  0  0  0  0  0  0  0  0  0  # atno 10167 bound_to 10162
  157.6766  131.0783  150.5583 H   0  0  0  0  0  0  0  0  0  0  0  0  # atno 10718 bound_to 10713
  153.8785  135.3047  155.3444 H   0  0  0  0  0  0  0  0  0  0  0  0  # atno 10763 bound_to 10752
  154.7772  135.4855  153.9772 H   0  0  0  0  0  0  0  0  0  0  0  0  # atno 10764 bound_to 10752
  153.1365  135.6815  153.9192 H   0  0  0  0  0  0  0  0  0  0  0  0  # atno 10765 bound_to 10752
  141.0985  133.8927  157.1902 H   0  0  0  0  0  0  0  0  0  0  0  0  # atno 11005 bound_to 11000
  145.1722  139.2398  143.5336 LP  0  0  0  0  0  0  0  0  0  0  0  0  # atno 17320 bound_to 7965
  146.3503  140.1475  142.8593 LP  0  0  0  0  0  0  0  0  0  0  0  0  # atno 17321 bound_to 7965
  139.5039  144.3772  152.0411 LP  0  0  0  0  0  0  0  0  0  0  0  0  # atno 17342 bound_to 10162
  140.2892  144.3773  150.6094 LP  0  0  0  0  0  0  0  0  0  0  0  0  # atno 17343 bound_to 10162
  156.5886  130.4323  149.5946 LP  0  0  0  0  0  0  0  0  0  0  0  0  # atno 17370 bound_to 10713
  156.2602  130.6958  151.1724 LP  0  0  0  0  0  0  0  0  0  0  0  0  # atno 17371 bound_to 10713
  139.9829  135.0092  156.9793 LP  0  0  0  0  0  0  0  0  0  0  0  0  # atno 17394 bound_to 11000
  140.5080  134.1030  155.7264 LP  0  0  0  0  0  0  0  0  0  0  0  0  # atno 17395 bound_to 11000

$$$$
