AV-unprocessed.smi:3214|AV-procd|sdf|12283|dock7
  -GOLD-   2272018123D 1   1.00000     0.00000
 Structure written by MMmdl.
 37 37  0  0  0  0  0  0  0  0  2 V2000
  143.7825  134.0809  151.1409 C   0  0  0  0  0  0  0  0  0  0  0  0
  144.3191  135.2261  150.2722 C   0  0  0  0  0  0  0  0  0  0  0  0
  144.7500  136.3574  151.0859 N   0  0  0  0  0  0  0  0  0  0  0  0
  145.4741  136.2670  152.2121 C   0  0  0  0  0  0  0  0  0  0  0  0
  145.8606  135.1969  152.6826 O   0  0  0  0  0  0  0  0  0  0  0  0
  145.8027  137.5903  152.9114 C   0  0  0  0  0  0  0  0  0  0  0  0
  146.6291  138.5491  152.0363 C   0  0  0  0  0  0  0  0  0  0  0  0
  147.9349  138.8400  152.6652 N   0  3  0  0  0  0  0  0  0  0  0  0
  147.8768  139.3041  154.0699 C   0  0  2  0  0  0  0  0  0  0  0  0
  146.6764  140.2509  154.2396 C   0  0  0  0  0  0  0  0  0  0  0  0
  149.2119  139.9583  154.4982 C   0  0  0  0  0  0  0  0  0  0  0  0
  150.3037  139.0074  154.6103 N   0  0  0  0  0  0  0  0  0  0  0  0
  150.2752  137.6408  154.4259 C   0  0  0  0  0  0  0  0  0  0  0  0
  151.5383  137.1743  154.6519 C   0  0  0  0  0  0  0  0  0  0  0  0
  152.2776  138.3449  154.9807 C   0  0  0  0  0  0  0  0  0  0  0  0
  151.5346  139.4398  154.9589 N   0  0  0  0  0  0  0  0  0  0  0  0
  143.4390  133.2534  150.5200 H   0  0  0  0  0  0  0  0  0  0  0  0
  142.9400  134.4096  151.7503 H   0  0  0  0  0  0  0  0  0  0  0  0
  144.5517  133.6948  151.8110 H   0  0  0  0  0  0  0  0  0  0  0  0
  145.1388  134.8740  149.6437 H   0  0  0  0  0  0  0  0  0  0  0  0
  143.5370  135.5715  149.5957 H   0  0  0  0  0  0  0  0  0  0  0  0
  144.4705  137.2753  150.7710 H   0  0  0  0  0  0  0  0  0  0  0  0
  144.8702  138.0756  153.2037 H   0  0  0  0  0  0  0  0  0  0  0  0
  146.3426  137.3659  153.8321 H   0  0  0  0  0  0  0  0  0  0  0  0
  146.7999  138.1081  151.0529 H   0  0  0  0  0  0  0  0  0  0  0  0
  146.0781  139.4775  151.8845 H   0  0  0  0  0  0  0  0  0  0  0  0
  148.5198  138.0182  152.6160 H   0  0  0  0  0  0  0  0  0  0  0  0
  147.6917  138.4328  154.7000 H   0  0  0  0  0  0  0  0  0  0  0  0
  146.5346  140.5395  155.2815 H   0  0  0  0  0  0  0  0  0  0  0  0
  145.7519  139.7742  153.9119 H   0  0  0  0  0  0  0  0  0  0  0  0
  146.8052  141.1633  153.6565 H   0  0  0  0  0  0  0  0  0  0  0  0
  149.5166  140.7267  153.7876 H   0  0  0  0  0  0  0  0  0  0  0  0
  149.0926  140.4556  155.4621 H   0  0  0  0  0  0  0  0  0  0  0  0
  149.3702  137.1192  154.1509 H   0  0  0  0  0  0  0  0  0  0  0  0
  151.8818  136.1520  154.5939 H   0  0  0  0  0  0  0  0  0  0  0  0
  153.3240  138.4305  155.2339 H   0  0  0  0  0  0  0  0  0  0  0  0
  148.3687  139.5733  152.1228 H   0  0  0  0  0  0  0  0  0  0  0  0
  1  2  1  0  0  0  0
  1 17  1  0  0  0  0
  1 18  1  0  0  0  0
  1 19  1  0  0  0  0
  2  3  1  0  0  0  0
  2 20  1  0  0  0  0
  2 21  1  0  0  0  0
  3  4  1  0  0  0  0
  3 22  1  0  0  0  0
  4  5  2  0  0  0  0
  4  6  1  0  0  0  0
  6  7  1  0  0  0  0
  6 23  1  0  0  0  0
  6 24  1  0  0  0  0
  7  8  1  0  0  0  0
  7 25  1  0  0  0  0
  7 26  1  0  0  0  0
  8  9  1  0  0  0  0
  8 27  1  0  0  0  0
  8 37  1  0  0  0  0
  9 10  1  0  0  0  0
  9 11  1  0  0  0  0
  9 28  1  0  0  0  0
 10 29  1  0  0  0  0
 10 30  1  0  0  0  0
 10 31  1  0  0  0  0
 11 12  1  0  0  0  0
 11 32  1  0  0  0  0
 11 33  1  0  0  0  0
 12 16  1  0  0  0  0
 12 13  1  0  0  0  0
 13 14  2  0  0  0  0
 13 34  1  0  0  0  0
 14 15  1  0  0  0  0
 14 35  1  0  0  0  0
 15 16  2  0  0  0  0
 15 36  1  0  0  0  0
M  CHG  1   8   1
M  END
> <s_m_source_file>
AV-unprocessed.smi

> <i_m_source_file_index>
3214

> <i_lp_mmshare_version>
43012

> <i_f3d_flags>
0

> <s_epik_input>
W0NIM11bQ0gyXVtOSF1DKD1PKVtDSDJdW0NIMl1bTkhdW0NASF0oW0NIM10pW0NIMl1uMVtjSF1bY0hdW2NIXW4x

> <s_epik_cmdline>
J2VwaWtfcHl0aG9uJywgJy1waCcsICc3LjAnLCAnLXRuJywgJzgnLCAnLW1hJywgJzIwMCcsICctbWV0YWxfYmluZGluZycsICctaW1hZScsICc8aW5maWxlLm1hZT4nLCAnLW9tYWUnLCAnPG91dGZpbGUubWFlPic=

> <r_lp_tautomer_probability>
1

> <r_epik_Ionization_Penalty>
0.00598156

> <r_epik_Ionization_Penalty_Charging>
0.00597743

> <r_epik_Ionization_Penalty_Neutral>
4.12922e-06

> <r_epik_State_Penalty>
0.00439883

> <r_epik_Charging_Adjusted_Penalty>
0.0103763

> <i_epik_Tot_Q>
1

> <i_epik_Tot_abs_Q>
1

> <r_epik_Metal_State_Penalty>
-0

> <b_epik_Metal_Only>
0

> <s_lp_Force_Field>
OPLS_2005

> <r_lp_Energy>
5.54296

> <b_lp_Chiralities_Consistent>
1

> <s_lp_Variant>
AV-unprocessed.smi:3214-1

> <Gold.Version>
5.8.1

> <Gold.Id.Protein>
6NUR|6NUR_protein|mol2

> <Gold.PLP.Fitness>
49.0321

> <Gold.PLP.PLP>
-33.2424

> <Gold.PLP.part.hbond>
-3.6640

> <Gold.PLP.part.metal>
0.0000

> <Gold.PLP.part.buried>
-3.3919

> <Gold.PLP.part.nonpolar>
-28.1053

> <Gold.PLP.part.repulsive>
0.2696

> <Gold.PLP.ligand.clash>
0.0000

> <Gold.PLP.ligand.torsion>
0.7214

> <Gold.PLP.Chemscore.Hbond>
4.8140

> <Gold.PLP.Chemscore.CHOScore>
0.8800

> <Gold.PLP.Chemscore.Metal>
0.0000

> <Gold.Chemscore.Hbonds>
donor molecule, donor type, donor heavy atom, donor atom, acceptor molecule, acceptor atom, score
      L1  H     3    22       P1 10171  1.00
      L1  H     8    27       P1  7948  2.00
      L1  H     8    37       P1  7957  0.96
      P1  H  7989  7998       L1    16  0.73
      L1  C    13    34       P1  7948  0.84

> <Gold.PLP.Chemscore.Internal.Correction>
0.1505

> <Gold.Rescore>
     Score         DG    S(hbond)    S(metal)    S(lipo)     H(rot)  DE(clash)    DE(int)     intcor
     17.00     -17.94       3.10        0.00      70.23       2.39       0.35       0.59       ----

> <Gold.Chemscore.Fitness>
16.9975

> <Gold.Chemscore.DG>
-17.9353

> <Gold.Chemscore.ZeroCoef>
-5.4800

> <Gold.Chemscore.Hbond>
3.1046

> <Gold.Chemscore.Metal>
0.0000

> <Gold.Chemscore.Lipo>
70.2281

> <Gold.Chemscore.Internal_Hbond>
0.0000

> <Gold.Chemscore.DEClash>
0.3506

> <Gold.Chemscore.DEInternal>
0.5873

> <Gold.Chemscore.Rot>
2.3948

> <Gold.Chemscore.Internal.Correction>
   9.000000E+99

> <Gold.Chemscore.Hbonds>
donor molecule, donor type, donor heavy atom, donor atom, acceptor molecule, acceptor atom, score
      L1  H     3    22       P1 10171  1.00
      L1  H     8    27       P1  7948  0.94
      L1  H     8    37       P1  7957  0.91
      P1  H  7989  7998       L1    16  0.09

> <Gold.Chemscore.Hbond.Weighted>
-10.3692

> <Gold.Chemscore.Metal.Weighted>
-0.0000

> <Gold.Chemscore.Lipo.Weighted>
-8.2167

> <Gold.Chemscore.Internal_Hbond.Weighted>
0.0000

> <Gold.Chemscore.DEClash.Weighted>
0.3506

> <Gold.Chemscore.DEInternal.Weighted>
0.5873

> <Gold.Chemscore.Rot.Weighted>
6.1306

> <Gold.Chemscore.Internal.Correction.Weighted>
   9.000000E+99

> <Gold.Protein.RotatedTorsions>
[ 6907 6896 6895 6894 ] final  -15.01 input  -60.11 | X-H torsion
[ 7974 7965 7964 7962 ] final  -12.85 input  175.53 | X-H torsion
[ 8008 7997 7996 7995 ] final -103.54 input   59.86 | X-H torsion
[ 10167 10162 10161 10158 ] final  177.75 input  -65.29 | X-H torsion
[ 10718 10713 10712 10709 ] final  161.14 input   66.30 | X-H torsion
[ 10763 10752 10751 10750 ] final  -46.48 input  -60.55 | X-H torsion
[ 11005 11000 10999 10996 ] final -157.68 input  -57.11 | X-H torsion

> <Gold.Protein.ActiveResidues>
 VAL166  LYS551  ARG553  GLY616  TRP617  ASP618  TYR619  PRO620  LYS621  CYS622 
 ASP623  PHE694  ASN695  SER759  ASP760  ASP761  ALA762  ILE779  LEU786  VAL792 
 PHE793  MET794  SER795  GLU796  ALA797  LYS798  CYS799  TRP800  GLU811  SER814 

> <Gold.Protein.RotatedAtoms>
  151.3305  135.0840  159.9336 H   0  0  0  0  0  0  0  0  0  0  0  0  # atno 6907 bound_to 6896
  152.5236  133.9548  159.7699 H   0  0  0  0  0  0  0  0  0  0  0  0  # atno 6908 bound_to 6896
  150.9885  133.6120  159.2741 H   0  0  0  0  0  0  0  0  0  0  0  0  # atno 6909 bound_to 6896
  146.2136  140.3118  142.8383 H   0  0  0  0  0  0  0  0  0  0  0  0  # atno 7974 bound_to 7965
  154.8724  140.0422  157.1732 H   0  0  0  0  0  0  0  0  0  0  0  0  # atno 8008 bound_to 7997
  154.8725  140.2960  155.5452 H   0  0  0  0  0  0  0  0  0  0  0  0  # atno 8009 bound_to 7997
  156.2999  140.2426  156.3716 H   0  0  0  0  0  0  0  0  0  0  0  0  # atno 8010 bound_to 7997
  139.5266  144.2761  152.0586 H   0  0  0  0  0  0  0  0  0  0  0  0  # atno 10167 bound_to 10162
  157.1407  131.0539  151.2328 H   0  0  0  0  0  0  0  0  0  0  0  0  # atno 10718 bound_to 10713
  154.0456  135.6638  153.4794 H   0  0  0  0  0  0  0  0  0  0  0  0  # atno 10763 bound_to 10752
  153.0484  135.5100  154.7800 H   0  0  0  0  0  0  0  0  0  0  0  0  # atno 10764 bound_to 10752
  154.6790  135.3042  154.9605 H   0  0  0  0  0  0  0  0  0  0  0  0  # atno 10765 bound_to 10752
  140.6619  134.4340  157.5234 H   0  0  0  0  0  0  0  0  0  0  0  0  # atno 11005 bound_to 11000
  144.8983  140.7610  143.5883 LP  0  0  0  0  0  0  0  0  0  0  0  0  # atno 17320 bound_to 7965
  145.3043  139.1840  143.4673 LP  0  0  0  0  0  0  0  0  0  0  0  0  # atno 17321 bound_to 7965
  140.2219  144.4458  150.6338 LP  0  0  0  0  0  0  0  0  0  0  0  0  # atno 17342 bound_to 10162
  140.6413  143.2204  151.6284 LP  0  0  0  0  0  0  0  0  0  0  0  0  # atno 17343 bound_to 10162
  157.4310  130.7490  149.6990 LP  0  0  0  0  0  0  0  0  0  0  0  0  # atno 17370 bound_to 10713
  155.9789  130.4046  150.3619 LP  0  0  0  0  0  0  0  0  0  0  0  0  # atno 17371 bound_to 10713
  139.9010  134.8556  156.1897 LP  0  0  0  0  0  0  0  0  0  0  0  0  # atno 17394 bound_to 11000
  141.0458  133.6914  156.1681 LP  0  0  0  0  0  0  0  0  0  0  0  0  # atno 17395 bound_to 11000

$$$$
