AV-unprocessed.smi:444|AV-procd|sdf|2588|dock9
  -GOLD-   2262022583D 1   1.00000     0.00000
 Structure written by MMmdl.
 45 46  0  0  0  0  0  0  0  0  1 V2000
  151.6806  145.6164  159.4748 C   0  0  0  0  0  0  0  0  0  0  0  0
  152.0343  144.1514  159.6296 C   0  0  0  0  0  0  0  0  0  0  0  0
  152.6394  143.6874  160.8133 C   0  0  0  0  0  0  0  0  0  0  0  0
  152.9660  142.3260  160.9480 C   0  0  0  0  0  0  0  0  0  0  0  0
  152.6905  141.4212  159.9019 C   0  0  0  0  0  0  0  0  0  0  0  0
  153.0491  139.9560  160.0643 C   0  0  0  0  0  0  0  0  0  0  0  0
  152.0825  141.8735  158.7078 C   0  0  0  0  0  0  0  0  0  0  0  0
  151.8381  140.9358  157.7254 O   0  0  0  0  0  0  0  0  0  0  0  0
  151.2970  141.3730  156.4859 C   0  0  0  0  0  0  0  0  0  0  0  0
  150.4531  140.2352  155.8865 C   0  0  1  0  0  0  0  0  0  0  0  0
  150.2920  140.5185  154.5101 O   0  0  0  0  0  0  0  0  0  0  0  0
  151.1555  138.8659  156.0220 C   0  0  0  0  0  0  0  0  0  0  0  0
  150.2959  137.8711  156.6761 N   0  0  0  0  0  0  0  0  0  0  0  0
  150.2597  136.6497  156.0312 N   0  0  0  0  0  0  0  0  0  0  0  0
  149.5657  135.6633  156.4956 C   0  0  0  0  0  0  0  0  0  0  0  0
  149.6024  134.3808  155.7090 C   0  0  0  0  0  0  0  0  0  0  0  0
  148.8005  135.8339  157.7264 C   0  0  0  0  0  0  0  0  0  0  0  0
  148.0034  134.6368  158.2270 C   0  0  0  0  0  0  0  0  0  0  0  0
  148.8394  137.0396  158.3471 C   0  0  0  0  0  0  0  0  0  0  0  0
  148.1201  137.3003  159.5522 C   0  0  0  0  0  0  0  0  0  0  0  0
  147.5491  137.5292  160.5328 N   0  0  0  0  0  0  0  0  0  0  0  0
  149.6230  138.1620  157.8260 C   0  0  0  0  0  0  0  0  0  0  0  0
  149.6784  139.2674  158.3670 O   0  0  0  0  0  0  0  0  0  0  0  0
  151.7593  143.2490  158.5824 C   0  0  0  0  0  0  0  0  0  0  0  0
  151.7338  146.1403  160.4296 H   0  0  0  0  0  0  0  0  0  0  0  0
  150.6680  145.7250  159.0857 H   0  0  0  0  0  0  0  0  0  0  0  0
  152.3693  146.0983  158.7806 H   0  0  0  0  0  0  0  0  0  0  0  0
  152.8554  144.3715  161.6209 H   0  0  0  0  0  0  0  0  0  0  0  0
  153.4296  141.9792  161.8600 H   0  0  0  0  0  0  0  0  0  0  0  0
  152.1521  139.3389  160.0050 H   0  0  0  0  0  0  0  0  0  0  0  0
  153.5288  139.7648  161.0247 H   0  0  0  0  0  0  0  0  0  0  0  0
  153.7338  139.6441  159.2753 H   0  0  0  0  0  0  0  0  0  0  0  0
  150.6999  142.2799  156.6004 H   0  0  0  0  0  0  0  0  0  0  0  0
  152.1282  141.6024  155.8174 H   0  0  0  0  0  0  0  0  0  0  0  0
  149.4793  140.2075  156.3774 H   0  0  0  0  0  0  0  0  0  0  0  0
  149.3698  140.6145  154.3272 H   0  0  0  0  0  0  0  0  0  0  0  0
  151.5294  138.5197  155.0564 H   0  0  0  0  0  0  0  0  0  0  0  0
  152.0492  138.9790  156.6384 H   0  0  0  0  0  0  0  0  0  0  0  0
  148.5990  134.0865  155.4011 H   0  0  0  0  0  0  0  0  0  0  0  0
  150.0242  133.5727  156.3070 H   0  0  0  0  0  0  0  0  0  0  0  0
  150.2088  134.4737  154.8066 H   0  0  0  0  0  0  0  0  0  0  0  0
  147.5016  134.8410  159.1725 H   0  0  0  0  0  0  0  0  0  0  0  0
  148.6572  133.7785  158.3852 H   0  0  0  0  0  0  0  0  0  0  0  0
  147.2380  134.3578  157.5021 H   0  0  0  0  0  0  0  0  0  0  0  0
  151.2974  143.6375  157.6876 H   0  0  0  0  0  0  0  0  0  0  0  0
  1  2  1  0  0  0  0
  1 25  1  0  0  0  0
  1 26  1  0  0  0  0
  1 27  1  0  0  0  0
  2 24  1  0  0  0  0
  2  3  2  0  0  0  0
  3  4  1  0  0  0  0
  3 28  1  0  0  0  0
  4  5  2  0  0  0  0
  4 29  1  0  0  0  0
  5  6  1  0  0  0  0
  5  7  1  0  0  0  0
  6 30  1  0  0  0  0
  6 31  1  0  0  0  0
  6 32  1  0  0  0  0
  7  8  1  0  0  0  0
  7 24  2  0  0  0  0
  8  9  1  0  0  0  0
  9 10  1  0  0  0  0
  9 33  1  0  0  0  0
  9 34  1  0  0  0  0
 10 11  1  0  0  0  0
 10 12  1  0  0  0  0
 10 35  1  0  0  0  0
 11 36  1  0  0  0  0
 12 13  1  0  0  0  0
 12 37  1  0  0  0  0
 12 38  1  0  0  0  0
 13 22  1  0  0  0  0
 13 14  1  0  0  0  0
 14 15  2  0  0  0  0
 15 16  1  0  0  0  0
 15 17  1  0  0  0  0
 16 39  1  0  0  0  0
 16 40  1  0  0  0  0
 16 41  1  0  0  0  0
 17 18  1  0  0  0  0
 17 19  2  0  0  0  0
 18 42  1  0  0  0  0
 18 43  1  0  0  0  0
 18 44  1  0  0  0  0
 19 20  1  0  0  0  0
 19 22  1  0  0  0  0
 20 21  3  0  0  0  0
 22 23  2  0  0  0  0
 24 45  1  0  0  0  0
M  END
> <s_m_source_file>
AV-unprocessed.smi

> <i_m_source_file_index>
444

> <i_lp_mmshare_version>
43012

> <i_f3d_flags>
0

> <s_epik_input>
W0NIM11jMVtjSF1bY0hdYyhbQ0gzXSljKFtjSF0xKU9bQ0gyXVtDQEhdKFtPSF0pW0NIMl1uMm5jKFtDSDNdKWMoW0NIM10pYyhDI04pYzI9Tw==

> <s_epik_cmdline>
J2VwaWtfcHl0aG9uJywgJy1waCcsICc3LjAnLCAnLXRuJywgJzgnLCAnLW1hJywgJzIwMCcsICctbWV0YWxfYmluZGluZycsICctaW1hZScsICc8aW5maWxlLm1hZT4nLCAnLW9tYWUnLCAnPG91dGZpbGUubWFlPic=

> <r_lp_tautomer_probability>
1

> <r_epik_Ionization_Penalty>
1.17331e-07

> <r_epik_Ionization_Penalty_Charging>
1.57223e-10

> <r_epik_Ionization_Penalty_Neutral>
1.17174e-07

> <r_epik_State_Penalty>
-0

> <r_epik_Charging_Adjusted_Penalty>
1.57223e-10

> <i_epik_Tot_Q>
0

> <i_epik_Tot_abs_Q>
0

> <r_epik_Metal_State_Penalty>
-0

> <b_epik_Metal_Only>
0

> <s_lp_Force_Field>
OPLS_2005

> <r_lp_Energy>
32.4142

> <b_lp_Chiralities_Consistent>
1

> <s_lp_Variant>
AV-unprocessed.smi:444-2

> <Gold.Version>
5.8.1

> <Gold.Id.Protein>
6NUR|6NUR_protein|mol2

> <Gold.PLP.Fitness>
47.2758

> <Gold.PLP.PLP>
-42.3275

> <Gold.PLP.part.hbond>
-3.0000

> <Gold.PLP.part.metal>
0.0000

> <Gold.PLP.part.buried>
-6.3190

> <Gold.PLP.part.nonpolar>
-33.3271

> <Gold.PLP.part.repulsive>
0.0562

> <Gold.PLP.ligand.clash>
0.0000

> <Gold.PLP.ligand.torsion>
1.2237

> <Gold.PLP.Chemscore.Hbond>
2.4483

> <Gold.PLP.Chemscore.CHOScore>
0.0000

> <Gold.PLP.Chemscore.Metal>
0.0000

> <Gold.Chemscore.Hbonds>
donor molecule, donor type, donor heavy atom, donor atom, acceptor molecule, acceptor atom, score
      P1  H  6931  6943       L1    21  0.43
      P1  H  6934  6947       L1    21  0.96
      P1  H  7989  7998       L1    11  0.93

> <Gold.PLP.Chemscore.Internal.Correction>
0.0507

> <Gold.Rescore>
     Score         DG    S(hbond)    S(metal)    S(lipo)     H(rot)  DE(clash)    DE(int)     intcor
     17.67     -21.70       2.36        0.00     121.29       2.29       0.14       3.89       ----

> <Gold.Chemscore.Fitness>
17.6689

> <Gold.Chemscore.DG>
-21.6960

> <Gold.Chemscore.ZeroCoef>
-5.4800

> <Gold.Chemscore.Hbond>
2.3619

> <Gold.Chemscore.Metal>
0.0000

> <Gold.Chemscore.Lipo>
121.2900

> <Gold.Chemscore.Internal_Hbond>
0.0000

> <Gold.Chemscore.DEClash>
0.1390

> <Gold.Chemscore.DEInternal>
3.8881

> <Gold.Chemscore.Rot>
2.2905

> <Gold.Chemscore.Internal.Correction>
   9.000000E+99

> <Gold.Chemscore.Hbonds>
donor molecule, donor type, donor heavy atom, donor atom, acceptor molecule, acceptor atom, score
      P1  H  6931  6943       L1    21  0.22
      P1  H  6934  6947       L1    21  0.88
      P1  H  7989  7998       L1    11  0.90

> <Gold.Chemscore.Hbond.Weighted>
-7.8887

> <Gold.Chemscore.Metal.Weighted>
-0.0000

> <Gold.Chemscore.Lipo.Weighted>
-14.1909

> <Gold.Chemscore.Internal_Hbond.Weighted>
0.0000

> <Gold.Chemscore.DEClash.Weighted>
0.1390

> <Gold.Chemscore.DEInternal.Weighted>
3.8881

> <Gold.Chemscore.Rot.Weighted>
5.8636

> <Gold.Chemscore.Internal.Correction.Weighted>
   9.000000E+99

> <Gold.Protein.RotatedTorsions>
[ 6907 6896 6895 6894 ] final  -85.11 input  -60.11 | X-H torsion
[ 7974 7965 7964 7962 ] final  136.30 input  175.53 | X-H torsion
[ 8008 7997 7996 7995 ] final  -72.43 input   59.86 | X-H torsion
[ 10167 10162 10161 10158 ] final  -60.54 input  -65.29 | X-H torsion
[ 10718 10713 10712 10709 ] final    0.79 input   66.30 | X-H torsion
[ 10763 10752 10751 10750 ] final  -38.56 input  -60.55 | X-H torsion
[ 11005 11000 10999 10996 ] final  -24.48 input  -57.11 | X-H torsion

> <Gold.Protein.ActiveResidues>
 VAL166  LYS551  ARG553  GLY616  TRP617  ASP618  TYR619  PRO620  LYS621  CYS622 
 ASP623  PHE694  ASN695  SER759  ASP760  ASP761  ALA762  ILE779  LEU786  VAL792 
 PHE793  MET794  SER795  GLU796  ALA797  LYS798  CYS799  TRP800  GLU811  SER814 

> <Gold.Protein.RotatedAtoms>
  150.6872  134.3256  159.4804 H   0  0  0  0  0  0  0  0  0  0  0  0  # atno 6907 bound_to 6896
  152.1126  134.9261  160.0575 H   0  0  0  0  0  0  0  0  0  0  0  0  # atno 6908 bound_to 6896
  152.0497  133.3979  159.4409 H   0  0  0  0  0  0  0  0  0  0  0  0  # atno 6909 bound_to 6896
  144.9578  139.4745  143.5494 H   0  0  0  0  0  0  0  0  0  0  0  0  # atno 7974 bound_to 7965
  154.5166  140.0797  156.8092 H   0  0  0  0  0  0  0  0  0  0  0  0  # atno 8008 bound_to 7997
  155.3668  140.3421  155.4224 H   0  0  0  0  0  0  0  0  0  0  0  0  # atno 8009 bound_to 7997
  156.1634  140.1596  156.8560 H   0  0  0  0  0  0  0  0  0  0  0  0  # atno 8010 bound_to 7997
  140.6065  143.2375  151.5810 H   0  0  0  0  0  0  0  0  0  0  0  0  # atno 10167 bound_to 10162
  156.8387  130.5513  149.5680 H   0  0  0  0  0  0  0  0  0  0  0  0  # atno 10718 bound_to 10713
  153.9148  135.6788  153.4749 H   0  0  0  0  0  0  0  0  0  0  0  0  # atno 10763 bound_to 10752
  153.1059  135.4805  154.8948 H   0  0  0  0  0  0  0  0  0  0  0  0  # atno 10764 bound_to 10752
  154.7508  135.3184  154.8516 H   0  0  0  0  0  0  0  0  0  0  0  0  # atno 10765 bound_to 10752
  140.8849  133.7628  156.0348 H   0  0  0  0  0  0  0  0  0  0  0  0  # atno 11005 bound_to 11000
  146.3343  139.8707  142.8840 LP  0  0  0  0  0  0  0  0  0  0  0  0  # atno 17320 bound_to 7965
  145.2746  141.0119  143.3752 LP  0  0  0  0  0  0  0  0  0  0  0  0  # atno 17321 bound_to 7965
  139.5328  144.2865  152.1187 LP  0  0  0  0  0  0  0  0  0  0  0  0  # atno 17342 bound_to 10162
  140.2056  144.4614  150.6410 LP  0  0  0  0  0  0  0  0  0  0  0  0  # atno 17343 bound_to 10162
  156.0893  130.5883  150.9704 LP  0  0  0  0  0  0  0  0  0  0  0  0  # atno 17370 bound_to 10713
  157.6368  131.0915  150.8333 LP  0  0  0  0  0  0  0  0  0  0  0  0  # atno 17371 bound_to 10713
  140.8417  134.3059  157.5311 LP  0  0  0  0  0  0  0  0  0  0  0  0  # atno 17394 bound_to 11000
  139.8723  134.9419  156.3811 LP  0  0  0  0  0  0  0  0  0  0  0  0  # atno 17395 bound_to 11000

$$$$
