AV-unprocessed.smi:1754|AV-procd|sdf|7068|dock4
  -GOLD-   22720 8283D 1   1.00000     0.00000
 Structure written by MMmdl.
 44 45  0  0  0  0  0  0  0  0  3 V2000
  144.5237  131.9683  149.9771 C   0  0  0  0  0  0  0  0  0  0  0  0
  145.9150  131.9060  150.6263 C   0  0  0  0  0  0  0  0  0  0  0  0
  146.1735  133.0309  151.5248 N   0  0  0  0  0  0  0  0  0  0  0  0
  146.1419  134.3720  150.9364 C   0  0  0  0  0  0  0  0  0  0  0  0
  144.8242  135.1165  151.2055 C   0  0  0  0  0  0  0  0  0  0  0  0
  147.0932  132.7672  152.5655 C   0  0  0  0  0  0  0  0  0  0  0  0
  147.1732  131.5040  153.1989 C   0  0  0  0  0  0  0  0  0  0  0  0
  148.1205  131.2895  154.2205 C   0  0  0  0  0  0  0  0  0  0  0  0
  148.9926  132.3316  154.5955 C   0  0  0  0  0  0  0  0  0  0  0  0
  149.9174  132.0802  155.6433 N   0  0  0  0  0  0  0  0  0  0  0  0
  150.5934  132.9632  156.4196 C   0  0  0  0  0  0  0  0  0  0  0  0
  150.4871  134.1656  156.1833 O   0  0  0  0  0  0  0  0  0  0  0  0
  151.3972  132.5056  157.4275 N   0  5  0  0  0  0  0  0  0  0  0  0
  152.5006  131.5340  157.3636 C   0  0  2  0  0  0  0  0  0  0  0  0
  153.8154  132.1444  157.8917 C   0  0  0  0  0  0  0  0  0  0  0  0
  154.9810  131.2363  157.4749 C   0  0  0  0  0  0  0  0  0  0  0  0
  154.4854  130.4920  155.8725 S   0  0  0  0  0  0  0  0  0  0  0  0
  155.1964  131.1667  154.7755 O   0  0  0  0  0  0  0  0  0  0  0  0
  154.5140  129.0262  155.9987 O   0  0  0  0  0  0  0  0  0  0  0  0
  152.7480  131.0838  155.9174 C   0  0  0  0  0  0  0  0  0  0  0  0
  148.8636  133.5812  153.9460 C   0  0  0  0  0  0  0  0  0  0  0  0
  147.9402  133.7438  152.9744 N   0  3  0  0  0  0  0  0  0  0  0  0
  144.3632  131.1062  149.3296 H   0  0  0  0  0  0  0  0  0  0  0  0
  144.4077  132.8645  149.3669 H   0  0  0  0  0  0  0  0  0  0  0  0
  143.7326  131.9682  150.7273 H   0  0  0  0  0  0  0  0  0  0  0  0
  146.0023  130.9816  151.1979 H   0  0  0  0  0  0  0  0  0  0  0  0
  146.6806  131.8406  149.8544 H   0  0  0  0  0  0  0  0  0  0  0  0
  146.9871  134.9573  151.3006 H   0  0  0  0  0  0  0  0  0  0  0  0
  146.2794  134.2886  149.8577 H   0  0  0  0  0  0  0  0  0  0  0  0
  144.8280  136.0901  150.7151 H   0  0  0  0  0  0  0  0  0  0  0  0
  144.6552  135.2881  152.2684 H   0  0  0  0  0  0  0  0  0  0  0  0
  143.9728  134.5562  150.8182 H   0  0  0  0  0  0  0  0  0  0  0  0
  146.5089  130.6988  152.9232 H   0  0  0  0  0  0  0  0  0  0  0  0
  148.1778  130.3274  154.7086 H   0  0  0  0  0  0  0  0  0  0  0  0
  150.1374  131.1085  155.8054 H   0  0  0  0  0  0  0  0  0  0  0  0
  152.2888  130.6405  157.9534 H   0  0  0  0  0  0  0  0  0  0  0  0
  153.9633  133.1283  157.4436 H   0  0  0  0  0  0  0  0  0  0  0  0
  153.7914  132.2885  158.9722 H   0  0  0  0  0  0  0  0  0  0  0  0
  155.9186  131.7804  157.3618 H   0  0  0  0  0  0  0  0  0  0  0  0
  155.1336  130.4296  158.1934 H   0  0  0  0  0  0  0  0  0  0  0  0
  152.0701  130.2936  155.5953 H   0  0  0  0  0  0  0  0  0  0  0  0
  152.6644  131.9201  155.2222 H   0  0  0  0  0  0  0  0  0  0  0  0
  149.4508  134.4592  154.1711 H   0  0  0  0  0  0  0  0  0  0  0  0
  147.8781  134.6564  152.5233 H   0  0  0  0  0  0  0  0  0  0  0  0
  1  2  1  0  0  0  0
  1 23  1  0  0  0  0
  1 24  1  0  0  0  0
  1 25  1  0  0  0  0
  2  3  1  0  0  0  0
  2 26  1  0  0  0  0
  2 27  1  0  0  0  0
  3  4  1  0  0  0  0
  3  6  1  0  0  0  0
  4  5  1  0  0  0  0
  4 28  1  0  0  0  0
  4 29  1  0  0  0  0
  5 30  1  0  0  0  0
  5 31  1  0  0  0  0
  5 32  1  0  0  0  0
  6 22  1  0  0  0  0
  6  7  2  0  0  0  0
  7  8  1  0  0  0  0
  7 33  1  0  0  0  0
  8  9  2  0  0  0  0
  8 34  1  0  0  0  0
  9 10  1  0  0  0  0
  9 21  1  0  0  0  0
 10 11  1  0  0  0  0
 10 35  1  0  0  0  0
 11 12  2  0  0  0  0
 11 13  1  0  0  0  0
 13 14  1  0  0  0  0
 14 20  1  0  0  0  0
 14 15  1  0  0  0  0
 14 36  1  0  0  0  0
 15 16  1  0  0  0  0
 15 37  1  0  0  0  0
 15 38  1  0  0  0  0
 16 17  1  0  0  0  0
 16 39  1  0  0  0  0
 16 40  1  0  0  0  0
 17 18  2  0  0  0  0
 17 19  2  0  0  0  0
 17 20  1  0  0  0  0
 20 41  1  0  0  0  0
 20 42  1  0  0  0  0
 21 22  2  0  0  0  0
 21 43  1  0  0  0  0
 22 44  1  0  0  0  0
M  CHG  1  13  -1
M  CHG  1  22   1
M  END
> <s_m_source_file>
AV-unprocessed.smi

> <i_m_source_file_index>
1754

> <i_lp_mmshare_version>
43012

> <i_f3d_flags>
0

> <s_epik_input>
W0NIM11bQ0gyXU4oW0NIMl1bQ0gzXSljMVtjSF1bY0hdYyhbY0hdbjEpW05IXUMoPU8pW05IXVtDQEBIXShbQ0gyXTIpW0NIMl1bQ0gyXVMyKD1PKT1P

> <s_epik_cmdline>
J2VwaWtfcHl0aG9uJywgJy1waCcsICc3LjAnLCAnLXRuJywgJzgnLCAnLW1hJywgJzIwMCcsICctbWV0YWxfYmluZGluZycsICctaW1hZScsICc8aW5maWxlLm1hZT4nLCAnLW9tYWUnLCAnPG91dGZpbGUubWFlPic=

> <r_lp_tautomer_probability>
0.999994

> <r_epik_Ionization_Penalty>
7.1175

> <r_epik_Ionization_Penalty_Charging>
7.11749

> <r_epik_Ionization_Penalty_Neutral>
3.13064e-06

> <r_epik_State_Penalty>
6.65299

> <r_epik_Charging_Adjusted_Penalty>
13.7705

> <i_epik_Tot_Q>
0

> <i_epik_Tot_abs_Q>
2

> <r_epik_Metal_State_Penalty>
2.60496

> <b_epik_Metal_Only>
1

> <s_lp_Force_Field>
OPLS_2005

> <r_lp_Energy>
20.9126

> <b_lp_Chiralities_Consistent>
1

> <s_lp_Variant>
AV-unprocessed.smi:1754-5

> <Gold.Version>
5.8.1

> <Gold.Id.Protein>
6NUR|6NUR_protein|mol2

> <Gold.PLP.Fitness>
44.1155

> <Gold.PLP.PLP>
-33.5164

> <Gold.PLP.part.hbond>
-2.0000

> <Gold.PLP.part.metal>
0.0000

> <Gold.PLP.part.buried>
-5.6407

> <Gold.PLP.part.nonpolar>
-26.7330

> <Gold.PLP.part.repulsive>
0.0027

> <Gold.PLP.ligand.clash>
0.0000

> <Gold.PLP.ligand.torsion>
1.1692

> <Gold.PLP.Chemscore.Hbond>
4.0000

> <Gold.PLP.Chemscore.CHOScore>
0.0000

> <Gold.PLP.Chemscore.Metal>
0.0000

> <Gold.Chemscore.Hbonds>
donor molecule, donor type, donor heavy atom, donor atom, acceptor molecule, acceptor atom, score
      L1  H    22    44       P1  7948  1.73
      P1  H  6896  6908       L1    13  2.00

> <Gold.PLP.Chemscore.Internal.Correction>
0.9374

> <Gold.Rescore>
     Score         DG    S(hbond)    S(metal)    S(lipo)     H(rot)  DE(clash)    DE(int)     intcor
     11.46     -14.34       1.59        0.00      60.76       1.39       0.02       2.85       ----

> <Gold.Chemscore.Fitness>
11.4642

> <Gold.Chemscore.DG>
-14.3355

> <Gold.Chemscore.ZeroCoef>
-5.4800

> <Gold.Chemscore.Hbond>
1.5867

> <Gold.Chemscore.Metal>
0.0000

> <Gold.Chemscore.Lipo>
60.7553

> <Gold.Chemscore.Internal_Hbond>
0.0000

> <Gold.Chemscore.DEClash>
0.0231

> <Gold.Chemscore.DEInternal>
2.8481

> <Gold.Chemscore.Rot>
1.3876

> <Gold.Chemscore.Internal.Correction>
   9.000000E+99

> <Gold.Chemscore.Hbonds>
donor molecule, donor type, donor heavy atom, donor atom, acceptor molecule, acceptor atom, score
      L1  H    22    44       P1  7948  0.58
      P1  H  6896  6908       L1    13  0.48

> <Gold.Chemscore.Hbond.Weighted>
-5.2995

> <Gold.Chemscore.Metal.Weighted>
-0.0000

> <Gold.Chemscore.Lipo.Weighted>
-7.1084

> <Gold.Chemscore.Internal_Hbond.Weighted>
0.0000

> <Gold.Chemscore.DEClash.Weighted>
0.0231

> <Gold.Chemscore.DEInternal.Weighted>
2.8481

> <Gold.Chemscore.Rot.Weighted>
3.5524

> <Gold.Chemscore.Internal.Correction.Weighted>
   9.000000E+99

> <Gold.Protein.RotatedTorsions>
[ 6907 6896 6895 6894 ] final   67.23 input  -60.11 | X-H torsion
[ 7974 7965 7964 7962 ] final -101.58 input  175.53 | X-H torsion
[ 8008 7997 7996 7995 ] final   65.53 input   59.86 | X-H torsion
[ 10167 10162 10161 10158 ] final  123.32 input  -65.29 | X-H torsion
[ 10718 10713 10712 10709 ] final  -43.10 input   66.30 | X-H torsion
[ 10763 10752 10751 10750 ] final   44.61 input  -60.55 | X-H torsion
[ 11005 11000 10999 10996 ] final   37.27 input  -57.11 | X-H torsion

> <Gold.Protein.ActiveResidues>
 VAL166  LYS551  ARG553  GLY616  TRP617  ASP618  TYR619  PRO620  LYS621  CYS622 
 ASP623  PHE694  ASN695  SER759  ASP760  ASP761  ALA762  ILE779  LEU786  VAL792 
 PHE793  MET794  SER795  GLU796  ALA797  LYS798  CYS799  TRP800  GLU811  SER814 

> <Gold.Protein.RotatedAtoms>
  152.4537  134.5338  159.9818 H   0  0  0  0  0  0  0  0  0  0  0  0  # atno 6907 bound_to 6896
  151.5404  133.3428  159.2942 H   0  0  0  0  0  0  0  0  0  0  0  0  # atno 6908 bound_to 6896
  150.8474  134.7819  159.7044 H   0  0  0  0  0  0  0  0  0  0  0  0  # atno 6909 bound_to 6896
  145.2798  140.9323  143.2938 H   0  0  0  0  0  0  0  0  0  0  0  0  # atno 7974 bound_to 7965
  155.6632  140.3497  155.4790 H   0  0  0  0  0  0  0  0  0  0  0  0  # atno 8008 bound_to 7997
  155.9751  140.1163  157.0801 H   0  0  0  0  0  0  0  0  0  0  0  0  # atno 8009 bound_to 7997
  154.4176  140.1149  156.5345 H   0  0  0  0  0  0  0  0  0  0  0  0  # atno 8010 bound_to 7997
  139.5806  144.6984  151.3538 H   0  0  0  0  0  0  0  0  0  0  0  0  # atno 10167 bound_to 10162
  156.2526  130.4189  149.8632 H   0  0  0  0  0  0  0  0  0  0  0  0  # atno 10718 bound_to 10713
  152.9838  135.6065  154.3302 H   0  0  0  0  0  0  0  0  0  0  0  0  # atno 10763 bound_to 10752
  154.3006  135.2773  155.2614 H   0  0  0  0  0  0  0  0  0  0  0  0  # atno 10764 bound_to 10752
  154.4868  135.5902  153.6486 H   0  0  0  0  0  0  0  0  0  0  0  0  # atno 10765 bound_to 10752
  140.2242  134.3604  155.7991 H   0  0  0  0  0  0  0  0  0  0  0  0  # atno 11005 bound_to 11000
  144.9263  139.4351  143.6517 LP  0  0  0  0  0  0  0  0  0  0  0  0  # atno 17320 bound_to 7965
  146.3220  139.8150  142.8938 LP  0  0  0  0  0  0  0  0  0  0  0  0  # atno 17321 bound_to 7965
  140.7084  143.7453  150.7523 LP  0  0  0  0  0  0  0  0  0  0  0  0  # atno 17342 bound_to 10162
  140.0984  143.4811  152.2439 LP  0  0  0  0  0  0  0  0  0  0  0  0  # atno 17343 bound_to 10162
  156.6176  130.8612  151.3468 LP  0  0  0  0  0  0  0  0  0  0  0  0  # atno 17370 bound_to 10713
  157.7220  130.9571  150.1478 LP  0  0  0  0  0  0  0  0  0  0  0  0  # atno 17371 bound_to 10713
  141.2221  133.7210  156.8626 LP  0  0  0  0  0  0  0  0  0  0  0  0  # atno 17394 bound_to 11000
  140.1817  134.9028  157.2956 LP  0  0  0  0  0  0  0  0  0  0  0  0  # atno 17395 bound_to 11000

$$$$
