AV-unprocessed.smi:47|AV-procd|sdf|433|dock1
  -GOLD-   2262016303D 1   1.00000     0.00000
 Structure written by MMmdl.
 32 34  0  0  0  0  0  0  0  0  2 V2000
  146.4133  139.9295  153.1963 O   0  0  0  0  0  0  0  0  0  0  0  0
  147.3541  140.9374  153.4993 C   0  0  1  0  0  0  0  0  0  0  0  0
  146.9141  141.8028  154.6857 C   0  0  0  0  0  0  0  0  0  0  0  0
  148.1551  142.2563  155.3460 N   0  3  0  0  0  0  0  0  0  0  0  0
  149.2926  141.5294  154.7435 C   0  0  1  0  0  0  0  0  0  0  0  0
  150.1699  141.1364  155.8949 C   0  0  0  0  0  0  0  0  0  0  0  0
  150.5276  139.8649  156.1038 N   0  0  0  0  0  0  0  0  0  0  0  0
  151.3019  139.7889  157.2073 N   0  0  0  0  0  0  0  0  0  0  0  0
  151.3468  141.0632  157.5921 C   0  0  0  0  0  0  0  0  0  0  0  0
  152.1003  141.4896  158.7947 C   0  0  0  0  0  0  0  0  0  0  0  0
  151.9960  142.8122  159.2907 C   0  0  0  0  0  0  0  0  0  0  0  0
  152.7108  143.2216  160.4331 C   0  0  0  0  0  0  0  0  0  0  0  0
  153.5472  142.3122  161.1040 C   0  0  0  0  0  0  0  0  0  0  0  0
  153.6647  140.9942  160.6287 C   0  0  0  0  0  0  0  0  0  0  0  0
  152.9479  140.5895  159.4859 C   0  0  0  0  0  0  0  0  0  0  0  0
  150.6617  141.9599  156.8195 N   0  0  0  0  0  0  0  0  0  0  0  0
  148.6875  140.3598  153.9638 C   0  0  0  0  0  0  0  0  0  0  0  0
  147.5109  141.5656  152.6212 H   0  0  0  0  0  0  0  0  0  0  0  0
  149.8225  142.2057  154.0709 H   0  0  0  0  0  0  0  0  0  0  0  0
  145.5992  140.3387  152.9446 H   0  0  0  0  0  0  0  0  0  0  0  0
  146.2898  142.6428  154.3805 H   0  0  0  0  0  0  0  0  0  0  0  0
  146.3512  141.2104  155.4087 H   0  0  0  0  0  0  0  0  0  0  0  0
  148.2810  143.2512  155.2280 H   0  0  0  0  0  0  0  0  0  0  0  0
  151.3609  143.5333  158.7977 H   0  0  0  0  0  0  0  0  0  0  0  0
  152.6164  144.2350  160.7945 H   0  0  0  0  0  0  0  0  0  0  0  0
  154.0962  142.6241  161.9805 H   0  0  0  0  0  0  0  0  0  0  0  0
  154.3052  140.2912  161.1404 H   0  0  0  0  0  0  0  0  0  0  0  0
  153.0591  139.5707  159.1445 H   0  0  0  0  0  0  0  0  0  0  0  0
  148.5051  139.5171  154.6338 H   0  0  0  0  0  0  0  0  0  0  0  0
  149.3234  140.0106  153.1498 H   0  0  0  0  0  0  0  0  0  0  0  0
  148.1025  142.0330  156.3300 H   0  0  0  0  0  0  0  0  0  0  0  0
  150.2791  139.0565  155.5509 H   0  0  0  0  0  0  0  0  0  0  0  0
  1  2  1  0  0  0  0
  1 20  1  0  0  0  0
  2 18  1  0  0  0  0
  2 17  1  0  0  0  0
  2  3  1  0  0  0  0
  3  4  1  0  0  0  0
  3 21  1  0  0  0  0
  3 22  1  0  0  0  0
  4  5  1  0  0  0  0
  4 23  1  0  0  0  0
  4 31  1  0  0  0  0
  5 19  1  0  0  0  0
  5  6  1  0  0  0  0
  5 17  1  0  0  0  0
  6 16  2  0  0  0  0
  6  7  1  0  0  0  0
  7  8  1  0  0  0  0
  7 32  1  0  0  0  0
  8  9  2  0  0  0  0
  9 10  1  0  0  0  0
  9 16  1  0  0  0  0
 10 15  1  0  0  0  0
 10 11  2  0  0  0  0
 11 12  1  0  0  0  0
 11 24  1  0  0  0  0
 12 13  2  0  0  0  0
 12 25  1  0  0  0  0
 13 14  1  0  0  0  0
 13 26  1  0  0  0  0
 14 15  2  0  0  0  0
 14 27  1  0  0  0  0
 15 28  1  0  0  0  0
 17 29  1  0  0  0  0
 17 30  1  0  0  0  0
M  CHG  1   4   1
M  END
> <s_m_source_file>
AV-unprocessed.smi

> <i_m_source_file_index>
47

> <i_lp_mmshare_version>
43012

> <i_f3d_flags>
0

> <s_epik_input>
W09IXVtDQEhdMVtDSDJdW05IXVtDQEBIXShbQ0gyXTEpYzJuW25IXWMobjIpLWMzW2NIXVtjSF1bY0hdW2NIXVtjSF0z

> <s_epik_cmdline>
J2VwaWtfcHl0aG9uJywgJy1waCcsICc3LjAnLCAnLXRuJywgJzgnLCAnLW1hJywgJzIwMCcsICctbWV0YWxfYmluZGluZycsICctaW1hZScsICc8aW5maWxlLm1hZT4nLCAnLW9tYWUnLCAnPG91dGZpbGUubWFlPic=

> <r_epik_Ionization_Penalty>
1.14296

> <r_epik_Ionization_Penalty_Charging>
0.0688988

> <r_epik_Ionization_Penalty_Neutral>
1.07406

> <r_epik_State_Penalty>
1.72347

> <r_epik_Charging_Adjusted_Penalty>
1.79237

> <i_epik_Tot_Q>
1

> <i_epik_Tot_abs_Q>
1

> <r_epik_Metal_State_Penalty>
2.22085

> <b_epik_Metal_Only>
0

> <s_lp_Force_Field>
OPLS_2005

> <r_lp_Energy>
30.8137

> <b_lp_Chiralities_Consistent>
1

> <s_lp_Variant>
AV-unprocessed.smi:47-11

> <Gold.Version>
5.8.1

> <Gold.Id.Protein>
6NUR|6NUR_protein|mol2

> <Gold.PLP.Fitness>
44.8639

> <Gold.PLP.PLP>
-36.1270

> <Gold.PLP.part.hbond>
-1.9494

> <Gold.PLP.part.metal>
0.0000

> <Gold.PLP.part.buried>
-3.9796

> <Gold.PLP.part.nonpolar>
-31.2883

> <Gold.PLP.part.repulsive>
0.2754

> <Gold.PLP.ligand.clash>
0.0000

> <Gold.PLP.ligand.torsion>
0.1385

> <Gold.PLP.Chemscore.Hbond>
3.0000

> <Gold.PLP.Chemscore.CHOScore>
0.0000

> <Gold.PLP.Chemscore.Metal>
0.0000

> <Gold.Chemscore.Hbonds>
donor molecule, donor type, donor heavy atom, donor atom, acceptor molecule, acceptor atom, score
      L1  H     1    20       P1 10175  1.00
      L1  H     4    23       P1  8028  2.00

> <Gold.PLP.Chemscore.Internal.Correction>
0.0139

> <Gold.Rescore>
     Score         DG    S(hbond)    S(metal)    S(lipo)     H(rot)  DE(clash)    DE(int)     intcor
     18.14     -18.22       1.91        0.00      87.25       1.50       0.00       0.08       ----

> <Gold.Chemscore.Fitness>
18.1387

> <Gold.Chemscore.DG>
-18.2246

> <Gold.Chemscore.ZeroCoef>
-5.4800

> <Gold.Chemscore.Hbond>
1.9066

> <Gold.Chemscore.Metal>
0.0000

> <Gold.Chemscore.Lipo>
87.2465

> <Gold.Chemscore.Internal_Hbond>
0.0000

> <Gold.Chemscore.DEClash>
0.0038

> <Gold.Chemscore.DEInternal>
0.0821

> <Gold.Chemscore.Rot>
1.4966

> <Gold.Chemscore.Internal.Correction>
   9.000000E+99

> <Gold.Chemscore.Hbonds>
donor molecule, donor type, donor heavy atom, donor atom, acceptor molecule, acceptor atom, score
      L1  H     1    20       P1 10175  0.90
      L1  H     4    23       P1  8028  0.94

> <Gold.Chemscore.Hbond.Weighted>
-6.3680

> <Gold.Chemscore.Metal.Weighted>
-0.0000

> <Gold.Chemscore.Lipo.Weighted>
-10.2078

> <Gold.Chemscore.Internal_Hbond.Weighted>
0.0000

> <Gold.Chemscore.DEClash.Weighted>
0.0038

> <Gold.Chemscore.DEInternal.Weighted>
0.0821

> <Gold.Chemscore.Rot.Weighted>
3.8312

> <Gold.Chemscore.Internal.Correction.Weighted>
   9.000000E+99

> <Gold.Protein.RotatedTorsions>
[ 6907 6896 6895 6894 ] final -112.92 input  -60.11 | X-H torsion
[ 7974 7965 7964 7962 ] final  111.32 input  175.53 | X-H torsion
[ 8008 7997 7996 7995 ] final -110.50 input   59.86 | X-H torsion
[ 10167 10162 10161 10158 ] final  115.35 input  -65.29 | X-H torsion
[ 10718 10713 10712 10709 ] final -130.08 input   66.30 | X-H torsion
[ 10763 10752 10751 10750 ] final -150.39 input  -60.55 | X-H torsion
[ 11005 11000 10999 10996 ] final  125.74 input  -57.11 | X-H torsion

> <Gold.Protein.ActiveResidues>
 VAL166  LYS551  ARG553  GLY616  TRP617  ASP618  TYR619  PRO620  LYS621  CYS622 
 ASP623  PHE694  ASN695  SER759  ASP760  ASP761  ALA762  ILE779  LEU786  VAL792 
 PHE793  MET794  SER795  GLU796  ALA797  LYS798  CYS799  TRP800  GLU811  SER814 

> <Gold.Protein.RotatedAtoms>
  150.7792  133.9020  159.3343 H   0  0  0  0  0  0  0  0  0  0  0  0  # atno 6907 bound_to 6896
  151.6887  135.0948  160.0239 H   0  0  0  0  0  0  0  0  0  0  0  0  # atno 6908 bound_to 6896
  152.3838  133.6544  159.6218 H   0  0  0  0  0  0  0  0  0  0  0  0  # atno 6909 bound_to 6896
  145.2437  139.2768  143.4104 H   0  0  0  0  0  0  0  0  0  0  0  0  # atno 7974 bound_to 7965
  154.9754  140.0397  157.2253 H   0  0  0  0  0  0  0  0  0  0  0  0  # atno 8008 bound_to 7997
  154.7762  140.2811  155.6076 H   0  0  0  0  0  0  0  0  0  0  0  0  # atno 8009 bound_to 7997
  156.2929  140.2600  156.2577 H   0  0  0  0  0  0  0  0  0  0  0  0  # atno 8010 bound_to 7997
  139.6323  144.7116  151.2405 H   0  0  0  0  0  0  0  0  0  0  0  0  # atno 10167 bound_to 10162
  156.2110  130.6918  151.0649 H   0  0  0  0  0  0  0  0  0  0  0  0  # atno 10718 bound_to 10713
  154.8121  135.3285  154.7276 H   0  0  0  0  0  0  0  0  0  0  0  0  # atno 10763 bound_to 10752
  153.7923  135.6910  153.4874 H   0  0  0  0  0  0  0  0  0  0  0  0  # atno 10764 bound_to 10752
  153.1908  135.4551  155.0094 H   0  0  0  0  0  0  0  0  0  0  0  0  # atno 10765 bound_to 10752
  139.9421  134.9634  156.8603 H   0  0  0  0  0  0  0  0  0  0  0  0  # atno 11005 bound_to 11000
  146.3321  140.2807  142.8610 LP  0  0  0  0  0  0  0  0  0  0  0  0  # atno 17320 bound_to 7965
  144.9566  140.8233  143.5539 LP  0  0  0  0  0  0  0  0  0  0  0  0  # atno 17321 bound_to 7965
  140.7446  143.6457  150.8294 LP  0  0  0  0  0  0  0  0  0  0  0  0  # atno 17342 bound_to 10162
  140.0084  143.5669  152.2848 LP  0  0  0  0  0  0  0  0  0  0  0  0  # atno 17343 bound_to 10162
  157.7038  131.0765  150.6734 LP  0  0  0  0  0  0  0  0  0  0  0  0  # atno 17370 bound_to 10713
  156.6794  130.4562  149.5632 LP  0  0  0  0  0  0  0  0  0  0  0  0  # atno 17371 bound_to 10713
  140.5925  134.0248  155.7505 LP  0  0  0  0  0  0  0  0  0  0  0  0  # atno 17394 bound_to 11000
  141.1059  133.9694  157.2997 LP  0  0  0  0  0  0  0  0  0  0  0  0  # atno 17395 bound_to 11000

$$$$
