AV-unprocessed.smi:249|AV-procd|sdf|1925|dock8
  -GOLD-   2262021 33D 1   1.00000     0.00000
 Structure written by MMmdl.
 64 67  0  0  0  0  0  0  0  0  2 V2000
  152.5035  144.4250  159.0134 C   0  0  0  0  0  0  0  0  0  0  0  0
  151.5652  144.6081  157.8066 C   0  0  0  0  0  0  0  0  0  0  0  0
  150.6933  143.4332  157.5224 N   0  3  1  0  0  0  0  0  0  0  0  0
  151.4109  142.3681  156.7707 C   0  0  0  0  0  0  0  0  0  0  0  0
  150.4414  141.2973  156.2524 C   0  0  0  0  0  0  0  0  0  0  0  0
  149.6399  140.6926  157.4206 C   0  0  2  0  0  0  0  0  0  0  0  0
  148.7599  139.5824  157.0276 N   0  0  0  0  0  0  0  0  0  0  0  0
  147.3534  139.8861  156.7856 C   0  0  0  0  0  0  0  0  0  0  0  0
  148.9797  138.3001  157.4237 C   0  0  0  0  0  0  0  0  0  0  0  0
  149.0079  137.9841  158.7450 N   0  0  0  0  0  0  0  0  0  0  0  0
  149.2012  136.7217  159.1372 C   0  0  0  0  0  0  0  0  0  0  0  0
  149.3793  135.6338  158.3867 N   0  0  0  0  0  0  0  0  0  0  0  0
  149.3461  135.9397  157.0586 C   0  0  0  0  0  0  0  0  0  0  0  0
  149.1564  137.2339  156.4961 C   0  0  0  0  0  0  0  0  0  0  0  0
  149.2009  137.1557  155.1090 N   0  0  0  0  0  0  0  0  0  0  0  0
  149.3979  135.8890  154.8655 C   0  0  0  0  0  0  0  0  0  0  0  0
  149.4752  135.0833  155.9792 N   0  0  0  0  0  0  0  0  0  0  0  0
  149.6952  133.6477  155.9983 C   0  0  0  0  0  0  0  0  0  0  0  0
  149.8319  132.9860  154.5981 C   0  0  2  0  0  0  0  0  0  0  0  0
  148.4747  133.0803  153.8598 C   0  0  0  0  0  0  0  0  0  0  0  0
  148.5618  132.5527  152.5518 O   0  0  0  0  0  0  0  0  0  0  0  0
  150.3446  131.5155  154.6626 C   0  0  1  0  0  0  0  0  0  0  0  0
  151.6382  131.3156  155.4393 C   0  0  0  0  0  0  0  0  0  0  0  0
  151.6227  129.8206  155.7199 C   0  0  0  0  0  0  0  0  0  0  0  0
  150.2617  129.5283  155.9921 O   0  0  0  0  0  0  0  0  0  0  0  0
  149.4291  130.5189  155.3958 C   0  0  0  0  0  0  0  0  0  0  0  0
  148.9311  141.8106  158.2121 C   0  0  0  0  0  0  0  0  0  0  0  0
  149.9264  142.8901  158.6878 C   0  0  2  0  0  0  0  0  0  0  0  0
  149.1632  143.9819  159.4636 C   0  0  0  0  0  0  0  0  0  0  0  0
  153.1191  145.3140  159.1517 H   0  0  0  0  0  0  0  0  0  0  0  0
  153.1815  143.5830  158.8780 H   0  0  0  0  0  0  0  0  0  0  0  0
  151.9523  144.2697  159.9405 H   0  0  0  0  0  0  0  0  0  0  0  0
  150.9501  145.4960  157.9488 H   0  0  0  0  0  0  0  0  0  0  0  0
  152.1629  144.8212  156.9195 H   0  0  0  0  0  0  0  0  0  0  0  0
  151.9422  142.8057  155.9248 H   0  0  0  0  0  0  0  0  0  0  0  0
  152.1620  141.9027  157.4097 H   0  0  0  0  0  0  0  0  0  0  0  0
  149.7820  141.7463  155.5108 H   0  0  0  0  0  0  0  0  0  0  0  0
  151.0033  140.5195  155.7347 H   0  0  0  0  0  0  0  0  0  0  0  0
  150.3645  140.2496  158.1057 H   0  0  0  0  0  0  0  0  0  0  0  0
  147.0515  139.5435  155.7957 H   0  0  0  0  0  0  0  0  0  0  0  0
  147.1668  140.9595  156.8317 H   0  0  0  0  0  0  0  0  0  0  0  0
  146.7139  139.4054  157.5275 H   0  0  0  0  0  0  0  0  0  0  0  0
  149.2106  136.5590  160.2047 H   0  0  0  0  0  0  0  0  0  0  0  0
  149.4812  135.5043  153.8594 H   0  0  0  0  0  0  0  0  0  0  0  0
  150.5863  133.4419  156.5928 H   0  0  0  0  0  0  0  0  0  0  0  0
  148.8597  133.2128  156.5474 H   0  0  0  0  0  0  0  0  0  0  0  0
  150.5509  133.5588  154.0112 H   0  0  0  0  0  0  0  0  0  0  0  0
  147.7008  132.5077  154.3689 H   0  0  0  0  0  0  0  0  0  0  0  0
  148.1297  134.1135  153.8116 H   0  0  0  0  0  0  0  0  0  0  0  0
  148.7531  131.6292  152.6120 H   0  0  0  0  0  0  0  0  0  0  0  0
  150.5095  131.1519  153.6471 H   0  0  0  0  0  0  0  0  0  0  0  0
  152.5270  131.6166  154.8841 H   0  0  0  0  0  0  0  0  0  0  0  0
  151.6121  131.8717  156.3778 H   0  0  0  0  0  0  0  0  0  0  0  0
  151.9358  129.2622  154.8366 H   0  0  0  0  0  0  0  0  0  0  0  0
  152.2697  129.5389  156.5510 H   0  0  0  0  0  0  0  0  0  0  0  0
  148.8683  131.0073  156.1934 H   0  0  0  0  0  0  0  0  0  0  0  0
  148.7165  130.0439  154.7227 H   0  0  0  0  0  0  0  0  0  0  0  0
  148.1599  142.2906  157.6107 H   0  0  0  0  0  0  0  0  0  0  0  0
  148.4210  141.3754  159.0728 H   0  0  0  0  0  0  0  0  0  0  0  0
  150.6326  142.4176  159.3724 H   0  0  0  0  0  0  0  0  0  0  0  0
  148.5472  143.5410  160.2479 H   0  0  0  0  0  0  0  0  0  0  0  0
  148.5021  144.5487  158.8070 H   0  0  0  0  0  0  0  0  0  0  0  0
  149.8351  144.6842  159.9561 H   0  0  0  0  0  0  0  0  0  0  0  0
  149.9932  143.7812  156.8828 H   0  0  0  0  0  0  0  0  0  0  0  0
  1  2  1  0  0  0  0
  1 30  1  0  0  0  0
  1 31  1  0  0  0  0
  1 32  1  0  0  0  0
  2  3  1  0  0  0  0
  2 33  1  0  0  0  0
  2 34  1  0  0  0  0
  3 28  1  0  0  0  0
  3  4  1  0  0  0  0
  3 64  1  0  0  0  0
  4  5  1  0  0  0  0
  4 35  1  0  0  0  0
  4 36  1  0  0  0  0
  5  6  1  0  0  0  0
  5 37  1  0  0  0  0
  5 38  1  0  0  0  0
  6  7  1  0  0  0  0
  6 27  1  0  0  0  0
  6 39  1  0  0  0  0
  7  8  1  0  0  0  0
  7  9  1  0  0  0  0
  8 40  1  0  0  0  0
  8 41  1  0  0  0  0
  8 42  1  0  0  0  0
  9 14  1  0  0  0  0
  9 10  2  0  0  0  0
 10 11  1  0  0  0  0
 11 12  2  0  0  0  0
 11 43  1  0  0  0  0
 12 13  1  0  0  0  0
 13 17  1  0  0  0  0
 13 14  2  0  0  0  0
 14 15  1  0  0  0  0
 15 16  2  0  0  0  0
 16 17  1  0  0  0  0
 16 44  1  0  0  0  0
 17 18  1  0  0  0  0
 18 19  1  0  0  0  0
 18 45  1  0  0  0  0
 18 46  1  0  0  0  0
 19 20  1  0  0  0  0
 19 22  1  0  0  0  0
 19 47  1  0  0  0  0
 20 21  1  0  0  0  0
 20 48  1  0  0  0  0
 20 49  1  0  0  0  0
 21 50  1  0  0  0  0
 22 26  1  0  0  0  0
 22 23  1  0  0  0  0
 22 51  1  0  0  0  0
 23 24  1  0  0  0  0
 23 52  1  0  0  0  0
 23 53  1  0  0  0  0
 24 25  1  0  0  0  0
 24 54  1  0  0  0  0
 24 55  1  0  0  0  0
 25 26  1  0  0  0  0
 26 56  1  0  0  0  0
 26 57  1  0  0  0  0
 27 28  1  0  0  0  0
 27 58  1  0  0  0  0
 27 59  1  0  0  0  0
 28 29  1  0  0  0  0
 28 60  1  0  0  0  0
 29 61  1  0  0  0  0
 29 62  1  0  0  0  0
 29 63  1  0  0  0  0
M  CHG  1   3   1
M  END
> <s_m_source_file>
AV-unprocessed.smi

> <i_m_source_file_index>
249

> <i_lp_mmshare_version>
43012

> <i_f3d_flags>
0

> <s_epik_input>
W0NIM11bQ0gyXU4xW0NIMl1bQ0gyXVtDQEhdKFtDSDJdW0NASF0xW0NIM10pTihbQ0gzXSljKG5bY0hdbjIpYyhjMjMpbltjSF1uM1tDSDJdW0NASF0oW0NIMl1bT0hdKVtDQEBIXTRbQ0gyXVtDSDJdT1tDSDJdNA==

> <s_epik_cmdline>
J2VwaWtfcHl0aG9uJywgJy1waCcsICc3LjAnLCAnLXRuJywgJzgnLCAnLW1hJywgJzIwMCcsICctbWV0YWxfYmluZGluZycsICctaW1hZScsICc8aW5maWxlLm1hZT4nLCAnLW9tYWUnLCAnPG91dGZpbGUubWFlPic=

> <r_lp_tautomer_probability>
1

> <r_epik_Ionization_Penalty>
0.00294688

> <r_epik_Ionization_Penalty_Charging>
0.00169971

> <r_epik_Ionization_Penalty_Neutral>
0.00124717

> <r_epik_State_Penalty>
-0

> <r_epik_Charging_Adjusted_Penalty>
0.00169971

> <i_epik_Tot_Q>
1

> <i_epik_Tot_abs_Q>
1

> <r_epik_Metal_State_Penalty>
-0

> <b_epik_Metal_Only>
0

> <s_lp_Force_Field>
OPLS_2005

> <r_lp_Energy>
53.7488

> <b_lp_Chiralities_Consistent>
1

> <s_lp_Variant>
AV-unprocessed.smi:249-28

> <Gold.Version>
5.8.1

> <Gold.Id.Protein>
6NUR|6NUR_protein|mol2

> <Gold.PLP.Fitness>
46.5180

> <Gold.PLP.PLP>
-37.1682

> <Gold.PLP.part.hbond>
-3.2797

> <Gold.PLP.part.metal>
0.0000

> <Gold.PLP.part.buried>
-5.8187

> <Gold.PLP.part.nonpolar>
-27.6499

> <Gold.PLP.part.repulsive>
0.1119

> <Gold.PLP.ligand.clash>
0.0000

> <Gold.PLP.ligand.torsion>
1.8616

> <Gold.PLP.Chemscore.Hbond>
3.0000

> <Gold.PLP.Chemscore.CHOScore>
1.0000

> <Gold.PLP.Chemscore.Metal>
0.0000

> <Gold.Chemscore.Hbonds>
donor molecule, donor type, donor heavy atom, donor atom, acceptor molecule, acceptor atom, score
      L1  H     3    64       P1  8028  2.00
      P1  H  6896  6907       L1    12  0.96
      L1  C    16    44       P1  7948  1.00

> <Gold.PLP.Chemscore.Internal.Correction>
1.0729

> <Gold.Rescore>
     Score         DG    S(hbond)    S(metal)    S(lipo)     H(rot)  DE(clash)    DE(int)     intcor
     13.59     -15.57       1.85        0.00      91.34       2.65       0.12       1.86       ----

> <Gold.Chemscore.Fitness>
13.5921

> <Gold.Chemscore.DG>
-15.5660

> <Gold.Chemscore.ZeroCoef>
-5.4800

> <Gold.Chemscore.Hbond>
1.8526

> <Gold.Chemscore.Metal>
0.0000

> <Gold.Chemscore.Lipo>
91.3364

> <Gold.Chemscore.Internal_Hbond>
0.0000

> <Gold.Chemscore.DEClash>
0.1154

> <Gold.Chemscore.DEInternal>
1.8586

> <Gold.Chemscore.Rot>
2.6515

> <Gold.Chemscore.Internal.Correction>
   9.000000E+99

> <Gold.Chemscore.Hbonds>
donor molecule, donor type, donor heavy atom, donor atom, acceptor molecule, acceptor atom, score
      L1  H     3    64       P1  8028  0.99
      L1  H    21    50       P1 10747  0.01
      P1  H  6896  6907       L1    12  0.41

> <Gold.Chemscore.Hbond.Weighted>
-6.1876

> <Gold.Chemscore.Metal.Weighted>
-0.0000

> <Gold.Chemscore.Lipo.Weighted>
-10.6864

> <Gold.Chemscore.Internal_Hbond.Weighted>
0.0000

> <Gold.Chemscore.DEClash.Weighted>
0.1154

> <Gold.Chemscore.DEInternal.Weighted>
1.8586

> <Gold.Chemscore.Rot.Weighted>
6.7880

> <Gold.Chemscore.Internal.Correction.Weighted>
   9.000000E+99

> <Gold.Protein.RotatedTorsions>
[ 6907 6896 6895 6894 ] final  -77.85 input  -60.11 | X-H torsion
[ 7974 7965 7964 7962 ] final  125.75 input  175.53 | X-H torsion
[ 8008 7997 7996 7995 ] final -123.23 input   59.86 | X-H torsion
[ 10167 10162 10161 10158 ] final   94.71 input  -65.29 | X-H torsion
[ 10718 10713 10712 10709 ] final   80.27 input   66.30 | X-H torsion
[ 10763 10752 10751 10750 ] final   58.74 input  -60.55 | X-H torsion
[ 11005 11000 10999 10996 ] final  -67.26 input  -57.11 | X-H torsion

> <Gold.Protein.ActiveResidues>
 VAL166  LYS551  ARG553  GLY616  TRP617  ASP618  TYR619  PRO620  LYS621  CYS622 
 ASP623  PHE694  ASN695  SER759  ASP760  ASP761  ALA762  ILE779  LEU786  VAL792 
 PHE793  MET794  SER795  GLU796  ALA797  LYS798  CYS799  TRP800  GLU811  SER814 

> <Gold.Protein.RotatedAtoms>
  150.6988  134.4360  159.5269 H   0  0  0  0  0  0  0  0  0  0  0  0  # atno 6907 bound_to 6896
  152.2078  134.8526  160.0510 H   0  0  0  0  0  0  0  0  0  0  0  0  # atno 6908 bound_to 6896
  151.9423  133.3606  159.4006 H   0  0  0  0  0  0  0  0  0  0  0  0  # atno 6909 bound_to 6896
  145.0695  139.3741  143.4965 H   0  0  0  0  0  0  0  0  0  0  0  0  # atno 7974 bound_to 7965
  155.1771  140.0409  157.2875 H   0  0  0  0  0  0  0  0  0  0  0  0  # atno 8008 bound_to 7997
  154.6229  140.2505  155.7500 H   0  0  0  0  0  0  0  0  0  0  0  0  # atno 8009 bound_to 7997
  156.2443  140.2891  156.0545 H   0  0  0  0  0  0  0  0  0  0  0  0  # atno 8010 bound_to 7997
  139.8058  144.6795  150.9705 H   0  0  0  0  0  0  0  0  0  0  0  0  # atno 10167 bound_to 10162
  157.6801  130.9952  150.2054 H   0  0  0  0  0  0  0  0  0  0  0  0  # atno 10718 bound_to 10713
  152.9878  135.5596  154.5601 H   0  0  0  0  0  0  0  0  0  0  0  0  # atno 10763 bound_to 10752
  154.5022  135.2798  155.1414 H   0  0  0  0  0  0  0  0  0  0  0  0  # atno 10764 bound_to 10752
  154.2840  135.6339  153.5411 H   0  0  0  0  0  0  0  0  0  0  0  0  # atno 10765 bound_to 10752
  141.1503  133.6715  156.6265 H   0  0  0  0  0  0  0  0  0  0  0  0  # atno 11005 bound_to 11000
  146.3528  140.0433  142.8641 LP  0  0  0  0  0  0  0  0  0  0  0  0  # atno 17320 bound_to 7965
  145.1310  140.9517  143.4544 LP  0  0  0  0  0  0  0  0  0  0  0  0  # atno 17321 bound_to 7965
  140.7819  143.4235  151.0804 LP  0  0  0  0  0  0  0  0  0  0  0  0  # atno 17342 bound_to 10162
  139.7905  143.8226  152.3151 LP  0  0  0  0  0  0  0  0  0  0  0  0  # atno 17343 bound_to 10162
  156.2736  130.3725  149.8006 LP  0  0  0  0  0  0  0  0  0  0  0  0  # atno 17370 bound_to 10713
  156.5716  130.8427  151.3358 LP  0  0  0  0  0  0  0  0  0  0  0  0  # atno 17371 bound_to 10713
  140.3500  134.7777  157.4460 LP  0  0  0  0  0  0  0  0  0  0  0  0  # atno 17394 bound_to 11000
  140.0869  134.5655  155.8483 LP  0  0  0  0  0  0  0  0  0  0  0  0  # atno 17395 bound_to 11000

$$$$
