AV-unprocessed.smi:2781|AV-procd|sdf|10717|dock4
  -GOLD-   2272015153D 1   1.00000     0.00000
 Structure written by MMmdl.
 35 38  0  0  0  0  0  0  0  0  1 V2000
  153.4526  139.7777  159.8868 O   0  0  0  0  0  0  0  0  0  0  0  0
  153.9697  140.3807  160.8279 C   0  0  0  0  0  0  0  0  0  0  0  0
  154.4883  139.8057  161.9276 N   0  0  0  0  0  0  0  0  0  0  0  0
  154.5458  138.4244  162.2532 C   0  0  0  0  0  0  0  0  0  0  0  0
  154.7775  138.1408  163.6187 C   0  0  0  0  0  0  0  0  0  0  0  0
  154.8500  136.8005  164.0460 C   0  0  0  0  0  0  0  0  0  0  0  0
  154.6880  135.7782  163.0942 C   0  0  0  0  0  0  0  0  0  0  0  0
  154.7494  134.4752  163.4576 F   0  0  0  0  0  0  0  0  0  0  0  0
  154.4600  136.1448  161.7551 C   0  0  0  0  0  0  0  0  0  0  0  0
  154.3906  137.4291  161.3443 N   0  0  0  0  0  0  0  0  0  0  0  0
  154.0874  141.7147  160.8793 N   0  0  0  0  0  0  0  0  0  0  0  0
  153.6429  142.6257  159.8745 C   0  0  2  0  0  0  0  0  0  0  0  0
  152.5797  143.6359  160.2781 C   0  0  1  0  0  0  0  0  0  0  0  0
  152.1576  144.8583  159.4683 C   0  0  2  0  0  0  0  0  0  0  0  0
  150.6163  144.9214  159.4761 C   0  0  0  0  0  0  0  0  0  0  0  0
  150.2279  143.7286  158.5679 C   0  0  0  0  0  0  0  0  0  0  0  0
  151.6025  143.1541  158.1663 C   0  0  1  0  0  0  0  0  0  0  0  0
  152.3995  144.4508  158.0141 C   0  0  0  0  0  0  0  0  0  0  0  0
  152.2056  142.4829  159.3968 C   0  0  1  0  0  0  0  0  0  0  0  0
  154.8871  140.4296  162.6132 H   0  0  0  0  0  0  0  0  0  0  0  0
  154.8993  138.9393  164.3359 H   0  0  0  0  0  0  0  0  0  0  0  0
  155.0264  136.5627  165.0845 H   0  0  0  0  0  0  0  0  0  0  0  0
  154.3301  135.3896  160.9940 H   0  0  0  0  0  0  0  0  0  0  0  0
  154.5263  142.1203  161.6927 H   0  0  0  0  0  0  0  0  0  0  0  0
  154.3852  142.9420  159.1454 H   0  0  0  0  0  0  0  0  0  0  0  0
  152.2379  143.6143  161.3116 H   0  0  0  0  0  0  0  0  0  0  0  0
  152.6563  145.7725  159.7906 H   0  0  0  0  0  0  0  0  0  0  0  0
  150.2036  144.8314  160.4816 H   0  0  0  0  0  0  0  0  0  0  0  0
  150.2612  145.8611  159.0510 H   0  0  0  0  0  0  0  0  0  0  0  0
  149.6094  142.9951  159.0867 H   0  0  0  0  0  0  0  0  0  0  0  0
  149.6761  144.0740  157.6926 H   0  0  0  0  0  0  0  0  0  0  0  0
  151.5912  142.5036  157.2915 H   0  0  0  0  0  0  0  0  0  0  0  0
  151.9675  145.1451  157.2903 H   0  0  0  0  0  0  0  0  0  0  0  0
  153.4480  144.3057  157.7560 H   0  0  0  0  0  0  0  0  0  0  0  0
  151.6126  141.6819  159.8349 H   0  0  0  0  0  0  0  0  0  0  0  0
  1  2  2  0  0  0  0
  2  3  1  0  0  0  0
  2 11  1  0  0  0  0
  3  4  1  0  0  0  0
  3 20  1  0  0  0  0
  4 10  1  0  0  0  0
  4  5  2  0  0  0  0
  5  6  1  0  0  0  0
  5 21  1  0  0  0  0
  6  7  2  0  0  0  0
  6 22  1  0  0  0  0
  7  8  1  0  0  0  0
  7  9  1  0  0  0  0
  9 10  2  0  0  0  0
  9 23  1  0  0  0  0
 11 12  1  0  0  0  0
 11 24  1  0  0  0  0
 12 19  1  0  0  0  0
 12 13  1  0  0  0  0
 12 25  1  0  0  0  0
 13 19  1  0  0  0  0
 13 14  1  0  0  0  0
 13 26  1  0  0  0  0
 14 18  1  0  0  0  0
 14 15  1  0  0  0  0
 14 27  1  0  0  0  0
 15 16  1  0  0  0  0
 15 28  1  0  0  0  0
 15 29  1  0  0  0  0
 16 17  1  0  0  0  0
 16 30  1  0  0  0  0
 16 31  1  0  0  0  0
 17 18  1  0  0  0  0
 17 19  1  0  0  0  0
 17 32  1  0  0  0  0
 18 33  1  0  0  0  0
 18 34  1  0  0  0  0
 19 35  1  0  0  0  0
M  END
> <s_m_source_file>
AV-unprocessed.smi

> <i_m_source_file_index>
2781

> <i_lp_mmshare_version>
43012

> <i_f3d_flags>
0

> <s_epik_input>
bjFbY0hdYyhGKVtjSF1bY0hdYzFbTkhdQyg9TylbTkhdW0NASF0yW0NAQEhdM1tDQEhdKFtDSDJdNClbQ0gyXVtDSDJdW0NASF00W0NASF0yMw==

> <s_epik_cmdline>
J2VwaWtfcHl0aG9uJywgJy1waCcsICc3LjAnLCAnLXRuJywgJzgnLCAnLW1hJywgJzIwMCcsICctbWV0YWxfYmluZGluZycsICctaW1hZScsICc8aW5maWxlLm1hZT4nLCAnLW9tYWUnLCAnPG91dGZpbGUubWFlPic=

> <r_lp_tautomer_probability>
1

> <r_epik_Ionization_Penalty>
4.05776e-05

> <r_epik_Ionization_Penalty_Charging>
0

> <r_epik_Ionization_Penalty_Neutral>
4.05776e-05

> <r_epik_State_Penalty>
-0

> <r_epik_Charging_Adjusted_Penalty>
0

> <i_epik_Tot_Q>
0

> <i_epik_Tot_abs_Q>
0

> <r_epik_Metal_State_Penalty>
-0

> <b_epik_Metal_Only>
0

> <s_lp_Force_Field>
OPLS_2005

> <r_lp_Energy>
77.2999

> <b_lp_Chiralities_Consistent>
1

> <s_lp_Variant>
AV-unprocessed.smi:2781-1

> <Gold.Version>
5.8.1

> <Gold.Id.Protein>
6NUR|6NUR_protein|mol2

> <Gold.PLP.Fitness>
43.2989

> <Gold.PLP.PLP>
-43.4911

> <Gold.PLP.part.hbond>
-0.2339

> <Gold.PLP.part.metal>
0.0000

> <Gold.PLP.part.buried>
-6.1054

> <Gold.PLP.part.nonpolar>
-37.4004

> <Gold.PLP.part.repulsive>
0.0119

> <Gold.PLP.ligand.clash>
0.0000

> <Gold.PLP.ligand.torsion>
0.1092

> <Gold.PLP.Chemscore.Hbond>
0.0000

> <Gold.PLP.Chemscore.CHOScore>
0.0000

> <Gold.PLP.Chemscore.Metal>
0.0000

> <Gold.PLP.Chemscore.Internal.Correction>
0.0262

> <Gold.Rescore>
     Score         DG    S(hbond)    S(metal)    S(lipo)     H(rot)  DE(clash)    DE(int)     intcor
     15.70     -17.17       0.00        0.00     121.78       1.00       0.16       1.31       ----

> <Gold.Chemscore.Fitness>
15.6967

> <Gold.Chemscore.DG>
-17.1680

> <Gold.Chemscore.ZeroCoef>
-5.4800

> <Gold.Chemscore.Hbond>
0.0000

> <Gold.Chemscore.Metal>
0.0000

> <Gold.Chemscore.Lipo>
121.7776

> <Gold.Chemscore.Internal_Hbond>
0.0000

> <Gold.Chemscore.DEClash>
0.1564

> <Gold.Chemscore.DEInternal>
1.3149

> <Gold.Chemscore.Rot>
1.0000

> <Gold.Chemscore.Internal.Correction>
   9.000000E+99

> <Gold.Chemscore.Hbond.Weighted>
-0.0000

> <Gold.Chemscore.Metal.Weighted>
-0.0000

> <Gold.Chemscore.Lipo.Weighted>
-14.2480

> <Gold.Chemscore.Internal_Hbond.Weighted>
0.0000

> <Gold.Chemscore.DEClash.Weighted>
0.1564

> <Gold.Chemscore.DEInternal.Weighted>
1.3149

> <Gold.Chemscore.Rot.Weighted>
2.5600

> <Gold.Chemscore.Internal.Correction.Weighted>
   9.000000E+99

> <Gold.Protein.RotatedTorsions>
[ 6907 6896 6895 6894 ] final   99.62 input  -60.11 | X-H torsion
[ 7974 7965 7964 7962 ] final -154.94 input  175.53 | X-H torsion
[ 8008 7997 7996 7995 ] final   70.05 input   59.86 | X-H torsion
[ 10167 10162 10161 10158 ] final   95.85 input  -65.29 | X-H torsion
[ 10718 10713 10712 10709 ] final  -14.79 input   66.30 | X-H torsion
[ 10763 10752 10751 10750 ] final -131.63 input  -60.55 | X-H torsion
[ 11005 11000 10999 10996 ] final  140.88 input  -57.11 | X-H torsion

> <Gold.Protein.ActiveResidues>
 VAL166  LYS551  ARG553  GLY616  TRP617  ASP618  TYR619  PRO620  LYS621  CYS622 
 ASP623  PHE694  ASN695  SER759  ASP760  ASP761  ALA762  ILE779  LEU786  VAL792 
 PHE793  MET794  SER795  GLU796  ALA797  LYS798  CYS799  TRP800  GLU811  SER814 

> <Gold.Protein.RotatedAtoms>
  152.5388  134.0401  159.8063 H   0  0  0  0  0  0  0  0  0  0  0  0  # atno 6907 bound_to 6896
  151.0559  133.5577  159.2645 H   0  0  0  0  0  0  0  0  0  0  0  0  # atno 6908 bound_to 6896
  151.2494  135.0624  159.9110 H   0  0  0  0  0  0  0  0  0  0  0  0  # atno 6909 bound_to 6896
  144.7665  140.4319  143.5938 H   0  0  0  0  0  0  0  0  0  0  0  0  # atno 7974 bound_to 7965
  155.7329  140.3491  155.5068 H   0  0  0  0  0  0  0  0  0  0  0  0  # atno 8008 bound_to 7997
  155.9166  140.1059  157.1261 H   0  0  0  0  0  0  0  0  0  0  0  0  # atno 8009 bound_to 7997
  154.4063  140.1257  156.4612 H   0  0  0  0  0  0  0  0  0  0  0  0  # atno 8010 bound_to 7997
  139.7949  144.6837  150.9842 H   0  0  0  0  0  0  0  0  0  0  0  0  # atno 10167 bound_to 10162
  156.6110  130.4849  149.6201 H   0  0  0  0  0  0  0  0  0  0  0  0  # atno 10718 bound_to 10713
  154.8749  135.3824  154.4278 H   0  0  0  0  0  0  0  0  0  0  0  0  # atno 10763 bound_to 10752
  153.4975  135.7030  153.5855 H   0  0  0  0  0  0  0  0  0  0  0  0  # atno 10764 bound_to 10752
  153.4202  135.3903  155.2073 H   0  0  0  0  0  0  0  0  0  0  0  0  # atno 10765 bound_to 10752
  140.0360  134.9329  157.0753 H   0  0  0  0  0  0  0  0  0  0  0  0  # atno 11005 bound_to 11000
  145.6455  139.1556  143.2891 LP  0  0  0  0  0  0  0  0  0  0  0  0  # atno 17320 bound_to 7965
  146.1776  140.6549  142.9204 LP  0  0  0  0  0  0  0  0  0  0  0  0  # atno 17321 bound_to 7965
  140.7820  143.4342  151.0649 LP  0  0  0  0  0  0  0  0  0  0  0  0  # atno 17342 bound_to 10162
  139.8016  143.8075  152.3163 LP  0  0  0  0  0  0  0  0  0  0  0  0  # atno 17343 bound_to 10162
  156.2390  130.6840  151.1537 LP  0  0  0  0  0  0  0  0  0  0  0  0  # atno 17370 bound_to 10713
  157.7254  131.0653  150.5954 LP  0  0  0  0  0  0  0  0  0  0  0  0  # atno 17371 bound_to 10713
  140.4147  134.1944  155.7163 LP  0  0  0  0  0  0  0  0  0  0  0  0  # atno 17394 bound_to 11000
  141.1857  133.8317  157.1094 LP  0  0  0  0  0  0  0  0  0  0  0  0  # atno 17395 bound_to 11000

$$$$
