AV-unprocessed.smi:1727|AV-procd|sdf|6965|dock10
  -GOLD-   22720 8183D 1   1.00000     0.00000
 Structure written by MMmdl.
 49 51  0  0  0  0  0  0  0  0  1 V2000
  152.2541  144.6837  162.0467 C   0  0  0  0  0  0  0  0  0  0  0  0
  152.3709  143.2701  161.4720 C   0  0  0  0  0  0  0  0  0  0  0  0
  152.1438  142.3209  162.2223 O   0  0  0  0  0  0  0  0  0  0  0  0
  152.7131  143.1096  160.1710 N   0  0  0  0  0  0  0  0  0  0  0  0
  152.7800  141.7935  159.5250 C   0  0  0  0  0  0  0  0  0  0  0  0
  151.6111  141.6671  158.5315 C   0  0  0  0  0  0  0  0  0  0  0  0
  151.6221  142.8178  157.5028 C   0  0  0  0  0  0  0  0  0  0  0  0
  150.4060  142.7668  156.6974 N   0  0  0  0  0  0  0  0  0  0  0  0
  149.9496  141.6832  156.0540 C   0  0  0  0  0  0  0  0  0  0  0  0
  150.5145  140.5894  156.0731 O   0  0  0  0  0  0  0  0  0  0  0  0
  148.8218  141.9593  155.3786 N   0  0  0  0  0  0  0  0  0  0  0  0
  148.0736  141.0875  154.5391 C   0  0  0  0  0  0  0  0  0  0  0  0
  148.6079  139.8513  154.1007 C   0  0  0  0  0  0  0  0  0  0  0  0
  147.8082  138.9877  153.3330 C   0  0  0  0  0  0  0  0  0  0  0  0
  146.4922  139.3839  153.0428 C   0  0  0  0  0  0  0  0  0  0  0  0
  145.9645  140.5508  153.4636 N   0  0  0  0  0  0  0  0  0  0  0  0
  146.7279  141.4019  154.1928 C   0  0  0  0  0  0  0  0  0  0  0  0
  146.1264  142.6184  154.5902 N   0  0  0  0  0  0  0  0  0  0  0  0
  145.0605  142.6273  155.5870 C   0  0  0  0  0  0  0  0  0  0  0  0
  144.4119  144.0027  155.4608 C   0  0  0  0  0  0  0  0  0  0  0  0
  144.5070  144.2708  153.9624 C   0  0  0  0  0  0  0  0  0  0  0  0
  145.8281  143.6081  153.5588 C   0  0  0  0  0  0  0  0  0  0  0  0
  151.7579  144.1929  158.1965 C   0  0  0  0  0  0  0  0  0  0  0  0
  152.9196  144.1968  159.2060 C   0  0  0  0  0  0  0  0  0  0  0  0
  151.5069  145.2622  161.5027 H   0  0  0  0  0  0  0  0  0  0  0  0
  153.2118  145.2022  161.9956 H   0  0  0  0  0  0  0  0  0  0  0  0
  151.9503  144.6489  163.0935 H   0  0  0  0  0  0  0  0  0  0  0  0
  153.7313  141.6959  159.0000 H   0  0  0  0  0  0  0  0  0  0  0  0
  152.7500  140.9697  160.2393 H   0  0  0  0  0  0  0  0  0  0  0  0
  151.6610  140.7058  158.0190 H   0  0  0  0  0  0  0  0  0  0  0  0
  150.6711  141.6736  159.0858 H   0  0  0  0  0  0  0  0  0  0  0  0
  152.4882  142.6717  156.8545 H   0  0  0  0  0  0  0  0  0  0  0  0
  149.8761  143.6226  156.6211 H   0  0  0  0  0  0  0  0  0  0  0  0
  148.5290  142.9255  155.3716 H   0  0  0  0  0  0  0  0  0  0  0  0
  149.6091  139.5433  154.3617 H   0  0  0  0  0  0  0  0  0  0  0  0
  148.1907  138.0390  152.9866 H   0  0  0  0  0  0  0  0  0  0  0  0
  145.8432  138.7452  152.4623 H   0  0  0  0  0  0  0  0  0  0  0  0
  144.3195  141.8567  155.3700 H   0  0  0  0  0  0  0  0  0  0  0  0
  145.4527  142.4549  156.5897 H   0  0  0  0  0  0  0  0  0  0  0  0
  143.3889  144.0273  155.8368 H   0  0  0  0  0  0  0  0  0  0  0  0
  144.9951  144.7432  156.0100 H   0  0  0  0  0  0  0  0  0  0  0  0
  143.6788  143.7797  153.4499 H   0  0  0  0  0  0  0  0  0  0  0  0
  144.4729  145.3321  153.7157 H   0  0  0  0  0  0  0  0  0  0  0  0
  146.6257  144.3514  153.5443 H   0  0  0  0  0  0  0  0  0  0  0  0
  145.7629  143.1617  152.5656 H   0  0  0  0  0  0  0  0  0  0  0  0
  151.9116  144.9763  157.4533 H   0  0  0  0  0  0  0  0  0  0  0  0
  150.8312  144.4387  158.7172 H   0  0  0  0  0  0  0  0  0  0  0  0
  153.0067  145.1798  159.6660 H   0  0  0  0  0  0  0  0  0  0  0  0
  153.8643  144.0371  158.6843 H   0  0  0  0  0  0  0  0  0  0  0  0
  1  2  1  0  0  0  0
  1 25  1  0  0  0  0
  1 26  1  0  0  0  0
  1 27  1  0  0  0  0
  2  3  2  0  0  0  0
  2  4  1  0  0  0  0
  4 24  1  0  0  0  0
  4  5  1  0  0  0  0
  5  6  1  0  0  0  0
  5 28  1  0  0  0  0
  5 29  1  0  0  0  0
  6  7  1  0  0  0  0
  6 30  1  0  0  0  0
  6 31  1  0  0  0  0
  7  8  1  0  0  0  0
  7 23  1  0  0  0  0
  7 32  1  0  0  0  0
  8  9  1  0  0  0  0
  8 33  1  0  0  0  0
  9 10  2  0  0  0  0
  9 11  1  0  0  0  0
 11 12  1  0  0  0  0
 11 34  1  0  0  0  0
 12 17  1  0  0  0  0
 12 13  2  0  0  0  0
 13 14  1  0  0  0  0
 13 35  1  0  0  0  0
 14 15  2  0  0  0  0
 14 36  1  0  0  0  0
 15 16  1  0  0  0  0
 15 37  1  0  0  0  0
 16 17  2  0  0  0  0
 17 18  1  0  0  0  0
 18 22  1  0  0  0  0
 18 19  1  0  0  0  0
 19 20  1  0  0  0  0
 19 38  1  0  0  0  0
 19 39  1  0  0  0  0
 20 21  1  0  0  0  0
 20 40  1  0  0  0  0
 20 41  1  0  0  0  0
 21 22  1  0  0  0  0
 21 42  1  0  0  0  0
 21 43  1  0  0  0  0
 22 44  1  0  0  0  0
 22 45  1  0  0  0  0
 23 24  1  0  0  0  0
 23 46  1  0  0  0  0
 23 47  1  0  0  0  0
 24 48  1  0  0  0  0
 24 49  1  0  0  0  0
M  END
> <s_m_source_file>
AV-unprocessed.smi

> <i_m_source_file_index>
1727

> <i_lp_mmshare_version>
43012

> <i_f3d_flags>
0

> <s_epik_input>
W0NIM11DKD1PKU4xW0NIMl1bQ0gyXVtDSF0oW0NIMl1bQ0gyXTEpW05IXUMoPU8pW05IXWMyW2NIXVtjSF1bY0hdbmMyTjNbQ0gyXVtDSDJdW0NIMl1bQ0gyXTM=

> <s_epik_cmdline>
J2VwaWtfcHl0aG9uJywgJy1waCcsICc3LjAnLCAnLXRuJywgJzgnLCAnLW1hJywgJzIwMCcsICctbWV0YWxfYmluZGluZycsICctaW1hZScsICc8aW5maWxlLm1hZT4nLCAnLW9tYWUnLCAnPG91dGZpbGUubWFlPic=

> <r_lp_tautomer_probability>
1

> <r_epik_Ionization_Penalty>
0.102256

> <r_epik_Ionization_Penalty_Charging>
0

> <r_epik_Ionization_Penalty_Neutral>
0.102256

> <r_epik_State_Penalty>
0.0916633

> <r_epik_Charging_Adjusted_Penalty>
0.0916633

> <i_epik_Tot_Q>
0

> <i_epik_Tot_abs_Q>
0

> <r_epik_Metal_State_Penalty>
0.0781079

> <b_epik_Metal_Only>
0

> <s_lp_Force_Field>
OPLS_2005

> <r_lp_Energy>
49.5361

> <b_lp_Chiralities_Consistent>
1

> <s_lp_Variant>
AV-unprocessed.smi:1727-1

> <Gold.Version>
5.8.1

> <Gold.Id.Protein>
6NUR|6NUR_protein|mol2

> <Gold.PLP.Fitness>
47.2836

> <Gold.PLP.PLP>
-38.9150

> <Gold.PLP.part.hbond>
-2.8570

> <Gold.PLP.part.metal>
0.0000

> <Gold.PLP.part.buried>
0.5406

> <Gold.PLP.part.nonpolar>
-42.3105

> <Gold.PLP.part.repulsive>
4.8277

> <Gold.PLP.ligand.clash>
0.0000

> <Gold.PLP.ligand.torsion>
0.2691

> <Gold.PLP.Chemscore.Hbond>
2.7150

> <Gold.PLP.Chemscore.CHOScore>
0.1397

> <Gold.PLP.Chemscore.Metal>
0.0000

> <Gold.Chemscore.Hbonds>
donor molecule, donor type, donor heavy atom, donor atom, acceptor molecule, acceptor atom, score
      L1  H     8    33       P1  8028  1.00
      L1  H    11    34       P1  8028  1.00
      P1  H  6933  6945       L1     3  0.65
      L1  C    15    37       P1 10175  0.14

> <Gold.PLP.Chemscore.Internal.Correction>
0.3427

> <Gold.Rescore>
     Score         DG    S(hbond)    S(metal)    S(lipo)     H(rot)  DE(clash)    DE(int)     intcor
     17.81     -24.38       2.58        0.00     114.30       1.21       3.67       2.90       ----

> <Gold.Chemscore.Fitness>
17.8120

> <Gold.Chemscore.DG>
-24.3762

> <Gold.Chemscore.ZeroCoef>
-5.4800

> <Gold.Chemscore.Hbond>
2.5824

> <Gold.Chemscore.Metal>
0.0000

> <Gold.Chemscore.Lipo>
114.2984

> <Gold.Chemscore.Internal_Hbond>
0.0000

> <Gold.Chemscore.DEClash>
3.6689

> <Gold.Chemscore.DEInternal>
2.8954

> <Gold.Chemscore.Rot>
1.2117

> <Gold.Chemscore.Internal.Correction>
   9.000000E+99

> <Gold.Chemscore.Hbonds>
donor molecule, donor type, donor heavy atom, donor atom, acceptor molecule, acceptor atom, score
      L1  H     8    33       P1  8028  0.95
      L1  H    11    34       P1  8028  0.96
      P1  H  6933  6945       L1     3  0.53

> <Gold.Chemscore.Hbond.Weighted>
-8.6253

> <Gold.Chemscore.Metal.Weighted>
-0.0000

> <Gold.Chemscore.Lipo.Weighted>
-13.3729

> <Gold.Chemscore.Internal_Hbond.Weighted>
0.0000

> <Gold.Chemscore.DEClash.Weighted>
3.6689

> <Gold.Chemscore.DEInternal.Weighted>
2.8954

> <Gold.Chemscore.Rot.Weighted>
3.1019

> <Gold.Chemscore.Internal.Correction.Weighted>
   9.000000E+99

> <Gold.Protein.RotatedTorsions>
[ 6907 6896 6895 6894 ] final  -67.21 input  -60.11 | X-H torsion
[ 7974 7965 7964 7962 ] final -178.52 input  175.53 | X-H torsion
[ 8008 7997 7996 7995 ] final    2.48 input   59.86 | X-H torsion
[ 10167 10162 10161 10158 ] final   -2.35 input  -65.29 | X-H torsion
[ 10718 10713 10712 10709 ] final   58.64 input   66.30 | X-H torsion
[ 10763 10752 10751 10750 ] final  161.58 input  -60.55 | X-H torsion
[ 11005 11000 10999 10996 ] final  -99.80 input  -57.11 | X-H torsion

> <Gold.Protein.ActiveResidues>
 VAL166  LYS551  ARG553  GLY616  TRP617  ASP618  TYR619  PRO620  LYS621  CYS622 
 ASP623  PHE694  ASN695  SER759  ASP760  ASP761  ALA762  ILE779  LEU786  VAL792 
 PHE793  MET794  SER795  GLU796  ALA797  LYS798  CYS799  TRP800  GLU811  SER814 

> <Gold.Protein.RotatedAtoms>
  150.7422  134.5912  159.5988 H   0  0  0  0  0  0  0  0  0  0  0  0  # atno 6907 bound_to 6896
  152.3299  134.7269  160.0301 H   0  0  0  0  0  0  0  0  0  0  0  0  # atno 6908 bound_to 6896
  151.7757  133.3309  159.3493 H   0  0  0  0  0  0  0  0  0  0  0  0  # atno 6909 bound_to 6896
  144.7131  140.0856  143.6423 H   0  0  0  0  0  0  0  0  0  0  0  0  # atno 7974 bound_to 7965
  154.6922  140.2655  155.6802 H   0  0  0  0  0  0  0  0  0  0  0  0  # atno 8008 bound_to 7997
  156.2736  140.2789  156.1427 H   0  0  0  0  0  0  0  0  0  0  0  0  # atno 8009 bound_to 7997
  155.0881  140.0373  157.2650 H   0  0  0  0  0  0  0  0  0  0  0  0  # atno 8010 bound_to 7997
  140.6847  143.6668  150.8219 H   0  0  0  0  0  0  0  0  0  0  0  0  # atno 10167 bound_to 10162
  157.5612  130.8837  149.9114 H   0  0  0  0  0  0  0  0  0  0  0  0  # atno 10718 bound_to 10713
  154.2651  135.2767  155.2762 H   0  0  0  0  0  0  0  0  0  0  0  0  # atno 10763 bound_to 10752
  154.5350  135.5719  153.6794 H   0  0  0  0  0  0  0  0  0  0  0  0  # atno 10764 bound_to 10752
  152.9955  135.6237  154.2803 H   0  0  0  0  0  0  0  0  0  0  0  0  # atno 10765 bound_to 10752
  141.1295  133.8349  157.1019 H   0  0  0  0  0  0  0  0  0  0  0  0  # atno 11005 bound_to 11000
  145.9665  139.2838  143.1124 LP  0  0  0  0  0  0  0  0  0  0  0  0  # atno 17320 bound_to 7965
  145.9164  140.9145  143.0427 LP  0  0  0  0  0  0  0  0  0  0  0  0  # atno 17321 bound_to 7965
  140.0373  143.5382  152.2733 LP  0  0  0  0  0  0  0  0  0  0  0  0  # atno 17342 bound_to 10162
  139.6196  144.7626  151.2769 LP  0  0  0  0  0  0  0  0  0  0  0  0  # atno 17343 bound_to 10162
  156.0665  130.3691  150.0868 LP  0  0  0  0  0  0  0  0  0  0  0  0  # atno 17370 bound_to 10713
  156.9032  130.9627  151.3573 LP  0  0  0  0  0  0  0  0  0  0  0  0  # atno 17371 bound_to 10713
  140.0328  134.9893  157.0814 LP  0  0  0  0  0  0  0  0  0  0  0  0  # atno 17394 bound_to 11000
  140.4258  134.1833  155.7166 LP  0  0  0  0  0  0  0  0  0  0  0  0  # atno 17395 bound_to 11000

$$$$
