AV-unprocessed.smi:1943|AV-procd|sdf|7851|dock4
  -GOLD-   22720 9593D 1   1.00000     0.00000
 Structure written by MMmdl.
 48 49  0  0  0  0  0  0  0  0  2 V2000
  156.4753  134.9916  161.6261 C   0  0  0  0  0  0  0  0  0  0  0  0
  156.3179  136.3748  162.1492 N   0  3  0  0  0  0  0  0  0  0  0  0
  155.4485  136.3675  163.3550 C   0  0  0  0  0  0  0  0  0  0  0  0
  155.9975  137.4246  161.1143 C   0  0  0  0  0  0  0  0  0  0  0  0
  155.8420  138.8197  161.7699 C   0  0  0  0  0  0  0  0  0  0  0  0
  157.1258  137.5204  160.0525 C   0  0  0  0  0  0  0  0  0  0  0  0
  154.6882  137.0070  160.3773 C   0  0  0  0  0  0  0  0  0  0  0  0
  153.9972  138.1178  159.7240 N   0  0  0  0  0  0  0  0  0  0  0  0
  152.8177  138.0411  159.0854 C   0  0  0  0  0  0  0  0  0  0  0  0
  152.1751  136.9974  158.9680 O   0  0  0  0  0  0  0  0  0  0  0  0
  152.2981  139.3490  158.5582 C   0  0  0  0  0  0  0  0  0  0  0  0
  152.8094  140.4782  159.1043 N   0  0  0  0  0  0  0  0  0  0  0  0
  152.3942  141.6615  158.6350 C   0  0  0  0  0  0  0  0  0  0  0  0
  152.9299  142.8157  159.2194 N   0  0  0  0  0  0  0  0  0  0  0  0
  152.5430  144.1586  158.7886 C   0  0  0  0  0  0  0  0  0  0  0  0
  151.4242  144.6903  159.7024 C   0  0  0  0  0  0  0  0  0  0  0  0
  151.8751  144.6846  161.0555 O   0  0  0  0  0  0  0  0  0  0  0  0
  152.2476  143.3827  161.5041 C   0  0  0  0  0  0  0  0  0  0  0  0
  153.3762  142.8341  160.6120 C   0  0  0  0  0  0  0  0  0  0  0  0
  151.5004  141.8238  157.6525 N   0  0  0  0  0  0  0  0  0  0  0  0
  150.9764  140.7144  157.0914 C   0  0  0  0  0  0  0  0  0  0  0  0
  151.3442  139.4216  157.5114 C   0  0  0  0  0  0  0  0  0  0  0  0
  150.6153  138.0358  156.7746 Cl  0  0  0  0  0  0  0  0  0  0  0  0
  155.5166  134.5684  161.3242 H   0  0  0  0  0  0  0  0  0  0  0  0
  156.8864  134.3432  162.4005 H   0  0  0  0  0  0  0  0  0  0  0  0
  157.1552  134.9309  160.7790 H   0  0  0  0  0  0  0  0  0  0  0  0
  154.3993  136.2350  163.0900 H   0  0  0  0  0  0  0  0  0  0  0  0
  155.5506  137.2839  163.9357 H   0  0  0  0  0  0  0  0  0  0  0  0
  155.7260  135.5534  164.0255 H   0  0  0  0  0  0  0  0  0  0  0  0
  155.7352  139.6043  161.0203 H   0  0  0  0  0  0  0  0  0  0  0  0
  156.7102  139.0818  162.3744 H   0  0  0  0  0  0  0  0  0  0  0  0
  154.9614  138.8757  162.4102 H   0  0  0  0  0  0  0  0  0  0  0  0
  156.8776  138.2193  159.2534 H   0  0  0  0  0  0  0  0  0  0  0  0
  157.3184  136.5535  159.5857 H   0  0  0  0  0  0  0  0  0  0  0  0
  158.0626  137.8828  160.4764 H   0  0  0  0  0  0  0  0  0  0  0  0
  154.9244  136.2757  159.6033 H   0  0  0  0  0  0  0  0  0  0  0  0
  153.9906  136.5045  161.0457 H   0  0  0  0  0  0  0  0  0  0  0  0
  154.4443  139.0229  159.7650 H   0  0  0  0  0  0  0  0  0  0  0  0
  153.4148  144.8102  158.8592 H   0  0  0  0  0  0  0  0  0  0  0  0
  152.2347  144.1890  157.7437 H   0  0  0  0  0  0  0  0  0  0  0  0
  151.1601  145.7097  159.4208 H   0  0  0  0  0  0  0  0  0  0  0  0
  150.5206  144.0861  159.6053 H   0  0  0  0  0  0  0  0  0  0  0  0
  152.5829  143.4474  162.5392 H   0  0  0  0  0  0  0  0  0  0  0  0
  151.3814  142.7191  161.4889 H   0  0  0  0  0  0  0  0  0  0  0  0
  153.6953  141.8542  160.9657 H   0  0  0  0  0  0  0  0  0  0  0  0
  154.2524  143.4790  160.6884 H   0  0  0  0  0  0  0  0  0  0  0  0
  150.2521  140.8614  156.3040 H   0  0  0  0  0  0  0  0  0  0  0  0
  157.2309  136.6300  162.4982 H   0  0  0  0  0  0  0  0  0  0  0  0
  1  2  1  0  0  0  0
  1 24  1  0  0  0  0
  1 25  1  0  0  0  0
  1 26  1  0  0  0  0
  2  3  1  0  0  0  0
  2  4  1  0  0  0  0
  2 48  1  0  0  0  0
  3 27  1  0  0  0  0
  3 28  1  0  0  0  0
  3 29  1  0  0  0  0
  4  5  1  0  0  0  0
  4  6  1  0  0  0  0
  4  7  1  0  0  0  0
  5 30  1  0  0  0  0
  5 31  1  0  0  0  0
  5 32  1  0  0  0  0
  6 33  1  0  0  0  0
  6 34  1  0  0  0  0
  6 35  1  0  0  0  0
  7  8  1  0  0  0  0
  7 36  1  0  0  0  0
  7 37  1  0  0  0  0
  8  9  1  0  0  0  0
  8 38  1  0  0  0  0
  9 10  2  0  0  0  0
  9 11  1  0  0  0  0
 11 22  1  0  0  0  0
 11 12  2  0  0  0  0
 12 13  1  0  0  0  0
 13 14  1  0  0  0  0
 13 20  2  0  0  0  0
 14 19  1  0  0  0  0
 14 15  1  0  0  0  0
 15 16  1  0  0  0  0
 15 39  1  0  0  0  0
 15 40  1  0  0  0  0
 16 17  1  0  0  0  0
 16 41  1  0  0  0  0
 16 42  1  0  0  0  0
 17 18  1  0  0  0  0
 18 19  1  0  0  0  0
 18 43  1  0  0  0  0
 18 44  1  0  0  0  0
 19 45  1  0  0  0  0
 19 46  1  0  0  0  0
 20 21  1  0  0  0  0
 21 22  2  0  0  0  0
 21 47  1  0  0  0  0
 22 23  1  0  0  0  0
M  CHG  1   2   1
M  END
> <s_m_source_file>
AV-unprocessed.smi

> <i_m_source_file_index>
1943

> <i_lp_mmshare_version>
43012

> <i_f3d_flags>
0

> <s_epik_input>
W0NIM11OKFtDSDNdKUMoW0NIM10pKFtDSDNdKVtDSDJdW05IXUMoPU8pYzFuYyhuW2NIXWMxQ2wpTjJbQ0gyXVtDSDJdT1tDSDJdW0NIMl0y

> <s_epik_cmdline>
J2VwaWtfcHl0aG9uJywgJy1waCcsICc3LjAnLCAnLXRuJywgJzgnLCAnLW1hJywgJzIwMCcsICctbWV0YWxfYmluZGluZycsICctaW1hZScsICc8aW5maWxlLm1hZT4nLCAnLW9tYWUnLCAnPG91dGZpbGUubWFlPic=

> <r_lp_tautomer_probability>
1

> <r_epik_Ionization_Penalty>
0.00747112

> <r_epik_Ionization_Penalty_Charging>
0.00734137

> <r_epik_Ionization_Penalty_Neutral>
0.000129757

> <r_epik_State_Penalty>
0.00547931

> <r_epik_Charging_Adjusted_Penalty>
0.0128207

> <i_epik_Tot_Q>
1

> <i_epik_Tot_abs_Q>
1

> <r_epik_Metal_State_Penalty>
0.0979204

> <b_epik_Metal_Only>
0

> <s_lp_Force_Field>
OPLS_2005

> <r_lp_Energy>
30.7364

> <b_lp_Chiralities_Consistent>
1

> <s_lp_Variant>
AV-unprocessed.smi:1943-1

> <Gold.Version>
5.8.1

> <Gold.Id.Protein>
6NUR|6NUR_protein|mol2

> <Gold.PLP.Fitness>
45.7015

> <Gold.PLP.PLP>
-44.0596

> <Gold.PLP.part.hbond>
-1.0000

> <Gold.PLP.part.metal>
0.0000

> <Gold.PLP.part.buried>
-6.7339

> <Gold.PLP.part.nonpolar>
-36.5978

> <Gold.PLP.part.repulsive>
0.2848

> <Gold.PLP.ligand.clash>
0.0000

> <Gold.PLP.ligand.torsion>
0.8315

> <Gold.PLP.Chemscore.Hbond>
1.0000

> <Gold.PLP.Chemscore.CHOScore>
0.0000

> <Gold.PLP.Chemscore.Metal>
0.0000

> <Gold.Chemscore.Hbonds>
donor molecule, donor type, donor heavy atom, donor atom, acceptor molecule, acceptor atom, score
      P1  H  6896  6908       L1    10  0.37

> <Gold.PLP.Chemscore.Internal.Correction>
0.3049

> <Gold.Rescore>
     Score         DG    S(hbond)    S(metal)    S(lipo)     H(rot)  DE(clash)    DE(int)     intcor
     15.38     -17.44       0.99        0.00     105.26       1.43       0.01       2.05       ----

> <Gold.Chemscore.Fitness>
15.3754

> <Gold.Chemscore.DG>
-17.4383

> <Gold.Chemscore.ZeroCoef>
-5.4800

> <Gold.Chemscore.Hbond>
0.9892

> <Gold.Chemscore.Metal>
0.0000

> <Gold.Chemscore.Lipo>
105.2550

> <Gold.Chemscore.Internal_Hbond>
0.0000

> <Gold.Chemscore.DEClash>
0.0089

> <Gold.Chemscore.DEInternal>
2.0540

> <Gold.Chemscore.Rot>
1.4298

> <Gold.Chemscore.Internal.Correction>
   9.000000E+99

> <Gold.Chemscore.Hbonds>
donor molecule, donor type, donor heavy atom, donor atom, acceptor molecule, acceptor atom, score
      P1  H  6896  6908       L1    10  0.36

> <Gold.Chemscore.Hbond.Weighted>
-3.3039

> <Gold.Chemscore.Metal.Weighted>
-0.0000

> <Gold.Chemscore.Lipo.Weighted>
-12.3148

> <Gold.Chemscore.Internal_Hbond.Weighted>
0.0000

> <Gold.Chemscore.DEClash.Weighted>
0.0089

> <Gold.Chemscore.DEInternal.Weighted>
2.0540

> <Gold.Chemscore.Rot.Weighted>
3.6604

> <Gold.Chemscore.Internal.Correction.Weighted>
   9.000000E+99

> <Gold.Protein.RotatedTorsions>
[ 6907 6896 6895 6894 ] final -135.75 input  -60.11 | X-H torsion
[ 7974 7965 7964 7962 ] final  149.24 input  175.53 | X-H torsion
[ 8008 7997 7996 7995 ] final  158.85 input   59.86 | X-H torsion
[ 10167 10162 10161 10158 ] final  -48.31 input  -65.29 | X-H torsion
[ 10718 10713 10712 10709 ] final   60.70 input   66.30 | X-H torsion
[ 10763 10752 10751 10750 ] final   92.21 input  -60.55 | X-H torsion
[ 11005 11000 10999 10996 ] final  -39.25 input  -57.11 | X-H torsion

> <Gold.Protein.ActiveResidues>
 VAL166  LYS551  ARG553  GLY616  TRP617  ASP618  TYR619  PRO620  LYS621  CYS622 
 ASP623  PHE694  ASN695  SER759  ASP760  ASP761  ALA762  ILE779  LEU786  VAL792 
 PHE793  MET794  SER795  GLU796  ALA797  LYS798  CYS799  TRP800  GLU811  SER814 

> <Gold.Protein.RotatedAtoms>
  151.0017  133.6050  159.2693 H   0  0  0  0  0  0  0  0  0  0  0  0  # atno 6907 bound_to 6896
  151.3233  135.0823  159.9323 H   0  0  0  0  0  0  0  0  0  0  0  0  # atno 6908 bound_to 6896
  152.5275  133.9660  159.7794 H   0  0  0  0  0  0  0  0  0  0  0  0  # atno 6909 bound_to 6896
  144.8453  139.6255  143.5998 H   0  0  0  0  0  0  0  0  0  0  0  0  # atno 7974 bound_to 7965
  156.2277  140.1847  156.7322 H   0  0  0  0  0  0  0  0  0  0  0  0  # atno 8008 bound_to 7997
  154.5969  140.0642  156.9343 H   0  0  0  0  0  0  0  0  0  0  0  0  # atno 8009 bound_to 7997
  155.2241  140.3309  155.4314 H   0  0  0  0  0  0  0  0  0  0  0  0  # atno 8010 bound_to 7997
  140.6737  143.2746  151.4052 H   0  0  0  0  0  0  0  0  0  0  0  0  # atno 10167 bound_to 10162
  157.5772  130.8953  149.9368 H   0  0  0  0  0  0  0  0  0  0  0  0  # atno 10718 bound_to 10713
  153.2166  135.4370  155.0442 H   0  0  0  0  0  0  0  0  0  0  0  0  # atno 10763 bound_to 10752
  154.8228  135.3346  154.6989 H   0  0  0  0  0  0  0  0  0  0  0  0  # atno 10764 bound_to 10752
  153.7423  135.7004  153.5020 H   0  0  0  0  0  0  0  0  0  0  0  0  # atno 10765 bound_to 10752
  141.0088  133.6918  156.2161 H   0  0  0  0  0  0  0  0  0  0  0  0  # atno 11005 bound_to 11000
  146.2739  139.6703  142.9277 LP  0  0  0  0  0  0  0  0  0  0  0  0  # atno 17320 bound_to 7965
  145.4610  141.0433  143.2751 LP  0  0  0  0  0  0  0  0  0  0  0  0  # atno 17321 bound_to 7965
  139.6018  144.1281  152.2206 LP  0  0  0  0  0  0  0  0  0  0  0  0  # atno 17342 bound_to 10162
  140.0667  144.5813  150.7222 LP  0  0  0  0  0  0  0  0  0  0  0  0  # atno 17343 bound_to 10162
  156.0817  130.3672  150.0567 LP  0  0  0  0  0  0  0  0  0  0  0  0  # atno 17370 bound_to 10713
  156.8711  130.9524  151.3609 LP  0  0  0  0  0  0  0  0  0  0  0  0  # atno 17371 bound_to 10713
  140.6769  134.4809  157.5588 LP  0  0  0  0  0  0  0  0  0  0  0  0  # atno 17394 bound_to 11000
  139.9078  134.8411  156.1640 LP  0  0  0  0  0  0  0  0  0  0  0  0  # atno 17395 bound_to 11000

$$$$
