AV-unprocessed.smi:2340|AV-procd|sdf|9345|dock6
  -GOLD-   2272012563D 1   1.00000     0.00000
 Structure written by MMmdl.
 40 41  0  0  0  0  0  0  0  0  1 V2000
  148.5710  133.3608  154.1974 C   0  0  0  0  0  0  0  0  0  0  0  0
  147.5706  133.4382  153.0875 C   0  0  0  0  0  0  0  0  0  0  0  0
  147.3510  132.5036  152.1067 C   0  0  0  0  0  0  0  0  0  0  0  0
  146.0837  132.9926  151.0158 S   0  0  0  0  0  0  0  0  0  0  0  0
  145.8930  134.4740  151.9476 C   0  0  0  0  0  0  0  0  0  0  0  0
  144.8910  135.5319  151.6070 C   0  0  1  0  0  0  0  0  0  0  0  0
  143.4648  134.9586  151.5353 C   0  0  0  0  0  0  0  0  0  0  0  0
  145.0338  136.7648  152.5262 C   0  0  0  0  0  0  0  0  0  0  0  0
  146.4255  137.1147  152.7920 N   0  0  0  0  0  0  0  0  0  0  0  0
  146.8313  138.0243  153.6883 C   0  0  0  0  0  0  0  0  0  0  0  0
  146.0688  138.6891  154.3897 O   0  0  0  0  0  0  0  0  0  0  0  0
  148.1673  138.1122  153.7354 N   0  0  0  0  0  0  0  0  0  0  0  0
  148.9179  138.9829  154.6345 C   0  0  2  0  0  0  0  0  0  0  0  0
  148.5891  140.4434  154.4021 C   0  0  0  0  0  0  0  0  0  0  0  0
  149.8336  141.1434  154.9398 C   0  0  0  0  0  0  0  0  0  0  0  0
  150.9114  140.2281  154.7675 O   0  0  0  0  0  0  0  0  0  0  0  0
  150.4226  138.9607  154.3391 C   0  0  1  0  0  0  0  0  0  0  0  0
  151.1922  137.8328  155.0375 C   0  0  0  0  0  0  0  0  0  0  0  0
  146.7366  134.5547  152.9818 N   0  0  0  0  0  0  0  0  0  0  0  0
  149.1903  132.4671  154.1147 H   0  0  0  0  0  0  0  0  0  0  0  0
  148.0779  133.3305  155.1691 H   0  0  0  0  0  0  0  0  0  0  0  0
  149.2366  134.2242  154.1898 H   0  0  0  0  0  0  0  0  0  0  0  0
  147.8552  131.5598  151.9605 H   0  0  0  0  0  0  0  0  0  0  0  0
  145.1372  135.8596  150.5961 H   0  0  0  0  0  0  0  0  0  0  0  0
  143.4164  134.1206  150.8395 H   0  0  0  0  0  0  0  0  0  0  0  0
  142.7474  135.7049  151.1936 H   0  0  0  0  0  0  0  0  0  0  0  0
  143.1335  134.6008  152.5105 H   0  0  0  0  0  0  0  0  0  0  0  0
  144.5542  137.6295  152.0665 H   0  0  0  0  0  0  0  0  0  0  0  0
  144.5157  136.5930  153.4713 H   0  0  0  0  0  0  0  0  0  0  0  0
  147.1284  136.6194  152.2631 H   0  0  0  0  0  0  0  0  0  0  0  0
  148.7056  137.5218  153.1185 H   0  0  0  0  0  0  0  0  0  0  0  0
  148.7292  138.7395  155.6823 H   0  0  0  0  0  0  0  0  0  0  0  0
  148.4860  140.6488  153.3353 H   0  0  0  0  0  0  0  0  0  0  0  0
  147.6730  140.7622  154.9002 H   0  0  0  0  0  0  0  0  0  0  0  0
  150.0287  142.0887  154.4331 H   0  0  0  0  0  0  0  0  0  0  0  0
  149.7231  141.3479  156.0053 H   0  0  0  0  0  0  0  0  0  0  0  0
  150.5859  138.9036  153.2614 H   0  0  0  0  0  0  0  0  0  0  0  0
  150.8468  136.8548  154.7028 H   0  0  0  0  0  0  0  0  0  0  0  0
  151.0681  137.8806  156.1197 H   0  0  0  0  0  0  0  0  0  0  0  0
  152.2585  137.8989  154.8209 H   0  0  0  0  0  0  0  0  0  0  0  0
  1  2  1  0  0  0  0
  1 20  1  0  0  0  0
  1 21  1  0  0  0  0
  1 22  1  0  0  0  0
  2 19  1  0  0  0  0
  2  3  2  0  0  0  0
  3  4  1  0  0  0  0
  3 23  1  0  0  0  0
  4  5  1  0  0  0  0
  5  6  1  0  0  0  0
  5 19  2  0  0  0  0
  6  7  1  0  0  0  0
  6  8  1  0  0  0  0
  6 24  1  0  0  0  0
  7 25  1  0  0  0  0
  7 26  1  0  0  0  0
  7 27  1  0  0  0  0
  8  9  1  0  0  0  0
  8 28  1  0  0  0  0
  8 29  1  0  0  0  0
  9 10  1  0  0  0  0
  9 30  1  0  0  0  0
 10 11  2  0  0  0  0
 10 12  1  0  0  0  0
 12 13  1  0  0  0  0
 12 31  1  0  0  0  0
 13 17  1  0  0  0  0
 13 14  1  0  0  0  0
 13 32  1  0  0  0  0
 14 15  1  0  0  0  0
 14 33  1  0  0  0  0
 14 34  1  0  0  0  0
 15 16  1  0  0  0  0
 15 35  1  0  0  0  0
 15 36  1  0  0  0  0
 16 17  1  0  0  0  0
 17 18  1  0  0  0  0
 17 37  1  0  0  0  0
 18 38  1  0  0  0  0
 18 39  1  0  0  0  0
 18 40  1  0  0  0  0
M  END
> <s_m_source_file>
AV-unprocessed.smi

> <i_m_source_file_index>
2340

> <i_lp_mmshare_version>
43012

> <i_f3d_flags>
0

> <s_epik_input>
W0NIM11jMVtjSF1zYyhuMSlbQ0BIXShbQ0gzXSlbQ0gyXVtOSF1DKD1PKVtOSF1bQ0BASF0yW0NIMl1bQ0gyXU9bQ0BIXTJbQ0gzXQ==

> <s_epik_cmdline>
J2VwaWtfcHl0aG9uJywgJy1waCcsICc3LjAnLCAnLXRuJywgJzgnLCAnLW1hJywgJzIwMCcsICctbWV0YWxfYmluZGluZycsICctaW1hZScsICc8aW5maWxlLm1hZT4nLCAnLW9tYWUnLCAnPG91dGZpbGUubWFlPic=

> <r_epik_Ionization_Penalty>
0.00156622

> <r_epik_Ionization_Penalty_Charging>
0

> <r_epik_Ionization_Penalty_Neutral>
0.00156622

> <r_epik_State_Penalty>
0.00101902

> <r_epik_Charging_Adjusted_Penalty>
0.00101902

> <i_epik_Tot_Q>
0

> <i_epik_Tot_abs_Q>
0

> <r_epik_Metal_State_Penalty>
-0

> <b_epik_Metal_Only>
0

> <s_lp_Force_Field>
OPLS_2005

> <r_lp_Energy>
4.85076

> <b_lp_Chiralities_Consistent>
1

> <s_lp_Variant>
AV-unprocessed.smi:2340-2

> <Gold.Version>
5.8.1

> <Gold.Id.Protein>
6NUR|6NUR_protein|mol2

> <Gold.PLP.Fitness>
41.9881

> <Gold.PLP.PLP>
-30.3050

> <Gold.PLP.part.hbond>
-3.0000

> <Gold.PLP.part.metal>
0.0000

> <Gold.PLP.part.buried>
-1.9973

> <Gold.PLP.part.nonpolar>
-26.7946

> <Gold.PLP.part.repulsive>
1.3374

> <Gold.PLP.ligand.clash>
0.0000

> <Gold.PLP.ligand.torsion>
0.2245

> <Gold.PLP.Chemscore.Hbond>
3.0000

> <Gold.PLP.Chemscore.CHOScore>
1.0000

> <Gold.PLP.Chemscore.Metal>
0.0000

> <Gold.Chemscore.Hbonds>
donor molecule, donor type, donor heavy atom, donor atom, acceptor molecule, acceptor atom, score
      L1  H     9    30       P1  7948  1.00
      L1  H    12    31       P1  7948  1.00
      P1  H  7989  7998       L1    16  1.00
      L1  C     3    23       P1 10747  1.00

> <Gold.PLP.Chemscore.Internal.Correction>
0.1321

> <Gold.Rescore>
     Score         DG    S(hbond)    S(metal)    S(lipo)     H(rot)  DE(clash)    DE(int)     intcor
     16.69     -18.65       2.58        0.00      72.57       1.53       0.05       1.91       ----

> <Gold.Chemscore.Fitness>
16.6940

> <Gold.Chemscore.DG>
-18.6534

> <Gold.Chemscore.ZeroCoef>
-5.4800

> <Gold.Chemscore.Hbond>
2.5766

> <Gold.Chemscore.Metal>
0.0000

> <Gold.Chemscore.Lipo>
72.5714

> <Gold.Chemscore.Internal_Hbond>
0.0000

> <Gold.Chemscore.DEClash>
0.0485

> <Gold.Chemscore.DEInternal>
1.9109

> <Gold.Chemscore.Rot>
1.5325

> <Gold.Chemscore.Internal.Correction>
   9.000000E+99

> <Gold.Chemscore.Hbonds>
donor molecule, donor type, donor heavy atom, donor atom, acceptor molecule, acceptor atom, score
      L1  H     9    30       P1  7948  0.96
      L1  H    12    31       P1  7948  0.99
      P1  H  7989  7998       L1    16  0.14

> <Gold.Chemscore.Hbond.Weighted>
-8.6059

> <Gold.Chemscore.Metal.Weighted>
-0.0000

> <Gold.Chemscore.Lipo.Weighted>
-8.4909

> <Gold.Chemscore.Internal_Hbond.Weighted>
0.0000

> <Gold.Chemscore.DEClash.Weighted>
0.0485

> <Gold.Chemscore.DEInternal.Weighted>
1.9109

> <Gold.Chemscore.Rot.Weighted>
3.9233

> <Gold.Chemscore.Internal.Correction.Weighted>
   9.000000E+99

> <Gold.Protein.RotatedTorsions>
[ 6907 6896 6895 6894 ] final -132.44 input  -60.11 | X-H torsion
[ 7974 7965 7964 7962 ] final  131.26 input  175.53 | X-H torsion
[ 8008 7997 7996 7995 ] final  -87.45 input   59.86 | X-H torsion
[ 10167 10162 10161 10158 ] final  -30.41 input  -65.29 | X-H torsion
[ 10718 10713 10712 10709 ] final  -34.48 input   66.30 | X-H torsion
[ 10763 10752 10751 10750 ] final -142.64 input  -60.55 | X-H torsion
[ 11005 11000 10999 10996 ] final   81.58 input  -57.11 | X-H torsion

> <Gold.Protein.ActiveResidues>
 VAL166  LYS551  ARG553  GLY616  TRP617  ASP618  TYR619  PRO620  LYS621  CYS622 
 ASP623  PHE694  ASN695  SER759  ASP760  ASP761  ALA762  ILE779  LEU786  VAL792 
 PHE793  MET794  SER795  GLU796  ALA797  LYS798  CYS799  TRP800  GLU811  SER814 

> <Gold.Protein.RotatedAtoms>
  150.9624  133.6431  159.2751 H   0  0  0  0  0  0  0  0  0  0  0  0  # atno 6907 bound_to 6896
  151.3749  135.0928  159.9487 H   0  0  0  0  0  0  0  0  0  0  0  0  # atno 6908 bound_to 6896
  152.5152  133.9170  159.7570 H   0  0  0  0  0  0  0  0  0  0  0  0  # atno 6909 bound_to 6896
  145.0092  139.4236  143.5253 H   0  0  0  0  0  0  0  0  0  0  0  0  # atno 7974 bound_to 7965
  154.6634  140.0566  157.0087 H   0  0  0  0  0  0  0  0  0  0  0  0  # atno 8008 bound_to 7997
  155.1195  140.3246  155.4482 H   0  0  0  0  0  0  0  0  0  0  0  0  # atno 8009 bound_to 7997
  156.2627  140.2000  156.6318 H   0  0  0  0  0  0  0  0  0  0  0  0  # atno 8010 bound_to 7997
  140.7249  143.3851  151.1530 H   0  0  0  0  0  0  0  0  0  0  0  0  # atno 10167 bound_to 10162
  156.3501  130.4307  149.7712 H   0  0  0  0  0  0  0  0  0  0  0  0  # atno 10718 bound_to 10713
  154.8501  135.3490  154.6061 H   0  0  0  0  0  0  0  0  0  0  0  0  # atno 10763 bound_to 10752
  153.6669  135.6987  153.5164 H   0  0  0  0  0  0  0  0  0  0  0  0  # atno 10764 bound_to 10752
  153.2773  135.4274  155.1002 H   0  0  0  0  0  0  0  0  0  0  0  0  # atno 10765 bound_to 10752
  139.9093  134.8007  156.2060 H   0  0  0  0  0  0  0  0  0  0  0  0  # atno 11005 bound_to 11000
  146.3467  139.9526  142.8727 LP  0  0  0  0  0  0  0  0  0  0  0  0  # atno 17320 bound_to 7965
  145.2046  140.9869  143.4136 LP  0  0  0  0  0  0  0  0  0  0  0  0  # atno 17321 bound_to 7965
  139.7446  143.8871  152.3060 LP  0  0  0  0  0  0  0  0  0  0  0  0  # atno 17342 bound_to 10162
  139.8704  144.7071  150.8994 LP  0  0  0  0  0  0  0  0  0  0  0  0  # atno 17343 bound_to 10162
  156.4915  130.8087  151.3096 LP  0  0  0  0  0  0  0  0  0  0  0  0  # atno 17370 bound_to 10713
  157.7460  130.9974  150.2813 LP  0  0  0  0  0  0  0  0  0  0  0  0  # atno 17371 bound_to 10713
  141.0495  133.6896  156.1745 LP  0  0  0  0  0  0  0  0  0  0  0  0  # atno 17394 bound_to 11000
  140.6832  134.4745  157.5589 LP  0  0  0  0  0  0  0  0  0  0  0  0  # atno 17395 bound_to 11000

$$$$
