AV-unprocessed.smi:1101|AV-procd|sdf|4765|dock1
  -GOLD-   22720 3303D 1   1.00000     0.00000
 Structure written by MMmdl.
 41 42  0  0  0  0  0  0  0  0  1 V2000
  151.8417  145.7310  159.9194 C   0  0  0  0  0  0  0  0  0  0  0  0
  151.4715  144.5685  158.9899 C   0  0  0  0  0  0  0  0  0  0  0  0
  151.8881  143.1986  159.5481 C   0  0  2  0  0  0  0  0  0  0  0  0
  153.4203  143.0634  159.6687 C   0  0  0  0  0  0  0  0  0  0  0  0
  153.7266  141.7158  160.1709 N   0  0  0  0  0  0  0  0  0  0  0  0
  154.1953  141.3958  161.4026 C   0  0  0  0  0  0  0  0  0  0  0  0
  154.7036  140.3066  161.6720 O   0  0  0  0  0  0  0  0  0  0  0  0
  154.0964  142.3792  162.3099 N   0  0  0  0  0  0  0  0  0  0  0  0
  154.5734  142.3018  163.6848 C   0  0  0  0  0  0  0  0  0  0  0  0
  154.7849  143.7036  164.2799 C   0  0  0  0  0  0  0  0  0  0  0  0
  155.5125  143.6662  165.5982 C   0  0  0  0  0  0  0  0  0  0  0  0
  156.1384  142.5479  166.2191 C   0  0  0  0  0  0  0  0  0  0  0  0
  156.7065  142.8520  167.3746 N   0  0  0  0  0  0  0  0  0  0  0  0
  156.4630  144.1692  167.5321 N   0  0  0  0  0  0  0  0  0  0  0  0
  156.9519  144.8482  168.7129 C   0  0  0  0  0  0  0  0  0  0  0  0
  155.7427  144.6869  166.4773 C   0  0  0  0  0  0  0  0  0  0  0  0
  153.2442  140.7063  159.2260 C   0  0  0  0  0  0  0  0  0  0  0  0
  151.7191  140.8597  159.0955 C   0  0  0  0  0  0  0  0  0  0  0  0
  151.4079  142.1833  158.6657 O   0  0  0  0  0  0  0  0  0  0  0  0
  151.5400  146.6847  159.4860 H   0  0  0  0  0  0  0  0  0  0  0  0
  152.9171  145.7698  160.0931 H   0  0  0  0  0  0  0  0  0  0  0  0
  151.3486  145.6367  160.8871 H   0  0  0  0  0  0  0  0  0  0  0  0
  150.3971  144.5787  158.8031 H   0  0  0  0  0  0  0  0  0  0  0  0
  151.9524  144.7271  158.0241 H   0  0  0  0  0  0  0  0  0  0  0  0
  151.4341  143.0641  160.5319 H   0  0  0  0  0  0  0  0  0  0  0  0
  153.8875  143.1951  158.6915 H   0  0  0  0  0  0  0  0  0  0  0  0
  153.8150  143.8667  160.2909 H   0  0  0  0  0  0  0  0  0  0  0  0
  153.6806  143.2523  162.0197 H   0  0  0  0  0  0  0  0  0  0  0  0
  153.8612  141.7404  164.2912 H   0  0  0  0  0  0  0  0  0  0  0  0
  155.5144  141.7494  163.7023 H   0  0  0  0  0  0  0  0  0  0  0  0
  155.3347  144.3115  163.5604 H   0  0  0  0  0  0  0  0  0  0  0  0
  153.8155  144.1902  164.3918 H   0  0  0  0  0  0  0  0  0  0  0  0
  156.2000  141.5303  165.8622 H   0  0  0  0  0  0  0  0  0  0  0  0
  156.7320  145.9144  168.6497 H   0  0  0  0  0  0  0  0  0  0  0  0
  158.0308  144.7135  168.7970 H   0  0  0  0  0  0  0  0  0  0  0  0
  156.4686  144.4379  169.6004 H   0  0  0  0  0  0  0  0  0  0  0  0
  155.4603  145.7287  166.4365 H   0  0  0  0  0  0  0  0  0  0  0  0
  153.7224  140.8577  158.2571 H   0  0  0  0  0  0  0  0  0  0  0  0
  153.4931  139.6882  159.5282 H   0  0  0  0  0  0  0  0  0  0  0  0
  151.3286  140.1502  158.3657 H   0  0  0  0  0  0  0  0  0  0  0  0
  151.2233  140.6494  160.0445 H   0  0  0  0  0  0  0  0  0  0  0  0
  1  2  1  0  0  0  0
  1 20  1  0  0  0  0
  1 21  1  0  0  0  0
  1 22  1  0  0  0  0
  2  3  1  0  0  0  0
  2 23  1  0  0  0  0
  2 24  1  0  0  0  0
  3 19  1  0  0  0  0
  3  4  1  0  0  0  0
  3 25  1  0  0  0  0
  4  5  1  0  0  0  0
  4 26  1  0  0  0  0
  4 27  1  0  0  0  0
  5  6  1  0  0  0  0
  5 17  1  0  0  0  0
  6  7  2  0  0  0  0
  6  8  1  0  0  0  0
  8  9  1  0  0  0  0
  8 28  1  0  0  0  0
  9 10  1  0  0  0  0
  9 29  1  0  0  0  0
  9 30  1  0  0  0  0
 10 11  1  0  0  0  0
 10 31  1  0  0  0  0
 10 32  1  0  0  0  0
 11 16  2  0  0  0  0
 11 12  1  0  0  0  0
 12 13  2  0  0  0  0
 12 33  1  0  0  0  0
 13 14  1  0  0  0  0
 14 15  1  0  0  0  0
 14 16  1  0  0  0  0
 15 34  1  0  0  0  0
 15 35  1  0  0  0  0
 15 36  1  0  0  0  0
 16 37  1  0  0  0  0
 17 18  1  0  0  0  0
 17 38  1  0  0  0  0
 17 39  1  0  0  0  0
 18 19  1  0  0  0  0
 18 40  1  0  0  0  0
 18 41  1  0  0  0  0
M  END
> <s_m_source_file>
AV-unprocessed.smi

> <i_m_source_file_index>
1101

> <i_lp_mmshare_version>
43012

> <i_f3d_flags>
0

> <s_epik_input>
W0NIM11bQ0gyXVtDQEBIXTFbQ0gyXU4oW0NIMl1bQ0gyXU8xKUMoPU8pW05IXVtDSDJdW0NIMl1jMltjSF1ubihbQ0gzXSlbY0hdMg==

> <s_epik_cmdline>
J2VwaWtfcHl0aG9uJywgJy1waCcsICc3LjAnLCAnLXRuJywgJzgnLCAnLW1hJywgJzIwMCcsICctbWV0YWxfYmluZGluZycsICctaW1hZScsICc8aW5maWxlLm1hZT4nLCAnLW9tYWUnLCAnPG91dGZpbGUubWFlPic=

> <r_lp_tautomer_probability>
1

> <r_epik_Ionization_Penalty>
0.000536373

> <r_epik_Ionization_Penalty_Charging>
0

> <r_epik_Ionization_Penalty_Neutral>
0.000536373

> <r_epik_State_Penalty>
-0

> <r_epik_Charging_Adjusted_Penalty>
0

> <i_epik_Tot_Q>
0

> <i_epik_Tot_abs_Q>
0

> <r_epik_Metal_State_Penalty>
-0

> <b_epik_Metal_Only>
0

> <s_lp_Force_Field>
OPLS_2005

> <r_lp_Energy>
25.5817

> <b_lp_Chiralities_Consistent>
1

> <s_lp_Variant>
AV-unprocessed.smi:1101-1

> <Gold.Version>
5.8.1

> <Gold.Id.Protein>
6NUR|6NUR_protein|mol2

> <Gold.PLP.Fitness>
46.9099

> <Gold.PLP.PLP>
-47.7430

> <Gold.PLP.part.hbond>
-0.9301

> <Gold.PLP.part.metal>
0.0000

> <Gold.PLP.part.buried>
-4.1138

> <Gold.PLP.part.nonpolar>
-43.0998

> <Gold.PLP.part.repulsive>
0.0631

> <Gold.PLP.ligand.clash>
0.0000

> <Gold.PLP.ligand.torsion>
0.4529

> <Gold.PLP.Chemscore.Hbond>
0.0000

> <Gold.PLP.Chemscore.CHOScore>
0.0000

> <Gold.PLP.Chemscore.Metal>
0.0000

> <Gold.PLP.Chemscore.Internal.Correction>
0.0728

> <Gold.Rescore>
     Score         DG    S(hbond)    S(metal)    S(lipo)     H(rot)  DE(clash)    DE(int)     intcor
     14.18     -15.25       0.00        0.00     116.43       1.51       0.54       0.53       ----

> <Gold.Chemscore.Fitness>
14.1755

> <Gold.Chemscore.DG>
-15.2459

> <Gold.Chemscore.ZeroCoef>
-5.4800

> <Gold.Chemscore.Hbond>
0.0000

> <Gold.Chemscore.Metal>
0.0000

> <Gold.Chemscore.Lipo>
116.4252

> <Gold.Chemscore.Internal_Hbond>
0.0000

> <Gold.Chemscore.DEClash>
0.5423

> <Gold.Chemscore.DEInternal>
0.5281

> <Gold.Chemscore.Rot>
1.5062

> <Gold.Chemscore.Internal.Correction>
   9.000000E+99

> <Gold.Chemscore.Hbond.Weighted>
-0.0000

> <Gold.Chemscore.Metal.Weighted>
-0.0000

> <Gold.Chemscore.Lipo.Weighted>
-13.6217

> <Gold.Chemscore.Internal_Hbond.Weighted>
0.0000

> <Gold.Chemscore.DEClash.Weighted>
0.5423

> <Gold.Chemscore.DEInternal.Weighted>
0.5281

> <Gold.Chemscore.Rot.Weighted>
3.8558

> <Gold.Chemscore.Internal.Correction.Weighted>
   9.000000E+99

> <Gold.Protein.RotatedTorsions>
[ 6907 6896 6895 6894 ] final  173.00 input  -60.11 | X-H torsion
[ 7974 7965 7964 7962 ] final  122.28 input  175.53 | X-H torsion
[ 8008 7997 7996 7995 ] final  120.54 input   59.86 | X-H torsion
[ 10167 10162 10161 10158 ] final -178.66 input  -65.29 | X-H torsion
[ 10718 10713 10712 10709 ] final   53.90 input   66.30 | X-H torsion
[ 10763 10752 10751 10750 ] final  175.53 input  -60.55 | X-H torsion
[ 11005 11000 10999 10996 ] final -153.00 input  -57.11 | X-H torsion

> <Gold.Protein.ActiveResidues>
 VAL166  LYS551  ARG553  GLY616  TRP617  ASP618  TYR619  PRO620  LYS621  CYS622 
 ASP623  PHE694  ASN695  SER759  ASP760  ASP761  ALA762  ILE779  LEU786  VAL792 
 PHE793  MET794  SER795  GLU796  ALA797  LYS798  CYS799  TRP800  GLU811  SER814 

> <Gold.Protein.RotatedAtoms>
  151.7753  133.3344  159.3455 H   0  0  0  0  0  0  0  0  0  0  0  0  # atno 6907 bound_to 6896
  150.7446  134.5981  159.6032 H   0  0  0  0  0  0  0  0  0  0  0  0  # atno 6908 bound_to 6896
  152.3313  134.7257  160.0340 H   0  0  0  0  0  0  0  0  0  0  0  0  # atno 6909 bound_to 6896
  145.1094  139.3463  143.4771 H   0  0  0  0  0  0  0  0  0  0  0  0  # atno 7974 bound_to 7965
  156.2647  140.2828  156.1166 H   0  0  0  0  0  0  0  0  0  0  0  0  # atno 8008 bound_to 7997
  155.1200  140.0392  157.2765 H   0  0  0  0  0  0  0  0  0  0  0  0  # atno 8009 bound_to 7997
  154.6678  140.2581  155.7046 H   0  0  0  0  0  0  0  0  0  0  0  0  # atno 8010 bound_to 7997
  139.5422  144.2332  152.0917 H   0  0  0  0  0  0  0  0  0  0  0  0  # atno 10167 bound_to 10162
  157.5208  130.8564  149.8556 H   0  0  0  0  0  0  0  0  0  0  0  0  # atno 10718 bound_to 10713
  154.4688  135.2770  155.1658 H   0  0  0  0  0  0  0  0  0  0  0  0  # atno 10763 bound_to 10752
  154.3415  135.6169  153.5602 H   0  0  0  0  0  0  0  0  0  0  0  0  # atno 10764 bound_to 10752
  152.9862  135.5789  154.5065 H   0  0  0  0  0  0  0  0  0  0  0  0  # atno 10765 bound_to 10752
  140.7128  134.3813  157.5195 H   0  0  0  0  0  0  0  0  0  0  0  0  # atno 11005 bound_to 11000
  146.3527  140.1007  142.8608 LP  0  0  0  0  0  0  0  0  0  0  0  0  # atno 17320 bound_to 7965
  145.0864  140.9255  143.4795 LP  0  0  0  0  0  0  0  0  0  0  0  0  # atno 17321 bound_to 7965
  140.1813  144.4842  150.6527 LP  0  0  0  0  0  0  0  0  0  0  0  0  # atno 17342 bound_to 10162
  140.6656  143.2267  151.5750 LP  0  0  0  0  0  0  0  0  0  0  0  0  # atno 17343 bound_to 10162
  156.0352  130.3753  150.1579 LP  0  0  0  0  0  0  0  0  0  0  0  0  # atno 17370 bound_to 10713
  156.9767  130.9851  151.3447 LP  0  0  0  0  0  0  0  0  0  0  0  0  # atno 17371 bound_to 10713
  139.8867  134.8902  156.2569 LP  0  0  0  0  0  0  0  0  0  0  0  0  # atno 17394 bound_to 11000
  141.0069  133.7118  156.1050 LP  0  0  0  0  0  0  0  0  0  0  0  0  # atno 17395 bound_to 11000

$$$$
