AV-unprocessed.smi:1121|AV-procd|sdf|4826|dock7
  -GOLD-   22720 3383D 1   1.00000     0.00000
 Structure written by MMmdl.
 46 48  0  0  0  0  0  0  0  0  1 V2000
  145.1421  137.4363  153.8204 O   0  0  0  0  0  0  0  0  0  0  0  0
  146.2419  137.0996  153.3815 C   0  0  0  0  0  0  0  0  0  0  0  0
  147.3479  137.8616  153.3933 N   0  0  0  0  0  0  0  0  0  0  0  0
  147.5115  139.1645  153.9437 C   0  0  0  0  0  0  0  0  0  0  0  0
  146.5066  140.1575  153.8490 C   0  0  0  0  0  0  0  0  0  0  0  0
  146.7553  141.4381  154.3740 C   0  0  0  0  0  0  0  0  0  0  0  0
  148.0064  141.6855  154.9655 C   0  0  0  0  0  0  0  0  0  0  0  0
  148.9790  140.7554  155.0509 N   0  0  0  0  0  0  0  0  0  0  0  0
  148.7471  139.5168  154.5513 C   0  0  0  0  0  0  0  0  0  0  0  0
  149.7782  138.5639  154.6759 N   0  0  0  0  0  0  0  0  0  0  0  0
  151.1233  139.0641  154.9415 C   0  0  0  0  0  0  0  0  0  0  0  0
  152.1418  137.9182  154.8157 C   0  0  0  0  0  0  0  0  0  0  0  0
  151.7746  136.8550  155.6904 O   0  0  0  0  0  0  0  0  0  0  0  0
  150.4903  136.3226  155.3782 C   0  0  0  0  0  0  0  0  0  0  0  0
  149.4253  137.4241  155.5142 C   0  0  0  0  0  0  0  0  0  0  0  0
  146.4904  135.8971  152.8437 N   0  0  0  0  0  0  0  0  0  0  0  0
  145.5168  134.8189  152.6994 C   0  0  0  0  0  0  0  0  0  0  0  0
  146.1242  133.6378  151.9129 C   0  0  0  0  0  0  0  0  0  0  0  0
  145.0895  132.5258  151.6766 C   0  0  0  0  0  0  0  0  0  0  0  0
  143.8353  133.0697  150.9749 C   0  0  0  0  0  0  0  0  0  0  0  0
  143.2240  134.2394  151.7618 C   0  0  0  0  0  0  0  0  0  0  0  0
  144.2565  135.3545  151.9936 C   0  0  0  0  0  0  0  0  0  0  0  0
  148.1976  137.4172  153.0771 H   0  0  0  0  0  0  0  0  0  0  0  0
  145.5603  139.9651  153.3673 H   0  0  0  0  0  0  0  0  0  0  0  0
  146.0071  142.2147  154.3162 H   0  0  0  0  0  0  0  0  0  0  0  0
  148.2347  142.6578  155.3765 H   0  0  0  0  0  0  0  0  0  0  0  0
  151.3688  139.8620  154.2396 H   0  0  0  0  0  0  0  0  0  0  0  0
  151.1683  139.4872  155.9460 H   0  0  0  0  0  0  0  0  0  0  0  0
  152.1947  137.5553  153.7879 H   0  0  0  0  0  0  0  0  0  0  0  0
  153.1386  138.2696  155.0817 H   0  0  0  0  0  0  0  0  0  0  0  0
  150.4922  135.9084  154.3686 H   0  0  0  0  0  0  0  0  0  0  0  0
  150.2705  135.5005  156.0590 H   0  0  0  0  0  0  0  0  0  0  0  0
  149.3586  137.7525  156.5522 H   0  0  0  0  0  0  0  0  0  0  0  0
  148.4465  137.0274  155.2441 H   0  0  0  0  0  0  0  0  0  0  0  0
  147.4254  135.7102  152.5123 H   0  0  0  0  0  0  0  0  0  0  0  0
  145.2262  134.4698  153.6924 H   0  0  0  0  0  0  0  0  0  0  0  0
  146.5022  133.9893  150.9519 H   0  0  0  0  0  0  0  0  0  0  0  0
  146.9809  133.2275  152.4487 H   0  0  0  0  0  0  0  0  0  0  0  0
  145.5317  131.7269  151.0808 H   0  0  0  0  0  0  0  0  0  0  0  0
  144.8088  132.0800  152.6317 H   0  0  0  0  0  0  0  0  0  0  0  0
  144.0937  133.4011  149.9683 H   0  0  0  0  0  0  0  0  0  0  0  0
  143.0993  132.2735  150.8597 H   0  0  0  0  0  0  0  0  0  0  0  0
  142.3614  134.6371  151.2264 H   0  0  0  0  0  0  0  0  0  0  0  0
  142.8531  133.8797  152.7225 H   0  0  0  0  0  0  0  0  0  0  0  0
  143.8067  136.1530  152.5848 H   0  0  0  0  0  0  0  0  0  0  0  0
  144.5291  135.7968  151.0342 H   0  0  0  0  0  0  0  0  0  0  0  0
  1  2  2  0  0  0  0
  2  3  1  0  0  0  0
  2 16  1  0  0  0  0
  3  4  1  0  0  0  0
  3 23  1  0  0  0  0
  4  9  1  0  0  0  0
  4  5  2  0  0  0  0
  5  6  1  0  0  0  0
  5 24  1  0  0  0  0
  6  7  2  0  0  0  0
  6 25  1  0  0  0  0
  7  8  1  0  0  0  0
  7 26  1  0  0  0  0
  8  9  2  0  0  0  0
  9 10  1  0  0  0  0
 10 15  1  0  0  0  0
 10 11  1  0  0  0  0
 11 12  1  0  0  0  0
 11 27  1  0  0  0  0
 11 28  1  0  0  0  0
 12 13  1  0  0  0  0
 12 29  1  0  0  0  0
 12 30  1  0  0  0  0
 13 14  1  0  0  0  0
 14 15  1  0  0  0  0
 14 31  1  0  0  0  0
 14 32  1  0  0  0  0
 15 33  1  0  0  0  0
 15 34  1  0  0  0  0
 16 17  1  0  0  0  0
 16 35  1  0  0  0  0
 17 22  1  0  0  0  0
 17 18  1  0  0  0  0
 17 36  1  0  0  0  0
 18 19  1  0  0  0  0
 18 37  1  0  0  0  0
 18 38  1  0  0  0  0
 19 20  1  0  0  0  0
 19 39  1  0  0  0  0
 19 40  1  0  0  0  0
 20 21  1  0  0  0  0
 20 41  1  0  0  0  0
 20 42  1  0  0  0  0
 21 22  1  0  0  0  0
 21 43  1  0  0  0  0
 21 44  1  0  0  0  0
 22 45  1  0  0  0  0
 22 46  1  0  0  0  0
M  END
> <s_m_source_file>
AV-unprocessed.smi

> <i_m_source_file_index>
1121

> <i_lp_mmshare_version>
43012

> <i_f3d_flags>
0

> <s_epik_input>
W0NIMl0xW0NIMl1bQ0gyXVtDSDJdW0NIMl1bQ0hdMVtOSF1DKD1PKVtOSF1jMltjSF1bY0hdW2NIXW5jMk4zW0NIMl1bQ0gyXU9bQ0gyXVtDSDJdMw==

> <s_epik_cmdline>
J2VwaWtfcHl0aG9uJywgJy1waCcsICc3LjAnLCAnLXRuJywgJzgnLCAnLW1hJywgJzIwMCcsICctbWV0YWxfYmluZGluZycsICctaW1hZScsICc8aW5maWxlLm1hZT4nLCAnLW9tYWUnLCAnPG91dGZpbGUubWFlPic=

> <r_lp_tautomer_probability>
1

> <r_epik_Ionization_Penalty>
0.00218153

> <r_epik_Ionization_Penalty_Charging>
0

> <r_epik_Ionization_Penalty_Neutral>
0.00218153

> <r_epik_State_Penalty>
0.00146907

> <r_epik_Charging_Adjusted_Penalty>
0.00146907

> <i_epik_Tot_Q>
0

> <i_epik_Tot_abs_Q>
0

> <r_epik_Metal_State_Penalty>
-0

> <b_epik_Metal_Only>
0

> <s_lp_Force_Field>
OPLS_2005

> <r_lp_Energy>
26.2081

> <b_lp_Chiralities_Consistent>
1

> <s_lp_Variant>
AV-unprocessed.smi:1121-1

> <Gold.Version>
5.8.1

> <Gold.Id.Protein>
6NUR|6NUR_protein|mol2

> <Gold.PLP.Fitness>
42.9975

> <Gold.PLP.PLP>
-31.9643

> <Gold.PLP.part.hbond>
-3.0000

> <Gold.PLP.part.metal>
0.0000

> <Gold.PLP.part.buried>
-3.9650

> <Gold.PLP.part.nonpolar>
-26.2776

> <Gold.PLP.part.repulsive>
0.5250

> <Gold.PLP.ligand.clash>
0.0000

> <Gold.PLP.ligand.torsion>
0.5781

> <Gold.PLP.Chemscore.Hbond>
2.9920

> <Gold.PLP.Chemscore.CHOScore>
1.0000

> <Gold.PLP.Chemscore.Metal>
0.0000

> <Gold.Chemscore.Hbonds>
donor molecule, donor type, donor heavy atom, donor atom, acceptor molecule, acceptor atom, score
      L1  H     3    23       P1  7948  0.93
      L1  H    16    35       P1  7948  1.00
      P1  H 10752 10763       L1    13  0.65
      L1  C     7    26       P1  8028  1.00

> <Gold.PLP.Chemscore.Internal.Correction>
0.2134

> <Gold.Rescore>
     Score         DG    S(hbond)    S(metal)    S(lipo)     H(rot)  DE(clash)    DE(int)     intcor
     15.84     -20.04       2.51        0.00      78.55       1.18       0.23       3.97       ----

> <Gold.Chemscore.Fitness>
15.8399

> <Gold.Chemscore.DG>
-20.0373

> <Gold.Chemscore.ZeroCoef>
-5.4800

> <Gold.Chemscore.Hbond>
2.5148

> <Gold.Chemscore.Metal>
0.0000

> <Gold.Chemscore.Lipo>
78.5467

> <Gold.Chemscore.Internal_Hbond>
0.0000

> <Gold.Chemscore.DEClash>
0.2294

> <Gold.Chemscore.DEInternal>
3.9680

> <Gold.Chemscore.Rot>
1.1844

> <Gold.Chemscore.Internal.Correction>
   9.000000E+99

> <Gold.Chemscore.Hbonds>
donor molecule, donor type, donor heavy atom, donor atom, acceptor molecule, acceptor atom, score
      L1  H     3    23       P1  7948  0.90
      L1  H    16    35       P1  7948  0.97
      P1  H 10752 10763       L1    13  0.02

> <Gold.Chemscore.Hbond.Weighted>
-8.3994

> <Gold.Chemscore.Metal.Weighted>
-0.0000

> <Gold.Chemscore.Lipo.Weighted>
-9.1900

> <Gold.Chemscore.Internal_Hbond.Weighted>
0.0000

> <Gold.Chemscore.DEClash.Weighted>
0.2294

> <Gold.Chemscore.DEInternal.Weighted>
3.9680

> <Gold.Chemscore.Rot.Weighted>
3.0321

> <Gold.Chemscore.Internal.Correction.Weighted>
   9.000000E+99

> <Gold.Protein.RotatedTorsions>
[ 6907 6896 6895 6894 ] final   97.10 input  -60.11 | X-H torsion
[ 7974 7965 7964 7962 ] final  158.01 input  175.53 | X-H torsion
[ 8008 7997 7996 7995 ] final -138.12 input   59.86 | X-H torsion
[ 10167 10162 10161 10158 ] final -104.43 input  -65.29 | X-H torsion
[ 10718 10713 10712 10709 ] final   52.57 input   66.30 | X-H torsion
[ 10763 10752 10751 10750 ] final   72.08 input  -60.55 | X-H torsion
[ 11005 11000 10999 10996 ] final  -72.75 input  -57.11 | X-H torsion

> <Gold.Protein.ActiveResidues>
 VAL166  LYS551  ARG553  GLY616  TRP617  ASP618  TYR619  PRO620  LYS621  CYS622 
 ASP623  PHE694  ASN695  SER759  ASP760  ASP761  ALA762  ILE779  LEU786  VAL792 
 PHE793  MET794  SER795  GLU796  ALA797  LYS798  CYS799  TRP800  GLU811  SER814 

> <Gold.Protein.RotatedAtoms>
  152.5427  134.0784  159.8224 H   0  0  0  0  0  0  0  0  0  0  0  0  # atno 6907 bound_to 6896
  151.0889  133.5324  159.2623 H   0  0  0  0  0  0  0  0  0  0  0  0  # atno 6908 bound_to 6896
  151.2122  135.0494  159.8970 H   0  0  0  0  0  0  0  0  0  0  0  0  # atno 6909 bound_to 6896
  144.7870  139.7420  143.6237 H   0  0  0  0  0  0  0  0  0  0  0  0  # atno 7974 bound_to 7965
  155.4230  140.0520  157.3024 H   0  0  0  0  0  0  0  0  0  0  0  0  # atno 8008 bound_to 7997
  154.4894  140.2114  155.9541 H   0  0  0  0  0  0  0  0  0  0  0  0  # atno 8009 bound_to 7997
  156.1320  140.3170  155.8369 H   0  0  0  0  0  0  0  0  0  0  0  0  # atno 8010 bound_to 7997
  140.2093  143.3758  152.1064 H   0  0  0  0  0  0  0  0  0  0  0  0  # atno 10167 bound_to 10162
  157.5087  130.8486  149.8407 H   0  0  0  0  0  0  0  0  0  0  0  0  # atno 10718 bound_to 10713
  153.0437  135.5113  154.7690 H   0  0  0  0  0  0  0  0  0  0  0  0  # atno 10763 bound_to 10752
  154.6607  135.2938  154.9873 H   0  0  0  0  0  0  0  0  0  0  0  0  # atno 10764 bound_to 10752
  154.0725  135.6675  153.4879 H   0  0  0  0  0  0  0  0  0  0  0  0  # atno 10765 bound_to 10752
  141.1613  133.6856  156.7106 H   0  0  0  0  0  0  0  0  0  0  0  0  # atno 11005 bound_to 11000
  146.2106  139.5460  142.9683 LP  0  0  0  0  0  0  0  0  0  0  0  0  # atno 17320 bound_to 7965
  145.5895  141.0371  143.2078 LP  0  0  0  0  0  0  0  0  0  0  0  0  # atno 17321 bound_to 7965
  139.5186  144.7008  151.5499 LP  0  0  0  0  0  0  0  0  0  0  0  0  # atno 17342 bound_to 10162
  140.6335  143.9031  150.6626 LP  0  0  0  0  0  0  0  0  0  0  0  0  # atno 17343 bound_to 10162
  156.0275  130.3775  150.1781 LP  0  0  0  0  0  0  0  0  0  0  0  0  # atno 17370 bound_to 10713
  156.9971  130.9911  151.3400 LP  0  0  0  0  0  0  0  0  0  0  0  0  # atno 17371 bound_to 10713
  140.2890  134.8256  157.4000 LP  0  0  0  0  0  0  0  0  0  0  0  0  # atno 17394 bound_to 11000
  140.1364  134.5028  155.8065 LP  0  0  0  0  0  0  0  0  0  0  0  0  # atno 17395 bound_to 11000

$$$$
