AV-unprocessed.smi:266|AV-procd|sdf|2038|dock8
  -GOLD-   2262021253D 1   1.00000     0.00000
 Structure written by MMmdl.
 52 55  0  0  0  0  0  0  0  0  1 V2000
  146.7832  133.8346  152.2467 C   0  0  0  0  0  0  0  0  0  0  0  0
  146.0827  133.6415  150.8929 C   0  0  1  0  0  0  0  0  0  0  0  0
  146.0235  132.2385  150.6434 O   0  0  0  0  0  0  0  0  0  0  0  0
  144.8389  131.9435  149.9246 C   0  0  0  0  0  0  0  0  0  0  0  0
  143.8217  132.8699  150.5723 C   0  0  0  0  0  0  0  0  0  0  0  0
  144.6183  134.1538  150.7848 C   0  0  2  0  0  0  0  0  0  0  0  0
  144.5193  134.9239  149.5976 O   0  0  0  0  0  0  0  0  0  0  0  0
  144.0990  135.0262  151.9583 C   0  0  0  0  0  0  0  0  0  0  0  0
  144.9929  136.1232  152.2982 N   0  0  0  0  0  0  0  0  0  0  0  0
  145.4446  137.1144  151.4551 C   0  0  0  0  0  0  0  0  0  0  0  0
  146.2317  137.9989  152.0050 N   0  0  0  0  0  0  0  0  0  0  0  0
  146.3378  137.5792  153.3251 C   0  0  0  0  0  0  0  0  0  0  0  0
  147.0196  138.0704  154.4726 C   0  0  0  0  0  0  0  0  0  0  0  0
  147.7738  139.1874  154.4901 N   0  0  0  0  0  0  0  0  0  0  0  0
  147.0366  140.3906  154.1277 C   0  0  0  0  0  0  0  0  0  0  0  0
  148.6640  139.2601  155.6447 C   0  0  0  0  0  0  0  0  0  0  0  0
  149.9361  138.4165  155.4565 C   0  0  1  0  0  0  0  0  0  0  0  0
  150.8367  138.9699  154.3355 C   0  0  0  0  0  0  0  0  0  0  0  0
  152.1966  138.2690  154.4095 C   0  0  0  0  0  0  0  0  0  0  0  0
  152.5020  137.9795  156.1915 S   0  0  0  0  0  0  0  0  0  0  0  0
  152.8073  136.5562  156.4008 O   0  0  0  0  0  0  0  0  0  0  0  0
  153.3894  139.0297  156.7137 O   0  0  0  0  0  0  0  0  0  0  0  0
  150.7862  138.3265  156.7357 C   0  0  0  0  0  0  0  0  0  0  0  0
  146.8915  137.3872  155.6358 N   0  0  0  0  0  0  0  0  0  0  0  0
  146.1418  136.2815  155.6781 C   0  0  0  0  0  0  0  0  0  0  0  0
  145.4471  135.7053  154.6942 N   0  0  0  0  0  0  0  0  0  0  0  0
  145.5724  136.3969  153.5248 C   0  0  0  0  0  0  0  0  0  0  0  0
  146.8733  134.8903  152.5026 H   0  0  0  0  0  0  0  0  0  0  0  0
  147.7906  133.4191  152.2201 H   0  0  0  0  0  0  0  0  0  0  0  0
  146.2452  133.3313  153.0507 H   0  0  0  0  0  0  0  0  0  0  0  0
  146.7040  134.0927  150.1170 H   0  0  0  0  0  0  0  0  0  0  0  0
  144.9763  132.1843  148.8694 H   0  0  0  0  0  0  0  0  0  0  0  0
  144.5671  130.8911  150.0089 H   0  0  0  0  0  0  0  0  0  0  0  0
  142.9178  133.0033  149.9760 H   0  0  0  0  0  0  0  0  0  0  0  0
  143.5272  132.4472  151.5335 H   0  0  0  0  0  0  0  0  0  0  0  0
  145.2707  134.7372  149.0559 H   0  0  0  0  0  0  0  0  0  0  0  0
  143.1288  135.4588  151.7141 H   0  0  0  0  0  0  0  0  0  0  0  0
  143.9489  134.4178  152.8513 H   0  0  0  0  0  0  0  0  0  0  0  0
  145.1616  137.1667  150.4137 H   0  0  0  0  0  0  0  0  0  0  0  0
  146.2900  140.1821  153.3598 H   0  0  0  0  0  0  0  0  0  0  0  0
  147.7159  141.1447  153.7313 H   0  0  0  0  0  0  0  0  0  0  0  0
  146.5274  140.8112  154.9955 H   0  0  0  0  0  0  0  0  0  0  0  0
  148.9372  140.3030  155.8107 H   0  0  0  0  0  0  0  0  0  0  0  0
  148.1423  138.9322  156.5459 H   0  0  0  0  0  0  0  0  0  0  0  0
  149.6563  137.4027  155.1676 H   0  0  0  0  0  0  0  0  0  0  0  0
  150.3794  138.8492  153.3532 H   0  0  0  0  0  0  0  0  0  0  0  0
  150.9839  140.0399  154.4884 H   0  0  0  0  0  0  0  0  0  0  0  0
  152.1603  137.3001  153.9114 H   0  0  0  0  0  0  0  0  0  0  0  0
  153.0065  138.8562  153.9763 H   0  0  0  0  0  0  0  0  0  0  0  0
  150.7924  139.2763  157.2717 H   0  0  0  0  0  0  0  0  0  0  0  0
  150.4437  137.5488  157.4183 H   0  0  0  0  0  0  0  0  0  0  0  0
  146.0878  135.7903  156.6384 H   0  0  0  0  0  0  0  0  0  0  0  0
  1  2  1  0  0  0  0
  1 28  1  0  0  0  0
  1 29  1  0  0  0  0
  1 30  1  0  0  0  0
  2  6  1  0  0  0  0
  2  3  1  0  0  0  0
  2 31  1  0  0  0  0
  3  4  1  0  0  0  0
  4  5  1  0  0  0  0
  4 32  1  0  0  0  0
  4 33  1  0  0  0  0
  5  6  1  0  0  0  0
  5 34  1  0  0  0  0
  5 35  1  0  0  0  0
  6  7  1  0  0  0  0
  6  8  1  0  0  0  0
  7 36  1  0  0  0  0
  8  9  1  0  0  0  0
  8 37  1  0  0  0  0
  8 38  1  0  0  0  0
  9 27  1  0  0  0  0
  9 10  1  0  0  0  0
 10 11  2  0  0  0  0
 10 39  1  0  0  0  0
 11 12  1  0  0  0  0
 12 27  2  0  0  0  0
 12 13  1  0  0  0  0
 13 14  1  0  0  0  0
 13 24  2  0  0  0  0
 14 15  1  0  0  0  0
 14 16  1  0  0  0  0
 15 40  1  0  0  0  0
 15 41  1  0  0  0  0
 15 42  1  0  0  0  0
 16 17  1  0  0  0  0
 16 43  1  0  0  0  0
 16 44  1  0  0  0  0
 17 23  1  0  0  0  0
 17 18  1  0  0  0  0
 17 45  1  0  0  0  0
 18 19  1  0  0  0  0
 18 46  1  0  0  0  0
 18 47  1  0  0  0  0
 19 20  1  0  0  0  0
 19 48  1  0  0  0  0
 19 49  1  0  0  0  0
 20 21  2  0  0  0  0
 20 22  2  0  0  0  0
 20 23  1  0  0  0  0
 23 50  1  0  0  0  0
 23 51  1  0  0  0  0
 24 25  1  0  0  0  0
 25 26  2  0  0  0  0
 25 52  1  0  0  0  0
 26 27  1  0  0  0  0
M  END
> <s_m_source_file>
AV-unprocessed.smi

> <i_m_source_file_index>
266

> <i_lp_mmshare_version>
43012

> <i_f3d_flags>
0

> <s_epik_input>
W0NIMl0xW0NIMl1PW0NAQEhdKFtDSDNdKVtDQEBdMShbT0hdKVtDSDJdbihbY0hdbjIpYyhjMjMpbltjSF1uYzNOKFtDSDNdKVtDSDJdW0NAQEhdKFtDSDJdNClbQ0gyXVtDSDJdUzQoPU8pPU8=

> <s_epik_cmdline>
J2VwaWtfcHl0aG9uJywgJy1waCcsICc3LjAnLCAnLXRuJywgJzgnLCAnLW1hJywgJzIwMCcsICctbWV0YWxfYmluZGluZycsICctaW1hZScsICc8aW5maWxlLm1hZT4nLCAnLW9tYWUnLCAnPG91dGZpbGUubWFlPic=

> <r_lp_tautomer_probability>
1

> <r_epik_Ionization_Penalty>
0.00155497

> <r_epik_Ionization_Penalty_Charging>
0

> <r_epik_Ionization_Penalty_Neutral>
0.00155497

> <r_epik_State_Penalty>
-0

> <r_epik_Charging_Adjusted_Penalty>
0

> <i_epik_Tot_Q>
0

> <i_epik_Tot_abs_Q>
0

> <r_epik_Metal_State_Penalty>
-0

> <b_epik_Metal_Only>
0

> <s_lp_Force_Field>
OPLS_2005

> <r_lp_Energy>
32.9828

> <b_lp_Chiralities_Consistent>
1

> <s_lp_Variant>
AV-unprocessed.smi:266-8

> <Gold.Version>
5.8.1

> <Gold.Id.Protein>
6NUR|6NUR_protein|mol2

> <Gold.PLP.Fitness>
42.6479

> <Gold.PLP.PLP>
-32.2521

> <Gold.PLP.part.hbond>
-2.6096

> <Gold.PLP.part.metal>
0.0000

> <Gold.PLP.part.buried>
-4.5917

> <Gold.PLP.part.nonpolar>
-26.5053

> <Gold.PLP.part.repulsive>
0.6270

> <Gold.PLP.ligand.clash>
0.0000

> <Gold.PLP.ligand.torsion>
0.6866

> <Gold.PLP.Chemscore.Hbond>
3.0000

> <Gold.PLP.Chemscore.CHOScore>
0.7796

> <Gold.PLP.Chemscore.Metal>
0.0000

> <Gold.Chemscore.Hbonds>
donor molecule, donor type, donor heavy atom, donor atom, acceptor molecule, acceptor atom, score
      L1  H     7    36       P1  7921  1.00
      P1  H  7997  8009       L1    22  0.84
      P1  H 10752 10764       L1    21  1.00
      L1  C    10    39       P1 10171  0.75

> <Gold.PLP.Chemscore.Internal.Correction>
0.4304

> <Gold.Rescore>
     Score         DG    S(hbond)    S(metal)    S(lipo)     H(rot)  DE(clash)    DE(int)     intcor
     12.74     -17.01       2.94        0.00      75.02       2.76       1.23       3.03       ----

> <Gold.Chemscore.Fitness>
12.7435

> <Gold.Chemscore.DG>
-17.0057

> <Gold.Chemscore.ZeroCoef>
-5.4800

> <Gold.Chemscore.Hbond>
2.9413

> <Gold.Chemscore.Metal>
0.0000

> <Gold.Chemscore.Lipo>
75.0158

> <Gold.Chemscore.Internal_Hbond>
0.0000

> <Gold.Chemscore.DEClash>
1.2341

> <Gold.Chemscore.DEInternal>
3.0280

> <Gold.Chemscore.Rot>
2.7637

> <Gold.Chemscore.Internal.Correction>
   9.000000E+99

> <Gold.Chemscore.Hbonds>
donor molecule, donor type, donor heavy atom, donor atom, acceptor molecule, acceptor atom, score
      L1  H     7    36       P1  7921  0.97
      P1  H  7997  8009       L1    22  0.78
      P1  H 10752 10764       L1    21  0.96

> <Gold.Chemscore.Hbond.Weighted>
-9.8239

> <Gold.Chemscore.Metal.Weighted>
-0.0000

> <Gold.Chemscore.Lipo.Weighted>
-8.7769

> <Gold.Chemscore.Internal_Hbond.Weighted>
0.0000

> <Gold.Chemscore.DEClash.Weighted>
1.2341

> <Gold.Chemscore.DEInternal.Weighted>
3.0280

> <Gold.Chemscore.Rot.Weighted>
7.0750

> <Gold.Chemscore.Internal.Correction.Weighted>
   9.000000E+99

> <Gold.Protein.RotatedTorsions>
[ 6907 6896 6895 6894 ] final  -89.13 input  -60.11 | X-H torsion
[ 7974 7965 7964 7962 ] final  -96.32 input  175.53 | X-H torsion
[ 8008 7997 7996 7995 ] final  163.41 input   59.86 | X-H torsion
[ 10167 10162 10161 10158 ] final  110.09 input  -65.29 | X-H torsion
[ 10718 10713 10712 10709 ] final  -41.74 input   66.30 | X-H torsion
[ 10763 10752 10751 10750 ] final  -14.22 input  -60.55 | X-H torsion
[ 11005 11000 10999 10996 ] final  175.48 input  -57.11 | X-H torsion

> <Gold.Protein.ActiveResidues>
 VAL166  LYS551  ARG553  GLY616  TRP617  ASP618  TYR619  PRO620  LYS621  CYS622 
 ASP623  PHE694  ASN695  SER759  ASP760  ASP761  ALA762  ILE779  LEU786  VAL792 
 PHE793  MET794  SER795  GLU796  ALA797  LYS798  CYS799  TRP800  GLU811  SER814 

> <Gold.Protein.RotatedAtoms>
  150.6872  134.2634  159.4558 H   0  0  0  0  0  0  0  0  0  0  0  0  # atno 6907 bound_to 6896
  152.0562  134.9620  160.0584 H   0  0  0  0  0  0  0  0  0  0  0  0  # atno 6908 bound_to 6896
  152.1065  133.4243  159.4648 H   0  0  0  0  0  0  0  0  0  0  0  0  # atno 6909 bound_to 6896
  145.3484  140.9472  143.2568 H   0  0  0  0  0  0  0  0  0  0  0  0  # atno 7974 bound_to 7965
  156.1959  140.1724  156.7999 H   0  0  0  0  0  0  0  0  0  0  0  0  # atno 8008 bound_to 7997
  154.5529  140.0714  156.8728 H   0  0  0  0  0  0  0  0  0  0  0  0  # atno 8009 bound_to 7997
  155.2994  140.3360  155.4251 H   0  0  0  0  0  0  0  0  0  0  0  0  # atno 8010 bound_to 7997
  139.6715  144.7125  151.1679 H   0  0  0  0  0  0  0  0  0  0  0  0  # atno 10167 bound_to 10162
  156.2671  130.4203  149.8479 H   0  0  0  0  0  0  0  0  0  0  0  0  # atno 10718 bound_to 10713
  153.5251  135.7015  153.5712 H   0  0  0  0  0  0  0  0  0  0  0  0  # atno 10763 bound_to 10752
  153.3744  135.3936  155.1812 H   0  0  0  0  0  0  0  0  0  0  0  0  # atno 10764 bound_to 10752
  154.8690  135.3820  154.4743 H   0  0  0  0  0  0  0  0  0  0  0  0  # atno 10765 bound_to 10752
  140.3627  134.7099  157.4341 H   0  0  0  0  0  0  0  0  0  0  0  0  # atno 11005 bound_to 11000
  144.8737  139.5002  143.6756 LP  0  0  0  0  0  0  0  0  0  0  0  0  # atno 17320 bound_to 7965
  146.2978  139.7332  142.9113 LP  0  0  0  0  0  0  0  0  0  0  0  0  # atno 17321 bound_to 7965
  140.7620  143.5837  150.8868 LP  0  0  0  0  0  0  0  0  0  0  0  0  # atno 17342 bound_to 10162
  139.9502  143.6280  152.3031 LP  0  0  0  0  0  0  0  0  0  0  0  0  # atno 17343 bound_to 10162
  156.5973  130.8532  151.3423 LP  0  0  0  0  0  0  0  0  0  0  0  0  # atno 17370 bound_to 10713
  157.7271  130.9638  150.1684 LP  0  0  0  0  0  0  0  0  0  0  0  0  # atno 17371 bound_to 10713
  140.0614  134.5990  155.8745 LP  0  0  0  0  0  0  0  0  0  0  0  0  # atno 17394 bound_to 11000
  141.1979  133.6599  156.5765 LP  0  0  0  0  0  0  0  0  0  0  0  0  # atno 17395 bound_to 11000

$$$$
