AV-unprocessed.smi:3348|AV-procd|sdf|12915|dock8
  -GOLD-   2272019333D 1   1.00000     0.00000
 Structure written by MMmdl.
 47 48  0  0  0  0  0  0  0  0  2 V2000
  152.9543  142.0934  161.7555 C   0  0  0  0  0  0  0  0  0  0  0  0
  153.7699  141.7185  160.5106 C   0  0  2  0  0  0  0  0  0  0  0  0
  152.8840  141.7786  159.2467 C   0  0  0  0  0  0  0  0  0  0  0  0
  152.0058  142.9341  159.2091 N   0  0  0  0  0  0  0  0  0  0  0  0
  152.3447  144.2698  159.2622 C   0  0  0  0  0  0  0  0  0  0  0  0
  151.1854  144.9866  159.1836 C   0  0  0  0  0  0  0  0  0  0  0  0
  150.1774  143.9884  159.0721 C   0  0  0  0  0  0  0  0  0  0  0  0
  150.6722  142.7609  159.0849 N   0  0  0  0  0  0  0  0  0  0  0  0
  154.3511  140.3696  160.7004 N   0  3  0  0  0  0  0  0  0  0  0  0
  155.5197  140.3039  161.6035 C   0  0  0  0  0  0  0  0  0  0  0  0
  155.9120  138.8502  161.8813 C   0  0  0  0  0  0  0  0  0  0  0  0
  154.7758  138.0266  161.6650 O   0  0  0  0  0  0  0  0  0  0  0  0
  155.0308  136.6306  161.7652 C   0  0  2  0  0  0  0  0  0  0  0  0
  155.3216  136.2661  163.2371 C   0  0  0  0  0  0  0  0  0  0  0  0
  155.7421  134.7966  163.3834 C   0  0  0  0  0  0  0  0  0  0  0  0
  156.9532  134.4801  162.4955 C   0  0  0  0  0  0  0  0  0  0  0  0
  156.6660  134.8296  161.0278 C   0  0  0  0  0  0  0  0  0  0  0  0
  156.2422  136.3032  160.8620 C   0  0  1  0  0  0  0  0  0  0  0  0
  155.9543  136.6190  159.3851 C   0  0  0  0  0  0  0  0  0  0  0  0
  152.5367  143.0967  161.6640 H   0  0  0  0  0  0  0  0  0  0  0  0
  153.5752  142.0786  162.6519 H   0  0  0  0  0  0  0  0  0  0  0  0
  152.1255  141.4019  161.9124 H   0  0  0  0  0  0  0  0  0  0  0  0
  154.5761  142.4490  160.4252 H   0  0  0  0  0  0  0  0  0  0  0  0
  153.5025  141.7811  158.3482 H   0  0  0  0  0  0  0  0  0  0  0  0
  152.2584  140.8866  159.1868 H   0  0  0  0  0  0  0  0  0  0  0  0
  153.3704  144.5968  159.3518 H   0  0  0  0  0  0  0  0  0  0  0  0
  151.0742  146.0608  159.1976 H   0  0  0  0  0  0  0  0  0  0  0  0
  149.1089  144.1185  158.9815 H   0  0  0  0  0  0  0  0  0  0  0  0
  153.6361  139.7831  161.1070 H   0  0  0  0  0  0  0  0  0  0  0  0
  156.3635  140.8223  161.1502 H   0  0  0  0  0  0  0  0  0  0  0  0
  155.2940  140.8164  162.5395 H   0  0  0  0  0  0  0  0  0  0  0  0
  156.7473  138.5589  161.2443 H   0  0  0  0  0  0  0  0  0  0  0  0
  156.2406  138.7511  162.9168 H   0  0  0  0  0  0  0  0  0  0  0  0
  154.1694  136.0623  161.4080 H   0  0  0  0  0  0  0  0  0  0  0  0
  156.1139  136.9090  163.6229 H   0  0  0  0  0  0  0  0  0  0  0  0
  154.4469  136.4493  163.8602 H   0  0  0  0  0  0  0  0  0  0  0  0
  155.9776  134.5785  164.4254 H   0  0  0  0  0  0  0  0  0  0  0  0
  154.9082  134.1482  163.1117 H   0  0  0  0  0  0  0  0  0  0  0  0
  157.8213  135.0415  162.8436 H   0  0  0  0  0  0  0  0  0  0  0  0
  157.2119  133.4245  162.5824 H   0  0  0  0  0  0  0  0  0  0  0  0
  157.5530  134.6265  160.4266 H   0  0  0  0  0  0  0  0  0  0  0  0
  155.8809  134.1746  160.6474 H   0  0  0  0  0  0  0  0  0  0  0  0
  157.0791  136.9281  161.1774 H   0  0  0  0  0  0  0  0  0  0  0  0
  155.1195  136.0269  159.0087 H   0  0  0  0  0  0  0  0  0  0  0  0
  156.8223  136.4024  158.7618 H   0  0  0  0  0  0  0  0  0  0  0  0
  155.7065  137.6711  159.2427 H   0  0  0  0  0  0  0  0  0  0  0  0
  154.5987  139.9893  159.7982 H   0  0  0  0  0  0  0  0  0  0  0  0
  1  2  1  0  0  0  0
  1 20  1  0  0  0  0
  1 21  1  0  0  0  0
  1 22  1  0  0  0  0
  2  3  1  0  0  0  0
  2  9  1  0  0  0  0
  2 23  1  0  0  0  0
  3  4  1  0  0  0  0
  3 24  1  0  0  0  0
  3 25  1  0  0  0  0
  4  8  1  0  0  0  0
  4  5  1  0  0  0  0
  5  6  2  0  0  0  0
  5 26  1  0  0  0  0
  6  7  1  0  0  0  0
  6 27  1  0  0  0  0
  7  8  2  0  0  0  0
  7 28  1  0  0  0  0
  9 10  1  0  0  0  0
  9 29  1  0  0  0  0
  9 47  1  0  0  0  0
 10 11  1  0  0  0  0
 10 30  1  0  0  0  0
 10 31  1  0  0  0  0
 11 12  1  0  0  0  0
 11 32  1  0  0  0  0
 11 33  1  0  0  0  0
 12 13  1  0  0  0  0
 13 18  1  0  0  0  0
 13 14  1  0  0  0  0
 13 34  1  0  0  0  0
 14 15  1  0  0  0  0
 14 35  1  0  0  0  0
 14 36  1  0  0  0  0
 15 16  1  0  0  0  0
 15 37  1  0  0  0  0
 15 38  1  0  0  0  0
 16 17  1  0  0  0  0
 16 39  1  0  0  0  0
 16 40  1  0  0  0  0
 17 18  1  0  0  0  0
 17 41  1  0  0  0  0
 17 42  1  0  0  0  0
 18 19  1  0  0  0  0
 18 43  1  0  0  0  0
 19 44  1  0  0  0  0
 19 45  1  0  0  0  0
 19 46  1  0  0  0  0
M  CHG  1   9   1
M  END
> <s_m_source_file>
AV-unprocessed.smi

> <i_m_source_file_index>
3348

> <i_lp_mmshare_version>
43012

> <i_f3d_flags>
0

> <s_epik_input>
bjFbY0hdW2NIXVtjSF1uMVtDSDJdW0NAQEhdKFtDSDNdKVtOSF1bQ0gyXVtDSDJdT1tDQEBIXTJbQ0gyXVtDSDJdW0NIMl1bQ0gyXVtDQEhdMltDSDNd

> <s_epik_cmdline>
J2VwaWtfcHl0aG9uJywgJy1waCcsICc3LjAnLCAnLXRuJywgJzgnLCAnLW1hJywgJzIwMCcsICctbWV0YWxfYmluZGluZycsICctaW1hZScsICc8aW5maWxlLm1hZT4nLCAnLW9tYWUnLCAnPG91dGZpbGUubWFlPic=

> <r_lp_tautomer_probability>
1

> <r_epik_Ionization_Penalty>
0.00925088

> <r_epik_Ionization_Penalty_Charging>
0.00924645

> <r_epik_Ionization_Penalty_Neutral>
4.42413e-06

> <r_epik_State_Penalty>
0.0070118

> <r_epik_Charging_Adjusted_Penalty>
0.0162583

> <i_epik_Tot_Q>
1

> <i_epik_Tot_abs_Q>
1

> <r_epik_Metal_State_Penalty>
0.00701222

> <b_epik_Metal_Only>
0

> <s_lp_Force_Field>
OPLS_2005

> <r_lp_Energy>
16.8222

> <b_lp_Chiralities_Consistent>
1

> <s_lp_Variant>
AV-unprocessed.smi:3348-1

> <Gold.Version>
5.8.1

> <Gold.Id.Protein>
6NUR|6NUR_protein|mol2

> <Gold.PLP.Fitness>
46.3432

> <Gold.PLP.PLP>
-44.4987

> <Gold.PLP.part.hbond>
0.0000

> <Gold.PLP.part.metal>
0.0000

> <Gold.PLP.part.buried>
-4.9261

> <Gold.PLP.part.nonpolar>
-38.8254

> <Gold.PLP.part.repulsive>
0.0976

> <Gold.PLP.ligand.clash>
0.0000

> <Gold.PLP.ligand.torsion>
0.6069

> <Gold.PLP.Chemscore.Hbond>
0.0000

> <Gold.PLP.Chemscore.CHOScore>
0.9978

> <Gold.PLP.Chemscore.Metal>
0.0000

> <Gold.Chemscore.Hbonds>
donor molecule, donor type, donor heavy atom, donor atom, acceptor molecule, acceptor atom, score
      L1  C     7    28       P1  8029  0.34

> <Gold.PLP.Chemscore.Internal.Correction>
0.0649

> <Gold.Rescore>
     Score         DG    S(hbond)    S(metal)    S(lipo)     H(rot)  DE(clash)    DE(int)     intcor
     15.76     -16.44       0.00        0.00     133.40       1.82       0.13       0.54       ----

> <Gold.Chemscore.Fitness>
15.7593

> <Gold.Chemscore.DG>
-16.4379

> <Gold.Chemscore.ZeroCoef>
-5.4800

> <Gold.Chemscore.Hbond>
0.0000

> <Gold.Chemscore.Metal>
0.0000

> <Gold.Chemscore.Lipo>
133.3986

> <Gold.Chemscore.Internal_Hbond>
0.0000

> <Gold.Chemscore.DEClash>
0.1341

> <Gold.Chemscore.DEInternal>
0.5445

> <Gold.Chemscore.Rot>
1.8163

> <Gold.Chemscore.Internal.Correction>
   9.000000E+99

> <Gold.Chemscore.Hbond.Weighted>
-0.0000

> <Gold.Chemscore.Metal.Weighted>
-0.0000

> <Gold.Chemscore.Lipo.Weighted>
-15.6076

> <Gold.Chemscore.Internal_Hbond.Weighted>
0.0000

> <Gold.Chemscore.DEClash.Weighted>
0.1341

> <Gold.Chemscore.DEInternal.Weighted>
0.5445

> <Gold.Chemscore.Rot.Weighted>
4.6497

> <Gold.Chemscore.Internal.Correction.Weighted>
   9.000000E+99

> <Gold.Protein.RotatedTorsions>
[ 6907 6896 6895 6894 ] final -117.77 input  -60.11 | X-H torsion
[ 7974 7965 7964 7962 ] final  -29.82 input  175.53 | X-H torsion
[ 8008 7997 7996 7995 ] final  -80.18 input   59.86 | X-H torsion
[ 10167 10162 10161 10158 ] final -103.84 input  -65.29 | X-H torsion
[ 10718 10713 10712 10709 ] final  151.94 input   66.30 | X-H torsion
[ 10763 10752 10751 10750 ] final   72.06 input  -60.55 | X-H torsion
[ 11005 11000 10999 10996 ] final -124.77 input  -57.11 | X-H torsion

> <Gold.Protein.ActiveResidues>
 VAL166  LYS551  ARG553  GLY616  TRP617  ASP618  TYR619  PRO620  LYS621  CYS622 
 ASP623  PHE694  ASN695  SER759  ASP760  ASP761  ALA762  ILE779  LEU786  VAL792 
 PHE793  MET794  SER795  GLU796  ALA797  LYS798  CYS799  TRP800  GLU811  SER814 

> <Gold.Protein.RotatedAtoms>
  150.8164  133.8330  159.3158 H   0  0  0  0  0  0  0  0  0  0  0  0  # atno 6907 bound_to 6896
  151.6101  135.1039  160.0088 H   0  0  0  0  0  0  0  0  0  0  0  0  # atno 6908 bound_to 6896
  152.4255  133.7147  159.6556 H   0  0  0  0  0  0  0  0  0  0  0  0  # atno 6909 bound_to 6896
  146.1189  140.5461  142.8744 H   0  0  0  0  0  0  0  0  0  0  0  0  # atno 7974 bound_to 7965
  154.5858  140.0667  156.9169 H   0  0  0  0  0  0  0  0  0  0  0  0  # atno 8008 bound_to 7997
  155.2382  140.3342  155.4277 H   0  0  0  0  0  0  0  0  0  0  0  0  # atno 8009 bound_to 7997
  156.2222  140.1803  156.7435 H   0  0  0  0  0  0  0  0  0  0  0  0  # atno 8010 bound_to 7997
  140.2157  143.3713  152.1013 H   0  0  0  0  0  0  0  0  0  0  0  0  # atno 10167 bound_to 10162
  157.2643  131.0804  151.1644 H   0  0  0  0  0  0  0  0  0  0  0  0  # atno 10718 bound_to 10713
  153.0436  135.5114  154.7686 H   0  0  0  0  0  0  0  0  0  0  0  0  # atno 10763 bound_to 10752
  154.6604  135.2938  154.9875 H   0  0  0  0  0  0  0  0  0  0  0  0  # atno 10764 bound_to 10752
  154.0728  135.6675  153.4879 H   0  0  0  0  0  0  0  0  0  0  0  0  # atno 10765 bound_to 10752
  140.9815  134.0667  157.3760 H   0  0  0  0  0  0  0  0  0  0  0  0  # atno 11005 bound_to 11000
  144.7578  140.5350  143.6756 LP  0  0  0  0  0  0  0  0  0  0  0  0  # atno 17320 bound_to 7965
  145.5509  139.1477  143.3395 LP  0  0  0  0  0  0  0  0  0  0  0  0  # atno 17321 bound_to 7965
  139.5163  144.6975  151.5588 LP  0  0  0  0  0  0  0  0  0  0  0  0  # atno 17342 bound_to 10162
  140.6291  143.9110  150.6590 LP  0  0  0  0  0  0  0  0  0  0  0  0  # atno 17343 bound_to 10162
  157.3142  130.6904  149.6232 LP  0  0  0  0  0  0  0  0  0  0  0  0  # atno 17370 bound_to 10713
  155.9663  130.4354  150.5092 LP  0  0  0  0  0  0  0  0  0  0  0  0  # atno 17371 bound_to 10713
  139.8952  135.0140  156.6990 LP  0  0  0  0  0  0  0  0  0  0  0  0  # atno 17394 bound_to 11000
  140.7180  133.9166  155.8128 LP  0  0  0  0  0  0  0  0  0  0  0  0  # atno 17395 bound_to 11000

$$$$
