AV-unprocessed.smi:197|AV-procd|sdf|1547|dock10
  -GOLD-   2262019413D 1   1.00000     0.00000
 Structure written by MMmdl.
 54 57  0  0  0  0  0  0  0  0  1 V2000
  154.2204  136.8767  162.2119 C   0  0  0  0  0  0  0  0  0  0  0  0
  153.6992  137.4618  161.0318 O   0  0  0  0  0  0  0  0  0  0  0  0
  154.6666  138.2242  160.3292 C   0  0  0  0  0  0  0  0  0  0  0  0
  154.0014  138.8995  159.1202 C   0  0  0  0  0  0  0  0  0  0  0  0
  152.9419  139.9744  159.4842 C   0  0  1  0  0  0  0  0  0  0  0  0
  153.5415  141.0322  160.4426 C   0  0  0  0  0  0  0  0  0  0  0  0
  152.5962  142.0575  160.7229 O   0  0  0  0  0  0  0  0  0  0  0  0
  152.2168  142.7579  159.5474 C   0  0  0  0  0  0  0  0  0  0  0  0
  151.5300  141.7770  158.5902 C   0  0  0  0  0  0  0  0  0  0  0  0
  152.4084  140.6501  158.2915 N   0  0  0  0  0  0  0  0  0  0  0  0
  151.8447  139.8787  157.3304 C   0  0  0  0  0  0  0  0  0  0  0  0
  152.4176  139.7817  156.1008 N   0  0  0  0  0  0  0  0  0  0  0  0
  151.8690  138.9995  155.1664 C   0  0  0  0  0  0  0  0  0  0  0  0
  150.7779  138.2352  155.2527 N   0  0  0  0  0  0  0  0  0  0  0  0
  150.2091  138.3213  156.4896 C   0  0  0  0  0  0  0  0  0  0  0  0
  150.6741  139.1131  157.5762 C   0  0  0  0  0  0  0  0  0  0  0  0
  149.8423  138.9507  158.6764 N   0  0  0  0  0  0  0  0  0  0  0  0
  148.9364  138.1059  158.2643 C   0  0  0  0  0  0  0  0  0  0  0  0
  149.0850  137.6701  156.9663 N   0  0  0  0  0  0  0  0  0  0  0  0
  148.2324  136.7259  156.2610 C   0  0  0  0  0  0  0  0  0  0  0  0
  148.2463  135.3091  156.8826 C   0  0  2  0  0  0  0  0  0  0  0  0
  147.3508  134.4872  156.1495 O   0  0  0  0  0  0  0  0  0  0  0  0
  147.8465  135.2694  158.3502 C   0  0  0  0  0  0  0  0  0  0  0  0
  148.4929  133.9772  158.8333 C   0  0  0  0  0  0  0  0  0  0  0  0
  149.7211  133.8966  158.1214 O   0  0  0  0  0  0  0  0  0  0  0  0
  149.6552  134.6776  156.9284 C   0  0  1  0  0  0  0  0  0  0  0  0
  150.0786  133.8495  155.7044 C   0  0  0  0  0  0  0  0  0  0  0  0
  153.4406  136.3010  162.7104 H   0  0  0  0  0  0  0  0  0  0  0  0
  154.5722  137.6397  162.9074 H   0  0  0  0  0  0  0  0  0  0  0  0
  155.0458  136.2004  161.9858 H   0  0  0  0  0  0  0  0  0  0  0  0
  155.1305  138.9595  160.9869 H   0  0  0  0  0  0  0  0  0  0  0  0
  155.4639  137.5661  159.9803 H   0  0  0  0  0  0  0  0  0  0  0  0
  154.7714  139.3510  158.4935 H   0  0  0  0  0  0  0  0  0  0  0  0
  153.5595  138.1076  158.5162 H   0  0  0  0  0  0  0  0  0  0  0  0
  152.1070  139.4924  159.9951 H   0  0  0  0  0  0  0  0  0  0  0  0
  153.8208  140.5786  161.3927 H   0  0  0  0  0  0  0  0  0  0  0  0
  154.4476  141.4722  160.0225 H   0  0  0  0  0  0  0  0  0  0  0  0
  151.5322  143.5624  159.8166 H   0  0  0  0  0  0  0  0  0  0  0  0
  153.0878  143.2197  159.0794 H   0  0  0  0  0  0  0  0  0  0  0  0
  150.6063  141.4080  159.0390 H   0  0  0  0  0  0  0  0  0  0  0  0
  151.2547  142.2985  157.6721 H   0  0  0  0  0  0  0  0  0  0  0  0
  152.3794  138.9805  154.2149 H   0  0  0  0  0  0  0  0  0  0  0  0
  148.1332  137.7683  158.9032 H   0  0  0  0  0  0  0  0  0  0  0  0
  147.2167  137.1238  156.2440 H   0  0  0  0  0  0  0  0  0  0  0  0
  148.5609  136.6857  155.2216 H   0  0  0  0  0  0  0  0  0  0  0  0
  147.6583  134.4308  155.2578 H   0  0  0  0  0  0  0  0  0  0  0  0
  148.2904  136.1110  158.8834 H   0  0  0  0  0  0  0  0  0  0  0  0
  146.7685  135.2991  158.5152 H   0  0  0  0  0  0  0  0  0  0  0  0
  148.6529  133.9641  159.9114 H   0  0  0  0  0  0  0  0  0  0  0  0
  147.8743  133.1179  158.5708 H   0  0  0  0  0  0  0  0  0  0  0  0
  150.3873  135.4741  157.0674 H   0  0  0  0  0  0  0  0  0  0  0  0
  150.0226  134.4427  154.7914 H   0  0  0  0  0  0  0  0  0  0  0  0
  149.4499  132.9681  155.5759 H   0  0  0  0  0  0  0  0  0  0  0  0
  151.1066  133.5031  155.8116 H   0  0  0  0  0  0  0  0  0  0  0  0
  1  2  1  0  0  0  0
  1 28  1  0  0  0  0
  1 29  1  0  0  0  0
  1 30  1  0  0  0  0
  2  3  1  0  0  0  0
  3  4  1  0  0  0  0
  3 31  1  0  0  0  0
  3 32  1  0  0  0  0
  4  5  1  0  0  0  0
  4 33  1  0  0  0  0
  4 34  1  0  0  0  0
  5 10  1  0  0  0  0
  5  6  1  0  0  0  0
  5 35  1  0  0  0  0
  6  7  1  0  0  0  0
  6 36  1  0  0  0  0
  6 37  1  0  0  0  0
  7  8  1  0  0  0  0
  8  9  1  0  0  0  0
  8 38  1  0  0  0  0
  8 39  1  0  0  0  0
  9 10  1  0  0  0  0
  9 40  1  0  0  0  0
  9 41  1  0  0  0  0
 10 11  1  0  0  0  0
 11 16  1  0  0  0  0
 11 12  2  0  0  0  0
 12 13  1  0  0  0  0
 13 14  2  0  0  0  0
 13 42  1  0  0  0  0
 14 15  1  0  0  0  0
 15 19  1  0  0  0  0
 15 16  2  0  0  0  0
 16 17  1  0  0  0  0
 17 18  2  0  0  0  0
 18 19  1  0  0  0  0
 18 43  1  0  0  0  0
 19 20  1  0  0  0  0
 20 21  1  0  0  0  0
 20 44  1  0  0  0  0
 20 45  1  0  0  0  0
 21 26  1  0  0  0  0
 21 22  1  0  0  0  0
 21 23  1  0  0  0  0
 22 46  1  0  0  0  0
 23 24  1  0  0  0  0
 23 47  1  0  0  0  0
 23 48  1  0  0  0  0
 24 25  1  0  0  0  0
 24 49  1  0  0  0  0
 24 50  1  0  0  0  0
 25 26  1  0  0  0  0
 26 27  1  0  0  0  0
 26 51  1  0  0  0  0
 27 52  1  0  0  0  0
 27 53  1  0  0  0  0
 27 54  1  0  0  0  0
M  END
> <s_m_source_file>
AV-unprocessed.smi

> <i_m_source_file_index>
197

> <i_lp_mmshare_version>
43012

> <i_f3d_flags>
0

> <s_epik_input>
W0NIM11PW0NIMl1bQ0gyXVtDQEBIXTFbQ0gyXU9bQ0gyXVtDSDJdTjFjKG5bY0hdbjIpYyhjMjMpbltjSF1uM1tDSDJdW0NAQF00KFtPSF0pW0NIMl1bQ0gyXU9bQ0BIXTRbQ0gzXQ==

> <s_epik_cmdline>
J2VwaWtfcHl0aG9uJywgJy1waCcsICc3LjAnLCAnLXRuJywgJzgnLCAnLW1hJywgJzIwMCcsICctbWV0YWxfYmluZGluZycsICctaW1hZScsICc8aW5maWxlLm1hZT4nLCAnLW9tYWUnLCAnPG91dGZpbGUubWFlPic=

> <r_lp_tautomer_probability>
1

> <r_epik_Ionization_Penalty>
0.000106218

> <r_epik_Ionization_Penalty_Charging>
0

> <r_epik_Ionization_Penalty_Neutral>
0.000106218

> <r_epik_State_Penalty>
-0

> <r_epik_Charging_Adjusted_Penalty>
0

> <i_epik_Tot_Q>
0

> <i_epik_Tot_abs_Q>
0

> <r_epik_Metal_State_Penalty>
-0

> <b_epik_Metal_Only>
0

> <s_lp_Force_Field>
OPLS_2005

> <r_lp_Energy>
42.2665

> <b_lp_Chiralities_Consistent>
1

> <s_lp_Variant>
AV-unprocessed.smi:197-4

> <Gold.Version>
5.8.1

> <Gold.Id.Protein>
6NUR|6NUR_protein|mol2

> <Gold.PLP.Fitness>
36.9505

> <Gold.PLP.PLP>
-31.0332

> <Gold.PLP.part.hbond>
-2.0000

> <Gold.PLP.part.metal>
0.0000

> <Gold.PLP.part.buried>
-5.6633

> <Gold.PLP.part.nonpolar>
-23.5055

> <Gold.PLP.part.repulsive>
0.0999

> <Gold.PLP.ligand.clash>
0.0000

> <Gold.PLP.ligand.torsion>
0.1271

> <Gold.PLP.Chemscore.Hbond>
2.0000

> <Gold.PLP.Chemscore.CHOScore>
0.0000

> <Gold.PLP.Chemscore.Metal>
0.0000

> <Gold.Chemscore.Hbonds>
donor molecule, donor type, donor heavy atom, donor atom, acceptor molecule, acceptor atom, score
      P1  H  6896  6909       L1    25  1.00
      P1  H  7997  8009       L1    12  1.00

> <Gold.PLP.Chemscore.Internal.Correction>
0.1715

> <Gold.Rescore>
     Score         DG    S(hbond)    S(metal)    S(lipo)     H(rot)  DE(clash)    DE(int)     intcor
     12.99     -13.12       1.88        0.00      73.72       2.84       0.00       0.12       ----

> <Gold.Chemscore.Fitness>
12.9918

> <Gold.Chemscore.DG>
-13.1155

> <Gold.Chemscore.ZeroCoef>
-5.4800

> <Gold.Chemscore.Hbond>
1.8774

> <Gold.Chemscore.Metal>
0.0000

> <Gold.Chemscore.Lipo>
73.7152

> <Gold.Chemscore.Internal_Hbond>
0.0000

> <Gold.Chemscore.DEClash>
0.0019

> <Gold.Chemscore.DEInternal>
0.1218

> <Gold.Chemscore.Rot>
2.8358

> <Gold.Chemscore.Internal.Correction>
   9.000000E+99

> <Gold.Chemscore.Hbonds>
donor molecule, donor type, donor heavy atom, donor atom, acceptor molecule, acceptor atom, score
      P1  H  6896  6909       L1    25  0.43
      P1  H  7997  8009       L1    12  0.84

> <Gold.Chemscore.Hbond.Weighted>
-6.2704

> <Gold.Chemscore.Metal.Weighted>
-0.0000

> <Gold.Chemscore.Lipo.Weighted>
-8.6247

> <Gold.Chemscore.Internal_Hbond.Weighted>
0.0000

> <Gold.Chemscore.DEClash.Weighted>
0.0019

> <Gold.Chemscore.DEInternal.Weighted>
0.1218

> <Gold.Chemscore.Rot.Weighted>
7.2596

> <Gold.Chemscore.Internal.Correction.Weighted>
   9.000000E+99

> <Gold.Protein.RotatedTorsions>
[ 6907 6896 6895 6894 ] final   -2.27 input  -60.11 | X-H torsion
[ 7974 7965 7964 7962 ] final   67.32 input  175.53 | X-H torsion
[ 8008 7997 7996 7995 ] final -144.40 input   59.86 | X-H torsion
[ 10167 10162 10161 10158 ] final  135.88 input  -65.29 | X-H torsion
[ 10718 10713 10712 10709 ] final  -88.98 input   66.30 | X-H torsion
[ 10763 10752 10751 10750 ] final -169.55 input  -60.55 | X-H torsion
[ 11005 11000 10999 10996 ] final   39.22 input  -57.11 | X-H torsion

> <Gold.Protein.ActiveResidues>
 VAL166  LYS551  ARG553  GLY616  TRP617  ASP618  TYR619  PRO620  LYS621  CYS622 
 ASP623  PHE694  ASN695  SER759  ASP760  ASP761  ALA762  ILE779  LEU786  VAL792 
 PHE793  MET794  SER795  GLU796  ALA797  LYS798  CYS799  TRP800  GLU811  SER814 

> <Gold.Protein.RotatedAtoms>
  151.5326  135.1068  159.9906 H   0  0  0  0  0  0  0  0  0  0  0  0  # atno 6907 bound_to 6896
  152.4571  133.7742  159.6826 H   0  0  0  0  0  0  0  0  0  0  0  0  # atno 6908 bound_to 6896
  150.8519  133.7708  159.3047 H   0  0  0  0  0  0  0  0  0  0  0  0  # atno 6909 bound_to 6896
  145.8161  139.3059  143.1071 H   0  0  0  0  0  0  0  0  0  0  0  0  # atno 7974 bound_to 7965
  155.5263  140.0596  157.2897 H   0  0  0  0  0  0  0  0  0  0  0  0  # atno 8008 bound_to 7997
  154.4500  140.1943  156.0495 H   0  0  0  0  0  0  0  0  0  0  0  0  # atno 8009 bound_to 7997
  156.0683  140.3263  155.7549 H   0  0  0  0  0  0  0  0  0  0  0  0  # atno 8010 bound_to 7997
  139.5200  144.6494  151.5347 H   0  0  0  0  0  0  0  0  0  0  0  0  # atno 10167 bound_to 10162
  155.9984  130.4855  150.5102 H   0  0  0  0  0  0  0  0  0  0  0  0  # atno 10718 bound_to 10713
  154.6510  135.2911  154.9986 H   0  0  0  0  0  0  0  0  0  0  0  0  # atno 10763 bound_to 10752
  154.1079  135.6567  153.4883 H   0  0  0  0  0  0  0  0  0  0  0  0  # atno 10764 bound_to 10752
  153.0377  135.5258  154.7419 H   0  0  0  0  0  0  0  0  0  0  0  0  # atno 10765 bound_to 10752
  140.2049  134.3825  155.8077 H   0  0  0  0  0  0  0  0  0  0  0  0  # atno 11005 bound_to 11000
  145.9725  140.8748  143.0155 LP  0  0  0  0  0  0  0  0  0  0  0  0  # atno 17320 bound_to 7965
  144.6752  140.1966  143.7391 LP  0  0  0  0  0  0  0  0  0  0  0  0  # atno 17321 bound_to 7965
  140.6292  143.9109  150.6590 LP  0  0  0  0  0  0  0  0  0  0  0  0  # atno 17342 bound_to 10162
  140.2408  143.3665  152.1488 LP  0  0  0  0  0  0  0  0  0  0  0  0  # atno 17343 bound_to 10162
  157.3076  131.0657  151.2024 LP  0  0  0  0  0  0  0  0  0  0  0  0  # atno 17370 bound_to 10713
  157.2981  130.6829  149.6149 LP  0  0  0  0  0  0  0  0  0  0  0  0  # atno 17371 bound_to 10713
  141.2227  133.7113  156.8320 LP  0  0  0  0  0  0  0  0  0  0  0  0  # atno 17394 bound_to 11000
  140.2014  134.8894  157.3173 LP  0  0  0  0  0  0  0  0  0  0  0  0  # atno 17395 bound_to 11000

$$$$
