AV-unprocessed.smi:561|AV-procd|sdf|2939|dock8
  -GOLD-   2262023433D 1   1.00000     0.00000
 Structure written by MMmdl.
 36 37  0  0  0  0  0  0  0  0  1 V2000
  145.6122  136.8429  152.0084 C   0  0  0  0  0  0  0  0  0  0  0  0
  145.7043  135.3172  152.1581 C   0  0  1  0  0  0  0  0  0  0  0  0
  146.0003  134.6323  150.8103 C   0  0  0  0  0  0  0  0  0  0  0  0
  145.2917  133.3735  150.6675 N   0  0  0  0  0  0  0  0  0  0  0  0
  143.9169  133.1886  150.6078 C   0  0  0  0  0  0  0  0  0  0  0  0
  143.7079  131.8336  150.4843 C   0  0  0  0  0  0  0  0  0  0  0  0
  144.9325  131.1697  150.4641 N   0  0  0  0  0  0  0  0  0  0  0  0
  145.8232  132.1465  150.5749 C   0  0  0  0  0  0  0  0  0  0  0  0
  146.7427  134.9732  153.1262 N   0  0  0  0  0  0  0  0  0  0  0  0
  146.5512  134.3384  154.2968 C   0  0  0  0  0  0  0  0  0  0  0  0
  145.4372  134.0284  154.7197 O   0  0  0  0  0  0  0  0  0  0  0  0
  147.7837  134.0134  155.0628 C   0  0  0  0  0  0  0  0  0  0  0  0
  147.6936  133.6003  156.2883 N   0  0  0  0  0  0  0  0  0  0  0  0
  148.8053  133.3060  157.0500 N   0  0  0  0  0  0  0  0  0  0  0  0
  148.5105  133.1367  158.4726 C   0  0  0  0  0  0  0  0  0  0  0  0
  150.0610  133.1635  156.5525 C   0  0  0  0  0  0  0  0  0  0  0  0
  151.0544  132.9280  157.2400 O   0  0  0  0  0  0  0  0  0  0  0  0
  150.2084  133.2812  155.0324 C   0  0  0  0  0  0  0  0  0  0  0  0
  149.1389  134.2015  154.4122 C   0  0  0  0  0  0  0  0  0  0  0  0
  144.8280  137.1202  151.3034 H   0  0  0  0  0  0  0  0  0  0  0  0
  146.5504  137.2637  151.6453 H   0  0  0  0  0  0  0  0  0  0  0  0
  145.3793  137.3194  152.9612 H   0  0  0  0  0  0  0  0  0  0  0  0
  144.7399  134.9521  152.5166 H   0  0  0  0  0  0  0  0  0  0  0  0
  145.7037  135.2811  149.9851 H   0  0  0  0  0  0  0  0  0  0  0  0
  147.0699  134.4494  150.6960 H   0  0  0  0  0  0  0  0  0  0  0  0
  143.2211  134.0131  150.6600 H   0  0  0  0  0  0  0  0  0  0  0  0
  142.7777  131.2899  150.4099 H   0  0  0  0  0  0  0  0  0  0  0  0
  146.8880  131.9643  150.5969 H   0  0  0  0  0  0  0  0  0  0  0  0
  147.6937  135.1937  152.8673 H   0  0  0  0  0  0  0  0  0  0  0  0
  149.3701  132.8258  159.0677 H   0  0  0  0  0  0  0  0  0  0  0  0
  147.7339  132.3830  158.6082 H   0  0  0  0  0  0  0  0  0  0  0  0
  148.1433  134.0747  158.8906 H   0  0  0  0  0  0  0  0  0  0  0  0
  151.2077  133.6356  154.7776 H   0  0  0  0  0  0  0  0  0  0  0  0
  150.1154  132.2777  154.6157 H   0  0  0  0  0  0  0  0  0  0  0  0
  149.0838  133.9958  153.3425 H   0  0  0  0  0  0  0  0  0  0  0  0
  149.4433  135.2442  154.5100 H   0  0  0  0  0  0  0  0  0  0  0  0
  1  2  1  0  0  0  0
  1 20  1  0  0  0  0
  1 21  1  0  0  0  0
  1 22  1  0  0  0  0
  2  3  1  0  0  0  0
  2  9  1  0  0  0  0
  2 23  1  0  0  0  0
  3  4  1  0  0  0  0
  3 24  1  0  0  0  0
  3 25  1  0  0  0  0
  4  8  1  0  0  0  0
  4  5  1  0  0  0  0
  5  6  2  0  0  0  0
  5 26  1  0  0  0  0
  6  7  1  0  0  0  0
  6 27  1  0  0  0  0
  7  8  2  0  0  0  0
  8 28  1  0  0  0  0
  9 10  1  0  0  0  0
  9 29  1  0  0  0  0
 10 11  2  0  0  0  0
 10 12  1  0  0  0  0
 12 19  1  0  0  0  0
 12 13  2  0  0  0  0
 13 14  1  0  0  0  0
 14 15  1  0  0  0  0
 14 16  1  0  0  0  0
 15 30  1  0  0  0  0
 15 31  1  0  0  0  0
 15 32  1  0  0  0  0
 16 17  2  0  0  0  0
 16 18  1  0  0  0  0
 18 19  1  0  0  0  0
 18 33  1  0  0  0  0
 18 34  1  0  0  0  0
 19 35  1  0  0  0  0
 19 36  1  0  0  0  0
M  END
> <s_m_source_file>
AV-unprocessed.smi

> <i_m_source_file_index>
561

> <i_lp_mmshare_version>
43012

> <i_f3d_flags>
0

> <s_epik_input>
W2NIXTFuW2NIXVtjSF1uMVtDSDJdW0NAQEhdKFtDSDNdKVtOSF1DKD1PKUMyPU5OKFtDSDNdKUMoPU8pW0NIMl1bQ0gyXTI=

> <s_epik_cmdline>
J2VwaWtfcHl0aG9uJywgJy1waCcsICc3LjAnLCAnLXRuJywgJzgnLCAnLW1hJywgJzIwMCcsICctbWV0YWxfYmluZGluZycsICctaW1hZScsICc8aW5maWxlLm1hZT4nLCAnLW9tYWUnLCAnPG91dGZpbGUubWFlPic=

> <r_lp_tautomer_probability>
1

> <r_epik_Ionization_Penalty>
0.46798

> <r_epik_Ionization_Penalty_Charging>
0.467902

> <r_epik_Ionization_Penalty_Neutral>
7.78263e-05

> <r_epik_State_Penalty>
0.47192

> <r_epik_Charging_Adjusted_Penalty>
0.939822

> <i_epik_Tot_Q>
0

> <i_epik_Tot_abs_Q>
0

> <r_epik_Metal_State_Penalty>
0.280825

> <b_epik_Metal_Only>
0

> <s_epik_Chemistry_Notes>
This compound has an imine and may undergo hydrolysis.

> <s_lp_Force_Field>
OPLS_2005

> <r_lp_Energy>
18.7987

> <b_lp_Chiralities_Consistent>
1

> <s_lp_Variant>
AV-unprocessed.smi:561-4

> <Gold.Version>
5.8.1

> <Gold.Id.Protein>
6NUR|6NUR_protein|mol2

> <Gold.PLP.Fitness>
39.5317

> <Gold.PLP.PLP>
-25.7766

> <Gold.PLP.part.hbond>
-2.5351

> <Gold.PLP.part.metal>
0.0000

> <Gold.PLP.part.buried>
-2.4213

> <Gold.PLP.part.nonpolar>
-20.8483

> <Gold.PLP.part.repulsive>
0.1784

> <Gold.PLP.ligand.clash>
0.0000

> <Gold.PLP.ligand.torsion>
0.5720

> <Gold.PLP.Chemscore.Hbond>
1.9600

> <Gold.PLP.Chemscore.CHOScore>
3.0000

> <Gold.PLP.Chemscore.Metal>
0.0000

> <Gold.Chemscore.Hbonds>
donor molecule, donor type, donor heavy atom, donor atom, acceptor molecule, acceptor atom, score
      L1  H     9    29       P1  7948  1.00
      P1  H  6896  6908       L1    17  0.95
      L1  C     5    26       P1 10186  1.00
      L1  C     6    27       P1 10952  1.00
      L1  C     8    28       P1 10747  1.00

> <Gold.PLP.Chemscore.Internal.Correction>
0.0191

> <Gold.Rescore>
     Score         DG    S(hbond)    S(metal)    S(lipo)     H(rot)  DE(clash)    DE(int)     intcor
     12.75     -13.40       1.87        0.00      51.70       1.71       0.05       0.60       ----

> <Gold.Chemscore.Fitness>
12.7467

> <Gold.Chemscore.DG>
-13.4025

> <Gold.Chemscore.ZeroCoef>
-5.4800

> <Gold.Chemscore.Hbond>
1.8706

> <Gold.Chemscore.Metal>
0.0000

> <Gold.Chemscore.Lipo>
51.6977

> <Gold.Chemscore.Internal_Hbond>
0.0000

> <Gold.Chemscore.DEClash>
0.0540

> <Gold.Chemscore.DEInternal>
0.6019

> <Gold.Chemscore.Rot>
1.7086

> <Gold.Chemscore.Internal.Correction>
   9.000000E+99

> <Gold.Chemscore.Hbonds>
donor molecule, donor type, donor heavy atom, donor atom, acceptor molecule, acceptor atom, score
      L1  H     9    29       P1  7948  0.95
      P1  H  6896  6908       L1    17  0.85

> <Gold.Chemscore.Hbond.Weighted>
-6.2478

> <Gold.Chemscore.Metal.Weighted>
-0.0000

> <Gold.Chemscore.Lipo.Weighted>
-6.0486

> <Gold.Chemscore.Internal_Hbond.Weighted>
0.0000

> <Gold.Chemscore.DEClash.Weighted>
0.0540

> <Gold.Chemscore.DEInternal.Weighted>
0.6019

> <Gold.Chemscore.Rot.Weighted>
4.3739

> <Gold.Chemscore.Internal.Correction.Weighted>
   9.000000E+99

> <Gold.Protein.RotatedTorsions>
[ 6907 6896 6895 6894 ] final   79.23 input  -60.11 | X-H torsion
[ 7974 7965 7964 7962 ] final -138.38 input  175.53 | X-H torsion
[ 8008 7997 7996 7995 ] final    3.63 input   59.86 | X-H torsion
[ 10167 10162 10161 10158 ] final   42.80 input  -65.29 | X-H torsion
[ 10718 10713 10712 10709 ] final  -36.61 input   66.30 | X-H torsion
[ 10763 10752 10751 10750 ] final  -52.90 input  -60.55 | X-H torsion
[ 11005 11000 10999 10996 ] final   64.19 input  -57.11 | X-H torsion

> <Gold.Protein.ActiveResidues>
 VAL166  LYS551  ARG553  GLY616  TRP617  ASP618  TYR619  PRO620  LYS621  CYS622 
 ASP623  PHE694  ASN695  SER759  ASP760  ASP761  ALA762  ILE779  LEU786  VAL792 
 PHE793  MET794  SER795  GLU796  ALA797  LYS798  CYS799  TRP800  GLU811  SER814 

> <Gold.Protein.RotatedAtoms>
  152.5190  134.3542  159.9261 H   0  0  0  0  0  0  0  0  0  0  0  0  # atno 6907 bound_to 6896
  151.3494  133.3925  159.2686 H   0  0  0  0  0  0  0  0  0  0  0  0  # atno 6908 bound_to 6896
  150.9739  134.9126  159.7862 H   0  0  0  0  0  0  0  0  0  0  0  0  # atno 6909 bound_to 6896
  144.8763  140.6442  143.5234 H   0  0  0  0  0  0  0  0  0  0  0  0  # atno 7974 bound_to 7965
  154.7060  140.2683  155.6674 H   0  0  0  0  0  0  0  0  0  0  0  0  # atno 8008 bound_to 7997
  156.2780  140.2763  156.1610 H   0  0  0  0  0  0  0  0  0  0  0  0  # atno 8009 bound_to 7997
  155.0700  140.0372  157.2595 H   0  0  0  0  0  0  0  0  0  0  0  0  # atno 8010 bound_to 7997
  140.3508  144.2353  150.6146 H   0  0  0  0  0  0  0  0  0  0  0  0  # atno 10167 bound_to 10162
  156.3248  130.4271  149.7927 H   0  0  0  0  0  0  0  0  0  0  0  0  # atno 10718 bound_to 10713
  154.1502  135.6491  153.4961 H   0  0  0  0  0  0  0  0  0  0  0  0  # atno 10763 bound_to 10752
  153.0140  135.5336  154.6816 H   0  0  0  0  0  0  0  0  0  0  0  0  # atno 10764 bound_to 10752
  154.6102  135.2953  155.0412 H   0  0  0  0  0  0  0  0  0  0  0  0  # atno 10765 bound_to 10752
  139.9975  134.6494  155.9986 H   0  0  0  0  0  0  0  0  0  0  0  0  # atno 11005 bound_to 11000
  145.4036  139.1593  143.4164 LP  0  0  0  0  0  0  0  0  0  0  0  0  # atno 17320 bound_to 7965
  146.2965  140.4134  142.8720 LP  0  0  0  0  0  0  0  0  0  0  0  0  # atno 17321 bound_to 7965
  140.5221  143.2263  151.8372 LP  0  0  0  0  0  0  0  0  0  0  0  0  # atno 17342 bound_to 10162
  139.4827  144.4824  151.9290 LP  0  0  0  0  0  0  0  0  0  0  0  0  # atno 17343 bound_to 10162
  156.5221  130.8220  151.3207 LP  0  0  0  0  0  0  0  0  0  0  0  0  # atno 17370 bound_to 10713
  157.7419  130.9879  150.2478 LP  0  0  0  0  0  0  0  0  0  0  0  0  # atno 17371 bound_to 10713
  141.1616  133.6538  156.4337 LP  0  0  0  0  0  0  0  0  0  0  0  0  # atno 17394 bound_to 11000
  140.4791  134.6682  157.5163 LP  0  0  0  0  0  0  0  0  0  0  0  0  # atno 17395 bound_to 11000

$$$$
