AV-unprocessed.smi:43|AV-procd|sdf|393|dock2
  -GOLD-   2262016243D 1   1.00000     0.00000
 Structure written by MMmdl.
 25 26  0  0  0  0  0  0  0  0  2 V2000
  151.0554  138.0791  158.3052 C   0  0  0  0  0  0  0  0  0  0  0  0
  150.4055  137.0042  157.5780 N   0  0  0  0  0  0  0  0  0  0  0  0
  150.3173  135.7718  158.1383 N   0  0  0  0  0  0  0  0  0  0  0  0
  149.6602  135.0211  157.3026 N   0  0  0  0  0  0  0  0  0  0  0  0
  149.2959  135.7271  156.1736 N   0  0  0  0  0  0  0  0  0  0  0  0
  149.7875  136.9423  156.3851 C   0  0  0  0  0  0  0  0  0  0  0  0
  149.6795  138.0260  155.5049 N   0  0  0  0  0  0  0  0  0  0  0  0
  148.6171  138.3190  154.5480 C   0  0  0  0  0  0  0  0  0  0  0  0
  148.5500  139.8357  154.4267 C   0  0  2  0  0  0  0  0  0  0  0  0
  147.9184  140.2586  153.2366 O   0  0  0  0  0  0  0  0  0  0  0  0
  150.0170  140.2151  154.4788 C   0  0  0  0  0  0  0  0  0  0  0  0
  150.6080  139.1628  155.4336 C   0  0  2  0  0  0  0  0  0  0  0  0
  152.0142  138.7224  154.9994 C   0  0  0  0  0  0  0  0  0  0  0  0
  152.1708  137.5094  154.7415 O   0  0  0  0  0  0  0  0  0  0  0  0
  152.9048  139.5995  154.9350 O   0  5  0  0  0  0  0  0  0  0  0  0
  148.0280  140.2552  155.2880 H   0  0  0  0  0  0  0  0  0  0  0  0
  150.6675  139.5911  156.4352 H   0  0  0  0  0  0  0  0  0  0  0  0
  150.4634  138.9910  158.2305 H   0  0  0  0  0  0  0  0  0  0  0  0
  152.0507  138.2526  157.8968 H   0  0  0  0  0  0  0  0  0  0  0  0
  151.1504  137.8194  159.3602 H   0  0  0  0  0  0  0  0  0  0  0  0
  148.8716  137.8592  153.5916 H   0  0  0  0  0  0  0  0  0  0  0  0
  147.6558  137.9229  154.8735 H   0  0  0  0  0  0  0  0  0  0  0  0
  148.5380  140.1835  152.5271 H   0  0  0  0  0  0  0  0  0  0  0  0
  150.4573  140.1386  153.4825 H   0  0  0  0  0  0  0  0  0  0  0  0
  150.1719  141.2348  154.8326 H   0  0  0  0  0  0  0  0  0  0  0  0
  1  2  1  0  0  0  0
  1 18  1  0  0  0  0
  1 19  1  0  0  0  0
  1 20  1  0  0  0  0
  2  6  1  0  0  0  0
  2  3  1  0  0  0  0
  3  4  2  0  0  0  0
  4  5  1  0  0  0  0
  5  6  2  0  0  0  0
  6  7  1  0  0  0  0
  7 12  1  0  0  0  0
  7  8  1  0  0  0  0
  8  9  1  0  0  0  0
  8 21  1  0  0  0  0
  8 22  1  0  0  0  0
  9 16  1  0  0  0  0
  9 10  1  0  0  0  0
  9 11  1  0  0  0  0
 10 23  1  0  0  0  0
 11 12  1  0  0  0  0
 11 24  1  0  0  0  0
 11 25  1  0  0  0  0
 12 17  1  0  0  0  0
 12 13  1  0  0  0  0
 13 14  2  0  0  0  0
 13 15  1  0  0  0  0
M  CHG  1  15  -1
M  END
> <s_m_source_file>
AV-unprocessed.smi

> <i_m_source_file_index>
43

> <i_lp_mmshare_version>
43012

> <i_f3d_flags>
0

> <s_epik_input>
W0NIM11uMW5ubmMxTjJbQ0gyXVtDQEhdKFtPSF0pW0NIMl1bQ0BIXTJDKD1PKVtPSF0=

> <s_epik_cmdline>
J2VwaWtfcHl0aG9uJywgJy1waCcsICc3LjAnLCAnLXRuJywgJzgnLCAnLW1hJywgJzIwMCcsICctbWV0YWxfYmluZGluZycsICctaW1hZScsICc8aW5maWxlLm1hZT4nLCAnLW9tYWUnLCAnPG91dGZpbGUubWFlPic=

> <r_lp_tautomer_probability>
1

> <r_epik_Ionization_Penalty>
0.000193127

> <r_epik_Ionization_Penalty_Charging>
0.000192933

> <r_epik_Ionization_Penalty_Neutral>
1.93728e-07

> <r_epik_State_Penalty>
-0

> <r_epik_Charging_Adjusted_Penalty>
0.000192933

> <i_epik_Tot_Q>
-1

> <i_epik_Tot_abs_Q>
1

> <r_epik_Metal_State_Penalty>
-0

> <b_epik_Metal_Only>
0

> <s_lp_Force_Field>
OPLS_2005

> <r_lp_Energy>
21.0116

> <b_lp_Chiralities_Consistent>
1

> <s_lp_Variant>
AV-unprocessed.smi:43-3

> <Gold.Version>
5.8.1

> <Gold.Id.Protein>
6NUR|6NUR_protein|mol2

> <Gold.PLP.Fitness>
35.5719

> <Gold.PLP.PLP>
-19.3525

> <Gold.PLP.part.hbond>
-5.6138

> <Gold.PLP.part.metal>
0.0000

> <Gold.PLP.part.buried>
-2.4871

> <Gold.PLP.part.nonpolar>
-12.1036

> <Gold.PLP.part.repulsive>
0.1294

> <Gold.PLP.ligand.clash>
0.0000

> <Gold.PLP.ligand.torsion>
0.3378

> <Gold.PLP.Chemscore.Hbond>
5.6290

> <Gold.PLP.Chemscore.CHOScore>
0.0000

> <Gold.PLP.Chemscore.Metal>
0.0000

> <Gold.Chemscore.Hbonds>
donor molecule, donor type, donor heavy atom, donor atom, acceptor molecule, acceptor atom, score
      L1  H    10    23       P1  7957  1.00
      P1  H  6896  6908       L1     3  0.77
      P1  H  7989  7998       L1    15  0.13
      P1  H  7997  8010       L1    15  2.00
      P1  H 10752 10765       L1    14  1.52

> <Gold.PLP.Chemscore.Internal.Correction>
0.0082

> <Gold.Rescore>
     Score         DG    S(hbond)    S(metal)    S(lipo)     H(rot)  DE(clash)    DE(int)     intcor
     14.87     -17.07       3.79        0.00      27.95       1.69       1.37       0.82       ----

> <Gold.Chemscore.Fitness>
14.8747

> <Gold.Chemscore.DG>
-17.0734

> <Gold.Chemscore.ZeroCoef>
-5.4800

> <Gold.Chemscore.Hbond>
3.7863

> <Gold.Chemscore.Metal>
0.0000

> <Gold.Chemscore.Lipo>
27.9520

> <Gold.Chemscore.Internal_Hbond>
0.0000

> <Gold.Chemscore.DEClash>
1.3746

> <Gold.Chemscore.DEInternal>
0.8241

> <Gold.Chemscore.Rot>
1.6887

> <Gold.Chemscore.Internal.Correction>
   9.000000E+99

> <Gold.Chemscore.Hbonds>
donor molecule, donor type, donor heavy atom, donor atom, acceptor molecule, acceptor atom, score
      L1  H    10    23       P1  7957  1.00
      P1  H  6896  6908       L1     3  0.64
      P1  H  7989  7998       L1    15  0.01
      P1  H  7997  8010       L1    15  0.97
      P1  H 10752 10765       L1    14  0.72

> <Gold.Chemscore.Hbond.Weighted>
-12.6462

> <Gold.Chemscore.Metal.Weighted>
-0.0000

> <Gold.Chemscore.Lipo.Weighted>
-3.2704

> <Gold.Chemscore.Internal_Hbond.Weighted>
0.0000

> <Gold.Chemscore.DEClash.Weighted>
1.3746

> <Gold.Chemscore.DEInternal.Weighted>
0.8241

> <Gold.Chemscore.Rot.Weighted>
4.3232

> <Gold.Chemscore.Internal.Correction.Weighted>
   9.000000E+99

> <Gold.Protein.RotatedTorsions>
[ 6907 6896 6895 6894 ] final -172.29 input  -60.11 | X-H torsion
[ 7974 7965 7964 7962 ] final   93.70 input  175.53 | X-H torsion
[ 8008 7997 7996 7995 ] final   88.22 input   59.86 | X-H torsion
[ 10167 10162 10161 10158 ] final  117.55 input  -65.29 | X-H torsion
[ 10718 10713 10712 10709 ] final  101.82 input   66.30 | X-H torsion
[ 10763 10752 10751 10750 ] final  170.65 input  -60.55 | X-H torsion
[ 11005 11000 10999 10996 ] final  -70.04 input  -57.11 | X-H torsion

> <Gold.Protein.ActiveResidues>
 VAL166  LYS551  ARG553  GLY616  TRP617  ASP618  TYR619  PRO620  LYS621  CYS622 
 ASP623  PHE694  ASN695  SER759  ASP760  ASP761  ALA762  ILE779  LEU786  VAL792 
 PHE793  MET794  SER795  GLU796  ALA797  LYS798  CYS799  TRP800  GLU811  SER814 

> <Gold.Protein.RotatedAtoms>
  151.5376  133.3438  159.2929 H   0  0  0  0  0  0  0  0  0  0  0  0  # atno 6907 bound_to 6896
  150.8555  134.7895  159.7053 H   0  0  0  0  0  0  0  0  0  0  0  0  # atno 6908 bound_to 6896
  152.4590  134.5236  159.9841 H   0  0  0  0  0  0  0  0  0  0  0  0  # atno 6909 bound_to 6896
  145.4754  139.2280  143.2912 H   0  0  0  0  0  0  0  0  0  0  0  0  # atno 7974 bound_to 7965
  155.9851  140.3374  155.6699 H   0  0  0  0  0  0  0  0  0  0  0  0  # atno 8008 bound_to 7997
  155.6497  140.0704  157.2609 H   0  0  0  0  0  0  0  0  0  0  0  0  # atno 8009 bound_to 7997
  154.4203  140.1728  156.1648 H   0  0  0  0  0  0  0  0  0  0  0  0  # atno 8010 bound_to 7997
  139.6171  144.7094  151.2716 H   0  0  0  0  0  0  0  0  0  0  0  0  # atno 10167 bound_to 10162
  157.6819  131.0736  150.5310 H   0  0  0  0  0  0  0  0  0  0  0  0  # atno 10718 bound_to 10713
  154.4007  135.2755  155.2098 H   0  0  0  0  0  0  0  0  0  0  0  0  # atno 10763 bound_to 10752
  154.4126  135.6019  153.5965 H   0  0  0  0  0  0  0  0  0  0  0  0  # atno 10764 bound_to 10752
  152.9831  135.5953  154.4274 H   0  0  0  0  0  0  0  0  0  0  0  0  # atno 10765 bound_to 10752
  141.1566  133.6779  156.6691 H   0  0  0  0  0  0  0  0  0  0  0  0  # atno 11005 bound_to 11000
  146.2372  140.5536  142.8949 LP  0  0  0  0  0  0  0  0  0  0  0  0  # atno 17320 bound_to 7965
  144.7920  140.6051  143.6535 LP  0  0  0  0  0  0  0  0  0  0  0  0  # atno 17321 bound_to 7965
  140.7358  143.6727  150.8068 LP  0  0  0  0  0  0  0  0  0  0  0  0  # atno 17342 bound_to 10162
  140.0331  143.5422  152.2751 LP  0  0  0  0  0  0  0  0  0  0  0  0  # atno 17343 bound_to 10162
  156.5620  130.4258  149.6058 LP  0  0  0  0  0  0  0  0  0  0  0  0  # atno 17370 bound_to 10713
  156.2813  130.7072  151.1897 LP  0  0  0  0  0  0  0  0  0  0  0  0  # atno 17371 bound_to 10713
  140.3188  134.8025  157.4236 LP  0  0  0  0  0  0  0  0  0  0  0  0  # atno 17394 bound_to 11000
  140.1114  134.5340  155.8262 LP  0  0  0  0  0  0  0  0  0  0  0  0  # atno 17395 bound_to 11000

$$$$
