AV-unprocessed.smi:2329|AV-procd|sdf|9305|dock2
  -GOLD-   2272012523D 1   1.00000     0.00000
 Structure written by MMmdl.
 45 48  0  0  0  0  0  0  0  0  1 V2000
  147.3373  132.3599  159.7682 C   0  0  0  0  0  0  0  0  0  0  0  0
  147.3277  133.6798  160.5097 C   0  0  0  0  0  0  0  0  0  0  0  0
  146.7343  133.7928  161.7824 C   0  0  0  0  0  0  0  0  0  0  0  0
  146.7620  135.0471  162.4176 C   0  0  0  0  0  0  0  0  0  0  0  0
  147.3772  136.1289  161.7589 C   0  0  0  0  0  0  0  0  0  0  0  0
  147.9478  135.9309  160.4816 C   0  0  0  0  0  0  0  0  0  0  0  0
  148.5400  137.0837  159.9042 N   0  0  0  0  0  0  0  0  0  0  0  0
  149.6185  137.1602  159.1002 C   0  0  0  0  0  0  0  0  0  0  0  0
  150.2848  136.1975  158.7241 O   0  0  0  0  0  0  0  0  0  0  0  0
  149.9183  138.4112  158.7082 N   0  0  0  0  0  0  0  0  0  0  0  0
  151.0195  138.8328  157.8402 C   0  0  1  0  0  0  0  0  0  0  0  0
  150.7198  138.5594  156.3574 C   0  0  2  0  0  0  0  0  0  0  0  0
  151.5431  137.5534  155.6006 C   0  0  0  0  0  0  0  0  0  0  0  0
  152.6010  138.4240  154.9172 C   0  0  0  0  0  0  0  0  0  0  0  0
  152.6429  139.6166  155.6974 O   0  0  0  0  0  0  0  0  0  0  0  0
  151.3035  139.9337  156.0688 C   0  0  2  0  0  0  0  0  0  0  0  0
  151.0687  140.3508  157.5362 C   0  0  0  0  0  0  0  0  0  0  0  0
  149.8270  141.2119  157.7791 C   0  0  0  0  0  0  0  0  0  0  0  0
  150.2761  142.6636  157.6199 C   0  0  0  0  0  0  0  0  0  0  0  0
  151.7512  142.6740  158.0308 C   0  0  0  0  0  0  0  0  0  0  0  0
  152.1531  141.2031  158.1954 C   0  0  0  0  0  0  0  0  0  0  0  0
  147.9173  134.7171  159.8774 N   0  0  0  0  0  0  0  0  0  0  0  0
  146.7632  131.6019  160.3017 H   0  0  0  0  0  0  0  0  0  0  0  0
  148.3593  131.9968  159.6553 H   0  0  0  0  0  0  0  0  0  0  0  0
  146.9029  132.4788  158.7751 H   0  0  0  0  0  0  0  0  0  0  0  0
  146.2699  132.9434  162.2614 H   0  0  0  0  0  0  0  0  0  0  0  0
  146.3188  135.1782  163.3937 H   0  0  0  0  0  0  0  0  0  0  0  0
  147.4063  137.0996  162.2325 H   0  0  0  0  0  0  0  0  0  0  0  0
  148.0839  137.9584  160.1177 H   0  0  0  0  0  0  0  0  0  0  0  0
  149.2991  139.1440  159.0234 H   0  0  0  0  0  0  0  0  0  0  0  0
  151.9962  138.4386  158.1305 H   0  0  0  0  0  0  0  0  0  0  0  0
  149.6500  138.5280  156.1424 H   0  0  0  0  0  0  0  0  0  0  0  0
  152.0080  136.8396  156.2816 H   0  0  0  0  0  0  0  0  0  0  0  0
  150.9558  136.9903  154.8749 H   0  0  0  0  0  0  0  0  0  0  0  0
  153.5771  137.9410  154.8680 H   0  0  0  0  0  0  0  0  0  0  0  0
  152.2919  138.6760  153.9016 H   0  0  0  0  0  0  0  0  0  0  0  0
  150.7601  140.5000  155.3108 H   0  0  0  0  0  0  0  0  0  0  0  0
  149.0071  140.9697  157.1021 H   0  0  0  0  0  0  0  0  0  0  0  0
  149.4539  141.0713  158.7940 H   0  0  0  0  0  0  0  0  0  0  0  0
  150.1858  142.9633  156.5751 H   0  0  0  0  0  0  0  0  0  0  0  0
  149.6712  143.3494  158.2137 H   0  0  0  0  0  0  0  0  0  0  0  0
  152.3543  143.1598  157.2628 H   0  0  0  0  0  0  0  0  0  0  0  0
  151.9027  143.2215  158.9617 H   0  0  0  0  0  0  0  0  0  0  0  0
  152.2186  140.9683  159.2579 H   0  0  0  0  0  0  0  0  0  0  0  0
  153.1436  141.0184  157.7793 H   0  0  0  0  0  0  0  0  0  0  0  0
  1  2  1  0  0  0  0
  1 23  1  0  0  0  0
  1 24  1  0  0  0  0
  1 25  1  0  0  0  0
  2 22  1  0  0  0  0
  2  3  2  0  0  0  0
  3  4  1  0  0  0  0
  3 26  1  0  0  0  0
  4  5  2  0  0  0  0
  4 27  1  0  0  0  0
  5  6  1  0  0  0  0
  5 28  1  0  0  0  0
  6  7  1  0  0  0  0
  6 22  2  0  0  0  0
  7  8  1  0  0  0  0
  7 29  1  0  0  0  0
  8  9  2  0  0  0  0
  8 10  1  0  0  0  0
 10 11  1  0  0  0  0
 10 30  1  0  0  0  0
 11 17  1  0  0  0  0
 11 12  1  0  0  0  0
 11 31  1  0  0  0  0
 12 16  1  0  0  0  0
 12 13  1  0  0  0  0
 12 32  1  0  0  0  0
 13 14  1  0  0  0  0
 13 33  1  0  0  0  0
 13 34  1  0  0  0  0
 14 15  1  0  0  0  0
 14 35  1  0  0  0  0
 14 36  1  0  0  0  0
 15 16  1  0  0  0  0
 16 17  1  0  0  0  0
 16 37  1  0  0  0  0
 17 21  1  0  0  0  0
 17 18  1  0  0  0  0
 18 19  1  0  0  0  0
 18 38  1  0  0  0  0
 18 39  1  0  0  0  0
 19 20  1  0  0  0  0
 19 40  1  0  0  0  0
 19 41  1  0  0  0  0
 20 21  1  0  0  0  0
 20 42  1  0  0  0  0
 20 43  1  0  0  0  0
 21 44  1  0  0  0  0
 21 45  1  0  0  0  0
M  END
> <s_m_source_file>
AV-unprocessed.smi

> <i_m_source_file_index>
2329

> <i_lp_mmshare_version>
43012

> <i_f3d_flags>
0

> <s_epik_input>
W0NIM11jMVtjSF1bY0hdW2NIXWMobjEpW05IXUMoPU8pW05IXVtDQEBIXTJbQ0BASF0oW0NIMl1bQ0gyXU8zKVtDQEhdM0MyNFtDSDJdW0NIMl1bQ0gyXVtDSDJdNA==

> <s_epik_cmdline>
J2VwaWtfcHl0aG9uJywgJy1waCcsICc3LjAnLCAnLXRuJywgJzgnLCAnLW1hJywgJzIwMCcsICctbWV0YWxfYmluZGluZycsICctaW1hZScsICc8aW5maWxlLm1hZT4nLCAnLW9tYWUnLCAnPG91dGZpbGUubWFlPic=

> <r_lp_tautomer_probability>
1

> <r_epik_Ionization_Penalty>
8.97002e-05

> <r_epik_Ionization_Penalty_Charging>
0

> <r_epik_Ionization_Penalty_Neutral>
8.97002e-05

> <r_epik_State_Penalty>
-0

> <r_epik_Charging_Adjusted_Penalty>
0

> <i_epik_Tot_Q>
0

> <i_epik_Tot_abs_Q>
0

> <r_epik_Metal_State_Penalty>
-0

> <b_epik_Metal_Only>
0

> <s_lp_Force_Field>
OPLS_2005

> <r_lp_Energy>
64.4638

> <b_lp_Chiralities_Consistent>
1

> <s_lp_Variant>
AV-unprocessed.smi:2329-4

> <Gold.Version>
5.8.1

> <Gold.Id.Protein>
6NUR|6NUR_protein|mol2

> <Gold.PLP.Fitness>
42.3891

> <Gold.PLP.PLP>
-36.9055

> <Gold.PLP.part.hbond>
-2.0000

> <Gold.PLP.part.metal>
0.0000

> <Gold.PLP.part.buried>
-6.4558

> <Gold.PLP.part.nonpolar>
-30.6915

> <Gold.PLP.part.repulsive>
1.7539

> <Gold.PLP.ligand.clash>
0.0000

> <Gold.PLP.ligand.torsion>
0.3501

> <Gold.PLP.Chemscore.Hbond>
2.0000

> <Gold.PLP.Chemscore.CHOScore>
0.0000

> <Gold.PLP.Chemscore.Metal>
0.0000

> <Gold.Chemscore.Hbonds>
donor molecule, donor type, donor heavy atom, donor atom, acceptor molecule, acceptor atom, score
      P1  H  6896  6909       L1     9  1.00
      P1  H  7997  8010       L1    15  1.00

> <Gold.PLP.Chemscore.Internal.Correction>
0.1838

> <Gold.Rescore>
     Score         DG    S(hbond)    S(metal)    S(lipo)     H(rot)  DE(clash)    DE(int)     intcor
     18.66     -20.36       1.94        0.00      93.59       1.00       0.32       1.38       ----

> <Gold.Chemscore.Fitness>
18.6606

> <Gold.Chemscore.DG>
-20.3608

> <Gold.Chemscore.ZeroCoef>
-5.4800

> <Gold.Chemscore.Hbond>
1.9433

> <Gold.Chemscore.Metal>
0.0000

> <Gold.Chemscore.Lipo>
93.5919

> <Gold.Chemscore.Internal_Hbond>
0.0000

> <Gold.Chemscore.DEClash>
0.3175

> <Gold.Chemscore.DEInternal>
1.3826

> <Gold.Chemscore.Rot>
1.0000

> <Gold.Chemscore.Internal.Correction>
   9.000000E+99

> <Gold.Chemscore.Hbonds>
donor molecule, donor type, donor heavy atom, donor atom, acceptor molecule, acceptor atom, score
      P1  H  6896  6909       L1     9  0.97
      P1  H  7997  8010       L1    15  0.93

> <Gold.Chemscore.Hbond.Weighted>
-6.4905

> <Gold.Chemscore.Metal.Weighted>
-0.0000

> <Gold.Chemscore.Lipo.Weighted>
-10.9503

> <Gold.Chemscore.Internal_Hbond.Weighted>
0.0000

> <Gold.Chemscore.DEClash.Weighted>
0.3175

> <Gold.Chemscore.DEInternal.Weighted>
1.3826

> <Gold.Chemscore.Rot.Weighted>
2.5600

> <Gold.Chemscore.Internal.Correction.Weighted>
   9.000000E+99

> <Gold.Protein.RotatedTorsions>
[ 6907 6896 6895 6894 ] final   71.02 input  -60.11 | X-H torsion
[ 7974 7965 7964 7962 ] final   -2.64 input  175.53 | X-H torsion
[ 8008 7997 7996 7995 ] final   78.07 input   59.86 | X-H torsion
[ 10167 10162 10161 10158 ] final   17.56 input  -65.29 | X-H torsion
[ 10718 10713 10712 10709 ] final  -58.17 input   66.30 | X-H torsion
[ 10763 10752 10751 10750 ] final -125.62 input  -60.55 | X-H torsion
[ 11005 11000 10999 10996 ] final    5.73 input  -57.11 | X-H torsion

> <Gold.Protein.ActiveResidues>
 VAL166  LYS551  ARG553  GLY616  TRP617  ASP618  TYR619  PRO620  LYS621  CYS622 
 ASP623  PHE694  ASN695  SER759  ASP760  ASP761  ALA762  ILE779  LEU786  VAL792 
 PHE793  MET794  SER795  GLU796  ALA797  LYS798  CYS799  TRP800  GLU811  SER814 

> <Gold.Protein.RotatedAtoms>
  152.4785  134.4783  159.9657 H   0  0  0  0  0  0  0  0  0  0  0  0  # atno 6907 bound_to 6896
  151.4794  133.3544  159.2843 H   0  0  0  0  0  0  0  0  0  0  0  0  # atno 6908 bound_to 6896
  150.8840  134.8261  159.7306 H   0  0  0  0  0  0  0  0  0  0  0  0  # atno 6909 bound_to 6896
  146.2401  140.1601  142.8333 H   0  0  0  0  0  0  0  0  0  0  0  0  # atno 7974 bound_to 7965
  155.8505  140.3458  155.5690 H   0  0  0  0  0  0  0  0  0  0  0  0  # atno 8008 bound_to 7997
  155.8042  140.0889  157.1959 H   0  0  0  0  0  0  0  0  0  0  0  0  # atno 8009 bound_to 7997
  154.4007  140.1460  156.3298 H   0  0  0  0  0  0  0  0  0  0  0  0  # atno 8010 bound_to 7997
  140.5717  143.9148  150.6718 H   0  0  0  0  0  0  0  0  0  0  0  0  # atno 10167 bound_to 10162
  156.1155  130.4171  150.0541 H   0  0  0  0  0  0  0  0  0  0  0  0  # atno 10718 bound_to 10713
  154.8737  135.4023  154.3297 H   0  0  0  0  0  0  0  0  0  0  0  0  # atno 10763 bound_to 10752
  153.4112  135.7021  153.6363 H   0  0  0  0  0  0  0  0  0  0  0  0  # atno 10764 bound_to 10752
  153.5064  135.3716  155.2536 H   0  0  0  0  0  0  0  0  0  0  0  0  # atno 10765 bound_to 10752
  140.5674  134.0134  155.7995 H   0  0  0  0  0  0  0  0  0  0  0  0  # atno 11005 bound_to 11000
  145.0096  140.8703  143.5232 LP  0  0  0  0  0  0  0  0  0  0  0  0  # atno 17320 bound_to 7965
  145.1632  139.2446  143.5380 LP  0  0  0  0  0  0  0  0  0  0  0  0  # atno 17321 bound_to 7965
  140.2625  143.3513  152.1310 LP  0  0  0  0  0  0  0  0  0  0  0  0  # atno 17342 bound_to 10162
  139.5121  144.6911  151.5756 LP  0  0  0  0  0  0  0  0  0  0  0  0  # atno 17343 bound_to 10162
  156.8493  130.9453  151.3626 LP  0  0  0  0  0  0  0  0  0  0  0  0  # atno 17370 bound_to 10713
  157.6338  130.8750  149.9321 LP  0  0  0  0  0  0  0  0  0  0  0  0  # atno 17371 bound_to 10713
  141.1077  133.9667  157.2967 LP  0  0  0  0  0  0  0  0  0  0  0  0  # atno 17394 bound_to 11000
  139.9378  135.0194  156.8612 LP  0  0  0  0  0  0  0  0  0  0  0  0  # atno 17395 bound_to 11000

$$$$
