AV-unprocessed.smi:957|AV-procd|sdf|4265|dock6
  -GOLD-   22720 2173D 1   1.00000     0.00000
 Structure written by MMmdl.
 30 31  0  0  0  0  0  0  0  0  2 V2000
  151.6091  143.7055  157.4222 C   0  0  0  0  0  0  0  0  0  0  0  0
  150.6379  142.5300  157.2589 C   0  0  0  0  0  0  0  0  0  0  0  0
  151.3382  141.2615  157.1538 N   0  0  0  0  0  0  0  0  0  0  0  0
  152.3019  140.7848  157.9569 C   0  0  0  0  0  0  0  0  0  0  0  0
  152.7704  139.5830  157.6263 N   0  0  0  0  0  0  0  0  0  0  0  0
  152.0530  139.2288  156.5031 N   0  0  0  0  0  0  0  0  0  0  0  0
  151.2238  140.2529  156.2613 C   0  0  0  0  0  0  0  0  0  0  0  0
  150.2512  140.2669  155.1145 C   0  0  2  0  0  0  0  0  0  0  0  0
  148.8747  140.8179  155.5335 C   0  0  0  0  0  0  0  0  0  0  0  0
  147.9036  140.8025  154.3432 C   0  0  0  0  0  0  0  0  0  0  0  0
  147.8134  139.3967  153.7270 C   0  0  0  0  0  0  0  0  0  0  0  0
  149.1542  138.9107  153.3350 N   0  3  0  0  0  0  0  0  0  0  0  0
  150.1095  138.8750  154.4645 C   0  0  0  0  0  0  0  0  0  0  0  0
  151.0668  144.6490  157.4865 H   0  0  0  0  0  0  0  0  0  0  0  0
  152.2909  143.7721  156.5738 H   0  0  0  0  0  0  0  0  0  0  0  0
  152.2099  143.6067  158.3263 H   0  0  0  0  0  0  0  0  0  0  0  0
  149.9378  142.4842  158.0932 H   0  0  0  0  0  0  0  0  0  0  0  0
  150.0370  142.6698  156.3596 H   0  0  0  0  0  0  0  0  0  0  0  0
  152.6724  141.3326  158.8110 H   0  0  0  0  0  0  0  0  0  0  0  0
  150.6378  140.9347  154.3457 H   0  0  0  0  0  0  0  0  0  0  0  0
  148.4620  140.2166  156.3448 H   0  0  0  0  0  0  0  0  0  0  0  0
  148.9745  141.8334  155.9182 H   0  0  0  0  0  0  0  0  0  0  0  0
  146.9153  141.1339  154.6637 H   0  0  0  0  0  0  0  0  0  0  0  0
  148.2381  141.5143  153.5872 H   0  0  0  0  0  0  0  0  0  0  0  0
  147.3720  138.6976  154.4387 H   0  0  0  0  0  0  0  0  0  0  0  0
  147.1677  139.4086  152.8486 H   0  0  0  0  0  0  0  0  0  0  0  0
  149.0665  137.9802  152.9515 H   0  0  0  0  0  0  0  0  0  0  0  0
  151.0757  138.5277  154.0968 H   0  0  0  0  0  0  0  0  0  0  0  0
  149.7642  138.1415  155.1945 H   0  0  0  0  0  0  0  0  0  0  0  0
  149.5221  139.5236  152.6216 H   0  0  0  0  0  0  0  0  0  0  0  0
  1  2  1  0  0  0  0
  1 14  1  0  0  0  0
  1 15  1  0  0  0  0
  1 16  1  0  0  0  0
  2  3  1  0  0  0  0
  2 17  1  0  0  0  0
  2 18  1  0  0  0  0
  3  7  1  0  0  0  0
  3  4  1  0  0  0  0
  4  5  2  0  0  0  0
  4 19  1  0  0  0  0
  5  6  1  0  0  0  0
  6  7  2  0  0  0  0
  7  8  1  0  0  0  0
  8 13  1  0  0  0  0
  8  9  1  0  0  0  0
  8 20  1  0  0  0  0
  9 10  1  0  0  0  0
  9 21  1  0  0  0  0
  9 22  1  0  0  0  0
 10 11  1  0  0  0  0
 10 23  1  0  0  0  0
 10 24  1  0  0  0  0
 11 12  1  0  0  0  0
 11 25  1  0  0  0  0
 11 26  1  0  0  0  0
 12 13  1  0  0  0  0
 12 27  1  0  0  0  0
 12 30  1  0  0  0  0
 13 28  1  0  0  0  0
 13 29  1  0  0  0  0
M  CHG  1  12   1
M  END
> <s_m_source_file>
AV-unprocessed.smi

> <i_m_source_file_index>
957

> <i_lp_mmshare_version>
43012

> <i_f3d_flags>
0

> <s_epik_input>
W0NIM11bQ0gyXW4xW2NIXW5uYzFbQ0BASF0yW0NIMl1bQ0gyXVtDSDJdW05IXVtDSDJdMg==

> <s_epik_cmdline>
J2VwaWtfcHl0aG9uJywgJy1waCcsICc3LjAnLCAnLXRuJywgJzgnLCAnLW1hJywgJzIwMCcsICctbWV0YWxfYmluZGluZycsICctaW1hZScsICc8aW5maWxlLm1hZT4nLCAnLW9tYWUnLCAnPG91dGZpbGUubWFlPic=

> <r_lp_tautomer_probability>
1

> <r_epik_Ionization_Penalty>
0.000442722

> <r_epik_Ionization_Penalty_Charging>
0.000426856

> <r_epik_Ionization_Penalty_Neutral>
1.58656e-05

> <r_epik_State_Penalty>
-0

> <r_epik_Charging_Adjusted_Penalty>
0.000426856

> <i_epik_Tot_Q>
1

> <i_epik_Tot_abs_Q>
1

> <r_epik_Metal_State_Penalty>
-0

> <b_epik_Metal_Only>
0

> <s_lp_Force_Field>
OPLS_2005

> <r_lp_Energy>
16.0383

> <b_lp_Chiralities_Consistent>
1

> <s_lp_Variant>
AV-unprocessed.smi:957-1

> <Gold.Version>
5.8.1

> <Gold.Id.Protein>
6NUR|6NUR_protein|mol2

> <Gold.PLP.Fitness>
35.2921

> <Gold.PLP.PLP>
-24.2400

> <Gold.PLP.part.hbond>
-2.8054

> <Gold.PLP.part.metal>
0.0000

> <Gold.PLP.part.buried>
-2.0905

> <Gold.PLP.part.nonpolar>
-19.6646

> <Gold.PLP.part.repulsive>
0.1022

> <Gold.PLP.ligand.clash>
0.0000

> <Gold.PLP.ligand.torsion>
0.4873

> <Gold.PLP.Chemscore.Hbond>
4.0000

> <Gold.PLP.Chemscore.CHOScore>
0.0000

> <Gold.PLP.Chemscore.Metal>
0.0000

> <Gold.Chemscore.Hbonds>
donor molecule, donor type, donor heavy atom, donor atom, acceptor molecule, acceptor atom, score
      L1  H    12    27       P1  7948  1.98
      L1  H    12    30       P1  7957  1.00
      P1  H  7997  8010       L1     5  1.00

> <Gold.PLP.Chemscore.Internal.Correction>
0.0267

> <Gold.Rescore>
     Score         DG    S(hbond)    S(metal)    S(lipo)     H(rot)  DE(clash)    DE(int)     intcor
     14.75     -16.53       2.57        0.00      48.70       1.26       0.09       1.68       ----

> <Gold.Chemscore.Fitness>
14.7521

> <Gold.Chemscore.DG>
-16.5272

> <Gold.Chemscore.ZeroCoef>
-5.4800

> <Gold.Chemscore.Hbond>
2.5652

> <Gold.Chemscore.Metal>
0.0000

> <Gold.Chemscore.Lipo>
48.7030

> <Gold.Chemscore.Internal_Hbond>
0.0000

> <Gold.Chemscore.DEClash>
0.0936

> <Gold.Chemscore.DEInternal>
1.6816

> <Gold.Chemscore.Rot>
1.2573

> <Gold.Chemscore.Internal.Correction>
   9.000000E+99

> <Gold.Chemscore.Hbonds>
donor molecule, donor type, donor heavy atom, donor atom, acceptor molecule, acceptor atom, score
      L1  H    12    27       P1  7948  0.92
      L1  H    12    30       P1  7957  0.92
      P1  H  7997  8010       L1     5  0.18

> <Gold.Chemscore.Hbond.Weighted>
-8.5677

> <Gold.Chemscore.Metal.Weighted>
-0.0000

> <Gold.Chemscore.Lipo.Weighted>
-5.6982

> <Gold.Chemscore.Internal_Hbond.Weighted>
0.0000

> <Gold.Chemscore.DEClash.Weighted>
0.0936

> <Gold.Chemscore.DEInternal.Weighted>
1.6816

> <Gold.Chemscore.Rot.Weighted>
3.2188

> <Gold.Chemscore.Internal.Correction.Weighted>
   9.000000E+99

> <Gold.Protein.RotatedTorsions>
[ 6907 6896 6895 6894 ] final  -60.99 input  -60.11 | X-H torsion
[ 7974 7965 7964 7962 ] final   42.93 input  175.53 | X-H torsion
[ 8008 7997 7996 7995 ] final   30.89 input   59.86 | X-H torsion
[ 10167 10162 10161 10158 ] final  165.95 input  -65.29 | X-H torsion
[ 10718 10713 10712 10709 ] final -167.40 input   66.30 | X-H torsion
[ 10763 10752 10751 10750 ] final  179.98 input  -60.55 | X-H torsion
[ 11005 11000 10999 10996 ] final   -6.93 input  -57.11 | X-H torsion

> <Gold.Protein.ActiveResidues>
 VAL166  LYS551  ARG553  GLY616  TRP617  ASP618  TYR619  PRO620  LYS621  CYS622 
 ASP623  PHE694  ASN695  SER759  ASP760  ASP761  ALA762  ILE779  LEU786  VAL792 
 PHE793  MET794  SER795  GLU796  ALA797  LYS798  CYS799  TRP800  GLU811  SER814 

> <Gold.Protein.RotatedAtoms>
  150.7817  134.6764  159.6419 H   0  0  0  0  0  0  0  0  0  0  0  0  # atno 6907 bound_to 6896
  152.3902  134.6449  160.0119 H   0  0  0  0  0  0  0  0  0  0  0  0  # atno 6908 bound_to 6896
  151.6752  133.3276  159.3242 H   0  0  0  0  0  0  0  0  0  0  0  0  # atno 6909 bound_to 6896
  146.0699  139.5244  142.9605 H   0  0  0  0  0  0  0  0  0  0  0  0  # atno 7974 bound_to 7965
  155.0976  140.3226  155.4556 H   0  0  0  0  0  0  0  0  0  0  0  0  # atno 8008 bound_to 7997
  156.2726  140.2067  156.6049 H   0  0  0  0  0  0  0  0  0  0  0  0  # atno 8009 bound_to 7997
  154.6854  140.0522  157.0296 H   0  0  0  0  0  0  0  0  0  0  0  0  # atno 8010 bound_to 7997
  139.4915  144.4078  151.9334 H   0  0  0  0  0  0  0  0  0  0  0  0  # atno 10167 bound_to 10162
  156.6818  130.9125  151.3058 H   0  0  0  0  0  0  0  0  0  0  0  0  # atno 10718 bound_to 10713
  154.5277  135.2798  155.1208 H   0  0  0  0  0  0  0  0  0  0  0  0  # atno 10763 bound_to 10752
  154.2740  135.6298  153.5325 H   0  0  0  0  0  0  0  0  0  0  0  0  # atno 10764 bound_to 10752
  152.9950  135.5635  154.5782 H   0  0  0  0  0  0  0  0  0  0  0  0  # atno 10765 bound_to 10752
  140.7073  133.8938  155.8725 H   0  0  0  0  0  0  0  0  0  0  0  0  # atno 11005 bound_to 11000
  145.6411  141.0284  143.1811 LP  0  0  0  0  0  0  0  0  0  0  0  0  # atno 17320 bound_to 7965
  144.7225  139.7983  143.7377 LP  0  0  0  0  0  0  0  0  0  0  0  0  # atno 17321 bound_to 7965
  140.3519  144.3078  150.5948 LP  0  0  0  0  0  0  0  0  0  0  0  0  # atno 17342 bound_to 10162
  140.5478  143.2211  151.7978 LP  0  0  0  0  0  0  0  0  0  0  0  0  # atno 17343 bound_to 10162
  157.7041  130.9365  150.0875 LP  0  0  0  0  0  0  0  0  0  0  0  0  # atno 17370 bound_to 10713
  156.1862  130.3652  149.8970 LP  0  0  0  0  0  0  0  0  0  0  0  0  # atno 17371 bound_to 10713
  141.0114  134.1015  157.4217 LP  0  0  0  0  0  0  0  0  0  0  0  0  # atno 17394 bound_to 11000
  139.8881  135.0095  156.6599 LP  0  0  0  0  0  0  0  0  0  0  0  0  # atno 17395 bound_to 11000

$$$$
