AV-unprocessed.smi:1667|AV-procd|sdf|6676|dock2
  -GOLD-   22720 7393D 1   1.00000     0.00000
 Structure written by MMmdl.
 45 47  0  0  0  0  0  0  0  0  1 V2000
  148.3503  136.9554  159.2438 C   0  0  0  0  0  0  0  0  0  0  0  0
  149.8183  137.0940  158.8569 C   0  0  0  0  0  0  0  0  0  0  0  0
  150.4607  136.0998  158.5227 O   0  0  0  0  0  0  0  0  0  0  0  0
  150.3239  138.3379  158.9107 N   0  0  0  0  0  0  0  0  0  0  0  0
  151.6912  138.7709  158.6112 C   0  0  2  0  0  0  0  0  0  0  0  0
  152.7694  137.9814  159.3786 C   0  0  0  0  0  0  0  0  0  0  0  0
  151.7971  140.2706  158.7584 C   0  0  0  0  0  0  0  0  0  0  0  0
  152.6656  140.8365  159.5998 N   0  0  0  0  0  0  0  0  0  0  0  0
  152.3853  142.1810  159.4802 C   0  0  0  0  0  0  0  0  0  0  0  0
  152.9690  143.2987  160.1181 C   0  0  0  0  0  0  0  0  0  0  0  0
  152.5024  144.6006  159.8441 C   0  0  0  0  0  0  0  0  0  0  0  0
  151.4468  144.8020  158.9318 C   0  0  0  0  0  0  0  0  0  0  0  0
  150.8516  143.7009  158.2866 C   0  0  0  0  0  0  0  0  0  0  0  0
  151.3240  142.4023  158.5594 C   0  0  0  0  0  0  0  0  0  0  0  0
  150.9680  141.1330  158.1086 N   0  0  0  0  0  0  0  0  0  0  0  0
  149.8983  140.8336  157.1586 C   0  0  0  0  0  0  0  0  0  0  0  0
  150.2753  141.0801  155.6783 C   0  0  1  0  0  0  0  0  0  0  0  0
  151.3583  140.2539  155.2999 O   0  0  0  0  0  0  0  0  0  0  0  0
  149.0875  140.9633  154.7319 C   0  0  0  0  0  0  0  0  0  0  0  0
  148.9215  139.8267  153.9083 C   0  0  0  0  0  0  0  0  0  0  0  0
  147.8090  139.7269  153.0507 C   0  0  0  0  0  0  0  0  0  0  0  0
  146.8530  140.7598  153.0134 C   0  0  0  0  0  0  0  0  0  0  0  0
  147.0119  141.8942  153.8321 C   0  0  0  0  0  0  0  0  0  0  0  0
  146.0913  142.8863  153.8000 F   0  0  0  0  0  0  0  0  0  0  0  0
  148.1268  141.9965  154.6866 C   0  0  0  0  0  0  0  0  0  0  0  0
  151.8468  138.5173  157.5660 H   0  0  0  0  0  0  0  0  0  0  0  0
  147.7192  137.4992  158.5404 H   0  0  0  0  0  0  0  0  0  0  0  0
  148.1795  137.3555  160.2437 H   0  0  0  0  0  0  0  0  0  0  0  0
  148.0447  135.9086  159.2390 H   0  0  0  0  0  0  0  0  0  0  0  0
  149.6913  139.0690  159.2009 H   0  0  0  0  0  0  0  0  0  0  0  0
  153.7674  138.2655  159.0451 H   0  0  0  0  0  0  0  0  0  0  0  0
  152.6609  136.9095  159.2122 H   0  0  0  0  0  0  0  0  0  0  0  0
  152.7245  138.1559  160.4534 H   0  0  0  0  0  0  0  0  0  0  0  0
  153.7750  143.1533  160.8223 H   0  0  0  0  0  0  0  0  0  0  0  0
  152.9551  145.4478  160.3379 H   0  0  0  0  0  0  0  0  0  0  0  0
  151.0937  145.8022  158.7277 H   0  0  0  0  0  0  0  0  0  0  0  0
  150.0428  143.8539  157.5880 H   0  0  0  0  0  0  0  0  0  0  0  0
  149.5589  139.8081  157.3015 H   0  0  0  0  0  0  0  0  0  0  0  0
  149.0405  141.4548  157.4193 H   0  0  0  0  0  0  0  0  0  0  0  0
  150.6483  142.1021  155.6009 H   0  0  0  0  0  0  0  0  0  0  0  0
  152.0222  140.3044  155.9706 H   0  0  0  0  0  0  0  0  0  0  0  0
  149.6401  139.0208  153.9378 H   0  0  0  0  0  0  0  0  0  0  0  0
  147.6855  138.8545  152.4261 H   0  0  0  0  0  0  0  0  0  0  0  0
  145.9977  140.6810  152.3587 H   0  0  0  0  0  0  0  0  0  0  0  0
  148.2378  142.8683  155.3146 H   0  0  0  0  0  0  0  0  0  0  0  0
  1  2  1  0  0  0  0
  1 27  1  0  0  0  0
  1 28  1  0  0  0  0
  1 29  1  0  0  0  0
  2  3  2  0  0  0  0
  2  4  1  0  0  0  0
  4  5  1  0  0  0  0
  4 30  1  0  0  0  0
  5 26  1  0  0  0  0
  5  6  1  0  0  0  0
  5  7  1  0  0  0  0
  6 31  1  0  0  0  0
  6 32  1  0  0  0  0
  6 33  1  0  0  0  0
  7 15  1  0  0  0  0
  7  8  2  0  0  0  0
  8  9  1  0  0  0  0
  9 14  2  0  0  0  0
  9 10  1  0  0  0  0
 10 11  2  0  0  0  0
 10 34  1  0  0  0  0
 11 12  1  0  0  0  0
 11 35  1  0  0  0  0
 12 13  2  0  0  0  0
 12 36  1  0  0  0  0
 13 14  1  0  0  0  0
 13 37  1  0  0  0  0
 14 15  1  0  0  0  0
 15 16  1  0  0  0  0
 16 17  1  0  0  0  0
 16 38  1  0  0  0  0
 16 39  1  0  0  0  0
 17 18  1  0  0  0  0
 17 19  1  0  0  0  0
 17 40  1  0  0  0  0
 18 41  1  0  0  0  0
 19 25  1  0  0  0  0
 19 20  2  0  0  0  0
 20 21  1  0  0  0  0
 20 42  1  0  0  0  0
 21 22  2  0  0  0  0
 21 43  1  0  0  0  0
 22 23  1  0  0  0  0
 22 44  1  0  0  0  0
 23 24  1  0  0  0  0
 23 25  2  0  0  0  0
 25 45  1  0  0  0  0
M  END
> <s_m_source_file>
AV-unprocessed.smi

> <i_m_source_file_index>
1667

> <i_lp_mmshare_version>
43012

> <i_f3d_flags>
0

> <s_epik_input>
W0NIM11DKD1PKVtOSF1bQ0BASF0oW0NIM10pYyhuMSluKGMoYzEyKVtjSF1bY0hdW2NIXVtjSF0yKVtDSDJdW0NASF0oW09IXSljM1tjSF1bY0hdW2NIXWMoRilbY0hdMw==

> <s_epik_cmdline>
J2VwaWtfcHl0aG9uJywgJy1waCcsICc3LjAnLCAnLXRuJywgJzgnLCAnLW1hJywgJzIwMCcsICctbWV0YWxfYmluZGluZycsICctaW1hZScsICc8aW5maWxlLm1hZT4nLCAnLW9tYWUnLCAnPG91dGZpbGUubWFlPic=

> <r_epik_Ionization_Penalty>
0.133011

> <r_epik_Ionization_Penalty_Charging>
0

> <r_epik_Ionization_Penalty_Neutral>
0.133011

> <r_epik_State_Penalty>
0.122384

> <r_epik_Charging_Adjusted_Penalty>
0.122384

> <i_epik_Tot_Q>
0

> <i_epik_Tot_abs_Q>
0

> <r_epik_Metal_State_Penalty>
0.0997374

> <b_epik_Metal_Only>
0

> <s_lp_Force_Field>
OPLS_2005

> <r_lp_Energy>
8.29393

> <b_lp_Chiralities_Consistent>
1

> <s_lp_Variant>
AV-unprocessed.smi:1667-4

> <Gold.Version>
5.8.1

> <Gold.Id.Protein>
6NUR|6NUR_protein|mol2

> <Gold.PLP.Fitness>
54.1100

> <Gold.PLP.PLP>
-49.7033

> <Gold.PLP.part.hbond>
-2.0000

> <Gold.PLP.part.metal>
0.0000

> <Gold.PLP.part.buried>
-0.5671

> <Gold.PLP.part.nonpolar>
-46.9257

> <Gold.PLP.part.repulsive>
0.2054

> <Gold.PLP.ligand.clash>
0.0000

> <Gold.PLP.ligand.torsion>
0.8346

> <Gold.PLP.Chemscore.Hbond>
1.9120

> <Gold.PLP.Chemscore.CHOScore>
0.0000

> <Gold.PLP.Chemscore.Metal>
0.0000

> <Gold.Chemscore.Hbonds>
donor molecule, donor type, donor heavy atom, donor atom, acceptor molecule, acceptor atom, score
      P1  H  6896  6907       L1     3  0.91
      P1  H  7989  7998       L1    18  1.00

> <Gold.PLP.Chemscore.Internal.Correction>
0.3399

> <Gold.Rescore>
     Score         DG    S(hbond)    S(metal)    S(lipo)     H(rot)  DE(clash)    DE(int)     intcor
     15.86     -20.42       1.70        0.00     133.42       2.48       3.49       1.07       ----

> <Gold.Chemscore.Fitness>
15.8558

> <Gold.Chemscore.DG>
-20.4187

> <Gold.Chemscore.ZeroCoef>
-5.4800

> <Gold.Chemscore.Hbond>
1.6966

> <Gold.Chemscore.Metal>
0.0000

> <Gold.Chemscore.Lipo>
133.4238

> <Gold.Chemscore.Internal_Hbond>
0.0000

> <Gold.Chemscore.DEClash>
3.4907

> <Gold.Chemscore.DEInternal>
1.0722

> <Gold.Chemscore.Rot>
2.4760

> <Gold.Chemscore.Internal.Correction>
   9.000000E+99

> <Gold.Chemscore.Hbonds>
donor molecule, donor type, donor heavy atom, donor atom, acceptor molecule, acceptor atom, score
      P1  H  6896  6907       L1     3  0.86
      P1  H  7989  7998       L1    18  0.24

> <Gold.Chemscore.Hbond.Weighted>
-5.6666

> <Gold.Chemscore.Metal.Weighted>
-0.0000

> <Gold.Chemscore.Lipo.Weighted>
-15.6106

> <Gold.Chemscore.Internal_Hbond.Weighted>
0.0000

> <Gold.Chemscore.DEClash.Weighted>
3.4907

> <Gold.Chemscore.DEInternal.Weighted>
1.0722

> <Gold.Chemscore.Rot.Weighted>
6.3385

> <Gold.Chemscore.Internal.Correction.Weighted>
   9.000000E+99

> <Gold.Protein.RotatedTorsions>
[ 6907 6896 6895 6894 ] final  -43.97 input  -60.11 | X-H torsion
[ 7974 7965 7964 7962 ] final  141.93 input  175.53 | X-H torsion
[ 8008 7997 7996 7995 ] final  108.88 input   59.86 | X-H torsion
[ 10167 10162 10161 10158 ] final   92.15 input  -65.29 | X-H torsion
[ 10718 10713 10712 10709 ] final  -53.07 input   66.30 | X-H torsion
[ 10763 10752 10751 10750 ] final -113.20 input  -60.55 | X-H torsion
[ 11005 11000 10999 10996 ] final    8.91 input  -57.11 | X-H torsion

> <Gold.Protein.ActiveResidues>
 VAL166  LYS551  ARG553  GLY616  TRP617  ASP618  TYR619  PRO620  LYS621  CYS622 
 ASP623  PHE694  ASN695  SER759  ASP760  ASP761  ALA762  ILE779  LEU786  VAL792 
 PHE793  MET794  SER795  GLU796  ALA797  LYS798  CYS799  TRP800  GLU811  SER814 

> <Gold.Protein.RotatedAtoms>
  150.9380  134.8791  159.7593 H   0  0  0  0  0  0  0  0  0  0  0  0  # atno 6907 bound_to 6896
  152.5068  134.3983  159.9417 H   0  0  0  0  0  0  0  0  0  0  0  0  # atno 6908 bound_to 6896
  151.4005  133.3719  159.2766 H   0  0  0  0  0  0  0  0  0  0  0  0  # atno 6909 bound_to 6896
  144.9052  139.5368  143.5735 H   0  0  0  0  0  0  0  0  0  0  0  0  # atno 7974 bound_to 7965
  156.1937  140.3068  155.9384 H   0  0  0  0  0  0  0  0  0  0  0  0  # atno 8008 bound_to 7997
  155.3115  140.0451  157.3052 H   0  0  0  0  0  0  0  0  0  0  0  0  # atno 8009 bound_to 7997
  154.5483  140.2283  155.8535 H   0  0  0  0  0  0  0  0  0  0  0  0  # atno 8010 bound_to 7997
  139.8305  144.6689  150.9406 H   0  0  0  0  0  0  0  0  0  0  0  0  # atno 10167 bound_to 10162
  156.1566  130.4150  149.9859 H   0  0  0  0  0  0  0  0  0  0  0  0  # atno 10718 bound_to 10713
  154.8385  135.4463  154.1312 H   0  0  0  0  0  0  0  0  0  0  0  0  # atno 10763 bound_to 10752
  153.2522  135.6927  153.7673 H   0  0  0  0  0  0  0  0  0  0  0  0  # atno 10764 bound_to 10752
  153.6981  135.3376  155.3194 H   0  0  0  0  0  0  0  0  0  0  0  0  # atno 10765 bound_to 10752
  140.5317  134.0460  155.7875 H   0  0  0  0  0  0  0  0  0  0  0  0  # atno 11005 bound_to 11000
  146.3130  139.7814  142.9005 LP  0  0  0  0  0  0  0  0  0  0  0  0  # atno 17320 bound_to 7965
  145.3548  141.0314  143.3318 LP  0  0  0  0  0  0  0  0  0  0  0  0  # atno 17321 bound_to 7965
  140.7807  143.4006  151.1156 LP  0  0  0  0  0  0  0  0  0  0  0  0  # atno 17342 bound_to 10162
  139.7660  143.8565  152.3110 LP  0  0  0  0  0  0  0  0  0  0  0  0  # atno 17343 bound_to 10162
  156.7701  130.9183  151.3644 LP  0  0  0  0  0  0  0  0  0  0  0  0  # atno 17370 bound_to 10713
  157.6700  130.9042  150.0018 LP  0  0  0  0  0  0  0  0  0  0  0  0  # atno 17371 bound_to 10713
  141.1278  133.9354  157.2600 LP  0  0  0  0  0  0  0  0  0  0  0  0  # atno 17394 bound_to 11000
  139.9551  135.0167  156.9104 LP  0  0  0  0  0  0  0  0  0  0  0  0  # atno 17395 bound_to 11000

$$$$
