AV-unprocessed.smi:1599|AV-procd|sdf|6423|dock10
  -GOLD-   22720 7 63D 1   1.00000     0.00000
 Structure written by MMmdl.
 39 40  0  0  0  0  0  0  0  0  1 V2000
  147.0449  141.9036  154.3907 C   0  0  0  0  0  0  0  0  0  0  0  0
  148.2897  141.1755  153.8603 C   0  0  2  0  0  0  0  0  0  0  0  0
  147.8605  140.1646  152.8965 N   0  0  0  0  0  0  0  0  0  0  0  0
  146.9824  139.1799  153.1362 C   0  0  0  0  0  0  0  0  0  0  0  0
  146.4368  138.9995  154.2249 O   0  0  0  0  0  0  0  0  0  0  0  0
  146.7802  138.4321  152.0392 N   0  0  0  0  0  0  0  0  0  0  0  0
  145.9216  137.3118  151.9076 C   0  0  0  0  0  0  0  0  0  0  0  0
  144.5904  137.2507  152.3949 C   0  0  0  0  0  0  0  0  0  0  0  0
  144.0336  136.0803  152.1228 N   0  0  0  0  0  0  0  0  0  0  0  0
  144.9901  135.3805  151.4617 N   0  0  0  0  0  0  0  0  0  0  0  0
  144.7074  134.0325  151.0021 C   0  0  0  0  0  0  0  0  0  0  0  0
  145.8126  133.0611  151.4206 C   0  0  0  0  0  0  0  0  0  0  0  0
  146.6585  132.6539  150.4703 N   0  0  0  0  0  0  0  0  0  0  0  0
  145.9000  132.6809  152.5862 O   0  0  0  0  0  0  0  0  0  0  0  0
  146.1574  136.1040  151.3139 C   0  0  0  0  0  0  0  0  0  0  0  0
  149.1038  140.5105  154.9898 C   0  0  2  0  0  0  0  0  0  0  0  0
  149.4084  141.4203  156.1812 C   0  0  0  0  0  0  0  0  0  0  0  0
  150.6695  140.8193  156.7827 C   0  0  0  0  0  0  0  0  0  0  0  0
  151.1892  139.8757  155.6954 C   0  0  0  0  0  0  0  0  0  0  0  0
  150.4092  140.1720  154.5464 O   0  0  0  0  0  0  0  0  0  0  0  0
  147.3160  142.7112  155.0707 H   0  0  0  0  0  0  0  0  0  0  0  0
  146.3851  141.2224  154.9292 H   0  0  0  0  0  0  0  0  0  0  0  0
  146.4729  142.3464  153.5747 H   0  0  0  0  0  0  0  0  0  0  0  0
  148.9173  141.9159  153.3609 H   0  0  0  0  0  0  0  0  0  0  0  0
  148.2537  140.2305  151.9692 H   0  0  0  0  0  0  0  0  0  0  0  0
  147.2894  138.6963  151.2086 H   0  0  0  0  0  0  0  0  0  0  0  0
  144.0210  137.9998  152.9253 H   0  0  0  0  0  0  0  0  0  0  0  0
  143.7531  133.7137  151.4234 H   0  0  0  0  0  0  0  0  0  0  0  0
  144.5957  134.0298  149.9166 H   0  0  0  0  0  0  0  0  0  0  0  0
  147.3985  132.0057  150.6991 H   0  0  0  0  0  0  0  0  0  0  0  0
  146.5494  132.9893  149.5242 H   0  0  0  0  0  0  0  0  0  0  0  0
  147.0219  135.6989  150.8089 H   0  0  0  0  0  0  0  0  0  0  0  0
  148.6044  139.6030  155.3358 H   0  0  0  0  0  0  0  0  0  0  0  0
  149.6178  142.4342  155.8370 H   0  0  0  0  0  0  0  0  0  0  0  0
  148.5843  141.4712  156.8937 H   0  0  0  0  0  0  0  0  0  0  0  0
  151.3947  141.5979  157.0221 H   0  0  0  0  0  0  0  0  0  0  0  0
  150.4535  140.2681  157.6986 H   0  0  0  0  0  0  0  0  0  0  0  0
  152.2519  140.0116  155.4938 H   0  0  0  0  0  0  0  0  0  0  0  0
  151.0267  138.8353  155.9804 H   0  0  0  0  0  0  0  0  0  0  0  0
  1  2  1  0  0  0  0
  1 21  1  0  0  0  0
  1 22  1  0  0  0  0
  1 23  1  0  0  0  0
  2  3  1  0  0  0  0
  2 16  1  0  0  0  0
  2 24  1  0  0  0  0
  3  4  1  0  0  0  0
  3 25  1  0  0  0  0
  4  5  2  0  0  0  0
  4  6  1  0  0  0  0
  6  7  1  0  0  0  0
  6 26  1  0  0  0  0
  7 15  2  0  0  0  0
  7  8  1  0  0  0  0
  8  9  2  0  0  0  0
  8 27  1  0  0  0  0
  9 10  1  0  0  0  0
 10 11  1  0  0  0  0
 10 15  1  0  0  0  0
 11 12  1  0  0  0  0
 11 28  1  0  0  0  0
 11 29  1  0  0  0  0
 12 13  1  0  0  0  0
 12 14  2  0  0  0  0
 13 30  1  0  0  0  0
 13 31  1  0  0  0  0
 15 32  1  0  0  0  0
 16 20  1  0  0  0  0
 16 17  1  0  0  0  0
 16 33  1  0  0  0  0
 17 18  1  0  0  0  0
 17 34  1  0  0  0  0
 17 35  1  0  0  0  0
 18 19  1  0  0  0  0
 18 36  1  0  0  0  0
 18 37  1  0  0  0  0
 19 20  1  0  0  0  0
 19 38  1  0  0  0  0
 19 39  1  0  0  0  0
M  END
> <s_m_source_file>
AV-unprocessed.smi

> <i_m_source_file_index>
1599

> <i_lp_mmshare_version>
43012

> <i_f3d_flags>
0

> <s_epik_input>
TzFbQ0gyXVtDSDJdW0NIMl1bQ0BIXTFbQ0BIXShbQ0gzXSlbTkhdQyg9TylbTkhdYzJbY0hdbm4oW2NIXTIpW0NIMl1DKD1PKVtOSDJd

> <s_epik_cmdline>
J2VwaWtfcHl0aG9uJywgJy1waCcsICc3LjAnLCAnLXRuJywgJzgnLCAnLW1hJywgJzIwMCcsICctbWV0YWxfYmluZGluZycsICctaW1hZScsICc8aW5maWxlLm1hZT4nLCAnLW9tYWUnLCAnPG91dGZpbGUubWFlPic=

> <r_lp_tautomer_probability>
1

> <r_epik_Ionization_Penalty>
4.15391e-05

> <r_epik_Ionization_Penalty_Charging>
0

> <r_epik_Ionization_Penalty_Neutral>
4.15391e-05

> <r_epik_State_Penalty>
-0

> <r_epik_Charging_Adjusted_Penalty>
0

> <i_epik_Tot_Q>
0

> <i_epik_Tot_abs_Q>
0

> <r_epik_Metal_State_Penalty>
-0

> <b_epik_Metal_Only>
0

> <s_lp_Force_Field>
OPLS_2005

> <r_lp_Energy>
20.6042

> <b_lp_Chiralities_Consistent>
1

> <s_lp_Variant>
AV-unprocessed.smi:1599-1

> <Gold.Version>
5.8.1

> <Gold.Id.Protein>
6NUR|6NUR_protein|mol2

> <Gold.PLP.Fitness>
44.8940

> <Gold.PLP.PLP>
-33.0480

> <Gold.PLP.part.hbond>
-3.5293

> <Gold.PLP.part.metal>
0.0000

> <Gold.PLP.part.buried>
-1.9689

> <Gold.PLP.part.nonpolar>
-28.7731

> <Gold.PLP.part.repulsive>
0.7705

> <Gold.PLP.ligand.clash>
0.0000

> <Gold.PLP.ligand.torsion>
0.8559

> <Gold.PLP.Chemscore.Hbond>
2.8480

> <Gold.PLP.Chemscore.CHOScore>
1.6614

> <Gold.PLP.Chemscore.Metal>
0.0000

> <Gold.Chemscore.Hbonds>
donor molecule, donor type, donor heavy atom, donor atom, acceptor molecule, acceptor atom, score
      L1  H     3    25       P1  7957  0.88
      L1  H    13    30       P1 10747  1.00
      P1  H  7989  7998       L1    20  1.00
      L1  C     8    27       P1 10175  1.00
      L1  C    15    32       P1  7948  0.68

> <Gold.PLP.Chemscore.Internal.Correction>
0.0294

> <Gold.Rescore>
     Score         DG    S(hbond)    S(metal)    S(lipo)     H(rot)  DE(clash)    DE(int)     intcor
     12.46     -15.79       2.78        0.00      58.74       2.28       1.54       1.79       ----

> <Gold.Chemscore.Fitness>
12.4568

> <Gold.Chemscore.DG>
-15.7864

> <Gold.Chemscore.ZeroCoef>
-5.4800

> <Gold.Chemscore.Hbond>
2.7772

> <Gold.Chemscore.Metal>
0.0000

> <Gold.Chemscore.Lipo>
58.7446

> <Gold.Chemscore.Internal_Hbond>
0.0000

> <Gold.Chemscore.DEClash>
1.5367

> <Gold.Chemscore.DEInternal>
1.7928

> <Gold.Chemscore.Rot>
2.2823

> <Gold.Chemscore.Internal.Correction>
   9.000000E+99

> <Gold.Chemscore.Hbonds>
donor molecule, donor type, donor heavy atom, donor atom, acceptor molecule, acceptor atom, score
      L1  H     3    25       P1  7957  0.84
      L1  H    13    30       P1 10747  0.94
      P1  H  7989  7998       L1    20  0.30

> <Gold.Chemscore.Hbond.Weighted>
-9.2759

> <Gold.Chemscore.Metal.Weighted>
-0.0000

> <Gold.Chemscore.Lipo.Weighted>
-6.8731

> <Gold.Chemscore.Internal_Hbond.Weighted>
0.0000

> <Gold.Chemscore.DEClash.Weighted>
1.5367

> <Gold.Chemscore.DEInternal.Weighted>
1.7928

> <Gold.Chemscore.Rot.Weighted>
5.8427

> <Gold.Chemscore.Internal.Correction.Weighted>
   9.000000E+99

> <Gold.Protein.RotatedTorsions>
[ 6907 6896 6895 6894 ] final -120.82 input  -60.11 | X-H torsion
[ 7974 7965 7964 7962 ] final -152.57 input  175.53 | X-H torsion
[ 8008 7997 7996 7995 ] final   37.29 input   59.86 | X-H torsion
[ 10167 10162 10161 10158 ] final -144.05 input  -65.29 | X-H torsion
[ 10718 10713 10712 10709 ] final  113.06 input   66.30 | X-H torsion
[ 10763 10752 10751 10750 ] final  167.15 input  -60.55 | X-H torsion
[ 11005 11000 10999 10996 ] final   48.95 input  -57.11 | X-H torsion

> <Gold.Protein.ActiveResidues>
 VAL166  LYS551  ARG553  GLY616  TRP617  ASP618  TYR619  PRO620  LYS621  CYS622 
 ASP623  PHE694  ASN695  SER759  ASP760  ASP761  ALA762  ILE779  LEU786  VAL792 
 PHE793  MET794  SER795  GLU796  ALA797  LYS798  CYS799  TRP800  GLU811  SER814 

> <Gold.Protein.RotatedAtoms>
  150.8428  133.7909  159.3054 H   0  0  0  0  0  0  0  0  0  0  0  0  # atno 6907 bound_to 6896
  151.5606  135.1064  159.9981 H   0  0  0  0  0  0  0  0  0  0  0  0  # atno 6908 bound_to 6896
  152.4488  133.7546  159.6769 H   0  0  0  0  0  0  0  0  0  0  0  0  # atno 6909 bound_to 6896
  144.7787  140.4644  143.5855 H   0  0  0  0  0  0  0  0  0  0  0  0  # atno 7974 bound_to 7965
  155.2014  140.3316  155.4342 H   0  0  0  0  0  0  0  0  0  0  0  0  # atno 8008 bound_to 7997
  156.2405  140.1893  156.7050 H   0  0  0  0  0  0  0  0  0  0  0  0  # atno 8009 bound_to 7997
  154.6139  140.0605  156.9515 H   0  0  0  0  0  0  0  0  0  0  0  0  # atno 8010 bound_to 7997
  139.7935  143.7933  152.2652 H   0  0  0  0  0  0  0  0  0  0  0  0  # atno 10167 bound_to 10162
  157.6358  131.0978  150.6987 H   0  0  0  0  0  0  0  0  0  0  0  0  # atno 10718 bound_to 10713
  154.3495  135.2753  155.2379 H   0  0  0  0  0  0  0  0  0  0  0  0  # atno 10763 bound_to 10752
  154.4615  135.5906  153.6262 H   0  0  0  0  0  0  0  0  0  0  0  0  # atno 10764 bound_to 10752
  152.9851  135.6066  154.3704 H   0  0  0  0  0  0  0  0  0  0  0  0  # atno 10765 bound_to 10752
  140.1146  134.4909  155.8648 H   0  0  0  0  0  0  0  0  0  0  0  0  # atno 11005 bound_to 11000
  145.6112  139.1513  143.3074 LP  0  0  0  0  0  0  0  0  0  0  0  0  # atno 17320 bound_to 7965
  146.1982  140.6228  142.9114 LP  0  0  0  0  0  0  0  0  0  0  0  0  # atno 17321 bound_to 7965
  139.8031  144.7366  150.9798 LP  0  0  0  0  0  0  0  0  0  0  0  0  # atno 17342 bound_to 10162
  140.7820  143.4325  151.0673 LP  0  0  0  0  0  0  0  0  0  0  0  0  # atno 17343 bound_to 10162
  156.7318  130.4712  149.5498 LP  0  0  0  0  0  0  0  0  0  0  0  0  # atno 17370 bound_to 10713
  156.1597  130.6366  151.0703 LP  0  0  0  0  0  0  0  0  0  0  0  0  # atno 17371 bound_to 10713
  141.2138  133.6739  156.6771 LP  0  0  0  0  0  0  0  0  0  0  0  0  # atno 17394 bound_to 11000
  140.3045  134.8136  157.4125 LP  0  0  0  0  0  0  0  0  0  0  0  0  # atno 17395 bound_to 11000

$$$$
