AV-unprocessed.smi:73|AV-procd|sdf|760|dock8
  -GOLD-   2262017 93D 1   1.00000     0.00000
 Structure written by MMmdl.
 35 36  0  0  0  0  0  0  0  0  2 V2000
  148.1777  140.9962  156.7524 C   0  0  0  0  0  0  0  0  0  0  0  0
  149.3555  140.4118  157.5473 C   0  0  0  0  0  0  0  0  0  0  0  0
  150.6172  140.1978  156.8110 N   0  0  0  0  0  0  0  0  0  0  0  0
  151.7581  140.0516  157.7355 C   0  0  0  0  0  0  0  0  0  0  0  0
  151.8387  141.0872  158.8102 C   0  0  0  0  0  0  0  0  0  0  0  0
  151.0021  142.1072  159.0151 N   0  0  0  0  0  0  0  0  0  0  0  0
  151.4873  142.7733  160.1184 N   0  0  0  0  0  0  0  0  0  0  0  0
  152.5748  142.0996  160.5006 C   0  0  0  0  0  0  0  0  0  0  0  0
  153.4740  142.4046  161.6488 C   0  0  0  0  0  0  0  0  0  0  0  0
  152.8451  141.0215  159.7207 O   0  0  0  0  0  0  0  0  0  0  0  0
  150.5063  139.0193  155.9252 C   0  0  1  0  0  0  0  0  0  0  0  0
  149.5216  139.1670  154.7390 C   0  0  0  0  0  0  0  0  0  0  0  0
  150.0934  138.4618  153.5760 N   0  3  0  0  0  0  0  0  0  0  0  0
  151.3305  137.7958  154.0055 C   0  0  0  0  0  0  0  0  0  0  0  0
  151.8111  138.5926  155.2149 C   0  0  1  0  0  0  0  0  0  0  0  0
  152.5442  139.7104  154.7438 O   0  0  0  0  0  0  0  0  0  0  0  0
  152.4559  137.9852  155.8508 H   0  0  0  0  0  0  0  0  0  0  0  0
  147.2515  140.8908  157.3175 H   0  0  0  0  0  0  0  0  0  0  0  0
  148.0434  140.4782  155.8022 H   0  0  0  0  0  0  0  0  0  0  0  0
  148.2996  142.0596  156.5529 H   0  0  0  0  0  0  0  0  0  0  0  0
  149.5396  141.0281  158.4289 H   0  0  0  0  0  0  0  0  0  0  0  0
  148.9910  139.4610  157.9319 H   0  0  0  0  0  0  0  0  0  0  0  0
  151.7491  139.0608  158.1924 H   0  0  0  0  0  0  0  0  0  0  0  0
  152.7037  140.1225  157.2028 H   0  0  0  0  0  0  0  0  0  0  0  0
  153.2128  143.3665  162.0905 H   0  0  0  0  0  0  0  0  0  0  0  0
  154.5103  142.4437  161.3124 H   0  0  0  0  0  0  0  0  0  0  0  0
  153.3798  141.6314  162.4114 H   0  0  0  0  0  0  0  0  0  0  0  0
  150.1703  138.1660  156.5173 H   0  0  0  0  0  0  0  0  0  0  0  0
  148.5385  138.7635  154.9829 H   0  0  0  0  0  0  0  0  0  0  0  0
  149.3942  140.2123  154.4546 H   0  0  0  0  0  0  0  0  0  0  0  0
  149.4398  137.7954  153.1906 H   0  0  0  0  0  0  0  0  0  0  0  0
  151.0807  136.7785  154.3098 H   0  0  0  0  0  0  0  0  0  0  0  0
  152.0640  137.7343  153.2004 H   0  0  0  0  0  0  0  0  0  0  0  0
  152.9876  140.1103  155.4772 H   0  0  0  0  0  0  0  0  0  0  0  0
  150.3289  139.1517  152.8768 H   0  0  0  0  0  0  0  0  0  0  0  0
  1  2  1  0  0  0  0
  1 18  1  0  0  0  0
  1 19  1  0  0  0  0
  1 20  1  0  0  0  0
  2  3  1  0  0  0  0
  2 21  1  0  0  0  0
  2 22  1  0  0  0  0
  3  4  1  0  0  0  0
  3 11  1  0  0  0  0
  4  5  1  0  0  0  0
  4 23  1  0  0  0  0
  4 24  1  0  0  0  0
  5 10  1  0  0  0  0
  5  6  2  0  0  0  0
  6  7  1  0  0  0  0
  7  8  2  0  0  0  0
  8  9  1  0  0  0  0
  8 10  1  0  0  0  0
  9 25  1  0  0  0  0
  9 26  1  0  0  0  0
  9 27  1  0  0  0  0
 11 15  1  0  0  0  0
 11 12  1  0  0  0  0
 11 28  1  0  0  0  0
 12 13  1  0  0  0  0
 12 29  1  0  0  0  0
 12 30  1  0  0  0  0
 13 14  1  0  0  0  0
 13 31  1  0  0  0  0
 13 35  1  0  0  0  0
 14 15  1  0  0  0  0
 14 32  1  0  0  0  0
 14 33  1  0  0  0  0
 15 17  1  0  0  0  0
 15 16  1  0  0  0  0
 16 34  1  0  0  0  0
M  CHG  1  13   1
M  END
> <s_m_source_file>
AV-unprocessed.smi

> <i_m_source_file_index>
73

> <i_lp_mmshare_version>
43012

> <i_f3d_flags>
0

> <s_epik_input>
W09IXVtDQEBIXTFbQ0gyXVtOSF1bQ0gyXVtDQEhdMU4oW0NIMl1bQ0gzXSlbQ0gyXWMybm5jKG8yKVtDSDNd

> <s_epik_cmdline>
J2VwaWtfcHl0aG9uJywgJy1waCcsICc3LjAnLCAnLXRuJywgJzgnLCAnLW1hJywgJzIwMCcsICctbWV0YWxfYmluZGluZycsICctaW1hZScsICc8aW5maWxlLm1hZT4nLCAnLW9tYWUnLCAnPG91dGZpbGUubWFlPic=

> <r_lp_tautomer_probability>
1

> <r_epik_Ionization_Penalty>
0.00160433

> <r_epik_Ionization_Penalty_Charging>
0.000122314

> <r_epik_Ionization_Penalty_Neutral>
0.00148202

> <r_epik_State_Penalty>
-0

> <r_epik_Charging_Adjusted_Penalty>
0.000122314

> <i_epik_Tot_Q>
1

> <i_epik_Tot_abs_Q>
1

> <r_epik_Metal_State_Penalty>
-0

> <b_epik_Metal_Only>
0

> <s_lp_Force_Field>
OPLS_2005

> <r_lp_Energy>
44.8836

> <b_lp_Chiralities_Consistent>
1

> <s_lp_Variant>
AV-unprocessed.smi:73-2

> <Gold.Version>
5.8.1

> <Gold.Id.Protein>
6NUR|6NUR_protein|mol2

> <Gold.PLP.Fitness>
36.8828

> <Gold.PLP.PLP>
-26.9265

> <Gold.PLP.part.hbond>
-4.2495

> <Gold.PLP.part.metal>
0.0000

> <Gold.PLP.part.buried>
-4.0856

> <Gold.PLP.part.nonpolar>
-18.0073

> <Gold.PLP.part.repulsive>
0.1182

> <Gold.PLP.ligand.clash>
0.0000

> <Gold.PLP.ligand.torsion>
0.2646

> <Gold.PLP.Chemscore.Hbond>
3.4880

> <Gold.PLP.Chemscore.CHOScore>
0.0000

> <Gold.PLP.Chemscore.Metal>
0.0000

> <Gold.Chemscore.Hbonds>
donor molecule, donor type, donor heavy atom, donor atom, acceptor molecule, acceptor atom, score
      L1  H    13    31       P1  7948  1.77
      L1  H    13    35       P1  7957  0.81
      P1  H  7989  7998       L1    16  0.59

> <Gold.PLP.Chemscore.Internal.Correction>
0.0214

> <Gold.Rescore>
     Score         DG    S(hbond)    S(metal)    S(lipo)     H(rot)  DE(clash)    DE(int)     intcor
      9.86     -11.87       2.15        0.00      47.94       2.51       0.36       1.65       ----

> <Gold.Chemscore.Fitness>
9.8565

> <Gold.Chemscore.DG>
-11.8715

> <Gold.Chemscore.ZeroCoef>
-5.4800

> <Gold.Chemscore.Hbond>
2.1542

> <Gold.Chemscore.Metal>
0.0000

> <Gold.Chemscore.Lipo>
47.9433

> <Gold.Chemscore.Internal_Hbond>
0.0000

> <Gold.Chemscore.DEClash>
0.3607

> <Gold.Chemscore.DEInternal>
1.6543

> <Gold.Chemscore.Rot>
2.5051

> <Gold.Chemscore.Internal.Correction>
   9.000000E+99

> <Gold.Chemscore.Hbonds>
donor molecule, donor type, donor heavy atom, donor atom, acceptor molecule, acceptor atom, score
      L1  H    13    31       P1  7948  0.75
      L1  H    13    35       P1  7957  0.54
      P1  H  7989  7998       L1    16  0.53

> <Gold.Chemscore.Hbond.Weighted>
-7.1952

> <Gold.Chemscore.Metal.Weighted>
-0.0000

> <Gold.Chemscore.Lipo.Weighted>
-5.6094

> <Gold.Chemscore.Internal_Hbond.Weighted>
0.0000

> <Gold.Chemscore.DEClash.Weighted>
0.3607

> <Gold.Chemscore.DEInternal.Weighted>
1.6543

> <Gold.Chemscore.Rot.Weighted>
6.4131

> <Gold.Chemscore.Internal.Correction.Weighted>
   9.000000E+99

> <Gold.Protein.RotatedTorsions>
[ 6907 6896 6895 6894 ] final  -41.14 input  -60.11 | X-H torsion
[ 7974 7965 7964 7962 ] final   64.60 input  175.53 | X-H torsion
[ 8008 7997 7996 7995 ] final  -26.15 input   59.86 | X-H torsion
[ 10167 10162 10161 10158 ] final -171.66 input  -65.29 | X-H torsion
[ 10718 10713 10712 10709 ] final   87.60 input   66.30 | X-H torsion
[ 10763 10752 10751 10750 ] final   49.69 input  -60.55 | X-H torsion
[ 11005 11000 10999 10996 ] final -168.46 input  -57.11 | X-H torsion

> <Gold.Protein.ActiveResidues>
 VAL166  LYS551  ARG553  GLY616  TRP617  ASP618  TYR619  PRO620  LYS621  CYS622 
 ASP623  PHE694  ASN695  SER759  ASP760  ASP761  ALA762  ILE779  LEU786  VAL792 
 PHE793  MET794  SER795  GLU796  ALA797  LYS798  CYS799  TRP800  GLU811  SER814 

> <Gold.Protein.RotatedAtoms>
  150.9702  134.9076  159.7782 H   0  0  0  0  0  0  0  0  0  0  0  0  # atno 6907 bound_to 6896
  152.5187  134.3552  159.9275 H   0  0  0  0  0  0  0  0  0  0  0  0  # atno 6908 bound_to 6896
  151.3561  133.3866  159.2719 H   0  0  0  0  0  0  0  0  0  0  0  0  # atno 6909 bound_to 6896
  145.8483  139.3238  143.0891 H   0  0  0  0  0  0  0  0  0  0  0  0  # atno 7974 bound_to 7965
  154.4439  140.1907  156.0730 H   0  0  0  0  0  0  0  0  0  0  0  0  # atno 8008 bound_to 7997
  156.0496  140.3310  155.7309 H   0  0  0  0  0  0  0  0  0  0  0  0  # atno 8009 bound_to 7997
  155.5577  140.0601  157.2827 H   0  0  0  0  0  0  0  0  0  0  0  0  # atno 8010 bound_to 7997
  139.5789  144.1468  152.1489 H   0  0  0  0  0  0  0  0  0  0  0  0  # atno 10167 bound_to 10162
  157.6941  131.0262  150.3148 H   0  0  0  0  0  0  0  0  0  0  0  0  # atno 10718 bound_to 10713
  152.9786  135.5903  154.4131 H   0  0  0  0  0  0  0  0  0  0  0  0  # atno 10763 bound_to 10752
  154.3764  135.2767  155.2239 H   0  0  0  0  0  0  0  0  0  0  0  0  # atno 10764 bound_to 10752
  154.4172  135.6067  153.6042 H   0  0  0  0  0  0  0  0  0  0  0  0  # atno 10765 bound_to 10752
  140.5417  134.5516  157.5101 H   0  0  0  0  0  0  0  0  0  0  0  0  # atno 11005 bound_to 11000
  145.9387  140.8995  143.0319 LP  0  0  0  0  0  0  0  0  0  0  0  0  # atno 17320 bound_to 7965
  144.6730  140.1519  143.7429 LP  0  0  0  0  0  0  0  0  0  0  0  0  # atno 17321 bound_to 7965
  140.1017  144.5534  150.6985 LP  0  0  0  0  0  0  0  0  0  0  0  0  # atno 17342 bound_to 10162
  140.7070  143.2475  151.4697 LP  0  0  0  0  0  0  0  0  0  0  0  0  # atno 17343 bound_to 10162
  156.3644  130.3852  149.7225 LP  0  0  0  0  0  0  0  0  0  0  0  0  # atno 17370 bound_to 10713
  156.4661  130.7974  151.2994 LP  0  0  0  0  0  0  0  0  0  0  0  0  # atno 17371 bound_to 10713
  139.9500  134.7633  156.0470 LP  0  0  0  0  0  0  0  0  0  0  0  0  # atno 17394 bound_to 11000
  141.1223  133.6609  156.3247 LP  0  0  0  0  0  0  0  0  0  0  0  0  # atno 17395 bound_to 11000

$$$$
