AV-unprocessed.smi:649|AV-procd|sdf|3178|dock2
  -GOLD-   22720 0103D 1   1.00000     0.00000
 Structure written by MMmdl.
 35 36  0  0  0  0  0  0  0  0  1 V2000
  152.4590  144.5000  159.0739 C   0  0  0  0  0  0  0  0  0  0  0  0
  152.5278  142.9882  159.1418 C   0  0  0  0  0  0  0  0  0  0  0  0
  152.9874  142.3461  160.3069 C   0  0  0  0  0  0  0  0  0  0  0  0
  153.0387  140.9415  160.3611 C   0  0  0  0  0  0  0  0  0  0  0  0
  152.6381  140.1634  159.2539 C   0  0  0  0  0  0  0  0  0  0  0  0
  152.6962  138.6499  159.3720 C   0  0  0  0  0  0  0  0  0  0  0  0
  152.1870  140.8042  158.0696 C   0  0  0  0  0  0  0  0  0  0  0  0
  151.7429  140.0050  156.8443 C   0  0  2  0  0  0  0  0  0  0  0  0
  152.7461  139.1065  156.4072 O   0  0  0  0  0  0  0  0  0  0  0  0
  151.3782  140.9455  155.6744 C   0  0  0  0  0  0  0  0  0  0  0  0
  150.2221  140.5135  154.9244 N   0  0  0  0  0  0  0  0  0  0  0  0
  149.1254  141.3357  154.7158 C   0  0  0  0  0  0  0  0  0  0  0  0
  148.0440  140.9621  153.9900 C   0  0  0  0  0  0  0  0  0  0  0  0
  146.7162  142.0455  153.7731 Cl  0  0  0  0  0  0  0  0  0  0  0  0
  147.9962  139.6344  153.3788 C   0  0  0  0  0  0  0  0  0  0  0  0
  147.0688  139.1948  152.7016 O   0  0  0  0  0  0  0  0  0  0  0  0
  149.1238  138.8415  153.6123 N   0  0  0  0  0  0  0  0  0  0  0  0
  150.2415  139.2184  154.3573 C   0  0  0  0  0  0  0  0  0  0  0  0
  151.1826  138.4361  154.4890 O   0  0  0  0  0  0  0  0  0  0  0  0
  152.1276  142.2171  158.0332 C   0  0  0  0  0  0  0  0  0  0  0  0
  149.1314  137.9185  153.2032 H   0  0  0  0  0  0  0  0  0  0  0  0
  152.8298  144.9578  159.9914 H   0  0  0  0  0  0  0  0  0  0  0  0
  151.4287  144.8234  158.9238 H   0  0  0  0  0  0  0  0  0  0  0  0
  153.0598  144.8693  158.2424 H   0  0  0  0  0  0  0  0  0  0  0  0
  153.2971  142.9256  161.1643 H   0  0  0  0  0  0  0  0  0  0  0  0
  153.3863  140.4622  161.2645 H   0  0  0  0  0  0  0  0  0  0  0  0
  151.7234  138.2116  159.1512 H   0  0  0  0  0  0  0  0  0  0  0  0
  152.9759  138.3399  160.3793 H   0  0  0  0  0  0  0  0  0  0  0  0
  153.4320  138.2381  158.6811 H   0  0  0  0  0  0  0  0  0  0  0  0
  150.8869  139.3864  157.1083 H   0  0  0  0  0  0  0  0  0  0  0  0
  152.4515  138.2251  156.5786 H   0  0  0  0  0  0  0  0  0  0  0  0
  151.1669  141.9612  156.0163 H   0  0  0  0  0  0  0  0  0  0  0  0
  152.2003  141.0365  154.9623 H   0  0  0  0  0  0  0  0  0  0  0  0
  149.1309  142.3265  155.1478 H   0  0  0  0  0  0  0  0  0  0  0  0
  151.7692  142.7210  157.1472 H   0  0  0  0  0  0  0  0  0  0  0  0
  1  2  1  0  0  0  0
  1 22  1  0  0  0  0
  1 23  1  0  0  0  0
  1 24  1  0  0  0  0
  2 20  1  0  0  0  0
  2  3  2  0  0  0  0
  3  4  1  0  0  0  0
  3 25  1  0  0  0  0
  4  5  2  0  0  0  0
  4 26  1  0  0  0  0
  5  6  1  0  0  0  0
  5  7  1  0  0  0  0
  6 27  1  0  0  0  0
  6 28  1  0  0  0  0
  6 29  1  0  0  0  0
  7  8  1  0  0  0  0
  7 20  2  0  0  0  0
  8  9  1  0  0  0  0
  8 10  1  0  0  0  0
  8 30  1  0  0  0  0
  9 31  1  0  0  0  0
 10 11  1  0  0  0  0
 10 32  1  0  0  0  0
 10 33  1  0  0  0  0
 11 18  1  0  0  0  0
 11 12  1  0  0  0  0
 12 13  2  0  0  0  0
 12 34  1  0  0  0  0
 13 14  1  0  0  0  0
 13 15  1  0  0  0  0
 15 16  2  0  0  0  0
 15 17  1  0  0  0  0
 17 21  1  0  0  0  0
 17 18  1  0  0  0  0
 18 19  2  0  0  0  0
 20 35  1  0  0  0  0
M  END
> <s_m_source_file>
AV-unprocessed.smi

> <i_m_source_file_index>
649

> <i_lp_mmshare_version>
43012

> <i_f3d_flags>
0

> <s_epik_input>
W0NIM11jMVtjSF1bY0hdYyhbQ0gzXSljKFtjSF0xKVtDQEhdKFtPSF0pW0NIMl1uMltjSF1jKENsKWMoPU8pW25IXWMyPU8=

> <s_epik_cmdline>
J2VwaWtfcHl0aG9uJywgJy1waCcsICc3LjAnLCAnLXRuJywgJzgnLCAnLW1hJywgJzIwMCcsICctbWV0YWxfYmluZGluZycsICctaW1hZScsICc8aW5maWxlLm1hZT4nLCAnLW9tYWUnLCAnPG91dGZpbGUubWFlPic=

> <r_lp_tautomer_probability>
0.999537

> <r_epik_Ionization_Penalty>
0.0292058

> <r_epik_Ionization_Penalty_Charging>
0.0292057

> <r_epik_Ionization_Penalty_Neutral>
4.85868e-08

> <r_epik_State_Penalty>
0.0240115

> <r_epik_Charging_Adjusted_Penalty>
0.0532172

> <i_epik_Tot_Q>
0

> <i_epik_Tot_abs_Q>
0

> <r_epik_Metal_State_Penalty>
2.21956

> <b_epik_Metal_Only>
0

> <s_lp_Force_Field>
OPLS_2005

> <r_lp_Energy>
13.7265

> <b_lp_Chiralities_Consistent>
1

> <s_lp_Variant>
AV-unprocessed.smi:649-1

> <Gold.Version>
5.8.1

> <Gold.Id.Protein>
6NUR|6NUR_protein|mol2

> <Gold.PLP.Fitness>
50.0802

> <Gold.PLP.PLP>
-42.9384

> <Gold.PLP.part.hbond>
-2.7838

> <Gold.PLP.part.metal>
0.0000

> <Gold.PLP.part.buried>
-2.3281

> <Gold.PLP.part.nonpolar>
-37.6823

> <Gold.PLP.part.repulsive>
0.4837

> <Gold.PLP.ligand.clash>
0.0000

> <Gold.PLP.ligand.torsion>
0.5830

> <Gold.PLP.Chemscore.Hbond>
1.7638

> <Gold.PLP.Chemscore.CHOScore>
0.9981

> <Gold.PLP.Chemscore.Metal>
0.0000

> <Gold.Chemscore.Hbonds>
donor molecule, donor type, donor heavy atom, donor atom, acceptor molecule, acceptor atom, score
      L1  H    17    21       P1  7948  0.73
      P1  H  7997  8009       L1     9  1.00
      L1  C    12    34       P1  8028  1.00

> <Gold.PLP.Chemscore.Internal.Correction>
0.0222

> <Gold.Rescore>
     Score         DG    S(hbond)    S(metal)    S(lipo)     H(rot)  DE(clash)    DE(int)     intcor
     16.16     -18.50       1.82        0.00     106.13       2.14       0.31       2.03       ----

> <Gold.Chemscore.Fitness>
16.1604

> <Gold.Chemscore.DG>
-18.5005

> <Gold.Chemscore.ZeroCoef>
-5.4800

> <Gold.Chemscore.Hbond>
1.8170

> <Gold.Chemscore.Metal>
0.0000

> <Gold.Chemscore.Lipo>
106.1338

> <Gold.Chemscore.Internal_Hbond>
0.0000

> <Gold.Chemscore.DEClash>
0.3081

> <Gold.Chemscore.DEInternal>
2.0320

> <Gold.Chemscore.Rot>
2.1351

> <Gold.Chemscore.Internal.Correction>
   9.000000E+99

> <Gold.Chemscore.Hbonds>
donor molecule, donor type, donor heavy atom, donor atom, acceptor molecule, acceptor atom, score
      L1  H    17    21       P1  7948  0.72
      P1  H  7997  8009       L1     9  0.42

> <Gold.Chemscore.Hbond.Weighted>
-6.0688

> <Gold.Chemscore.Metal.Weighted>
-0.0000

> <Gold.Chemscore.Lipo.Weighted>
-12.4177

> <Gold.Chemscore.Internal_Hbond.Weighted>
0.0000

> <Gold.Chemscore.DEClash.Weighted>
0.3081

> <Gold.Chemscore.DEInternal.Weighted>
2.0320

> <Gold.Chemscore.Rot.Weighted>
5.4660

> <Gold.Chemscore.Internal.Correction.Weighted>
   9.000000E+99

> <Gold.Protein.RotatedTorsions>
[ 6907 6896 6895 6894 ] final -118.55 input  -60.11 | X-H torsion
[ 7974 7965 7964 7962 ] final -109.40 input  175.53 | X-H torsion
[ 8008 7997 7996 7995 ] final  171.34 input   59.86 | X-H torsion
[ 10167 10162 10161 10158 ] final  133.19 input  -65.29 | X-H torsion
[ 10718 10713 10712 10709 ] final  154.01 input   66.30 | X-H torsion
[ 10763 10752 10751 10750 ] final -146.10 input  -60.55 | X-H torsion
[ 11005 11000 10999 10996 ] final  179.31 input  -57.11 | X-H torsion

> <Gold.Protein.ActiveResidues>
 VAL166  LYS551  ARG553  GLY616  TRP617  ASP618  TYR619  PRO620  LYS621  CYS622 
 ASP623  PHE694  ASN695  SER759  ASP760  ASP761  ALA762  ILE779  LEU786  VAL792 
 PHE793  MET794  SER795  GLU796  ALA797  LYS798  CYS799  TRP800  GLU811  SER814 

> <Gold.Protein.RotatedAtoms>
  150.8229  133.8222  159.3131 H   0  0  0  0  0  0  0  0  0  0  0  0  # atno 6907 bound_to 6896
  151.5975  135.1048  160.0062 H   0  0  0  0  0  0  0  0  0  0  0  0  # atno 6908 bound_to 6896
  152.4316  133.7247  159.6610 H   0  0  0  0  0  0  0  0  0  0  0  0  # atno 6909 bound_to 6896
  145.1810  140.8971  143.3480 H   0  0  0  0  0  0  0  0  0  0  0  0  # atno 7974 bound_to 7965
  156.1280  140.1514  156.9108 H   0  0  0  0  0  0  0  0  0  0  0  0  # atno 8008 bound_to 7997
  154.4886  140.0858  156.7584 H   0  0  0  0  0  0  0  0  0  0  0  0  # atno 8009 bound_to 7997
  155.4308  140.3427  155.4282 H   0  0  0  0  0  0  0  0  0  0  0  0  # atno 8010 bound_to 7997
  139.5307  144.6627  151.4960 H   0  0  0  0  0  0  0  0  0  0  0  0  # atno 10167 bound_to 10162
  157.2373  131.0751  151.1815 H   0  0  0  0  0  0  0  0  0  0  0  0  # atno 10718 bound_to 10713
  154.8352  135.3395  154.6609 H   0  0  0  0  0  0  0  0  0  0  0  0  # atno 10763 bound_to 10752
  153.7224  135.6957  153.5014 H   0  0  0  0  0  0  0  0  0  0  0  0  # atno 10764 bound_to 10752
  153.2371  135.4397  155.0611 H   0  0  0  0  0  0  0  0  0  0  0  0  # atno 10765 bound_to 10752
  140.4048  134.6745  157.4582 H   0  0  0  0  0  0  0  0  0  0  0  0  # atno 11005 bound_to 11000
  145.0137  139.3487  143.6107 LP  0  0  0  0  0  0  0  0  0  0  0  0  # atno 17320 bound_to 7965
  146.3453  139.9409  142.8741 LP  0  0  0  0  0  0  0  0  0  0  0  0  # atno 17321 bound_to 7965
  140.6483  143.8748  150.6760 LP  0  0  0  0  0  0  0  0  0  0  0  0  # atno 17342 bound_to 10162
  140.2105  143.3887  152.1722 LP  0  0  0  0  0  0  0  0  0  0  0  0  # atno 17343 bound_to 10162
  157.3416  130.7036  149.6385 LP  0  0  0  0  0  0  0  0  0  0  0  0  # atno 17370 bound_to 10713
  155.9672  130.4278  150.4761 LP  0  0  0  0  0  0  0  0  0  0  0  0  # atno 17371 bound_to 10713
  140.0310  134.6406  155.9107 LP  0  0  0  0  0  0  0  0  0  0  0  0  # atno 17394 bound_to 11000
  141.1843  133.6552  156.5153 LP  0  0  0  0  0  0  0  0  0  0  0  0  # atno 17395 bound_to 11000

$$$$
