AV-unprocessed.smi:36|AV-procd|sdf|292|dock9
  -GOLD-   2262016 83D 1   1.00000     0.00000
 Structure written by MMmdl.
 64 67  0  0  0  0  0  0  0  0  1 V2000
  147.9141  133.1663  152.8266 C   0  0  0  0  0  0  0  0  0  0  0  0
  146.4460  133.4834  152.4978 C   0  0  0  0  0  0  0  0  0  0  0  0
  146.3518  134.1340  151.1080 C   0  0  0  0  0  0  0  0  0  0  0  0
  145.6140  132.1904  152.5225 C   0  0  0  0  0  0  0  0  0  0  0  0
  145.7487  134.6937  153.8013 Si  0  0  0  0  0  0  0  0  0  0  0  0
  143.9655  135.1970  153.3763 C   0  0  0  0  0  0  0  0  0  0  0  0
  145.8056  133.9401  155.5443 C   0  0  0  0  0  0  0  0  0  0  0  0
  146.7169  136.0809  153.7977 O   0  0  0  0  0  0  0  0  0  0  0  0
  146.4539  137.2154  154.5964 C   0  0  0  0  0  0  0  0  0  0  0  0
  146.0947  138.3981  153.6883 C   0  0  1  0  0  0  0  0  0  0  0  0
  146.0273  139.6182  154.4345 O   0  0  0  0  0  0  0  0  0  0  0  0
  146.7233  140.6421  153.7830 C   0  0  1  0  0  0  0  0  0  0  0  0
  148.0289  140.8545  154.4925 N   0  0  0  0  0  0  0  0  0  0  0  0
  149.2619  140.4835  154.0933 C   0  0  0  0  0  0  0  0  0  0  0  0
  150.2500  140.7805  154.9325 N   0  0  0  0  0  0  0  0  0  0  0  0
  149.5788  141.3859  155.9884 C   0  0  0  0  0  0  0  0  0  0  0  0
  150.0963  141.9364  157.2595 C   0  0  0  0  0  0  0  0  0  0  0  0
  151.3779  141.8821  157.4610 N   0  0  0  0  0  0  0  0  0  0  0  0
  151.9209  142.3786  158.6387 C   0  0  0  0  0  0  0  0  0  0  0  0
  151.7449  143.4794  159.1681 O   0  0  0  0  0  0  0  0  0  0  0  0
  152.8688  141.4290  159.2960 C   0  0  0  0  0  0  0  0  0  0  0  0
  153.5774  141.8213  160.4516 C   0  0  0  0  0  0  0  0  0  0  0  0
  154.4639  140.9219  161.0756 C   0  0  0  0  0  0  0  0  0  0  0  0
  154.6434  139.6287  160.5478 C   0  0  0  0  0  0  0  0  0  0  0  0
  153.9354  139.2336  159.3960 C   0  0  0  0  0  0  0  0  0  0  0  0
  153.0484  140.1317  158.7710 C   0  0  0  0  0  0  0  0  0  0  0  0
  149.0358  142.4282  158.0316 N   0  0  0  0  0  0  0  0  0  0  0  0
  147.6791  142.4092  157.6730 C   0  0  0  0  0  0  0  0  0  0  0  0
  147.2087  141.9255  156.5542 N   0  0  0  0  0  0  0  0  0  0  0  0
  148.2226  141.4282  155.7469 C   0  0  0  0  0  0  0  0  0  0  0  0
  146.9653  140.1446  152.3578 C   0  0  0  0  0  0  0  0  0  0  0  0
  147.1252  138.6565  152.5842 C   0  0  2  0  0  0  0  0  0  0  0  0
  146.8457  137.9329  151.4040 O   0  0  0  0  0  0  0  0  0  0  0  0
  148.3429  132.4779  152.0973 H   0  0  0  0  0  0  0  0  0  0  0  0
  148.0107  132.7044  153.8093 H   0  0  0  0  0  0  0  0  0  0  0  0
  148.5258  134.0689  152.8247 H   0  0  0  0  0  0  0  0  0  0  0  0
  146.9371  135.0523  151.0586 H   0  0  0  0  0  0  0  0  0  0  0  0
  145.3211  134.3870  150.8581 H   0  0  0  0  0  0  0  0  0  0  0  0
  146.7246  133.4658  150.3311 H   0  0  0  0  0  0  0  0  0  0  0  0
  145.9657  131.4780  151.7754 H   0  0  0  0  0  0  0  0  0  0  0  0
  144.5624  132.3927  152.3163 H   0  0  0  0  0  0  0  0  0  0  0  0
  145.6694  131.7006  153.4949 H   0  0  0  0  0  0  0  0  0  0  0  0
  143.3131  134.3285  153.2917 H   0  0  0  0  0  0  0  0  0  0  0  0
  143.9158  135.7350  152.4298 H   0  0  0  0  0  0  0  0  0  0  0  0
  143.5385  135.8448  154.1413 H   0  0  0  0  0  0  0  0  0  0  0  0
  145.2011  133.0359  155.6104 H   0  0  0  0  0  0  0  0  0  0  0  0
  145.4288  134.6376  156.2920 H   0  0  0  0  0  0  0  0  0  0  0  0
  146.8222  133.6748  155.8339 H   0  0  0  0  0  0  0  0  0  0  0  0
  145.6597  137.0133  155.3141 H   0  0  0  0  0  0  0  0  0  0  0  0
  147.3519  137.4430  155.1713 H   0  0  0  0  0  0  0  0  0  0  0  0
  145.1116  138.2403  153.2411 H   0  0  0  0  0  0  0  0  0  0  0  0
  146.2141  141.6042  153.8499 H   0  0  0  0  0  0  0  0  0  0  0  0
  149.4472  139.9712  153.1626 H   0  0  0  0  0  0  0  0  0  0  0  0
  153.4429  142.8109  160.8640 H   0  0  0  0  0  0  0  0  0  0  0  0
  155.0050  141.2239  161.9602 H   0  0  0  0  0  0  0  0  0  0  0  0
  155.3223  138.9391  161.0275 H   0  0  0  0  0  0  0  0  0  0  0  0
  154.0719  138.2410  158.9926 H   0  0  0  0  0  0  0  0  0  0  0  0
  152.5074  139.8210  157.8887 H   0  0  0  0  0  0  0  0  0  0  0  0
  147.0162  142.8432  158.4228 H   0  0  0  0  0  0  0  0  0  0  0  0
  146.0751  140.3607  151.7650 H   0  0  0  0  0  0  0  0  0  0  0  0
  147.8267  140.6150  151.8841 H   0  0  0  0  0  0  0  0  0  0  0  0
  148.1361  138.4350  152.9302 H   0  0  0  0  0  0  0  0  0  0  0  0
  147.5905  137.3868  151.2037 H   0  0  0  0  0  0  0  0  0  0  0  0
  149.2698  142.8298  158.9282 H   0  0  0  0  0  0  0  0  0  0  0  0
  1  2  1  0  0  0  0
  1 34  1  0  0  0  0
  1 35  1  0  0  0  0
  1 36  1  0  0  0  0
  2  3  1  0  0  0  0
  2  4  1  0  0  0  0
  2  5  1  0  0  0  0
  3 37  1  0  0  0  0
  3 38  1  0  0  0  0
  3 39  1  0  0  0  0
  4 40  1  0  0  0  0
  4 41  1  0  0  0  0
  4 42  1  0  0  0  0
  5  6  1  0  0  0  0
  5  7  1  0  0  0  0
  5  8  1  0  0  0  0
  6 43  1  0  0  0  0
  6 44  1  0  0  0  0
  6 45  1  0  0  0  0
  7 46  1  0  0  0  0
  7 47  1  0  0  0  0
  7 48  1  0  0  0  0
  8  9  1  0  0  0  0
  9 10  1  0  0  0  0
  9 49  1  0  0  0  0
  9 50  1  0  0  0  0
 10 32  1  0  0  0  0
 10 11  1  0  0  0  0
 10 51  1  0  0  0  0
 11 12  1  0  0  0  0
 12 13  1  0  0  0  0
 12 31  1  0  0  0  0
 12 52  1  0  0  0  0
 13 30  1  0  0  0  0
 13 14  1  0  0  0  0
 14 15  2  0  0  0  0
 14 53  1  0  0  0  0
 15 16  1  0  0  0  0
 16 30  2  0  0  0  0
 16 17  1  0  0  0  0
 17 18  2  0  0  0  0
 17 27  1  0  0  0  0
 18 19  1  0  0  0  0
 19 20  2  0  0  0  0
 19 21  1  0  0  0  0
 21 26  1  0  0  0  0
 21 22  2  0  0  0  0
 22 23  1  0  0  0  0
 22 54  1  0  0  0  0
 23 24  2  0  0  0  0
 23 55  1  0  0  0  0
 24 25  1  0  0  0  0
 24 56  1  0  0  0  0
 25 26  2  0  0  0  0
 25 57  1  0  0  0  0
 26 58  1  0  0  0  0
 27 28  1  0  0  0  0
 27 64  1  0  0  0  0
 28 29  2  0  0  0  0
 28 59  1  0  0  0  0
 29 30  1  0  0  0  0
 31 32  1  0  0  0  0
 31 60  1  0  0  0  0
 31 61  1  0  0  0  0
 32 33  1  0  0  0  0
 32 62  1  0  0  0  0
 33 63  1  0  0  0  0
M  END
> <s_m_source_file>
AV-unprocessed.smi

> <i_m_source_file_index>
36

> <i_lp_mmshare_version>
43012

> <i_f3d_flags>
0

> <s_epik_input>
W0NIM11DKFtDSDNdKShbQ0gzXSlbU2ldKFtDSDNdKShbQ0gzXSlPW0NIMl1bQ0BASF0xT1tDQEhdKFtDSDJdW0NASF0xW09IXSluKFtjSF1uMiljKGMyMyluW2NIXW5jM1tOSF1DKD1PKWM0W2NIXVtjSF1bY0hdW2NIXVtjSF00

> <s_epik_cmdline>
J2VwaWtfcHl0aG9uJywgJy1waCcsICc3LjAnLCAnLXRuJywgJzgnLCAnLW1hJywgJzIwMCcsICctbWV0YWxfYmluZGluZycsICctaW1hZScsICc8aW5maWxlLm1hZT4nLCAnLW9tYWUnLCAnPG91dGZpbGUubWFlPic=

> <r_epik_Ionization_Penalty>
0.0850405

> <r_epik_Ionization_Penalty_Charging>
0.0850403

> <r_epik_Ionization_Penalty_Neutral>
1.47497e-07

> <r_epik_State_Penalty>
2.6133

> <r_epik_Charging_Adjusted_Penalty>
2.69834

> <i_epik_Tot_Q>
0

> <i_epik_Tot_abs_Q>
0

> <r_epik_Metal_State_Penalty>
2.92945

> <b_epik_Metal_Only>
0

> <s_epik_Chemistry_Notes>
This compound contains an acetal/aminal-like group ( X-CH(R)-Y where X, Y are N, S, or O) that may be acid/base labile, releasing an aldehyde.

> <s_lp_Force_Field>
OPLS_2005

> <r_lp_Energy>
45.4031

> <b_lp_Chiralities_Consistent>
1

> <s_lp_Variant>
AV-unprocessed.smi:36-14

> <Gold.Version>
5.8.1

> <Gold.Id.Protein>
6NUR|6NUR_protein|mol2

> <Gold.PLP.Fitness>
51.3767

> <Gold.PLP.PLP>
-45.8443

> <Gold.PLP.part.hbond>
-3.2848

> <Gold.PLP.part.metal>
0.0000

> <Gold.PLP.part.buried>
-1.8577

> <Gold.PLP.part.nonpolar>
-41.8927

> <Gold.PLP.part.repulsive>
1.6637

> <Gold.PLP.ligand.clash>
0.0000

> <Gold.PLP.ligand.torsion>
1.0947

> <Gold.PLP.Chemscore.Hbond>
1.4986

> <Gold.PLP.Chemscore.CHOScore>
1.0000

> <Gold.PLP.Chemscore.Metal>
0.0000

> <Gold.Chemscore.Hbonds>
donor molecule, donor type, donor heavy atom, donor atom, acceptor molecule, acceptor atom, score
      L1  H    33    63       P1  7948  0.99
      P1  H  7989  7998       L1    15  0.57
      L1  C    14    53       P1  7957  0.95

> <Gold.PLP.Chemscore.Internal.Correction>
0.2261

> <Gold.Rescore>
     Score         DG    S(hbond)    S(metal)    S(lipo)     H(rot)  DE(clash)    DE(int)     intcor
     10.53     -13.21       0.99        0.00      97.01       2.70       0.90       1.78       ----

> <Gold.Chemscore.Fitness>
10.5279

> <Gold.Chemscore.DG>
-13.2081

> <Gold.Chemscore.ZeroCoef>
-5.4800

> <Gold.Chemscore.Hbond>
0.9882

> <Gold.Chemscore.Metal>
0.0000

> <Gold.Chemscore.Lipo>
97.0078

> <Gold.Chemscore.Internal_Hbond>
0.0000

> <Gold.Chemscore.DEClash>
0.9048

> <Gold.Chemscore.DEInternal>
1.7754

> <Gold.Chemscore.Rot>
2.7041

> <Gold.Chemscore.Internal.Correction>
   9.000000E+99

> <Gold.Chemscore.Hbonds>
donor molecule, donor type, donor heavy atom, donor atom, acceptor molecule, acceptor atom, score
      L1  H    33    63       P1  7948  0.93
      P1  H  7989  7998       L1    15  0.06

> <Gold.Chemscore.Hbond.Weighted>
-3.3007

> <Gold.Chemscore.Metal.Weighted>
-0.0000

> <Gold.Chemscore.Lipo.Weighted>
-11.3499

> <Gold.Chemscore.Internal_Hbond.Weighted>
0.0000

> <Gold.Chemscore.DEClash.Weighted>
0.9048

> <Gold.Chemscore.DEInternal.Weighted>
1.7754

> <Gold.Chemscore.Rot.Weighted>
6.9225

> <Gold.Chemscore.Internal.Correction.Weighted>
   9.000000E+99

> <Gold.Protein.RotatedTorsions>
[ 6907 6896 6895 6894 ] final    7.68 input  -60.11 | X-H torsion
[ 7974 7965 7964 7962 ] final   -9.47 input  175.53 | X-H torsion
[ 8008 7997 7996 7995 ] final   21.97 input   59.86 | X-H torsion
[ 10167 10162 10161 10158 ] final  128.29 input  -65.29 | X-H torsion
[ 10718 10713 10712 10709 ] final   57.94 input   66.30 | X-H torsion
[ 10763 10752 10751 10750 ] final  -79.94 input  -60.55 | X-H torsion
[ 11005 11000 10999 10996 ] final   85.81 input  -57.11 | X-H torsion

> <Gold.Protein.ActiveResidues>
 VAL166  LYS551  ARG553  GLY616  TRP617  ASP618  TYR619  PRO620  LYS621  CYS622 
 ASP623  PHE694  ASN695  SER759  ASP760  ASP761  ALA762  ILE779  LEU786  VAL792 
 PHE793  MET794  SER795  GLU796  ALA797  LYS798  CYS799  TRP800  GLU811  SER814 

> <Gold.Protein.RotatedAtoms>
  151.6938  135.0942  160.0238 H   0  0  0  0  0  0  0  0  0  0  0  0  # atno 6907 bound_to 6896
  152.3762  133.6481  159.6134 H   0  0  0  0  0  0  0  0  0  0  0  0  # atno 6908 bound_to 6896
  150.7711  133.9105  159.3409 H   0  0  0  0  0  0  0  0  0  0  0  0  # atno 6909 bound_to 6896
  146.2251  140.2620  142.8352 H   0  0  0  0  0  0  0  0  0  0  0  0  # atno 7974 bound_to 7965
  154.9587  140.3075  155.5041 H   0  0  0  0  0  0  0  0  0  0  0  0  # atno 8008 bound_to 7997
  156.2979  140.2305  156.4609 H   0  0  0  0  0  0  0  0  0  0  0  0  # atno 8009 bound_to 7997
  154.7985  140.0435  157.1244 H   0  0  0  0  0  0  0  0  0  0  0  0  # atno 8010 bound_to 7997
  139.5535  144.6831  151.4253 H   0  0  0  0  0  0  0  0  0  0  0  0  # atno 10167 bound_to 10162
  157.5556  130.8797  149.9030 H   0  0  0  0  0  0  0  0  0  0  0  0  # atno 10718 bound_to 10713
  154.5450  135.5678  153.6872 H   0  0  0  0  0  0  0  0  0  0  0  0  # atno 10763 bound_to 10752
  152.9974  135.6237  154.2451 H   0  0  0  0  0  0  0  0  0  0  0  0  # atno 10764 bound_to 10752
  154.2383  135.2863  155.2843 H   0  0  0  0  0  0  0  0  0  0  0  0  # atno 10765 bound_to 10752
  139.8961  134.8312  156.2634 H   0  0  0  0  0  0  0  0  0  0  0  0  # atno 11005 bound_to 11000
  144.9332  140.7998  143.5676 LP  0  0  0  0  0  0  0  0  0  0  0  0  # atno 17320 bound_to 7965
  145.2566  139.2009  143.4914 LP  0  0  0  0  0  0  0  0  0  0  0  0  # atno 17321 bound_to 7965
  140.6802  143.8098  150.7112 LP  0  0  0  0  0  0  0  0  0  0  0  0  # atno 17342 bound_to 10162
  140.1549  143.4325  152.2106 LP  0  0  0  0  0  0  0  0  0  0  0  0  # atno 17343 bound_to 10162
  156.0615  130.3699  150.0971 LP  0  0  0  0  0  0  0  0  0  0  0  0  # atno 17370 bound_to 10713
  156.9140  130.9661  151.3559 LP  0  0  0  0  0  0  0  0  0  0  0  0  # atno 17371 bound_to 10713
  141.0147  133.7075  156.1170 LP  0  0  0  0  0  0  0  0  0  0  0  0  # atno 17394 bound_to 11000
  140.7318  134.4247  157.5565 LP  0  0  0  0  0  0  0  0  0  0  0  0  # atno 17395 bound_to 11000

$$$$
