AV-unprocessed.smi:3011|AV-procd|sdf|11460|dock7
  -GOLD-   2272016393D 1   1.00000     0.00000
 Structure written by MMmdl.
 47 49  0  0  0  0  0  0  0  0  2 V2000
  155.3205  132.9429  161.1912 C   0  0  0  0  0  0  0  0  0  0  0  0
  154.7585  134.2204  160.9303 O   0  0  0  0  0  0  0  0  0  0  0  0
  154.5706  135.0822  161.9910 C   0  0  0  0  0  0  0  0  0  0  0  0
  155.0253  134.8170  163.3078 C   0  0  0  0  0  0  0  0  0  0  0  0
  154.8056  135.7467  164.3401 C   0  0  0  0  0  0  0  0  0  0  0  0
  154.1331  136.9504  164.0697 C   0  0  0  0  0  0  0  0  0  0  0  0
  153.6766  137.2234  162.7676 C   0  0  0  0  0  0  0  0  0  0  0  0
  153.8886  136.2912  161.7203 C   0  0  0  0  0  0  0  0  0  0  0  0
  153.4614  136.4882  160.4239 O   0  0  0  0  0  0  0  0  0  0  0  0
  152.6534  137.6218  160.1384 C   0  0  0  0  0  0  0  0  0  0  0  0
  153.5628  138.7942  159.7477 C   0  0  0  0  0  0  0  0  0  0  0  0
  152.8059  139.9081  159.1556 N   0  0  0  0  0  0  0  0  0  0  0  0
  152.0619  139.9743  158.0114 C   0  0  0  0  0  0  0  0  0  0  0  0
  151.8322  138.8790  157.0105 C   0  0  1  0  0  0  0  0  0  0  0  0
  150.3355  138.5606  156.8763 C   0  0  0  0  0  0  0  0  0  0  0  0
  152.3735  139.2263  155.7025 N   0  0  0  0  0  0  0  0  0  0  0  0
  152.3314  138.4254  154.6307 C   0  0  0  0  0  0  0  0  0  0  0  0
  151.8238  137.3072  154.6486 O   0  0  0  0  0  0  0  0  0  0  0  0
  151.5825  141.2483  157.9206 N   0  3  0  0  0  0  0  0  0  0  0  0
  151.9970  141.9931  159.0240 C   0  0  0  0  0  0  0  0  0  0  0  0
  151.7513  143.3173  159.3739 C   0  0  0  0  0  0  0  0  0  0  0  0
  152.3229  143.7688  160.5815 C   0  0  0  0  0  0  0  0  0  0  0  0
  153.1034  142.9157  161.3882 C   0  0  0  0  0  0  0  0  0  0  0  0
  153.3476  141.5758  161.0211 C   0  0  0  0  0  0  0  0  0  0  0  0
  152.7796  141.1374  159.8248 C   0  0  0  0  0  0  0  0  0  0  0  0
  155.4090  132.3923  160.2549 H   0  0  0  0  0  0  0  0  0  0  0  0
  154.6868  132.3577  161.8586 H   0  0  0  0  0  0  0  0  0  0  0  0
  156.3201  133.0261  161.6199 H   0  0  0  0  0  0  0  0  0  0  0  0
  155.5478  133.9052  163.5534 H   0  0  0  0  0  0  0  0  0  0  0  0
  155.1553  135.5364  165.3401 H   0  0  0  0  0  0  0  0  0  0  0  0
  153.9657  137.6647  164.8622 H   0  0  0  0  0  0  0  0  0  0  0  0
  153.1629  138.1574  162.5992 H   0  0  0  0  0  0  0  0  0  0  0  0
  151.9640  137.4058  159.3210 H   0  0  0  0  0  0  0  0  0  0  0  0
  152.0649  137.8922  161.0161 H   0  0  0  0  0  0  0  0  0  0  0  0
  154.1182  139.1614  160.6107 H   0  0  0  0  0  0  0  0  0  0  0  0
  154.3096  138.4672  159.0250 H   0  0  0  0  0  0  0  0  0  0  0  0
  152.3282  137.9726  157.3605 H   0  0  0  0  0  0  0  0  0  0  0  0
  149.9043  138.2934  157.8413 H   0  0  0  0  0  0  0  0  0  0  0  0
  150.1732  137.7211  156.1997 H   0  0  0  0  0  0  0  0  0  0  0  0
  149.7745  139.4113  156.4879 H   0  0  0  0  0  0  0  0  0  0  0  0
  152.8072  140.1330  155.6049 H   0  0  0  0  0  0  0  0  0  0  0  0
  152.7995  138.8904  153.7492 H   0  0  0  0  0  0  0  0  0  0  0  0
  151.1522  143.9720  158.7582 H   0  0  0  0  0  0  0  0  0  0  0  0
  152.1579  144.7894  160.8957 H   0  0  0  0  0  0  0  0  0  0  0  0
  153.5234  143.2967  162.3078 H   0  0  0  0  0  0  0  0  0  0  0  0
  153.9454  140.9309  161.6481 H   0  0  0  0  0  0  0  0  0  0  0  0
  151.0050  141.5784  157.1583 H   0  0  0  0  0  0  0  0  0  0  0  0
  1  2  1  0  0  0  0
  1 26  1  0  0  0  0
  1 27  1  0  0  0  0
  1 28  1  0  0  0  0
  2  3  1  0  0  0  0
  3  8  1  0  0  0  0
  3  4  2  0  0  0  0
  4  5  1  0  0  0  0
  4 29  1  0  0  0  0
  5  6  2  0  0  0  0
  5 30  1  0  0  0  0
  6  7  1  0  0  0  0
  6 31  1  0  0  0  0
  7  8  2  0  0  0  0
  7 32  1  0  0  0  0
  8  9  1  0  0  0  0
  9 10  1  0  0  0  0
 10 11  1  0  0  0  0
 10 33  1  0  0  0  0
 10 34  1  0  0  0  0
 11 12  1  0  0  0  0
 11 35  1  0  0  0  0
 11 36  1  0  0  0  0
 12 25  1  0  0  0  0
 12 13  1  0  0  0  0
 13 14  1  0  0  0  0
 13 19  2  0  0  0  0
 14 15  1  0  0  0  0
 14 16  1  0  0  0  0
 14 37  1  0  0  0  0
 15 38  1  0  0  0  0
 15 39  1  0  0  0  0
 15 40  1  0  0  0  0
 16 17  1  0  0  0  0
 16 41  1  0  0  0  0
 17 18  2  0  0  0  0
 17 42  1  0  0  0  0
 19 20  1  0  0  0  0
 19 47  1  0  0  0  0
 20 25  2  0  0  0  0
 20 21  1  0  0  0  0
 21 22  2  0  0  0  0
 21 43  1  0  0  0  0
 22 23  1  0  0  0  0
 22 44  1  0  0  0  0
 23 24  2  0  0  0  0
 23 45  1  0  0  0  0
 24 25  1  0  0  0  0
 24 46  1  0  0  0  0
M  CHG  1  19   1
M  END
> <s_m_source_file>
AV-unprocessed.smi

> <i_m_source_file_index>
3011

> <i_lp_mmshare_version>
43012

> <i_f3d_flags>
0

> <s_epik_input>
W0NIM11PYzFbY0hdW2NIXVtjSF1bY0hdYzFPW0NIMl1bQ0gyXW4oYyhuMilbQ0BIXShbQ0gzXSlbTkhdW0NIXT1PKWMoYzIzKVtjSF1bY0hdW2NIXVtjSF0z

> <s_epik_cmdline>
J2VwaWtfcHl0aG9uJywgJy1waCcsICc3LjAnLCAnLXRuJywgJzgnLCAnLW1hJywgJzIwMCcsICctbWV0YWxfYmluZGluZycsICctaW1hZScsICc8aW5maWxlLm1hZT4nLCAnLW9tYWUnLCAnPG91dGZpbGUubWFlPic=

> <r_lp_tautomer_probability>
1

> <r_epik_Ionization_Penalty>
1.14644

> <r_epik_Ionization_Penalty_Charging>
1.14644

> <r_epik_Ionization_Penalty_Neutral>
5.5802e-08

> <r_epik_State_Penalty>
1.20743

> <r_epik_Charging_Adjusted_Penalty>
2.35387

> <i_epik_Tot_Q>
1

> <i_epik_Tot_abs_Q>
1

> <r_epik_Metal_State_Penalty>
1.28856

> <b_epik_Metal_Only>
0

> <s_lp_Force_Field>
OPLS_2005

> <r_lp_Energy>
19.9928

> <b_lp_Chiralities_Consistent>
1

> <s_lp_Variant>
AV-unprocessed.smi:3011-4

> <Gold.Version>
5.8.1

> <Gold.Id.Protein>
6NUR|6NUR_protein|mol2

> <Gold.PLP.Fitness>
53.2315

> <Gold.PLP.PLP>
-47.9175

> <Gold.PLP.part.hbond>
-2.0706

> <Gold.PLP.part.metal>
0.0000

> <Gold.PLP.part.buried>
-7.4850

> <Gold.PLP.part.nonpolar>
-39.6727

> <Gold.PLP.part.repulsive>
0.3943

> <Gold.PLP.ligand.clash>
0.0000

> <Gold.PLP.ligand.torsion>
0.3329

> <Gold.PLP.Chemscore.Hbond>
1.9673

> <Gold.PLP.Chemscore.CHOScore>
0.0000

> <Gold.PLP.Chemscore.Metal>
0.0000

> <Gold.Chemscore.Hbonds>
donor molecule, donor type, donor heavy atom, donor atom, acceptor molecule, acceptor atom, score
      P1  H  6896  6908       L1     9  1.00
      P1  H 10752 10765       L1    18  0.98

> <Gold.PLP.Chemscore.Internal.Correction>
0.0780

> <Gold.Rescore>
     Score         DG    S(hbond)    S(metal)    S(lipo)     H(rot)  DE(clash)    DE(int)     intcor
     18.59     -19.03       1.62        0.00     127.65       2.66       0.07       0.36       ----

> <Gold.Chemscore.Fitness>
18.5924

> <Gold.Chemscore.DG>
-19.0288

> <Gold.Chemscore.ZeroCoef>
-5.4800

> <Gold.Chemscore.Hbond>
1.6242

> <Gold.Chemscore.Metal>
0.0000

> <Gold.Chemscore.Lipo>
127.6463

> <Gold.Chemscore.Internal_Hbond>
0.0000

> <Gold.Chemscore.DEClash>
0.0721

> <Gold.Chemscore.DEInternal>
0.3644

> <Gold.Chemscore.Rot>
2.6604

> <Gold.Chemscore.Internal.Correction>
   9.000000E+99

> <Gold.Chemscore.Hbonds>
donor molecule, donor type, donor heavy atom, donor atom, acceptor molecule, acceptor atom, score
      P1  H  6896  6908       L1     9  0.12
      P1  H 10752 10765       L1    18  0.86

> <Gold.Chemscore.Hbond.Weighted>
-5.4248

> <Gold.Chemscore.Metal.Weighted>
-0.0000

> <Gold.Chemscore.Lipo.Weighted>
-14.9346

> <Gold.Chemscore.Internal_Hbond.Weighted>
0.0000

> <Gold.Chemscore.DEClash.Weighted>
0.0721

> <Gold.Chemscore.DEInternal.Weighted>
0.3644

> <Gold.Chemscore.Rot.Weighted>
6.8106

> <Gold.Chemscore.Internal.Correction.Weighted>
   9.000000E+99

> <Gold.Protein.RotatedTorsions>
[ 6907 6896 6895 6894 ] final  -86.90 input  -60.11 | X-H torsion
[ 7974 7965 7964 7962 ] final   57.30 input  175.53 | X-H torsion
[ 8008 7997 7996 7995 ] final  179.00 input   59.86 | X-H torsion
[ 10167 10162 10161 10158 ] final  155.41 input  -65.29 | X-H torsion
[ 10718 10713 10712 10709 ] final -170.20 input   66.30 | X-H torsion
[ 10763 10752 10751 10750 ] final  161.56 input  -60.55 | X-H torsion
[ 11005 11000 10999 10996 ] final  169.42 input  -57.11 | X-H torsion

> <Gold.Protein.ActiveResidues>
 VAL166  LYS551  ARG553  GLY616  TRP617  ASP618  TYR619  PRO620  LYS621  CYS622 
 ASP623  PHE694  ASN695  SER759  ASP760  ASP761  ALA762  ILE779  LEU786  VAL792 
 PHE793  MET794  SER795  GLU796  ALA797  LYS798  CYS799  TRP800  GLU811  SER814 

> <Gold.Protein.RotatedAtoms>
  150.6866  134.2980  159.4693 H   0  0  0  0  0  0  0  0  0  0  0  0  # atno 6907 bound_to 6896
  152.0878  134.9425  160.0581 H   0  0  0  0  0  0  0  0  0  0  0  0  # atno 6908 bound_to 6896
  152.0753  133.4091  159.4514 H   0  0  0  0  0  0  0  0  0  0  0  0  # atno 6909 bound_to 6896
  145.9306  139.3804  143.0423 H   0  0  0  0  0  0  0  0  0  0  0  0  # atno 7974 bound_to 7965
  156.0484  140.1319  157.0078 H   0  0  0  0  0  0  0  0  0  0  0  0  # atno 8008 bound_to 7997
  154.4423  140.1016  156.6410 H   0  0  0  0  0  0  0  0  0  0  0  0  # atno 8009 bound_to 7997
  155.5561  140.3464  155.4482 H   0  0  0  0  0  0  0  0  0  0  0  0  # atno 8010 bound_to 7997
  139.4821  144.5101  151.8037 H   0  0  0  0  0  0  0  0  0  0  0  0  # atno 10167 bound_to 10162
  156.7227  130.9276  151.3098 H   0  0  0  0  0  0  0  0  0  0  0  0  # atno 10718 bound_to 10713
  154.2649  135.2767  155.2763 H   0  0  0  0  0  0  0  0  0  0  0  0  # atno 10763 bound_to 10752
  154.5352  135.5718  153.6796 H   0  0  0  0  0  0  0  0  0  0  0  0  # atno 10764 bound_to 10752
  152.9955  135.6237  154.2801 H   0  0  0  0  0  0  0  0  0  0  0  0  # atno 10765 bound_to 10752
  140.2975  134.7622  157.3889 H   0  0  0  0  0  0  0  0  0  0  0  0  # atno 11005 bound_to 11000
  145.8431  140.9569  143.0788 LP  0  0  0  0  0  0  0  0  0  0  0  0  # atno 17320 bound_to 7965
  144.6764  140.0310  143.7482 LP  0  0  0  0  0  0  0  0  0  0  0  0  # atno 17321 bound_to 7965
  140.4603  144.1731  150.5905 LP  0  0  0  0  0  0  0  0  0  0  0  0  # atno 17342 bound_to 10162
  140.4491  143.2494  151.9371 LP  0  0  0  0  0  0  0  0  0  0  0  0  # atno 17343 bound_to 10162
  157.6891  130.9215  150.0466 LP  0  0  0  0  0  0  0  0  0  0  0  0  # atno 17370 bound_to 10713
  156.1583  130.3643  149.9336 LP  0  0  0  0  0  0  0  0  0  0  0  0  # atno 17371 bound_to 10713
  140.1139  134.5309  155.8242 LP  0  0  0  0  0  0  0  0  0  0  0  0  # atno 17394 bound_to 11000
  141.2134  133.6733  156.6740 LP  0  0  0  0  0  0  0  0  0  0  0  0  # atno 17395 bound_to 11000

$$$$
