AV-unprocessed.smi:3345|AV-procd|sdf|12903|dock2
  -GOLD-   2272019313D 1   1.00000     0.00000
 Structure written by MMmdl.
 41 42  0  0  0  0  0  0  0  0  2 V2000
  146.4372  140.0865  152.1145 C   0  0  0  0  0  0  0  0  0  0  0  0
  146.9178  138.6314  152.0378 C   0  0  2  0  0  0  0  0  0  0  0  0
  146.0513  137.6965  152.9121 C   0  0  0  0  0  0  0  0  0  0  0  0
  146.1008  136.2752  152.4801 N   0  3  0  0  0  0  0  0  0  0  0  0
  145.8147  135.3269  153.5821 C   0  0  0  0  0  0  0  0  0  0  0  0
  145.9526  133.8757  153.0904 C   0  0  0  0  0  0  0  0  0  0  0  0
  145.0991  133.6603  151.9731 O   0  0  0  0  0  0  0  0  0  0  0  0
  145.4219  134.5131  150.8813 C   0  0  0  0  0  0  0  0  0  0  0  0
  145.2423  135.9788  151.3082 C   0  0  0  0  0  0  0  0  0  0  0  0
  148.3208  138.5598  152.4447 N   0  0  0  0  0  0  0  0  0  0  0  0
  148.8942  139.2748  153.4269 C   0  0  0  0  0  0  0  0  0  0  0  0
  148.2655  140.0266  154.1718 O   0  0  0  0  0  0  0  0  0  0  0  0
  150.4199  139.1523  153.5452 C   0  0  2  0  0  0  0  0  0  0  0  0
  150.8799  137.7211  153.8883 C   0  0  0  0  0  0  0  0  0  0  0  0
  150.9138  140.1348  154.5027 N   0  0  0  0  0  0  0  0  0  0  0  0
  151.7967  139.9974  155.4943 C   0  0  0  0  0  0  0  0  0  0  0  0
  152.0654  141.1255  156.1364 N   0  0  0  0  0  0  0  0  0  0  0  0
  151.2556  141.9807  155.4448 C   0  0  0  0  0  0  0  0  0  0  0  0
  150.5638  141.4441  154.4403 N   0  0  0  0  0  0  0  0  0  0  0  0
  145.3974  140.1721  151.7974 H   0  0  0  0  0  0  0  0  0  0  0  0
  147.0321  140.7308  151.4660 H   0  0  0  0  0  0  0  0  0  0  0  0
  146.5089  140.4785  153.1298 H   0  0  0  0  0  0  0  0  0  0  0  0
  146.8178  138.3228  150.9964 H   0  0  0  0  0  0  0  0  0  0  0  0
  146.4200  137.7578  153.9373 H   0  0  0  0  0  0  0  0  0  0  0  0
  145.0167  138.0414  152.9399 H   0  0  0  0  0  0  0  0  0  0  0  0
  146.5050  135.4984  154.4088 H   0  0  0  0  0  0  0  0  0  0  0  0
  144.8066  135.5003  153.9617 H   0  0  0  0  0  0  0  0  0  0  0  0
  146.9851  133.6538  152.8198 H   0  0  0  0  0  0  0  0  0  0  0  0
  145.6769  133.1820  153.8847 H   0  0  0  0  0  0  0  0  0  0  0  0
  146.4434  134.3275  150.5451 H   0  0  0  0  0  0  0  0  0  0  0  0
  144.7631  134.2814  150.0445 H   0  0  0  0  0  0  0  0  0  0  0  0
  144.1979  136.1710  151.5586 H   0  0  0  0  0  0  0  0  0  0  0  0
  145.4940  136.6316  150.4733 H   0  0  0  0  0  0  0  0  0  0  0  0
  148.9171  137.9559  151.8973 H   0  0  0  0  0  0  0  0  0  0  0  0
  150.8461  139.4059  152.5730 H   0  0  0  0  0  0  0  0  0  0  0  0
  150.5296  137.0064  153.1428 H   0  0  0  0  0  0  0  0  0  0  0  0
  150.5103  137.3917  154.8602 H   0  0  0  0  0  0  0  0  0  0  0  0
  151.9683  137.6593  153.9121 H   0  0  0  0  0  0  0  0  0  0  0  0
  152.2599  139.0545  155.7456 H   0  0  0  0  0  0  0  0  0  0  0  0
  151.1911  143.0343  155.6741 H   0  0  0  0  0  0  0  0  0  0  0  0
  147.0536  136.0973  152.1957 H   0  0  0  0  0  0  0  0  0  0  0  0
  1  2  1  0  0  0  0
  1 20  1  0  0  0  0
  1 21  1  0  0  0  0
  1 22  1  0  0  0  0
  2  3  1  0  0  0  0
  2 10  1  0  0  0  0
  2 23  1  0  0  0  0
  3  4  1  0  0  0  0
  3 24  1  0  0  0  0
  3 25  1  0  0  0  0
  4  9  1  0  0  0  0
  4  5  1  0  0  0  0
  4 41  1  0  0  0  0
  5  6  1  0  0  0  0
  5 26  1  0  0  0  0
  5 27  1  0  0  0  0
  6  7  1  0  0  0  0
  6 28  1  0  0  0  0
  6 29  1  0  0  0  0
  7  8  1  0  0  0  0
  8  9  1  0  0  0  0
  8 30  1  0  0  0  0
  8 31  1  0  0  0  0
  9 32  1  0  0  0  0
  9 33  1  0  0  0  0
 10 11  1  0  0  0  0
 10 34  1  0  0  0  0
 11 12  2  0  0  0  0
 11 13  1  0  0  0  0
 13 14  1  0  0  0  0
 13 15  1  0  0  0  0
 13 35  1  0  0  0  0
 14 36  1  0  0  0  0
 14 37  1  0  0  0  0
 14 38  1  0  0  0  0
 15 19  1  0  0  0  0
 15 16  1  0  0  0  0
 16 17  2  0  0  0  0
 16 39  1  0  0  0  0
 17 18  1  0  0  0  0
 18 19  2  0  0  0  0
 18 40  1  0  0  0  0
M  CHG  1   4   1
M  END
> <s_m_source_file>
AV-unprocessed.smi

> <i_m_source_file_index>
3345

> <i_lp_mmshare_version>
43012

> <i_f3d_flags>
0

> <s_epik_input>
W0NIMl0xW0NIMl1PW0NIMl1bQ0gyXU4xW0NIMl1bQ0BASF0oW0NIM10pW05IXUMoPU8pW0NASF0oW0NIM10pbjJbY0hdbltjSF1uMg==

> <s_epik_cmdline>
J2VwaWtfcHl0aG9uJywgJy1waCcsICc3LjAnLCAnLXRuJywgJzgnLCAnLW1hJywgJzIwMCcsICctbWV0YWxfYmluZGluZycsICctaW1hZScsICc8aW5maWxlLm1hZT4nLCAnLW9tYWUnLCAnPG91dGZpbGUubWFlPic=

> <r_lp_tautomer_probability>
1

> <r_epik_Ionization_Penalty>
0.71326

> <r_epik_Ionization_Penalty_Charging>
0.713252

> <r_epik_Ionization_Penalty_Neutral>
8.27671e-06

> <r_epik_State_Penalty>
0.737017

> <r_epik_Charging_Adjusted_Penalty>
1.45027

> <i_epik_Tot_Q>
1

> <i_epik_Tot_abs_Q>
1

> <r_epik_Metal_State_Penalty>
0.73702

> <b_epik_Metal_Only>
0

> <s_lp_Force_Field>
OPLS_2005

> <r_lp_Energy>
25.9312

> <b_lp_Chiralities_Consistent>
1

> <s_lp_Variant>
AV-unprocessed.smi:3345-5

> <Gold.Version>
5.8.1

> <Gold.Id.Protein>
6NUR|6NUR_protein|mol2

> <Gold.PLP.Fitness>
38.2337

> <Gold.PLP.PLP>
-28.8739

> <Gold.PLP.part.hbond>
-4.0000

> <Gold.PLP.part.metal>
0.0000

> <Gold.PLP.part.buried>
3.8911

> <Gold.PLP.part.nonpolar>
-29.2121

> <Gold.PLP.part.repulsive>
0.4105

> <Gold.PLP.ligand.clash>
0.0000

> <Gold.PLP.ligand.torsion>
1.0374

> <Gold.PLP.Chemscore.Hbond>
2.7520

> <Gold.PLP.Chemscore.CHOScore>
1.0000

> <Gold.PLP.Chemscore.Metal>
0.0000

> <Gold.Chemscore.Hbonds>
donor molecule, donor type, donor heavy atom, donor atom, acceptor molecule, acceptor atom, score
      L1  H     4    41       P1  7948  2.00
      L1  H    10    34       P1  7948  0.61
      L1  C    18    40       P1  8028  0.22

> <Gold.PLP.Chemscore.Internal.Correction>
0.1786

> <Gold.Rescore>
     Score         DG    S(hbond)    S(metal)    S(lipo)     H(rot)  DE(clash)    DE(int)     intcor
      6.47     -10.82       1.69        0.00      54.61       2.61       0.72       3.64       ----

> <Gold.Chemscore.Fitness>
6.4700

> <Gold.Chemscore.DG>
-10.8233

> <Gold.Chemscore.ZeroCoef>
-5.4800

> <Gold.Chemscore.Hbond>
1.6903

> <Gold.Chemscore.Metal>
0.0000

> <Gold.Chemscore.Lipo>
54.6058

> <Gold.Chemscore.Internal_Hbond>
0.0000

> <Gold.Chemscore.DEClash>
0.7163

> <Gold.Chemscore.DEInternal>
3.6371

> <Gold.Chemscore.Rot>
2.6138

> <Gold.Chemscore.Internal.Correction>
   9.000000E+99

> <Gold.Chemscore.Hbonds>
donor molecule, donor type, donor heavy atom, donor atom, acceptor molecule, acceptor atom, score
      L1  H     4    41       P1  7948  1.00
      L1  H    10    34       P1  7948  0.56
      P1  H  8011  8017       L1    19  0.03

> <Gold.Chemscore.Hbond.Weighted>
-5.6457

> <Gold.Chemscore.Metal.Weighted>
-0.0000

> <Gold.Chemscore.Lipo.Weighted>
-6.3889

> <Gold.Chemscore.Internal_Hbond.Weighted>
0.0000

> <Gold.Chemscore.DEClash.Weighted>
0.7163

> <Gold.Chemscore.DEInternal.Weighted>
3.6371

> <Gold.Chemscore.Rot.Weighted>
6.6912

> <Gold.Chemscore.Internal.Correction.Weighted>
   9.000000E+99

> <Gold.Protein.RotatedTorsions>
[ 6907 6896 6895 6894 ] final   63.48 input  -60.11 | X-H torsion
[ 7974 7965 7964 7962 ] final  -84.39 input  175.53 | X-H torsion
[ 8008 7997 7996 7995 ] final  -43.61 input   59.86 | X-H torsion
[ 10167 10162 10161 10158 ] final  -48.98 input  -65.29 | X-H torsion
[ 10718 10713 10712 10709 ] final  -84.68 input   66.30 | X-H torsion
[ 10763 10752 10751 10750 ] final  -27.78 input  -60.55 | X-H torsion
[ 11005 11000 10999 10996 ] final   77.16 input  -57.11 | X-H torsion

> <Gold.Protein.ActiveResidues>
 VAL166  LYS551  ARG553  GLY616  TRP617  ASP618  TYR619  PRO620  LYS621  CYS622 
 ASP623  PHE694  ASN695  SER759  ASP760  ASP761  ALA762  ILE779  LEU786  VAL792 
 PHE793  MET794  SER795  GLU796  ALA797  LYS798  CYS799  TRP800  GLU811  SER814 

> <Gold.Protein.RotatedAtoms>
  152.4256  134.5875  159.9964 H   0  0  0  0  0  0  0  0  0  0  0  0  # atno 6907 bound_to 6896
  151.6012  133.3350  159.3056 H   0  0  0  0  0  0  0  0  0  0  0  0  # atno 6908 bound_to 6896
  150.8145  134.7356  159.6783 H   0  0  0  0  0  0  0  0  0  0  0  0  # atno 6909 bound_to 6896
  145.5072  140.9543  143.1727 H   0  0  0  0  0  0  0  0  0  0  0  0  # atno 7974 bound_to 7965
  154.3997  140.1443  156.3547 H   0  0  0  0  0  0  0  0  0  0  0  0  # atno 8008 bound_to 7997
  155.8236  140.3468  155.5508 H   0  0  0  0  0  0  0  0  0  0  0  0  # atno 8009 bound_to 7997
  155.8262  140.0905  157.1810 H   0  0  0  0  0  0  0  0  0  0  0  0  # atno 8010 bound_to 7997
  140.6706  143.2717  151.4149 H   0  0  0  0  0  0  0  0  0  0  0  0  # atno 10167 bound_to 10162
  156.0004  130.4706  150.4447 H   0  0  0  0  0  0  0  0  0  0  0  0  # atno 10718 bound_to 10713
  153.7377  135.6934  153.4974 H   0  0  0  0  0  0  0  0  0  0  0  0  # atno 10763 bound_to 10752
  153.2091  135.4409  155.0357 H   0  0  0  0  0  0  0  0  0  0  0  0  # atno 10764 bound_to 10752
  154.8231  135.3432  154.6904 H   0  0  0  0  0  0  0  0  0  0  0  0  # atno 10765 bound_to 10752
  139.9267  134.7660  156.1486 H   0  0  0  0  0  0  0  0  0  0  0  0  # atno 11005 bound_to 11000
  144.7747  139.6656  143.7180 LP  0  0  0  0  0  0  0  0  0  0  0  0  # atno 17320 bound_to 7965
  146.2189  139.5599  142.9631 LP  0  0  0  0  0  0  0  0  0  0  0  0  # atno 17321 bound_to 7965
  139.5973  144.1370  152.2158 LP  0  0  0  0  0  0  0  0  0  0  0  0  # atno 17342 bound_to 10162
  140.0743  144.5753  150.7168 LP  0  0  0  0  0  0  0  0  0  0  0  0  # atno 17343 bound_to 10162
  157.2485  131.0541  151.2393 LP  0  0  0  0  0  0  0  0  0  0  0  0  # atno 17370 bound_to 10713
  157.3551  130.7102  149.6465 LP  0  0  0  0  0  0  0  0  0  0  0  0  # atno 17371 bound_to 10713
  141.0829  133.6747  156.2373 LP  0  0  0  0  0  0  0  0  0  0  0  0  # atno 17394 bound_to 11000
  140.6317  134.5257  157.5560 LP  0  0  0  0  0  0  0  0  0  0  0  0  # atno 17395 bound_to 11000

$$$$
