AV-unprocessed.smi:265|AV-procd|sdf|2029|dock8
  -GOLD-   2262021233D 1   1.00000     0.00000
 Structure written by MMmdl.
 52 56  0  0  0  0  0  0  0  0  1 V2000
  142.4200  142.5316  157.8597 C   0  0  0  0  0  0  0  0  0  0  0  0
  143.5275  143.1338  156.9809 C   0  0  2  0  0  0  0  0  0  0  0  0
  143.2646  144.5036  156.6805 O   0  0  0  0  0  0  0  0  0  0  0  0
  143.5004  144.7656  155.3017 C   0  0  0  0  0  0  0  0  0  0  0  0
  144.3323  143.5886  154.8026 C   0  0  0  0  0  0  0  0  0  0  0  0
  143.7967  142.4295  155.6321 C   0  0  2  0  0  0  0  0  0  0  0  0
  142.5791  141.9891  155.0540 O   0  0  0  0  0  0  0  0  0  0  0  0
  144.7161  141.1820  155.6967 C   0  0  0  0  0  0  0  0  0  0  0  0
  145.9682  141.3765  156.4114 N   0  0  0  0  0  0  0  0  0  0  0  0
  146.1208  141.6517  157.7527 C   0  0  0  0  0  0  0  0  0  0  0  0
  147.3542  141.7867  158.1586 N   0  0  0  0  0  0  0  0  0  0  0  0
  148.1067  141.6099  157.0051 C   0  0  0  0  0  0  0  0  0  0  0  0
  149.4967  141.6283  156.7221 C   0  0  0  0  0  0  0  0  0  0  0  0
  150.4184  141.8464  157.6833 N   0  0  0  0  0  0  0  0  0  0  0  0
  151.0947  143.1389  157.5648 C   0  0  0  0  0  0  0  0  0  0  0  0
  151.9816  143.4152  158.7938 C   0  0  0  0  0  0  0  0  0  0  0  0
  152.9512  142.2449  159.0089 C   0  0  1  0  0  0  0  0  0  0  0  0
  153.7186  142.3987  160.1933 O   0  0  0  0  0  0  0  0  0  0  0  0
  154.7416  141.4073  160.3414 C   0  0  0  0  0  0  0  0  0  0  0  0
  154.2327  139.9749  160.0704 C   0  0  0  0  0  0  0  0  0  0  0  0
  154.9238  139.0098  160.3884 O   0  0  0  0  0  0  0  0  0  0  0  0
  153.0514  139.8283  159.4479 N   0  0  0  0  0  0  0  0  0  0  0  0
  152.1532  140.9410  159.1702 C   0  0  2  0  0  0  0  0  0  0  0  0
  151.2909  140.6970  157.9215 C   0  0  0  0  0  0  0  0  0  0  0  0
  149.8912  141.4154  155.4393 N   0  0  0  0  0  0  0  0  0  0  0  0
  148.9757  141.1981  154.4896 C   0  0  0  0  0  0  0  0  0  0  0  0
  147.6463  141.1511  154.6058 N   0  0  0  0  0  0  0  0  0  0  0  0
  147.2525  141.3617  155.8952 C   0  0  0  0  0  0  0  0  0  0  0  0
  153.6216  142.1824  158.1487 H   0  0  0  0  0  0  0  0  0  0  0  0
  151.4929  141.0336  160.0346 H   0  0  0  0  0  0  0  0  0  0  0  0
  142.6253  141.4849  158.0843 H   0  0  0  0  0  0  0  0  0  0  0  0
  141.4453  142.5884  157.3750 H   0  0  0  0  0  0  0  0  0  0  0  0
  142.3462  143.0652  158.8072 H   0  0  0  0  0  0  0  0  0  0  0  0
  144.4467  143.1570  157.5642 H   0  0  0  0  0  0  0  0  0  0  0  0
  142.5414  144.8039  154.7838 H   0  0  0  0  0  0  0  0  0  0  0  0
  144.0007  145.7235  155.1576 H   0  0  0  0  0  0  0  0  0  0  0  0
  144.2520  143.4323  153.7262 H   0  0  0  0  0  0  0  0  0  0  0  0
  145.3783  143.7855  155.0338 H   0  0  0  0  0  0  0  0  0  0  0  0
  142.6201  142.1311  154.1208 H   0  0  0  0  0  0  0  0  0  0  0  0
  144.1846  140.3553  156.1706 H   0  0  0  0  0  0  0  0  0  0  0  0
  144.9572  140.8451  154.6875 H   0  0  0  0  0  0  0  0  0  0  0  0
  145.2820  141.7428  158.4275 H   0  0  0  0  0  0  0  0  0  0  0  0
  151.7059  143.1468  156.6610 H   0  0  0  0  0  0  0  0  0  0  0  0
  150.3546  143.9331  157.4568 H   0  0  0  0  0  0  0  0  0  0  0  0
  152.5338  144.3454  158.6580 H   0  0  0  0  0  0  0  0  0  0  0  0
  151.3559  143.5471  159.6776 H   0  0  0  0  0  0  0  0  0  0  0  0
  155.5553  141.6252  159.6487 H   0  0  0  0  0  0  0  0  0  0  0  0
  155.1521  141.4685  161.3495 H   0  0  0  0  0  0  0  0  0  0  0  0
  152.7268  138.8965  159.2337 H   0  0  0  0  0  0  0  0  0  0  0  0
  150.6863  139.7985  158.0549 H   0  0  0  0  0  0  0  0  0  0  0  0
  151.9274  140.5322  157.0507 H   0  0  0  0  0  0  0  0  0  0  0  0
  149.3634  141.0376  153.4943 H   0  0  0  0  0  0  0  0  0  0  0  0
  1  2  1  0  0  0  0
  1 31  1  0  0  0  0
  1 32  1  0  0  0  0
  1 33  1  0  0  0  0
  2  6  1  0  0  0  0
  2  3  1  0  0  0  0
  2 34  1  0  0  0  0
  3  4  1  0  0  0  0
  4  5  1  0  0  0  0
  4 35  1  0  0  0  0
  4 36  1  0  0  0  0
  5  6  1  0  0  0  0
  5 37  1  0  0  0  0
  5 38  1  0  0  0  0
  6  7  1  0  0  0  0
  6  8  1  0  0  0  0
  7 39  1  0  0  0  0
  8  9  1  0  0  0  0
  8 40  1  0  0  0  0
  8 41  1  0  0  0  0
  9 28  1  0  0  0  0
  9 10  1  0  0  0  0
 10 11  2  0  0  0  0
 10 42  1  0  0  0  0
 11 12  1  0  0  0  0
 12 28  2  0  0  0  0
 12 13  1  0  0  0  0
 13 14  1  0  0  0  0
 13 25  2  0  0  0  0
 14 24  1  0  0  0  0
 14 15  1  0  0  0  0
 15 16  1  0  0  0  0
 15 43  1  0  0  0  0
 15 44  1  0  0  0  0
 16 17  1  0  0  0  0
 16 45  1  0  0  0  0
 16 46  1  0  0  0  0
 17 29  1  0  0  0  0
 17 23  1  0  0  0  0
 17 18  1  0  0  0  0
 18 19  1  0  0  0  0
 19 20  1  0  0  0  0
 19 47  1  0  0  0  0
 19 48  1  0  0  0  0
 20 21  2  0  0  0  0
 20 22  1  0  0  0  0
 22 23  1  0  0  0  0
 22 49  1  0  0  0  0
 23 30  1  0  0  0  0
 23 24  1  0  0  0  0
 24 50  1  0  0  0  0
 24 51  1  0  0  0  0
 25 26  1  0  0  0  0
 26 27  2  0  0  0  0
 26 52  1  0  0  0  0
 27 28  1  0  0  0  0
M  END
> <s_m_source_file>
AV-unprocessed.smi

> <i_m_source_file_index>
265

> <i_lp_mmshare_version>
43012

> <i_f3d_flags>
0

> <s_epik_input>
W0NIMl0xW0NIMl1PW0NAQEhdKFtDSDNdKVtDQEBdMShbT0hdKVtDSDJdbihbY0hdbjIpYyhjMjMpbltjSF1uYzNOKFtDSDJdW0NIMl00KVtDSDJdW0NAQEhdKFtDQEhdNDUpW05IXUMoPU8pW0NIMl1PNQ==

> <s_epik_cmdline>
J2VwaWtfcHl0aG9uJywgJy1waCcsICc3LjAnLCAnLXRuJywgJzgnLCAnLW1hJywgJzIwMCcsICctbWV0YWxfYmluZGluZycsICctaW1hZScsICc8aW5maWxlLm1hZT4nLCAnLW9tYWUnLCAnPG91dGZpbGUubWFlPic=

> <r_lp_tautomer_probability>
1

> <r_epik_Ionization_Penalty>
0.00221504

> <r_epik_Ionization_Penalty_Charging>
0

> <r_epik_Ionization_Penalty_Neutral>
0.00221504

> <r_epik_State_Penalty>
-0

> <r_epik_Charging_Adjusted_Penalty>
0

> <i_epik_Tot_Q>
0

> <i_epik_Tot_abs_Q>
0

> <r_epik_Metal_State_Penalty>
-0

> <b_epik_Metal_Only>
0

> <s_lp_Force_Field>
OPLS_2005

> <r_lp_Energy>
49.142

> <b_lp_Chiralities_Consistent>
1

> <s_lp_Variant>
AV-unprocessed.smi:265-15

> <Gold.Version>
5.8.1

> <Gold.Id.Protein>
6NUR|6NUR_protein|mol2

> <Gold.PLP.Fitness>
42.3808

> <Gold.PLP.PLP>
-36.5640

> <Gold.PLP.part.hbond>
-1.1942

> <Gold.PLP.part.metal>
0.0000

> <Gold.PLP.part.buried>
-7.2461

> <Gold.PLP.part.nonpolar>
-28.9257

> <Gold.PLP.part.repulsive>
0.5944

> <Gold.PLP.ligand.clash>
0.0000

> <Gold.PLP.ligand.torsion>
0.1982

> <Gold.PLP.Chemscore.Hbond>
1.0000

> <Gold.PLP.Chemscore.CHOScore>
1.0000

> <Gold.PLP.Chemscore.Metal>
0.0000

> <Gold.Chemscore.Hbonds>
donor molecule, donor type, donor heavy atom, donor atom, acceptor molecule, acceptor atom, score
      L1  H     7    39       P1 10174  0.95
      L1  C    26    52       P1  7957  0.97

> <Gold.PLP.Chemscore.Internal.Correction>
0.2132

> <Gold.Rescore>
     Score         DG    S(hbond)    S(metal)    S(lipo)     H(rot)  DE(clash)    DE(int)     intcor
     10.84     -12.29       0.97        0.00      79.59       2.25       0.02       1.43       ----

> <Gold.Chemscore.Fitness>
10.8419

> <Gold.Chemscore.DG>
-12.2917

> <Gold.Chemscore.ZeroCoef>
-5.4800

> <Gold.Chemscore.Hbond>
0.9724

> <Gold.Chemscore.Metal>
0.0000

> <Gold.Chemscore.Lipo>
79.5887

> <Gold.Chemscore.Internal_Hbond>
0.0000

> <Gold.Chemscore.DEClash>
0.0201

> <Gold.Chemscore.DEInternal>
1.4297

> <Gold.Chemscore.Rot>
2.2453

> <Gold.Chemscore.Internal.Correction>
   9.000000E+99

> <Gold.Chemscore.Hbonds>
donor molecule, donor type, donor heavy atom, donor atom, acceptor molecule, acceptor atom, score
      L1  H     7    39       P1 10174  0.21

> <Gold.Chemscore.Hbond.Weighted>
-3.2478

> <Gold.Chemscore.Metal.Weighted>
-0.0000

> <Gold.Chemscore.Lipo.Weighted>
-9.3119

> <Gold.Chemscore.Internal_Hbond.Weighted>
0.0000

> <Gold.Chemscore.DEClash.Weighted>
0.0201

> <Gold.Chemscore.DEInternal.Weighted>
1.4297

> <Gold.Chemscore.Rot.Weighted>
5.7479

> <Gold.Chemscore.Internal.Correction.Weighted>
   9.000000E+99

> <Gold.Protein.RotatedTorsions>
[ 6907 6896 6895 6894 ] final  122.25 input  -60.11 | X-H torsion
[ 7974 7965 7964 7962 ] final  167.85 input  175.53 | X-H torsion
[ 8008 7997 7996 7995 ] final   32.44 input   59.86 | X-H torsion
[ 10167 10162 10161 10158 ] final  -96.11 input  -65.29 | X-H torsion
[ 10718 10713 10712 10709 ] final   51.03 input   66.30 | X-H torsion
[ 10763 10752 10751 10750 ] final  -98.21 input  -60.55 | X-H torsion
[ 11005 11000 10999 10996 ] final  -39.47 input  -57.11 | X-H torsion

> <Gold.Protein.ActiveResidues>
 VAL166  LYS551  ARG553  GLY616  TRP617  ASP618  TYR619  PRO620  LYS621  CYS622 
 ASP623  PHE694  ASN695  SER759  ASP760  ASP761  ALA762  ILE779  LEU786  VAL792 
 PHE793  MET794  SER795  GLU796  ALA797  LYS798  CYS799  TRP800  GLU811  SER814 

> <Gold.Protein.RotatedAtoms>
  152.4258  133.7192  159.6523 H   0  0  0  0  0  0  0  0  0  0  0  0  # atno 6907 bound_to 6896
  150.8134  133.8369  159.3177 H   0  0  0  0  0  0  0  0  0  0  0  0  # atno 6908 bound_to 6896
  151.6073  135.1045  160.0125 H   0  0  0  0  0  0  0  0  0  0  0  0  # atno 6909 bound_to 6896
  144.7409  139.8821  143.6397 H   0  0  0  0  0  0  0  0  0  0  0  0  # atno 7974 bound_to 7965
  155.1225  140.3249  155.4494 H   0  0  0  0  0  0  0  0  0  0  0  0  # atno 8008 bound_to 7997
  156.2658  140.2024  156.6295 H   0  0  0  0  0  0  0  0  0  0  0  0  # atno 8009 bound_to 7997
  154.6673  140.0540  157.0114 H   0  0  0  0  0  0  0  0  0  0  0  0  # atno 8010 bound_to 7997
  140.2972  143.3184  152.0285 H   0  0  0  0  0  0  0  0  0  0  0  0  # atno 10167 bound_to 10162
  157.4942  130.8396  149.8239 H   0  0  0  0  0  0  0  0  0  0  0  0  # atno 10718 bound_to 10713
  154.7395  135.5018  153.9098 H   0  0  0  0  0  0  0  0  0  0  0  0  # atno 10763 bound_to 10752
  153.1028  135.6689  153.9649 H   0  0  0  0  0  0  0  0  0  0  0  0  # atno 10764 bound_to 10752
  153.9430  135.3065  155.3421 H   0  0  0  0  0  0  0  0  0  0  0  0  # atno 10765 bound_to 10752
  141.0104  133.6910  156.2192 H   0  0  0  0  0  0  0  0  0  0  0  0  # atno 11005 bound_to 11000
  146.1204  139.4221  143.0232 LP  0  0  0  0  0  0  0  0  0  0  0  0  # atno 17320 bound_to 7965
  145.7313  141.0041  143.1350 LP  0  0  0  0  0  0  0  0  0  0  0  0  # atno 17321 bound_to 7965
  139.4923  144.6482  151.6733 LP  0  0  0  0  0  0  0  0  0  0  0  0  # atno 17342 bound_to 10162
  140.5682  144.0154  150.6203 LP  0  0  0  0  0  0  0  0  0  0  0  0  # atno 17343 bound_to 10162
  156.0191  130.3802  150.2018 LP  0  0  0  0  0  0  0  0  0  0  0  0  # atno 17370 bound_to 10713
  157.0207  130.9978  151.3340 LP  0  0  0  0  0  0  0  0  0  0  0  0  # atno 17371 bound_to 10713
  140.6742  134.4835  157.5588 LP  0  0  0  0  0  0  0  0  0  0  0  0  # atno 17394 bound_to 11000
  139.9087  134.8392  156.1609 LP  0  0  0  0  0  0  0  0  0  0  0  0  # atno 17395 bound_to 11000

$$$$
