AV-unprocessed.smi:734|AV-procd|sdf|3531|dock6
  -GOLD-   22720 0523D 1   1.00000     0.00000
 Structure written by MMmdl.
 38 39  0  0  0  0  0  0  0  0  3 V2000
  153.3511  141.7677  160.0385 C   0  0  0  0  0  0  0  0  0  0  0  0
  152.6511  142.5630  158.9270 C   0  0  0  0  0  0  0  0  0  0  0  0
  151.5443  143.4885  159.4531 C   0  0  0  0  0  0  0  0  0  0  0  0
  152.1675  141.6794  157.8198 C   0  0  0  0  0  0  0  0  0  0  0  0
  152.5619  140.4109  157.6719 N   0  0  0  0  0  0  0  0  0  0  0  0
  151.9688  139.8011  156.5766 N   0  0  0  0  0  0  0  0  0  0  0  0
  151.1281  140.6093  155.9164 C   0  0  0  0  0  0  0  0  0  0  0  0
  150.4480  140.2083  154.8295 N   0  5  0  0  0  0  0  0  0  0  0  0
  149.0970  140.2464  154.8292 C   0  0  0  0  0  0  0  0  0  0  0  0
  148.3627  140.1674  155.8171 O   0  0  0  0  0  0  0  0  0  0  0  0
  148.5602  140.3923  153.6095 N   0  0  0  0  0  0  0  0  0  0  0  0
  147.1348  140.4812  153.3178 C   0  0  0  0  0  0  0  0  0  0  0  0
  146.3771  139.2507  153.8484 C   0  0  0  0  0  0  0  0  0  0  0  0
  145.5794  138.5922  152.7894 N   0  3  0  0  0  0  0  0  0  0  0  0
  144.7837  137.4269  153.2685 C   0  0  0  0  0  0  0  0  0  0  0  0
  144.9011  136.4407  152.1409 C   0  0  0  0  0  0  0  0  0  0  0  0
  145.7620  136.8565  151.2190 C   0  0  0  0  0  0  0  0  0  0  0  0
  146.3572  138.1872  151.5830 C   0  0  0  0  0  0  0  0  0  0  0  0
  151.0266  142.2298  156.6029 S   0  0  0  0  0  0  0  0  0  0  0  0
  154.1824  141.1852  159.6396 H   0  0  0  0  0  0  0  0  0  0  0  0
  152.6624  141.0756  160.5246 H   0  0  0  0  0  0  0  0  0  0  0  0
  153.7506  142.4318  160.8053 H   0  0  0  0  0  0  0  0  0  0  0  0
  153.4108  143.2129  158.4908 H   0  0  0  0  0  0  0  0  0  0  0  0
  151.1268  144.0955  158.6493 H   0  0  0  0  0  0  0  0  0  0  0  0
  151.9283  144.1670  160.2151 H   0  0  0  0  0  0  0  0  0  0  0  0
  150.7284  142.9175  159.8974 H   0  0  0  0  0  0  0  0  0  0  0  0
  149.1953  140.4475  152.8264 H   0  0  0  0  0  0  0  0  0  0  0  0
  146.7486  141.3868  153.7859 H   0  0  0  0  0  0  0  0  0  0  0  0
  146.9913  140.6023  152.2430 H   0  0  0  0  0  0  0  0  0  0  0  0
  147.0634  138.5243  154.2863 H   0  0  0  0  0  0  0  0  0  0  0  0
  145.7052  139.5678  154.6475 H   0  0  0  0  0  0  0  0  0  0  0  0
  145.1978  136.9901  154.1786 H   0  0  0  0  0  0  0  0  0  0  0  0
  143.7462  137.7106  153.4471 H   0  0  0  0  0  0  0  0  0  0  0  0
  144.3574  135.5077  152.1211 H   0  0  0  0  0  0  0  0  0  0  0  0
  146.0362  136.3187  150.3233 H   0  0  0  0  0  0  0  0  0  0  0  0
  146.2358  138.9130  150.7785 H   0  0  0  0  0  0  0  0  0  0  0  0
  147.4199  138.0644  151.7969 H   0  0  0  0  0  0  0  0  0  0  0  0
  144.9013  139.2687  152.4689 H   0  0  0  0  0  0  0  0  0  0  0  0
  1  2  1  0  0  0  0
  1 20  1  0  0  0  0
  1 21  1  0  0  0  0
  1 22  1  0  0  0  0
  2  3  1  0  0  0  0
  2  4  1  0  0  0  0
  2 23  1  0  0  0  0
  3 24  1  0  0  0  0
  3 25  1  0  0  0  0
  3 26  1  0  0  0  0
  4 19  1  0  0  0  0
  4  5  2  0  0  0  0
  5  6  1  0  0  0  0
  6  7  2  0  0  0  0
  7  8  1  0  0  0  0
  7 19  1  0  0  0  0
  8  9  1  0  0  0  0
  9 10  2  0  0  0  0
  9 11  1  0  0  0  0
 11 12  1  0  0  0  0
 11 27  1  0  0  0  0
 12 13  1  0  0  0  0
 12 28  1  0  0  0  0
 12 29  1  0  0  0  0
 13 14  1  0  0  0  0
 13 30  1  0  0  0  0
 13 31  1  0  0  0  0
 14 18  1  0  0  0  0
 14 15  1  0  0  0  0
 14 38  1  0  0  0  0
 15 16  1  0  0  0  0
 15 32  1  0  0  0  0
 15 33  1  0  0  0  0
 16 17  2  0  0  0  0
 16 34  1  0  0  0  0
 17 18  1  0  0  0  0
 17 35  1  0  0  0  0
 18 36  1  0  0  0  0
 18 37  1  0  0  0  0
M  CHG  1   8  -1
M  CHG  1  14   1
M  END
> <s_m_source_file>
AV-unprocessed.smi

> <i_m_source_file_index>
734

> <i_lp_mmshare_version>
43012

> <i_f3d_flags>
0

> <s_epik_input>
W0NIM11bQ0hdKFtDSDNdKWMxbm5jKHMxKVtOSF1DKD1PKVtOSF1bQ0gyXVtDSDJdTjJbQ0gyXVtDSF09W0NIXVtDSDJdMg==

> <s_epik_cmdline>
J2VwaWtfcHl0aG9uJywgJy1waCcsICc3LjAnLCAnLXRuJywgJzgnLCAnLW1hJywgJzIwMCcsICctbWV0YWxfYmluZGluZycsICctaW1hZScsICc8aW5maWxlLm1hZT4nLCAnLW9tYWUnLCAnPG91dGZpbGUubWFlPic=

> <r_lp_tautomer_probability>
1

> <r_epik_Ionization_Penalty>
3.04352

> <r_epik_Ionization_Penalty_Charging>
2.92732

> <r_epik_Ionization_Penalty_Neutral>
0.116198

> <r_epik_State_Penalty>
2.92347

> <r_epik_Charging_Adjusted_Penalty>
5.85079

> <i_epik_Tot_Q>
0

> <i_epik_Tot_abs_Q>
2

> <r_epik_Metal_State_Penalty>
0.448048

> <b_epik_Metal_Only>
1

> <s_lp_Force_Field>
OPLS_2005

> <r_lp_Energy>
6.61646

> <b_lp_Chiralities_Consistent>
1

> <s_lp_Variant>
AV-unprocessed.smi:734-2

> <Gold.Version>
5.8.1

> <Gold.Id.Protein>
6NUR|6NUR_protein|mol2

> <Gold.PLP.Fitness>
43.6108

> <Gold.PLP.PLP>
-33.4408

> <Gold.PLP.part.hbond>
-4.0000

> <Gold.PLP.part.metal>
0.0000

> <Gold.PLP.part.buried>
0.9736

> <Gold.PLP.part.nonpolar>
-30.2592

> <Gold.PLP.part.repulsive>
0.2517

> <Gold.PLP.ligand.clash>
0.0000

> <Gold.PLP.ligand.torsion>
1.5771

> <Gold.PLP.Chemscore.Hbond>
4.3828

> <Gold.PLP.Chemscore.CHOScore>
0.0000

> <Gold.PLP.Chemscore.Metal>
0.0000

> <Gold.Chemscore.Hbonds>
donor molecule, donor type, donor heavy atom, donor atom, acceptor molecule, acceptor atom, score
      L1  H    11    27       P1  7957  1.00
      L1  H    14    38       P1 10175  2.00
      P1  H  7989  7998       L1     8  0.95
      P1  H  7997  8010       L1     5  0.40

> <Gold.PLP.Chemscore.Internal.Correction>
0.1756

> <Gold.Rescore>
     Score         DG    S(hbond)    S(metal)    S(lipo)     H(rot)  DE(clash)    DE(int)     intcor
     16.59     -19.41       2.59        0.00      82.00       1.68       0.05       2.77       ----

> <Gold.Chemscore.Fitness>
16.5927

> <Gold.Chemscore.DG>
-19.4079

> <Gold.Chemscore.ZeroCoef>
-5.4800

> <Gold.Chemscore.Hbond>
2.5883

> <Gold.Chemscore.Metal>
0.0000

> <Gold.Chemscore.Lipo>
81.9972

> <Gold.Chemscore.Internal_Hbond>
0.0000

> <Gold.Chemscore.DEClash>
0.0489

> <Gold.Chemscore.DEInternal>
2.7663

> <Gold.Chemscore.Rot>
1.6839

> <Gold.Chemscore.Internal.Correction>
   9.000000E+99

> <Gold.Chemscore.Hbonds>
donor molecule, donor type, donor heavy atom, donor atom, acceptor molecule, acceptor atom, score
      L1  H    11    27       P1  7957  0.94
      L1  H    14    38       P1 10175  1.00
      P1  H  7989  7998       L1     8  0.21
      P1  H  7997  8010       L1     5  0.04

> <Gold.Chemscore.Hbond.Weighted>
-8.6451

> <Gold.Chemscore.Metal.Weighted>
-0.0000

> <Gold.Chemscore.Lipo.Weighted>
-9.5937

> <Gold.Chemscore.Internal_Hbond.Weighted>
0.0000

> <Gold.Chemscore.DEClash.Weighted>
0.0489

> <Gold.Chemscore.DEInternal.Weighted>
2.7663

> <Gold.Chemscore.Rot.Weighted>
4.3108

> <Gold.Chemscore.Internal.Correction.Weighted>
   9.000000E+99

> <Gold.Protein.RotatedTorsions>
[ 6907 6896 6895 6894 ] final  171.61 input  -60.11 | X-H torsion
[ 7974 7965 7964 7962 ] final  -77.21 input  175.53 | X-H torsion
[ 8008 7997 7996 7995 ] final   36.85 input   59.86 | X-H torsion
[ 10167 10162 10161 10158 ] final  -81.78 input  -65.29 | X-H torsion
[ 10718 10713 10712 10709 ] final -111.49 input   66.30 | X-H torsion
[ 10763 10752 10751 10750 ] final  -47.54 input  -60.55 | X-H torsion
[ 11005 11000 10999 10996 ] final -129.33 input  -57.11 | X-H torsion

> <Gold.Protein.ActiveResidues>
 VAL166  LYS551  ARG553  GLY616  TRP617  ASP618  TYR619  PRO620  LYS621  CYS622 
 ASP623  PHE694  ASN695  SER759  ASP760  ASP761  ALA762  ILE779  LEU786  VAL792 
 PHE793  MET794  SER795  GLU796  ALA797  LYS798  CYS799  TRP800  GLU811  SER814 

> <Gold.Protein.RotatedAtoms>
  151.7975  133.3366  159.3516 H   0  0  0  0  0  0  0  0  0  0  0  0  # atno 6907 bound_to 6896
  150.7370  134.5785  159.5936 H   0  0  0  0  0  0  0  0  0  0  0  0  # atno 6908 bound_to 6896
  152.3167  134.7433  160.0375 H   0  0  0  0  0  0  0  0  0  0  0  0  # atno 6909 bound_to 6896
  145.6027  140.9405  143.1232 H   0  0  0  0  0  0  0  0  0  0  0  0  # atno 7974 bound_to 7965
  155.1942  140.3310  155.4353 H   0  0  0  0  0  0  0  0  0  0  0  0  # atno 8008 bound_to 7997
  156.2431  140.1905  156.6983 H   0  0  0  0  0  0  0  0  0  0  0  0  # atno 8009 bound_to 7997
  154.6185  140.0599  156.9571 H   0  0  0  0  0  0  0  0  0  0  0  0  # atno 8010 bound_to 7997
  140.4380  143.2524  151.8666 H   0  0  0  0  0  0  0  0  0  0  0  0  # atno 10167 bound_to 10162
  156.0650  130.5870  150.8380 H   0  0  0  0  0  0  0  0  0  0  0  0  # atno 10718 bound_to 10713
  154.0631  135.6615  153.4814 H   0  0  0  0  0  0  0  0  0  0  0  0  # atno 10763 bound_to 10752
  153.0419  135.5139  154.7639 H   0  0  0  0  0  0  0  0  0  0  0  0  # atno 10764 bound_to 10752
  154.6682  135.3025  154.9744 H   0  0  0  0  0  0  0  0  0  0  0  0  # atno 10765 bound_to 10752
  140.9441  134.1154  157.4124 H   0  0  0  0  0  0  0  0  0  0  0  0  # atno 11005 bound_to 11000
  144.7303  139.7747  143.7349 LP  0  0  0  0  0  0  0  0  0  0  0  0  # atno 17320 bound_to 7965
  146.1564  139.4663  143.0016 LP  0  0  0  0  0  0  0  0  0  0  0  0  # atno 17321 bound_to 7965
  139.4788  144.5261  151.8733 LP  0  0  0  0  0  0  0  0  0  0  0  0  # atno 17342 bound_to 10162
  140.4351  144.2063  150.5889 LP  0  0  0  0  0  0  0  0  0  0  0  0  # atno 17343 bound_to 10162
  157.5686  131.0946  150.9453 LP  0  0  0  0  0  0  0  0  0  0  0  0  # atno 17370 bound_to 10713
  156.9674  130.5478  149.5289 LP  0  0  0  0  0  0  0  0  0  0  0  0  # atno 17371 bound_to 10713
  139.8828  135.0046  156.6258 LP  0  0  0  0  0  0  0  0  0  0  0  0  # atno 17394 bound_to 11000
  140.7694  133.8751  155.8480 LP  0  0  0  0  0  0  0  0  0  0  0  0  # atno 17395 bound_to 11000

$$$$
