AV-unprocessed.smi:3237|AV-procd|sdf|12369|dock3
  -GOLD-   2272018233D 1   1.00000     0.00000
 Structure written by MMmdl.
 36 38  0  0  0  0  0  0  0  0  3 V2000
  148.2739  139.8834  154.2462 C   0  0  0  0  0  0  0  0  0  0  0  0
  149.3480  138.8697  154.4446 C   0  0  0  0  0  0  0  0  0  0  0  0
  149.3277  137.5562  154.8195 C   0  0  0  0  0  0  0  0  0  0  0  0
  150.7013  137.1910  154.7974 C   0  0  0  0  0  0  0  0  0  0  0  0
  151.2018  135.9844  155.1046 N   0  5  0  0  0  0  0  0  0  0  0  0
  150.3737  134.9299  155.2812 C   0  0  0  0  0  0  0  0  0  0  0  0
  150.2391  134.2674  156.3124 O   0  0  0  0  0  0  0  0  0  0  0  0
  149.6566  134.6216  154.1922 N   0  0  0  0  0  0  0  0  0  0  0  0
  148.6892  133.5347  154.0955 C   0  0  2  0  0  0  0  0  0  0  0  0
  149.2248  132.1695  154.5153 C   0  0  0  0  0  0  0  0  0  0  0  0
  148.2516  131.2049  153.8291 C   0  0  0  0  0  0  0  0  0  0  0  0
  147.7338  131.9029  152.6256 N   0  3  1  0  0  0  0  0  0  0  0  0
  146.2621  131.8373  152.4925 C   0  0  0  0  0  0  0  0  0  0  0  0
  145.7683  130.5533  151.8700 C   0  0  0  0  0  0  0  0  0  0  0  0
  145.7844  131.8316  151.0601 C   0  0  0  0  0  0  0  0  0  0  0  0
  148.2641  133.2836  152.6505 C   0  0  0  0  0  0  0  0  0  0  0  0
  151.4871  138.1984  154.4560 N   0  0  0  0  0  0  0  0  0  0  0  0
  150.6262  139.2768  154.2204 O   0  0  0  0  0  0  0  0  0  0  0  0
  147.4468  139.7108  154.9348 H   0  0  0  0  0  0  0  0  0  0  0  0
  147.8839  139.8363  153.2295 H   0  0  0  0  0  0  0  0  0  0  0  0
  148.6509  140.8916  154.4185 H   0  0  0  0  0  0  0  0  0  0  0  0
  148.4680  136.9513  155.0658 H   0  0  0  0  0  0  0  0  0  0  0  0
  149.7960  135.1909  153.3702 H   0  0  0  0  0  0  0  0  0  0  0  0
  147.8032  133.7763  154.6866 H   0  0  0  0  0  0  0  0  0  0  0  0
  150.2337  132.0223  154.1265 H   0  0  0  0  0  0  0  0  0  0  0  0
  149.2570  132.0386  155.5975 H   0  0  0  0  0  0  0  0  0  0  0  0
  148.7318  130.2641  153.5594 H   0  0  0  0  0  0  0  0  0  0  0  0
  147.4324  130.9711  154.5113 H   0  0  0  0  0  0  0  0  0  0  0  0
  145.6822  132.3367  153.2670 H   0  0  0  0  0  0  0  0  0  0  0  0
  146.5004  129.7883  151.6169 H   0  0  0  0  0  0  0  0  0  0  0  0
  144.7984  130.1799  152.1922 H   0  0  0  0  0  0  0  0  0  0  0  0
  144.8254  132.3006  150.8493 H   0  0  0  0  0  0  0  0  0  0  0  0
  146.5276  131.9176  150.2694 H   0  0  0  0  0  0  0  0  0  0  0  0
  147.5453  134.0225  152.2932 H   0  0  0  0  0  0  0  0  0  0  0  0
  149.1300  133.3204  151.9875 H   0  0  0  0  0  0  0  0  0  0  0  0
  148.1277  131.4515  151.8128 H   0  0  0  0  0  0  0  0  0  0  0  0
  1  2  1  0  0  0  0
  1 19  1  0  0  0  0
  1 20  1  0  0  0  0
  1 21  1  0  0  0  0
  2 18  1  0  0  0  0
  2  3  2  0  0  0  0
  3  4  1  0  0  0  0
  3 22  1  0  0  0  0
  4  5  1  0  0  0  0
  4 17  2  0  0  0  0
  5  6  1  0  0  0  0
  6  7  2  0  0  0  0
  6  8  1  0  0  0  0
  8  9  1  0  0  0  0
  8 23  1  0  0  0  0
  9 16  1  0  0  0  0
  9 10  1  0  0  0  0
  9 24  1  0  0  0  0
 10 11  1  0  0  0  0
 10 25  1  0  0  0  0
 10 26  1  0  0  0  0
 11 12  1  0  0  0  0
 11 27  1  0  0  0  0
 11 28  1  0  0  0  0
 12 13  1  0  0  0  0
 12 16  1  0  0  0  0
 12 36  1  0  0  0  0
 13 15  1  0  0  0  0
 13 14  1  0  0  0  0
 13 29  1  0  0  0  0
 14 15  1  0  0  0  0
 14 30  1  0  0  0  0
 14 31  1  0  0  0  0
 15 32  1  0  0  0  0
 15 33  1  0  0  0  0
 16 34  1  0  0  0  0
 16 35  1  0  0  0  0
 17 18  1  0  0  0  0
M  CHG  1   5  -1
M  CHG  1  12   1
M  END
> <s_m_source_file>
AV-unprocessed.smi

> <i_m_source_file_index>
3237

> <i_lp_mmshare_version>
43012

> <i_f3d_flags>
0

> <s_epik_input>
W0NIM11jMVtjSF1jKG5vMSlbTkhdQyg9TylbTkhdW0NAQEhdMltDSDJdW0NIMl1OKFtDSDJdMilbQ0hdM1tDSDJdW0NIMl0z

> <s_epik_cmdline>
J2VwaWtfcHl0aG9uJywgJy1waCcsICc3LjAnLCAnLXRuJywgJzgnLCAnLW1hJywgJzIwMCcsICctbWV0YWxfYmluZGluZycsICctaW1hZScsICc8aW5maWxlLm1hZT4nLCAnLW9tYWUnLCAnPG91dGZpbGUubWFlPic=

> <r_epik_Ionization_Penalty>
6.08472

> <r_epik_Ionization_Penalty_Charging>
6.08464

> <r_epik_Ionization_Penalty_Neutral>
8.41751e-05

> <r_epik_State_Penalty>
6.08438

> <r_epik_Charging_Adjusted_Penalty>
12.169

> <i_epik_Tot_Q>
0

> <i_epik_Tot_abs_Q>
2

> <r_epik_Metal_State_Penalty>
2.0369

> <b_epik_Metal_Only>
1

> <s_lp_Force_Field>
OPLS_2005

> <r_lp_Energy>
24.4962

> <b_lp_Chiralities_Consistent>
1

> <s_lp_Variant>
AV-unprocessed.smi:3237-7

> <Gold.Version>
5.8.1

> <Gold.Id.Protein>
6NUR|6NUR_protein|mol2

> <Gold.PLP.Fitness>
40.5797

> <Gold.PLP.PLP>
-29.1998

> <Gold.PLP.part.hbond>
-4.0228

> <Gold.PLP.part.metal>
0.0000

> <Gold.PLP.part.buried>
-2.6531

> <Gold.PLP.part.nonpolar>
-22.5582

> <Gold.PLP.part.repulsive>
0.5189

> <Gold.PLP.ligand.clash>
0.0000

> <Gold.PLP.ligand.torsion>
1.3097

> <Gold.PLP.Chemscore.Hbond>
4.2440

> <Gold.PLP.Chemscore.CHOScore>
0.0000

> <Gold.PLP.Chemscore.Metal>
0.0000

> <Gold.Chemscore.Hbonds>
donor molecule, donor type, donor heavy atom, donor atom, acceptor molecule, acceptor atom, score
      L1  H     8    23       P1  7948  0.24
      L1  H    12    36       P1 10747  1.00
      P1  H  7989  7998       L1    18  1.00
      P1  H 10752 10764       L1     5  2.00

> <Gold.PLP.Chemscore.Internal.Correction>
1.2674

> <Gold.Rescore>
     Score         DG    S(hbond)    S(metal)    S(lipo)     H(rot)  DE(clash)    DE(int)     intcor
     16.96     -19.50       2.92        0.00      63.79       1.25       0.10       2.44       ----

> <Gold.Chemscore.Fitness>
16.9627

> <Gold.Chemscore.DG>
-19.4964

> <Gold.Chemscore.ZeroCoef>
-5.4800

> <Gold.Chemscore.Hbond>
2.9174

> <Gold.Chemscore.Metal>
0.0000

> <Gold.Chemscore.Lipo>
63.7859

> <Gold.Chemscore.Internal_Hbond>
0.0000

> <Gold.Chemscore.DEClash>
0.0955

> <Gold.Chemscore.DEInternal>
2.4382

> <Gold.Chemscore.Rot>
1.2464

> <Gold.Chemscore.Internal.Correction>
   9.000000E+99

> <Gold.Chemscore.Hbonds>
donor molecule, donor type, donor heavy atom, donor atom, acceptor molecule, acceptor atom, score
      L1  H    12    36       P1 10747  1.00
      P1  H  7989  7998       L1    18  0.75
      P1  H 10752 10764       L1     5  0.91

> <Gold.Chemscore.Hbond.Weighted>
-9.7443

> <Gold.Chemscore.Metal.Weighted>
-0.0000

> <Gold.Chemscore.Lipo.Weighted>
-7.4629

> <Gold.Chemscore.Internal_Hbond.Weighted>
0.0000

> <Gold.Chemscore.DEClash.Weighted>
0.0955

> <Gold.Chemscore.DEInternal.Weighted>
2.4382

> <Gold.Chemscore.Rot.Weighted>
3.1909

> <Gold.Chemscore.Internal.Correction.Weighted>
   9.000000E+99

> <Gold.Protein.RotatedTorsions>
[ 6907 6896 6895 6894 ] final   56.68 input  -60.11 | X-H torsion
[ 7974 7965 7964 7962 ] final  147.13 input  175.53 | X-H torsion
[ 8008 7997 7996 7995 ] final  146.12 input   59.86 | X-H torsion
[ 10167 10162 10161 10158 ] final  141.00 input  -65.29 | X-H torsion
[ 10718 10713 10712 10709 ] final   62.67 input   66.30 | X-H torsion
[ 10763 10752 10751 10750 ] final  -57.28 input  -60.55 | X-H torsion
[ 11005 11000 10999 10996 ] final  -14.65 input  -57.11 | X-H torsion

> <Gold.Protein.ActiveResidues>
 VAL166  LYS551  ARG553  GLY616  TRP617  ASP618  TYR619  PRO620  LYS621  CYS622 
 ASP623  PHE694  ASN695  SER759  ASP760  ASP761  ALA762  ILE779  LEU786  VAL792 
 PHE793  MET794  SER795  GLU796  ALA797  LYS798  CYS799  TRP800  GLU811  SER814 

> <Gold.Protein.RotatedAtoms>
  152.3659  134.6804  160.0191 H   0  0  0  0  0  0  0  0  0  0  0  0  # atno 6907 bound_to 6896
  151.7113  133.3307  159.3299 H   0  0  0  0  0  0  0  0  0  0  0  0  # atno 6908 bound_to 6896
  150.7638  134.6464  159.6309 H   0  0  0  0  0  0  0  0  0  0  0  0  # atno 6909 bound_to 6896
  144.8615  139.5991  143.5928 H   0  0  0  0  0  0  0  0  0  0  0  0  # atno 7974 bound_to 7965
  156.2864  140.2191  156.5325 H   0  0  0  0  0  0  0  0  0  0  0  0  # atno 8008 bound_to 7997
  154.7437  140.0486  157.0855 H   0  0  0  0  0  0  0  0  0  0  0  0  # atno 8009 bound_to 7997
  155.0198  140.3123  155.4801 H   0  0  0  0  0  0  0  0  0  0  0  0  # atno 8010 bound_to 7997
  139.5033  144.6199  151.6075 H   0  0  0  0  0  0  0  0  0  0  0  0  # atno 10167 bound_to 10162
  157.5917  130.9063  149.9617 H   0  0  0  0  0  0  0  0  0  0  0  0  # atno 10718 bound_to 10713
  154.2199  135.6379  153.5141 H   0  0  0  0  0  0  0  0  0  0  0  0  # atno 10763 bound_to 10752
  152.9971  135.5494  154.6125 H   0  0  0  0  0  0  0  0  0  0  0  0  # atno 10764 bound_to 10752
  154.5583  135.2907  155.0917 H   0  0  0  0  0  0  0  0  0  0  0  0  # atno 10765 bound_to 10752
  140.7886  133.8306  155.9358 H   0  0  0  0  0  0  0  0  0  0  0  0  # atno 11005 bound_to 11000
  146.2864  139.7017  142.9192 LP  0  0  0  0  0  0  0  0  0  0  0  0  # atno 17320 bound_to 7965
  145.4302  141.0414  143.2915 LP  0  0  0  0  0  0  0  0  0  0  0  0  # atno 17321 bound_to 7965
  140.5898  143.9799  150.6318 LP  0  0  0  0  0  0  0  0  0  0  0  0  # atno 17342 bound_to 10162
  140.2976  143.3282  152.1002 LP  0  0  0  0  0  0  0  0  0  0  0  0  # atno 17343 bound_to 10162
  156.0973  130.3658  150.0283 LP  0  0  0  0  0  0  0  0  0  0  0  0  # atno 17370 bound_to 10713
  156.8405  130.9424  151.3632 LP  0  0  0  0  0  0  0  0  0  0  0  0  # atno 17371 bound_to 10713
  140.9412  134.1899  157.4796 LP  0  0  0  0  0  0  0  0  0  0  0  0  # atno 17394 bound_to 11000
  139.8734  134.9872  156.5359 LP  0  0  0  0  0  0  0  0  0  0  0  0  # atno 17395 bound_to 11000

$$$$
