AV-unprocessed.smi:1766|AV-procd|sdf|7136|dock3
  -GOLD-   22720 8373D 1   1.00000     0.00000
 Structure written by MMmdl.
 39 41  0  0  0  0  0  0  0  0  1 V2000
  151.6270  138.3262  158.2943 N   0  0  0  0  0  0  0  0  0  0  0  0
  152.5783  137.9296  159.1439 C   0  0  0  0  0  0  0  0  0  0  0  0
  152.4753  136.8992  159.8060 O   0  0  0  0  0  0  0  0  0  0  0  0
  153.8246  138.8144  159.2631 C   0  0  0  0  0  0  0  0  0  0  0  0
  153.4049  140.1955  159.6948 C   0  0  0  0  0  0  0  0  0  0  0  0
  152.8679  141.0641  158.8339 N   0  0  0  0  0  0  0  0  0  0  0  0
  152.6286  142.1724  159.6206 C   0  0  0  0  0  0  0  0  0  0  0  0
  152.0539  143.4218  159.2952 C   0  0  0  0  0  0  0  0  0  0  0  0
  151.9050  144.4178  160.2823 C   0  0  0  0  0  0  0  0  0  0  0  0
  152.3295  144.1795  161.6054 C   0  0  0  0  0  0  0  0  0  0  0  0
  152.9079  142.9427  161.9489 C   0  0  0  0  0  0  0  0  0  0  0  0
  153.0521  141.9500  160.9604 C   0  0  0  0  0  0  0  0  0  0  0  0
  153.5606  140.6534  160.9659 N   0  0  0  0  0  0  0  0  0  0  0  0
  154.1283  139.9695  162.1221 C   0  0  0  0  0  0  0  0  0  0  0  0
  155.5319  139.3954  161.8444 C   0  0  1  0  0  0  0  0  0  0  0  0
  156.3515  140.4428  161.3676 O   0  0  0  0  0  0  0  0  0  0  0  0
  156.1259  138.7073  163.0662 C   0  0  0  0  0  0  0  0  0  0  0  0
  157.3916  138.0883  162.9787 C   0  0  0  0  0  0  0  0  0  0  0  0
  157.9346  137.4209  164.0934 C   0  0  0  0  0  0  0  0  0  0  0  0
  157.2160  137.3695  165.3030 C   0  0  0  0  0  0  0  0  0  0  0  0
  157.7374  136.7261  166.3742 F   0  0  0  0  0  0  0  0  0  0  0  0
  155.9537  137.9858  165.3974 C   0  0  0  0  0  0  0  0  0  0  0  0
  155.4093  138.6519  164.2823 C   0  0  0  0  0  0  0  0  0  0  0  0
  150.7860  137.7768  158.1919 H   0  0  0  0  0  0  0  0  0  0  0  0
  151.7463  139.1769  157.7636 H   0  0  0  0  0  0  0  0  0  0  0  0
  154.5188  138.3604  159.9675 H   0  0  0  0  0  0  0  0  0  0  0  0
  154.3422  138.8815  158.3051 H   0  0  0  0  0  0  0  0  0  0  0  0
  151.7244  143.6130  158.2847 H   0  0  0  0  0  0  0  0  0  0  0  0
  151.4628  145.3685  160.0234 H   0  0  0  0  0  0  0  0  0  0  0  0
  152.2100  144.9463  162.3566 H   0  0  0  0  0  0  0  0  0  0  0  0
  153.2301  142.7585  162.9628 H   0  0  0  0  0  0  0  0  0  0  0  0
  154.1508  140.6622  162.9633 H   0  0  0  0  0  0  0  0  0  0  0  0
  153.4498  139.1703  162.4226 H   0  0  0  0  0  0  0  0  0  0  0  0
  155.4698  138.6706  161.0342 H   0  0  0  0  0  0  0  0  0  0  0  0
  157.2059  140.0881  161.1743 H   0  0  0  0  0  0  0  0  0  0  0  0
  157.9460  138.1129  162.0520 H   0  0  0  0  0  0  0  0  0  0  0  0
  158.9015  136.9456  164.0188 H   0  0  0  0  0  0  0  0  0  0  0  0
  155.4007  137.9442  166.3242 H   0  0  0  0  0  0  0  0  0  0  0  0
  154.4351  139.1120  164.3610 H   0  0  0  0  0  0  0  0  0  0  0  0
  1  2  1  0  0  0  0
  1 24  1  0  0  0  0
  1 25  1  0  0  0  0
  2  3  2  0  0  0  0
  2  4  1  0  0  0  0
  4  5  1  0  0  0  0
  4 26  1  0  0  0  0
  4 27  1  0  0  0  0
  5 13  1  0  0  0  0
  5  6  2  0  0  0  0
  6  7  1  0  0  0  0
  7 12  2  0  0  0  0
  7  8  1  0  0  0  0
  8  9  2  0  0  0  0
  8 28  1  0  0  0  0
  9 10  1  0  0  0  0
  9 29  1  0  0  0  0
 10 11  2  0  0  0  0
 10 30  1  0  0  0  0
 11 12  1  0  0  0  0
 11 31  1  0  0  0  0
 12 13  1  0  0  0  0
 13 14  1  0  0  0  0
 14 15  1  0  0  0  0
 14 32  1  0  0  0  0
 14 33  1  0  0  0  0
 15 16  1  0  0  0  0
 15 17  1  0  0  0  0
 15 34  1  0  0  0  0
 16 35  1  0  0  0  0
 17 23  1  0  0  0  0
 17 18  2  0  0  0  0
 18 19  1  0  0  0  0
 18 36  1  0  0  0  0
 19 20  2  0  0  0  0
 19 37  1  0  0  0  0
 20 21  1  0  0  0  0
 20 22  1  0  0  0  0
 22 23  2  0  0  0  0
 22 38  1  0  0  0  0
 23 39  1  0  0  0  0
M  END
> <s_m_source_file>
AV-unprocessed.smi

> <i_m_source_file_index>
1766

> <i_lp_mmshare_version>
43012

> <i_f3d_flags>
0

> <s_epik_input>
W2NIXTFbY0hdW2NIXVtjSF1jKGMxMiluKGMobjIpW0NIMl1DKD1PKVtOSDJdKVtDSDJdW0NASF0oW09IXSljM1tjSF1bY0hdYyhGKVtjSF1bY0hdMw==

> <s_epik_cmdline>
J2VwaWtfcHl0aG9uJywgJy1waCcsICc3LjAnLCAnLXRuJywgJzgnLCAnLW1hJywgJzIwMCcsICctbWV0YWxfYmluZGluZycsICctaW1hZScsICc8aW5maWxlLm1hZT4nLCAnLW9tYWUnLCAnPG91dGZpbGUubWFlPic=

> <r_epik_Ionization_Penalty>
0.0366901

> <r_epik_Ionization_Penalty_Charging>
0

> <r_epik_Ionization_Penalty_Neutral>
0.0366901

> <r_epik_State_Penalty>
0.0306642

> <r_epik_Charging_Adjusted_Penalty>
0.0306642

> <i_epik_Tot_Q>
0

> <i_epik_Tot_abs_Q>
0

> <r_epik_Metal_State_Penalty>
0.028853

> <b_epik_Metal_Only>
0

> <s_lp_Force_Field>
OPLS_2005

> <r_lp_Energy>
12.7053

> <b_lp_Chiralities_Consistent>
1

> <s_lp_Variant>
AV-unprocessed.smi:1766-2

> <Gold.Version>
5.8.1

> <Gold.Id.Protein>
6NUR|6NUR_protein|mol2

> <Gold.PLP.Fitness>
42.2179

> <Gold.PLP.PLP>
-39.7555

> <Gold.PLP.part.hbond>
-2.1641

> <Gold.PLP.part.metal>
0.0000

> <Gold.PLP.part.buried>
-4.7602

> <Gold.PLP.part.nonpolar>
-33.2957

> <Gold.PLP.part.repulsive>
0.0750

> <Gold.PLP.ligand.clash>
0.0000

> <Gold.PLP.ligand.torsion>
0.2923

> <Gold.PLP.Chemscore.Hbond>
1.0000

> <Gold.PLP.Chemscore.CHOScore>
0.0000

> <Gold.PLP.Chemscore.Metal>
0.0000

> <Gold.Chemscore.Hbonds>
donor molecule, donor type, donor heavy atom, donor atom, acceptor molecule, acceptor atom, score
      P1  H  6896  6907       L1     3  1.00

> <Gold.PLP.Chemscore.Internal.Correction>
0.0471

> <Gold.Rescore>
     Score         DG    S(hbond)    S(metal)    S(lipo)     H(rot)  DE(clash)    DE(int)     intcor
     12.30     -12.77       1.00        0.00      99.11       2.99       0.07       0.39       ----

> <Gold.Chemscore.Fitness>
12.3050

> <Gold.Chemscore.DG>
-12.7692

> <Gold.Chemscore.ZeroCoef>
-5.4800

> <Gold.Chemscore.Hbond>
0.9994

> <Gold.Chemscore.Metal>
0.0000

> <Gold.Chemscore.Lipo>
99.1144

> <Gold.Chemscore.Internal_Hbond>
0.0000

> <Gold.Chemscore.DEClash>
0.0743

> <Gold.Chemscore.DEInternal>
0.3899

> <Gold.Chemscore.Rot>
2.9864

> <Gold.Chemscore.Internal.Correction>
   9.000000E+99

> <Gold.Chemscore.Hbonds>
donor molecule, donor type, donor heavy atom, donor atom, acceptor molecule, acceptor atom, score
      P1  H  6896  6907       L1     3  1.00

> <Gold.Chemscore.Hbond.Weighted>
-3.3379

> <Gold.Chemscore.Metal.Weighted>
-0.0000

> <Gold.Chemscore.Lipo.Weighted>
-11.5964

> <Gold.Chemscore.Internal_Hbond.Weighted>
0.0000

> <Gold.Chemscore.DEClash.Weighted>
0.0743

> <Gold.Chemscore.DEInternal.Weighted>
0.3899

> <Gold.Chemscore.Rot.Weighted>
7.6451

> <Gold.Chemscore.Internal.Correction.Weighted>
   9.000000E+99

> <Gold.Protein.RotatedTorsions>
[ 6907 6896 6895 6894 ] final   18.63 input  -60.11 | X-H torsion
[ 7974 7965 7964 7962 ] final  104.52 input  175.53 | X-H torsion
[ 8008 7997 7996 7995 ] final  -86.15 input   59.86 | X-H torsion
[ 10167 10162 10161 10158 ] final  -81.70 input  -65.29 | X-H torsion
[ 10718 10713 10712 10709 ] final -169.27 input   66.30 | X-H torsion
[ 10763 10752 10751 10750 ] final -128.87 input  -60.55 | X-H torsion
[ 11005 11000 10999 10996 ] final  104.45 input  -57.11 | X-H torsion

> <Gold.Protein.ActiveResidues>
 VAL166  LYS551  ARG553  GLY616  TRP617  ASP618  TYR619  PRO620  LYS621  CYS622 
 ASP623  PHE694  ASN695  SER759  ASP760  ASP761  ALA762  ILE779  LEU786  VAL792 
 PHE793  MET794  SER795  GLU796  ALA797  LYS798  CYS799  TRP800  GLU811  SER814 

> <Gold.Protein.RotatedAtoms>
  151.8683  135.0499  160.0476 H   0  0  0  0  0  0  0  0  0  0  0  0  # atno 6907 bound_to 6896
  152.2608  133.5291  159.5389 H   0  0  0  0  0  0  0  0  0  0  0  0  # atno 6908 bound_to 6896
  150.7116  134.0748  159.3919 H   0  0  0  0  0  0  0  0  0  0  0  0  # atno 6909 bound_to 6896
  145.3317  139.2485  143.3657 H   0  0  0  0  0  0  0  0  0  0  0  0  # atno 7974 bound_to 7965
  154.6486  140.0582  156.9930 H   0  0  0  0  0  0  0  0  0  0  0  0  # atno 8008 bound_to 7997
  155.1406  140.3265  155.4434 H   0  0  0  0  0  0  0  0  0  0  0  0  # atno 8009 bound_to 7997
  156.2565  140.1965  156.6521 H   0  0  0  0  0  0  0  0  0  0  0  0  # atno 8010 bound_to 7997
  140.4387  143.2522  151.8656 H   0  0  0  0  0  0  0  0  0  0  0  0  # atno 10167 bound_to 10162
  156.7091  130.9226  151.3087 H   0  0  0  0  0  0  0  0  0  0  0  0  # atno 10718 bound_to 10713
  154.8757  135.3914  154.3827 H   0  0  0  0  0  0  0  0  0  0  0  0  # atno 10763 bound_to 10752
  153.4572  135.7029  153.6077 H   0  0  0  0  0  0  0  0  0  0  0  0  # atno 10764 bound_to 10752
  153.4591  135.3816  155.2297 H   0  0  0  0  0  0  0  0  0  0  0  0  # atno 10765 bound_to 10752
  139.8792  134.9301  156.5363 H   0  0  0  0  0  0  0  0  0  0  0  0  # atno 11005 bound_to 11000
  146.3043  140.3896  142.8693 LP  0  0  0  0  0  0  0  0  0  0  0  0  # atno 17320 bound_to 7965
  144.8859  140.7461  143.5957 LP  0  0  0  0  0  0  0  0  0  0  0  0  # atno 17321 bound_to 7965
  139.4788  144.5253  151.8744 LP  0  0  0  0  0  0  0  0  0  0  0  0  # atno 17342 bound_to 10162
  140.4343  144.2073  150.5889 LP  0  0  0  0  0  0  0  0  0  0  0  0  # atno 17343 bound_to 10162
  157.6943  130.9266  150.0601 LP  0  0  0  0  0  0  0  0  0  0  0  0  # atno 17370 bound_to 10713
  156.1674  130.3645  149.9213 LP  0  0  0  0  0  0  0  0  0  0  0  0  # atno 17371 bound_to 10713
  140.8343  133.8254  155.9014 LP  0  0  0  0  0  0  0  0  0  0  0  0  # atno 17394 bound_to 11000
  140.9298  134.2036  157.4871 LP  0  0  0  0  0  0  0  0  0  0  0  0  # atno 17395 bound_to 11000

$$$$
