AV-unprocessed.smi:1707|AV-procd|sdf|6888|dock3
  -GOLD-   22720 8 93D 1   1.00000     0.00000
 Structure written by MMmdl.
 40 41  0  0  0  0  0  0  0  0  2 V2000
  155.1203  142.0719  162.6827 O   0  0  0  0  0  0  0  0  0  0  0  0
  155.3461  140.8936  162.4074 C   0  0  0  0  0  0  0  0  0  0  0  0
  154.9556  140.3221  161.2590 N   0  0  0  0  0  0  0  0  0  0  0  0
  154.2253  140.9990  160.1938 C   0  0  0  0  0  0  0  0  0  0  0  0
  152.9017  141.5928  160.7067 C   0  0  0  0  0  0  0  0  0  0  0  0
  152.3837  142.7212  159.8308 C   0  0  0  0  0  0  0  0  0  0  0  0
  152.1547  142.5548  158.5135 C   0  0  0  0  0  0  0  0  0  0  0  0
  151.6480  143.6491  157.5904 C   0  0  0  0  0  0  0  0  0  0  0  0
  151.7479  145.0454  158.2268 C   0  0  0  0  0  0  0  0  0  0  0  0
  151.2846  145.0221  159.6887 C   0  0  0  0  0  0  0  0  0  0  0  0
  152.1342  144.0531  160.5301 C   0  0  0  0  0  0  0  0  0  0  0  0
  155.9862  140.0047  163.1888 N   0  0  0  0  0  0  0  0  0  0  0  0
  156.5712  140.1783  164.4553 C   0  0  0  0  0  0  0  0  0  0  0  0
  156.6350  141.3583  165.1328 C   0  0  0  0  0  0  0  0  0  0  0  0
  157.2685  141.4748  166.4402 C   0  0  0  0  0  0  0  0  0  0  0  0
  157.2715  142.7503  167.2642 C   0  0  0  0  0  0  0  0  0  0  0  0
  158.0051  143.6979  166.6797 F   0  0  0  0  0  0  0  0  0  0  0  0
  156.0275  143.2090  167.3940 F   0  0  0  0  0  0  0  0  0  0  0  0
  157.7628  142.5304  168.4836 F   0  0  0  0  0  0  0  0  0  0  0  0
  157.7682  140.2681  166.8898 C   0  0  0  0  0  0  0  0  0  0  0  0
  157.7700  139.0657  166.2742 N   0  5  0  0  0  0  0  0  0  0  0  0
  157.1765  138.9687  165.0511 C   0  0  0  0  0  0  0  0  0  0  0  0
  157.1373  137.9014  164.4379 O   0  0  0  0  0  0  0  0  0  0  0  0
  155.1803  139.3490  161.1119 H   0  0  0  0  0  0  0  0  0  0  0  0
  154.8556  141.7711  159.7498 H   0  0  0  0  0  0  0  0  0  0  0  0
  154.0243  140.2714  159.4071 H   0  0  0  0  0  0  0  0  0  0  0  0
  152.1495  140.8047  160.7655 H   0  0  0  0  0  0  0  0  0  0  0  0
  153.0241  141.9745  161.7211 H   0  0  0  0  0  0  0  0  0  0  0  0
  152.3231  141.5908  158.0562 H   0  0  0  0  0  0  0  0  0  0  0  0
  152.2135  143.6252  156.6586 H   0  0  0  0  0  0  0  0  0  0  0  0
  150.6116  143.4227  157.3384 H   0  0  0  0  0  0  0  0  0  0  0  0
  152.7816  145.3915  158.1855 H   0  0  0  0  0  0  0  0  0  0  0  0
  151.1594  145.7609  157.6518 H   0  0  0  0  0  0  0  0  0  0  0  0
  151.3293  146.0237  160.1173 H   0  0  0  0  0  0  0  0  0  0  0  0
  150.2382  144.7166  159.7280 H   0  0  0  0  0  0  0  0  0  0  0  0
  151.6432  143.8770  161.4878 H   0  0  0  0  0  0  0  0  0  0  0  0
  153.0998  144.5095  160.7498 H   0  0  0  0  0  0  0  0  0  0  0  0
  156.0398  139.0596  162.8379 H   0  0  0  0  0  0  0  0  0  0  0  0
  156.2298  142.2633  164.7128 H   0  0  0  0  0  0  0  0  0  0  0  0
  158.2326  140.2679  167.8989 H   0  0  0  0  0  0  0  0  0  0  0  0
  1  2  2  0  0  0  0
  2  3  1  0  0  0  0
  2 12  1  0  0  0  0
  3  4  1  0  0  0  0
  3 24  1  0  0  0  0
  4  5  1  0  0  0  0
  4 25  1  0  0  0  0
  4 26  1  0  0  0  0
  5  6  1  0  0  0  0
  5 27  1  0  0  0  0
  5 28  1  0  0  0  0
  6 11  1  0  0  0  0
  6  7  2  0  0  0  0
  7  8  1  0  0  0  0
  7 29  1  0  0  0  0
  8  9  1  0  0  0  0
  8 30  1  0  0  0  0
  8 31  1  0  0  0  0
  9 10  1  0  0  0  0
  9 32  1  0  0  0  0
  9 33  1  0  0  0  0
 10 11  1  0  0  0  0
 10 34  1  0  0  0  0
 10 35  1  0  0  0  0
 11 36  1  0  0  0  0
 11 37  1  0  0  0  0
 12 13  1  0  0  0  0
 12 38  1  0  0  0  0
 13 22  1  0  0  0  0
 13 14  2  0  0  0  0
 14 15  1  0  0  0  0
 14 39  1  0  0  0  0
 15 16  1  0  0  0  0
 15 20  2  0  0  0  0
 16 17  1  0  0  0  0
 16 18  1  0  0  0  0
 16 19  1  0  0  0  0
 20 21  1  0  0  0  0
 20 40  1  0  0  0  0
 21 22  1  0  0  0  0
 22 23  2  0  0  0  0
M  CHG  1  21  -1
M  END
> <s_m_source_file>
AV-unprocessed.smi

> <i_m_source_file_index>
1707

> <i_lp_mmshare_version>
43012

> <i_f3d_flags>
0

> <s_epik_input>
Tz1jMVtuSF1bY0hdYyhDKEYpKEYpRilbY0hdYzFbTkhdQyg9TylbTkhdW0NIMl1bQ0gyXUMyPVtDSF1bQ0gyXVtDSDJdW0NIMl1bQ0gyXTI=

> <s_epik_cmdline>
J2VwaWtfcHl0aG9uJywgJy1waCcsICc3LjAnLCAnLXRuJywgJzgnLCAnLW1hJywgJzIwMCcsICctbWV0YWxfYmluZGluZycsICctaW1hZScsICc8aW5maWxlLm1hZT4nLCAnLW9tYWUnLCAnPG91dGZpbGUubWFlPic=

> <r_lp_tautomer_probability>
1

> <r_epik_Ionization_Penalty>
3.1649

> <r_epik_Ionization_Penalty_Charging>
0.171543

> <r_epik_Ionization_Penalty_Neutral>
2.99336

> <r_epik_State_Penalty>
2.98952

> <r_epik_Charging_Adjusted_Penalty>
3.16106

> <i_epik_Tot_Q>
-1

> <i_epik_Tot_abs_Q>
1

> <r_epik_Metal_State_Penalty>
0.452963

> <b_epik_Metal_Only>
1

> <s_lp_Force_Field>
OPLS_2005

> <r_lp_Energy>
21.1574

> <b_lp_Chiralities_Consistent>
1

> <s_lp_Variant>
AV-unprocessed.smi:1707-2

> <Gold.Version>
5.8.1

> <Gold.Id.Protein>
6NUR|6NUR_protein|mol2

> <Gold.PLP.Fitness>
45.5188

> <Gold.PLP.PLP>
-45.9126

> <Gold.PLP.part.hbond>
-1.6986

> <Gold.PLP.part.metal>
0.0000

> <Gold.PLP.part.buried>
-2.1381

> <Gold.PLP.part.nonpolar>
-40.3664

> <Gold.PLP.part.repulsive>
0.1158

> <Gold.PLP.ligand.clash>
0.0000

> <Gold.PLP.ligand.torsion>
0.2297

> <Gold.PLP.Chemscore.Hbond>
0.0000

> <Gold.PLP.Chemscore.CHOScore>
0.0000

> <Gold.PLP.Chemscore.Metal>
0.0000

> <Gold.PLP.Chemscore.Internal.Correction>
0.0656

> <Gold.Rescore>
     Score         DG    S(hbond)    S(metal)    S(lipo)     H(rot)  DE(clash)    DE(int)     intcor
     10.74     -13.91       0.00        0.00     105.99       1.55       1.90       1.27       ----

> <Gold.Chemscore.Fitness>
10.7402

> <Gold.Chemscore.DG>
-13.9067

> <Gold.Chemscore.ZeroCoef>
-5.4800

> <Gold.Chemscore.Hbond>
0.0000

> <Gold.Chemscore.Metal>
0.0000

> <Gold.Chemscore.Lipo>
105.9892

> <Gold.Chemscore.Internal_Hbond>
0.0000

> <Gold.Chemscore.DEClash>
1.8993

> <Gold.Chemscore.DEInternal>
1.2672

> <Gold.Chemscore.Rot>
1.5523

> <Gold.Chemscore.Internal.Correction>
   9.000000E+99

> <Gold.Chemscore.Hbond.Weighted>
-0.0000

> <Gold.Chemscore.Metal.Weighted>
-0.0000

> <Gold.Chemscore.Lipo.Weighted>
-12.4007

> <Gold.Chemscore.Internal_Hbond.Weighted>
0.0000

> <Gold.Chemscore.DEClash.Weighted>
1.8993

> <Gold.Chemscore.DEInternal.Weighted>
1.2672

> <Gold.Chemscore.Rot.Weighted>
3.9740

> <Gold.Chemscore.Internal.Correction.Weighted>
   9.000000E+99

> <Gold.Protein.RotatedTorsions>
[ 6907 6896 6895 6894 ] final  -31.74 input  -60.11 | X-H torsion
[ 7974 7965 7964 7962 ] final  -85.38 input  175.53 | X-H torsion
[ 8008 7997 7996 7995 ] final   68.47 input   59.86 | X-H torsion
[ 10167 10162 10161 10158 ] final  130.16 input  -65.29 | X-H torsion
[ 10718 10713 10712 10709 ] final -117.56 input   66.30 | X-H torsion
[ 10763 10752 10751 10750 ] final  -70.41 input  -60.55 | X-H torsion
[ 11005 11000 10999 10996 ] final -146.88 input  -57.11 | X-H torsion

> <Gold.Protein.ActiveResidues>
 VAL166  LYS551  ARG553  GLY616  TRP617  ASP618  TYR619  PRO620  LYS621  CYS622 
 ASP623  PHE694  ASN695  SER759  ASP760  ASP761  ALA762  ILE779  LEU786  VAL792 
 PHE793  MET794  SER795  GLU796  ALA797  LYS798  CYS799  TRP800  GLU811  SER814 

> <Gold.Protein.RotatedAtoms>
  151.0881  134.9899  159.8388 H   0  0  0  0  0  0  0  0  0  0  0  0  # atno 6907 bound_to 6896
  152.5426  134.2099  159.8756 H   0  0  0  0  0  0  0  0  0  0  0  0  # atno 6908 bound_to 6896
  151.2134  133.4499  159.2632 H   0  0  0  0  0  0  0  0  0  0  0  0  # atno 6909 bound_to 6896
  145.4940  140.9551  143.1796 H   0  0  0  0  0  0  0  0  0  0  0  0  # atno 7974 bound_to 7965
  155.7087  140.3494  155.4964 H   0  0  0  0  0  0  0  0  0  0  0  0  # atno 8008 bound_to 7997
  155.9375  140.1095  157.1105 H   0  0  0  0  0  0  0  0  0  0  0  0  # atno 8009 bound_to 7997
  154.4096  140.1219  156.4870 H   0  0  0  0  0  0  0  0  0  0  0  0  # atno 8010 bound_to 7997
  139.5443  144.6759  151.4523 H   0  0  0  0  0  0  0  0  0  0  0  0  # atno 10167 bound_to 10162
  156.1042  130.6197  150.9179 H   0  0  0  0  0  0  0  0  0  0  0  0  # atno 10718 bound_to 10713
  154.4173  135.5995  153.5988 H   0  0  0  0  0  0  0  0  0  0  0  0  # atno 10763 bound_to 10752
  152.9792  135.5944  154.3998 H   0  0  0  0  0  0  0  0  0  0  0  0  # atno 10764 bound_to 10752
  154.3818  135.2841  155.2185 H   0  0  0  0  0  0  0  0  0  0  0  0  # atno 10765 bound_to 10752
  140.7774  134.3118  157.5056 H   0  0  0  0  0  0  0  0  0  0  0  0  # atno 11005 bound_to 11000
  144.7818  139.6511  143.7151 LP  0  0  0  0  0  0  0  0  0  0  0  0  # atno 17320 bound_to 7965
  146.2267  139.5735  142.9582 LP  0  0  0  0  0  0  0  0  0  0  0  0  # atno 17321 bound_to 7965
  140.6685  143.8345  150.6971 LP  0  0  0  0  0  0  0  0  0  0  0  0  # atno 17342 bound_to 10162
  140.1762  143.4153  152.1966 LP  0  0  0  0  0  0  0  0  0  0  0  0  # atno 17343 bound_to 10162
  157.6217  131.0929  150.8610 LP  0  0  0  0  0  0  0  0  0  0  0  0  # atno 17370 bound_to 10713
  156.8732  130.5153  149.5295 LP  0  0  0  0  0  0  0  0  0  0  0  0  # atno 17371 bound_to 10713
  139.8747  134.9298  156.3485 LP  0  0  0  0  0  0  0  0  0  0  0  0  # atno 17394 bound_to 11000
  140.9515  133.7448  156.0279 LP  0  0  0  0  0  0  0  0  0  0  0  0  # atno 17395 bound_to 11000

$$$$
