AV-unprocessed.smi:1518|AV-procd|sdf|6125|dock1
  -GOLD-   22720 6263D 1   1.00000     0.00000
 Structure written by MMmdl.
 45 47  0  0  0  0  0  0  0  0  1 V2000
  142.5891  146.2598  154.4071 C   0  0  0  0  0  0  0  0  0  0  0  0
  143.8297  145.6834  153.7263 C   0  0  0  0  0  0  0  0  0  0  0  0
  144.2272  146.2069  152.6858 O   0  0  0  0  0  0  0  0  0  0  0  0
  144.4966  144.5117  154.3645 C   0  0  0  0  0  0  0  0  0  0  0  0
  143.9671  143.9873  155.5652 C   0  0  0  0  0  0  0  0  0  0  0  0
  144.5731  142.8822  156.1891 C   0  0  0  0  0  0  0  0  0  0  0  0
  145.7150  142.2913  155.6203 C   0  0  0  0  0  0  0  0  0  0  0  0
  146.2660  142.7948  154.4257 C   0  0  0  0  0  0  0  0  0  0  0  0
  147.3882  142.1561  153.9423 O   0  0  0  0  0  0  0  0  0  0  0  0
  147.6723  140.8410  154.4022 C   0  0  0  0  0  0  0  0  0  0  0  0
  148.5962  140.9307  155.6275 C   0  0  1  0  0  0  0  0  0  0  0  0
  148.6704  139.6539  156.2306 O   0  0  0  0  0  0  0  0  0  0  0  0
  150.0175  141.3909  155.2420 C   0  0  0  0  0  0  0  0  0  0  0  0
  151.0253  141.0221  156.2298 N   0  0  0  0  0  0  0  0  0  0  0  0
  151.8442  139.9383  156.2365 C   0  0  0  0  0  0  0  0  0  0  0  0
  151.8168  138.8960  155.1597 C   0  0  0  0  0  0  0  0  0  0  0  0
  152.6496  137.7925  155.4403 O   0  0  0  0  0  0  0  0  0  0  0  0
  152.6799  139.8496  157.2719 N   0  0  0  0  0  0  0  0  0  0  0  0
  152.3711  140.9742  158.0108 C   0  0  0  0  0  0  0  0  0  0  0  0
  152.9089  141.4481  159.2288 C   0  0  0  0  0  0  0  0  0  0  0  0
  152.4254  142.6401  159.8066 C   0  0  0  0  0  0  0  0  0  0  0  0
  151.4001  143.3740  159.1759 C   0  0  0  0  0  0  0  0  0  0  0  0
  150.8510  142.9194  157.9614 C   0  0  0  0  0  0  0  0  0  0  0  0
  151.3371  141.7288  157.3884 C   0  0  0  0  0  0  0  0  0  0  0  0
  145.6480  143.9087  153.8012 C   0  0  0  0  0  0  0  0  0  0  0  0
  142.8291  146.5971  155.4155 H   0  0  0  0  0  0  0  0  0  0  0  0
  141.8003  145.5096  154.4645 H   0  0  0  0  0  0  0  0  0  0  0  0
  142.2075  147.1125  153.8451 H   0  0  0  0  0  0  0  0  0  0  0  0
  143.0904  144.4256  156.0205 H   0  0  0  0  0  0  0  0  0  0  0  0
  144.1608  142.4870  157.1060 H   0  0  0  0  0  0  0  0  0  0  0  0
  146.1737  141.4426  156.1065 H   0  0  0  0  0  0  0  0  0  0  0  0
  146.7608  140.2902  154.6412 H   0  0  0  0  0  0  0  0  0  0  0  0
  148.1877  140.3045  153.6037 H   0  0  0  0  0  0  0  0  0  0  0  0
  148.1728  141.6314  156.3464 H   0  0  0  0  0  0  0  0  0  0  0  0
  149.1086  139.0668  155.6334 H   0  0  0  0  0  0  0  0  0  0  0  0
  150.3025  140.9616  154.2806 H   0  0  0  0  0  0  0  0  0  0  0  0
  150.0396  142.4707  155.1000 H   0  0  0  0  0  0  0  0  0  0  0  0
  150.7955  138.5323  155.0401 H   0  0  0  0  0  0  0  0  0  0  0  0
  152.0990  139.3371  154.2043 H   0  0  0  0  0  0  0  0  0  0  0  0
  153.4090  137.8401  154.8801 H   0  0  0  0  0  0  0  0  0  0  0  0
  153.6944  140.8926  159.7194 H   0  0  0  0  0  0  0  0  0  0  0  0
  152.8433  142.9927  160.7382 H   0  0  0  0  0  0  0  0  0  0  0  0
  151.0356  144.2862  159.6246 H   0  0  0  0  0  0  0  0  0  0  0  0
  150.0668  143.4805  157.4750 H   0  0  0  0  0  0  0  0  0  0  0  0
  146.0574  144.3045  152.8855 H   0  0  0  0  0  0  0  0  0  0  0  0
  1  2  1  0  0  0  0
  1 26  1  0  0  0  0
  1 27  1  0  0  0  0
  1 28  1  0  0  0  0
  2  3  2  0  0  0  0
  2  4  1  0  0  0  0
  4 25  1  0  0  0  0
  4  5  2  0  0  0  0
  5  6  1  0  0  0  0
  5 29  1  0  0  0  0
  6  7  2  0  0  0  0
  6 30  1  0  0  0  0
  7  8  1  0  0  0  0
  7 31  1  0  0  0  0
  8  9  1  0  0  0  0
  8 25  2  0  0  0  0
  9 10  1  0  0  0  0
 10 11  1  0  0  0  0
 10 32  1  0  0  0  0
 10 33  1  0  0  0  0
 11 12  1  0  0  0  0
 11 13  1  0  0  0  0
 11 34  1  0  0  0  0
 12 35  1  0  0  0  0
 13 14  1  0  0  0  0
 13 36  1  0  0  0  0
 13 37  1  0  0  0  0
 14 24  1  0  0  0  0
 14 15  1  0  0  0  0
 15 16  1  0  0  0  0
 15 18  2  0  0  0  0
 16 17  1  0  0  0  0
 16 38  1  0  0  0  0
 16 39  1  0  0  0  0
 17 40  1  0  0  0  0
 18 19  1  0  0  0  0
 19 24  2  0  0  0  0
 19 20  1  0  0  0  0
 20 21  2  0  0  0  0
 20 41  1  0  0  0  0
 21 22  1  0  0  0  0
 21 42  1  0  0  0  0
 22 23  2  0  0  0  0
 22 43  1  0  0  0  0
 23 24  1  0  0  0  0
 23 44  1  0  0  0  0
 25 45  1  0  0  0  0
M  END
> <s_m_source_file>
AV-unprocessed.smi

> <i_m_source_file_index>
1518

> <i_lp_mmshare_version>
43012

> <i_f3d_flags>
0

> <s_epik_input>
W0NIM11DKD1PKWMxW2NIXVtjSF1bY0hdYyhbY0hdMSlPW0NIMl1bQ0BIXShbT0hdKVtDSDJdbihjKG4yKVtDSDJdW09IXSljKGMyMylbY0hdW2NIXVtjSF1bY0hdMw==

> <s_epik_cmdline>
J2VwaWtfcHl0aG9uJywgJy1waCcsICc3LjAnLCAnLXRuJywgJzgnLCAnLW1hJywgJzIwMCcsICctbWV0YWxfYmluZGluZycsICctaW1hZScsICc8aW5maWxlLm1hZT4nLCAnLW9tYWUnLCAnPG91dGZpbGUubWFlPic=

> <r_lp_tautomer_probability>
0.99995

> <r_epik_Ionization_Penalty>
0.0583159

> <r_epik_Ionization_Penalty_Charging>
0

> <r_epik_Ionization_Penalty_Neutral>
0.0583159

> <r_epik_State_Penalty>
0.0503525

> <r_epik_Charging_Adjusted_Penalty>
0.0503525

> <i_epik_Tot_Q>
0

> <i_epik_Tot_abs_Q>
0

> <r_epik_Metal_State_Penalty>
5.25517e-05

> <b_epik_Metal_Only>
0

> <s_lp_Force_Field>
OPLS_2005

> <r_lp_Energy>
23.8716

> <b_lp_Chiralities_Consistent>
1

> <s_lp_Variant>
AV-unprocessed.smi:1518-2

> <Gold.Version>
5.8.1

> <Gold.Id.Protein>
6NUR|6NUR_protein|mol2

> <Gold.PLP.Fitness>
51.0800

> <Gold.PLP.PLP>
-50.7203

> <Gold.PLP.part.hbond>
-3.9396

> <Gold.PLP.part.metal>
0.0000

> <Gold.PLP.part.buried>
-7.0753

> <Gold.PLP.part.nonpolar>
-39.7187

> <Gold.PLP.part.repulsive>
0.2927

> <Gold.PLP.ligand.clash>
0.9564

> <Gold.PLP.ligand.torsion>
1.1167

> <Gold.PLP.Chemscore.Hbond>
1.0000

> <Gold.PLP.Chemscore.CHOScore>
0.0000

> <Gold.PLP.Chemscore.Metal>
0.0000

> <Gold.Chemscore.Hbonds>
donor molecule, donor type, donor heavy atom, donor atom, acceptor molecule, acceptor atom, score
      P1  H  7997  8009       L1    18  1.00

> <Gold.PLP.Chemscore.Internal.Correction>
0.5495

> <Gold.Rescore>
     Score         DG    S(hbond)    S(metal)    S(lipo)     H(rot)  DE(clash)    DE(int)     intcor
      9.70     -13.02       0.78        0.00     113.15       3.25       2.14       1.17       ----

> <Gold.Chemscore.Fitness>
9.7023

> <Gold.Chemscore.DG>
-13.0164

> <Gold.Chemscore.ZeroCoef>
-5.4800

> <Gold.Chemscore.Hbond>
0.7825

> <Gold.Chemscore.Metal>
0.0000

> <Gold.Chemscore.Lipo>
113.1491

> <Gold.Chemscore.Internal_Hbond>
0.0000

> <Gold.Chemscore.DEClash>
2.1436

> <Gold.Chemscore.DEInternal>
1.1705

> <Gold.Chemscore.Rot>
3.2482

> <Gold.Chemscore.Internal.Correction>
   9.000000E+99

> <Gold.Chemscore.Hbonds>
donor molecule, donor type, donor heavy atom, donor atom, acceptor molecule, acceptor atom, score
      P1  H  7997  8009       L1    18  0.25

> <Gold.Chemscore.Hbond.Weighted>
-2.6134

> <Gold.Chemscore.Metal.Weighted>
-0.0000

> <Gold.Chemscore.Lipo.Weighted>
-13.2384

> <Gold.Chemscore.Internal_Hbond.Weighted>
0.0000

> <Gold.Chemscore.DEClash.Weighted>
2.1436

> <Gold.Chemscore.DEInternal.Weighted>
1.1705

> <Gold.Chemscore.Rot.Weighted>
8.3155

> <Gold.Chemscore.Internal.Correction.Weighted>
   9.000000E+99

> <Gold.Protein.RotatedTorsions>
[ 6907 6896 6895 6894 ] final  124.24 input  -60.11 | X-H torsion
[ 7974 7965 7964 7962 ] final   10.93 input  175.53 | X-H torsion
[ 8008 7997 7996 7995 ] final -170.33 input   59.86 | X-H torsion
[ 10167 10162 10161 10158 ] final   52.86 input  -65.29 | X-H torsion
[ 10718 10713 10712 10709 ] final   12.64 input   66.30 | X-H torsion
[ 10763 10752 10751 10750 ] final  -56.87 input  -60.55 | X-H torsion
[ 11005 11000 10999 10996 ] final -115.45 input  -57.11 | X-H torsion

> <Gold.Protein.ActiveResidues>
 VAL166  LYS551  ARG553  GLY616  TRP617  ASP618  TYR619  PRO620  LYS621  CYS622 
 ASP623  PHE694  ASN695  SER759  ASP760  ASP761  ALA762  ILE779  LEU786  VAL792 
 PHE793  MET794  SER795  GLU796  ALA797  LYS798  CYS799  TRP800  GLU811  SER814 

> <Gold.Protein.RotatedAtoms>
  152.4095  133.6940  159.6384 H   0  0  0  0  0  0  0  0  0  0  0  0  # atno 6907 bound_to 6896
  150.7976  133.8650  159.3251 H   0  0  0  0  0  0  0  0  0  0  0  0  # atno 6908 bound_to 6896
  151.6396  135.1016  160.0190 H   0  0  0  0  0  0  0  0  0  0  0  0  # atno 6909 bound_to 6896
  146.2380  139.9560  142.8464 H   0  0  0  0  0  0  0  0  0  0  0  0  # atno 7974 bound_to 7965
  155.9169  140.1067  157.1237 H   0  0  0  0  0  0  0  0  0  0  0  0  # atno 8008 bound_to 7997
  154.4048  140.1263  156.4694 H   0  0  0  0  0  0  0  0  0  0  0  0  # atno 8009 bound_to 7997
  155.7243  140.3469  155.5032 H   0  0  0  0  0  0  0  0  0  0  0  0  # atno 8010 bound_to 7997
  140.2469  144.3522  150.6361 H   0  0  0  0  0  0  0  0  0  0  0  0  # atno 10167 bound_to 10162
  157.0131  130.6125  149.5710 H   0  0  0  0  0  0  0  0  0  0  0  0  # atno 10718 bound_to 10713
  154.2135  135.6390  153.5122 H   0  0  0  0  0  0  0  0  0  0  0  0  # atno 10763 bound_to 10752
  152.9984  135.5480  154.6189 H   0  0  0  0  0  0  0  0  0  0  0  0  # atno 10764 bound_to 10752
  154.5632  135.2910  155.0873 H   0  0  0  0  0  0  0  0  0  0  0  0  # atno 10765 bound_to 10752
  141.0487  133.9722  157.2874 H   0  0  0  0  0  0  0  0  0  0  0  0  # atno 11005 bound_to 11000
  145.1816  140.9769  143.4263 LP  0  0  0  0  0  0  0  0  0  0  0  0  # atno 17320 bound_to 7965
  144.9937  139.3664  143.6202 LP  0  0  0  0  0  0  0  0  0  0  0  0  # atno 17321 bound_to 7965
  140.6070  143.2168  151.6960 LP  0  0  0  0  0  0  0  0  0  0  0  0  # atno 17342 bound_to 10162
  139.5059  144.3702  152.0477 LP  0  0  0  0  0  0  0  0  0  0  0  0  # atno 17343 bound_to 10162
  156.0129  130.5222  150.8045 LP  0  0  0  0  0  0  0  0  0  0  0  0  # atno 17370 bound_to 10713
  157.5306  131.0936  150.9960 LP  0  0  0  0  0  0  0  0  0  0  0  0  # atno 17371 bound_to 10713
  139.9332  135.0198  156.8470 LP  0  0  0  0  0  0  0  0  0  0  0  0  # atno 17394 bound_to 11000
  140.6098  134.0093  155.7572 LP  0  0  0  0  0  0  0  0  0  0  0  0  # atno 17395 bound_to 11000

$$$$
