AV-unprocessed.smi:34|AV-procd|sdf|225|dock7
  -GOLD-   2262015543D 1   1.00000     0.00000
 Structure written by MMmdl.
 55 59  0  0  0  0  0  0  0  0  1 V2000
  153.0980  139.8955  158.4730 O   0  0  0  0  0  0  0  0  0  0  0  0
  152.3103  140.7415  158.0486 C   0  0  0  0  0  0  0  0  0  0  0  0
  151.5430  140.5418  156.8315 N   0  0  0  0  0  0  0  0  0  0  0  0
  151.4957  139.4424  156.0429 C   0  0  0  0  0  0  0  0  0  0  0  0
  152.1758  139.3569  154.8695 N   0  0  0  0  0  0  0  0  0  0  0  0
  152.0975  138.2498  154.1259 C   0  0  0  0  0  0  0  0  0  0  0  0
  151.4102  137.1319  154.3663 N   0  0  0  0  0  0  0  0  0  0  0  0
  150.7232  137.2082  155.5425 C   0  0  0  0  0  0  0  0  0  0  0  0
  150.7154  138.3213  156.4290 C   0  0  0  0  0  0  0  0  0  0  0  0
  149.9089  138.0437  157.5251 N   0  0  0  0  0  0  0  0  0  0  0  0
  149.4704  136.8350  157.2969 C   0  0  0  0  0  0  0  0  0  0  0  0
  149.9083  136.2576  156.1254 N   0  0  0  0  0  0  0  0  0  0  0  0
  149.5803  134.8917  155.6021 C   0  0  2  0  0  0  0  0  0  0  0  0
  148.1903  134.7732  155.5628 O   0  0  0  0  0  0  0  0  0  0  0  0
  147.7904  133.5417  156.1502 C   0  0  2  0  0  0  0  0  0  0  0  0
  146.3829  133.6781  156.7427 C   0  0  0  0  0  0  0  0  0  0  0  0
  146.4746  133.9235  158.1364 O   0  0  0  0  0  0  0  0  0  0  0  0
  146.7143  135.1703  158.5869 C   0  0  0  0  0  0  0  0  0  0  0  0
  146.8182  136.1534  157.8506 O   0  0  0  0  0  0  0  0  0  0  0  0
  146.8405  135.2365  160.0715 C   0  0  0  0  0  0  0  0  0  0  0  0
  146.5509  134.0872  160.8437 C   0  0  0  0  0  0  0  0  0  0  0  0
  146.6600  134.1199  162.2474 C   0  0  0  0  0  0  0  0  0  0  0  0
  147.0595  135.3025  162.8965 C   0  0  0  0  0  0  0  0  0  0  0  0
  147.3494  136.4529  162.1399 C   0  0  0  0  0  0  0  0  0  0  0  0
  147.2412  136.4222  160.7359 C   0  0  0  0  0  0  0  0  0  0  0  0
  148.8788  133.2425  157.1795 C   0  0  1  0  0  0  0  0  0  0  0  0
  148.9667  131.9367  157.4362 F   0  0  0  0  0  0  0  0  0  0  0  0
  150.1320  133.7587  156.4957 C   0  0  2  0  0  0  0  0  0  0  0  0
  151.1035  134.1623  157.4442 O   0  0  0  0  0  0  0  0  0  0  0  0
  152.1495  142.0757  158.7180 C   0  0  0  0  0  0  0  0  0  0  0  0
  151.6021  143.1641  158.0020 C   0  0  0  0  0  0  0  0  0  0  0  0
  151.4631  144.4240  158.6163 C   0  0  0  0  0  0  0  0  0  0  0  0
  151.8757  144.6081  159.9493 C   0  0  0  0  0  0  0  0  0  0  0  0
  152.4327  143.5327  160.6664 C   0  0  0  0  0  0  0  0  0  0  0  0
  152.5737  142.2726  160.0530 C   0  0  0  0  0  0  0  0  0  0  0  0
  150.9549  141.3124  156.5499 H   0  0  0  0  0  0  0  0  0  0  0  0
  152.6672  138.2609  153.2085 H   0  0  0  0  0  0  0  0  0  0  0  0
  148.8079  136.3277  157.9831 H   0  0  0  0  0  0  0  0  0  0  0  0
  149.9971  134.8783  154.5943 H   0  0  0  0  0  0  0  0  0  0  0  0
  147.8019  132.7846  155.3640 H   0  0  0  0  0  0  0  0  0  0  0  0
  145.8408  134.4861  156.2494 H   0  0  0  0  0  0  0  0  0  0  0  0
  145.8202  132.7585  156.5776 H   0  0  0  0  0  0  0  0  0  0  0  0
  146.2421  133.1675  160.3677 H   0  0  0  0  0  0  0  0  0  0  0  0
  146.4363  133.2358  162.8263 H   0  0  0  0  0  0  0  0  0  0  0  0
  147.1432  135.3272  163.9730 H   0  0  0  0  0  0  0  0  0  0  0  0
  147.6550  137.3618  162.6369 H   0  0  0  0  0  0  0  0  0  0  0  0
  147.4698  137.3233  160.1858 H   0  0  0  0  0  0  0  0  0  0  0  0
  148.6883  133.7643  158.1181 H   0  0  0  0  0  0  0  0  0  0  0  0
  150.5473  132.9910  155.8413 H   0  0  0  0  0  0  0  0  0  0  0  0
  151.7519  134.6905  157.0047 H   0  0  0  0  0  0  0  0  0  0  0  0
  151.2814  143.0399  156.9776 H   0  0  0  0  0  0  0  0  0  0  0  0
  151.0406  145.2499  158.0633 H   0  0  0  0  0  0  0  0  0  0  0  0
  151.7688  145.5744  160.4197 H   0  0  0  0  0  0  0  0  0  0  0  0
  152.7550  143.6747  161.6876 H   0  0  0  0  0  0  0  0  0  0  0  0
  153.0136  141.4643  160.6186 H   0  0  0  0  0  0  0  0  0  0  0  0
  1  2  2  0  0  0  0
  2  3  1  0  0  0  0
  2 30  1  0  0  0  0
  3  4  1  0  0  0  0
  3 36  1  0  0  0  0
  4  9  1  0  0  0  0
  4  5  2  0  0  0  0
  5  6  1  0  0  0  0
  6  7  2  0  0  0  0
  6 37  1  0  0  0  0
  7  8  1  0  0  0  0
  8 12  1  0  0  0  0
  8  9  2  0  0  0  0
  9 10  1  0  0  0  0
 10 11  2  0  0  0  0
 11 12  1  0  0  0  0
 11 38  1  0  0  0  0
 12 13  1  0  0  0  0
 13 28  1  0  0  0  0
 13 14  1  0  0  0  0
 13 39  1  0  0  0  0
 14 15  1  0  0  0  0
 15 16  1  0  0  0  0
 15 26  1  0  0  0  0
 15 40  1  0  0  0  0
 16 17  1  0  0  0  0
 16 41  1  0  0  0  0
 16 42  1  0  0  0  0
 17 18  1  0  0  0  0
 18 19  2  0  0  0  0
 18 20  1  0  0  0  0
 20 25  1  0  0  0  0
 20 21  2  0  0  0  0
 21 22  1  0  0  0  0
 21 43  1  0  0  0  0
 22 23  2  0  0  0  0
 22 44  1  0  0  0  0
 23 24  1  0  0  0  0
 23 45  1  0  0  0  0
 24 25  2  0  0  0  0
 24 46  1  0  0  0  0
 25 47  1  0  0  0  0
 26 27  1  0  0  0  0
 26 28  1  0  0  0  0
 26 48  1  0  0  0  0
 28 29  1  0  0  0  0
 28 49  1  0  0  0  0
 29 50  1  0  0  0  0
 30 35  1  0  0  0  0
 30 31  2  0  0  0  0
 31 32  1  0  0  0  0
 31 51  1  0  0  0  0
 32 33  2  0  0  0  0
 32 52  1  0  0  0  0
 33 34  1  0  0  0  0
 33 53  1  0  0  0  0
 34 35  2  0  0  0  0
 34 54  1  0  0  0  0
 35 55  1  0  0  0  0
M  END
> <s_m_source_file>
AV-unprocessed.smi

> <i_m_source_file_index>
34

> <i_lp_mmshare_version>
43012

> <i_f3d_flags>
0

> <s_epik_input>
W2NIXTFbY0hdW2NIXVtjSF1bY0hdYzFDKD1PKVtOSF1jKG5bY0hdbjIpYyhjMjMpbltjSF1uM1tDQEBIXTRPW0NASF0oW0NAQEhdKEYpW0NASF00W09IXSlbQ0gyXU9DKD1PKWM1W2NIXVtjSF1bY0hdW2NIXVtjSF01

> <s_epik_cmdline>
J2VwaWtfcHl0aG9uJywgJy1waCcsICc3LjAnLCAnLXRuJywgJzgnLCAnLW1hJywgJzIwMCcsICctbWV0YWxfYmluZGluZycsICctaW1hZScsICc8aW5maWxlLm1hZT4nLCAnLW9tYWUnLCAnPG91dGZpbGUubWFlPic=

> <r_lp_tautomer_probability>
1

> <r_epik_Ionization_Penalty>
0.00257489

> <r_epik_Ionization_Penalty_Charging>
0

> <r_epik_Ionization_Penalty_Neutral>
0.00257489

> <r_epik_State_Penalty>
0.00519398

> <r_epik_Charging_Adjusted_Penalty>
0.00519398

> <i_epik_Tot_Q>
0

> <i_epik_Tot_abs_Q>
0

> <r_epik_Metal_State_Penalty>
0.335891

> <b_epik_Metal_Only>
0

> <s_epik_Chemistry_Notes>
This compound has an ester and may undergo hydrolysis at high or low pH. This compound contains an acetal/aminal-like group ( X-CH(R)-Y where X, Y are N, S, or O) that may be acid/base labile, releasing an aldehyde.

> <s_lp_Force_Field>
OPLS_2005

> <r_lp_Energy>
52.3036

> <b_lp_Chiralities_Consistent>
1

> <s_lp_Variant>
AV-unprocessed.smi:34-11

> <Gold.Version>
5.8.1

> <Gold.Id.Protein>
6NUR|6NUR_protein|mol2

> <Gold.PLP.Fitness>
61.3470

> <Gold.PLP.PLP>
-55.5637

> <Gold.PLP.part.hbond>
-3.8973

> <Gold.PLP.part.metal>
0.0000

> <Gold.PLP.part.buried>
-9.1769

> <Gold.PLP.part.nonpolar>
-43.3716

> <Gold.PLP.part.repulsive>
0.5377

> <Gold.PLP.ligand.clash>
0.0000

> <Gold.PLP.ligand.torsion>
1.6255

> <Gold.PLP.Chemscore.Hbond>
2.9854

> <Gold.PLP.Chemscore.CHOScore>
0.0000

> <Gold.PLP.Chemscore.Metal>
0.0000

> <Gold.Chemscore.Hbonds>
donor molecule, donor type, donor heavy atom, donor atom, acceptor molecule, acceptor atom, score
      P1  H  6896  6907       L1    29  0.37
      P1  H  7989  7998       L1     5  0.72
      P1  H  7997  8010       L1     1  0.88
      P1  H 10752 10764       L1     7  0.73

> <Gold.PLP.Chemscore.Internal.Correction>
0.0779

> <Gold.Rescore>
     Score         DG    S(hbond)    S(metal)    S(lipo)     H(rot)  DE(clash)    DE(int)     intcor
     17.14     -19.43       1.89        0.00     124.87       2.72       0.46       1.83       ----

> <Gold.Chemscore.Fitness>
17.1412

> <Gold.Chemscore.DG>
-19.4264

> <Gold.Chemscore.ZeroCoef>
-5.4800

> <Gold.Chemscore.Hbond>
1.8874

> <Gold.Chemscore.Metal>
0.0000

> <Gold.Chemscore.Lipo>
124.8687

> <Gold.Chemscore.Internal_Hbond>
0.0000

> <Gold.Chemscore.DEClash>
0.4595

> <Gold.Chemscore.DEInternal>
1.8257

> <Gold.Chemscore.Rot>
2.7215

> <Gold.Chemscore.Internal.Correction>
   9.000000E+99

> <Gold.Chemscore.Hbonds>
donor molecule, donor type, donor heavy atom, donor atom, acceptor molecule, acceptor atom, score
      P1  H  6896  6907       L1    29  0.36
      P1  H  7989  7998       L1     5  0.21
      P1  H  7997  8010       L1     1  0.22
      P1  H 10752 10764       L1     7  0.18

> <Gold.Chemscore.Hbond.Weighted>
-6.3038

> <Gold.Chemscore.Metal.Weighted>
-0.0000

> <Gold.Chemscore.Lipo.Weighted>
-14.6096

> <Gold.Chemscore.Internal_Hbond.Weighted>
0.0000

> <Gold.Chemscore.DEClash.Weighted>
0.4595

> <Gold.Chemscore.DEInternal.Weighted>
1.8257

> <Gold.Chemscore.Rot.Weighted>
6.9670

> <Gold.Chemscore.Internal.Correction.Weighted>
   9.000000E+99

> <Gold.Protein.RotatedTorsions>
[ 6907 6896 6895 6894 ] final -143.46 input  -60.11 | X-H torsion
[ 7974 7965 7964 7962 ] final   46.78 input  175.53 | X-H torsion
[ 8008 7997 7996 7995 ] final   32.91 input   59.86 | X-H torsion
[ 10167 10162 10161 10158 ] final  -38.06 input  -65.29 | X-H torsion
[ 10718 10713 10712 10709 ] final   70.11 input   66.30 | X-H torsion
[ 10763 10752 10751 10750 ] final  -87.01 input  -60.55 | X-H torsion
[ 11005 11000 10999 10996 ] final  -91.16 input  -57.11 | X-H torsion

> <Gold.Protein.ActiveResidues>
 VAL166  LYS551  ARG553  GLY616  TRP617  ASP618  TYR619  PRO620  LYS621  CYS622 
 ASP623  PHE694  ASN695  SER759  ASP760  ASP761  ALA762  ILE779  LEU786  VAL792 
 PHE793  MET794  SER795  GLU796  ALA797  LYS798  CYS799  TRP800  GLU811  SER814 

> <Gold.Protein.RotatedAtoms>
  151.1008  133.5245  159.2609 H   0  0  0  0  0  0  0  0  0  0  0  0  # atno 6907 bound_to 6896
  151.2076  135.0467  159.8908 H   0  0  0  0  0  0  0  0  0  0  0  0  # atno 6908 bound_to 6896
  152.5443  134.0828  159.8296 H   0  0  0  0  0  0  0  0  0  0  0  0  # atno 6909 bound_to 6896
  146.0358  139.4819  142.9809 H   0  0  0  0  0  0  0  0  0  0  0  0  # atno 7974 bound_to 7965
  155.1301  140.3256  155.4476 H   0  0  0  0  0  0  0  0  0  0  0  0  # atno 8008 bound_to 7997
  156.2637  140.2012  156.6369 H   0  0  0  0  0  0  0  0  0  0  0  0  # atno 8009 bound_to 7997
  154.6619  140.0546  157.0058 H   0  0  0  0  0  0  0  0  0  0  0  0  # atno 8010 bound_to 7997
  140.7102  143.3301  151.2588 H   0  0  0  0  0  0  0  0  0  0  0  0  # atno 10167 bound_to 10162
  157.6382  130.9460  150.0606 H   0  0  0  0  0  0  0  0  0  0  0  0  # atno 10718 bound_to 10713
  154.6288  135.5428  153.7657 H   0  0  0  0  0  0  0  0  0  0  0  0  # atno 10763 bound_to 10752
  153.0274  135.6431  154.1331 H   0  0  0  0  0  0  0  0  0  0  0  0  # atno 10764 bound_to 10752
  154.1262  135.2917  155.3176 H   0  0  0  0  0  0  0  0  0  0  0  0  # atno 10765 bound_to 10752
  141.1551  133.7738  156.9839 H   0  0  0  0  0  0  0  0  0  0  0  0  # atno 11005 bound_to 11000
  145.6966  141.0148  143.1527 LP  0  0  0  0  0  0  0  0  0  0  0  0  # atno 17320 bound_to 7965
  144.7051  139.8595  143.7432 LP  0  0  0  0  0  0  0  0  0  0  0  0  # atno 17321 bound_to 7965
  139.6781  143.9902  152.2792 LP  0  0  0  0  0  0  0  0  0  0  0  0  # atno 17342 bound_to 10162
  139.9523  144.6612  150.8160 LP  0  0  0  0  0  0  0  0  0  0  0  0  # atno 17343 bound_to 10162
  156.1640  130.3644  149.9259 LP  0  0  0  0  0  0  0  0  0  0  0  0  # atno 17370 bound_to 10713
  156.7250  130.9021  151.3621 LP  0  0  0  0  0  0  0  0  0  0  0  0  # atno 17371 bound_to 10713
  140.1047  134.9514  157.1976 LP  0  0  0  0  0  0  0  0  0  0  0  0  # atno 17394 bound_to 11000
  140.3272  134.2850  155.7235 LP  0  0  0  0  0  0  0  0  0  0  0  0  # atno 17395 bound_to 11000

$$$$
