AV-unprocessed.smi:1292|AV-procd|sdf|5398|dock8
  -GOLD-   22720 4553D 1   1.00000     0.00000
 Structure written by MMmdl.
 39 40  0  0  0  0  0  0  0  0  2 V2000
  149.8009  135.6859  154.9123 C   0  0  0  0  0  0  0  0  0  0  0  0
  150.9648  136.6491  155.1849 C   0  0  1  0  0  0  0  0  0  0  0  0
  150.8179  137.9477  154.3803 C   0  0  0  0  0  0  0  0  0  0  0  0
  152.0025  138.8698  154.6776 C   0  0  0  0  0  0  0  0  0  0  0  0
  152.1210  139.1524  156.1826 C   0  0  0  0  0  0  0  0  0  0  0  0
  152.2048  137.8978  156.9637 N   0  0  0  0  0  0  0  0  0  0  0  0
  152.7637  138.0065  158.6073 S   0  0  0  0  0  0  0  0  0  0  0  0
  152.4330  136.7160  159.2329 O   0  0  0  0  0  0  0  0  0  0  0  0
  154.1841  138.3887  158.5414 O   0  0  0  0  0  0  0  0  0  0  0  0
  151.7968  139.2225  159.0775 N   0  5  0  0  0  0  0  0  0  0  0  0
  152.3666  140.5379  159.3242 C   0  0  0  0  0  0  0  0  0  0  0  0
  151.8056  141.5906  158.3368 C   0  0  0  0  0  0  0  0  0  0  0  0
  151.5561  142.9804  158.9175 C   0  0  0  0  0  0  0  0  0  0  0  0
  152.0083  143.3144  160.2150 C   0  0  0  0  0  0  0  0  0  0  0  0
  151.7631  144.6128  160.7012 C   0  0  0  0  0  0  0  0  0  0  0  0
  151.0711  145.5252  159.8823 C   0  0  0  0  0  0  0  0  0  0  0  0
  150.6508  145.0954  158.6081 C   0  0  0  0  0  0  0  0  0  0  0  0
  150.8767  143.8525  158.1334 N   0  0  0  0  0  0  0  0  0  0  0  0
  151.0991  136.9563  156.6901 C   0  0  0  0  0  0  0  0  0  0  0  0
  148.8478  136.1209  155.2152 H   0  0  0  0  0  0  0  0  0  0  0  0
  149.9291  134.7512  155.4588 H   0  0  0  0  0  0  0  0  0  0  0  0
  149.7343  135.4411  153.8519 H   0  0  0  0  0  0  0  0  0  0  0  0
  151.8822  136.1539  154.8623 H   0  0  0  0  0  0  0  0  0  0  0  0
  150.7750  137.7311  153.3124 H   0  0  0  0  0  0  0  0  0  0  0  0
  149.8838  138.4479  154.6390 H   0  0  0  0  0  0  0  0  0  0  0  0
  152.9256  138.4117  154.3195 H   0  0  0  0  0  0  0  0  0  0  0  0
  151.8908  139.8072  154.1323 H   0  0  0  0  0  0  0  0  0  0  0  0
  152.9989  139.7722  156.3609 H   0  0  0  0  0  0  0  0  0  0  0  0
  151.2605  139.7259  156.5290 H   0  0  0  0  0  0  0  0  0  0  0  0
  152.1321  140.8670  160.3369 H   0  0  0  0  0  0  0  0  0  0  0  0
  153.4560  140.5380  159.2699 H   0  0  0  0  0  0  0  0  0  0  0  0
  152.4725  141.6781  157.4776 H   0  0  0  0  0  0  0  0  0  0  0  0
  150.8603  141.2245  157.9350 H   0  0  0  0  0  0  0  0  0  0  0  0
  152.5427  142.5950  160.8175 H   0  0  0  0  0  0  0  0  0  0  0  0
  152.1022  144.9043  161.6842 H   0  0  0  0  0  0  0  0  0  0  0  0
  150.8678  146.5301  160.2212 H   0  0  0  0  0  0  0  0  0  0  0  0
  150.1156  145.7676  157.9538 H   0  0  0  0  0  0  0  0  0  0  0  0
  150.1729  137.3779  157.0826 H   0  0  0  0  0  0  0  0  0  0  0  0
  151.2720  136.0228  157.2249 H   0  0  0  0  0  0  0  0  0  0  0  0
  1  2  1  0  0  0  0
  1 20  1  0  0  0  0
  1 21  1  0  0  0  0
  1 22  1  0  0  0  0
  2 19  1  0  0  0  0
  2  3  1  0  0  0  0
  2 23  1  0  0  0  0
  3  4  1  0  0  0  0
  3 24  1  0  0  0  0
  3 25  1  0  0  0  0
  4  5  1  0  0  0  0
  4 26  1  0  0  0  0
  4 27  1  0  0  0  0
  5  6  1  0  0  0  0
  5 28  1  0  0  0  0
  5 29  1  0  0  0  0
  6  7  1  0  0  0  0
  6 19  1  0  0  0  0
  7  8  2  0  0  0  0
  7  9  2  0  0  0  0
  7 10  1  0  0  0  0
 10 11  1  0  0  0  0
 11 12  1  0  0  0  0
 11 30  1  0  0  0  0
 11 31  1  0  0  0  0
 12 13  1  0  0  0  0
 12 32  1  0  0  0  0
 12 33  1  0  0  0  0
 13 18  1  0  0  0  0
 13 14  2  0  0  0  0
 14 15  1  0  0  0  0
 14 34  1  0  0  0  0
 15 16  2  0  0  0  0
 15 35  1  0  0  0  0
 16 17  1  0  0  0  0
 16 36  1  0  0  0  0
 17 18  2  0  0  0  0
 17 37  1  0  0  0  0
 19 38  1  0  0  0  0
 19 39  1  0  0  0  0
M  CHG  1  10  -1
M  END
> <s_m_source_file>
AV-unprocessed.smi

> <i_m_source_file_index>
1292

> <i_lp_mmshare_version>
43012

> <i_f3d_flags>
0

> <s_epik_input>
W0NIM11bQ0BASF0xW0NIMl1bQ0gyXVtDSDJdTihbQ0gyXTEpUyg9TykoPU8pW05IXVtDSDJdW0NIMl1jMltjSF1bY0hdW2NIXVtjSF1uMg==

> <s_epik_cmdline>
J2VwaWtfcHl0aG9uJywgJy1waCcsICc3LjAnLCAnLXRuJywgJzgnLCAnLW1hJywgJzIwMCcsICctbWV0YWxfYmluZGluZycsICctaW1hZScsICc8aW5maWxlLm1hZT4nLCAnLW9tYWUnLCAnPG91dGZpbGUubWFlPic=

> <r_epik_Ionization_Penalty>
2.02944

> <r_epik_Ionization_Penalty_Charging>
1.95606

> <r_epik_Ionization_Penalty_Neutral>
0.0733799

> <r_epik_State_Penalty>
2.47711

> <r_epik_Charging_Adjusted_Penalty>
4.43317

> <i_epik_Tot_Q>
-1

> <i_epik_Tot_abs_Q>
1

> <r_epik_Metal_State_Penalty>
0.729901

> <b_epik_Metal_Only>
0

> <s_lp_Force_Field>
OPLS_2005

> <r_lp_Energy>
9.691

> <b_lp_Chiralities_Consistent>
1

> <s_lp_Variant>
AV-unprocessed.smi:1292-4

> <Gold.Version>
5.8.1

> <Gold.Id.Protein>
6NUR|6NUR_protein|mol2

> <Gold.PLP.Fitness>
44.5596

> <Gold.PLP.PLP>
-37.1156

> <Gold.PLP.part.hbond>
-2.0000

> <Gold.PLP.part.metal>
0.0000

> <Gold.PLP.part.buried>
-5.9245

> <Gold.PLP.part.nonpolar>
-29.7851

> <Gold.PLP.part.repulsive>
0.1348

> <Gold.PLP.ligand.clash>
0.0000

> <Gold.PLP.ligand.torsion>
1.5583

> <Gold.PLP.Chemscore.Hbond>
2.0000

> <Gold.PLP.Chemscore.CHOScore>
0.9864

> <Gold.PLP.Chemscore.Metal>
0.0000

> <Gold.Chemscore.Hbonds>
donor molecule, donor type, donor heavy atom, donor atom, acceptor molecule, acceptor atom, score
      P1  H  6896  6908       L1     8  0.99
      P1  H  7997  8009       L1     9  0.60
      L1  C    17    37       P1  8029  0.87

> <Gold.PLP.Chemscore.Internal.Correction>
1.6013

> <Gold.Rescore>
     Score         DG    S(hbond)    S(metal)    S(lipo)     H(rot)  DE(clash)    DE(int)     intcor
     19.55     -21.14       1.84        0.00     112.39       1.42       0.08       1.51       ----

> <Gold.Chemscore.Fitness>
19.5464

> <Gold.Chemscore.DG>
-21.1392

> <Gold.Chemscore.ZeroCoef>
-5.4800

> <Gold.Chemscore.Hbond>
1.8408

> <Gold.Chemscore.Metal>
0.0000

> <Gold.Chemscore.Lipo>
112.3936

> <Gold.Chemscore.Internal_Hbond>
0.0000

> <Gold.Chemscore.DEClash>
0.0795

> <Gold.Chemscore.DEInternal>
1.5133

> <Gold.Chemscore.Rot>
1.4216

> <Gold.Chemscore.Internal.Correction>
   9.000000E+99

> <Gold.Chemscore.Hbonds>
donor molecule, donor type, donor heavy atom, donor atom, acceptor molecule, acceptor atom, score
      P1  H  6896  6908       L1     8  0.93
      P1  H  7997  8009       L1     9  0.58

> <Gold.Chemscore.Hbond.Weighted>
-6.1483

> <Gold.Chemscore.Metal.Weighted>
-0.0000

> <Gold.Chemscore.Lipo.Weighted>
-13.1501

> <Gold.Chemscore.Internal_Hbond.Weighted>
0.0000

> <Gold.Chemscore.DEClash.Weighted>
0.0795

> <Gold.Chemscore.DEInternal.Weighted>
1.5133

> <Gold.Chemscore.Rot.Weighted>
3.6392

> <Gold.Chemscore.Internal.Correction.Weighted>
   9.000000E+99

> <Gold.Protein.RotatedTorsions>
[ 6907 6896 6895 6894 ] final  -97.09 input  -60.11 | X-H torsion
[ 7974 7965 7964 7962 ] final  -84.80 input  175.53 | X-H torsion
[ 8008 7997 7996 7995 ] final  141.10 input   59.86 | X-H torsion
[ 10167 10162 10161 10158 ] final  177.01 input  -65.29 | X-H torsion
[ 10718 10713 10712 10709 ] final   86.50 input   66.30 | X-H torsion
[ 10763 10752 10751 10750 ] final   76.61 input  -60.55 | X-H torsion
[ 11005 11000 10999 10996 ] final   56.99 input  -57.11 | X-H torsion

> <Gold.Protein.ActiveResidues>
 VAL166  LYS551  ARG553  GLY616  TRP617  ASP618  TYR619  PRO620  LYS621  CYS622 
 ASP623  PHE694  ASN695  SER759  ASP760  ASP761  ALA762  ILE779  LEU786  VAL792 
 PHE793  MET794  SER795  GLU796  ALA797  LYS798  CYS799  TRP800  GLU811  SER814 

> <Gold.Protein.RotatedAtoms>
  150.7006  134.1402  159.4101 H   0  0  0  0  0  0  0  0  0  0  0  0  # atno 6907 bound_to 6896
  151.9387  135.0221  160.0543 H   0  0  0  0  0  0  0  0  0  0  0  0  # atno 6908 bound_to 6896
  152.2113  133.4878  159.5148 H   0  0  0  0  0  0  0  0  0  0  0  0  # atno 6909 bound_to 6896
  145.5018  140.9546  143.1755 H   0  0  0  0  0  0  0  0  0  0  0  0  # atno 7974 bound_to 7965
  156.2970  140.2324  156.4509 H   0  0  0  0  0  0  0  0  0  0  0  0  # atno 8008 bound_to 7997
  154.8102  140.0443  157.1358 H   0  0  0  0  0  0  0  0  0  0  0  0  # atno 8009 bound_to 7997
  154.9432  140.3032  155.5114 H   0  0  0  0  0  0  0  0  0  0  0  0  # atno 8010 bound_to 7997
  139.5236  144.2848  152.0515 H   0  0  0  0  0  0  0  0  0  0  0  0  # atno 10167 bound_to 10162
  157.6929  131.0218  150.2982 H   0  0  0  0  0  0  0  0  0  0  0  0  # atno 10718 bound_to 10713
  153.0738  135.4945  154.8361 H   0  0  0  0  0  0  0  0  0  0  0  0  # atno 10763 bound_to 10752
  154.7059  135.3010  154.9273 H   0  0  0  0  0  0  0  0  0  0  0  0  # atno 10764 bound_to 10752
  153.9982  135.6769  153.4810 H   0  0  0  0  0  0  0  0  0  0  0  0  # atno 10765 bound_to 10752
  140.0486  134.5769  155.9291 H   0  0  0  0  0  0  0  0  0  0  0  0  # atno 11005 bound_to 11000
  144.7776  139.6596  143.7168 LP  0  0  0  0  0  0  0  0  0  0  0  0  # atno 17320 bound_to 7965
  146.2221  139.5655  142.9611 LP  0  0  0  0  0  0  0  0  0  0  0  0  # atno 17321 bound_to 7965
  140.2302  144.4376  150.6303 LP  0  0  0  0  0  0  0  0  0  0  0  0  # atno 17342 bound_to 10162
  140.6360  143.2195  151.6393 LP  0  0  0  0  0  0  0  0  0  0  0  0  # atno 17343 bound_to 10162
  156.3502  130.3830  149.7335 LP  0  0  0  0  0  0  0  0  0  0  0  0  # atno 17370 bound_to 10713
  156.4815  130.8043  151.3057 LP  0  0  0  0  0  0  0  0  0  0  0  0  # atno 17371 bound_to 10713
  141.1919  133.6573  156.5479 LP  0  0  0  0  0  0  0  0  0  0  0  0  # atno 17394 bound_to 11000
  140.3953  134.7404  157.4747 LP  0  0  0  0  0  0  0  0  0  0  0  0  # atno 17395 bound_to 11000

$$$$
