AV-unprocessed.smi:684|AV-procd|sdf|3332|dock10
  -GOLD-   22720 0303D 1   1.00000     0.00000
 Structure written by MMmdl.
 40 41  0  0  0  0  0  0  0  0  1 V2000
  151.7267  145.7226  160.0897 C   0  0  0  0  0  0  0  0  0  0  0  0
  152.4925  144.4014  160.2240 C   0  0  0  0  0  0  0  0  0  0  0  0
  152.0682  143.4321  159.2289 N   0  0  0  0  0  0  0  0  0  0  0  0
  151.0203  143.7326  158.4315 N   0  0  0  0  0  0  0  0  0  0  0  0
  150.8855  142.6655  157.6594 C   0  0  0  0  0  0  0  0  0  0  0  0
  149.9155  142.4879  156.6402 N   0  0  0  0  0  0  0  0  0  0  0  0
  149.9427  141.6052  155.6270 C   0  0  0  0  0  0  0  0  0  0  0  0
  150.8452  140.7938  155.4172 O   0  0  0  0  0  0  0  0  0  0  0  0
  148.8527  141.7210  154.8541 N   0  0  0  0  0  0  0  0  0  0  0  0
  148.5629  140.9188  153.6685 C   0  0  0  0  0  0  0  0  0  0  0  0
  147.1090  140.4012  153.6517 C   0  0  0  0  0  0  0  0  0  0  0  0
  146.6726  139.9663  155.0584 C   0  0  0  0  0  0  0  0  0  0  0  0
  146.8936  139.2571  152.6458 C   0  0  0  0  0  0  0  0  0  0  0  0
  151.8383  141.6491  157.9379 C   0  0  0  0  0  0  0  0  0  0  0  0
  152.5814  142.1736  158.9591 C   0  0  0  0  0  0  0  0  0  0  0  0
  153.7411  141.5981  159.7068 C   0  0  0  0  0  0  0  0  0  0  0  0
  153.6509  140.2532  160.3882 C   0  0  0  0  0  0  0  0  0  0  0  0
  153.7307  141.5178  161.2134 C   0  0  0  0  0  0  0  0  0  0  0  0
  152.0537  146.4385  160.8437 H   0  0  0  0  0  0  0  0  0  0  0  0
  150.6542  145.5723  160.2164 H   0  0  0  0  0  0  0  0  0  0  0  0
  151.8886  146.1734  159.1101 H   0  0  0  0  0  0  0  0  0  0  0  0
  153.5641  144.5746  160.1129 H   0  0  0  0  0  0  0  0  0  0  0  0
  152.3477  143.9794  161.2188 H   0  0  0  0  0  0  0  0  0  0  0  0
  149.1143  143.0994  156.6874 H   0  0  0  0  0  0  0  0  0  0  0  0
  148.1677  142.4190  155.1044 H   0  0  0  0  0  0  0  0  0  0  0  0
  148.7789  141.4742  152.7540 H   0  0  0  0  0  0  0  0  0  0  0  0
  149.2517  140.0736  153.6759 H   0  0  0  0  0  0  0  0  0  0  0  0
  146.4624  141.2279  153.3537 H   0  0  0  0  0  0  0  0  0  0  0  0
  147.2757  139.1330  155.4201 H   0  0  0  0  0  0  0  0  0  0  0  0
  145.6291  139.6499  155.0661 H   0  0  0  0  0  0  0  0  0  0  0  0
  146.7717  140.7842  155.7727 H   0  0  0  0  0  0  0  0  0  0  0  0
  147.5507  138.4136  152.8603 H   0  0  0  0  0  0  0  0  0  0  0  0
  147.0867  139.5785  151.6225 H   0  0  0  0  0  0  0  0  0  0  0  0
  145.8658  138.8943  152.6789 H   0  0  0  0  0  0  0  0  0  0  0  0
  151.9579  140.6850  157.4666 H   0  0  0  0  0  0  0  0  0  0  0  0
  154.6842  141.8430  159.2219 H   0  0  0  0  0  0  0  0  0  0  0  0
  152.6966  139.7305  160.3693 H   0  0  0  0  0  0  0  0  0  0  0  0
  154.5321  139.6156  160.3589 H   0  0  0  0  0  0  0  0  0  0  0  0
  154.6642  141.7251  161.7322 H   0  0  0  0  0  0  0  0  0  0  0  0
  152.8276  141.8369  161.7305 H   0  0  0  0  0  0  0  0  0  0  0  0
  1  2  1  0  0  0  0
  1 19  1  0  0  0  0
  1 20  1  0  0  0  0
  1 21  1  0  0  0  0
  2  3  1  0  0  0  0
  2 22  1  0  0  0  0
  2 23  1  0  0  0  0
  3 15  1  0  0  0  0
  3  4  1  0  0  0  0
  4  5  2  0  0  0  0
  5  6  1  0  0  0  0
  5 14  1  0  0  0  0
  6  7  1  0  0  0  0
  6 24  1  0  0  0  0
  7  8  2  0  0  0  0
  7  9  1  0  0  0  0
  9 10  1  0  0  0  0
  9 25  1  0  0  0  0
 10 11  1  0  0  0  0
 10 26  1  0  0  0  0
 10 27  1  0  0  0  0
 11 12  1  0  0  0  0
 11 13  1  0  0  0  0
 11 28  1  0  0  0  0
 12 29  1  0  0  0  0
 12 30  1  0  0  0  0
 12 31  1  0  0  0  0
 13 32  1  0  0  0  0
 13 33  1  0  0  0  0
 13 34  1  0  0  0  0
 14 15  2  0  0  0  0
 14 35  1  0  0  0  0
 15 16  1  0  0  0  0
 16 18  1  0  0  0  0
 16 17  1  0  0  0  0
 16 36  1  0  0  0  0
 17 18  1  0  0  0  0
 17 37  1  0  0  0  0
 17 38  1  0  0  0  0
 18 39  1  0  0  0  0
 18 40  1  0  0  0  0
M  END
> <s_m_source_file>
AV-unprocessed.smi

> <i_m_source_file_index>
684

> <i_lp_mmshare_version>
43012

> <i_f3d_flags>
0

> <s_epik_input>
W0NIMl0xW0NIMl1bQ0hdMWMyW2NIXWMobm4yW0NIMl1bQ0gzXSlbTkhdQyg9TylbTkhdW0NIMl1bQ0hdKFtDSDNdKVtDSDNd

> <s_epik_cmdline>
J2VwaWtfcHl0aG9uJywgJy1waCcsICc3LjAnLCAnLXRuJywgJzgnLCAnLW1hJywgJzIwMCcsICctbWV0YWxfYmluZGluZycsICctaW1hZScsICc8aW5maWxlLm1hZT4nLCAnLW9tYWUnLCAnPG91dGZpbGUubWFlPic=

> <r_lp_tautomer_probability>
1

> <r_epik_Ionization_Penalty>
4.15598e-05

> <r_epik_Ionization_Penalty_Charging>
0

> <r_epik_Ionization_Penalty_Neutral>
4.15598e-05

> <r_epik_State_Penalty>
-0

> <r_epik_Charging_Adjusted_Penalty>
0

> <i_epik_Tot_Q>
0

> <i_epik_Tot_abs_Q>
0

> <r_epik_Metal_State_Penalty>
-0

> <b_epik_Metal_Only>
0

> <s_lp_Force_Field>
OPLS_2005

> <r_lp_Energy>
10.212

> <b_lp_Chiralities_Consistent>
1

> <s_lp_Variant>
AV-unprocessed.smi:684-1

> <Gold.Version>
5.8.1

> <Gold.Id.Protein>
6NUR|6NUR_protein|mol2

> <Gold.PLP.Fitness>
42.9339

> <Gold.PLP.PLP>
-39.7461

> <Gold.PLP.part.hbond>
-3.0000

> <Gold.PLP.part.metal>
0.0000

> <Gold.PLP.part.buried>
-1.6580

> <Gold.PLP.part.nonpolar>
-34.8713

> <Gold.PLP.part.repulsive>
0.4234

> <Gold.PLP.ligand.clash>
0.0000

> <Gold.PLP.ligand.torsion>
0.4153

> <Gold.PLP.Chemscore.Hbond>
1.2873

> <Gold.PLP.Chemscore.CHOScore>
0.0000

> <Gold.PLP.Chemscore.Metal>
0.0000

> <Gold.Chemscore.Hbonds>
donor molecule, donor type, donor heavy atom, donor atom, acceptor molecule, acceptor atom, score
      L1  H     6    24       P1  8028  0.51
      P1  H  7989  7998       L1     8  0.74

> <Gold.PLP.Chemscore.Internal.Correction>
0.1566

> <Gold.Rescore>
     Score         DG    S(hbond)    S(metal)    S(lipo)     H(rot)  DE(clash)    DE(int)     intcor
     15.45     -18.17       1.53        0.00      96.34       1.45       1.04       1.68       ----

> <Gold.Chemscore.Fitness>
15.4477

> <Gold.Chemscore.DG>
-18.1699

> <Gold.Chemscore.ZeroCoef>
-5.4800

> <Gold.Chemscore.Hbond>
1.5324

> <Gold.Chemscore.Metal>
0.0000

> <Gold.Chemscore.Lipo>
96.3371

> <Gold.Chemscore.Internal_Hbond>
0.0000

> <Gold.Chemscore.DEClash>
1.0410

> <Gold.Chemscore.DEInternal>
1.6812

> <Gold.Chemscore.Rot>
1.4452

> <Gold.Chemscore.Internal.Correction>
   9.000000E+99

> <Gold.Chemscore.Hbonds>
donor molecule, donor type, donor heavy atom, donor atom, acceptor molecule, acceptor atom, score
      L1  H     6    24       P1  8028  0.51
      L1  H     9    25       P1  8028  0.02
      P1  H  7989  7998       L1     8  0.63

> <Gold.Chemscore.Hbond.Weighted>
-5.1183

> <Gold.Chemscore.Metal.Weighted>
-0.0000

> <Gold.Chemscore.Lipo.Weighted>
-11.2714

> <Gold.Chemscore.Internal_Hbond.Weighted>
0.0000

> <Gold.Chemscore.DEClash.Weighted>
1.0410

> <Gold.Chemscore.DEInternal.Weighted>
1.6812

> <Gold.Chemscore.Rot.Weighted>
3.6998

> <Gold.Chemscore.Internal.Correction.Weighted>
   9.000000E+99

> <Gold.Protein.RotatedTorsions>
[ 6907 6896 6895 6894 ] final  -13.30 input  -60.11 | X-H torsion
[ 7974 7965 7964 7962 ] final  178.99 input  175.53 | X-H torsion
[ 8008 7997 7996 7995 ] final  122.66 input   59.86 | X-H torsion
[ 10167 10162 10161 10158 ] final  131.49 input  -65.29 | X-H torsion
[ 10718 10713 10712 10709 ] final   45.22 input   66.30 | X-H torsion
[ 10763 10752 10751 10750 ] final  -46.71 input  -60.55 | X-H torsion
[ 11005 11000 10999 10996 ] final -146.89 input  -57.11 | X-H torsion

> <Gold.Protein.ActiveResidues>
 VAL166  LYS551  ARG553  GLY616  TRP617  ASP618  TYR619  PRO620  LYS621  CYS622 
 ASP623  PHE694  ASN695  SER759  ASP760  ASP761  ALA762  ILE779  LEU786  VAL792 
 PHE793  MET794  SER795  GLU796  ALA797  LYS798  CYS799  TRP800  GLU811  SER814 

> <Gold.Protein.RotatedAtoms>
  151.3571  135.0896  159.9421 H   0  0  0  0  0  0  0  0  0  0  0  0  # atno 6907 bound_to 6896
  152.5172  133.9295  159.7584 H   0  0  0  0  0  0  0  0  0  0  0  0  # atno 6908 bound_to 6896
  150.9682  133.6318  159.2772 H   0  0  0  0  0  0  0  0  0  0  0  0  # atno 6909 bound_to 6896
  144.7150  140.0481  143.6436 H   0  0  0  0  0  0  0  0  0  0  0  0  # atno 7974 bound_to 7965
  156.2736  140.2781  156.1502 H   0  0  0  0  0  0  0  0  0  0  0  0  # atno 8008 bound_to 7997
  155.0861  140.0388  157.2672 H   0  0  0  0  0  0  0  0  0  0  0  0  # atno 8009 bound_to 7997
  154.6926  140.2632  155.6803 H   0  0  0  0  0  0  0  0  0  0  0  0  # atno 8010 bound_to 7997
  139.5381  144.6704  151.4715 H   0  0  0  0  0  0  0  0  0  0  0  0  # atno 10167 bound_to 10162
  157.4352  130.8048  149.7641 H   0  0  0  0  0  0  0  0  0  0  0  0  # atno 10718 bound_to 10713
  154.0494  135.6633  153.4798 H   0  0  0  0  0  0  0  0  0  0  0  0  # atno 10763 bound_to 10752
  153.0470  135.5108  154.7766 H   0  0  0  0  0  0  0  0  0  0  0  0  # atno 10764 bound_to 10752
  154.6767  135.3038  154.9635 H   0  0  0  0  0  0  0  0  0  0  0  0  # atno 10765 bound_to 10752
  140.7773  134.3119  157.5056 H   0  0  0  0  0  0  0  0  0  0  0  0  # atno 11005 bound_to 11000
  145.9967  139.3058  143.0952 LP  0  0  0  0  0  0  0  0  0  0  0  0  # atno 17320 bound_to 7965
  145.8840  140.9345  143.0586 LP  0  0  0  0  0  0  0  0  0  0  0  0  # atno 17321 bound_to 7965
  140.6599  143.8521  150.6876 LP  0  0  0  0  0  0  0  0  0  0  0  0  # atno 17342 bound_to 10162
  140.1912  143.4034  152.1861 LP  0  0  0  0  0  0  0  0  0  0  0  0  # atno 17343 bound_to 10162
  155.9928  130.3929  150.2928 LP  0  0  0  0  0  0  0  0  0  0  0  0  # atno 17370 bound_to 10713
  157.1088  131.0216  151.3056 LP  0  0  0  0  0  0  0  0  0  0  0  0  # atno 17371 bound_to 10713
  139.8747  134.9297  156.3484 LP  0  0  0  0  0  0  0  0  0  0  0  0  # atno 17394 bound_to 11000
  140.9516  133.7447  156.0279 LP  0  0  0  0  0  0  0  0  0  0  0  0  # atno 17395 bound_to 11000

$$$$
