AV-unprocessed.smi:3056|AV-procd|sdf|11657|dock7
  -GOLD-   2272017 63D 1   1.00000     0.00000
 Structure written by MMmdl.
 47 48  0  0  0  0  0  0  0  0  1 V2000
  144.5526  132.3088  149.6035 C   0  0  0  0  0  0  0  0  0  0  0  0
  145.3956  133.0206  150.6218 C   0  0  0  0  0  0  0  0  0  0  0  0
  145.2861  134.3712  151.0579 C   0  0  0  0  0  0  0  0  0  0  0  0
  146.1855  134.6901  151.9735 N   0  0  0  0  0  0  0  0  0  0  0  0
  146.9046  133.5591  152.1531 N   0  0  0  0  0  0  0  0  0  0  0  0
  148.0042  133.5291  153.1100 C   0  0  2  0  0  0  0  0  0  0  0  0
  148.4819  132.0774  153.3131 C   0  0  0  0  0  0  0  0  0  0  0  0
  147.6405  134.2308  154.4472 C   0  0  2  0  0  0  0  0  0  0  0  0
  146.2992  133.7486  155.0420 C   0  0  0  0  0  0  0  0  0  0  0  0
  147.5597  135.6677  154.1977 N   0  0  0  0  0  0  0  0  0  0  0  0
  148.3880  136.4495  155.1260 C   0  0  0  0  0  0  0  0  0  0  0  0
  148.1118  137.9519  154.9974 C   0  0  0  0  0  0  0  0  0  0  0  0
  147.0067  138.3625  155.3530 O   0  0  0  0  0  0  0  0  0  0  0  0
  149.0687  138.7755  154.5038 N   0  0  0  0  0  0  0  0  0  0  0  0
  148.9742  140.2314  154.3614 C   0  0  0  0  0  0  0  0  0  0  0  0
  150.0104  140.8732  155.2997 C   0  0  0  0  0  0  0  0  0  0  0  0
  151.3127  140.3923  154.9741 O   0  0  0  0  0  0  0  0  0  0  0  0
  151.4345  138.9735  155.0694 C   0  0  2  0  0  0  0  0  0  0  0  0
  152.8757  138.5908  154.7150 C   0  0  0  0  0  0  0  0  0  0  0  0
  150.4073  138.3128  154.1276 C   0  0  0  0  0  0  0  0  0  0  0  0
  146.4461  132.5366  151.3487 C   0  0  0  0  0  0  0  0  0  0  0  0
  143.6099  132.8264  149.4251 H   0  0  0  0  0  0  0  0  0  0  0  0
  144.3062  131.2952  149.9207 H   0  0  0  0  0  0  0  0  0  0  0  0
  145.0635  132.2312  148.6438 H   0  0  0  0  0  0  0  0  0  0  0  0
  144.5815  135.1248  150.7385 H   0  0  0  0  0  0  0  0  0  0  0  0
  148.8247  134.0835  152.6506 H   0  0  0  0  0  0  0  0  0  0  0  0
  149.3822  132.0325  153.9259 H   0  0  0  0  0  0  0  0  0  0  0  0
  148.7182  131.6075  152.3580 H   0  0  0  0  0  0  0  0  0  0  0  0
  147.7198  131.4694  153.8020 H   0  0  0  0  0  0  0  0  0  0  0  0
  148.4388  134.0267  155.1634 H   0  0  0  0  0  0  0  0  0  0  0  0
  146.3250  132.6859  155.2824 H   0  0  0  0  0  0  0  0  0  0  0  0
  145.4778  133.9085  154.3428 H   0  0  0  0  0  0  0  0  0  0  0  0
  146.0499  134.2660  155.9676 H   0  0  0  0  0  0  0  0  0  0  0  0
  147.8427  135.8412  153.2436 H   0  0  0  0  0  0  0  0  0  0  0  0
  148.2388  136.1357  156.1585 H   0  0  0  0  0  0  0  0  0  0  0  0
  149.4408  136.2676  154.9038 H   0  0  0  0  0  0  0  0  0  0  0  0
  149.1875  140.5052  153.3274 H   0  0  0  0  0  0  0  0  0  0  0  0
  147.9863  140.6348  154.5736 H   0  0  0  0  0  0  0  0  0  0  0  0
  149.9974  141.9577  155.1919 H   0  0  0  0  0  0  0  0  0  0  0  0
  149.7801  140.6524  156.3432 H   0  0  0  0  0  0  0  0  0  0  0  0
  151.2362  138.6704  156.0991 H   0  0  0  0  0  0  0  0  0  0  0  0
  153.0246  137.5131  154.7868 H   0  0  0  0  0  0  0  0  0  0  0  0
  153.5837  139.0692  155.3919 H   0  0  0  0  0  0  0  0  0  0  0  0
  153.1271  138.8967  153.6993 H   0  0  0  0  0  0  0  0  0  0  0  0
  150.5076  137.2276  154.1733 H   0  0  0  0  0  0  0  0  0  0  0  0
  150.6067  138.5904  153.0914 H   0  0  0  0  0  0  0  0  0  0  0  0
  146.9014  131.5570  151.3593 H   0  0  0  0  0  0  0  0  0  0  0  0
  1  2  1  0  0  0  0
  1 22  1  0  0  0  0
  1 23  1  0  0  0  0
  1 24  1  0  0  0  0
  2 21  2  0  0  0  0
  2  3  1  0  0  0  0
  3  4  2  0  0  0  0
  3 25  1  0  0  0  0
  4  5  1  0  0  0  0
  5  6  1  0  0  0  0
  5 21  1  0  0  0  0
  6  7  1  0  0  0  0
  6  8  1  0  0  0  0
  6 26  1  0  0  0  0
  7 27  1  0  0  0  0
  7 28  1  0  0  0  0
  7 29  1  0  0  0  0
  8  9  1  0  0  0  0
  8 10  1  0  0  0  0
  8 30  1  0  0  0  0
  9 31  1  0  0  0  0
  9 32  1  0  0  0  0
  9 33  1  0  0  0  0
 10 11  1  0  0  0  0
 10 34  1  0  0  0  0
 11 12  1  0  0  0  0
 11 35  1  0  0  0  0
 11 36  1  0  0  0  0
 12 13  2  0  0  0  0
 12 14  1  0  0  0  0
 14 20  1  0  0  0  0
 14 15  1  0  0  0  0
 15 16  1  0  0  0  0
 15 37  1  0  0  0  0
 15 38  1  0  0  0  0
 16 17  1  0  0  0  0
 16 39  1  0  0  0  0
 16 40  1  0  0  0  0
 17 18  1  0  0  0  0
 18 19  1  0  0  0  0
 18 20  1  0  0  0  0
 18 41  1  0  0  0  0
 19 42  1  0  0  0  0
 19 43  1  0  0  0  0
 19 44  1  0  0  0  0
 20 45  1  0  0  0  0
 20 46  1  0  0  0  0
 21 47  1  0  0  0  0
M  END
> <s_m_source_file>
AV-unprocessed.smi

> <i_m_source_file_index>
3056

> <i_lp_mmshare_version>
43012

> <i_f3d_flags>
0

> <s_epik_input>
W0NIM11jMVtjSF1ubihbY0hdMSlbQ0BIXShbQ0gzXSlbQ0BIXShbQ0gzXSlbTkhdW0NIMl1DKD1PKU4yW0NIMl1bQ0gyXU9bQ0BASF0oW0NIM10pW0NIMl0y

> <s_epik_cmdline>
J2VwaWtfcHl0aG9uJywgJy1waCcsICc3LjAnLCAnLXRuJywgJzgnLCAnLW1hJywgJzIwMCcsICctbWV0YWxfYmluZGluZycsICctaW1hZScsICc8aW5maWxlLm1hZT4nLCAnLW9tYWUnLCAnPG91dGZpbGUubWFlPic=

> <r_lp_tautomer_probability>
1

> <r_epik_Ionization_Penalty>
0.667689

> <r_epik_Ionization_Penalty_Charging>
0

> <r_epik_Ionization_Penalty_Neutral>
0.667689

> <r_epik_State_Penalty>
0.684601

> <r_epik_Charging_Adjusted_Penalty>
0.684601

> <i_epik_Tot_Q>
0

> <i_epik_Tot_abs_Q>
0

> <r_epik_Metal_State_Penalty>
0.681448

> <b_epik_Metal_Only>
0

> <s_lp_Force_Field>
OPLS_2005

> <r_lp_Energy>
28.8183

> <b_lp_Chiralities_Consistent>
1

> <s_lp_Variant>
AV-unprocessed.smi:3056-13

> <Gold.Version>
5.8.1

> <Gold.Id.Protein>
6NUR|6NUR_protein|mol2

> <Gold.PLP.Fitness>
44.3164

> <Gold.PLP.PLP>
-37.7369

> <Gold.PLP.part.hbond>
-1.9628

> <Gold.PLP.part.metal>
0.0000

> <Gold.PLP.part.buried>
-3.1449

> <Gold.PLP.part.nonpolar>
-33.1117

> <Gold.PLP.part.repulsive>
0.2245

> <Gold.PLP.ligand.clash>
0.0000

> <Gold.PLP.ligand.torsion>
1.2538

> <Gold.PLP.Chemscore.Hbond>
2.0000

> <Gold.PLP.Chemscore.CHOScore>
0.9853

> <Gold.PLP.Chemscore.Metal>
0.0000

> <Gold.Chemscore.Hbonds>
donor molecule, donor type, donor heavy atom, donor atom, acceptor molecule, acceptor atom, score
      L1  H    10    34       P1  7948  1.00
      P1  H  7989  7998       L1    17  1.00
      L1  C    21    47       P1 10747  0.96

> <Gold.PLP.Chemscore.Internal.Correction>
0.1310

> <Gold.Rescore>
     Score         DG    S(hbond)    S(metal)    S(lipo)     H(rot)  DE(clash)    DE(int)     intcor
     15.67     -17.01       1.72        0.00      86.25       1.68       0.03       1.30       ----

> <Gold.Chemscore.Fitness>
15.6748

> <Gold.Chemscore.DG>
-17.0071

> <Gold.Chemscore.ZeroCoef>
-5.4800

> <Gold.Chemscore.Hbond>
1.7170

> <Gold.Chemscore.Metal>
0.0000

> <Gold.Chemscore.Lipo>
86.2497

> <Gold.Chemscore.Internal_Hbond>
0.0000

> <Gold.Chemscore.DEClash>
0.0293

> <Gold.Chemscore.DEInternal>
1.3030

> <Gold.Chemscore.Rot>
1.6793

> <Gold.Chemscore.Internal.Correction>
   9.000000E+99

> <Gold.Chemscore.Hbonds>
donor molecule, donor type, donor heavy atom, donor atom, acceptor molecule, acceptor atom, score
      L1  H    10    34       P1  7948  0.99
      P1  H  7989  7998       L1    17  0.48

> <Gold.Chemscore.Hbond.Weighted>
-5.7349

> <Gold.Chemscore.Metal.Weighted>
-0.0000

> <Gold.Chemscore.Lipo.Weighted>
-10.0912

> <Gold.Chemscore.Internal_Hbond.Weighted>
0.0000

> <Gold.Chemscore.DEClash.Weighted>
0.0293

> <Gold.Chemscore.DEInternal.Weighted>
1.3030

> <Gold.Chemscore.Rot.Weighted>
4.2990

> <Gold.Chemscore.Internal.Correction.Weighted>
   9.000000E+99

> <Gold.Protein.RotatedTorsions>
[ 6907 6896 6895 6894 ] final -114.41 input  -60.11 | X-H torsion
[ 7974 7965 7964 7962 ] final   18.68 input  175.53 | X-H torsion
[ 8008 7997 7996 7995 ] final  174.52 input   59.86 | X-H torsion
[ 10167 10162 10161 10158 ] final -171.46 input  -65.29 | X-H torsion
[ 10718 10713 10712 10709 ] final   80.21 input   66.30 | X-H torsion
[ 10763 10752 10751 10750 ] final -137.29 input  -60.55 | X-H torsion
[ 11005 11000 10999 10996 ] final   -3.46 input  -57.11 | X-H torsion

> <Gold.Protein.ActiveResidues>
 VAL166  LYS551  ARG553  GLY616  TRP617  ASP618  TYR619  PRO620  LYS621  CYS622 
 ASP623  PHE694  ASN695  SER759  ASP760  ASP761  ALA762  ILE779  LEU786  VAL792 
 PHE793  MET794  SER795  GLU796  ALA797  LYS798  CYS799  TRP800  GLU811  SER814 

> <Gold.Protein.RotatedAtoms>
  150.7900  133.8805  159.3284 H   0  0  0  0  0  0  0  0  0  0  0  0  # atno 6907 bound_to 6896
  151.6646  135.0983  160.0195 H   0  0  0  0  0  0  0  0  0  0  0  0  # atno 6908 bound_to 6896
  152.3972  133.6725  159.6321 H   0  0  0  0  0  0  0  0  0  0  0  0  # atno 6909 bound_to 6896
  146.2176  139.8423  142.8638 H   0  0  0  0  0  0  0  0  0  0  0  0  # atno 7974 bound_to 7965
  156.0966  140.1432  156.9523 H   0  0  0  0  0  0  0  0  0  0  0  0  # atno 8008 bound_to 7997
  154.4675  140.0921  156.7105 H   0  0  0  0  0  0  0  0  0  0  0  0  # atno 8009 bound_to 7997
  155.4831  140.3445  155.4345 H   0  0  0  0  0  0  0  0  0  0  0  0  # atno 8010 bound_to 7997
  139.5801  144.1442  152.1504 H   0  0  0  0  0  0  0  0  0  0  0  0  # atno 10167 bound_to 10162
  157.6799  130.9949  150.2046 H   0  0  0  0  0  0  0  0  0  0  0  0  # atno 10718 bound_to 10713
  154.8665  135.3647  154.5199 H   0  0  0  0  0  0  0  0  0  0  0  0  # atno 10763 bound_to 10752
  153.5829  135.7018  153.5460 H   0  0  0  0  0  0  0  0  0  0  0  0  # atno 10764 bound_to 10752
  153.3441  135.4090  155.1557 H   0  0  0  0  0  0  0  0  0  0  0  0  # atno 10765 bound_to 10752
  140.6696  133.9248  155.8486 H   0  0  0  0  0  0  0  0  0  0  0  0  # atno 11005 bound_to 11000
  145.2886  141.0160  143.3676 LP  0  0  0  0  0  0  0  0  0  0  0  0  # atno 17320 bound_to 7965
  144.9094  139.4547  143.6594 LP  0  0  0  0  0  0  0  0  0  0  0  0  # atno 17321 bound_to 7965
  140.0994  144.5553  150.6999 LP  0  0  0  0  0  0  0  0  0  0  0  0  # atno 17342 bound_to 10162
  140.7080  143.2483  151.4667 LP  0  0  0  0  0  0  0  0  0  0  0  0  # atno 17343 bound_to 10162
  156.2730  130.3724  149.8012 LP  0  0  0  0  0  0  0  0  0  0  0  0  # atno 17370 bound_to 10713
  156.5724  130.8430  151.3360 LP  0  0  0  0  0  0  0  0  0  0  0  0  # atno 17371 bound_to 10713
  141.0402  134.0632  157.3911 LP  0  0  0  0  0  0  0  0  0  0  0  0  # atno 17394 bound_to 11000
  139.8986  135.0155  156.7155 LP  0  0  0  0  0  0  0  0  0  0  0  0  # atno 17395 bound_to 11000

$$$$
