AV-unprocessed.smi:278|AV-procd|sdf|2094|dock3
  -GOLD-   2262021373D 1   1.00000     0.00000
 Structure written by MMmdl.
 50 54  0  0  0  0  0  0  0  0  1 V2000
  150.7550  131.4586  157.5585 O   0  0  0  0  0  0  0  0  0  0  0  0
  151.2532  132.5405  156.6957 S   0  0  0  0  0  0  0  0  0  0  0  0
  152.4213  133.3415  157.0937 O   0  0  0  0  0  0  0  0  0  0  0  0
  151.5308  131.8767  155.0075 C   0  0  0  0  0  0  0  0  0  0  0  0
  150.3418  132.3460  154.1588 C   0  0  0  0  0  0  0  0  0  0  0  0
  149.8115  133.6765  154.7236 C   0  0  2  0  0  0  0  0  0  0  0  0
  150.6895  134.8883  154.3924 C   0  0  0  0  0  0  0  0  0  0  0  0
  150.4931  135.8135  155.4994 N   0  0  0  0  0  0  0  0  0  0  0  0
  151.2227  136.9553  155.6031 C   0  0  0  0  0  0  0  0  0  0  0  0
  152.2408  137.1615  154.7255 N   0  0  0  0  0  0  0  0  0  0  0  0
  152.9810  138.2718  154.7903 C   0  0  0  0  0  0  0  0  0  0  0  0
  152.8744  139.2967  155.6368 N   0  0  0  0  0  0  0  0  0  0  0  0
  151.8480  139.1058  156.5135 C   0  0  0  0  0  0  0  0  0  0  0  0
  150.9793  137.9776  156.5683 C   0  0  0  0  0  0  0  0  0  0  0  0
  150.0513  138.1553  157.5898 N   0  0  0  0  0  0  0  0  0  0  0  0
  150.3576  139.3121  158.1096 C   0  0  0  0  0  0  0  0  0  0  0  0
  151.4231  139.9523  157.5213 N   0  0  0  0  0  0  0  0  0  0  0  0
  151.9735  141.2452  157.8868 C   0  0  0  0  0  0  0  0  0  0  0  0
  152.5322  141.2580  159.3232 C   0  0  1  0  0  0  0  0  0  0  0  0
  153.9097  140.9317  159.3286 O   0  0  0  0  0  0  0  0  0  0  0  0
  152.3006  142.5996  160.0466 C   0  0  1  0  0  0  0  0  0  0  0  0
  153.0446  143.8126  159.4614 C   0  0  0  0  0  0  0  0  0  0  0  0
  151.9318  144.7873  159.1196 C   0  0  0  0  0  0  0  0  0  0  0  0
  150.8086  144.3537  160.0523 C   0  0  0  0  0  0  0  0  0  0  0  0
  150.9167  142.9399  160.0466 O   0  0  0  0  0  0  0  0  0  0  0  0
  150.0493  135.0974  156.6880 C   0  0  0  0  0  0  0  0  0  0  0  0
  149.8410  133.6395  156.2526 C   0  0  2  0  0  0  0  0  0  0  0  0
  148.7958  133.8699  154.3758 H   0  0  0  0  0  0  0  0  0  0  0  0
  148.9322  133.2065  156.6711 H   0  0  0  0  0  0  0  0  0  0  0  0
  152.4645  132.2956  154.6318 H   0  0  0  0  0  0  0  0  0  0  0  0
  151.6275  130.7914  155.0406 H   0  0  0  0  0  0  0  0  0  0  0  0
  150.6050  132.4262  153.1037 H   0  0  0  0  0  0  0  0  0  0  0  0
  149.5489  131.6007  154.2301 H   0  0  0  0  0  0  0  0  0  0  0  0
  151.7428  134.6099  154.3398 H   0  0  0  0  0  0  0  0  0  0  0  0
  150.4071  135.3376  153.4399 H   0  0  0  0  0  0  0  0  0  0  0  0
  153.7704  138.3508  154.0575 H   0  0  0  0  0  0  0  0  0  0  0  0
  149.8076  139.7353  158.9376 H   0  0  0  0  0  0  0  0  0  0  0  0
  152.7507  141.5078  157.1679 H   0  0  0  0  0  0  0  0  0  0  0  0
  151.1858  141.9922  157.7819 H   0  0  0  0  0  0  0  0  0  0  0  0
  152.0275  140.4791  159.8961 H   0  0  0  0  0  0  0  0  0  0  0  0
  154.2544  141.0847  158.4619 H   0  0  0  0  0  0  0  0  0  0  0  0
  152.5992  142.4883  161.0904 H   0  0  0  0  0  0  0  0  0  0  0  0
  153.7044  144.2420  160.2163 H   0  0  0  0  0  0  0  0  0  0  0  0
  153.6565  143.5738  158.5909 H   0  0  0  0  0  0  0  0  0  0  0  0
  152.2197  145.8303  159.2533 H   0  0  0  0  0  0  0  0  0  0  0  0
  151.6237  144.6486  158.0825 H   0  0  0  0  0  0  0  0  0  0  0  0
  150.9726  144.7301  161.0632 H   0  0  0  0  0  0  0  0  0  0  0  0
  149.8265  144.6843  159.7140 H   0  0  0  0  0  0  0  0  0  0  0  0
  150.7561  135.1813  157.5137 H   0  0  0  0  0  0  0  0  0  0  0  0
  149.1029  135.5285  157.0154 H   0  0  0  0  0  0  0  0  0  0  0  0
  1  2  2  0  0  0  0
  2 27  1  0  0  0  0
  2  3  2  0  0  0  0
  2  4  1  0  0  0  0
  4  5  1  0  0  0  0
  4 30  1  0  0  0  0
  4 31  1  0  0  0  0
  5  6  1  0  0  0  0
  5 32  1  0  0  0  0
  5 33  1  0  0  0  0
  6 28  1  0  0  0  0
  6 27  1  0  0  0  0
  6  7  1  0  0  0  0
  7  8  1  0  0  0  0
  7 34  1  0  0  0  0
  7 35  1  0  0  0  0
  8  9  1  0  0  0  0
  8 26  1  0  0  0  0
  9 14  1  0  0  0  0
  9 10  2  0  0  0  0
 10 11  1  0  0  0  0
 11 12  2  0  0  0  0
 11 36  1  0  0  0  0
 12 13  1  0  0  0  0
 13 17  1  0  0  0  0
 13 14  2  0  0  0  0
 14 15  1  0  0  0  0
 15 16  2  0  0  0  0
 16 17  1  0  0  0  0
 16 37  1  0  0  0  0
 17 18  1  0  0  0  0
 18 19  1  0  0  0  0
 18 38  1  0  0  0  0
 18 39  1  0  0  0  0
 19 20  1  0  0  0  0
 19 21  1  0  0  0  0
 19 40  1  0  0  0  0
 20 41  1  0  0  0  0
 21 25  1  0  0  0  0
 21 22  1  0  0  0  0
 21 42  1  0  0  0  0
 22 23  1  0  0  0  0
 22 43  1  0  0  0  0
 22 44  1  0  0  0  0
 23 24  1  0  0  0  0
 23 45  1  0  0  0  0
 23 46  1  0  0  0  0
 24 25  1  0  0  0  0
 24 47  1  0  0  0  0
 24 48  1  0  0  0  0
 26 27  1  0  0  0  0
 26 49  1  0  0  0  0
 26 50  1  0  0  0  0
 27 29  1  0  0  0  0
M  END
> <s_m_source_file>
AV-unprocessed.smi

> <i_m_source_file_index>
278

> <i_lp_mmshare_version>
43012

> <i_f3d_flags>
0

> <s_epik_input>
W0NIMl0xW0NIMl1TKD1PKSg9TylbQ0BASF0oW0NAQEhdMTIpW0NIMl1OKFtDSDJdMiljKG5bY0hdbjMpYyhjMzQpbltjSF1uNFtDSDJdW0NASF0oW09IXSlbQ0BASF01W0NIMl1bQ0gyXVtDSDJdTzU=

> <s_epik_cmdline>
J2VwaWtfcHl0aG9uJywgJy1waCcsICc3LjAnLCAnLXRuJywgJzgnLCAnLW1hJywgJzIwMCcsICctbWV0YWxfYmluZGluZycsICctaW1hZScsICc8aW5maWxlLm1hZT4nLCAnLW9tYWUnLCAnPG91dGZpbGUubWFlPic=

> <r_lp_tautomer_probability>
1

> <r_epik_Ionization_Penalty>
0.000636766

> <r_epik_Ionization_Penalty_Charging>
0

> <r_epik_Ionization_Penalty_Neutral>
0.000636766

> <r_epik_State_Penalty>
0.000329976

> <r_epik_Charging_Adjusted_Penalty>
0.000329976

> <i_epik_Tot_Q>
0

> <i_epik_Tot_abs_Q>
0

> <r_epik_Metal_State_Penalty>
-0

> <b_epik_Metal_Only>
0

> <s_lp_Force_Field>
OPLS_2005

> <r_lp_Energy>
51.0774

> <b_lp_Chiralities_Consistent>
1

> <s_lp_Variant>
AV-unprocessed.smi:278-8

> <Gold.Version>
5.8.1

> <Gold.Id.Protein>
6NUR|6NUR_protein|mol2

> <Gold.PLP.Fitness>
49.9952

> <Gold.PLP.PLP>
-43.3871

> <Gold.PLP.part.hbond>
-4.0000

> <Gold.PLP.part.metal>
0.0000

> <Gold.PLP.part.buried>
-6.5230

> <Gold.PLP.part.nonpolar>
-34.0924

> <Gold.PLP.part.repulsive>
0.1485

> <Gold.PLP.ligand.clash>
0.0000

> <Gold.PLP.ligand.torsion>
0.7901

> <Gold.PLP.Chemscore.Hbond>
2.6400

> <Gold.PLP.Chemscore.CHOScore>
0.0000

> <Gold.PLP.Chemscore.Metal>
0.0000

> <Gold.Chemscore.Hbonds>
donor molecule, donor type, donor heavy atom, donor atom, acceptor molecule, acceptor atom, score
      P1  H  6896  6908       L1     3  0.02
      P1  H  7997  8008       L1    12  0.94
      P1  H 10752 10765       L1    10  0.80

> <Gold.PLP.Chemscore.Internal.Correction>
0.2684

> <Gold.Rescore>
     Score         DG    S(hbond)    S(metal)    S(lipo)     H(rot)  DE(clash)    DE(int)     intcor
     18.01     -19.21       2.37        0.00      96.39       2.13       0.16       1.04       ----

> <Gold.Chemscore.Fitness>
18.0114

> <Gold.Chemscore.DG>
-19.2125

> <Gold.Chemscore.ZeroCoef>
-5.4800

> <Gold.Chemscore.Hbond>
2.3711

> <Gold.Chemscore.Metal>
0.0000

> <Gold.Chemscore.Lipo>
96.3888

> <Gold.Chemscore.Internal_Hbond>
0.0000

> <Gold.Chemscore.DEClash>
0.1595

> <Gold.Chemscore.DEInternal>
1.0415

> <Gold.Chemscore.Rot>
2.1346

> <Gold.Chemscore.Internal.Correction>
   9.000000E+99

> <Gold.Chemscore.Hbonds>
donor molecule, donor type, donor heavy atom, donor atom, acceptor molecule, acceptor atom, score
      P1  H  7997  8008       L1    12  0.71
      P1  H 10752 10765       L1    10  0.39

> <Gold.Chemscore.Hbond.Weighted>
-7.9196

> <Gold.Chemscore.Metal.Weighted>
-0.0000

> <Gold.Chemscore.Lipo.Weighted>
-11.2775

> <Gold.Chemscore.Internal_Hbond.Weighted>
0.0000

> <Gold.Chemscore.DEClash.Weighted>
0.1595

> <Gold.Chemscore.DEInternal.Weighted>
1.0415

> <Gold.Chemscore.Rot.Weighted>
5.4646

> <Gold.Chemscore.Internal.Correction.Weighted>
   9.000000E+99

> <Gold.Protein.RotatedTorsions>
[ 6907 6896 6895 6894 ] final   78.86 input  -60.11 | X-H torsion
[ 7974 7965 7964 7962 ] final   42.81 input  175.53 | X-H torsion
[ 8008 7997 7996 7995 ] final  -53.59 input   59.86 | X-H torsion
[ 10167 10162 10161 10158 ] final  104.44 input  -65.29 | X-H torsion
[ 10718 10713 10712 10709 ] final   14.45 input   66.30 | X-H torsion
[ 10763 10752 10751 10750 ] final  177.15 input  -60.55 | X-H torsion
[ 11005 11000 10999 10996 ] final  -46.34 input  -57.11 | X-H torsion

> <Gold.Protein.ActiveResidues>
 VAL166  LYS551  ARG553  GLY616  TRP617  ASP618  TYR619  PRO620  LYS621  CYS622 
 ASP623  PHE694  ASN695  SER759  ASP760  ASP761  ALA762  ILE779  LEU786  VAL792 
 PHE793  MET794  SER795  GLU796  ALA797  LYS798  CYS799  TRP800  GLU811  SER814 

> <Gold.Protein.RotatedAtoms>
  152.5176  134.3600  159.9280 H   0  0  0  0  0  0  0  0  0  0  0  0  # atno 6907 bound_to 6896
  151.3552  133.3904  159.2692 H   0  0  0  0  0  0  0  0  0  0  0  0  # atno 6908 bound_to 6896
  150.9695  134.9089  159.7838 H   0  0  0  0  0  0  0  0  0  0  0  0  # atno 6909 bound_to 6896
  146.0709  139.5258  142.9598 H   0  0  0  0  0  0  0  0  0  0  0  0  # atno 7974 bound_to 7965
  154.4138  140.1196  156.5179 H   0  0  0  0  0  0  0  0  0  0  0  0  # atno 8008 bound_to 7997
  155.6732  140.3496  155.4807 H   0  0  0  0  0  0  0  0  0  0  0  0  # atno 8009 bound_to 7997
  155.9615  140.1124  157.0882 H   0  0  0  0  0  0  0  0  0  0  0  0  # atno 8010 bound_to 7997
  139.7177  144.7065  151.0923 H   0  0  0  0  0  0  0  0  0  0  0  0  # atno 10167 bound_to 10162
  157.0393  130.6224  149.5748 H   0  0  0  0  0  0  0  0  0  0  0  0  # atno 10718 bound_to 10713
  154.4907  135.2779  155.1499 H   0  0  0  0  0  0  0  0  0  0  0  0  # atno 10763 bound_to 10752
  154.3172  135.6217  153.5495 H   0  0  0  0  0  0  0  0  0  0  0  0  # atno 10764 bound_to 10752
  152.9887  135.5734  154.5327 H   0  0  0  0  0  0  0  0  0  0  0  0  # atno 10765 bound_to 10752
  141.0573  133.6721  156.3141 H   0  0  0  0  0  0  0  0  0  0  0  0  # atno 11005 bound_to 11000
  145.6393  141.0287  143.1820 LP  0  0  0  0  0  0  0  0  0  0  0  0  # atno 17320 bound_to 7965
  144.7231  139.7964  143.7375 LP  0  0  0  0  0  0  0  0  0  0  0  0  # atno 17321 bound_to 7965
  140.7747  143.5207  150.9540 LP  0  0  0  0  0  0  0  0  0  0  0  0  # atno 17342 bound_to 10162
  139.8894  143.6972  152.3147 LP  0  0  0  0  0  0  0  0  0  0  0  0  # atno 17343 bound_to 10162
  156.0043  130.5128  150.7776 LP  0  0  0  0  0  0  0  0  0  0  0  0  # atno 17370 bound_to 10713
  157.5117  131.0926  151.0190 LP  0  0  0  0  0  0  0  0  0  0  0  0  # atno 17371 bound_to 10713
  140.5939  134.5623  157.5505 LP  0  0  0  0  0  0  0  0  0  0  0  0  # atno 17394 bound_to 11000
  139.9401  134.7802  156.0700 LP  0  0  0  0  0  0  0  0  0  0  0  0  # atno 17395 bound_to 11000

$$$$
