AV-unprocessed.smi:2252|AV-procd|sdf|9109|dock1
  -GOLD-   2272012313D 1   1.00000     0.00000
 Structure written by MMmdl.
 45 47  0  0  0  0  0  0  0  0  4 V2000
  152.7251  142.2409  161.8495 C   0  0  0  0  0  0  0  0  0  0  0  0
  152.3310  142.7436  160.5311 N   0  0  0  0  0  0  0  0  0  0  0  0
  152.1703  144.0588  160.1773 C   0  0  0  0  0  0  0  0  0  0  0  0
  151.7938  144.0691  158.8600 C   0  0  0  0  0  0  0  0  0  0  0  0
  151.7408  142.7610  158.4632 N   0  3  0  0  0  0  0  0  0  0  0  0
  152.0714  141.9488  159.4766 C   0  0  0  0  0  0  0  0  0  0  0  0
  152.1253  140.4480  159.4080 C   0  0  0  0  0  0  0  0  0  0  0  0
  151.4819  139.8527  158.1408 C   0  0  0  0  0  0  0  0  0  0  0  0
  152.3623  140.0726  156.9985 N   0  5  0  0  0  0  0  0  0  0  0  0
  152.0765  139.6706  155.7299 C   0  0  0  0  0  0  0  0  0  0  0  0
  152.7632  139.7115  154.7030 O   0  0  0  0  0  0  0  0  0  0  0  0
  150.6534  139.0893  155.6325 C   0  0  2  0  0  0  0  0  0  0  0  0
  150.7448  137.6211  155.1621 C   0  0  0  0  0  0  0  0  0  0  0  0
  149.8478  136.5509  155.7454 C   0  0  0  0  0  0  0  0  0  0  0  0
  151.3197  136.5539  156.0688 C   0  0  0  0  0  0  0  0  0  0  0  0
  149.8000  139.9027  154.7231 N   0  3  0  0  0  0  0  0  0  0  0  0
  148.5133  139.2797  154.3339 C   0  0  0  0  0  0  0  0  0  0  0  0
  147.5249  140.4238  154.0619 C   0  0  0  0  0  0  0  0  0  0  0  0
  148.3067  141.7096  154.3288 C   0  0  0  0  0  0  0  0  0  0  0  0
  149.4671  141.2588  155.2089 C   0  0  0  0  0  0  0  0  0  0  0  0
  152.8961  143.0798  162.5246 H   0  0  0  0  0  0  0  0  0  0  0  0
  153.6439  141.6611  161.7574 H   0  0  0  0  0  0  0  0  0  0  0  0
  151.9290  141.6128  162.2502 H   0  0  0  0  0  0  0  0  0  0  0  0
  152.3312  144.8704  160.8721 H   0  0  0  0  0  0  0  0  0  0  0  0
  151.5655  144.8871  158.1924 H   0  0  0  0  0  0  0  0  0  0  0  0
  153.1722  140.1543  159.4889 H   0  0  0  0  0  0  0  0  0  0  0  0
  151.6224  140.0781  160.3029 H   0  0  0  0  0  0  0  0  0  0  0  0
  151.2990  138.7897  158.3000 H   0  0  0  0  0  0  0  0  0  0  0  0
  150.4990  140.3065  158.0061 H   0  0  0  0  0  0  0  0  0  0  0  0
  150.1766  139.1018  156.6160 H   0  0  0  0  0  0  0  0  0  0  0  0
  150.9965  137.5140  154.1083 H   0  0  0  0  0  0  0  0  0  0  0  0
  149.1627  136.8366  156.5408 H   0  0  0  0  0  0  0  0  0  0  0  0
  149.4825  135.7800  155.0702 H   0  0  0  0  0  0  0  0  0  0  0  0
  151.9390  135.7865  155.6090 H   0  0  0  0  0  0  0  0  0  0  0  0
  151.6109  136.8468  157.0758 H   0  0  0  0  0  0  0  0  0  0  0  0
  148.6491  138.6403  153.4611 H   0  0  0  0  0  0  0  0  0  0  0  0
  148.1294  138.6600  155.1457 H   0  0  0  0  0  0  0  0  0  0  0  0
  147.1376  140.3966  153.0428 H   0  0  0  0  0  0  0  0  0  0  0  0
  146.6734  140.3496  154.7392 H   0  0  0  0  0  0  0  0  0  0  0  0
  148.6935  142.1059  153.3889 H   0  0  0  0  0  0  0  0  0  0  0  0
  147.7000  142.4865  154.7949 H   0  0  0  0  0  0  0  0  0  0  0  0
  149.1465  141.2080  156.2510 H   0  0  0  0  0  0  0  0  0  0  0  0
  150.3157  141.9408  155.1472 H   0  0  0  0  0  0  0  0  0  0  0  0
  150.3238  140.0327  153.8696 H   0  0  0  0  0  0  0  0  0  0  0  0
  151.4934  142.4457  157.5335 H   0  0  0  0  0  0  0  0  0  0  0  0
  1  2  1  0  0  0  0
  1 21  1  0  0  0  0
  1 22  1  0  0  0  0
  1 23  1  0  0  0  0
  2  6  1  0  0  0  0
  2  3  1  0  0  0  0
  3  4  2  0  0  0  0
  3 24  1  0  0  0  0
  4  5  1  0  0  0  0
  4 25  1  0  0  0  0
  5  6  2  0  0  0  0
  5 45  1  0  0  0  0
  6  7  1  0  0  0  0
  7  8  1  0  0  0  0
  7 26  1  0  0  0  0
  7 27  1  0  0  0  0
  8  9  1  0  0  0  0
  8 28  1  0  0  0  0
  8 29  1  0  0  0  0
  9 10  1  0  0  0  0
 10 11  2  0  0  0  0
 10 12  1  0  0  0  0
 12 13  1  0  0  0  0
 12 16  1  0  0  0  0
 12 30  1  0  0  0  0
 13 15  1  0  0  0  0
 13 14  1  0  0  0  0
 13 31  1  0  0  0  0
 14 15  1  0  0  0  0
 14 32  1  0  0  0  0
 14 33  1  0  0  0  0
 15 34  1  0  0  0  0
 15 35  1  0  0  0  0
 16 20  1  0  0  0  0
 16 17  1  0  0  0  0
 16 44  1  0  0  0  0
 17 18  1  0  0  0  0
 17 36  1  0  0  0  0
 17 37  1  0  0  0  0
 18 19  1  0  0  0  0
 18 38  1  0  0  0  0
 18 39  1  0  0  0  0
 19 20  1  0  0  0  0
 19 40  1  0  0  0  0
 19 41  1  0  0  0  0
 20 42  1  0  0  0  0
 20 43  1  0  0  0  0
M  CHG  1   5   1
M  CHG  1   9  -1
M  CHG  1  16   1
M  END
> <s_m_source_file>
AV-unprocessed.smi

> <i_m_source_file_index>
2252

> <i_lp_mmshare_version>
43012

> <i_f3d_flags>
0

> <s_epik_input>
W0NIM11uMVtjSF1bY0hdbmMxW0NIMl1bQ0gyXVtOSF1DKD1PKVtDQEhdKFtDSF0yW0NIMl1bQ0gyXTIpTjNbQ0gyXVtDSDJdW0NIMl1bQ0gyXTM=

> <s_epik_cmdline>
J2VwaWtfcHl0aG9uJywgJy1waCcsICc3LjAnLCAnLXRuJywgJzgnLCAnLW1hJywgJzIwMCcsICctbWV0YWxfYmluZGluZycsICctaW1hZScsICc8aW5maWxlLm1hZT4nLCAnLW9tYWUnLCAnPG91dGZpbGUubWFlPic=

> <r_lp_tautomer_probability>
1

> <r_epik_Ionization_Penalty>
5.88052

> <r_epik_Ionization_Penalty_Charging>
5.85424

> <r_epik_Ionization_Penalty_Neutral>
0.026272

> <r_epik_State_Penalty>
5.94961

> <r_epik_Charging_Adjusted_Penalty>
11.8039

> <i_epik_Tot_Q>
1

> <i_epik_Tot_abs_Q>
3

> <r_epik_Metal_State_Penalty>
2.20001

> <b_epik_Metal_Only>
1

> <s_lp_Force_Field>
OPLS_2005

> <r_lp_Energy>
29.4432

> <b_lp_Chiralities_Consistent>
1

> <s_lp_Variant>
AV-unprocessed.smi:2252-7

> <Gold.Version>
5.8.1

> <Gold.Id.Protein>
6NUR|6NUR_protein|mol2

> <Gold.PLP.Fitness>
49.7536

> <Gold.PLP.PLP>
-43.0652

> <Gold.PLP.part.hbond>
-2.5072

> <Gold.PLP.part.metal>
0.0000

> <Gold.PLP.part.buried>
-3.3971

> <Gold.PLP.part.nonpolar>
-37.6485

> <Gold.PLP.part.repulsive>
0.2070

> <Gold.PLP.ligand.clash>
0.0116

> <Gold.PLP.ligand.torsion>
0.9214

> <Gold.PLP.Chemscore.Hbond>
2.3872

> <Gold.PLP.Chemscore.CHOScore>
0.0000

> <Gold.PLP.Chemscore.Metal>
0.0000

> <Gold.Chemscore.Hbonds>
donor molecule, donor type, donor heavy atom, donor atom, acceptor molecule, acceptor atom, score
      P1  H  7989  7998       L1    11  0.46
      P1  H  7997  8008       L1     9  1.36

> <Gold.PLP.Chemscore.Internal.Correction>
1.3813

> <Gold.Rescore>
     Score         DG    S(hbond)    S(metal)    S(lipo)     H(rot)  DE(clash)    DE(int)     intcor
     12.48     -13.60       0.80        0.00      89.84       1.98       0.10       1.02       ----

> <Gold.Chemscore.Fitness>
12.4777

> <Gold.Chemscore.DG>
-13.5968

> <Gold.Chemscore.ZeroCoef>
-5.4800

> <Gold.Chemscore.Hbond>
0.8012

> <Gold.Chemscore.Metal>
0.0000

> <Gold.Chemscore.Lipo>
89.8446

> <Gold.Chemscore.Internal_Hbond>
0.0000

> <Gold.Chemscore.DEClash>
0.0991

> <Gold.Chemscore.DEInternal>
1.0200

> <Gold.Chemscore.Rot>
1.9809

> <Gold.Chemscore.Internal.Correction>
   9.000000E+99

> <Gold.Chemscore.Hbonds>
donor molecule, donor type, donor heavy atom, donor atom, acceptor molecule, acceptor atom, score
      P1  H  7989  7998       L1    11  0.18
      P1  H  7997  8008       L1     9  0.08

> <Gold.Chemscore.Hbond.Weighted>
-2.6761

> <Gold.Chemscore.Metal.Weighted>
-0.0000

> <Gold.Chemscore.Lipo.Weighted>
-10.5118

> <Gold.Chemscore.Internal_Hbond.Weighted>
0.0000

> <Gold.Chemscore.DEClash.Weighted>
0.0991

> <Gold.Chemscore.DEInternal.Weighted>
1.0200

> <Gold.Chemscore.Rot.Weighted>
5.0711

> <Gold.Chemscore.Internal.Correction.Weighted>
   9.000000E+99

> <Gold.Protein.RotatedTorsions>
[ 6907 6896 6895 6894 ] final   59.87 input  -60.11 | X-H torsion
[ 7974 7965 7964 7962 ] final   79.31 input  175.53 | X-H torsion
[ 8008 7997 7996 7995 ] final  -67.34 input   59.86 | X-H torsion
[ 10167 10162 10161 10158 ] final   24.35 input  -65.29 | X-H torsion
[ 10718 10713 10712 10709 ] final  -56.88 input   66.30 | X-H torsion
[ 10763 10752 10751 10750 ] final  -95.94 input  -60.55 | X-H torsion
[ 11005 11000 10999 10996 ] final  121.08 input  -57.11 | X-H torsion

> <Gold.Protein.ActiveResidues>
 VAL166  LYS551  ARG553  GLY616  TRP617  ASP618  TYR619  PRO620  LYS621  CYS622 
 ASP623  PHE694  ASN695  SER759  ASP760  ASP761  ALA762  ILE779  LEU786  VAL792 
 PHE793  MET794  SER795  GLU796  ALA797  LYS798  CYS799  TRP800  GLU811  SER814 

> <Gold.Protein.RotatedAtoms>
  152.3953  134.6375  160.0091 H   0  0  0  0  0  0  0  0  0  0  0  0  # atno 6907 bound_to 6896
  151.6597  133.3312  159.3179 H   0  0  0  0  0  0  0  0  0  0  0  0  # atno 6908 bound_to 6896
  150.7862  134.6891  159.6531 H   0  0  0  0  0  0  0  0  0  0  0  0  # atno 6909 bound_to 6896
  145.6658  139.2483  143.1896 H   0  0  0  0  0  0  0  0  0  0  0  0  # atno 7974 bound_to 7965
  154.4793  140.0894  156.7339 H   0  0  0  0  0  0  0  0  0  0  0  0  # atno 8008 bound_to 7997
  155.4512  140.3457  155.4283 H   0  0  0  0  0  0  0  0  0  0  0  0  # atno 8009 bound_to 7997
  156.1167  140.1462  156.9251 H   0  0  0  0  0  0  0  0  0  0  0  0  # atno 8010 bound_to 7997
  140.5195  144.0026  150.6410 H   0  0  0  0  0  0  0  0  0  0  0  0  # atno 10167 bound_to 10162
  156.1254  130.4163  150.0364 H   0  0  0  0  0  0  0  0  0  0  0  0  # atno 10718 bound_to 10713
  154.7194  135.5102  153.8788 H   0  0  0  0  0  0  0  0  0  0  0  0  # atno 10763 bound_to 10752
  153.0849  135.6642  153.9978 H   0  0  0  0  0  0  0  0  0  0  0  0  # atno 10764 bound_to 10752
  153.9804  135.3029  155.3400 H   0  0  0  0  0  0  0  0  0  0  0  0  # atno 10765 bound_to 10752
  139.9211  134.9637  156.7904 H   0  0  0  0  0  0  0  0  0  0  0  0  # atno 11005 bound_to 11000
  146.1087  140.7455  142.9514 LP  0  0  0  0  0  0  0  0  0  0  0  0  # atno 17320 bound_to 7965
  144.7073  140.3904  143.7108 LP  0  0  0  0  0  0  0  0  0  0  0  0  # atno 17321 bound_to 7965
  140.3371  143.3042  152.0627 LP  0  0  0  0  0  0  0  0  0  0  0  0  # atno 17342 bound_to 10162
  139.4919  144.6469  151.6760 LP  0  0  0  0  0  0  0  0  0  0  0  0  # atno 17343 bound_to 10162
  156.8291  130.9386  151.3638 LP  0  0  0  0  0  0  0  0  0  0  0  0  # atno 17370 bound_to 10713
  157.6436  130.8826  149.9495 LP  0  0  0  0  0  0  0  0  0  0  0  0  # atno 17371 bound_to 10713
  140.6472  133.9764  155.7737 LP  0  0  0  0  0  0  0  0  0  0  0  0  # atno 17394 bound_to 11000
  141.0732  134.0174  157.3496 LP  0  0  0  0  0  0  0  0  0  0  0  0  # atno 17395 bound_to 11000

$$$$
