AV-unprocessed.smi:218|AV-procd|sdf|1677|dock9
  -GOLD-   2262020103D 1   1.00000     0.00000
 Structure written by MMmdl.
 54 57  0  0  0  0  0  0  0  0  1 V2000
  156.2494  141.7114  165.2849 C   0  0  0  0  0  0  0  0  0  0  0  0
  155.3837  140.5979  164.6834 C   0  0  0  0  0  0  0  0  0  0  0  0
  155.6757  139.2436  165.3523 C   0  0  0  0  0  0  0  0  0  0  0  0
  155.6936  140.5406  163.2897 O   0  0  0  0  0  0  0  0  0  0  0  0
  155.0174  139.6636  162.4637 C   0  0  0  0  0  0  0  0  0  0  0  0
  154.4069  140.1781  161.3022 C   0  0  0  0  0  0  0  0  0  0  0  0
  153.7189  139.2950  160.4436 C   0  0  0  0  0  0  0  0  0  0  0  0
  153.0523  139.7990  159.1741 C   0  0  0  0  0  0  0  0  0  0  0  0
  152.3955  138.7686  158.3762 N   0  0  0  0  0  0  0  0  0  0  0  0
  151.9505  139.0514  157.1322 C   0  0  0  0  0  0  0  0  0  0  0  0
  152.4917  138.4515  156.0394 N   0  0  0  0  0  0  0  0  0  0  0  0
  152.0322  138.7445  154.8190 C   0  0  0  0  0  0  0  0  0  0  0  0
  151.0548  139.5870  154.4746 N   0  0  0  0  0  0  0  0  0  0  0  0
  150.5068  140.1868  155.5708 C   0  0  0  0  0  0  0  0  0  0  0  0
  150.8957  139.9763  156.9223 C   0  0  0  0  0  0  0  0  0  0  0  0
  150.1193  140.7637  157.7625 N   0  0  0  0  0  0  0  0  0  0  0  0
  149.3186  141.3995  156.9492 C   0  0  0  0  0  0  0  0  0  0  0  0
  149.4837  141.1076  155.6115 N   0  0  0  0  0  0  0  0  0  0  0  0
  148.7466  141.6426  154.4263 C   0  0  1  0  0  0  0  0  0  0  0  0
  148.6153  140.6035  153.4989 O   0  0  0  0  0  0  0  0  0  0  0  0
  147.2444  140.2580  153.3074 C   0  0  1  0  0  0  0  0  0  0  0  0
  147.1152  138.7393  153.1100 C   0  0  0  0  0  0  0  0  0  0  0  0
  147.4966  138.3771  151.8000 O   0  0  0  0  0  0  0  0  0  0  0  0
  146.5351  140.8067  154.5474 C   0  0  2  0  0  0  0  0  0  0  0  0
  145.1610  141.0719  154.3407 O   0  0  0  0  0  0  0  0  0  0  0  0
  147.3355  142.0644  154.8528 C   0  0  2  0  0  0  0  0  0  0  0  0
  146.9043  143.1960  154.1188 O   0  0  0  0  0  0  0  0  0  0  0  0
  153.6583  137.9308  160.7897 C   0  0  0  0  0  0  0  0  0  0  0  0
  154.2944  137.5107  161.9737 C   0  0  0  0  0  0  0  0  0  0  0  0
  154.9595  138.3498  162.7955 N   0  0  0  0  0  0  0  0  0  0  0  0
  149.3748  142.4526  154.0529 H   0  0  0  0  0  0  0  0  0  0  0  0
  146.9064  140.7887  152.4153 H   0  0  0  0  0  0  0  0  0  0  0  0
  146.6416  140.1048  155.3758 H   0  0  0  0  0  0  0  0  0  0  0  0
  147.3044  142.3206  155.9131 H   0  0  0  0  0  0  0  0  0  0  0  0
  156.0610  141.8232  166.3529 H   0  0  0  0  0  0  0  0  0  0  0  0
  156.0374  142.6692  164.8093 H   0  0  0  0  0  0  0  0  0  0  0  0
  157.3114  141.5023  165.1524 H   0  0  0  0  0  0  0  0  0  0  0  0
  154.3413  140.8773  164.8438 H   0  0  0  0  0  0  0  0  0  0  0  0
  155.4834  139.2890  166.4244 H   0  0  0  0  0  0  0  0  0  0  0  0
  156.7175  138.9538  165.2130 H   0  0  0  0  0  0  0  0  0  0  0  0
  155.0545  138.4471  164.9437 H   0  0  0  0  0  0  0  0  0  0  0  0
  154.4737  141.2317  161.0741 H   0  0  0  0  0  0  0  0  0  0  0  0
  152.3331  140.5824  159.4173 H   0  0  0  0  0  0  0  0  0  0  0  0
  153.8165  140.2688  158.5549 H   0  0  0  0  0  0  0  0  0  0  0  0
  152.1072  137.9435  158.8819 H   0  0  0  0  0  0  0  0  0  0  0  0
  152.5165  138.2297  154.0023 H   0  0  0  0  0  0  0  0  0  0  0  0
  148.5812  142.1008  157.3106 H   0  0  0  0  0  0  0  0  0  0  0  0
  147.7669  138.2141  153.8086 H   0  0  0  0  0  0  0  0  0  0  0  0
  146.0971  138.4009  153.3029 H   0  0  0  0  0  0  0  0  0  0  0  0
  148.1858  138.9585  151.5153 H   0  0  0  0  0  0  0  0  0  0  0  0
  144.9052  140.6839  153.5173 H   0  0  0  0  0  0  0  0  0  0  0  0
  147.4839  143.9169  154.3129 H   0  0  0  0  0  0  0  0  0  0  0  0
  153.1416  137.2192  160.1627 H   0  0  0  0  0  0  0  0  0  0  0  0
  154.2695  136.4722  162.2683 H   0  0  0  0  0  0  0  0  0  0  0  0
  1  2  1  0  0  0  0
  1 35  1  0  0  0  0
  1 36  1  0  0  0  0
  1 37  1  0  0  0  0
  2  3  1  0  0  0  0
  2  4  1  0  0  0  0
  2 38  1  0  0  0  0
  3 39  1  0  0  0  0
  3 40  1  0  0  0  0
  3 41  1  0  0  0  0
  4  5  1  0  0  0  0
  5 30  1  0  0  0  0
  5  6  2  0  0  0  0
  6  7  1  0  0  0  0
  6 42  1  0  0  0  0
  7  8  1  0  0  0  0
  7 28  2  0  0  0  0
  8  9  1  0  0  0  0
  8 43  1  0  0  0  0
  8 44  1  0  0  0  0
  9 10  1  0  0  0  0
  9 45  1  0  0  0  0
 10 15  1  0  0  0  0
 10 11  2  0  0  0  0
 11 12  1  0  0  0  0
 12 13  2  0  0  0  0
 12 46  1  0  0  0  0
 13 14  1  0  0  0  0
 14 18  1  0  0  0  0
 14 15  2  0  0  0  0
 15 16  1  0  0  0  0
 16 17  2  0  0  0  0
 17 18  1  0  0  0  0
 17 47  1  0  0  0  0
 18 19  1  0  0  0  0
 19 31  1  0  0  0  0
 19 26  1  0  0  0  0
 19 20  1  0  0  0  0
 20 21  1  0  0  0  0
 21 32  1  0  0  0  0
 21 22  1  0  0  0  0
 21 24  1  0  0  0  0
 22 23  1  0  0  0  0
 22 48  1  0  0  0  0
 22 49  1  0  0  0  0
 23 50  1  0  0  0  0
 24 33  1  0  0  0  0
 24 25  1  0  0  0  0
 24 26  1  0  0  0  0
 25 51  1  0  0  0  0
 26 34  1  0  0  0  0
 26 27  1  0  0  0  0
 27 52  1  0  0  0  0
 28 29  1  0  0  0  0
 28 53  1  0  0  0  0
 29 30  2  0  0  0  0
 29 54  1  0  0  0  0
M  END
> <s_m_source_file>
AV-unprocessed.smi

> <i_m_source_file_index>
218

> <i_lp_mmshare_version>
43012

> <i_f3d_flags>
0

> <s_epik_input>
W0NIM11bQ0hdKFtDSDNdKU9jMVtjSF1jKFtjSF1bY0hdbjEpW0NIMl1bTkhdYyhuW2NIXW4yKWMoYzIzKW5bY0hdbjNbQ0BASF00T1tDQEhdKFtDSDJdW09IXSlbQ0BASF0oW09IXSlbQ0BIXTRbT0hd

> <s_epik_cmdline>
J2VwaWtfcHl0aG9uJywgJy1waCcsICc3LjAnLCAnLXRuJywgJzgnLCAnLW1hJywgJzIwMCcsICctbWV0YWxfYmluZGluZycsICctaW1hZScsICc8aW5maWxlLm1hZT4nLCAnLW9tYWUnLCAnPG91dGZpbGUubWFlPic=

> <r_lp_tautomer_probability>
1

> <r_epik_Ionization_Penalty>
0.00457014

> <r_epik_Ionization_Penalty_Charging>
0

> <r_epik_Ionization_Penalty_Neutral>
0.00457014

> <r_epik_State_Penalty>
-0

> <r_epik_Charging_Adjusted_Penalty>
0

> <i_epik_Tot_Q>
0

> <i_epik_Tot_abs_Q>
0

> <r_epik_Metal_State_Penalty>
-0

> <b_epik_Metal_Only>
0

> <s_epik_Chemistry_Notes>
This compound contains an acetal/aminal-like group ( X-CH(R)-Y where X, Y are N, S, or O) that may be acid/base labile, releasing an aldehyde.

> <s_lp_Force_Field>
OPLS_2005

> <r_lp_Energy>
38.234

> <b_lp_Chiralities_Consistent>
1

> <s_lp_Variant>
AV-unprocessed.smi:218-16

> <Gold.Version>
5.8.1

> <Gold.Id.Protein>
6NUR|6NUR_protein|mol2

> <Gold.PLP.Fitness>
54.0507

> <Gold.PLP.PLP>
-46.3109

> <Gold.PLP.part.hbond>
-7.5795

> <Gold.PLP.part.metal>
0.0000

> <Gold.PLP.part.buried>
-5.1791

> <Gold.PLP.part.nonpolar>
-36.8442

> <Gold.PLP.part.repulsive>
3.4886

> <Gold.PLP.ligand.clash>
0.0000

> <Gold.PLP.ligand.torsion>
1.5552

> <Gold.PLP.Chemscore.Hbond>
3.5936

> <Gold.PLP.Chemscore.CHOScore>
0.0000

> <Gold.PLP.Chemscore.Metal>
0.0000

> <Gold.Chemscore.Hbonds>
donor molecule, donor type, donor heavy atom, donor atom, acceptor molecule, acceptor atom, score
      L1  H    23    50       P1  7957  1.00
      L1  H    25    51       P1 10175  0.88
      L1  H    27    52       P1  8028  0.67
      P1  H  7989  7998       L1    13  1.00

> <Gold.PLP.Chemscore.Internal.Correction>
0.0693

> <Gold.Rescore>
     Score         DG    S(hbond)    S(metal)    S(lipo)     H(rot)  DE(clash)    DE(int)     intcor
      4.75     -10.41       2.51        0.00      77.84       4.90       1.27       4.39       ----

> <Gold.Chemscore.Fitness>
4.7539

> <Gold.Chemscore.DG>
-10.4087

> <Gold.Chemscore.ZeroCoef>
-5.4800

> <Gold.Chemscore.Hbond>
2.5069

> <Gold.Chemscore.Metal>
0.0000

> <Gold.Chemscore.Lipo>
77.8387

> <Gold.Chemscore.Internal_Hbond>
0.0000

> <Gold.Chemscore.DEClash>
1.2675

> <Gold.Chemscore.DEInternal>
4.3872

> <Gold.Chemscore.Rot>
4.9029

> <Gold.Chemscore.Internal.Correction>
   9.000000E+99

> <Gold.Chemscore.Hbonds>
donor molecule, donor type, donor heavy atom, donor atom, acceptor molecule, acceptor atom, score
      L1  H    23    50       P1  7957  0.74
      L1  H    25    51       P1 10175  0.82
      L1  H    27    52       P1  8028  0.06
      P1  H  7989  7998       L1    13  0.43

> <Gold.Chemscore.Hbond.Weighted>
-8.3731

> <Gold.Chemscore.Metal.Weighted>
-0.0000

> <Gold.Chemscore.Lipo.Weighted>
-9.1071

> <Gold.Chemscore.Internal_Hbond.Weighted>
0.0000

> <Gold.Chemscore.DEClash.Weighted>
1.2675

> <Gold.Chemscore.DEInternal.Weighted>
4.3872

> <Gold.Chemscore.Rot.Weighted>
12.5515

> <Gold.Chemscore.Internal.Correction.Weighted>
   9.000000E+99

> <Gold.Protein.RotatedTorsions>
[ 6907 6896 6895 6894 ] final  -72.74 input  -60.11 | X-H torsion
[ 7974 7965 7964 7962 ] final  123.18 input  175.53 | X-H torsion
[ 8008 7997 7996 7995 ] final -176.84 input   59.86 | X-H torsion
[ 10167 10162 10161 10158 ] final   61.00 input  -65.29 | X-H torsion
[ 10718 10713 10712 10709 ] final   69.05 input   66.30 | X-H torsion
[ 10763 10752 10751 10750 ] final  -51.08 input  -60.55 | X-H torsion
[ 11005 11000 10999 10996 ] final    9.12 input  -57.11 | X-H torsion

> <Gold.Protein.ActiveResidues>
 VAL166  LYS551  ARG553  GLY616  TRP617  ASP618  TYR619  PRO620  LYS621  CYS622 
 ASP623  PHE694  ASN695  SER759  ASP760  ASP761  ALA762  ILE779  LEU786  VAL792 
 PHE793  MET794  SER795  GLU796  ALA797  LYS798  CYS799  TRP800  GLU811  SER814 

> <Gold.Protein.RotatedAtoms>
  150.7157  134.5118  159.5610 H   0  0  0  0  0  0  0  0  0  0  0  0  # atno 6907 bound_to 6896
  152.2693  134.7947  160.0426 H   0  0  0  0  0  0  0  0  0  0  0  0  # atno 6908 bound_to 6896
  151.8633  133.3426  159.3747 H   0  0  0  0  0  0  0  0  0  0  0  0  # atno 6909 bound_to 6896
  145.0989  139.3533  143.4822 H   0  0  0  0  0  0  0  0  0  0  0  0  # atno 7974 bound_to 7965
  155.9997  140.1218  157.0559 H   0  0  0  0  0  0  0  0  0  0  0  0  # atno 8008 bound_to 7997
  154.4238  140.1109  156.5748 H   0  0  0  0  0  0  0  0  0  0  0  0  # atno 8009 bound_to 7997
  155.6229  140.3472  155.4660 H   0  0  0  0  0  0  0  0  0  0  0  0  # atno 8010 bound_to 7997
  140.1595  144.4384  150.6716 H   0  0  0  0  0  0  0  0  0  0  0  0  # atno 10167 bound_to 10162
  157.6324  130.9406  150.0461 H   0  0  0  0  0  0  0  0  0  0  0  0  # atno 10718 bound_to 10713
  154.1208  135.6535  153.4902 H   0  0  0  0  0  0  0  0  0  0  0  0  # atno 10763 bound_to 10752
  153.0226  135.5269  154.7099 H   0  0  0  0  0  0  0  0  0  0  0  0  # atno 10764 bound_to 10752
  154.6306  135.2975  155.0191 H   0  0  0  0  0  0  0  0  0  0  0  0  # atno 10765 bound_to 10752
  140.5293  134.0482  155.7868 H   0  0  0  0  0  0  0  0  0  0  0  0  # atno 11005 bound_to 11000
  146.3530  140.0857  142.8615 LP  0  0  0  0  0  0  0  0  0  0  0  0  # atno 17320 bound_to 7965
  145.0979  140.9327  143.4730 LP  0  0  0  0  0  0  0  0  0  0  0  0  # atno 17321 bound_to 7965
  140.6652  143.2265  151.5761 LP  0  0  0  0  0  0  0  0  0  0  0  0  # atno 17342 bound_to 10162
  139.5387  144.2707  152.1307 LP  0  0  0  0  0  0  0  0  0  0  0  0  # atno 17343 bound_to 10162
  156.1538  130.3643  149.9399 LP  0  0  0  0  0  0  0  0  0  0  0  0  # atno 17370 bound_to 10713
  156.7413  130.9080  151.3632 LP  0  0  0  0  0  0  0  0  0  0  0  0  # atno 17371 bound_to 10713
  141.1290  133.9333  157.2574 LP  0  0  0  0  0  0  0  0  0  0  0  0  # atno 17394 bound_to 11000
  139.9563  135.0165  156.9137 LP  0  0  0  0  0  0  0  0  0  0  0  0  # atno 17395 bound_to 11000

$$$$
