AV-unprocessed.smi:2433|AV-procd|sdf|9589|dock3
  -GOLD-   2272013223D 1   1.00000     0.00000
 Structure written by MMmdl.
 38 40  0  0  0  0  0  0  0  0  1 V2000
  152.8503  139.8939  157.6577 O   0  0  0  0  0  0  0  0  0  0  0  0
  152.2101  140.9377  157.7883 C   0  0  0  0  0  0  0  0  0  0  0  0
  152.5455  141.9482  158.7914 C   0  0  0  0  0  0  0  0  0  0  0  0
  151.8272  143.0909  158.8970 C   0  0  0  0  0  0  0  0  0  0  0  0
  152.1844  144.1340  159.9548 C   0  0  0  0  0  0  0  0  0  0  0  0
  151.2696  144.2398  161.1921 C   0  0  0  0  0  0  0  0  0  0  0  0
  150.5081  145.3638  160.4821 C   0  0  0  0  0  0  0  0  0  0  0  0
  151.7365  145.5582  159.5861 C   0  0  0  0  0  0  0  0  0  0  0  0
  150.7360  143.3214  158.0493 N   0  0  0  0  0  0  0  0  0  0  0  0
  150.4165  142.4431  157.1532 C   0  0  0  0  0  0  0  0  0  0  0  0
  151.1344  141.2414  157.0053 N   0  0  0  0  0  0  0  0  0  0  0  0
  150.6665  140.3243  155.9533 C   0  0  0  0  0  0  0  0  0  0  0  0
  149.2781  139.7256  156.2693 C   0  0  2  0  0  0  0  0  0  0  0  0
  149.2049  138.4286  155.7107 O   0  0  0  0  0  0  0  0  0  0  0  0
  148.1692  140.6217  155.7391 C   0  0  0  0  0  0  0  0  0  0  0  0
  147.2301  141.1805  156.6326 C   0  0  0  0  0  0  0  0  0  0  0  0
  146.2081  142.0229  156.1535 C   0  0  0  0  0  0  0  0  0  0  0  0
  146.1213  142.3147  154.7788 C   0  0  0  0  0  0  0  0  0  0  0  0
  145.1400  143.1268  154.3192 F   0  0  0  0  0  0  0  0  0  0  0  0
  147.0569  141.7631  153.8828 C   0  0  0  0  0  0  0  0  0  0  0  0
  148.0788  140.9200  154.3610 C   0  0  0  0  0  0  0  0  0  0  0  0
  153.3819  141.7767  159.4535 H   0  0  0  0  0  0  0  0  0  0  0  0
  153.2411  144.0778  160.2188 H   0  0  0  0  0  0  0  0  0  0  0  0
  150.6699  143.3649  161.4418 H   0  0  0  0  0  0  0  0  0  0  0  0
  151.8070  144.6011  162.0703 H   0  0  0  0  0  0  0  0  0  0  0  0
  149.6384  145.0018  159.9315 H   0  0  0  0  0  0  0  0  0  0  0  0
  150.2618  146.2184  161.1127 H   0  0  0  0  0  0  0  0  0  0  0  0
  152.4154  146.3226  159.9676 H   0  0  0  0  0  0  0  0  0  0  0  0
  151.5061  145.7197  158.5322 H   0  0  0  0  0  0  0  0  0  0  0  0
  149.5819  142.5796  156.4632 H   0  0  0  0  0  0  0  0  0  0  0  0
  150.6076  140.8902  155.0211 H   0  0  0  0  0  0  0  0  0  0  0  0
  151.3869  139.5311  155.7414 H   0  0  0  0  0  0  0  0  0  0  0  0
  149.1461  139.6252  157.3475 H   0  0  0  0  0  0  0  0  0  0  0  0
  148.3785  138.0429  155.9587 H   0  0  0  0  0  0  0  0  0  0  0  0
  147.2918  140.9674  157.6899 H   0  0  0  0  0  0  0  0  0  0  0  0
  145.4922  142.4474  156.8419 H   0  0  0  0  0  0  0  0  0  0  0  0
  146.9930  141.9889  152.8285 H   0  0  0  0  0  0  0  0  0  0  0  0
  148.7953  140.5063  153.6666 H   0  0  0  0  0  0  0  0  0  0  0  0
  1  2  2  0  0  0  0
  2 11  1  0  0  0  0
  2  3  1  0  0  0  0
  3  4  2  0  0  0  0
  3 22  1  0  0  0  0
  4  5  1  0  0  0  0
  4  9  1  0  0  0  0
  5  8  1  0  0  0  0
  5  6  1  0  0  0  0
  5 23  1  0  0  0  0
  6  7  1  0  0  0  0
  6 24  1  0  0  0  0
  6 25  1  0  0  0  0
  7  8  1  0  0  0  0
  7 26  1  0  0  0  0
  7 27  1  0  0  0  0
  8 28  1  0  0  0  0
  8 29  1  0  0  0  0
  9 10  2  0  0  0  0
 10 11  1  0  0  0  0
 10 30  1  0  0  0  0
 11 12  1  0  0  0  0
 12 13  1  0  0  0  0
 12 31  1  0  0  0  0
 12 32  1  0  0  0  0
 13 14  1  0  0  0  0
 13 15  1  0  0  0  0
 13 33  1  0  0  0  0
 14 34  1  0  0  0  0
 15 21  1  0  0  0  0
 15 16  2  0  0  0  0
 16 17  1  0  0  0  0
 16 35  1  0  0  0  0
 17 18  2  0  0  0  0
 17 36  1  0  0  0  0
 18 19  1  0  0  0  0
 18 20  1  0  0  0  0
 20 21  2  0  0  0  0
 20 37  1  0  0  0  0
 21 38  1  0  0  0  0
M  END
> <s_m_source_file>
AV-unprocessed.smi

> <i_m_source_file_index>
2433

> <i_lp_mmshare_version>
43012

> <i_f3d_flags>
0

> <s_epik_input>
W0NIMl0xW0NIMl1bQ0gyXVtDSF0xYyhbY0hdYzI9TyluW2NIXW4yW0NIMl1bQ0BIXShbT0hdKWMzW2NIXVtjSF1jKEYpW2NIXVtjSF0z

> <s_epik_cmdline>
J2VwaWtfcHl0aG9uJywgJy1waCcsICc3LjAnLCAnLXRuJywgJzgnLCAnLW1hJywgJzIwMCcsICctbWV0YWxfYmluZGluZycsICctaW1hZScsICc8aW5maWxlLm1hZT4nLCAnLW9tYWUnLCAnPG91dGZpbGUubWFlPic=

> <r_lp_tautomer_probability>
1

> <r_epik_Ionization_Penalty>
2.57762e-05

> <r_epik_Ionization_Penalty_Charging>
5.39435e-08

> <r_epik_Ionization_Penalty_Neutral>
2.57223e-05

> <r_epik_State_Penalty>
-0

> <r_epik_Charging_Adjusted_Penalty>
5.39435e-08

> <i_epik_Tot_Q>
0

> <i_epik_Tot_abs_Q>
0

> <r_epik_Metal_State_Penalty>
-0

> <b_epik_Metal_Only>
0

> <s_lp_Force_Field>
OPLS_2005

> <r_lp_Energy>
28.7145

> <b_lp_Chiralities_Consistent>
1

> <s_lp_Variant>
AV-unprocessed.smi:2433-1

> <Gold.Version>
5.8.1

> <Gold.Id.Protein>
6NUR|6NUR_protein|mol2

> <Gold.PLP.Fitness>
48.3394

> <Gold.PLP.PLP>
-44.0161

> <Gold.PLP.part.hbond>
-1.0000

> <Gold.PLP.part.metal>
0.0000

> <Gold.PLP.part.buried>
-6.4195

> <Gold.PLP.part.nonpolar>
-36.8235

> <Gold.PLP.part.repulsive>
0.1278

> <Gold.PLP.ligand.clash>
0.0000

> <Gold.PLP.ligand.torsion>
0.9557

> <Gold.PLP.Chemscore.Hbond>
1.0000

> <Gold.PLP.Chemscore.CHOScore>
0.9443

> <Gold.PLP.Chemscore.Metal>
0.0000

> <Gold.Chemscore.Hbonds>
donor molecule, donor type, donor heavy atom, donor atom, acceptor molecule, acceptor atom, score
      P1  H  7997  8008       L1     1  1.00
      L1  C    10    30       P1  8028  0.86

> <Gold.PLP.Chemscore.Internal.Correction>
0.4019

> <Gold.Rescore>
     Score         DG    S(hbond)    S(metal)    S(lipo)     H(rot)  DE(clash)    DE(int)     intcor
     14.26     -15.53       0.91        0.00     106.57       2.14       0.29       0.98       ----

> <Gold.Chemscore.Fitness>
14.2561

> <Gold.Chemscore.DG>
-15.5262

> <Gold.Chemscore.ZeroCoef>
-5.4800

> <Gold.Chemscore.Hbond>
0.9128

> <Gold.Chemscore.Metal>
0.0000

> <Gold.Chemscore.Lipo>
106.5669

> <Gold.Chemscore.Internal_Hbond>
0.0000

> <Gold.Chemscore.DEClash>
0.2867

> <Gold.Chemscore.DEInternal>
0.9834

> <Gold.Chemscore.Rot>
2.1370

> <Gold.Chemscore.Internal.Correction>
   9.000000E+99

> <Gold.Chemscore.Hbonds>
donor molecule, donor type, donor heavy atom, donor atom, acceptor molecule, acceptor atom, score
      P1  H  7997  8008       L1     1  0.87

> <Gold.Chemscore.Hbond.Weighted>
-3.0486

> <Gold.Chemscore.Metal.Weighted>
-0.0000

> <Gold.Chemscore.Lipo.Weighted>
-12.4683

> <Gold.Chemscore.Internal_Hbond.Weighted>
0.0000

> <Gold.Chemscore.DEClash.Weighted>
0.2867

> <Gold.Chemscore.DEInternal.Weighted>
0.9834

> <Gold.Chemscore.Rot.Weighted>
5.4707

> <Gold.Chemscore.Internal.Correction.Weighted>
   9.000000E+99

> <Gold.Protein.RotatedTorsions>
[ 6907 6896 6895 6894 ] final   95.77 input  -60.11 | X-H torsion
[ 7974 7965 7964 7962 ] final -100.17 input  175.53 | X-H torsion
[ 8008 7997 7996 7995 ] final  -66.42 input   59.86 | X-H torsion
[ 10167 10162 10161 10158 ] final  131.07 input  -65.29 | X-H torsion
[ 10718 10713 10712 10709 ] final -121.89 input   66.30 | X-H torsion
[ 10763 10752 10751 10750 ] final   67.90 input  -60.55 | X-H torsion
[ 11005 11000 10999 10996 ] final  114.31 input  -57.11 | X-H torsion

> <Gold.Protein.ActiveResidues>
 VAL166  LYS551  ARG553  GLY616  TRP617  ASP618  TYR619  PRO620  LYS621  CYS622 
 ASP623  PHE694  ASN695  SER759  ASP760  ASP761  ALA762  ILE779  LEU786  VAL792 
 PHE793  MET794  SER795  GLU796  ALA797  LYS798  CYS799  TRP800  GLU811  SER814 

> <Gold.Protein.RotatedAtoms>
  152.5441  134.0989  159.8308 H   0  0  0  0  0  0  0  0  0  0  0  0  # atno 6907 bound_to 6896
  151.1069  133.5194  159.2614 H   0  0  0  0  0  0  0  0  0  0  0  0  # atno 6908 bound_to 6896
  151.1928  135.0419  159.8894 H   0  0  0  0  0  0  0  0  0  0  0  0  # atno 6909 bound_to 6896
  145.2981  140.9370  143.2839 H   0  0  0  0  0  0  0  0  0  0  0  0  # atno 7974 bound_to 7965
  154.4733  140.0913  156.7200 H   0  0  0  0  0  0  0  0  0  0  0  0  # atno 8008 bound_to 7997
  155.4664  140.3463  155.4301 H   0  0  0  0  0  0  0  0  0  0  0  0  # atno 8009 bound_to 7997
  156.1075  140.1439  156.9372 H   0  0  0  0  0  0  0  0  0  0  0  0  # atno 8010 bound_to 7997
  139.5401  144.6722  151.4654 H   0  0  0  0  0  0  0  0  0  0  0  0  # atno 10167 bound_to 10162
  156.1374  130.6440  150.9717 H   0  0  0  0  0  0  0  0  0  0  0  0  # atno 10718 bound_to 10713
  153.0209  135.5267  154.7051 H   0  0  0  0  0  0  0  0  0  0  0  0  # atno 10763 bound_to 10752
  154.6149  135.2882  155.0393 H   0  0  0  0  0  0  0  0  0  0  0  0  # atno 10764 bound_to 10752
  154.1401  135.6579  153.4993 H   0  0  0  0  0  0  0  0  0  0  0  0  # atno 10765 bound_to 10752
  139.8977  134.9565  156.6872 H   0  0  0  0  0  0  0  0  0  0  0  0  # atno 11005 bound_to 11000
  144.9117  139.4521  143.6584 LP  0  0  0  0  0  0  0  0  0  0  0  0  # atno 17320 bound_to 7965
  146.3162  139.7928  142.8982 LP  0  0  0  0  0  0  0  0  0  0  0  0  # atno 17321 bound_to 7965
  140.6626  143.8465  150.6905 LP  0  0  0  0  0  0  0  0  0  0  0  0  # atno 17342 bound_to 10162
  140.1865  143.4072  152.1895 LP  0  0  0  0  0  0  0  0  0  0  0  0  # atno 17343 bound_to 10162
  157.6544  131.0892  150.7979 LP  0  0  0  0  0  0  0  0  0  0  0  0  # atno 17370 bound_to 10713
  156.8058  130.4936  149.5363 LP  0  0  0  0  0  0  0  0  0  0  0  0  # atno 17371 bound_to 10713
  140.7253  133.9105  155.8174 LP  0  0  0  0  0  0  0  0  0  0  0  0  # atno 17394 bound_to 11000
  141.0195  134.0908  157.4135 LP  0  0  0  0  0  0  0  0  0  0  0  0  # atno 17395 bound_to 11000

$$$$
