AV-unprocessed.smi:148|AV-procd|sdf|1228|dock9
  -GOLD-   2262018433D 1   1.00000     0.00000
 Structure written by MMmdl.
 63 67  0  0  0  0  0  0  0  0  1 V2000
  149.7998  133.2564  158.2451 O   0  0  0  0  0  0  0  0  0  0  0  0
  149.9708  134.0508  157.0894 C   0  0  0  0  0  0  0  0  0  0  0  0
  151.3982  133.9036  156.5072 C   0  0  2  0  0  0  0  0  0  0  0  0
  151.9097  135.2055  155.8415 C   0  0  0  0  0  0  0  0  0  0  0  0
  151.9501  136.3333  156.7560 N   0  0  0  0  0  0  0  0  0  0  0  0
  150.8698  137.0438  157.2278 C   0  0  0  0  0  0  0  0  0  0  0  0
  151.1606  138.0277  158.0344 N   0  0  0  0  0  0  0  0  0  0  0  0
  152.5466  137.9868  158.1308 C   0  0  0  0  0  0  0  0  0  0  0  0
  153.5189  138.7552  158.8320 C   0  0  0  0  0  0  0  0  0  0  0  0
  153.2382  139.8103  159.6271 N   0  0  0  0  0  0  0  0  0  0  0  0
  154.2823  139.9139  160.6496 C   0  0  0  0  0  0  0  0  0  0  0  0
  153.9065  140.9189  161.7418 C   0  0  0  0  0  0  0  0  0  0  0  0
  153.6006  142.2768  161.1101 C   0  0  0  0  0  0  0  0  0  0  0  0
  152.4972  142.1209  160.0568 C   0  0  0  0  0  0  0  0  0  0  0  0
  152.8480  141.0733  158.9637 C   0  0  2  0  0  0  0  0  0  0  0  0
  151.6483  140.9234  157.9636 C   0  0  2  0  0  0  0  0  0  0  0  0
  151.9784  140.5067  156.5137 C   0  0  0  0  0  0  0  0  0  0  0  0
  150.8117  140.9783  155.6342 C   0  0  0  0  0  0  0  0  0  0  0  0
  149.9386  141.8689  156.5224 C   0  0  0  0  0  0  0  0  0  0  0  0
  150.8006  142.1949  157.7431 C   0  0  2  0  0  0  0  0  0  0  0  0
  151.6173  143.3107  157.4334 O   0  0  0  0  0  0  0  0  0  0  0  0
  154.8254  138.4298  158.6730 N   0  0  0  0  0  0  0  0  0  0  0  0
  155.1649  137.3985  157.8938 C   0  0  0  0  0  0  0  0  0  0  0  0
  154.3726  136.5858  157.1911 N   0  0  0  0  0  0  0  0  0  0  0  0
  153.0589  136.9230  157.3372 C   0  0  0  0  0  0  0  0  0  0  0  0
  151.5199  132.6870  155.5545 C   0  0  1  0  0  0  0  0  0  0  0  0
  151.0894  131.3606  156.1556 C   0  0  0  0  0  0  0  0  0  0  0  0
  150.8696  130.5032  154.9148 C   0  0  0  0  0  0  0  0  0  0  0  0
  150.3905  131.3959  153.9160 O   0  0  0  0  0  0  0  0  0  0  0  0
  150.6109  132.7435  154.3211 C   0  0  0  0  0  0  0  0  0  0  0  0
  149.0048  133.5245  158.6800 H   0  0  0  0  0  0  0  0  0  0  0  0
  149.2154  133.7697  156.3558 H   0  0  0  0  0  0  0  0  0  0  0  0
  149.7619  135.0885  157.3480 H   0  0  0  0  0  0  0  0  0  0  0  0
  152.0538  133.7095  157.3576 H   0  0  0  0  0  0  0  0  0  0  0  0
  152.9173  135.0668  155.4498 H   0  0  0  0  0  0  0  0  0  0  0  0
  151.2828  135.4678  154.9886 H   0  0  0  0  0  0  0  0  0  0  0  0
  149.8529  136.8111  156.9468 H   0  0  0  0  0  0  0  0  0  0  0  0
  154.4580  138.9380  161.1059 H   0  0  0  0  0  0  0  0  0  0  0  0
  155.2208  140.2192  160.1845 H   0  0  0  0  0  0  0  0  0  0  0  0
  153.0374  140.5594  162.2944 H   0  0  0  0  0  0  0  0  0  0  0  0
  154.7201  141.0124  162.4614 H   0  0  0  0  0  0  0  0  0  0  0  0
  153.2921  142.9877  161.8772 H   0  0  0  0  0  0  0  0  0  0  0  0
  154.5001  142.6840  160.6467 H   0  0  0  0  0  0  0  0  0  0  0  0
  151.5687  141.8326  160.5522 H   0  0  0  0  0  0  0  0  0  0  0  0
  152.3187  143.1016  159.6183 H   0  0  0  0  0  0  0  0  0  0  0  0
  153.7141  141.4449  158.4151 H   0  0  0  0  0  0  0  0  0  0  0  0
  150.9746  140.1675  158.3718 H   0  0  0  0  0  0  0  0  0  0  0  0
  152.8949  140.9969  156.1834 H   0  0  0  0  0  0  0  0  0  0  0  0
  152.1207  139.4325  156.4058 H   0  0  0  0  0  0  0  0  0  0  0  0
  151.1889  141.5349  154.7756 H   0  0  0  0  0  0  0  0  0  0  0  0
  150.2356  140.1362  155.2494 H   0  0  0  0  0  0  0  0  0  0  0  0
  149.5750  142.7571  156.0037 H   0  0  0  0  0  0  0  0  0  0  0  0
  149.0636  141.3023  156.8441 H   0  0  0  0  0  0  0  0  0  0  0  0
  150.1785  142.4353  158.6057 H   0  0  0  0  0  0  0  0  0  0  0  0
  151.1018  143.9329  156.9437 H   0  0  0  0  0  0  0  0  0  0  0  0
  156.2233  137.1958  157.8230 H   0  0  0  0  0  0  0  0  0  0  0  0
  152.5535  132.5884  155.2180 H   0  0  0  0  0  0  0  0  0  0  0  0
  151.8301  130.9310  156.8306 H   0  0  0  0  0  0  0  0  0  0  0  0
  150.1520  131.4745  156.7022 H   0  0  0  0  0  0  0  0  0  0  0  0
  151.8140  130.0761  154.5755 H   0  0  0  0  0  0  0  0  0  0  0  0
  150.1704  129.6853  155.0895 H   0  0  0  0  0  0  0  0  0  0  0  0
  149.6445  133.1838  154.5710 H   0  0  0  0  0  0  0  0  0  0  0  0
  151.0473  133.3281  153.5109 H   0  0  0  0  0  0  0  0  0  0  0  0
  1  2  1  0  0  0  0
  1 31  1  0  0  0  0
  2  3  1  0  0  0  0
  2 32  1  0  0  0  0
  2 33  1  0  0  0  0
  3  4  1  0  0  0  0
  3 26  1  0  0  0  0
  3 34  1  0  0  0  0
  4  5  1  0  0  0  0
  4 35  1  0  0  0  0
  4 36  1  0  0  0  0
  5 25  1  0  0  0  0
  5  6  1  0  0  0  0
  6  7  2  0  0  0  0
  6 37  1  0  0  0  0
  7  8  1  0  0  0  0
  8 25  2  0  0  0  0
  8  9  1  0  0  0  0
  9 10  1  0  0  0  0
  9 22  2  0  0  0  0
 10 15  1  0  0  0  0
 10 11  1  0  0  0  0
 11 12  1  0  0  0  0
 11 38  1  0  0  0  0
 11 39  1  0  0  0  0
 12 13  1  0  0  0  0
 12 40  1  0  0  0  0
 12 41  1  0  0  0  0
 13 14  1  0  0  0  0
 13 42  1  0  0  0  0
 13 43  1  0  0  0  0
 14 15  1  0  0  0  0
 14 44  1  0  0  0  0
 14 45  1  0  0  0  0
 15 16  1  0  0  0  0
 15 46  1  0  0  0  0
 16 20  1  0  0  0  0
 16 17  1  0  0  0  0
 16 47  1  0  0  0  0
 17 18  1  0  0  0  0
 17 48  1  0  0  0  0
 17 49  1  0  0  0  0
 18 19  1  0  0  0  0
 18 50  1  0  0  0  0
 18 51  1  0  0  0  0
 19 20  1  0  0  0  0
 19 52  1  0  0  0  0
 19 53  1  0  0  0  0
 20 21  1  0  0  0  0
 20 54  1  0  0  0  0
 21 55  1  0  0  0  0
 22 23  1  0  0  0  0
 23 24  2  0  0  0  0
 23 56  1  0  0  0  0
 24 25  1  0  0  0  0
 26 30  1  0  0  0  0
 26 27  1  0  0  0  0
 26 57  1  0  0  0  0
 27 28  1  0  0  0  0
 27 58  1  0  0  0  0
 27 59  1  0  0  0  0
 28 29  1  0  0  0  0
 28 60  1  0  0  0  0
 28 61  1  0  0  0  0
 29 30  1  0  0  0  0
 30 62  1  0  0  0  0
 30 63  1  0  0  0  0
M  END
> <s_m_source_file>
AV-unprocessed.smi

> <i_m_source_file_index>
148

> <i_lp_mmshare_version>
43012

> <i_f3d_flags>
0

> <s_epik_input>
W0NIMl0xT1tDSDJdW0NIMl1bQ0BIXTFbQ0BIXShbQ0gyXVtPSF0pW0NIMl1uKFtjSF1uMiljKGMyMyluW2NIXW5jM040W0NIMl1bQ0gyXVtDSDJdW0NIMl1bQ0BIXTRbQ0BASF01W0NIMl1bQ0gyXVtDSDJdW0NASF01W09IXQ==

> <s_epik_cmdline>
J2VwaWtfcHl0aG9uJywgJy1waCcsICc3LjAnLCAnLXRuJywgJzgnLCAnLW1hJywgJzIwMCcsICctbWV0YWxfYmluZGluZycsICctaW1hZScsICc8aW5maWxlLm1hZT4nLCAnLW9tYWUnLCAnPG91dGZpbGUubWFlPic=

> <r_lp_tautomer_probability>
1

> <r_epik_Ionization_Penalty>
0.00556303

> <r_epik_Ionization_Penalty_Charging>
0

> <r_epik_Ionization_Penalty_Neutral>
0.00556303

> <r_epik_State_Penalty>
0.00401767

> <r_epik_Charging_Adjusted_Penalty>
0.00401767

> <i_epik_Tot_Q>
0

> <i_epik_Tot_abs_Q>
0

> <r_epik_Metal_State_Penalty>
-0

> <b_epik_Metal_Only>
0

> <s_lp_Force_Field>
OPLS_2005

> <r_lp_Energy>
70.1865

> <b_lp_Chiralities_Consistent>
1

> <s_lp_Variant>
AV-unprocessed.smi:148-27

> <Gold.Version>
5.8.1

> <Gold.Id.Protein>
6NUR|6NUR_protein|mol2

> <Gold.PLP.Fitness>
51.8641

> <Gold.PLP.PLP>
-43.1972

> <Gold.PLP.part.hbond>
-4.0000

> <Gold.PLP.part.metal>
0.0000

> <Gold.PLP.part.buried>
-4.3866

> <Gold.PLP.part.nonpolar>
-35.5782

> <Gold.PLP.part.repulsive>
0.0689

> <Gold.PLP.ligand.clash>
0.0000

> <Gold.PLP.ligand.torsion>
1.7655

> <Gold.PLP.Chemscore.Hbond>
3.8960

> <Gold.PLP.Chemscore.CHOScore>
0.0000

> <Gold.PLP.Chemscore.Metal>
0.0000

> <Gold.Chemscore.Hbonds>
donor molecule, donor type, donor heavy atom, donor atom, acceptor molecule, acceptor atom, score
      P1  H  6896  6908       L1     1  0.54
      P1  H  7997  8009       L1    22  0.11
      P1  H 10752 10765       L1    24  0.03

> <Gold.PLP.Chemscore.Internal.Correction>
0.5099

> <Gold.Rescore>
     Score         DG    S(hbond)    S(metal)    S(lipo)     H(rot)  DE(clash)    DE(int)     intcor
     16.85     -20.98       3.30        0.00     111.03       3.32       1.02       3.12       ----

> <Gold.Chemscore.Fitness>
16.8454

> <Gold.Chemscore.DG>
-20.9778

> <Gold.Chemscore.ZeroCoef>
-5.4800

> <Gold.Chemscore.Hbond>
3.2957

> <Gold.Chemscore.Metal>
0.0000

> <Gold.Chemscore.Lipo>
111.0270

> <Gold.Chemscore.Internal_Hbond>
0.0000

> <Gold.Chemscore.DEClash>
1.0159

> <Gold.Chemscore.DEInternal>
3.1165

> <Gold.Chemscore.Rot>
3.3203

> <Gold.Chemscore.Internal.Correction>
   9.000000E+99

> <Gold.Chemscore.Hbonds>
donor molecule, donor type, donor heavy atom, donor atom, acceptor molecule, acceptor atom, score
      P1  H  6896  6908       L1     1  0.01

> <Gold.Chemscore.Hbond.Weighted>
-11.0076

> <Gold.Chemscore.Metal.Weighted>
-0.0000

> <Gold.Chemscore.Lipo.Weighted>
-12.9902

> <Gold.Chemscore.Internal_Hbond.Weighted>
0.0000

> <Gold.Chemscore.DEClash.Weighted>
1.0159

> <Gold.Chemscore.DEInternal.Weighted>
3.1165

> <Gold.Chemscore.Rot.Weighted>
8.5000

> <Gold.Chemscore.Internal.Correction.Weighted>
   9.000000E+99

> <Gold.Protein.RotatedTorsions>
[ 6907 6896 6895 6894 ] final  137.81 input  -60.11 | X-H torsion
[ 7974 7965 7964 7962 ] final   59.97 input  175.53 | X-H torsion
[ 8008 7997 7996 7995 ] final  143.40 input   59.86 | X-H torsion
[ 10167 10162 10161 10158 ] final   63.78 input  -65.29 | X-H torsion
[ 10718 10713 10712 10709 ] final  -17.38 input   66.30 | X-H torsion
[ 10763 10752 10751 10750 ] final -121.52 input  -60.55 | X-H torsion
[ 11005 11000 10999 10996 ] final   36.27 input  -57.11 | X-H torsion

> <Gold.Protein.ActiveResidues>
 VAL166  LYS551  ARG553  GLY616  TRP617  ASP618  TYR619  PRO620  LYS621  CYS622 
 ASP623  PHE694  ASN695  SER759  ASP760  ASP761  ALA762  ILE779  LEU786  VAL792 
 PHE793  MET794  SER795  GLU796  ALA797  LYS798  CYS799  TRP800  GLU811  SER814 

> <Gold.Protein.RotatedAtoms>
  152.2739  133.5407  159.5455 H   0  0  0  0  0  0  0  0  0  0  0  0  # atno 6907 bound_to 6896
  150.7169  134.0660  159.3856 H   0  0  0  0  0  0  0  0  0  0  0  0  # atno 6908 bound_to 6896
  151.8573  135.0537  160.0516 H   0  0  0  0  0  0  0  0  0  0  0  0  # atno 6909 bound_to 6896
  145.9012  139.3583  143.0591 H   0  0  0  0  0  0  0  0  0  0  0  0  # atno 7974 bound_to 7965
  156.2931  140.2263  156.4885 H   0  0  0  0  0  0  0  0  0  0  0  0  # atno 8008 bound_to 7997
  154.7791  140.0461  157.1134 H   0  0  0  0  0  0  0  0  0  0  0  0  # atno 8009 bound_to 7997
  154.9780  140.3075  155.4962 H   0  0  0  0  0  0  0  0  0  0  0  0  # atno 8010 bound_to 7997
  140.1293  144.4658  150.6874 H   0  0  0  0  0  0  0  0  0  0  0  0  # atno 10167 bound_to 10162
  156.5743  130.4758  149.6348 H   0  0  0  0  0  0  0  0  0  0  0  0  # atno 10718 bound_to 10713
  154.8670  135.4165  154.2633 H   0  0  0  0  0  0  0  0  0  0  0  0  # atno 10763 bound_to 10752
  153.3557  135.7001  153.6758 H   0  0  0  0  0  0  0  0  0  0  0  0  # atno 10764 bound_to 10752
  153.5680  135.3597  155.2799 H   0  0  0  0  0  0  0  0  0  0  0  0  # atno 10765 bound_to 10752
  140.2342  134.3491  155.7951 H   0  0  0  0  0  0  0  0  0  0  0  0  # atno 11005 bound_to 11000
  145.8788  140.9375  143.0612 LP  0  0  0  0  0  0  0  0  0  0  0  0  # atno 17320 bound_to 7965
  144.6736  140.0752  143.7471 LP  0  0  0  0  0  0  0  0  0  0  0  0  # atno 17321 bound_to 7965
  140.6826  143.2334  151.5343 LP  0  0  0  0  0  0  0  0  0  0  0  0  # atno 17342 bound_to 10162
  139.5528  144.2352  152.1560 LP  0  0  0  0  0  0  0  0  0  0  0  0  # atno 17343 bound_to 10162
  156.2687  130.7004  151.1795 LP  0  0  0  0  0  0  0  0  0  0  0  0  # atno 17370 bound_to 10713
  157.7341  131.0585  150.5542 LP  0  0  0  0  0  0  0  0  0  0  0  0  # atno 17371 bound_to 10713
  141.2215  133.7262  156.8781 LP  0  0  0  0  0  0  0  0  0  0  0  0  # atno 17394 bound_to 11000
  140.1719  134.9094  157.2843 LP  0  0  0  0  0  0  0  0  0  0  0  0  # atno 17395 bound_to 11000

$$$$
