AV-unprocessed.smi:960|AV-procd|sdf|4273|dock8
  -GOLD-   22720 2183D 1   1.00000     0.00000
 Structure written by MMmdl.
 45 46  0  0  0  0  0  0  0  0  1 V2000
  152.3705  141.0973  158.9262 C   0  0  0  0  0  0  0  0  0  0  0  0
  151.9297  142.2566  158.4108 C   0  0  0  0  0  0  0  0  0  0  0  0
  152.3871  143.6003  158.9472 C   0  0  0  0  0  0  0  0  0  0  0  0
  150.9606  142.2981  157.2382 C   0  0  0  0  0  0  0  0  0  0  0  0
  150.6900  140.9824  156.6581 N   0  0  0  0  0  0  0  0  0  0  0  0
  151.8757  140.4351  155.9894 C   0  0  0  0  0  0  0  0  0  0  0  0
  151.5839  139.0235  155.4510 C   0  0  0  0  0  0  0  0  0  0  0  0
  150.3960  139.0320  154.4774 C   0  0  0  0  0  0  0  0  0  0  0  0
  150.0597  137.6638  154.0953 N   0  0  0  0  0  0  0  0  0  0  0  0
  150.0450  136.6112  154.9249 C   0  0  0  0  0  0  0  0  0  0  0  0
  150.2941  136.6861  156.1277 O   0  0  0  0  0  0  0  0  0  0  0  0
  149.7067  135.4849  154.2793 N   0  0  0  0  0  0  0  0  0  0  0  0
  149.6243  134.1799  154.8265 C   0  0  0  0  0  0  0  0  0  0  0  0
  150.3472  133.6023  155.9119 C   0  0  0  0  0  0  0  0  0  0  0  0
  151.4090  134.1743  156.8093 C   0  0  0  0  0  0  0  0  0  0  0  0
  149.9893  132.3361  156.0674 N   0  0  0  0  0  0  0  0  0  0  0  0
  149.0506  132.0553  155.0630 O   0  0  0  0  0  0  0  0  0  0  0  0
  148.8590  133.1734  154.3157 C   0  0  0  0  0  0  0  0  0  0  0  0
  147.9054  133.0698  153.1738 C   0  0  0  0  0  0  0  0  0  0  0  0
  149.1980  139.7232  155.1511 C   0  0  0  0  0  0  0  0  0  0  0  0
  149.5916  141.1058  155.6982 C   0  0  0  0  0  0  0  0  0  0  0  0
  153.0652  141.0789  159.7532 H   0  0  0  0  0  0  0  0  0  0  0  0
  152.0424  140.1479  158.5290 H   0  0  0  0  0  0  0  0  0  0  0  0
  152.8617  144.1807  158.1562 H   0  0  0  0  0  0  0  0  0  0  0  0
  153.1060  143.4812  159.7582 H   0  0  0  0  0  0  0  0  0  0  0  0
  151.5396  144.1700  159.3294 H   0  0  0  0  0  0  0  0  0  0  0  0
  150.0267  142.7336  157.5958 H   0  0  0  0  0  0  0  0  0  0  0  0
  151.3460  142.9673  156.4671 H   0  0  0  0  0  0  0  0  0  0  0  0
  152.1850  141.0952  155.1774 H   0  0  0  0  0  0  0  0  0  0  0  0
  152.7116  140.3743  156.6862 H   0  0  0  0  0  0  0  0  0  0  0  0
  152.4710  138.6298  154.9534 H   0  0  0  0  0  0  0  0  0  0  0  0
  151.3766  138.3555  156.2885 H   0  0  0  0  0  0  0  0  0  0  0  0
  150.6830  139.5970  153.5881 H   0  0  0  0  0  0  0  0  0  0  0  0
  149.8341  137.5068  153.1240 H   0  0  0  0  0  0  0  0  0  0  0  0
  149.4025  135.5836  153.3217 H   0  0  0  0  0  0  0  0  0  0  0  0
  152.0341  134.8900  156.2753 H   0  0  0  0  0  0  0  0  0  0  0  0
  152.0671  133.3956  157.1963 H   0  0  0  0  0  0  0  0  0  0  0  0
  150.9658  134.6852  157.6638 H   0  0  0  0  0  0  0  0  0  0  0  0
  147.9032  133.9835  152.5793 H   0  0  0  0  0  0  0  0  0  0  0  0
  146.8909  132.8991  153.5337 H   0  0  0  0  0  0  0  0  0  0  0  0
  148.1762  132.2420  152.5184 H   0  0  0  0  0  0  0  0  0  0  0  0
  148.3776  139.8318  154.4411 H   0  0  0  0  0  0  0  0  0  0  0  0
  148.8206  139.1058  155.9677 H   0  0  0  0  0  0  0  0  0  0  0  0
  148.7269  141.5555  156.1881 H   0  0  0  0  0  0  0  0  0  0  0  0
  149.8777  141.7699  154.8809 H   0  0  0  0  0  0  0  0  0  0  0  0
  1  2  2  0  0  0  0
  1 22  1  0  0  0  0
  1 23  1  0  0  0  0
  2  3  1  0  0  0  0
  2  4  1  0  0  0  0
  3 24  1  0  0  0  0
  3 25  1  0  0  0  0
  3 26  1  0  0  0  0
  4  5  1  0  0  0  0
  4 27  1  0  0  0  0
  4 28  1  0  0  0  0
  5 21  1  0  0  0  0
  5  6  1  0  0  0  0
  6  7  1  0  0  0  0
  6 29  1  0  0  0  0
  6 30  1  0  0  0  0
  7  8  1  0  0  0  0
  7 31  1  0  0  0  0
  7 32  1  0  0  0  0
  8  9  1  0  0  0  0
  8 20  1  0  0  0  0
  8 33  1  0  0  0  0
  9 10  1  0  0  0  0
  9 34  1  0  0  0  0
 10 11  2  0  0  0  0
 10 12  1  0  0  0  0
 12 13  1  0  0  0  0
 12 35  1  0  0  0  0
 13 18  2  0  0  0  0
 13 14  1  0  0  0  0
 14 15  1  0  0  0  0
 14 16  2  0  0  0  0
 15 36  1  0  0  0  0
 15 37  1  0  0  0  0
 15 38  1  0  0  0  0
 16 17  1  0  0  0  0
 17 18  1  0  0  0  0
 18 19  1  0  0  0  0
 19 39  1  0  0  0  0
 19 40  1  0  0  0  0
 19 41  1  0  0  0  0
 20 21  1  0  0  0  0
 20 42  1  0  0  0  0
 20 43  1  0  0  0  0
 21 44  1  0  0  0  0
 21 45  1  0  0  0  0
M  END
> <s_m_source_file>
AV-unprocessed.smi

> <i_m_source_file_index>
960

> <i_lp_mmshare_version>
43012

> <i_f3d_flags>
0

> <s_epik_input>
W0NIMl09QyhbQ0gzXSlbQ0gyXU4xW0NIMl1bQ0gyXVtDSF0oW0NIMl1bQ0gyXTEpW05IXUMoPU8pW05IXWMyYyhbQ0gzXSlub2MyW0NIM10=

> <s_epik_cmdline>
J2VwaWtfcHl0aG9uJywgJy1waCcsICc3LjAnLCAnLXRuJywgJzgnLCAnLW1hJywgJzIwMCcsICctbWV0YWxfYmluZGluZycsICctaW1hZScsICc8aW5maWxlLm1hZT4nLCAnLW9tYWUnLCAnPG91dGZpbGUubWFlPic=

> <r_epik_Ionization_Penalty>
2.03694

> <r_epik_Ionization_Penalty_Charging>
0

> <r_epik_Ionization_Penalty_Neutral>
2.03694

> <r_epik_State_Penalty>
2.16834

> <r_epik_Charging_Adjusted_Penalty>
2.16834

> <i_epik_Tot_Q>
0

> <i_epik_Tot_abs_Q>
0

> <r_epik_Metal_State_Penalty>
2.16834

> <b_epik_Metal_Only>
0

> <s_lp_Force_Field>
OPLS_2005

> <r_lp_Energy>
16.835

> <b_lp_Chiralities_Consistent>
1

> <s_lp_Variant>
AV-unprocessed.smi:960-3

> <Gold.Version>
5.8.1

> <Gold.Id.Protein>
6NUR|6NUR_protein|mol2

> <Gold.PLP.Fitness>
39.6919

> <Gold.PLP.PLP>
-34.8858

> <Gold.PLP.part.hbond>
-2.8354

> <Gold.PLP.part.metal>
0.0000

> <Gold.PLP.part.buried>
-3.0376

> <Gold.PLP.part.nonpolar>
-29.9164

> <Gold.PLP.part.repulsive>
0.1709

> <Gold.PLP.ligand.clash>
0.0000

> <Gold.PLP.ligand.torsion>
0.5128

> <Gold.PLP.Chemscore.Hbond>
1.8620

> <Gold.PLP.Chemscore.CHOScore>
0.0000

> <Gold.PLP.Chemscore.Metal>
0.0000

> <Gold.Chemscore.Hbonds>
donor molecule, donor type, donor heavy atom, donor atom, acceptor molecule, acceptor atom, score
      L1  H     9    34       P1  7948  0.90
      L1  H    12    35       P1  7948  0.90

> <Gold.PLP.Chemscore.Internal.Correction>
0.2456

> <Gold.Rescore>
     Score         DG    S(hbond)    S(metal)    S(lipo)     H(rot)  DE(clash)    DE(int)     intcor
     15.72     -18.90       1.73        0.00      94.32       1.32       0.17       3.01       ----

> <Gold.Chemscore.Fitness>
15.7233

> <Gold.Chemscore.DG>
-18.9028

> <Gold.Chemscore.ZeroCoef>
-5.4800

> <Gold.Chemscore.Hbond>
1.7283

> <Gold.Chemscore.Metal>
0.0000

> <Gold.Chemscore.Lipo>
94.3238

> <Gold.Chemscore.Internal_Hbond>
0.0000

> <Gold.Chemscore.DEClash>
0.1651

> <Gold.Chemscore.DEInternal>
3.0144

> <Gold.Chemscore.Rot>
1.3225

> <Gold.Chemscore.Internal.Correction>
   9.000000E+99

> <Gold.Chemscore.Hbonds>
donor molecule, donor type, donor heavy atom, donor atom, acceptor molecule, acceptor atom, score
      L1  H     9    34       P1  7948  0.39
      L1  H    12    35       P1  7948  0.18

> <Gold.Chemscore.Hbond.Weighted>
-5.7724

> <Gold.Chemscore.Metal.Weighted>
-0.0000

> <Gold.Chemscore.Lipo.Weighted>
-11.0359

> <Gold.Chemscore.Internal_Hbond.Weighted>
0.0000

> <Gold.Chemscore.DEClash.Weighted>
0.1651

> <Gold.Chemscore.DEInternal.Weighted>
3.0144

> <Gold.Chemscore.Rot.Weighted>
3.3856

> <Gold.Chemscore.Internal.Correction.Weighted>
   9.000000E+99

> <Gold.Protein.RotatedTorsions>
[ 6907 6896 6895 6894 ] final   92.16 input  -60.11 | X-H torsion
[ 7974 7965 7964 7962 ] final  -68.47 input  175.53 | X-H torsion
[ 8008 7997 7996 7995 ] final   62.92 input   59.86 | X-H torsion
[ 10167 10162 10161 10158 ] final   83.12 input  -65.29 | X-H torsion
[ 10718 10713 10712 10709 ] final  -82.98 input   66.30 | X-H torsion
[ 10763 10752 10751 10750 ] final  -56.97 input  -60.55 | X-H torsion
[ 11005 11000 10999 10996 ] final  -65.48 input  -57.11 | X-H torsion

> <Gold.Protein.ActiveResidues>
 VAL166  LYS551  ARG553  GLY616  TRP617  ASP618  TYR619  PRO620  LYS621  CYS622 
 ASP623  PHE694  ASN695  SER759  ASP760  ASP761  ALA762  ILE779  LEU786  VAL792 
 PHE793  MET794  SER795  GLU796  ALA797  LYS798  CYS799  TRP800  GLU811  SER814 

> <Gold.Protein.RotatedAtoms>
  152.5452  134.1544  159.8531 H   0  0  0  0  0  0  0  0  0  0  0  0  # atno 6907 bound_to 6896
  151.1568  133.4864  159.2602 H   0  0  0  0  0  0  0  0  0  0  0  0  # atno 6908 bound_to 6896
  151.1414  135.0192  159.8682 H   0  0  0  0  0  0  0  0  0  0  0  0  # atno 6909 bound_to 6896
  145.7161  140.9058  143.0655 H   0  0  0  0  0  0  0  0  0  0  0  0  # atno 7974 bound_to 7965
  155.6221  140.3496  155.4655 H   0  0  0  0  0  0  0  0  0  0  0  0  # atno 8008 bound_to 7997
  156.0071  140.1225  157.0514 H   0  0  0  0  0  0  0  0  0  0  0  0  # atno 8009 bound_to 7997
  154.4268  140.1089  156.5764 H   0  0  0  0  0  0  0  0  0  0  0  0  # atno 8010 bound_to 7997
  139.9217  144.6208  150.8433 H   0  0  0  0  0  0  0  0  0  0  0  0  # atno 10167 bound_to 10162
  156.0025  130.4651  150.4188 H   0  0  0  0  0  0  0  0  0  0  0  0  # atno 10718 bound_to 10713
  154.2151  135.6387  153.5127 H   0  0  0  0  0  0  0  0  0  0  0  0  # atno 10763 bound_to 10752
  152.9981  135.5483  154.6174 H   0  0  0  0  0  0  0  0  0  0  0  0  # atno 10764 bound_to 10752
  154.5620  135.2910  155.0883 H   0  0  0  0  0  0  0  0  0  0  0  0  # atno 10765 bound_to 10752
  141.1455  133.6682  156.5992 H   0  0  0  0  0  0  0  0  0  0  0  0  # atno 11005 bound_to 11000
  144.6929  139.9140  143.7465 LP  0  0  0  0  0  0  0  0  0  0  0  0  # atno 17320 bound_to 7965
  146.0668  139.3659  143.0547 LP  0  0  0  0  0  0  0  0  0  0  0  0  # atno 17321 bound_to 7965
  140.7660  143.3292  151.2448 LP  0  0  0  0  0  0  0  0  0  0  0  0  # atno 17342 bound_to 10162
  139.6856  143.9780  152.2832 LP  0  0  0  0  0  0  0  0  0  0  0  0  # atno 17343 bound_to 10162
  157.2246  131.0490  151.2527 LP  0  0  0  0  0  0  0  0  0  0  0  0  # atno 17370 bound_to 10713
  157.3769  130.7210  149.6603 LP  0  0  0  0  0  0  0  0  0  0  0  0  # atno 17371 bound_to 10713
  140.3702  134.7612  157.4593 LP  0  0  0  0  0  0  0  0  0  0  0  0  # atno 17394 bound_to 11000
  140.0717  134.5854  155.8635 LP  0  0  0  0  0  0  0  0  0  0  0  0  # atno 17395 bound_to 11000

$$$$
