AV-unprocessed.smi:2109|AV-procd|sdf|8606|dock2
  -GOLD-   2272011343D 1   1.00000     0.00000
 Structure written by MMmdl.
 45 46  0  0  0  0  0  0  0  0  1 V2000
  143.8238  132.8120  151.3238 C   0  0  0  0  0  0  0  0  0  0  0  0
  144.9364  133.8658  151.1897 C   0  0  0  0  0  0  0  0  0  0  0  0
  146.2123  133.2389  150.6084 C   0  0  0  0  0  0  0  0  0  0  0  0
  145.2398  134.5770  152.5263 C   0  0  0  0  0  0  0  0  0  0  0  0
  146.0990  135.7465  152.3686 N   0  0  0  0  0  0  0  0  0  0  0  0
  145.6661  137.0124  152.2865 C   0  0  0  0  0  0  0  0  0  0  0  0
  144.4824  137.3433  152.3603 O   0  0  0  0  0  0  0  0  0  0  0  0
  146.6764  137.8751  152.1116 N   0  0  0  0  0  0  0  0  0  0  0  0
  146.5197  139.3211  152.0089 C   0  0  0  0  0  0  0  0  0  0  0  0
  147.2814  140.0764  153.0843 C   0  0  0  0  0  0  0  0  0  0  0  0
  146.8977  141.3799  153.4540 C   0  0  0  0  0  0  0  0  0  0  0  0
  147.6340  142.0316  154.4601 C   0  0  0  0  0  0  0  0  0  0  0  0
  148.6954  141.4741  155.0798 N   0  0  0  0  0  0  0  0  0  0  0  0
  149.0827  140.2243  154.7229 C   0  0  0  0  0  0  0  0  0  0  0  0
  150.2047  139.6599  155.3684 N   0  0  0  0  0  0  0  0  0  0  0  0
  150.8756  140.4574  156.3938 C   0  0  0  0  0  0  0  0  0  0  0  0
  151.8855  139.5952  157.1697 C   0  0  0  0  0  0  0  0  0  0  0  0
  152.7989  138.9915  156.2600 O   0  0  0  0  0  0  0  0  0  0  0  0
  152.1371  138.1306  155.3394 C   0  0  0  0  0  0  0  0  0  0  0  0
  151.1323  138.9383  154.4999 C   0  0  0  0  0  0  0  0  0  0  0  0
  148.3905  139.4902  153.7301 C   0  0  0  0  0  0  0  0  0  0  0  0
  144.0947  132.0394  152.0441 H   0  0  0  0  0  0  0  0  0  0  0  0
  143.6326  132.3228  150.3684 H   0  0  0  0  0  0  0  0  0  0  0  0
  142.8849  133.2592  151.6502 H   0  0  0  0  0  0  0  0  0  0  0  0
  144.5948  134.6150  150.4744 H   0  0  0  0  0  0  0  0  0  0  0  0
  146.6158  132.4728  151.2715 H   0  0  0  0  0  0  0  0  0  0  0  0
  146.9870  133.9915  150.4588 H   0  0  0  0  0  0  0  0  0  0  0  0
  146.0171  132.7739  149.6417 H   0  0  0  0  0  0  0  0  0  0  0  0
  144.3096  134.9045  152.9917 H   0  0  0  0  0  0  0  0  0  0  0  0
  145.7037  133.8818  153.2282 H   0  0  0  0  0  0  0  0  0  0  0  0
  147.0918  135.5762  152.3027 H   0  0  0  0  0  0  0  0  0  0  0  0
  147.6166  137.5113  152.0621 H   0  0  0  0  0  0  0  0  0  0  0  0
  146.8959  139.6370  151.0357 H   0  0  0  0  0  0  0  0  0  0  0  0
  145.4618  139.5895  152.0311 H   0  0  0  0  0  0  0  0  0  0  0  0
  146.0554  141.8690  152.9871 H   0  0  0  0  0  0  0  0  0  0  0  0
  147.3650  143.0292  154.7747 H   0  0  0  0  0  0  0  0  0  0  0  0
  151.3879  141.2970  155.9218 H   0  0  0  0  0  0  0  0  0  0  0  0
  150.1438  140.8699  157.0897 H   0  0  0  0  0  0  0  0  0  0  0  0
  152.4424  140.2128  157.8743 H   0  0  0  0  0  0  0  0  0  0  0  0
  151.3747  138.8277  157.7535 H   0  0  0  0  0  0  0  0  0  0  0  0
  152.8806  137.6674  154.6905 H   0  0  0  0  0  0  0  0  0  0  0  0
  151.6355  137.3229  155.8751 H   0  0  0  0  0  0  0  0  0  0  0  0
  150.6112  138.2604  153.8255 H   0  0  0  0  0  0  0  0  0  0  0  0
  151.6626  139.6593  153.8765 H   0  0  0  0  0  0  0  0  0  0  0  0
  148.6923  138.4874  153.4670 H   0  0  0  0  0  0  0  0  0  0  0  0
  1  2  1  0  0  0  0
  1 22  1  0  0  0  0
  1 23  1  0  0  0  0
  1 24  1  0  0  0  0
  2  3  1  0  0  0  0
  2  4  1  0  0  0  0
  2 25  1  0  0  0  0
  3 26  1  0  0  0  0
  3 27  1  0  0  0  0
  3 28  1  0  0  0  0
  4  5  1  0  0  0  0
  4 29  1  0  0  0  0
  4 30  1  0  0  0  0
  5  6  1  0  0  0  0
  5 31  1  0  0  0  0
  6  7  2  0  0  0  0
  6  8  1  0  0  0  0
  8  9  1  0  0  0  0
  8 32  1  0  0  0  0
  9 10  1  0  0  0  0
  9 33  1  0  0  0  0
  9 34  1  0  0  0  0
 10 21  1  0  0  0  0
 10 11  2  0  0  0  0
 11 12  1  0  0  0  0
 11 35  1  0  0  0  0
 12 13  2  0  0  0  0
 12 36  1  0  0  0  0
 13 14  1  0  0  0  0
 14 15  1  0  0  0  0
 14 21  2  0  0  0  0
 15 20  1  0  0  0  0
 15 16  1  0  0  0  0
 16 17  1  0  0  0  0
 16 37  1  0  0  0  0
 16 38  1  0  0  0  0
 17 18  1  0  0  0  0
 17 39  1  0  0  0  0
 17 40  1  0  0  0  0
 18 19  1  0  0  0  0
 19 20  1  0  0  0  0
 19 41  1  0  0  0  0
 19 42  1  0  0  0  0
 20 43  1  0  0  0  0
 20 44  1  0  0  0  0
 21 45  1  0  0  0  0
M  END
> <s_m_source_file>
AV-unprocessed.smi

> <i_m_source_file_index>
2109

> <i_lp_mmshare_version>
43012

> <i_f3d_flags>
0

> <s_epik_input>
W0NIM11bQ0hdKFtDSDNdKVtDSDJdW05IXUMoPU8pW05IXVtDSDJdYzFbY0hdW2NIXW5jKFtjSF0xKU4yW0NIMl1bQ0gyXU9bQ0gyXVtDSDJdMg==

> <s_epik_cmdline>
J2VwaWtfcHl0aG9uJywgJy1waCcsICc3LjAnLCAnLXRuJywgJzgnLCAnLW1hJywgJzIwMCcsICctbWV0YWxfYmluZGluZycsICctaW1hZScsICc8aW5maWxlLm1hZT4nLCAnLW9tYWUnLCAnPG91dGZpbGUubWFlPic=

> <r_lp_tautomer_probability>
1

> <r_epik_Ionization_Penalty>
0.012582

> <r_epik_Ionization_Penalty_Charging>
0

> <r_epik_Ionization_Penalty_Neutral>
0.012582

> <r_epik_State_Penalty>
0.00970236

> <r_epik_Charging_Adjusted_Penalty>
0.00970236

> <i_epik_Tot_Q>
0

> <i_epik_Tot_abs_Q>
0

> <r_epik_Metal_State_Penalty>
0.00950075

> <b_epik_Metal_Only>
0

> <s_lp_Force_Field>
OPLS_2005

> <r_lp_Energy>
12.0327

> <b_lp_Chiralities_Consistent>
1

> <s_lp_Variant>
AV-unprocessed.smi:2109-1

> <Gold.Version>
5.8.1

> <Gold.Id.Protein>
6NUR|6NUR_protein|mol2

> <Gold.PLP.Fitness>
46.9533

> <Gold.PLP.PLP>
-36.3989

> <Gold.PLP.part.hbond>
-3.0000

> <Gold.PLP.part.metal>
0.0000

> <Gold.PLP.part.buried>
-0.5455

> <Gold.PLP.part.nonpolar>
-33.6581

> <Gold.PLP.part.repulsive>
1.4835

> <Gold.PLP.ligand.clash>
0.0000

> <Gold.PLP.ligand.torsion>
0.7757

> <Gold.PLP.Chemscore.Hbond>
3.0000

> <Gold.PLP.Chemscore.CHOScore>
0.9146

> <Gold.PLP.Chemscore.Metal>
0.0000

> <Gold.Chemscore.Hbonds>
donor molecule, donor type, donor heavy atom, donor atom, acceptor molecule, acceptor atom, score
      L1  H     5    31       P1  7948  1.00
      L1  H     8    32       P1  7948  1.00
      P1  H  7997  8008       L1    18  1.00
      L1  C    12    36       P1  8028  0.95

> <Gold.PLP.Chemscore.Internal.Correction>
0.3622

> <Gold.Rescore>
     Score         DG    S(hbond)    S(metal)    S(lipo)     H(rot)  DE(clash)    DE(int)     intcor
     19.58     -20.29       2.84        0.00      84.18       1.77       0.05       0.67       ----

> <Gold.Chemscore.Fitness>
19.5750

> <Gold.Chemscore.DG>
-20.2927

> <Gold.Chemscore.ZeroCoef>
-5.4800

> <Gold.Chemscore.Hbond>
2.8398

> <Gold.Chemscore.Metal>
0.0000

> <Gold.Chemscore.Lipo>
84.1814

> <Gold.Chemscore.Internal_Hbond>
0.0000

> <Gold.Chemscore.DEClash>
0.0523

> <Gold.Chemscore.DEInternal>
0.6653

> <Gold.Chemscore.Rot>
1.7662

> <Gold.Chemscore.Internal.Correction>
   9.000000E+99

> <Gold.Chemscore.Hbonds>
donor molecule, donor type, donor heavy atom, donor atom, acceptor molecule, acceptor atom, score
      L1  H     5    31       P1  7948  0.91
      L1  H     8    32       P1  7948  0.99
      P1  H  7997  8008       L1    18  0.30

> <Gold.Chemscore.Hbond.Weighted>
-9.4848

> <Gold.Chemscore.Metal.Weighted>
-0.0000

> <Gold.Chemscore.Lipo.Weighted>
-9.8492

> <Gold.Chemscore.Internal_Hbond.Weighted>
0.0000

> <Gold.Chemscore.DEClash.Weighted>
0.0523

> <Gold.Chemscore.DEInternal.Weighted>
0.6653

> <Gold.Chemscore.Rot.Weighted>
4.5214

> <Gold.Chemscore.Internal.Correction.Weighted>
   9.000000E+99

> <Gold.Protein.RotatedTorsions>
[ 6907 6896 6895 6894 ] final   85.21 input  -60.11 | X-H torsion
[ 7974 7965 7964 7962 ] final  -52.51 input  175.53 | X-H torsion
[ 8008 7997 7996 7995 ] final  -55.33 input   59.86 | X-H torsion
[ 10167 10162 10161 10158 ] final   -0.65 input  -65.29 | X-H torsion
[ 10718 10713 10712 10709 ] final -170.25 input   66.30 | X-H torsion
[ 10763 10752 10751 10750 ] final   83.56 input  -60.55 | X-H torsion
[ 11005 11000 10999 10996 ] final   50.53 input  -57.11 | X-H torsion

> <Gold.Protein.ActiveResidues>
 VAL166  LYS551  ARG553  GLY616  TRP617  ASP618  TYR619  PRO620  LYS621  CYS622 
 ASP623  PHE694  ASN695  SER759  ASP760  ASP761  ALA762  ILE779  LEU786  VAL792 
 PHE793  MET794  SER795  GLU796  ALA797  LYS798  CYS799  TRP800  GLU811  SER814 

> <Gold.Protein.RotatedAtoms>
  152.5370  134.2621  159.8938 H   0  0  0  0  0  0  0  0  0  0  0  0  # atno 6907 bound_to 6896
  151.2580  133.4309  159.2622 H   0  0  0  0  0  0  0  0  0  0  0  0  # atno 6908 bound_to 6896
  151.0478  134.9666  159.8252 H   0  0  0  0  0  0  0  0  0  0  0  0  # atno 6909 bound_to 6896
  145.9072  140.7945  142.9713 H   0  0  0  0  0  0  0  0  0  0  0  0  # atno 7974 bound_to 7965
  154.4191  140.1155  156.5460 H   0  0  0  0  0  0  0  0  0  0  0  0  # atno 8008 bound_to 7997
  155.6459  140.3496  155.4712 H   0  0  0  0  0  0  0  0  0  0  0  0  # atno 8009 bound_to 7997
  155.9832  140.1164  157.0697 H   0  0  0  0  0  0  0  0  0  0  0  0  # atno 8010 bound_to 7997
  140.6776  143.6869  150.8059 H   0  0  0  0  0  0  0  0  0  0  0  0  # atno 10167 bound_to 10162
  156.7234  130.9279  151.3099 H   0  0  0  0  0  0  0  0  0  0  0  0  # atno 10718 bound_to 10713
  153.1302  135.4687  154.9336 H   0  0  0  0  0  0  0  0  0  0  0  0  # atno 10763 bound_to 10752
  154.7657  135.3144  154.8293 H   0  0  0  0  0  0  0  0  0  0  0  0  # atno 10764 bound_to 10752
  153.8838  135.6891  153.4819 H   0  0  0  0  0  0  0  0  0  0  0  0  # atno 10765 bound_to 10752
  140.1009  134.5082  155.8763 H   0  0  0  0  0  0  0  0  0  0  0  0  # atno 11005 bound_to 11000
  144.6740  140.1769  143.7409 LP  0  0  0  0  0  0  0  0  0  0  0  0  # atno 17320 bound_to 7965
  145.8717  139.2275  143.1657 LP  0  0  0  0  0  0  0  0  0  0  0  0  # atno 17321 bound_to 7965
  140.0565  143.5198  152.2649 LP  0  0  0  0  0  0  0  0  0  0  0  0  # atno 17342 bound_to 10162
  139.6078  144.7601  151.3020 LP  0  0  0  0  0  0  0  0  0  0  0  0  # atno 17343 bound_to 10162
  157.6889  130.9213  150.0459 LP  0  0  0  0  0  0  0  0  0  0  0  0  # atno 17370 bound_to 10713
  156.1579  130.3643  149.9342 LP  0  0  0  0  0  0  0  0  0  0  0  0  # atno 17371 bound_to 10713
  141.2105  133.6696  156.6516 LP  0  0  0  0  0  0  0  0  0  0  0  0  # atno 17394 bound_to 11000
  140.3221  134.7999  157.4260 LP  0  0  0  0  0  0  0  0  0  0  0  0  # atno 17395 bound_to 11000

$$$$
