AV-unprocessed.smi:1529|AV-procd|sdf|6152|dock10
  -GOLD-   22720 6303D 1   1.00000     0.00000
 Structure written by MMmdl.
 50 51  0  0  0  0  0  0  0  0  1 V2000
  145.1354  133.6716  151.5743 C   0  0  0  0  0  0  0  0  0  0  0  0
  144.8426  135.1311  151.2427 C   0  0  0  0  0  0  0  0  0  0  0  0
  143.7407  135.4555  150.8011 O   0  0  0  0  0  0  0  0  0  0  0  0
  145.8409  136.0005  151.4601 N   0  0  0  0  0  0  0  0  0  0  0  0
  145.7735  137.4365  151.2081 C   0  0  0  0  0  0  0  0  0  0  0  0
  146.1497  138.2734  152.4445 C   0  0  0  0  0  0  0  0  0  0  0  0
  146.7081  139.6661  152.0999 C   0  0  0  0  0  0  0  0  0  0  0  0
  147.6088  140.1520  153.1381 N   0  0  0  0  0  0  0  0  0  0  0  0
  147.2746  140.3330  154.4263 C   0  0  0  0  0  0  0  0  0  0  0  0
  146.1458  140.1225  154.8712 O   0  0  0  0  0  0  0  0  0  0  0  0
  148.3570  140.8866  155.3071 C   0  0  0  0  0  0  0  0  0  0  0  0
  149.6107  141.2425  154.7680 C   0  0  0  0  0  0  0  0  0  0  0  0
  150.5970  141.7785  155.6181 C   0  0  0  0  0  0  0  0  0  0  0  0
  150.3054  141.9535  156.9915 C   0  0  0  0  0  0  0  0  0  0  0  0
  151.2812  142.4840  157.8631 N   0  0  0  0  0  0  0  0  0  0  0  0
  151.0960  143.8501  158.3482 C   0  0  0  0  0  0  0  0  0  0  0  0
  152.3787  144.3577  159.0322 C   0  0  1  0  0  0  0  0  0  0  0  0
  152.1866  145.7426  159.6593 C   0  0  0  0  0  0  0  0  0  0  0  0
  152.7490  143.4469  160.0635 O   0  0  0  0  0  0  0  0  0  0  0  0
  153.0354  142.1442  159.5620 C   0  0  1  0  0  0  0  0  0  0  0  0
  153.5115  141.2740  160.7299 C   0  0  0  0  0  0  0  0  0  0  0  0
  151.7738  141.5700  158.8903 C   0  0  0  0  0  0  0  0  0  0  0  0
  149.0930  141.6288  157.5043 N   0  0  0  0  0  0  0  0  0  0  0  0
  148.1509  141.1149  156.6858 C   0  0  0  0  0  0  0  0  0  0  0  0
  146.0132  133.3245  151.0281 H   0  0  0  0  0  0  0  0  0  0  0  0
  144.2918  133.0355  151.3036 H   0  0  0  0  0  0  0  0  0  0  0  0
  145.3229  133.5544  152.6418 H   0  0  0  0  0  0  0  0  0  0  0  0
  146.7104  135.6421  151.8282 H   0  0  0  0  0  0  0  0  0  0  0  0
  146.4227  137.6952  150.3700 H   0  0  0  0  0  0  0  0  0  0  0  0
  144.7581  137.6793  150.8939 H   0  0  0  0  0  0  0  0  0  0  0  0
  145.2805  138.3790  153.0955 H   0  0  0  0  0  0  0  0  0  0  0  0
  146.8907  137.7191  153.0220 H   0  0  0  0  0  0  0  0  0  0  0  0
  147.2198  139.6455  151.1360 H   0  0  0  0  0  0  0  0  0  0  0  0
  145.8951  140.3860  152.0038 H   0  0  0  0  0  0  0  0  0  0  0  0
  148.5523  140.3748  152.8557 H   0  0  0  0  0  0  0  0  0  0  0  0
  149.8229  141.1086  153.7169 H   0  0  0  0  0  0  0  0  0  0  0  0
  151.5537  142.0615  155.2053 H   0  0  0  0  0  0  0  0  0  0  0  0
  150.8430  144.5118  157.5186 H   0  0  0  0  0  0  0  0  0  0  0  0
  150.2611  143.8717  159.0503 H   0  0  0  0  0  0  0  0  0  0  0  0
  153.1861  144.4178  158.3002 H   0  0  0  0  0  0  0  0  0  0  0  0
  151.9114  146.4802  158.9051 H   0  0  0  0  0  0  0  0  0  0  0  0
  153.1048  146.0839  160.1381 H   0  0  0  0  0  0  0  0  0  0  0  0
  151.4018  145.7278  160.4164 H   0  0  0  0  0  0  0  0  0  0  0  0
  153.8423  142.2119  158.8299 H   0  0  0  0  0  0  0  0  0  0  0  0
  153.7559  140.2658  160.3945 H   0  0  0  0  0  0  0  0  0  0  0  0
  152.7444  141.1941  161.5007 H   0  0  0  0  0  0  0  0  0  0  0  0
  154.4046  141.6960  161.1913 H   0  0  0  0  0  0  0  0  0  0  0  0
  150.9872  141.4223  159.6316 H   0  0  0  0  0  0  0  0  0  0  0  0
  152.0068  140.5895  158.4775 H   0  0  0  0  0  0  0  0  0  0  0  0
  147.2054  140.8858  157.1555 H   0  0  0  0  0  0  0  0  0  0  0  0
  1  2  1  0  0  0  0
  1 25  1  0  0  0  0
  1 26  1  0  0  0  0
  1 27  1  0  0  0  0
  2  3  2  0  0  0  0
  2  4  1  0  0  0  0
  4  5  1  0  0  0  0
  4 28  1  0  0  0  0
  5  6  1  0  0  0  0
  5 29  1  0  0  0  0
  5 30  1  0  0  0  0
  6  7  1  0  0  0  0
  6 31  1  0  0  0  0
  6 32  1  0  0  0  0
  7  8  1  0  0  0  0
  7 33  1  0  0  0  0
  7 34  1  0  0  0  0
  8  9  1  0  0  0  0
  8 35  1  0  0  0  0
  9 10  2  0  0  0  0
  9 11  1  0  0  0  0
 11 24  1  0  0  0  0
 11 12  2  0  0  0  0
 12 13  1  0  0  0  0
 12 36  1  0  0  0  0
 13 14  2  0  0  0  0
 13 37  1  0  0  0  0
 14 15  1  0  0  0  0
 14 23  1  0  0  0  0
 15 22  1  0  0  0  0
 15 16  1  0  0  0  0
 16 17  1  0  0  0  0
 16 38  1  0  0  0  0
 16 39  1  0  0  0  0
 17 18  1  0  0  0  0
 17 19  1  0  0  0  0
 17 40  1  0  0  0  0
 18 41  1  0  0  0  0
 18 42  1  0  0  0  0
 18 43  1  0  0  0  0
 19 20  1  0  0  0  0
 20 21  1  0  0  0  0
 20 22  1  0  0  0  0
 20 44  1  0  0  0  0
 21 45  1  0  0  0  0
 21 46  1  0  0  0  0
 21 47  1  0  0  0  0
 22 48  1  0  0  0  0
 22 49  1  0  0  0  0
 23 24  2  0  0  0  0
 24 50  1  0  0  0  0
M  END
> <s_m_source_file>
AV-unprocessed.smi

> <i_m_source_file_index>
1529

> <i_lp_mmshare_version>
43012

> <i_f3d_flags>
0

> <s_epik_input>
W0NIM11DKD1PKVtOSF1bQ0gyXVtDSDJdW0NIMl1bTkhdQyg9TyljMVtjSF1bY0hdYyhuW2NIXTEpTjJbQ0gyXVtDQEBIXShbQ0gzXSlPW0NAQEhdKFtDSDNdKVtDSDJdMg==

> <s_epik_cmdline>
J2VwaWtfcHl0aG9uJywgJy1waCcsICc3LjAnLCAnLXRuJywgJzgnLCAnLW1hJywgJzIwMCcsICctbWV0YWxfYmluZGluZycsICctaW1hZScsICc8aW5maWxlLm1hZT4nLCAnLW9tYWUnLCAnPG91dGZpbGUubWFlPic=

> <r_lp_tautomer_probability>
1

> <r_epik_Ionization_Penalty>
2.1474e-05

> <r_epik_Ionization_Penalty_Charging>
0

> <r_epik_Ionization_Penalty_Neutral>
2.1474e-05

> <r_epik_State_Penalty>
-0

> <r_epik_Charging_Adjusted_Penalty>
0

> <i_epik_Tot_Q>
0

> <i_epik_Tot_abs_Q>
0

> <r_epik_Metal_State_Penalty>
-0

> <b_epik_Metal_Only>
0

> <s_lp_Force_Field>
OPLS_2005

> <r_lp_Energy>
16.5769

> <b_lp_Chiralities_Consistent>
1

> <s_lp_Variant>
AV-unprocessed.smi:1529-1

> <Gold.Version>
5.8.1

> <Gold.Id.Protein>
6NUR|6NUR_protein|mol2

> <Gold.PLP.Fitness>
48.8388

> <Gold.PLP.PLP>
-44.7715

> <Gold.PLP.part.hbond>
-2.0000

> <Gold.PLP.part.metal>
0.0000

> <Gold.PLP.part.buried>
0.3518

> <Gold.PLP.part.nonpolar>
-43.7475

> <Gold.PLP.part.repulsive>
0.6568

> <Gold.PLP.ligand.clash>
0.0000

> <Gold.PLP.ligand.torsion>
0.5130

> <Gold.PLP.Chemscore.Hbond>
1.5680

> <Gold.PLP.Chemscore.CHOScore>
0.0000

> <Gold.PLP.Chemscore.Metal>
0.0000

> <Gold.Chemscore.Hbonds>
donor molecule, donor type, donor heavy atom, donor atom, acceptor molecule, acceptor atom, score
      L1  H     4    28       P1  7948  0.27
      L1  H     8    35       P1  7957  0.66

> <Gold.PLP.Chemscore.Internal.Correction>
0.3893

> <Gold.Rescore>
     Score         DG    S(hbond)    S(metal)    S(lipo)     H(rot)  DE(clash)    DE(int)     intcor
     14.37     -18.16       1.14        0.00     121.22       2.07       2.18       1.60       ----

> <Gold.Chemscore.Fitness>
14.3731

> <Gold.Chemscore.DG>
-18.1570

> <Gold.Chemscore.ZeroCoef>
-5.4800

> <Gold.Chemscore.Hbond>
1.1367

> <Gold.Chemscore.Metal>
0.0000

> <Gold.Chemscore.Lipo>
121.2226

> <Gold.Chemscore.Internal_Hbond>
0.0000

> <Gold.Chemscore.DEClash>
2.1790

> <Gold.Chemscore.DEInternal>
1.6049

> <Gold.Chemscore.Rot>
2.0713

> <Gold.Chemscore.Internal.Correction>
   9.000000E+99

> <Gold.Chemscore.Hbonds>
donor molecule, donor type, donor heavy atom, donor atom, acceptor molecule, acceptor atom, score
      L1  H     4    28       P1  7948  0.27
      L1  H     8    35       P1  7957  0.62

> <Gold.Chemscore.Hbond.Weighted>
-3.7965

> <Gold.Chemscore.Metal.Weighted>
-0.0000

> <Gold.Chemscore.Lipo.Weighted>
-14.1830

> <Gold.Chemscore.Internal_Hbond.Weighted>
0.0000

> <Gold.Chemscore.DEClash.Weighted>
2.1790

> <Gold.Chemscore.DEInternal.Weighted>
1.6049

> <Gold.Chemscore.Rot.Weighted>
5.3025

> <Gold.Chemscore.Internal.Correction.Weighted>
   9.000000E+99

> <Gold.Protein.RotatedTorsions>
[ 6907 6896 6895 6894 ] final -160.65 input  -60.11 | X-H torsion
[ 7974 7965 7964 7962 ] final  153.02 input  175.53 | X-H torsion
[ 8008 7997 7996 7995 ] final  -21.27 input   59.86 | X-H torsion
[ 10167 10162 10161 10158 ] final -110.89 input  -65.29 | X-H torsion
[ 10718 10713 10712 10709 ] final  105.69 input   66.30 | X-H torsion
[ 10763 10752 10751 10750 ] final   39.54 input  -60.55 | X-H torsion
[ 11005 11000 10999 10996 ] final   -7.31 input  -57.11 | X-H torsion

> <Gold.Protein.ActiveResidues>
 VAL166  LYS551  ARG553  GLY616  TRP617  ASP618  TYR619  PRO620  LYS621  CYS622 
 ASP623  PHE694  ASN695  SER759  ASP760  ASP761  ALA762  ILE779  LEU786  VAL792 
 PHE793  MET794  SER795  GLU796  ALA797  LYS798  CYS799  TRP800  GLU811  SER814 

> <Gold.Protein.RotatedAtoms>
  151.3524  133.3920  159.2681 H   0  0  0  0  0  0  0  0  0  0  0  0  # atno 6907 bound_to 6896
  150.9791  134.9150  159.7844 H   0  0  0  0  0  0  0  0  0  0  0  0  # atno 6908 bound_to 6896
  152.5211  134.3487  159.9296 H   0  0  0  0  0  0  0  0  0  0  0  0  # atno 6909 bound_to 6896
  144.8183  139.6745  143.6112 H   0  0  0  0  0  0  0  0  0  0  0  0  # atno 7974 bound_to 7965
  154.4716  140.2039  155.9980 H   0  0  0  0  0  0  0  0  0  0  0  0  # atno 8008 bound_to 7997
  156.1021  140.3242  155.7926 H   0  0  0  0  0  0  0  0  0  0  0  0  # atno 8009 bound_to 7997
  155.4780  140.0536  157.2961 H   0  0  0  0  0  0  0  0  0  0  0  0  # atno 8010 bound_to 7997
  140.1395  143.4291  152.1572 H   0  0  0  0  0  0  0  0  0  0  0  0  # atno 10167 bound_to 10162
  157.6696  131.0833  150.5895 H   0  0  0  0  0  0  0  0  0  0  0  0  # atno 10718 bound_to 10713
  152.9964  135.6217  154.2482 H   0  0  0  0  0  0  0  0  0  0  0  0  # atno 10763 bound_to 10752
  154.2221  135.2795  155.2922 H   0  0  0  0  0  0  0  0  0  0  0  0  # atno 10764 bound_to 10752
  154.5519  135.5730  153.6988 H   0  0  0  0  0  0  0  0  0  0  0  0  # atno 10765 bound_to 10752
  140.7114  133.8905  155.8754 H   0  0  0  0  0  0  0  0  0  0  0  0  # atno 11005 bound_to 11000
  146.2487  139.6153  142.9442 LP  0  0  0  0  0  0  0  0  0  0  0  0  # atno 17320 bound_to 7965
  145.5164  141.0433  143.2459 LP  0  0  0  0  0  0  0  0  0  0  0  0  # atno 17321 bound_to 7965
  139.5479  144.7314  151.4526 LP  0  0  0  0  0  0  0  0  0  0  0  0  # atno 17342 bound_to 10162
  140.6769  143.8170  150.7070 LP  0  0  0  0  0  0  0  0  0  0  0  0  # atno 17343 bound_to 10162
  156.6195  130.4402  149.5827 LP  0  0  0  0  0  0  0  0  0  0  0  0  # atno 17370 bound_to 10713
  156.2367  130.6826  151.1516 LP  0  0  0  0  0  0  0  0  0  0  0  0  # atno 17371 bound_to 10713
  141.0081  134.1058  157.4250 LP  0  0  0  0  0  0  0  0  0  0  0  0  # atno 17394 bound_to 11000
  139.8870  135.0086  156.6537 LP  0  0  0  0  0  0  0  0  0  0  0  0  # atno 17395 bound_to 11000

$$$$
