AV-unprocessed.smi:652|AV-procd|sdf|3203|dock2
  -GOLD-   22720 0133D 1   1.00000     0.00000
 Structure written by MMmdl.
 48 49  0  0  0  0  0  0  0  0  2 V2000
  152.3561  145.0173  158.9503 C   0  0  0  0  0  0  0  0  0  0  0  0
  150.8341  144.8534  158.8153 C   0  0  0  0  0  0  0  0  0  0  0  0
  150.1466  144.7981  160.1860 C   0  0  0  0  0  0  0  0  0  0  0  0
  150.5159  143.6428  158.0631 N   0  0  0  0  0  0  0  0  0  0  0  0
  150.8583  142.3934  158.4147 C   0  0  0  0  0  0  0  0  0  0  0  0
  151.4929  142.1282  159.4361 O   0  0  0  0  0  0  0  0  0  0  0  0
  150.4187  141.2791  157.4605 C   0  0  0  0  0  0  0  0  0  0  0  0
  150.9963  141.4485  156.0410 C   0  0  0  0  0  0  0  0  0  0  0  0
  150.6031  140.4111  155.0878 N   0  0  0  0  0  0  0  0  0  0  0  0
  149.2165  140.5865  154.6696 C   0  0  0  0  0  0  0  0  0  0  0  0
  148.7810  139.5145  153.6564 C   0  0  0  0  0  0  0  0  0  0  0  0
  148.9732  138.2196  154.2165 O   0  0  0  0  0  0  0  0  0  0  0  0
  150.3202  137.9822  154.6184 C   0  0  2  0  0  0  0  0  0  0  0  0
  150.4348  136.5481  155.1591 C   0  0  0  0  0  0  0  0  0  0  0  0
  150.0048  135.5542  154.1859 N   0  0  0  0  0  0  0  0  0  0  0  0
  150.3883  134.2137  154.3210 C   0  0  0  0  0  0  0  0  0  0  0  0
  150.0131  133.1877  153.4233 C   0  0  0  0  0  0  0  0  0  0  0  0
  150.4655  131.8818  153.6778 C   0  0  0  0  0  0  0  0  0  0  0  0
  151.2664  131.6798  154.8157 C   0  0  0  0  0  0  0  0  0  0  0  0
  151.6147  132.6746  155.6619 N   0  0  0  0  0  0  0  0  0  0  0  0
  151.1662  133.9133  155.3909 N   0  3  0  0  0  0  0  0  0  0  0  0
  150.7694  139.0631  155.6252 C   0  0  0  0  0  0  0  0  0  0  0  0
  152.6040  145.9232  159.5041 H   0  0  0  0  0  0  0  0  0  0  0  0
  152.8355  145.0900  157.9736 H   0  0  0  0  0  0  0  0  0  0  0  0
  152.8014  144.1730  159.4779 H   0  0  0  0  0  0  0  0  0  0  0  0
  150.4378  145.7189  158.2810 H   0  0  0  0  0  0  0  0  0  0  0  0
  150.3408  145.7061  160.7578 H   0  0  0  0  0  0  0  0  0  0  0  0
  150.5005  143.9517  160.7756 H   0  0  0  0  0  0  0  0  0  0  0  0
  149.0655  144.7020  160.0800 H   0  0  0  0  0  0  0  0  0  0  0  0
  149.9942  143.7655  157.2072 H   0  0  0  0  0  0  0  0  0  0  0  0
  150.7311  140.3156  157.8665 H   0  0  0  0  0  0  0  0  0  0  0  0
  149.3292  141.2751  157.4377 H   0  0  0  0  0  0  0  0  0  0  0  0
  150.7226  142.4287  155.6468 H   0  0  0  0  0  0  0  0  0  0  0  0
  152.0846  141.4523  156.1220 H   0  0  0  0  0  0  0  0  0  0  0  0
  148.5593  140.5479  155.5399 H   0  0  0  0  0  0  0  0  0  0  0  0
  149.0861  141.5737  154.2249 H   0  0  0  0  0  0  0  0  0  0  0  0
  147.7287  139.6389  153.4009 H   0  0  0  0  0  0  0  0  0  0  0  0
  149.3493  139.6060  152.7296 H   0  0  0  0  0  0  0  0  0  0  0  0
  150.9523  138.0515  153.7312 H   0  0  0  0  0  0  0  0  0  0  0  0
  151.4689  136.3476  155.4426 H   0  0  0  0  0  0  0  0  0  0  0  0
  149.8289  136.4502  156.0607 H   0  0  0  0  0  0  0  0  0  0  0  0
  149.5943  135.8738  153.3201 H   0  0  0  0  0  0  0  0  0  0  0  0
  149.3965  133.3818  152.5584 H   0  0  0  0  0  0  0  0  0  0  0  0
  150.2075  131.0619  153.0238 H   0  0  0  0  0  0  0  0  0  0  0  0
  151.6380  130.6943  155.0551 H   0  0  0  0  0  0  0  0  0  0  0  0
  151.8135  138.8863  155.8817 H   0  0  0  0  0  0  0  0  0  0  0  0
  150.1995  138.9686  156.5506 H   0  0  0  0  0  0  0  0  0  0  0  0
  151.4239  134.6695  156.0256 H   0  0  0  0  0  0  0  0  0  0  0  0
  1  2  1  0  0  0  0
  1 23  1  0  0  0  0
  1 24  1  0  0  0  0
  1 25  1  0  0  0  0
  2  3  1  0  0  0  0
  2  4  1  0  0  0  0
  2 26  1  0  0  0  0
  3 27  1  0  0  0  0
  3 28  1  0  0  0  0
  3 29  1  0  0  0  0
  4  5  1  0  0  0  0
  4 30  1  0  0  0  0
  5  6  2  0  0  0  0
  5  7  1  0  0  0  0
  7  8  1  0  0  0  0
  7 31  1  0  0  0  0
  7 32  1  0  0  0  0
  8  9  1  0  0  0  0
  8 33  1  0  0  0  0
  8 34  1  0  0  0  0
  9 22  1  0  0  0  0
  9 10  1  0  0  0  0
 10 11  1  0  0  0  0
 10 35  1  0  0  0  0
 10 36  1  0  0  0  0
 11 12  1  0  0  0  0
 11 37  1  0  0  0  0
 11 38  1  0  0  0  0
 12 13  1  0  0  0  0
 13 14  1  0  0  0  0
 13 22  1  0  0  0  0
 13 39  1  0  0  0  0
 14 15  1  0  0  0  0
 14 40  1  0  0  0  0
 14 41  1  0  0  0  0
 15 16  1  0  0  0  0
 15 42  1  0  0  0  0
 16 21  1  0  0  0  0
 16 17  2  0  0  0  0
 17 18  1  0  0  0  0
 17 43  1  0  0  0  0
 18 19  2  0  0  0  0
 18 44  1  0  0  0  0
 19 20  1  0  0  0  0
 19 45  1  0  0  0  0
 20 21  2  0  0  0  0
 21 48  1  0  0  0  0
 22 46  1  0  0  0  0
 22 47  1  0  0  0  0
M  CHG  1  21   1
M  END
> <s_m_source_file>
AV-unprocessed.smi

> <i_m_source_file_index>
652

> <i_lp_mmshare_version>
43012

> <i_f3d_flags>
0

> <s_epik_input>
W0NIM11bQ0hdKFtDSDNdKVtOSF1DKD1PKVtDSDJdW0NIMl1OMVtDSDJdW0NIMl1PW0NASF0oW0NIMl0xKVtDSDJdW05IXWMyW2NIXVtjSF1bY0hdbm4y

> <s_epik_cmdline>
J2VwaWtfcHl0aG9uJywgJy1waCcsICc3LjAnLCAnLXRuJywgJzgnLCAnLW1hJywgJzIwMCcsICctbWV0YWxfYmluZGluZycsICctaW1hZScsICc8aW5maWxlLm1hZT4nLCAnLW9tYWUnLCAnPG91dGZpbGUubWFlPic=

> <r_epik_Ionization_Penalty>
2.70989

> <r_epik_Ionization_Penalty_Charging>
2.3023

> <r_epik_Ionization_Penalty_Neutral>
0.407592

> <r_epik_State_Penalty>
2.65305

> <r_epik_Charging_Adjusted_Penalty>
4.95534

> <i_epik_Tot_Q>
1

> <i_epik_Tot_abs_Q>
1

> <r_epik_Metal_State_Penalty>
2.66064

> <b_epik_Metal_Only>
0

> <s_lp_Force_Field>
OPLS_2005

> <r_lp_Energy>
34.9838

> <b_lp_Chiralities_Consistent>
1

> <s_lp_Variant>
AV-unprocessed.smi:652-12

> <Gold.Version>
5.8.1

> <Gold.Id.Protein>
6NUR|6NUR_protein|mol2

> <Gold.PLP.Fitness>
51.3011

> <Gold.PLP.PLP>
-39.7881

> <Gold.PLP.part.hbond>
-3.3435

> <Gold.PLP.part.metal>
0.0000

> <Gold.PLP.part.buried>
-4.0453

> <Gold.PLP.part.nonpolar>
-32.5329

> <Gold.PLP.part.repulsive>
0.4038

> <Gold.PLP.ligand.clash>
0.2112

> <Gold.PLP.ligand.torsion>
0.2232

> <Gold.PLP.Chemscore.Hbond>
4.0000

> <Gold.PLP.Chemscore.CHOScore>
0.0000

> <Gold.PLP.Chemscore.Metal>
0.0000

> <Gold.Chemscore.Hbonds>
donor molecule, donor type, donor heavy atom, donor atom, acceptor molecule, acceptor atom, score
      L1  H     4    30       P1  8028  0.80
      L1  H    15    42       P1  7948  1.70
      P1  H  7989  7998       L1     9  1.00

> <Gold.PLP.Chemscore.Internal.Correction>
0.1705

> <Gold.Rescore>
     Score         DG    S(hbond)    S(metal)    S(lipo)     H(rot)  DE(clash)    DE(int)     intcor
     14.80     -16.82       1.93        0.00      91.48       2.28       0.57       1.45       ----

> <Gold.Chemscore.Fitness>
14.8022

> <Gold.Chemscore.DG>
-16.8170

> <Gold.Chemscore.ZeroCoef>
-5.4800

> <Gold.Chemscore.Hbond>
1.9347

> <Gold.Chemscore.Metal>
0.0000

> <Gold.Chemscore.Lipo>
91.4842

> <Gold.Chemscore.Internal_Hbond>
0.0000

> <Gold.Chemscore.DEClash>
0.5672

> <Gold.Chemscore.DEInternal>
1.4477

> <Gold.Chemscore.Rot>
2.2768

> <Gold.Chemscore.Internal.Correction>
   9.000000E+99

> <Gold.Chemscore.Hbonds>
donor molecule, donor type, donor heavy atom, donor atom, acceptor molecule, acceptor atom, score
      L1  H     4    30       P1  8028  0.72
      L1  H    15    42       P1  7948  0.14
      P1  H  7989  7998       L1     9  0.14

> <Gold.Chemscore.Hbond.Weighted>
-6.4620

> <Gold.Chemscore.Metal.Weighted>
-0.0000

> <Gold.Chemscore.Lipo.Weighted>
-10.7036

> <Gold.Chemscore.Internal_Hbond.Weighted>
0.0000

> <Gold.Chemscore.DEClash.Weighted>
0.5672

> <Gold.Chemscore.DEInternal.Weighted>
1.4477

> <Gold.Chemscore.Rot.Weighted>
5.8286

> <Gold.Chemscore.Internal.Correction.Weighted>
   9.000000E+99

> <Gold.Protein.RotatedTorsions>
[ 6907 6896 6895 6894 ] final -137.50 input  -60.11 | X-H torsion
[ 7974 7965 7964 7962 ] final  104.76 input  175.53 | X-H torsion
[ 8008 7997 7996 7995 ] final  -19.43 input   59.86 | X-H torsion
[ 10167 10162 10161 10158 ] final -144.72 input  -65.29 | X-H torsion
[ 10718 10713 10712 10709 ] final  114.42 input   66.30 | X-H torsion
[ 10763 10752 10751 10750 ] final -156.22 input  -60.55 | X-H torsion
[ 11005 11000 10999 10996 ] final -179.75 input  -57.11 | X-H torsion

> <Gold.Protein.ActiveResidues>
 VAL166  LYS551  ARG553  GLY616  TRP617  ASP618  TYR619  PRO620  LYS621  CYS622 
 ASP623  PHE694  ASN695  SER759  ASP760  ASP761  ALA762  ILE779  LEU786  VAL792 
 PHE793  MET794  SER795  GLU796  ALA797  LYS798  CYS799  TRP800  GLU811  SER814 

> <Gold.Protein.RotatedAtoms>
  151.0232  133.5857  159.2668 H   0  0  0  0  0  0  0  0  0  0  0  0  # atno 6907 bound_to 6896
  151.2967  135.0756  159.9233 H   0  0  0  0  0  0  0  0  0  0  0  0  # atno 6908 bound_to 6896
  152.5328  133.9921  159.7909 H   0  0  0  0  0  0  0  0  0  0  0  0  # atno 6909 bound_to 6896
  145.3286  139.2493  143.3673 H   0  0  0  0  0  0  0  0  0  0  0  0  # atno 7974 bound_to 7965
  154.4837  140.2089  155.9704 H   0  0  0  0  0  0  0  0  0  0  0  0  # atno 8008 bound_to 7997
  156.1204  140.3214  155.8169 H   0  0  0  0  0  0  0  0  0  0  0  0  # atno 8009 bound_to 7997
  155.4478  140.0515  157.2995 H   0  0  0  0  0  0  0  0  0  0  0  0  # atno 8010 bound_to 7997
  139.7872  143.8016  152.2646 H   0  0  0  0  0  0  0  0  0  0  0  0  # atno 10167 bound_to 10162
  157.6282  131.0998  150.7183 H   0  0  0  0  0  0  0  0  0  0  0  0  # atno 10718 bound_to 10713
  154.7729  135.3150  154.8152 H   0  0  0  0  0  0  0  0  0  0  0  0  # atno 10763 bound_to 10752
  153.8883  135.6828  153.4766 H   0  0  0  0  0  0  0  0  0  0  0  0  # atno 10764 bound_to 10752
  153.1347  135.4765  154.9338 H   0  0  0  0  0  0  0  0  0  0  0  0  # atno 10765 bound_to 10752
  140.4152  134.6655  157.4635 H   0  0  0  0  0  0  0  0  0  0  0  0  # atno 11005 bound_to 11000
  146.3054  140.3858  142.8689 LP  0  0  0  0  0  0  0  0  0  0  0  0  # atno 17320 bound_to 7965
  144.8882  140.7490  143.5943 LP  0  0  0  0  0  0  0  0  0  0  0  0  # atno 17321 bound_to 7965
  139.8097  144.7341  150.9714 LP  0  0  0  0  0  0  0  0  0  0  0  0  # atno 17342 bound_to 10162
  140.7820  143.4263  151.0763 LP  0  0  0  0  0  0  0  0  0  0  0  0  # atno 17343 bound_to 10162
  156.7527  130.4774  149.5453 LP  0  0  0  0  0  0  0  0  0  0  0  0  # atno 17370 bound_to 10713
  156.1468  130.6282  151.0542 LP  0  0  0  0  0  0  0  0  0  0  0  0  # atno 17371 bound_to 10713
  140.0239  134.6506  155.9200 LP  0  0  0  0  0  0  0  0  0  0  0  0  # atno 17394 bound_to 11000
  141.1805  133.6546  156.5003 LP  0  0  0  0  0  0  0  0  0  0  0  0  # atno 17395 bound_to 11000

$$$$
