AV-unprocessed.smi:13|AV-procd|sdf|70|dock7
  -GOLD-   2262015193D 1   1.00000     0.00000
 Structure written by MMmdl.
 54 58  0  0  0  0  0  0  0  0  1 V2000
  150.5718  137.7747  159.4486 C   0  0  0  0  0  0  0  0  0  0  0  0
  149.3871  137.4986  158.5133 C   0  0  0  0  0  0  0  0  0  0  0  0
  148.9036  138.8563  158.0046 C   0  0  0  0  0  0  0  0  0  0  0  0
  149.6278  136.4283  157.4375 C   0  0  0  0  0  0  0  0  0  0  0  0
  148.9882  135.4809  158.3361 N   0  0  0  0  0  0  0  0  0  0  0  0
  148.1535  134.5160  157.7121 C   0  0  0  0  0  0  0  0  0  0  0  0
  147.5952  133.5852  158.5263 N   0  0  0  0  0  0  0  0  0  0  0  0
  146.7814  132.6428  158.0432 C   0  0  0  0  0  0  0  0  0  0  0  0
  146.3903  132.4458  156.7845 N   0  0  0  0  0  0  0  0  0  0  0  0
  146.9403  133.3729  155.9511 C   0  0  0  0  0  0  0  0  0  0  0  0
  147.8222  134.4273  156.3258 C   0  0  0  0  0  0  0  0  0  0  0  0
  148.1699  135.1654  155.1994 N   0  0  0  0  0  0  0  0  0  0  0  0
  147.5348  134.5819  154.2207 C   0  0  0  0  0  0  0  0  0  0  0  0
  146.7656  133.5009  154.5843 N   0  0  0  0  0  0  0  0  0  0  0  0
  145.9520  132.6758  153.7047 C   0  0  0  0  0  0  0  0  0  0  0  0
  146.7459  131.5300  153.0354 C   0  0  2  0  0  0  0  0  0  0  0  0
  147.9150  132.0681  152.4415 O   0  0  0  0  0  0  0  0  0  0  0  0
  145.9661  130.7689  151.9665 C   0  0  0  0  0  0  0  0  0  0  0  0
  146.5391  129.3624  152.0670 C   0  0  0  0  0  0  0  0  0  0  0  0
  146.6975  129.1937  153.4652 O   0  0  0  0  0  0  0  0  0  0  0  0
  147.1667  130.4192  154.0187 C   0  0  0  0  0  0  0  0  0  0  0  0
  148.2818  136.5521  159.0273 C   0  0  1  0  0  0  0  0  0  0  0  0
  148.1085  136.2464  160.5156 C   0  0  2  0  0  0  0  0  0  0  0  0
  147.1563  135.0886  160.8088 C   0  0  0  0  0  0  0  0  0  0  0  0
  146.6967  135.3714  162.2278 C   0  0  0  0  0  0  0  0  0  0  0  0
  146.9581  136.8698  162.4074 C   0  0  0  0  0  0  0  0  0  0  0  0
  147.4478  137.3277  161.1532 O   0  0  0  0  0  0  0  0  0  0  0  0
  151.3725  138.3060  158.9332 H   0  0  0  0  0  0  0  0  0  0  0  0
  151.0026  136.8515  159.8372 H   0  0  0  0  0  0  0  0  0  0  0  0
  150.2736  138.3792  160.3057 H   0  0  0  0  0  0  0  0  0  0  0  0
  148.0629  138.7482  157.3184 H   0  0  0  0  0  0  0  0  0  0  0  0
  149.6902  139.3883  157.4688 H   0  0  0  0  0  0  0  0  0  0  0  0
  148.5706  139.4937  158.8244 H   0  0  0  0  0  0  0  0  0  0  0  0
  149.0832  136.6131  156.5114 H   0  0  0  0  0  0  0  0  0  0  0  0
  150.6792  136.2078  157.2508 H   0  0  0  0  0  0  0  0  0  0  0  0
  146.3852  131.9496  158.7703 H   0  0  0  0  0  0  0  0  0  0  0  0
  147.6047  134.9304  153.2003 H   0  0  0  0  0  0  0  0  0  0  0  0
  145.1183  132.2746  154.2829 H   0  0  0  0  0  0  0  0  0  0  0  0
  145.5120  133.3205  152.9431 H   0  0  0  0  0  0  0  0  0  0  0  0
  148.0433  131.6509  151.6033 H   0  0  0  0  0  0  0  0  0  0  0  0
  144.9076  130.7322  152.2261 H   0  0  0  0  0  0  0  0  0  0  0  0
  146.0486  131.1995  150.9674 H   0  0  0  0  0  0  0  0  0  0  0  0
  145.8805  128.6052  151.6411 H   0  0  0  0  0  0  0  0  0  0  0  0
  147.5104  129.2963  151.5740 H   0  0  0  0  0  0  0  0  0  0  0  0
  148.2493  130.3713  154.1469 H   0  0  0  0  0  0  0  0  0  0  0  0
  146.7284  130.5525  155.0081 H   0  0  0  0  0  0  0  0  0  0  0  0
  147.3347  136.7926  158.5432 H   0  0  0  0  0  0  0  0  0  0  0  0
  149.0676  136.0793  161.0096 H   0  0  0  0  0  0  0  0  0  0  0  0
  146.3018  135.1219  160.1311 H   0  0  0  0  0  0  0  0  0  0  0  0
  147.6311  134.1129  160.7039 H   0  0  0  0  0  0  0  0  0  0  0  0
  145.6463  135.1142  162.3679 H   0  0  0  0  0  0  0  0  0  0  0  0
  147.2827  134.7976  162.9467 H   0  0  0  0  0  0  0  0  0  0  0  0
  146.0584  137.4175  162.6887 H   0  0  0  0  0  0  0  0  0  0  0  0
  147.7135  137.0390  163.1761 H   0  0  0  0  0  0  0  0  0  0  0  0
  1  2  1  0  0  0  0
  1 28  1  0  0  0  0
  1 29  1  0  0  0  0
  1 30  1  0  0  0  0
  2 22  1  0  0  0  0
  2  3  1  0  0  0  0
  2  4  1  0  0  0  0
  3 31  1  0  0  0  0
  3 32  1  0  0  0  0
  3 33  1  0  0  0  0
  4  5  1  0  0  0  0
  4 34  1  0  0  0  0
  4 35  1  0  0  0  0
  5  6  1  0  0  0  0
  5 22  1  0  0  0  0
  6 11  1  0  0  0  0
  6  7  2  0  0  0  0
  7  8  1  0  0  0  0
  8  9  2  0  0  0  0
  8 36  1  0  0  0  0
  9 10  1  0  0  0  0
 10 14  1  0  0  0  0
 10 11  2  0  0  0  0
 11 12  1  0  0  0  0
 12 13  2  0  0  0  0
 13 14  1  0  0  0  0
 13 37  1  0  0  0  0
 14 15  1  0  0  0  0
 15 16  1  0  0  0  0
 15 38  1  0  0  0  0
 15 39  1  0  0  0  0
 16 21  1  0  0  0  0
 16 17  1  0  0  0  0
 16 18  1  0  0  0  0
 17 40  1  0  0  0  0
 18 19  1  0  0  0  0
 18 41  1  0  0  0  0
 18 42  1  0  0  0  0
 19 20  1  0  0  0  0
 19 43  1  0  0  0  0
 19 44  1  0  0  0  0
 20 21  1  0  0  0  0
 21 45  1  0  0  0  0
 21 46  1  0  0  0  0
 22 23  1  0  0  0  0
 22 47  1  0  0  0  0
 23 27  1  0  0  0  0
 23 24  1  0  0  0  0
 23 48  1  0  0  0  0
 24 25  1  0  0  0  0
 24 49  1  0  0  0  0
 24 50  1  0  0  0  0
 25 26  1  0  0  0  0
 25 51  1  0  0  0  0
 25 52  1  0  0  0  0
 26 27  1  0  0  0  0
 26 53  1  0  0  0  0
 26 54  1  0  0  0  0
M  END
> <s_m_source_file>
AV-unprocessed.smi

> <i_m_source_file_index>
13

> <i_lp_mmshare_version>
43012

> <i_f3d_flags>
0

> <s_epik_input>
TzFbQ0gyXVtDSDJdW0NIMl1bQ0BIXTFbQ0BASF0yTihbQ0gyXUMyKFtDSDNdKVtDSDNdKWMobltjSF1uMyljKGMzNCluW2NIXW40W0NIMl1bQ0BAXTUoW09IXSlbQ0gyXVtDSDJdT1tDSDJdNQ==

> <s_epik_cmdline>
J2VwaWtfcHl0aG9uJywgJy1waCcsICc3LjAnLCAnLXRuJywgJzgnLCAnLW1hJywgJzIwMCcsICctbWV0YWxfYmluZGluZycsICctaW1hZScsICc8aW5maWxlLm1hZT4nLCAnLW9tYWUnLCAnPG91dGZpbGUubWFlPic=

> <r_lp_tautomer_probability>
1

> <r_epik_Ionization_Penalty>
0.00202764

> <r_epik_Ionization_Penalty_Charging>
0

> <r_epik_Ionization_Penalty_Neutral>
0.00202764

> <r_epik_State_Penalty>
0.00134017

> <r_epik_Charging_Adjusted_Penalty>
0.00134017

> <i_epik_Tot_Q>
0

> <i_epik_Tot_abs_Q>
0

> <r_epik_Metal_State_Penalty>
-0

> <b_epik_Metal_Only>
0

> <s_lp_Force_Field>
OPLS_2005

> <r_lp_Energy>
60.4811

> <b_lp_Chiralities_Consistent>
1

> <s_lp_Variant>
AV-unprocessed.smi:13-2

> <Gold.Version>
5.8.1

> <Gold.Id.Protein>
6NUR|6NUR_protein|mol2

> <Gold.PLP.Fitness>
46.7956

> <Gold.PLP.PLP>
-33.5736

> <Gold.PLP.part.hbond>
-4.0000

> <Gold.PLP.part.metal>
0.0000

> <Gold.PLP.part.buried>
-5.4813

> <Gold.PLP.part.nonpolar>
-24.5394

> <Gold.PLP.part.repulsive>
0.2344

> <Gold.PLP.ligand.clash>
0.0000

> <Gold.PLP.ligand.torsion>
0.8138

> <Gold.PLP.Chemscore.Hbond>
3.7980

> <Gold.PLP.Chemscore.CHOScore>
1.0000

> <Gold.PLP.Chemscore.Metal>
0.0000

> <Gold.Chemscore.Hbonds>
donor molecule, donor type, donor heavy atom, donor atom, acceptor molecule, acceptor atom, score
      L1  H    17    40       P1 10747  1.00
      P1  H  6896  6907       L1     5  0.32
      P1  H  6931  6943       L1    27  0.58
      P1  H  6934  6947       L1    27  0.98
      L1  C    13    37       P1  7948  1.00

> <Gold.PLP.Chemscore.Internal.Correction>
0.4555

> <Gold.Rescore>
     Score         DG    S(hbond)    S(metal)    S(lipo)     H(rot)  DE(clash)    DE(int)     intcor
     13.73     -17.15       2.36        0.00      82.55       2.30       0.16       3.26       ----

> <Gold.Chemscore.Fitness>
13.7255

> <Gold.Chemscore.DG>
-17.1487

> <Gold.Chemscore.ZeroCoef>
-5.4800

> <Gold.Chemscore.Hbond>
2.3645

> <Gold.Chemscore.Metal>
0.0000

> <Gold.Chemscore.Lipo>
82.5486

> <Gold.Chemscore.Internal_Hbond>
0.0000

> <Gold.Chemscore.DEClash>
0.1620

> <Gold.Chemscore.DEInternal>
3.2612

> <Gold.Chemscore.Rot>
2.2996

> <Gold.Chemscore.Internal.Correction>
   9.000000E+99

> <Gold.Chemscore.Hbonds>
donor molecule, donor type, donor heavy atom, donor atom, acceptor molecule, acceptor atom, score
      L1  H    17    40       P1 10747  0.99
      P1  H  6896  6907       L1     5  0.12
      P1  H  6931  6943       L1    27  0.02
      P1  H  6934  6947       L1    27  0.77

> <Gold.Chemscore.Hbond.Weighted>
-7.8974

> <Gold.Chemscore.Metal.Weighted>
-0.0000

> <Gold.Chemscore.Lipo.Weighted>
-9.6582

> <Gold.Chemscore.Internal_Hbond.Weighted>
0.0000

> <Gold.Chemscore.DEClash.Weighted>
0.1620

> <Gold.Chemscore.DEInternal.Weighted>
3.2612

> <Gold.Chemscore.Rot.Weighted>
5.8869

> <Gold.Chemscore.Internal.Correction.Weighted>
   9.000000E+99

> <Gold.Protein.RotatedTorsions>
[ 6907 6896 6895 6894 ] final  -88.60 input  -60.11 | X-H torsion
[ 7974 7965 7964 7962 ] final  154.98 input  175.53 | X-H torsion
[ 8008 7997 7996 7995 ] final  -10.13 input   59.86 | X-H torsion
[ 10167 10162 10161 10158 ] final  174.94 input  -65.29 | X-H torsion
[ 10718 10713 10712 10709 ] final   23.90 input   66.30 | X-H torsion
[ 10763 10752 10751 10750 ] final   -4.84 input  -60.55 | X-H torsion
[ 11005 11000 10999 10996 ] final  -20.96 input  -57.11 | X-H torsion

> <Gold.Protein.ActiveResidues>
 VAL166  LYS551  ARG553  GLY616  TRP617  ASP618  TYR619  PRO620  LYS621  CYS622 
 ASP623  PHE694  ASN695  SER759  ASP760  ASP761  ALA762  ILE779  LEU786  VAL792 
 PHE793  MET794  SER795  GLU796  ALA797  LYS798  CYS799  TRP800  GLU811  SER814 

> <Gold.Protein.RotatedAtoms>
  150.6869  134.2717  159.4590 H   0  0  0  0  0  0  0  0  0  0  0  0  # atno 6907 bound_to 6896
  152.0638  134.9574  160.0584 H   0  0  0  0  0  0  0  0  0  0  0  0  # atno 6908 bound_to 6896
  152.0991  133.4205  159.4616 H   0  0  0  0  0  0  0  0  0  0  0  0  # atno 6909 bound_to 6896
  144.8054  139.7006  143.6164 H   0  0  0  0  0  0  0  0  0  0  0  0  # atno 7974 bound_to 7965
  154.5583  140.2337  155.8375 H   0  0  0  0  0  0  0  0  0  0  0  0  # atno 8008 bound_to 7997
  156.2007  140.3053  155.9481 H   0  0  0  0  0  0  0  0  0  0  0  0  # atno 8009 bound_to 7997
  155.2938  140.0428  157.3015 H   0  0  0  0  0  0  0  0  0  0  0  0  # atno 8010 bound_to 7997
  139.5159  144.3089  152.0310 H   0  0  0  0  0  0  0  0  0  0  0  0  # atno 10167 bound_to 10162
  157.1724  130.6765  149.6082 H   0  0  0  0  0  0  0  0  0  0  0  0  # atno 10718 bound_to 10713
  153.3903  135.7001  153.6500 H   0  0  0  0  0  0  0  0  0  0  0  0  # atno 10763 bound_to 10752
  153.5075  135.3639  155.2571 H   0  0  0  0  0  0  0  0  0  0  0  0  # atno 10764 bound_to 10752
  154.8701  135.4127  154.3218 H   0  0  0  0  0  0  0  0  0  0  0  0  # atno 10765 bound_to 10752
  140.8515  133.7853  155.9971 H   0  0  0  0  0  0  0  0  0  0  0  0  # atno 11005 bound_to 11000
  146.2344  139.5877  142.9533 LP  0  0  0  0  0  0  0  0  0  0  0  0  # atno 17320 bound_to 7965
  145.5451  141.0418  143.2309 LP  0  0  0  0  0  0  0  0  0  0  0  0  # atno 17321 bound_to 7965
  140.2534  144.4145  150.6213 LP  0  0  0  0  0  0  0  0  0  0  0  0  # atno 17342 bound_to 10162
  140.6209  143.2176  151.6697 LP  0  0  0  0  0  0  0  0  0  0  0  0  # atno 17343 bound_to 10162
  155.9736  130.4674  150.6325 LP  0  0  0  0  0  0  0  0  0  0  0  0  # atno 17370 bound_to 10713
  157.4031  131.0813  151.1290 LP  0  0  0  0  0  0  0  0  0  0  0  0  # atno 17371 bound_to 10713
  140.8785  134.2640  157.5156 LP  0  0  0  0  0  0  0  0  0  0  0  0  # atno 17394 bound_to 11000
  139.8704  134.9603  156.4359 LP  0  0  0  0  0  0  0  0  0  0  0  0  # atno 17395 bound_to 11000

$$$$
