AV-unprocessed.smi:1335|AV-procd|sdf|5494|dock8
  -GOLD-   22720 5 73D 1   1.00000     0.00000
 Structure written by MMmdl.
 47 49  0  0  0  0  0  0  0  0  1 V2000
  153.6473  141.0955  161.0035 C   0  0  0  0  0  0  0  0  0  0  0  0
  152.7898  141.0243  159.8734 O   0  0  0  0  0  0  0  0  0  0  0  0
  152.2602  142.1976  159.3747 C   0  0  0  0  0  0  0  0  0  0  0  0
  152.5819  143.4790  159.8923 C   0  0  0  0  0  0  0  0  0  0  0  0
  152.0186  144.6418  159.3340 C   0  0  0  0  0  0  0  0  0  0  0  0
  151.1317  144.5434  158.2485 C   0  0  0  0  0  0  0  0  0  0  0  0
  150.8044  143.2798  157.7263 C   0  0  0  0  0  0  0  0  0  0  0  0
  151.3524  142.1066  158.2900 C   0  0  0  0  0  0  0  0  0  0  0  0
  150.9862  140.7547  157.6948 C   0  0  0  0  0  0  0  0  0  0  0  0
  150.2939  139.9350  158.6225 O   0  0  0  0  0  0  0  0  0  0  0  0
  149.4871  138.9467  158.0034 C   0  0  0  0  0  0  0  0  0  0  0  0
  149.4237  137.7198  158.9253 C   0  0  2  0  0  0  0  0  0  0  0  0
  150.7208  137.1618  158.9784 O   0  0  0  0  0  0  0  0  0  0  0  0
  148.4417  136.6477  158.4084 C   0  0  0  0  0  0  0  0  0  0  0  0
  147.9720  135.7889  159.4924 N   0  0  0  0  0  0  0  0  0  0  0  0
  147.5560  136.1879  160.7172 C   0  0  0  0  0  0  0  0  0  0  0  0
  147.5232  137.3484  161.1262 O   0  0  0  0  0  0  0  0  0  0  0  0
  147.1742  135.0877  161.4078 N   0  0  0  0  0  0  0  0  0  0  0  0
  146.6468  135.0429  162.7661 C   0  0  0  0  0  0  0  0  0  0  0  0
  147.3345  133.9567  160.5970 C   0  0  0  0  0  0  0  0  0  0  0  0
  147.0699  132.5986  160.8432 C   0  0  0  0  0  0  0  0  0  0  0  0
  147.3385  131.6880  159.7941 C   0  0  0  0  0  0  0  0  0  0  0  0
  147.8509  132.1415  158.5506 C   0  0  0  0  0  0  0  0  0  0  0  0
  148.1070  133.5152  158.3301 C   0  0  0  0  0  0  0  0  0  0  0  0
  147.8348  134.3972  159.3903 C   0  0  0  0  0  0  0  0  0  0  0  0
  153.9690  140.0897  161.2739 H   0  0  0  0  0  0  0  0  0  0  0  0
  153.1349  141.5201  161.8678 H   0  0  0  0  0  0  0  0  0  0  0  0
  154.5426  141.6805  160.7890 H   0  0  0  0  0  0  0  0  0  0  0  0
  153.2639  143.5998  160.7200 H   0  0  0  0  0  0  0  0  0  0  0  0
  152.2724  145.6113  159.7368 H   0  0  0  0  0  0  0  0  0  0  0  0
  150.7046  145.4357  157.8150 H   0  0  0  0  0  0  0  0  0  0  0  0
  150.1283  143.2171  156.8865 H   0  0  0  0  0  0  0  0  0  0  0  0
  150.3676  140.9257  156.8124 H   0  0  0  0  0  0  0  0  0  0  0  0
  151.8846  140.2296  157.3681 H   0  0  0  0  0  0  0  0  0  0  0  0
  148.4863  139.3357  157.8075 H   0  0  0  0  0  0  0  0  0  0  0  0
  149.9281  138.6716  157.0437 H   0  0  0  0  0  0  0  0  0  0  0  0
  149.1481  138.0505  159.9277 H   0  0  0  0  0  0  0  0  0  0  0  0
  151.1031  137.2067  158.1154 H   0  0  0  0  0  0  0  0  0  0  0  0
  147.5626  137.1228  157.9718 H   0  0  0  0  0  0  0  0  0  0  0  0
  148.8821  136.0608  157.6004 H   0  0  0  0  0  0  0  0  0  0  0  0
  147.1905  134.3080  163.3600 H   0  0  0  0  0  0  0  0  0  0  0  0
  145.5943  134.7590  162.7500 H   0  0  0  0  0  0  0  0  0  0  0  0
  146.7298  136.0071  163.2692 H   0  0  0  0  0  0  0  0  0  0  0  0
  146.6768  132.2620  161.7911 H   0  0  0  0  0  0  0  0  0  0  0  0
  147.1494  130.6348  159.9410 H   0  0  0  0  0  0  0  0  0  0  0  0
  148.0473  131.4300  157.7622 H   0  0  0  0  0  0  0  0  0  0  0  0
  148.4929  133.8673  157.3853 H   0  0  0  0  0  0  0  0  0  0  0  0
  1  2  1  0  0  0  0
  1 26  1  0  0  0  0
  1 27  1  0  0  0  0
  1 28  1  0  0  0  0
  2  3  1  0  0  0  0
  3  8  1  0  0  0  0
  3  4  2  0  0  0  0
  4  5  1  0  0  0  0
  4 29  1  0  0  0  0
  5  6  2  0  0  0  0
  5 30  1  0  0  0  0
  6  7  1  0  0  0  0
  6 31  1  0  0  0  0
  7  8  2  0  0  0  0
  7 32  1  0  0  0  0
  8  9  1  0  0  0  0
  9 10  1  0  0  0  0
  9 33  1  0  0  0  0
  9 34  1  0  0  0  0
 10 11  1  0  0  0  0
 11 12  1  0  0  0  0
 11 35  1  0  0  0  0
 11 36  1  0  0  0  0
 12 13  1  0  0  0  0
 12 14  1  0  0  0  0
 12 37  1  0  0  0  0
 13 38  1  0  0  0  0
 14 15  1  0  0  0  0
 14 39  1  0  0  0  0
 14 40  1  0  0  0  0
 15 25  1  0  0  0  0
 15 16  1  0  0  0  0
 16 17  2  0  0  0  0
 16 18  1  0  0  0  0
 18 19  1  0  0  0  0
 18 20  1  0  0  0  0
 19 41  1  0  0  0  0
 19 42  1  0  0  0  0
 19 43  1  0  0  0  0
 20 25  2  0  0  0  0
 20 21  1  0  0  0  0
 21 22  2  0  0  0  0
 21 44  1  0  0  0  0
 22 23  1  0  0  0  0
 22 45  1  0  0  0  0
 23 24  2  0  0  0  0
 23 46  1  0  0  0  0
 24 25  1  0  0  0  0
 24 47  1  0  0  0  0
M  END
> <s_m_source_file>
AV-unprocessed.smi

> <i_m_source_file_index>
1335

> <i_lp_mmshare_version>
43012

> <i_f3d_flags>
0

> <s_epik_input>
W0NIM11PYzFbY0hdW2NIXVtjSF1bY0hdYzFbQ0gyXU9bQ0gyXVtDQEhdKFtPSF0pW0NIMl1uKGMoPU8pbjJbQ0gzXSljKGMyMylbY0hdW2NIXVtjSF1bY0hdMw==

> <s_epik_cmdline>
J2VwaWtfcHl0aG9uJywgJy1waCcsICc3LjAnLCAnLXRuJywgJzgnLCAnLW1hJywgJzIwMCcsICctbWV0YWxfYmluZGluZycsICctaW1hZScsICc8aW5maWxlLm1hZT4nLCAnLW9tYWUnLCAnPG91dGZpbGUubWFlPic=

> <r_lp_tautomer_probability>
1

> <r_epik_Ionization_Penalty>
1.07897e-06

> <r_epik_Ionization_Penalty_Charging>
2.2947e-09

> <r_epik_Ionization_Penalty_Neutral>
1.07667e-06

> <r_epik_State_Penalty>
-0

> <r_epik_Charging_Adjusted_Penalty>
2.2947e-09

> <i_epik_Tot_Q>
0

> <i_epik_Tot_abs_Q>
0

> <r_epik_Metal_State_Penalty>
-0

> <b_epik_Metal_Only>
0

> <s_lp_Force_Field>
OPLS_2005

> <r_lp_Energy>
50.1795

> <b_lp_Chiralities_Consistent>
1

> <s_lp_Variant>
AV-unprocessed.smi:1335-1

> <Gold.Version>
5.8.1

> <Gold.Id.Protein>
6NUR|6NUR_protein|mol2

> <Gold.PLP.Fitness>
57.3011

> <Gold.PLP.PLP>
-50.6112

> <Gold.PLP.part.hbond>
-3.0000

> <Gold.PLP.part.metal>
0.0000

> <Gold.PLP.part.buried>
-4.9831

> <Gold.PLP.part.nonpolar>
-42.5903

> <Gold.PLP.part.repulsive>
0.0000

> <Gold.PLP.ligand.clash>
0.0000

> <Gold.PLP.ligand.torsion>
0.8452

> <Gold.PLP.Chemscore.Hbond>
2.7600

> <Gold.PLP.Chemscore.CHOScore>
0.0000

> <Gold.PLP.Chemscore.Metal>
0.0000

> <Gold.Chemscore.Hbonds>
donor molecule, donor type, donor heavy atom, donor atom, acceptor molecule, acceptor atom, score
      P1  H  6896  6907       L1    13  0.32
      P1  H  6931  6943       L1    17  0.82
      P1  H  6934  6947       L1    17  0.94

> <Gold.PLP.Chemscore.Internal.Correction>
0.1002

> <Gold.Rescore>
     Score         DG    S(hbond)    S(metal)    S(lipo)     H(rot)  DE(clash)    DE(int)     intcor
     20.95     -22.60       2.67        0.00     124.97       2.50       0.00       1.65       ----

> <Gold.Chemscore.Fitness>
20.9514

> <Gold.Chemscore.DG>
-22.6029

> <Gold.Chemscore.ZeroCoef>
-5.4800

> <Gold.Chemscore.Hbond>
2.6681

> <Gold.Chemscore.Metal>
0.0000

> <Gold.Chemscore.Lipo>
124.9679

> <Gold.Chemscore.Internal_Hbond>
0.0000

> <Gold.Chemscore.DEClash>
0.0018

> <Gold.Chemscore.DEInternal>
1.6496

> <Gold.Chemscore.Rot>
2.5038

> <Gold.Chemscore.Internal.Correction>
   9.000000E+99

> <Gold.Chemscore.Hbonds>
donor molecule, donor type, donor heavy atom, donor atom, acceptor molecule, acceptor atom, score
      P1  H  6896  6907       L1    13  0.20
      P1  H  6931  6943       L1    17  0.81
      P1  H  6934  6947       L1    17  0.91

> <Gold.Chemscore.Hbond.Weighted>
-8.9114

> <Gold.Chemscore.Metal.Weighted>
-0.0000

> <Gold.Chemscore.Lipo.Weighted>
-14.6212

> <Gold.Chemscore.Internal_Hbond.Weighted>
0.0000

> <Gold.Chemscore.DEClash.Weighted>
0.0018

> <Gold.Chemscore.DEInternal.Weighted>
1.6496

> <Gold.Chemscore.Rot.Weighted>
6.4098

> <Gold.Chemscore.Internal.Correction.Weighted>
   9.000000E+99

> <Gold.Protein.RotatedTorsions>
[ 6907 6896 6895 6894 ] final  -13.14 input  -60.11 | X-H torsion
[ 7974 7965 7964 7962 ] final  121.74 input  175.53 | X-H torsion
[ 8008 7997 7996 7995 ] final -153.24 input   59.86 | X-H torsion
[ 10167 10162 10161 10158 ] final -168.25 input  -65.29 | X-H torsion
[ 10718 10713 10712 10709 ] final  -90.98 input   66.30 | X-H torsion
[ 10763 10752 10751 10750 ] final -169.14 input  -60.55 | X-H torsion
[ 11005 11000 10999 10996 ] final   46.87 input  -57.11 | X-H torsion

> <Gold.Protein.ActiveResidues>
 VAL166  LYS551  ARG553  GLY616  TRP617  ASP618  TYR619  PRO620  LYS621  CYS622 
 ASP623  PHE694  ASN695  SER759  ASP760  ASP761  ALA762  ILE779  LEU786  VAL792 
 PHE793  MET794  SER795  GLU796  ALA797  LYS798  CYS799  TRP800  GLU811  SER814 

> <Gold.Protein.RotatedAtoms>
  151.3596  135.0901  159.9429 H   0  0  0  0  0  0  0  0  0  0  0  0  # atno 6907 bound_to 6896
  152.5165  133.9272  159.7573 H   0  0  0  0  0  0  0  0  0  0  0  0  # atno 6908 bound_to 6896
  150.9663  133.6337  159.2775 H   0  0  0  0  0  0  0  0  0  0  0  0  # atno 6909 bound_to 6896
  145.1157  139.3422  143.4740 H   0  0  0  0  0  0  0  0  0  0  0  0  # atno 7974 bound_to 7965
  155.6677  140.0730  157.2531 H   0  0  0  0  0  0  0  0  0  0  0  0  # atno 8008 bound_to 7997
  154.4129  140.1704  156.1897 H   0  0  0  0  0  0  0  0  0  0  0  0  # atno 8009 bound_to 7997
  155.9643  140.3367  155.6521 H   0  0  0  0  0  0  0  0  0  0  0  0  # atno 8010 bound_to 7997
  139.5997  144.1037  152.1729 H   0  0  0  0  0  0  0  0  0  0  0  0  # atno 10167 bound_to 10162
  155.9991  130.4930  150.5404 H   0  0  0  0  0  0  0  0  0  0  0  0  # atno 10718 bound_to 10713
  154.6554  135.2917  154.9934 H   0  0  0  0  0  0  0  0  0  0  0  0  # atno 10763 bound_to 10752
  154.1012  135.6576  153.4872 H   0  0  0  0  0  0  0  0  0  0  0  0  # atno 10764 bound_to 10752
  153.0399  135.5243  154.7481 H   0  0  0  0  0  0  0  0  0  0  0  0  # atno 10765 bound_to 10752
  140.1330  134.4681  155.8507 H   0  0  0  0  0  0  0  0  0  0  0  0  # atno 11005 bound_to 11000
  146.3524  140.1095  142.8604 LP  0  0  0  0  0  0  0  0  0  0  0  0  # atno 17320 bound_to 7965
  145.0796  140.9212  143.4833 LP  0  0  0  0  0  0  0  0  0  0  0  0  # atno 17321 bound_to 7965
  140.0630  144.5841  150.7248 LP  0  0  0  0  0  0  0  0  0  0  0  0  # atno 17342 bound_to 10162
  140.7240  143.2617  151.4183 LP  0  0  0  0  0  0  0  0  0  0  0  0  # atno 17343 bound_to 10162
  157.3341  131.0705  151.1838 LP  0  0  0  0  0  0  0  0  0  0  0  0  # atno 17370 bound_to 10713
  157.2709  130.6703  149.6019 LP  0  0  0  0  0  0  0  0  0  0  0  0  # atno 17371 bound_to 10713
  141.2173  133.6803  156.7105 LP  0  0  0  0  0  0  0  0  0  0  0  0  # atno 17394 bound_to 11000
  140.2818  134.8311  157.3940 LP  0  0  0  0  0  0  0  0  0  0  0  0  # atno 17395 bound_to 11000

$$$$
