AV-unprocessed.smi:3279|AV-procd|sdf|12548|dock7
  -GOLD-   2272018463D 1   1.00000     0.00000
 Structure written by MMmdl.
 35 35  0  0  0  0  0  0  0  0  2 V2000
  151.9268  145.5474  159.4908 C   0  0  0  0  0  0  0  0  0  0  0  0
  151.8387  144.1164  158.9384 C   0  0  2  0  0  0  0  0  0  0  0  0
  150.3952  143.7116  158.5635 C   0  0  0  0  0  0  0  0  0  0  0  0
  150.3337  142.9792  157.3026 N   0  0  0  0  0  0  0  0  0  0  0  0
  150.6305  141.6801  157.1483 C   0  0  0  0  0  0  0  0  0  0  0  0
  151.0513  140.9660  158.0584 O   0  0  0  0  0  0  0  0  0  0  0  0
  150.3866  141.0895  155.7618 C   0  0  0  0  0  0  0  0  0  0  0  0
  151.5770  140.4382  155.3259 O   0  0  0  0  0  0  0  0  0  0  0  0
  151.5763  139.0099  155.2594 C   0  0  0  0  0  0  0  0  0  0  0  0
  151.3849  138.3780  156.6528 C   0  0  0  0  0  0  0  0  0  0  0  0
  152.9702  138.6504  154.7208 C   0  0  0  0  0  0  0  0  0  0  0  0
  150.5003  138.5179  154.2713 C   0  0  0  0  0  0  0  0  0  0  0  0
  152.4939  143.1241  159.8595 C   0  0  0  0  0  0  0  0  0  0  0  0
  152.0659  142.8966  161.1108 N   0  0  0  0  0  0  0  0  0  0  0  0
  152.9257  141.9798  161.5748 N   0  0  0  0  0  0  0  0  0  0  0  0
  153.8236  141.6816  160.6282 N   0  0  0  0  0  0  0  0  0  0  0  0
  153.5720  142.3970  159.5241 N   0  5  0  0  0  0  0  0  0  0  0  0
  152.9642  145.8365  159.6618 H   0  0  0  0  0  0  0  0  0  0  0  0
  151.3930  145.6427  160.4368 H   0  0  0  0  0  0  0  0  0  0  0  0
  151.4951  146.2644  158.7923 H   0  0  0  0  0  0  0  0  0  0  0  0
  152.3903  144.1430  157.9970 H   0  0  0  0  0  0  0  0  0  0  0  0
  149.9825  143.0634  159.3373 H   0  0  0  0  0  0  0  0  0  0  0  0
  149.7478  144.5890  158.5231 H   0  0  0  0  0  0  0  0  0  0  0  0
  149.9854  143.4832  156.4994 H   0  0  0  0  0  0  0  0  0  0  0  0
  149.5540  140.3875  155.8153 H   0  0  0  0  0  0  0  0  0  0  0  0
  150.1001  141.9027  155.0960 H   0  0  0  0  0  0  0  0  0  0  0  0
  151.5230  137.2970  156.6139 H   0  0  0  0  0  0  0  0  0  0  0  0
  150.3848  138.5563  157.0484 H   0  0  0  0  0  0  0  0  0  0  0  0
  152.1041  138.7769  157.3688 H   0  0  0  0  0  0  0  0  0  0  0  0
  153.7551  139.0076  155.3885 H   0  0  0  0  0  0  0  0  0  0  0  0
  153.1431  139.0981  153.7415 H   0  0  0  0  0  0  0  0  0  0  0  0
  153.0908  137.5715  154.6168 H   0  0  0  0  0  0  0  0  0  0  0  0
  150.5916  137.4455  154.0960 H   0  0  0  0  0  0  0  0  0  0  0  0
  150.5927  139.0186  153.3067 H   0  0  0  0  0  0  0  0  0  0  0  0
  149.4902  138.6928  154.6408 H   0  0  0  0  0  0  0  0  0  0  0  0
  1  2  1  0  0  0  0
  1 18  1  0  0  0  0
  1 19  1  0  0  0  0
  1 20  1  0  0  0  0
  2  3  1  0  0  0  0
  2 13  1  0  0  0  0
  2 21  1  0  0  0  0
  3  4  1  0  0  0  0
  3 22  1  0  0  0  0
  3 23  1  0  0  0  0
  4  5  1  0  0  0  0
  4 24  1  0  0  0  0
  5  6  2  0  0  0  0
  5  7  1  0  0  0  0
  7  8  1  0  0  0  0
  7 25  1  0  0  0  0
  7 26  1  0  0  0  0
  8  9  1  0  0  0  0
  9 10  1  0  0  0  0
  9 11  1  0  0  0  0
  9 12  1  0  0  0  0
 10 27  1  0  0  0  0
 10 28  1  0  0  0  0
 10 29  1  0  0  0  0
 11 30  1  0  0  0  0
 11 31  1  0  0  0  0
 11 32  1  0  0  0  0
 12 33  1  0  0  0  0
 12 34  1  0  0  0  0
 12 35  1  0  0  0  0
 13 17  1  0  0  0  0
 13 14  2  0  0  0  0
 14 15  1  0  0  0  0
 15 16  2  0  0  0  0
 16 17  1  0  0  0  0
M  CHG  1  17  -1
M  END
> <s_m_source_file>
AV-unprocessed.smi

> <i_m_source_file_index>
3279

> <i_lp_mmshare_version>
43012

> <i_f3d_flags>
0

> <s_epik_input>
W25IXTFubm5jMVtDQEhdKFtDSDNdKVtDSDJdW05IXUMoPU8pW0NIMl1PQyhbQ0gzXSkoW0NIM10pW0NIM10=

> <s_epik_cmdline>
J2VwaWtfcHl0aG9uJywgJy1waCcsICc3LjAnLCAnLXRuJywgJzgnLCAnLW1hJywgJzIwMCcsICctbWV0YWxfYmluZGluZycsICctaW1hZScsICc8aW5maWxlLm1hZT4nLCAnLW9tYWUnLCAnPG91dGZpbGUubWFlPic=

> <r_epik_Ionization_Penalty>
0.054353

> <r_epik_Ionization_Penalty_Charging>
0.054353

> <r_epik_Ionization_Penalty_Neutral>
3.0997e-08

> <r_epik_State_Penalty>
0.0139445

> <r_epik_Charging_Adjusted_Penalty>
0.0682975

> <i_epik_Tot_Q>
-1

> <i_epik_Tot_abs_Q>
1

> <r_epik_Metal_State_Penalty>
0.0109703

> <b_epik_Metal_Only>
0

> <s_lp_Force_Field>
OPLS_2005

> <r_lp_Energy>
-0.4509

> <b_lp_Chiralities_Consistent>
1

> <s_lp_Variant>
AV-unprocessed.smi:3279-1

> <Gold.Version>
5.8.1

> <Gold.Id.Protein>
6NUR|6NUR_protein|mol2

> <Gold.PLP.Fitness>
40.4170

> <Gold.PLP.PLP>
-36.9806

> <Gold.PLP.part.hbond>
-2.1844

> <Gold.PLP.part.metal>
0.0000

> <Gold.PLP.part.buried>
-7.0815

> <Gold.PLP.part.nonpolar>
-27.5204

> <Gold.PLP.part.repulsive>
0.1506

> <Gold.PLP.ligand.clash>
0.0000

> <Gold.PLP.ligand.torsion>
1.0950

> <Gold.PLP.Chemscore.Hbond>
1.8320

> <Gold.PLP.Chemscore.CHOScore>
0.0000

> <Gold.PLP.Chemscore.Metal>
0.0000

> <Gold.Chemscore.Hbonds>
donor molecule, donor type, donor heavy atom, donor atom, acceptor molecule, acceptor atom, score
      L1  H     4    24       P1  8028  1.00
      P1  H  7989  7998       L1     8  0.85

> <Gold.PLP.Chemscore.Internal.Correction>
0.1304

> <Gold.Rescore>
     Score         DG    S(hbond)    S(metal)    S(lipo)     H(rot)  DE(clash)    DE(int)     intcor
     10.63     -11.79       1.53        0.00      68.20       2.64       0.04       1.12       ----

> <Gold.Chemscore.Fitness>
10.6347

> <Gold.Chemscore.DG>
-11.7941

> <Gold.Chemscore.ZeroCoef>
-5.4800

> <Gold.Chemscore.Hbond>
1.5255

> <Gold.Chemscore.Metal>
0.0000

> <Gold.Chemscore.Lipo>
68.2020

> <Gold.Chemscore.Internal_Hbond>
0.0000

> <Gold.Chemscore.DEClash>
0.0354

> <Gold.Chemscore.DEInternal>
1.1241

> <Gold.Chemscore.Rot>
2.6409

> <Gold.Chemscore.Internal.Correction>
   9.000000E+99

> <Gold.Chemscore.Hbonds>
donor molecule, donor type, donor heavy atom, donor atom, acceptor molecule, acceptor atom, score
      L1  H     4    24       P1  8028  0.97
      P1  H  7989  7998       L1     8  0.10

> <Gold.Chemscore.Hbond.Weighted>
-5.0952

> <Gold.Chemscore.Metal.Weighted>
-0.0000

> <Gold.Chemscore.Lipo.Weighted>
-7.9796

> <Gold.Chemscore.Internal_Hbond.Weighted>
0.0000

> <Gold.Chemscore.DEClash.Weighted>
0.0354

> <Gold.Chemscore.DEInternal.Weighted>
1.1241

> <Gold.Chemscore.Rot.Weighted>
6.7607

> <Gold.Chemscore.Internal.Correction.Weighted>
   9.000000E+99

> <Gold.Protein.RotatedTorsions>
[ 6907 6896 6895 6894 ] final  174.29 input  -60.11 | X-H torsion
[ 7974 7965 7964 7962 ] final   -5.34 input  175.53 | X-H torsion
[ 8008 7997 7996 7995 ] final  105.51 input   59.86 | X-H torsion
[ 10167 10162 10161 10158 ] final   12.88 input  -65.29 | X-H torsion
[ 10718 10713 10712 10709 ] final  -67.97 input   66.30 | X-H torsion
[ 10763 10752 10751 10750 ] final   75.82 input  -60.55 | X-H torsion
[ 11005 11000 10999 10996 ] final  176.21 input  -57.11 | X-H torsion

> <Gold.Protein.ActiveResidues>
 VAL166  LYS551  ARG553  GLY616  TRP617  ASP618  TYR619  PRO620  LYS621  CYS622 
 ASP623  PHE694  ASN695  SER759  ASP760  ASP761  ALA762  ILE779  LEU786  VAL792 
 PHE793  MET794  SER795  GLU796  ALA797  LYS798  CYS799  TRP800  GLU811  SER814 

> <Gold.Protein.RotatedAtoms>
  151.7547  133.3329  159.3400 H   0  0  0  0  0  0  0  0  0  0  0  0  # atno 6907 bound_to 6896
  150.7521  134.6160  159.6120 H   0  0  0  0  0  0  0  0  0  0  0  0  # atno 6908 bound_to 6896
  152.3445  134.7091  160.0306 H   0  0  0  0  0  0  0  0  0  0  0  0  # atno 6909 bound_to 6896
  146.2354  140.2007  142.8333 H   0  0  0  0  0  0  0  0  0  0  0  0  # atno 7974 bound_to 7965
  156.1665  140.3129  155.8897 H   0  0  0  0  0  0  0  0  0  0  0  0  # atno 8008 bound_to 7997
  155.3676  140.0480  157.3063 H   0  0  0  0  0  0  0  0  0  0  0  0  # atno 8009 bound_to 7997
  154.5197  140.2194  155.9009 H   0  0  0  0  0  0  0  0  0  0  0  0  # atno 8010 bound_to 7997
  140.6039  143.8547  150.6994 H   0  0  0  0  0  0  0  0  0  0  0  0  # atno 10167 bound_to 10162
  156.0529  130.4287  150.1932 H   0  0  0  0  0  0  0  0  0  0  0  0  # atno 10718 bound_to 10713
  153.0681  135.4974  154.8245 H   0  0  0  0  0  0  0  0  0  0  0  0  # atno 10763 bound_to 10752
  154.6983  135.2997  154.9381 H   0  0  0  0  0  0  0  0  0  0  0  0  # atno 10764 bound_to 10752
  154.0113  135.6754  153.4818 H   0  0  0  0  0  0  0  0  0  0  0  0  # atno 10765 bound_to 10752
  140.3706  134.7033  157.4390 H   0  0  0  0  0  0  0  0  0  0  0  0  # atno 11005 bound_to 11000
  144.9784  140.8436  143.5412 LP  0  0  0  0  0  0  0  0  0  0  0  0  # atno 17320 bound_to 7965
  145.1997  139.2258  143.5199 LP  0  0  0  0  0  0  0  0  0  0  0  0  # atno 17321 bound_to 7965
  140.2100  143.3891  152.1725 LP  0  0  0  0  0  0  0  0  0  0  0  0  # atno 17342 bound_to 10162
  139.5311  144.7160  151.5053 LP  0  0  0  0  0  0  0  0  0  0  0  0  # atno 17343 bound_to 10162
  157.0013  130.9923  151.3390 LP  0  0  0  0  0  0  0  0  0  0  0  0  # atno 17370 bound_to 10713
  157.5473  130.8159  149.8102 LP  0  0  0  0  0  0  0  0  0  0  0  0  # atno 17371 bound_to 10713
  140.0555  134.6070  155.8811 LP  0  0  0  0  0  0  0  0  0  0  0  0  # atno 17394 bound_to 11000
  141.1955  133.6587  156.5649 LP  0  0  0  0  0  0  0  0  0  0  0  0  # atno 17395 bound_to 11000

$$$$
