AV-unprocessed.smi:270|AV-procd|sdf|2048|dock9
  -GOLD-   2262021273D 1   1.00000     0.00000
 Structure written by MMmdl.
 54 57  0  0  0  0  0  0  0  0  1 V2000
  151.5921  140.8105  158.3569 C   0  0  0  0  0  0  0  0  0  0  0  0
  150.9005  142.1731  158.5189 C   0  0  1  0  0  0  0  0  0  0  0  0
  151.7133  142.9663  159.3809 O   0  0  0  0  0  0  0  0  0  0  0  0
  151.5817  144.3282  159.0142 C   0  0  0  0  0  0  0  0  0  0  0  0
  151.5544  144.2558  157.4956 C   0  0  0  0  0  0  0  0  0  0  0  0
  150.7046  143.0170  157.2271 C   0  0  2  0  0  0  0  0  0  0  0  0
  149.3469  143.4251  157.1820 O   0  0  0  0  0  0  0  0  0  0  0  0
  151.0369  142.3121  155.8855 C   0  0  0  0  0  0  0  0  0  0  0  0
  150.4469  140.9870  155.7662 N   0  0  0  0  0  0  0  0  0  0  0  0
  149.1076  140.6761  155.8260 C   0  0  0  0  0  0  0  0  0  0  0  0
  148.8238  139.4108  155.6823 N   0  0  0  0  0  0  0  0  0  0  0  0
  150.0613  138.7962  155.5277 C   0  0  0  0  0  0  0  0  0  0  0  0
  150.4736  137.4452  155.3328 C   0  0  0  0  0  0  0  0  0  0  0  0
  149.5810  136.3396  155.2276 N   0  0  0  0  0  0  0  0  0  0  0  0
  148.1766  136.6126  155.4953 C   0  0  0  0  0  0  0  0  0  0  0  0
  148.1490  135.2862  156.2619 C   0  0  0  0  0  0  0  0  0  0  0  0
  147.6215  134.2014  155.5143 O   0  0  0  0  0  0  0  0  0  0  0  0
  146.4838  134.5606  154.7466 C   0  0  0  0  0  0  0  0  0  0  0  0
  146.0632  133.3578  153.8939 C   0  0  0  0  0  0  0  0  0  0  0  0
  146.0763  132.2413  154.4142 O   0  0  0  0  0  0  0  0  0  0  0  0
  145.6932  133.5547  152.6068 N   0  0  0  0  0  0  0  0  0  0  0  0
  145.6465  134.8787  151.9781 C   0  0  0  0  0  0  0  0  0  0  0  0
  145.3074  132.4174  151.7670 C   0  0  0  0  0  0  0  0  0  0  0  0
  149.6785  135.3004  156.2456 C   0  0  0  0  0  0  0  0  0  0  0  0
  151.8108  137.2395  155.1934 N   0  0  0  0  0  0  0  0  0  0  0  0
  152.6784  138.2526  155.2683 C   0  0  0  0  0  0  0  0  0  0  0  0
  152.4311  139.5480  155.4619 N   0  0  0  0  0  0  0  0  0  0  0  0
  151.0933  139.7772  155.5801 C   0  0  0  0  0  0  0  0  0  0  0  0
  151.0127  140.1414  157.7207 H   0  0  0  0  0  0  0  0  0  0  0  0
  151.7054  140.3206  159.3242 H   0  0  0  0  0  0  0  0  0  0  0  0
  152.5884  140.9155  157.9267 H   0  0  0  0  0  0  0  0  0  0  0  0
  149.9431  142.0149  159.0192 H   0  0  0  0  0  0  0  0  0  0  0  0
  150.6471  144.7301  159.4084 H   0  0  0  0  0  0  0  0  0  0  0  0
  152.4076  144.9296  159.3946 H   0  0  0  0  0  0  0  0  0  0  0  0
  151.1753  145.1649  157.0264 H   0  0  0  0  0  0  0  0  0  0  0  0
  152.5723  144.0969  157.1387 H   0  0  0  0  0  0  0  0  0  0  0  0
  149.2732  144.1513  156.5818 H   0  0  0  0  0  0  0  0  0  0  0  0
  150.6892  142.9090  155.0419 H   0  0  0  0  0  0  0  0  0  0  0  0
  152.1164  142.2106  155.7680 H   0  0  0  0  0  0  0  0  0  0  0  0
  148.3421  141.4245  155.9722 H   0  0  0  0  0  0  0  0  0  0  0  0
  148.0174  137.4785  156.1396 H   0  0  0  0  0  0  0  0  0  0  0  0
  147.5613  136.6392  154.5958 H   0  0  0  0  0  0  0  0  0  0  0  0
  147.7385  135.3637  157.2699 H   0  0  0  0  0  0  0  0  0  0  0  0
  145.6654  134.8399  155.4122 H   0  0  0  0  0  0  0  0  0  0  0  0
  146.6835  135.4228  154.1096 H   0  0  0  0  0  0  0  0  0  0  0  0
  144.9911  135.5512  152.5320 H   0  0  0  0  0  0  0  0  0  0  0  0
  145.2697  134.8463  150.9560 H   0  0  0  0  0  0  0  0  0  0  0  0
  146.6413  135.3233  151.9373 H   0  0  0  0  0  0  0  0  0  0  0  0
  146.1042  131.6726  151.7403 H   0  0  0  0  0  0  0  0  0  0  0  0
  145.0988  132.6998  150.7352 H   0  0  0  0  0  0  0  0  0  0  0  0
  144.4102  131.9398  152.1633 H   0  0  0  0  0  0  0  0  0  0  0  0
  150.1374  134.3784  155.8880 H   0  0  0  0  0  0  0  0  0  0  0  0
  150.1039  135.6430  157.1903 H   0  0  0  0  0  0  0  0  0  0  0  0
  153.7188  137.9866  155.1531 H   0  0  0  0  0  0  0  0  0  0  0  0
  1  2  1  0  0  0  0
  1 29  1  0  0  0  0
  1 30  1  0  0  0  0
  1 31  1  0  0  0  0
  2  6  1  0  0  0  0
  2  3  1  0  0  0  0
  2 32  1  0  0  0  0
  3  4  1  0  0  0  0
  4  5  1  0  0  0  0
  4 33  1  0  0  0  0
  4 34  1  0  0  0  0
  5  6  1  0  0  0  0
  5 35  1  0  0  0  0
  5 36  1  0  0  0  0
  6  7  1  0  0  0  0
  6  8  1  0  0  0  0
  7 37  1  0  0  0  0
  8  9  1  0  0  0  0
  8 38  1  0  0  0  0
  8 39  1  0  0  0  0
  9 28  1  0  0  0  0
  9 10  1  0  0  0  0
 10 11  2  0  0  0  0
 10 40  1  0  0  0  0
 11 12  1  0  0  0  0
 12 28  2  0  0  0  0
 12 13  1  0  0  0  0
 13 14  1  0  0  0  0
 13 25  2  0  0  0  0
 14 24  1  0  0  0  0
 14 15  1  0  0  0  0
 15 16  1  0  0  0  0
 15 41  1  0  0  0  0
 15 42  1  0  0  0  0
 16 17  1  0  0  0  0
 16 24  1  0  0  0  0
 16 43  1  0  0  0  0
 17 18  1  0  0  0  0
 18 19  1  0  0  0  0
 18 44  1  0  0  0  0
 18 45  1  0  0  0  0
 19 20  2  0  0  0  0
 19 21  1  0  0  0  0
 21 22  1  0  0  0  0
 21 23  1  0  0  0  0
 22 46  1  0  0  0  0
 22 47  1  0  0  0  0
 22 48  1  0  0  0  0
 23 49  1  0  0  0  0
 23 50  1  0  0  0  0
 23 51  1  0  0  0  0
 24 52  1  0  0  0  0
 24 53  1  0  0  0  0
 25 26  1  0  0  0  0
 26 27  2  0  0  0  0
 26 54  1  0  0  0  0
 27 28  1  0  0  0  0
M  END
> <s_m_source_file>
AV-unprocessed.smi

> <i_m_source_file_index>
270

> <i_lp_mmshare_version>
43012

> <i_f3d_flags>
0

> <s_epik_input>
W0NIMl0xW0NIMl1PW0NAQEhdKFtDSDNdKVtDQEBdMShbT0hdKVtDSDJdbihbY0hdbjIpYyhjMjMpbltjSF1uYzNONFtDSDJdW0NIXShbQ0gyXTQpT1tDSDJdQyg9TylOKFtDSDNdKVtDSDNd

> <s_epik_cmdline>
J2VwaWtfcHl0aG9uJywgJy1waCcsICc3LjAnLCAnLXRuJywgJzgnLCAnLW1hJywgJzIwMCcsICctbWV0YWxfYmluZGluZycsICctaW1hZScsICc8aW5maWxlLm1hZT4nLCAnLW9tYWUnLCAnPG91dGZpbGUubWFlPic=

> <r_lp_tautomer_probability>
1

> <r_epik_Ionization_Penalty>
0.00375854

> <r_epik_Ionization_Penalty_Charging>
0

> <r_epik_Ionization_Penalty_Neutral>
0.00375854

> <r_epik_State_Penalty>
-0

> <r_epik_Charging_Adjusted_Penalty>
0

> <i_epik_Tot_Q>
0

> <i_epik_Tot_abs_Q>
0

> <r_epik_Metal_State_Penalty>
-0

> <b_epik_Metal_Only>
0

> <s_lp_Force_Field>
OPLS_2005

> <r_lp_Energy>
53.4022

> <b_lp_Chiralities_Consistent>
1

> <s_lp_Variant>
AV-unprocessed.smi:270-4

> <Gold.Version>
5.8.1

> <Gold.Id.Protein>
6NUR|6NUR_protein|mol2

> <Gold.PLP.Fitness>
51.0330

> <Gold.PLP.PLP>
-44.0617

> <Gold.PLP.part.hbond>
-4.0000

> <Gold.PLP.part.metal>
0.0000

> <Gold.PLP.part.buried>
-7.7450

> <Gold.PLP.part.nonpolar>
-34.7381

> <Gold.PLP.part.repulsive>
1.3473

> <Gold.PLP.ligand.clash>
0.0000

> <Gold.PLP.ligand.torsion>
0.7952

> <Gold.PLP.Chemscore.Hbond>
2.7520

> <Gold.PLP.Chemscore.CHOScore>
0.0000

> <Gold.PLP.Chemscore.Metal>
0.0000

> <Gold.Chemscore.Hbonds>
donor molecule, donor type, donor heavy atom, donor atom, acceptor molecule, acceptor atom, score
      L1  H     7    37       P1  8028  0.02
      P1  H  7997  8009       L1    27  0.73
      P1  H 10752 10763       L1    25  0.65

> <Gold.PLP.Chemscore.Internal.Correction>
0.3056

> <Gold.Rescore>
     Score         DG    S(hbond)    S(metal)    S(lipo)     H(rot)  DE(clash)    DE(int)     intcor
      8.34     -14.55       2.15        0.00      84.40       3.12       1.75       4.46       ----

> <Gold.Chemscore.Fitness>
8.3444

> <Gold.Chemscore.DG>
-14.5503

> <Gold.Chemscore.ZeroCoef>
-5.4800

> <Gold.Chemscore.Hbond>
2.1532

> <Gold.Chemscore.Metal>
0.0000

> <Gold.Chemscore.Lipo>
84.3964

> <Gold.Chemscore.Internal_Hbond>
0.0000

> <Gold.Chemscore.DEClash>
1.7465

> <Gold.Chemscore.DEInternal>
4.4594

> <Gold.Chemscore.Rot>
3.1234

> <Gold.Chemscore.Internal.Correction>
   9.000000E+99

> <Gold.Chemscore.Hbonds>
donor molecule, donor type, donor heavy atom, donor atom, acceptor molecule, acceptor atom, score
      L1  H     7    37       P1  8028  0.06
      P1  H  7997  8009       L1    27  0.16
      P1  H 10752 10763       L1    25  0.29

> <Gold.Chemscore.Hbond.Weighted>
-7.1918

> <Gold.Chemscore.Metal.Weighted>
-0.0000

> <Gold.Chemscore.Lipo.Weighted>
-9.8744

> <Gold.Chemscore.Internal_Hbond.Weighted>
0.0000

> <Gold.Chemscore.DEClash.Weighted>
1.7465

> <Gold.Chemscore.DEInternal.Weighted>
4.4594

> <Gold.Chemscore.Rot.Weighted>
7.9959

> <Gold.Chemscore.Internal.Correction.Weighted>
   9.000000E+99

> <Gold.Protein.RotatedTorsions>
[ 6907 6896 6895 6894 ] final  -14.45 input  -60.11 | X-H torsion
[ 7974 7965 7964 7962 ] final  102.69 input  175.53 | X-H torsion
[ 8008 7997 7996 7995 ] final -149.74 input   59.86 | X-H torsion
[ 10167 10162 10161 10158 ] final -143.06 input  -65.29 | X-H torsion
[ 10718 10713 10712 10709 ] final  -54.99 input   66.30 | X-H torsion
[ 10763 10752 10751 10750 ] final   43.48 input  -60.55 | X-H torsion
[ 11005 11000 10999 10996 ] final   95.22 input  -57.11 | X-H torsion

> <Gold.Protein.ActiveResidues>
 VAL166  LYS551  ARG553  GLY616  TRP617  ASP618  TYR619  PRO620  LYS621  CYS622 
 ASP623  PHE694  ASN695  SER759  ASP760  ASP761  ALA762  ILE779  LEU786  VAL792 
 PHE793  MET794  SER795  GLU796  ALA797  LYS798  CYS799  TRP800  GLU811  SER814 

> <Gold.Protein.RotatedAtoms>
  151.3392  135.0859  159.9364 H   0  0  0  0  0  0  0  0  0  0  0  0  # atno 6907 bound_to 6896
  152.5216  133.9465  159.7662 H   0  0  0  0  0  0  0  0  0  0  0  0  # atno 6908 bound_to 6896
  150.9818  133.6184  159.2751 H   0  0  0  0  0  0  0  0  0  0  0  0  # atno 6909 bound_to 6896
  145.3557  139.2429  143.3534 H   0  0  0  0  0  0  0  0  0  0  0  0  # atno 7974 bound_to 7965
  155.6124  140.0673  157.2702 H   0  0  0  0  0  0  0  0  0  0  0  0  # atno 8008 bound_to 7997
  154.4250  140.1799  156.1334 H   0  0  0  0  0  0  0  0  0  0  0  0  # atno 8009 bound_to 7997
  156.0074  140.3330  155.6910 H   0  0  0  0  0  0  0  0  0  0  0  0  # atno 8010 bound_to 7997
  139.8029  143.7809  152.2659 H   0  0  0  0  0  0  0  0  0  0  0  0  # atno 10167 bound_to 10162
  156.1405  130.4155  150.0111 H   0  0  0  0  0  0  0  0  0  0  0  0  # atno 10718 bound_to 10713
  152.9860  135.6100  154.3119 H   0  0  0  0  0  0  0  0  0  0  0  0  # atno 10763 bound_to 10752
  154.2834  135.2776  155.2689 H   0  0  0  0  0  0  0  0  0  0  0  0  # atno 10764 bound_to 10752
  154.5017  135.5865  153.6593 H   0  0  0  0  0  0  0  0  0  0  0  0  # atno 10765 bound_to 10752
  139.8791  134.8887  156.3978 H   0  0  0  0  0  0  0  0  0  0  0  0  # atno 11005 bound_to 11000
  146.2949  140.4182  142.8725 LP  0  0  0  0  0  0  0  0  0  0  0  0  # atno 17320 bound_to 7965
  144.8684  140.7238  143.6063 LP  0  0  0  0  0  0  0  0  0  0  0  0  # atno 17321 bound_to 7965
  139.7934  144.7401  150.9923 LP  0  0  0  0  0  0  0  0  0  0  0  0  # atno 17342 bound_to 10162
  140.7820  143.4418  151.0540 LP  0  0  0  0  0  0  0  0  0  0  0  0  # atno 17343 bound_to 10162
  156.7998  130.9286  151.3646 LP  0  0  0  0  0  0  0  0  0  0  0  0  # atno 17370 bound_to 10713
  157.6571  130.8934  149.9752 LP  0  0  0  0  0  0  0  0  0  0  0  0  # atno 17371 bound_to 10713
  140.9288  133.7594  155.9998 LP  0  0  0  0  0  0  0  0  0  0  0  0  # atno 17394 bound_to 11000
  140.8355  134.3128  157.5333 LP  0  0  0  0  0  0  0  0  0  0  0  0  # atno 17395 bound_to 11000

$$$$
