AV-unprocessed.smi:2021|AV-procd|sdf|8179|dock4
  -GOLD-   2272010433D 1   1.00000     0.00000
 Structure written by MMmdl.
 41 42  0  0  0  0  0  0  0  0  1 V2000
  152.6693  143.0676  160.0429 C   0  0  0  0  0  0  0  0  0  0  0  0
  152.3438  143.0822  158.5397 C   0  0  0  0  0  0  0  0  0  0  0  0
  152.3399  144.5021  157.9470 C   0  0  0  0  0  0  0  0  0  0  0  0
  151.0968  142.2443  158.1633 C   0  0  0  0  0  0  0  0  0  0  0  0
  151.0687  141.6245  156.8343 N   0  0  0  0  0  0  0  0  0  0  0  0
  151.5603  140.2494  156.8291 C   0  0  0  0  0  0  0  0  0  0  0  0
  151.4691  139.6080  155.4340 C   0  0  0  0  0  0  0  0  0  0  0  0
  150.1294  139.6778  154.9606 O   0  0  0  0  0  0  0  0  0  0  0  0
  149.6401  141.0143  154.8835 C   0  0  1  0  0  0  0  0  0  0  0  0
  148.2000  140.9768  154.3447 C   0  0  0  0  0  0  0  0  0  0  0  0
  147.9759  139.8161  153.4897 N   0  0  0  0  0  0  0  0  0  0  0  0
  146.8739  139.0533  153.4998 C   0  0  0  0  0  0  0  0  0  0  0  0
  145.9276  139.2395  154.2647 O   0  0  0  0  0  0  0  0  0  0  0  0
  146.9471  138.0827  152.5749 N   0  0  0  0  0  0  0  0  0  0  0  0
  145.9801  137.0915  152.2725 C   0  0  0  0  0  0  0  0  0  0  0  0
  144.9340  136.9619  153.0970 N   0  0  0  0  0  0  0  0  0  0  0  0
  144.0676  135.9566  152.6851 N   0  0  0  0  0  0  0  0  0  0  0  0
  144.4949  135.3665  151.5647 C   0  0  0  0  0  0  0  0  0  0  0  0
  145.9982  135.9806  150.8996 S   0  0  0  0  0  0  0  0  0  0  0  0
  149.7146  141.6437  156.2881 C   0  0  0  0  0  0  0  0  0  0  0  0
  151.9160  143.5977  160.6256 H   0  0  0  0  0  0  0  0  0  0  0  0
  153.6301  143.5441  160.2393 H   0  0  0  0  0  0  0  0  0  0  0  0
  152.7256  142.0464  160.4209 H   0  0  0  0  0  0  0  0  0  0  0  0
  153.1798  142.5819  158.0492 H   0  0  0  0  0  0  0  0  0  0  0  0
  151.5939  145.1477  158.4057 H   0  0  0  0  0  0  0  0  0  0  0  0
  152.1451  144.4791  156.8744 H   0  0  0  0  0  0  0  0  0  0  0  0
  153.3088  144.9811  158.0897 H   0  0  0  0  0  0  0  0  0  0  0  0
  150.9107  141.4909  158.9300 H   0  0  0  0  0  0  0  0  0  0  0  0
  150.2469  142.9256  158.2248 H   0  0  0  0  0  0  0  0  0  0  0  0
  152.6015  140.2208  157.1409 H   0  0  0  0  0  0  0  0  0  0  0  0
  150.9952  139.6491  157.5437 H   0  0  0  0  0  0  0  0  0  0  0  0
  152.1362  140.1117  154.7328 H   0  0  0  0  0  0  0  0  0  0  0  0
  151.7785  138.5637  155.4760 H   0  0  0  0  0  0  0  0  0  0  0  0
  150.2686  141.5882  154.1999 H   0  0  0  0  0  0  0  0  0  0  0  0
  147.4914  140.9350  155.1725 H   0  0  0  0  0  0  0  0  0  0  0  0
  147.9765  141.8913  153.7928 H   0  0  0  0  0  0  0  0  0  0  0  0
  148.7036  139.5953  152.8259 H   0  0  0  0  0  0  0  0  0  0  0  0
  147.7877  138.0526  152.0171 H   0  0  0  0  0  0  0  0  0  0  0  0
  143.9203  134.5640  151.1269 H   0  0  0  0  0  0  0  0  0  0  0  0
  149.0394  141.1108  156.9596 H   0  0  0  0  0  0  0  0  0  0  0  0
  149.3543  142.6719  156.2374 H   0  0  0  0  0  0  0  0  0  0  0  0
  1  2  1  0  0  0  0
  1 21  1  0  0  0  0
  1 22  1  0  0  0  0
  1 23  1  0  0  0  0
  2  3  1  0  0  0  0
  2  4  1  0  0  0  0
  2 24  1  0  0  0  0
  3 25  1  0  0  0  0
  3 26  1  0  0  0  0
  3 27  1  0  0  0  0
  4  5  1  0  0  0  0
  4 28  1  0  0  0  0
  4 29  1  0  0  0  0
  5 20  1  0  0  0  0
  5  6  1  0  0  0  0
  6  7  1  0  0  0  0
  6 30  1  0  0  0  0
  6 31  1  0  0  0  0
  7  8  1  0  0  0  0
  7 32  1  0  0  0  0
  7 33  1  0  0  0  0
  8  9  1  0  0  0  0
  9 10  1  0  0  0  0
  9 20  1  0  0  0  0
  9 34  1  0  0  0  0
 10 11  1  0  0  0  0
 10 35  1  0  0  0  0
 10 36  1  0  0  0  0
 11 12  1  0  0  0  0
 11 37  1  0  0  0  0
 12 13  2  0  0  0  0
 12 14  1  0  0  0  0
 14 15  1  0  0  0  0
 14 38  1  0  0  0  0
 15 19  1  0  0  0  0
 15 16  2  0  0  0  0
 16 17  1  0  0  0  0
 17 18  2  0  0  0  0
 18 19  1  0  0  0  0
 18 39  1  0  0  0  0
 20 40  1  0  0  0  0
 20 41  1  0  0  0  0
M  END
> <s_m_source_file>
AV-unprocessed.smi

> <i_m_source_file_index>
2021

> <i_lp_mmshare_version>
43012

> <i_f3d_flags>
0

> <s_epik_input>
W0NIM11bQ0hdKFtDSDNdKVtDSDJdTjFbQ0gyXVtDSDJdT1tDQEhdKFtDSDJdMSlbQ0gyXVtOSF1DKD1PKVtOSF1jMm5uW2NIXXMy

> <s_epik_cmdline>
J2VwaWtfcHl0aG9uJywgJy1waCcsICc3LjAnLCAnLXRuJywgJzgnLCAnLW1hJywgJzIwMCcsICctbWV0YWxfYmluZGluZycsICctaW1hZScsICc8aW5maWxlLm1hZT4nLCAnLW9tYWUnLCAnPG91dGZpbGUubWFlPic=

> <r_lp_tautomer_probability>
1

> <r_epik_Ionization_Penalty>
1.11451

> <r_epik_Ionization_Penalty_Charging>
0

> <r_epik_Ionization_Penalty_Neutral>
1.11451

> <r_epik_State_Penalty>
1.17021

> <r_epik_Charging_Adjusted_Penalty>
1.17021

> <i_epik_Tot_Q>
0

> <i_epik_Tot_abs_Q>
0

> <r_epik_Metal_State_Penalty>
1.53642

> <b_epik_Metal_Only>
0

> <s_lp_Force_Field>
OPLS_2005

> <r_lp_Energy>
25.242

> <b_lp_Chiralities_Consistent>
1

> <s_lp_Variant>
AV-unprocessed.smi:2021-5

> <Gold.Version>
5.8.1

> <Gold.Id.Protein>
6NUR|6NUR_protein|mol2

> <Gold.PLP.Fitness>
38.2425

> <Gold.PLP.PLP>
-37.2389

> <Gold.PLP.part.hbond>
-2.0000

> <Gold.PLP.part.metal>
0.0000

> <Gold.PLP.part.buried>
-4.3750

> <Gold.PLP.part.nonpolar>
-32.5901

> <Gold.PLP.part.repulsive>
1.1169

> <Gold.PLP.ligand.clash>
0.0000

> <Gold.PLP.ligand.torsion>
1.3250

> <Gold.PLP.Chemscore.Hbond>
1.1825

> <Gold.PLP.Chemscore.CHOScore>
0.0000

> <Gold.PLP.Chemscore.Metal>
0.0000

> <Gold.Chemscore.Hbonds>
donor molecule, donor type, donor heavy atom, donor atom, acceptor molecule, acceptor atom, score
      L1  H    11    37       P1  7957  0.96
      L1  H    14    38       P1  7948  0.33

> <Gold.PLP.Chemscore.Internal.Correction>
0.1059

> <Gold.Rescore>
     Score         DG    S(hbond)    S(metal)    S(lipo)     H(rot)  DE(clash)    DE(int)     intcor
     12.88     -15.73       1.23        0.00      92.70       1.84       0.05       2.81       ----

> <Gold.Chemscore.Fitness>
12.8768

> <Gold.Chemscore.DG>
-15.7330

> <Gold.Chemscore.ZeroCoef>
-5.4800

> <Gold.Chemscore.Hbond>
1.2337

> <Gold.Chemscore.Metal>
0.0000

> <Gold.Chemscore.Lipo>
92.7024

> <Gold.Chemscore.Internal_Hbond>
0.0000

> <Gold.Chemscore.DEClash>
0.0511

> <Gold.Chemscore.DEInternal>
2.8051

> <Gold.Chemscore.Rot>
1.8413

> <Gold.Chemscore.Internal.Correction>
   9.000000E+99

> <Gold.Chemscore.Hbonds>
donor molecule, donor type, donor heavy atom, donor atom, acceptor molecule, acceptor atom, score
      L1  H    11    37       P1  7957  0.91
      L1  H    14    38       P1  7948  0.32

> <Gold.Chemscore.Hbond.Weighted>
-4.1207

> <Gold.Chemscore.Metal.Weighted>
-0.0000

> <Gold.Chemscore.Lipo.Weighted>
-10.8462

> <Gold.Chemscore.Internal_Hbond.Weighted>
0.0000

> <Gold.Chemscore.DEClash.Weighted>
0.0511

> <Gold.Chemscore.DEInternal.Weighted>
2.8051

> <Gold.Chemscore.Rot.Weighted>
4.7138

> <Gold.Chemscore.Internal.Correction.Weighted>
   9.000000E+99

> <Gold.Protein.RotatedTorsions>
[ 6907 6896 6895 6894 ] final -158.38 input  -60.11 | X-H torsion
[ 7974 7965 7964 7962 ] final   -3.57 input  175.53 | X-H torsion
[ 8008 7997 7996 7995 ] final  -93.99 input   59.86 | X-H torsion
[ 10167 10162 10161 10158 ] final -104.07 input  -65.29 | X-H torsion
[ 10718 10713 10712 10709 ] final  -24.95 input   66.30 | X-H torsion
[ 10763 10752 10751 10750 ] final -178.90 input  -60.55 | X-H torsion
[ 11005 11000 10999 10996 ] final   26.81 input  -57.11 | X-H torsion

> <Gold.Protein.ActiveResidues>
 VAL166  LYS551  ARG553  GLY616  TRP617  ASP618  TYR619  PRO620  LYS621  CYS622 
 ASP623  PHE694  ASN695  SER759  ASP760  ASP761  ALA762  ILE779  LEU786  VAL792 
 PHE793  MET794  SER795  GLU796  ALA797  LYS798  CYS799  TRP800  GLU811  SER814 

> <Gold.Protein.RotatedAtoms>
  151.3172  133.4055  159.2651 H   0  0  0  0  0  0  0  0  0  0  0  0  # atno 6907 bound_to 6896
  151.0064  134.9363  159.7993 H   0  0  0  0  0  0  0  0  0  0  0  0  # atno 6908 bound_to 6896
  152.5289  134.3137  159.9175 H   0  0  0  0  0  0  0  0  0  0  0  0  # atno 6909 bound_to 6896
  146.2387  140.1741  142.8332 H   0  0  0  0  0  0  0  0  0  0  0  0  # atno 7974 bound_to 7965
  154.7427  140.0493  157.0825 H   0  0  0  0  0  0  0  0  0  0  0  0  # atno 8008 bound_to 7997
  155.0157  140.3141  155.4793 H   0  0  0  0  0  0  0  0  0  0  0  0  # atno 8009 bound_to 7997
  156.2868  140.2176  156.5273 H   0  0  0  0  0  0  0  0  0  0  0  0  # atno 8010 bound_to 7997
  140.2132  143.3731  152.1033 H   0  0  0  0  0  0  0  0  0  0  0  0  # atno 10167 bound_to 10162
  156.4708  130.4524  149.6870 H   0  0  0  0  0  0  0  0  0  0  0  0  # atno 10718 bound_to 10713
  154.5419  135.2806  155.1088 H   0  0  0  0  0  0  0  0  0  0  0  0  # atno 10763 bound_to 10752
  154.2567  135.6329  153.5263 H   0  0  0  0  0  0  0  0  0  0  0  0  # atno 10764 bound_to 10752
  152.9981  135.5596  154.5960 H   0  0  0  0  0  0  0  0  0  0  0  0  # atno 10765 bound_to 10752
  140.3331  134.2416  155.7699 H   0  0  0  0  0  0  0  0  0  0  0  0  # atno 11005 bound_to 11000
  144.9987  140.8613  143.5295 LP  0  0  0  0  0  0  0  0  0  0  0  0  # atno 17320 bound_to 7965
  145.1758  139.2379  143.5318 LP  0  0  0  0  0  0  0  0  0  0  0  0  # atno 17321 bound_to 7965
  139.5172  144.6988  151.5553 LP  0  0  0  0  0  0  0  0  0  0  0  0  # atno 17342 bound_to 10162
  140.6308  143.9079  150.6604 LP  0  0  0  0  0  0  0  0  0  0  0  0  # atno 17343 bound_to 10162
  156.3620  130.7486  151.2459 LP  0  0  0  0  0  0  0  0  0  0  0  0  # atno 17370 bound_to 10713
  157.7491  131.0347  150.4331 LP  0  0  0  0  0  0  0  0  0  0  0  0  # atno 17371 bound_to 10713
  141.2058  133.7849  157.0211 LP  0  0  0  0  0  0  0  0  0  0  0  0  # atno 17394 bound_to 11000
  140.0844  134.9629  157.1676 LP  0  0  0  0  0  0  0  0  0  0  0  0  # atno 17395 bound_to 11000

$$$$
