AV-unprocessed.smi:1033|AV-procd|sdf|4500|dock10
  -GOLD-   22720 2493D 1   1.00000     0.00000
 Structure written by MMmdl.
 57 59  0  0  0  0  0  0  0  0  3 V2000
  153.3178  142.7786  161.4657 C   0  0  0  0  0  0  0  0  0  0  0  0
  152.6566  142.4456  160.1390 C   0  0  0  0  0  0  0  0  0  0  0  0
  152.9200  141.1880  159.5509 C   0  0  0  0  0  0  0  0  0  0  0  0
  152.3019  140.9136  158.3368 C   0  0  0  0  0  0  0  0  0  0  0  0
  152.3589  139.7844  157.5173 N   0  3  0  0  0  0  0  0  0  0  0  0
  151.5772  139.9792  156.4196 C   0  0  0  0  0  0  0  0  0  0  0  0
  151.0228  141.2179  156.5239 N   0  0  0  0  0  0  0  0  0  0  0  0
  150.0973  141.9095  155.6144 C   0  0  0  0  0  0  0  0  0  0  0  0
  149.2288  140.9404  154.7880 C   0  0  2  0  0  0  0  0  0  0  0  0
  150.0190  140.3364  153.7825 O   0  0  0  0  0  0  0  0  0  0  0  0
  148.0484  141.6705  154.1160 C   0  0  0  0  0  0  0  0  0  0  0  0
  146.8097  141.6454  154.9351 N   0  3  0  0  0  0  0  0  0  0  0  0
  145.7723  142.5753  154.4179 C   0  0  0  0  0  0  0  0  0  0  0  0
  144.4822  142.4681  155.2572 C   0  0  0  0  0  0  0  0  0  0  0  0
  144.6976  142.7169  156.6823 N   0  0  0  0  0  0  0  0  0  0  0  0
  144.9658  144.1321  156.9774 C   0  0  0  0  0  0  0  0  0  0  0  0
  144.8225  144.5744  158.4514 C   0  0  1  0  0  0  0  0  0  0  0  0
  145.6198  143.7275  159.4556 C   0  0  0  0  0  0  0  0  0  0  0  0
  145.1393  145.9438  158.5965 O   0  0  0  0  0  0  0  0  0  0  0  0
  145.7183  141.7826  157.1633 C   0  0  0  0  0  0  0  0  0  0  0  0
  147.0458  141.8764  156.3856 C   0  0  0  0  0  0  0  0  0  0  0  0
  151.4455  141.8378  157.7067 C   0  0  0  0  0  0  0  0  0  0  0  0
  151.1756  143.0816  158.2734 C   0  0  0  0  0  0  0  0  0  0  0  0
  151.7952  143.3803  159.5081 C   0  0  0  0  0  0  0  0  0  0  0  0
  151.5206  144.7303  160.1488 C   0  0  0  0  0  0  0  0  0  0  0  0
  153.9648  141.9685  161.8036 H   0  0  0  0  0  0  0  0  0  0  0  0
  152.5657  142.9478  162.2366 H   0  0  0  0  0  0  0  0  0  0  0  0
  153.9295  143.6764  161.3751 H   0  0  0  0  0  0  0  0  0  0  0  0
  153.5742  140.4712  160.0256 H   0  0  0  0  0  0  0  0  0  0  0  0
  151.4233  139.2757  155.6137 H   0  0  0  0  0  0  0  0  0  0  0  0
  149.4582  142.5408  156.2335 H   0  0  0  0  0  0  0  0  0  0  0  0
  150.6606  142.5874  154.9723 H   0  0  0  0  0  0  0  0  0  0  0  0
  148.8649  140.1563  155.4510 H   0  0  0  0  0  0  0  0  0  0  0  0
  149.5575  140.3981  152.9597 H   0  0  0  0  0  0  0  0  0  0  0  0
  148.3123  142.7067  153.8992 H   0  0  0  0  0  0  0  0  0  0  0  0
  147.8562  141.1984  153.1509 H   0  0  0  0  0  0  0  0  0  0  0  0
  146.1545  143.5969  154.4182 H   0  0  0  0  0  0  0  0  0  0  0  0
  145.5449  142.3264  153.3808 H   0  0  0  0  0  0  0  0  0  0  0  0
  143.7298  143.1559  154.8698 H   0  0  0  0  0  0  0  0  0  0  0  0
  144.0621  141.4693  155.1311 H   0  0  0  0  0  0  0  0  0  0  0  0
  145.9424  144.4329  156.5986 H   0  0  0  0  0  0  0  0  0  0  0  0
  144.2474  144.7257  156.4105 H   0  0  0  0  0  0  0  0  0  0  0  0
  143.7675  144.4914  158.7143 H   0  0  0  0  0  0  0  0  0  0  0  0
  145.3659  142.6713  159.3623 H   0  0  0  0  0  0  0  0  0  0  0  0
  145.4010  144.0295  160.4804 H   0  0  0  0  0  0  0  0  0  0  0  0
  146.6954  143.8267  159.3073 H   0  0  0  0  0  0  0  0  0  0  0  0
  146.0055  146.0910  158.2484 H   0  0  0  0  0  0  0  0  0  0  0  0
  145.8970  141.9247  158.2278 H   0  0  0  0  0  0  0  0  0  0  0  0
  145.3336  140.7658  157.0727 H   0  0  0  0  0  0  0  0  0  0  0  0
  147.7336  141.1294  156.7795 H   0  0  0  0  0  0  0  0  0  0  0  0
  147.5181  142.8473  156.5400 H   0  0  0  0  0  0  0  0  0  0  0  0
  150.5236  143.7968  157.7942 H   0  0  0  0  0  0  0  0  0  0  0  0
  150.8231  145.3205  159.5537 H   0  0  0  0  0  0  0  0  0  0  0  0
  152.4434  145.3026  160.2452 H   0  0  0  0  0  0  0  0  0  0  0  0
  151.0857  144.6032  161.1404 H   0  0  0  0  0  0  0  0  0  0  0  0
  146.4241  140.7161  154.8430 H   0  0  0  0  0  0  0  0  0  0  0  0
  152.8885  138.9401  157.6939 H   0  0  0  0  0  0  0  0  0  0  0  0
  1  2  1  0  0  0  0
  1 26  1  0  0  0  0
  1 27  1  0  0  0  0
  1 28  1  0  0  0  0
  2 24  1  0  0  0  0
  2  3  2  0  0  0  0
  3  4  1  0  0  0  0
  3 29  1  0  0  0  0
  4 22  2  0  0  0  0
  4  5  1  0  0  0  0
  5  6  2  0  0  0  0
  5 57  1  0  0  0  0
  6  7  1  0  0  0  0
  6 30  1  0  0  0  0
  7  8  1  0  0  0  0
  7 22  1  0  0  0  0
  8  9  1  0  0  0  0
  8 31  1  0  0  0  0
  8 32  1  0  0  0  0
  9 10  1  0  0  0  0
  9 11  1  0  0  0  0
  9 33  1  0  0  0  0
 10 34  1  0  0  0  0
 11 12  1  0  0  0  0
 11 35  1  0  0  0  0
 11 36  1  0  0  0  0
 12 21  1  0  0  0  0
 12 13  1  0  0  0  0
 12 56  1  0  0  0  0
 13 14  1  0  0  0  0
 13 37  1  0  0  0  0
 13 38  1  0  0  0  0
 14 15  1  0  0  0  0
 14 39  1  0  0  0  0
 14 40  1  0  0  0  0
 15 16  1  0  0  0  0
 15 20  1  0  0  0  0
 16 17  1  0  0  0  0
 16 41  1  0  0  0  0
 16 42  1  0  0  0  0
 17 18  1  0  0  0  0
 17 19  1  0  0  0  0
 17 43  1  0  0  0  0
 18 44  1  0  0  0  0
 18 45  1  0  0  0  0
 18 46  1  0  0  0  0
 19 47  1  0  0  0  0
 20 21  1  0  0  0  0
 20 48  1  0  0  0  0
 20 49  1  0  0  0  0
 21 50  1  0  0  0  0
 21 51  1  0  0  0  0
 22 23  1  0  0  0  0
 23 24  2  0  0  0  0
 23 52  1  0  0  0  0
 24 25  1  0  0  0  0
 25 53  1  0  0  0  0
 25 54  1  0  0  0  0
 25 55  1  0  0  0  0
M  CHG  1   5   1
M  CHG  1  12   1
M  END
> <s_m_source_file>
AV-unprocessed.smi

> <i_m_source_file_index>
1033

> <i_lp_mmshare_version>
43012

> <i_f3d_flags>
0

> <s_epik_input>
W0NIM11jKFtjSF0xKWMoW0NIM10pW2NIXWMoYzEyKW4oW2NIXW4yKVtDSDJdW0NASF0oW09IXSlbQ0gyXU4zW0NIMl1bQ0gyXU4oW0NIMl1bQ0gyXTMpW0NIMl1bQ0BIXShbQ0gzXSlbT0hd

> <s_epik_cmdline>
J2VwaWtfcHl0aG9uJywgJy1waCcsICc3LjAnLCAnLXRuJywgJzgnLCAnLW1hJywgJzIwMCcsICctbWV0YWxfYmluZGluZycsICctaW1hZScsICc8aW5maWxlLm1hZT4nLCAnLW9tYWUnLCAnPG91dGZpbGUubWFlPic=

> <r_epik_Ionization_Penalty>
1.22049

> <r_epik_Ionization_Penalty_Charging>
1.17952

> <r_epik_Ionization_Penalty_Neutral>
0.0409743

> <r_epik_State_Penalty>
1.61468

> <r_epik_Charging_Adjusted_Penalty>
2.7942

> <i_epik_Tot_Q>
2

> <i_epik_Tot_abs_Q>
2

> <r_epik_Metal_State_Penalty>
5.63169

> <b_epik_Metal_Only>
0

> <s_lp_Force_Field>
OPLS_2005

> <r_lp_Energy>
46.6999

> <b_lp_Chiralities_Consistent>
1

> <s_lp_Variant>
AV-unprocessed.smi:1033-11

> <Gold.Version>
5.8.1

> <Gold.Id.Protein>
6NUR|6NUR_protein|mol2

> <Gold.PLP.Fitness>
55.0010

> <Gold.PLP.PLP>
-48.8389

> <Gold.PLP.part.hbond>
-3.0000

> <Gold.PLP.part.metal>
0.0000

> <Gold.PLP.part.buried>
-5.9927

> <Gold.PLP.part.nonpolar>
-39.5029

> <Gold.PLP.part.repulsive>
0.2052

> <Gold.PLP.ligand.clash>
0.0000

> <Gold.PLP.ligand.torsion>
1.1282

> <Gold.PLP.Chemscore.Hbond>
2.7680

> <Gold.PLP.Chemscore.CHOScore>
0.0000

> <Gold.PLP.Chemscore.Metal>
0.0000

> <Gold.Chemscore.Hbonds>
donor molecule, donor type, donor heavy atom, donor atom, acceptor molecule, acceptor atom, score
      L1  H    10    34       P1  7957  0.91
      L1  H    19    47       P1  8029  0.91
      P1  H  7989  7998       L1    10  0.70

> <Gold.PLP.Chemscore.Internal.Correction>
0.1144

> <Gold.Rescore>
     Score         DG    S(hbond)    S(metal)    S(lipo)     H(rot)  DE(clash)    DE(int)     intcor
     16.68     -18.78       2.19        0.00     120.09       3.15       0.10       2.00       ----

> <Gold.Chemscore.Fitness>
16.6802

> <Gold.Chemscore.DG>
-18.7803

> <Gold.Chemscore.ZeroCoef>
-5.4800

> <Gold.Chemscore.Hbond>
2.1886

> <Gold.Chemscore.Metal>
0.0000

> <Gold.Chemscore.Lipo>
120.0862

> <Gold.Chemscore.Internal_Hbond>
0.0000

> <Gold.Chemscore.DEClash>
0.0961

> <Gold.Chemscore.DEInternal>
2.0040

> <Gold.Chemscore.Rot>
3.1483

> <Gold.Chemscore.Internal.Correction>
   9.000000E+99

> <Gold.Chemscore.Hbonds>
donor molecule, donor type, donor heavy atom, donor atom, acceptor molecule, acceptor atom, score
      L1  H    10    34       P1  7957  0.90
      L1  H    19    47       P1  8029  0.88
      P1  H  7989  7998       L1    10  0.38

> <Gold.Chemscore.Hbond.Weighted>
-7.3099

> <Gold.Chemscore.Metal.Weighted>
-0.0000

> <Gold.Chemscore.Lipo.Weighted>
-14.0501

> <Gold.Chemscore.Internal_Hbond.Weighted>
0.0000

> <Gold.Chemscore.DEClash.Weighted>
0.0961

> <Gold.Chemscore.DEInternal.Weighted>
2.0040

> <Gold.Chemscore.Rot.Weighted>
8.0597

> <Gold.Chemscore.Internal.Correction.Weighted>
   9.000000E+99

> <Gold.Protein.RotatedTorsions>
[ 6907 6896 6895 6894 ] final   79.12 input  -60.11 | X-H torsion
[ 7974 7965 7964 7962 ] final -104.09 input  175.53 | X-H torsion
[ 8008 7997 7996 7995 ] final   76.42 input   59.86 | X-H torsion
[ 10167 10162 10161 10158 ] final  -34.03 input  -65.29 | X-H torsion
[ 10718 10713 10712 10709 ] final  -17.65 input   66.30 | X-H torsion
[ 10763 10752 10751 10750 ] final  -90.25 input  -60.55 | X-H torsion
[ 11005 11000 10999 10996 ] final  119.78 input  -57.11 | X-H torsion

> <Gold.Protein.ActiveResidues>
 VAL166  LYS551  ARG553  GLY616  TRP617  ASP618  TYR619  PRO620  LYS621  CYS622 
 ASP623  PHE694  ASN695  SER759  ASP760  ASP761  ALA762  ILE779  LEU786  VAL792 
 PHE793  MET794  SER795  GLU796  ALA797  LYS798  CYS799  TRP800  GLU811  SER814 

> <Gold.Protein.RotatedAtoms>
  152.5186  134.3559  159.9267 H   0  0  0  0  0  0  0  0  0  0  0  0  # atno 6907 bound_to 6896
  151.3511  133.3919  159.2688 H   0  0  0  0  0  0  0  0  0  0  0  0  # atno 6908 bound_to 6896
  150.9726  134.9115  159.7855 H   0  0  0  0  0  0  0  0  0  0  0  0  # atno 6909 bound_to 6896
  145.2476  140.9227  143.3114 H   0  0  0  0  0  0  0  0  0  0  0  0  # atno 7974 bound_to 7965
  155.8270  140.3467  155.5549 H   0  0  0  0  0  0  0  0  0  0  0  0  # atno 8008 bound_to 7997
  155.8282  140.0923  157.1828 H   0  0  0  0  0  0  0  0  0  0  0  0  # atno 8009 bound_to 7997
  154.4004  140.1417  156.3569 H   0  0  0  0  0  0  0  0  0  0  0  0  # atno 8010 bound_to 7997
  140.7193  143.3577  151.2025 H   0  0  0  0  0  0  0  0  0  0  0  0  # atno 10167 bound_to 10162
  156.5706  130.4748  149.6364 H   0  0  0  0  0  0  0  0  0  0  0  0  # atno 10718 bound_to 10713
  154.6638  135.5311  153.8052 H   0  0  0  0  0  0  0  0  0  0  0  0  # atno 10763 bound_to 10752
  153.0458  135.6512  154.0830 H   0  0  0  0  0  0  0  0  0  0  0  0  # atno 10764 bound_to 10752
  154.0736  135.2952  155.3283 H   0  0  0  0  0  0  0  0  0  0  0  0  # atno 10765 bound_to 10752
  139.9159  134.9630  156.7706 H   0  0  0  0  0  0  0  0  0  0  0  0  # atno 11005 bound_to 11000
  144.9532  139.4060  143.6392 LP  0  0  0  0  0  0  0  0  0  0  0  0  # atno 17320 bound_to 7965
  146.3311  139.8549  142.8866 LP  0  0  0  0  0  0  0  0  0  0  0  0  # atno 17321 bound_to 7965
  139.7122  143.9357  152.2952 LP  0  0  0  0  0  0  0  0  0  0  0  0  # atno 17342 bound_to 10162
  139.9086  144.6869  150.8586 LP  0  0  0  0  0  0  0  0  0  0  0  0  # atno 17343 bound_to 10162
  156.2718  130.7021  151.1820 LP  0  0  0  0  0  0  0  0  0  0  0  0  # atno 17370 bound_to 10713
  157.7349  131.0577  150.5500 LP  0  0  0  0  0  0  0  0  0  0  0  0  # atno 17371 bound_to 10713
  140.6623  133.9634  155.7812 LP  0  0  0  0  0  0  0  0  0  0  0  0  # atno 17394 bound_to 11000
  141.0634  134.0312  157.3627 LP  0  0  0  0  0  0  0  0  0  0  0  0  # atno 17395 bound_to 11000

$$$$
