AV-unprocessed.smi:1976|AV-procd|sdf|7983|dock4
  -GOLD-   2272010163D 1   1.00000     0.00000
 Structure written by MMmdl.
 45 47  0  0  0  0  0  0  0  0  2 V2000
  149.2899  141.3822  154.1539 O   0  0  0  0  0  0  0  0  0  0  0  0
  148.7202  140.8375  155.1005 C   0  0  0  0  0  0  0  0  0  0  0  0
  148.7016  141.4850  156.4928 C   0  0  0  0  0  0  0  0  0  0  0  0
  149.9614  141.3148  157.2363 N   0  0  0  0  0  0  0  0  0  0  0  0
  150.5318  142.4710  157.8040 C   0  0  0  0  0  0  0  0  0  0  0  0
  151.6738  142.4505  158.5177 C   0  0  0  0  0  0  0  0  0  0  0  0
  152.2970  143.7252  159.0655 C   0  0  0  0  0  0  0  0  0  0  0  0
  152.6015  144.5718  158.0816 F   0  0  0  0  0  0  0  0  0  0  0  0
  151.4686  144.3430  159.9086 F   0  0  0  0  0  0  0  0  0  0  0  0
  153.4178  143.4344  159.7246 F   0  0  0  0  0  0  0  0  0  0  0  0
  152.3254  141.1626  158.6551 C   0  0  0  0  0  0  0  0  0  0  0  0
  151.8007  140.0493  158.1065 C   0  0  0  0  0  0  0  0  0  0  0  0
  150.5482  140.0854  157.3479 C   0  0  0  0  0  0  0  0  0  0  0  0
  150.0573  139.0754  156.8427 O   0  0  0  0  0  0  0  0  0  0  0  0
  148.0707  139.6698  154.9876 N   0  0  0  0  0  0  0  0  0  0  0  0
  147.9715  138.8922  153.7574 C   0  0  2  0  0  0  0  0  0  0  0  0
  147.3051  139.6455  152.5894 C   0  0  0  0  0  0  0  0  0  0  0  0
  146.4521  138.5908  151.8570 C   0  0  0  0  0  0  0  0  0  0  0  0
  146.7359  137.3154  152.5425 N   0  3  2  0  0  0  0  0  0  0  0  0
  145.7073  136.2563  152.4511 C   0  0  0  0  0  0  0  0  0  0  0  0
  146.2184  134.9866  153.1616 C   0  0  0  0  0  0  0  0  0  0  0  0
  146.6758  135.2817  154.6052 C   0  0  0  0  0  0  0  0  0  0  0  0
  147.6782  136.4519  154.6434 C   0  0  0  0  0  0  0  0  0  0  0  0
  147.0701  137.6705  153.9300 C   0  0  1  0  0  0  0  0  0  0  0  0
  148.4699  142.5440  156.3725 H   0  0  0  0  0  0  0  0  0  0  0  0
  147.8691  141.0759  157.0686 H   0  0  0  0  0  0  0  0  0  0  0  0
  149.9845  143.3826  157.6126 H   0  0  0  0  0  0  0  0  0  0  0  0
  153.2489  141.0881  159.2100 H   0  0  0  0  0  0  0  0  0  0  0  0
  152.3135  139.1067  158.2297 H   0  0  0  0  0  0  0  0  0  0  0  0
  147.6236  139.2916  155.8105 H   0  0  0  0  0  0  0  0  0  0  0  0
  148.9658  138.5602  153.4506 H   0  0  0  0  0  0  0  0  0  0  0  0
  146.6639  140.4513  152.9502 H   0  0  0  0  0  0  0  0  0  0  0  0
  148.0532  140.0914  151.9328 H   0  0  0  0  0  0  0  0  0  0  0  0
  145.3932  138.8380  151.9479 H   0  0  0  0  0  0  0  0  0  0  0  0
  146.6944  138.5227  150.7962 H   0  0  0  0  0  0  0  0  0  0  0  0
  144.7770  136.6008  152.9053 H   0  0  0  0  0  0  0  0  0  0  0  0
  145.4954  136.0416  151.4029 H   0  0  0  0  0  0  0  0  0  0  0  0
  145.4413  134.2216  153.1644 H   0  0  0  0  0  0  0  0  0  0  0  0
  147.0554  134.5715  152.5985 H   0  0  0  0  0  0  0  0  0  0  0  0
  145.8068  135.5293  155.2162 H   0  0  0  0  0  0  0  0  0  0  0  0
  147.1206  134.3900  155.0484 H   0  0  0  0  0  0  0  0  0  0  0  0
  147.9251  136.7011  155.6760 H   0  0  0  0  0  0  0  0  0  0  0  0
  148.6104  136.1575  154.1593 H   0  0  0  0  0  0  0  0  0  0  0  0
  146.1524  137.9709  154.4416 H   0  0  0  0  0  0  0  0  0  0  0  0
  147.5823  136.9496  152.1303 H   0  0  0  0  0  0  0  0  0  0  0  0
  1  2  2  0  0  0  0
  2  3  1  0  0  0  0
  2 15  1  0  0  0  0
  3  4  1  0  0  0  0
  3 25  1  0  0  0  0
  3 26  1  0  0  0  0
  4 13  1  0  0  0  0
  4  5  1  0  0  0  0
  5  6  2  0  0  0  0
  5 27  1  0  0  0  0
  6  7  1  0  0  0  0
  6 11  1  0  0  0  0
  7  8  1  0  0  0  0
  7  9  1  0  0  0  0
  7 10  1  0  0  0  0
 11 12  2  0  0  0  0
 11 28  1  0  0  0  0
 12 13  1  0  0  0  0
 12 29  1  0  0  0  0
 13 14  2  0  0  0  0
 15 16  1  0  0  0  0
 15 30  1  0  0  0  0
 16 24  1  0  0  0  0
 16 17  1  0  0  0  0
 16 31  1  0  0  0  0
 17 18  1  0  0  0  0
 17 32  1  0  0  0  0
 17 33  1  0  0  0  0
 18 19  1  0  0  0  0
 18 34  1  0  0  0  0
 18 35  1  0  0  0  0
 19 24  1  0  0  0  0
 19 20  1  0  0  0  0
 19 45  1  0  0  0  0
 20 21  1  0  0  0  0
 20 36  1  0  0  0  0
 20 37  1  0  0  0  0
 21 22  1  0  0  0  0
 21 38  1  0  0  0  0
 21 39  1  0  0  0  0
 22 23  1  0  0  0  0
 22 40  1  0  0  0  0
 22 41  1  0  0  0  0
 23 24  1  0  0  0  0
 23 42  1  0  0  0  0
 23 43  1  0  0  0  0
 24 44  1  0  0  0  0
M  CHG  1  19   1
M  END
> <s_m_source_file>
AV-unprocessed.smi

> <i_m_source_file_index>
1976

> <i_lp_mmshare_version>
43012

> <i_f3d_flags>
0

> <s_epik_input>
W0NIMl0xW0NIMl1bQ0gyXVtDSDJdW0NASF0oTjEyKVtDQEBIXShbQ0gyXVtDSDJdMilbTkhdQyg9TylbQ0gyXW4zW2NIXWMoQyhGKShGKUYpW2NIXVtjSF1jMz1P

> <s_epik_cmdline>
J2VwaWtfcHl0aG9uJywgJy1waCcsICc3LjAnLCAnLXRuJywgJzgnLCAnLW1hJywgJzIwMCcsICctbWV0YWxfYmluZGluZycsICctaW1hZScsICc8aW5maWxlLm1hZT4nLCAnLW9tYWUnLCAnPG91dGZpbGUubWFlPic=

> <r_lp_tautomer_probability>
1

> <r_epik_Ionization_Penalty>
0.00171506

> <r_epik_Ionization_Penalty_Charging>
0.00171498

> <r_epik_Ionization_Penalty_Neutral>
7.81737e-08

> <r_epik_State_Penalty>
0.00115937

> <r_epik_Charging_Adjusted_Penalty>
0.00287436

> <i_epik_Tot_Q>
1

> <i_epik_Tot_abs_Q>
1

> <r_epik_Metal_State_Penalty>
-0

> <b_epik_Metal_Only>
0

> <s_lp_Force_Field>
OPLS_2005

> <r_lp_Energy>
45.9566

> <b_lp_Chiralities_Consistent>
1

> <s_lp_Variant>
AV-unprocessed.smi:1976-1

> <Gold.Version>
5.8.1

> <Gold.Id.Protein>
6NUR|6NUR_protein|mol2

> <Gold.PLP.Fitness>
51.0614

> <Gold.PLP.PLP>
-40.7860

> <Gold.PLP.part.hbond>
-3.0000

> <Gold.PLP.part.metal>
0.0000

> <Gold.PLP.part.buried>
1.1841

> <Gold.PLP.part.nonpolar>
-38.4768

> <Gold.PLP.part.repulsive>
0.2483

> <Gold.PLP.ligand.clash>
0.4256

> <Gold.PLP.ligand.torsion>
0.3793

> <Gold.PLP.Chemscore.Hbond>
2.7996

> <Gold.PLP.Chemscore.CHOScore>
1.0000

> <Gold.PLP.Chemscore.Metal>
0.0000

> <Gold.Chemscore.Hbonds>
donor molecule, donor type, donor heavy atom, donor atom, acceptor molecule, acceptor atom, score
      L1  H    19    45       P1  7948  2.00
      P1  H  8011  8017       L1     1  0.49
      L1  C     5    27       P1  8028  0.84

> <Gold.PLP.Chemscore.Internal.Correction>
0.0609

> <Gold.Rescore>
     Score         DG    S(hbond)    S(metal)    S(lipo)     H(rot)  DE(clash)    DE(int)     intcor
     13.94     -15.74       1.52        0.00      79.03       1.58       0.10       1.70       ----

> <Gold.Chemscore.Fitness>
13.9389

> <Gold.Chemscore.DG>
-15.7353

> <Gold.Chemscore.ZeroCoef>
-5.4800

> <Gold.Chemscore.Hbond>
1.5153

> <Gold.Chemscore.Metal>
0.0000

> <Gold.Chemscore.Lipo>
79.0301

> <Gold.Chemscore.Internal_Hbond>
0.0000

> <Gold.Chemscore.DEClash>
0.0979

> <Gold.Chemscore.DEInternal>
1.6985

> <Gold.Chemscore.Rot>
1.5830

> <Gold.Chemscore.Internal.Correction>
   9.000000E+99

> <Gold.Chemscore.Hbonds>
donor molecule, donor type, donor heavy atom, donor atom, acceptor molecule, acceptor atom, score
      L1  H    19    45       P1  7948  0.95
      P1  H  7989  7998       L1     1  0.01
      P1  H  8011  8017       L1     1  0.48

> <Gold.Chemscore.Hbond.Weighted>
-5.0612

> <Gold.Chemscore.Metal.Weighted>
-0.0000

> <Gold.Chemscore.Lipo.Weighted>
-9.2465

> <Gold.Chemscore.Internal_Hbond.Weighted>
0.0000

> <Gold.Chemscore.DEClash.Weighted>
0.0979

> <Gold.Chemscore.DEInternal.Weighted>
1.6985

> <Gold.Chemscore.Rot.Weighted>
4.0524

> <Gold.Chemscore.Internal.Correction.Weighted>
   9.000000E+99

> <Gold.Protein.RotatedTorsions>
[ 6907 6896 6895 6894 ] final -169.00 input  -60.11 | X-H torsion
[ 7974 7965 7964 7962 ] final -146.02 input  175.53 | X-H torsion
[ 8008 7997 7996 7995 ] final  -17.71 input   59.86 | X-H torsion
[ 10167 10162 10161 10158 ] final  152.04 input  -65.29 | X-H torsion
[ 10718 10713 10712 10709 ] final   14.46 input   66.30 | X-H torsion
[ 10763 10752 10751 10750 ] final  164.34 input  -60.55 | X-H torsion
[ 11005 11000 10999 10996 ] final  -22.08 input  -57.11 | X-H torsion

> <Gold.Protein.ActiveResidues>
 VAL166  LYS551  ARG553  GLY616  TRP617  ASP618  TYR619  PRO620  LYS621  CYS622 
 ASP623  PHE694  ASN695  SER759  ASP760  ASP761  ALA762  ILE779  LEU786  VAL792 
 PHE793  MET794  SER795  GLU796  ALA797  LYS798  CYS799  TRP800  GLU811  SER814 

> <Gold.Protein.RotatedAtoms>
  151.4847  133.3538  159.2843 H   0  0  0  0  0  0  0  0  0  0  0  0  # atno 6907 bound_to 6896
  150.8874  134.8276  159.7280 H   0  0  0  0  0  0  0  0  0  0  0  0  # atno 6908 bound_to 6896
  152.4802  134.4752  159.9700 H   0  0  0  0  0  0  0  0  0  0  0  0  # atno 6909 bound_to 6896
  144.8188  140.5510  143.5593 H   0  0  0  0  0  0  0  0  0  0  0  0  # atno 7974 bound_to 7965
  154.4959  140.2135  155.9449 H   0  0  0  0  0  0  0  0  0  0  0  0  # atno 8008 bound_to 7997
  156.1369  140.3187  155.8402 H   0  0  0  0  0  0  0  0  0  0  0  0  # atno 8009 bound_to 7997
  155.4193  140.0496  157.3017 H   0  0  0  0  0  0  0  0  0  0  0  0  # atno 8010 bound_to 7997
  139.4836  144.5391  151.7594 H   0  0  0  0  0  0  0  0  0  0  0  0  # atno 10167 bound_to 10162
  157.0394  130.6225  149.5748 H   0  0  0  0  0  0  0  0  0  0  0  0  # atno 10718 bound_to 10713
  154.3075  135.2758  155.2582 H   0  0  0  0  0  0  0  0  0  0  0  0  # atno 10763 bound_to 10752
  154.4992  135.5813  153.6521 H   0  0  0  0  0  0  0  0  0  0  0  0  # atno 10764 bound_to 10752
  152.9892  135.6153  154.3250 H   0  0  0  0  0  0  0  0  0  0  0  0  # atno 10765 bound_to 10752
  140.8622  133.7780  156.0088 H   0  0  0  0  0  0  0  0  0  0  0  0  # atno 11005 bound_to 11000
  145.5153  139.1478  143.3582 LP  0  0  0  0  0  0  0  0  0  0  0  0  # atno 17320 bound_to 7965
  146.2492  140.5294  142.8900 LP  0  0  0  0  0  0  0  0  0  0  0  0  # atno 17321 bound_to 7965
  140.4928  144.1285  150.5954 LP  0  0  0  0  0  0  0  0  0  0  0  0  # atno 17342 bound_to 10162
  140.4151  143.2638  151.9784 LP  0  0  0  0  0  0  0  0  0  0  0  0  # atno 17343 bound_to 10162
  156.0043  130.5127  150.7774 LP  0  0  0  0  0  0  0  0  0  0  0  0  # atno 17370 bound_to 10713
  157.5116  131.0926  151.0191 LP  0  0  0  0  0  0  0  0  0  0  0  0  # atno 17371 bound_to 10713
  140.8669  134.2773  157.5209 LP  0  0  0  0  0  0  0  0  0  0  0  0  # atno 17394 bound_to 11000
  139.8707  134.9547  156.4185 LP  0  0  0  0  0  0  0  0  0  0  0  0  # atno 17395 bound_to 11000

$$$$
