AV-unprocessed.smi:2976|AV-procd|sdf|11359|dock5
  -GOLD-   2272016273D 1   1.00000     0.00000
 Structure written by MMmdl.
 40 41  0  0  0  0  0  0  0  0  1 V2000
  142.9990  134.1247  162.3656 C   0  0  0  0  0  0  0  0  0  0  0  0
  144.4661  134.4591  162.0428 C   0  0  2  0  0  0  0  0  0  0  0  0
  145.3779  133.3014  162.5000 C   0  0  0  0  0  0  0  0  0  0  0  0
  146.8568  133.5709  162.1911 C   0  0  0  0  0  0  0  0  0  0  0  0
  147.3173  134.8993  162.8102 C   0  0  0  0  0  0  0  0  0  0  0  0
  146.4335  136.0781  162.3618 C   0  0  1  0  0  0  0  0  0  0  0  0
  146.6620  136.3497  160.9412 N   0  0  0  0  0  0  0  0  0  0  0  0
  147.8197  136.7313  160.3802 C   0  0  0  0  0  0  0  0  0  0  0  0
  148.8695  136.8688  161.0090 O   0  0  0  0  0  0  0  0  0  0  0  0
  147.7839  136.9928  158.8694 C   0  0  0  0  0  0  0  0  0  0  0  0
  148.7226  138.0485  158.4645 N   0  0  0  0  0  0  0  0  0  0  0  0
  148.1178  139.1658  157.9163 N   0  0  0  0  0  0  0  0  0  0  0  0
  148.8479  140.1476  157.5121 C   0  0  0  0  0  0  0  0  0  0  0  0
  150.2904  140.1289  157.6145 C   0  0  0  0  0  0  0  0  0  0  0  0
  151.2171  141.4763  157.0548 Cl  0  0  0  0  0  0  0  0  0  0  0  0
  150.8729  139.0313  158.1591 C   0  0  0  0  0  0  0  0  0  0  0  0
  152.5933  138.9352  158.3166 Cl  0  0  0  0  0  0  0  0  0  0  0  0
  150.0725  137.8931  158.6316 C   0  0  0  0  0  0  0  0  0  0  0  0
  150.5629  136.8815  159.1357 O   0  0  0  0  0  0  0  0  0  0  0  0
  144.9350  135.8032  162.6672 C   0  0  1  0  0  0  0  0  0  0  0  0
  144.0391  136.9964  162.2765 C   0  0  0  0  0  0  0  0  0  0  0  0
  142.8231  134.1073  163.4415 H   0  0  0  0  0  0  0  0  0  0  0  0
  142.7246  133.1468  161.9691 H   0  0  0  0  0  0  0  0  0  0  0  0
  142.3135  134.8474  161.9236 H   0  0  0  0  0  0  0  0  0  0  0  0
  144.5469  134.5383  160.9575 H   0  0  0  0  0  0  0  0  0  0  0  0
  145.2572  133.1406  163.5723 H   0  0  0  0  0  0  0  0  0  0  0  0
  145.0731  132.3731  162.0153 H   0  0  0  0  0  0  0  0  0  0  0  0
  147.4691  132.7529  162.5721 H   0  0  0  0  0  0  0  0  0  0  0  0
  147.0082  133.5895  161.1113 H   0  0  0  0  0  0  0  0  0  0  0  0
  147.2825  134.8174  163.8973 H   0  0  0  0  0  0  0  0  0  0  0  0
  148.3604  135.0898  162.5543 H   0  0  0  0  0  0  0  0  0  0  0  0
  146.7455  136.9479  162.9427 H   0  0  0  0  0  0  0  0  0  0  0  0
  145.8579  136.2646  160.3367 H   0  0  0  0  0  0  0  0  0  0  0  0
  148.0189  136.0566  158.3598 H   0  0  0  0  0  0  0  0  0  0  0  0
  146.7719  137.2524  158.5518 H   0  0  0  0  0  0  0  0  0  0  0  0
  148.4167  141.0464  157.0710 H   0  0  0  0  0  0  0  0  0  0  0  0
  144.8525  135.7016  163.7506 H   0  0  0  0  0  0  0  0  0  0  0  0
  143.9394  137.0896  161.1951 H   0  0  0  0  0  0  0  0  0  0  0  0
  144.4490  137.9332  162.6547 H   0  0  0  0  0  0  0  0  0  0  0  0
  143.0373  136.9005  162.6941 H   0  0  0  0  0  0  0  0  0  0  0  0
  1  2  1  0  0  0  0
  1 22  1  0  0  0  0
  1 23  1  0  0  0  0
  1 24  1  0  0  0  0
  2 20  1  0  0  0  0
  2  3  1  0  0  0  0
  2 25  1  0  0  0  0
  3  4  1  0  0  0  0
  3 26  1  0  0  0  0
  3 27  1  0  0  0  0
  4  5  1  0  0  0  0
  4 28  1  0  0  0  0
  4 29  1  0  0  0  0
  5  6  1  0  0  0  0
  5 30  1  0  0  0  0
  5 31  1  0  0  0  0
  6  7  1  0  0  0  0
  6 20  1  0  0  0  0
  6 32  1  0  0  0  0
  7  8  1  0  0  0  0
  7 33  1  0  0  0  0
  8  9  2  0  0  0  0
  8 10  1  0  0  0  0
 10 11  1  0  0  0  0
 10 34  1  0  0  0  0
 10 35  1  0  0  0  0
 11 18  1  0  0  0  0
 11 12  1  0  0  0  0
 12 13  2  0  0  0  0
 13 14  1  0  0  0  0
 13 36  1  0  0  0  0
 14 15  1  0  0  0  0
 14 16  2  0  0  0  0
 16 17  1  0  0  0  0
 16 18  1  0  0  0  0
 18 19  2  0  0  0  0
 20 21  1  0  0  0  0
 20 37  1  0  0  0  0
 21 38  1  0  0  0  0
 21 39  1  0  0  0  0
 21 40  1  0  0  0  0
M  END
> <s_m_source_file>
AV-unprocessed.smi

> <i_m_source_file_index>
2976

> <i_lp_mmshare_version>
43012

> <i_f3d_flags>
0

> <s_epik_input>
W0NIM11bQ0BASF0xW0NIMl1bQ0gyXVtDSDJdW0NASF0oW0NASF0xW0NIM10pW05IXUMoPU8pW0NIMl1uMm5bY0hdYyhDbCljKENsKWMyPU8=

> <s_epik_cmdline>
J2VwaWtfcHl0aG9uJywgJy1waCcsICc3LjAnLCAnLXRuJywgJzgnLCAnLW1hJywgJzIwMCcsICctbWV0YWxfYmluZGluZycsICctaW1hZScsICc8aW5maWxlLm1hZT4nLCAnLW9tYWUnLCAnPG91dGZpbGUubWFlPic=

> <r_lp_tautomer_probability>
1

> <r_epik_Ionization_Penalty>
1.90777e-08

> <r_epik_Ionization_Penalty_Charging>
3.07942e-11

> <r_epik_Ionization_Penalty_Neutral>
1.90469e-08

> <r_epik_State_Penalty>
-0

> <r_epik_Charging_Adjusted_Penalty>
3.07942e-11

> <i_epik_Tot_Q>
0

> <i_epik_Tot_abs_Q>
0

> <r_epik_Metal_State_Penalty>
-0

> <b_epik_Metal_Only>
0

> <s_lp_Force_Field>
OPLS_2005

> <r_lp_Energy>
25.2962

> <b_lp_Chiralities_Consistent>
1

> <s_lp_Variant>
AV-unprocessed.smi:2976-1

> <Gold.Version>
5.8.1

> <Gold.Id.Protein>
6NUR|6NUR_protein|mol2

> <Gold.PLP.Fitness>
40.8079

> <Gold.PLP.PLP>
-35.5985

> <Gold.PLP.part.hbond>
-2.2420

> <Gold.PLP.part.metal>
0.0000

> <Gold.PLP.part.buried>
-6.2826

> <Gold.PLP.part.nonpolar>
-27.7143

> <Gold.PLP.part.repulsive>
0.1144

> <Gold.PLP.ligand.clash>
0.0000

> <Gold.PLP.ligand.torsion>
0.3998

> <Gold.PLP.Chemscore.Hbond>
2.0000

> <Gold.PLP.Chemscore.CHOScore>
0.0000

> <Gold.PLP.Chemscore.Metal>
0.0000

> <Gold.Chemscore.Hbonds>
donor molecule, donor type, donor heavy atom, donor atom, acceptor molecule, acceptor atom, score
      P1  H  6896  6907       L1    19  1.00
      P1  H  6931  6943       L1     9  1.00

> <Gold.PLP.Chemscore.Internal.Correction>
0.0090

> <Gold.Rescore>
     Score         DG    S(hbond)    S(metal)    S(lipo)     H(rot)  DE(clash)    DE(int)     intcor
     16.78     -17.41       1.94        0.00      79.02       1.49       0.00       0.64       ----

> <Gold.Chemscore.Fitness>
16.7767

> <Gold.Chemscore.DG>
-17.4138

> <Gold.Chemscore.ZeroCoef>
-5.4800

> <Gold.Chemscore.Hbond>
1.9443

> <Gold.Chemscore.Metal>
0.0000

> <Gold.Chemscore.Lipo>
79.0211

> <Gold.Chemscore.Internal_Hbond>
0.0000

> <Gold.Chemscore.DEClash>
0.0000

> <Gold.Chemscore.DEInternal>
0.6371

> <Gold.Chemscore.Rot>
1.4866

> <Gold.Chemscore.Internal.Correction>
   9.000000E+99

> <Gold.Chemscore.Hbonds>
donor molecule, donor type, donor heavy atom, donor atom, acceptor molecule, acceptor atom, score
      P1  H  6896  6907       L1    19  0.93
      P1  H  6931  6943       L1     9  0.90

> <Gold.Chemscore.Hbond.Weighted>
-6.4940

> <Gold.Chemscore.Metal.Weighted>
-0.0000

> <Gold.Chemscore.Lipo.Weighted>
-9.2455

> <Gold.Chemscore.Internal_Hbond.Weighted>
0.0000

> <Gold.Chemscore.DEClash.Weighted>
0.0000

> <Gold.Chemscore.DEInternal.Weighted>
0.6371

> <Gold.Chemscore.Rot.Weighted>
3.8057

> <Gold.Chemscore.Internal.Correction.Weighted>
   9.000000E+99

> <Gold.Protein.RotatedTorsions>
[ 6907 6896 6895 6894 ] final  -37.08 input  -60.11 | X-H torsion
[ 7974 7965 7964 7962 ] final  118.66 input  175.53 | X-H torsion
[ 8008 7997 7996 7995 ] final -120.06 input   59.86 | X-H torsion
[ 10167 10162 10161 10158 ] final  114.10 input  -65.29 | X-H torsion
[ 10718 10713 10712 10709 ] final  113.58 input   66.30 | X-H torsion
[ 10763 10752 10751 10750 ] final  -35.03 input  -60.55 | X-H torsion
[ 11005 11000 10999 10996 ] final  -51.14 input  -57.11 | X-H torsion

> <Gold.Protein.ActiveResidues>
 VAL166  LYS551  ARG553  GLY616  TRP617  ASP618  TYR619  PRO620  LYS621  CYS622 
 ASP623  PHE694  ASN695  SER759  ASP760  ASP761  ALA762  ILE779  LEU786  VAL792 
 PHE793  MET794  SER795  GLU796  ALA797  LYS798  CYS799  TRP800  GLU811  SER814 

> <Gold.Protein.RotatedAtoms>
  151.0191  134.9456  159.8049 H   0  0  0  0  0  0  0  0  0  0  0  0  # atno 6907 bound_to 6896
  152.5321  134.2927  159.9059 H   0  0  0  0  0  0  0  0  0  0  0  0  # atno 6908 bound_to 6896
  151.2934  133.4113  159.2669 H   0  0  0  0  0  0  0  0  0  0  0  0  # atno 6909 bound_to 6896
  145.1526  139.3202  143.4559 H   0  0  0  0  0  0  0  0  0  0  0  0  # atno 7974 bound_to 7965
  155.1258  140.0399  157.2762 H   0  0  0  0  0  0  0  0  0  0  0  0  # atno 8008 bound_to 7997
  154.6580  140.2584  155.7114 H   0  0  0  0  0  0  0  0  0  0  0  0  # atno 8009 bound_to 7997
  156.2606  140.2823  156.1040 H   0  0  0  0  0  0  0  0  0  0  0  0  # atno 8010 bound_to 7997
  139.6413  144.7124  151.2231 H   0  0  0  0  0  0  0  0  0  0  0  0  # atno 10167 bound_to 10162
  157.6330  131.0986  150.7062 H   0  0  0  0  0  0  0  0  0  0  0  0  # atno 10718 bound_to 10713
  153.8565  135.6844  153.4787 H   0  0  0  0  0  0  0  0  0  0  0  0  # atno 10763 bound_to 10752
  153.1367  135.4675  154.9430 H   0  0  0  0  0  0  0  0  0  0  0  0  # atno 10764 bound_to 10752
  154.7778  135.3259  154.8003 H   0  0  0  0  0  0  0  0  0  0  0  0  # atno 10765 bound_to 10752
  141.0855  133.6643  156.3834 H   0  0  0  0  0  0  0  0  0  0  0  0  # atno 11005 bound_to 11000
  146.3493  140.1606  142.8591 LP  0  0  0  0  0  0  0  0  0  0  0  0  # atno 17320 bound_to 7965
  145.0415  140.8949  143.5049 LP  0  0  0  0  0  0  0  0  0  0  0  0  # atno 17321 bound_to 7965
  140.7492  143.6307  150.8426 LP  0  0  0  0  0  0  0  0  0  0  0  0  # atno 17342 bound_to 10162
  139.9944  143.5811  152.2898 LP  0  0  0  0  0  0  0  0  0  0  0  0  # atno 17343 bound_to 10162
  156.7398  130.4735  149.5480 LP  0  0  0  0  0  0  0  0  0  0  0  0  # atno 17370 bound_to 10713
  156.1547  130.6334  151.0641 LP  0  0  0  0  0  0  0  0  0  0  0  0  # atno 17371 bound_to 10713
  140.5373  134.6155  157.5369 LP  0  0  0  0  0  0  0  0  0  0  0  0  # atno 17394 bound_to 11000
  139.9673  134.7352  156.0113 LP  0  0  0  0  0  0  0  0  0  0  0  0  # atno 17395 bound_to 11000

$$$$
