AV-unprocessed.smi:3169|AV-procd|sdf|12105|dock7
  -GOLD-   2272017543D 1   1.00000     0.00000
 Structure written by MMmdl.
 35 36  0  0  0  0  0  0  0  0  1 V2000
  147.3787  133.5657  155.3146 O   0  0  0  0  0  0  0  0  0  0  0  0
  147.8370  134.2455  154.3963 C   0  0  0  0  0  0  0  0  0  0  0  0
  147.3438  134.2540  153.1509 N   0  0  0  0  0  0  0  0  0  0  0  0
  146.1800  133.4943  152.7052 C   0  0  0  0  0  0  0  0  0  0  0  0
  146.5407  132.4477  151.6344 C   0  0  0  0  0  0  0  0  0  0  0  0
  145.6506  132.5050  150.4901 N   0  0  0  0  0  0  0  0  0  0  0  0
  144.3778  133.0581  150.4454 C   0  0  0  0  0  0  0  0  0  0  0  0
  143.9146  132.8742  149.1621 C   0  0  0  0  0  0  0  0  0  0  0  0
  144.8801  132.2153  148.4046 N   0  0  0  0  0  0  0  0  0  0  0  0
  145.8799  132.0316  149.2574 C   0  0  0  0  0  0  0  0  0  0  0  0
  148.8867  135.0693  154.5188 N   0  0  0  0  0  0  0  0  0  0  0  0
  149.6547  135.2833  155.7407 C   0  0  0  0  0  0  0  0  0  0  0  0
  150.4169  136.6181  155.7039 C   0  0  2  0  0  0  0  0  0  0  0  0
  149.6030  137.8177  155.2184 C   0  0  0  0  0  0  0  0  0  0  0  0
  150.6966  138.7524  154.7555 C   0  0  0  0  0  0  0  0  0  0  0  0
  151.6935  137.7818  154.1269 C   0  0  0  0  0  0  0  0  0  0  0  0
  151.5144  136.5368  154.7992 O   0  0  0  0  0  0  0  0  0  0  0  0
  147.7929  134.8428  152.4646 H   0  0  0  0  0  0  0  0  0  0  0  0
  145.7372  133.0035  153.5724 H   0  0  0  0  0  0  0  0  0  0  0  0
  145.4214  134.1770  152.3192 H   0  0  0  0  0  0  0  0  0  0  0  0
  147.5589  132.6149  151.2818 H   0  0  0  0  0  0  0  0  0  0  0  0
  146.5180  131.4398  152.0512 H   0  0  0  0  0  0  0  0  0  0  0  0
  143.9193  133.5211  151.3066 H   0  0  0  0  0  0  0  0  0  0  0  0
  142.9680  133.1623  148.7294 H   0  0  0  0  0  0  0  0  0  0  0  0
  146.7984  131.5345  148.9811 H   0  0  0  0  0  0  0  0  0  0  0  0
  149.1826  135.5850  153.7030 H   0  0  0  0  0  0  0  0  0  0  0  0
  148.9524  135.2903  156.5746 H   0  0  0  0  0  0  0  0  0  0  0  0
  150.3404  134.4551  155.9278 H   0  0  0  0  0  0  0  0  0  0  0  0
  150.8258  136.8392  156.6912 H   0  0  0  0  0  0  0  0  0  0  0  0
  148.9687  137.5379  154.3758 H   0  0  0  0  0  0  0  0  0  0  0  0
  148.9715  138.2489  155.9955 H   0  0  0  0  0  0  0  0  0  0  0  0
  150.3462  139.5156  154.0603 H   0  0  0  0  0  0  0  0  0  0  0  0
  151.1477  139.2518  155.6139 H   0  0  0  0  0  0  0  0  0  0  0  0
  151.4712  137.6370  153.0691 H   0  0  0  0  0  0  0  0  0  0  0  0
  152.7217  138.1344  154.2108 H   0  0  0  0  0  0  0  0  0  0  0  0
  1  2  2  0  0  0  0
  2  3  1  0  0  0  0
  2 11  1  0  0  0  0
  3  4  1  0  0  0  0
  3 18  1  0  0  0  0
  4  5  1  0  0  0  0
  4 19  1  0  0  0  0
  4 20  1  0  0  0  0
  5  6  1  0  0  0  0
  5 21  1  0  0  0  0
  5 22  1  0  0  0  0
  6 10  1  0  0  0  0
  6  7  1  0  0  0  0
  7  8  2  0  0  0  0
  7 23  1  0  0  0  0
  8  9  1  0  0  0  0
  8 24  1  0  0  0  0
  9 10  2  0  0  0  0
 10 25  1  0  0  0  0
 11 12  1  0  0  0  0
 11 26  1  0  0  0  0
 12 13  1  0  0  0  0
 12 27  1  0  0  0  0
 12 28  1  0  0  0  0
 13 17  1  0  0  0  0
 13 14  1  0  0  0  0
 13 29  1  0  0  0  0
 14 15  1  0  0  0  0
 14 30  1  0  0  0  0
 14 31  1  0  0  0  0
 15 16  1  0  0  0  0
 15 32  1  0  0  0  0
 15 33  1  0  0  0  0
 16 17  1  0  0  0  0
 16 34  1  0  0  0  0
 16 35  1  0  0  0  0
M  END
> <s_m_source_file>
AV-unprocessed.smi

> <i_m_source_file_index>
3169

> <i_lp_mmshare_version>
43012

> <i_f3d_flags>
0

> <s_epik_input>
TzFbQ0gyXVtDSDJdW0NIMl1bQ0BIXTFbQ0gyXVtOSF1DKD1PKVtOSF1bQ0gyXVtDSDJdbjJbY0hdW2NIXW5bY0hdMg==

> <s_epik_cmdline>
J2VwaWtfcHl0aG9uJywgJy1waCcsICc3LjAnLCAnLXRuJywgJzgnLCAnLW1hJywgJzIwMCcsICctbWV0YWxfYmluZGluZycsICctaW1hZScsICc8aW5maWxlLm1hZT4nLCAnLW9tYWUnLCAnPG91dGZpbGUubWFlPic=

> <r_lp_tautomer_probability>
1

> <r_epik_Ionization_Penalty>
0.620462

> <r_epik_Ionization_Penalty_Charging>
0.620414

> <r_epik_Ionization_Penalty_Neutral>
4.72016e-05

> <r_epik_State_Penalty>
0.636391

> <r_epik_Charging_Adjusted_Penalty>
1.25681

> <i_epik_Tot_Q>
0

> <i_epik_Tot_abs_Q>
0

> <r_epik_Metal_State_Penalty>
0.306539

> <b_epik_Metal_Only>
0

> <s_lp_Force_Field>
OPLS_2005

> <r_lp_Energy>
16.7898

> <b_lp_Chiralities_Consistent>
1

> <s_lp_Variant>
AV-unprocessed.smi:3169-3

> <Gold.Version>
5.8.1

> <Gold.Id.Protein>
6NUR|6NUR_protein|mol2

> <Gold.PLP.Fitness>
45.4785

> <Gold.PLP.PLP>
-32.2339

> <Gold.PLP.part.hbond>
-4.7930

> <Gold.PLP.part.metal>
0.0000

> <Gold.PLP.part.buried>
-5.1925

> <Gold.PLP.part.nonpolar>
-23.4324

> <Gold.PLP.part.repulsive>
0.8304

> <Gold.PLP.ligand.clash>
0.0000

> <Gold.PLP.ligand.torsion>
0.8785

> <Gold.PLP.Chemscore.Hbond>
3.0000

> <Gold.PLP.Chemscore.CHOScore>
1.9967

> <Gold.PLP.Chemscore.Metal>
0.0000

> <Gold.Chemscore.Hbonds>
donor molecule, donor type, donor heavy atom, donor atom, acceptor molecule, acceptor atom, score
      L1  H     3    18       P1  7948  1.00
      L1  H    11    26       P1  7948  1.00
      P1  H 10752 10765       L1    17  1.00
      L1  C     8    24       P1 10186  1.00
      L1  C    10    25       P1 10747  0.85

> <Gold.PLP.Chemscore.Internal.Correction>
0.0116

> <Gold.Rescore>
     Score         DG    S(hbond)    S(metal)    S(lipo)     H(rot)  DE(clash)    DE(int)     intcor
     14.56     -15.33       2.68        0.00      56.84       2.25       0.08       0.69       ----

> <Gold.Chemscore.Fitness>
14.5630

> <Gold.Chemscore.DG>
-15.3314

> <Gold.Chemscore.ZeroCoef>
-5.4800

> <Gold.Chemscore.Hbond>
2.6809

> <Gold.Chemscore.Metal>
0.0000

> <Gold.Chemscore.Lipo>
56.8423

> <Gold.Chemscore.Internal_Hbond>
0.0000

> <Gold.Chemscore.DEClash>
0.0811

> <Gold.Chemscore.DEInternal>
0.6874

> <Gold.Chemscore.Rot>
2.2474

> <Gold.Chemscore.Internal.Correction>
   9.000000E+99

> <Gold.Chemscore.Hbonds>
donor molecule, donor type, donor heavy atom, donor atom, acceptor molecule, acceptor atom, score
      L1  H     3    18       P1  7948  0.84
      L1  H    11    26       P1  7948  0.63
      P1  H 10752 10765       L1    17  0.77

> <Gold.Chemscore.Hbond.Weighted>
-8.9541

> <Gold.Chemscore.Metal.Weighted>
-0.0000

> <Gold.Chemscore.Lipo.Weighted>
-6.6505

> <Gold.Chemscore.Internal_Hbond.Weighted>
0.0000

> <Gold.Chemscore.DEClash.Weighted>
0.0811

> <Gold.Chemscore.DEInternal.Weighted>
0.6874

> <Gold.Chemscore.Rot.Weighted>
5.7532

> <Gold.Chemscore.Internal.Correction.Weighted>
   9.000000E+99

> <Gold.Protein.RotatedTorsions>
[ 6907 6896 6895 6894 ] final -155.20 input  -60.11 | X-H torsion
[ 7974 7965 7964 7962 ] final   71.67 input  175.53 | X-H torsion
[ 8008 7997 7996 7995 ] final -145.31 input   59.86 | X-H torsion
[ 10167 10162 10161 10158 ] final   52.88 input  -65.29 | X-H torsion
[ 10718 10713 10712 10709 ] final   72.79 input   66.30 | X-H torsion
[ 10763 10752 10751 10750 ] final -169.01 input  -60.55 | X-H torsion
[ 11005 11000 10999 10996 ] final  -82.71 input  -57.11 | X-H torsion

> <Gold.Protein.ActiveResidues>
 VAL166  LYS551  ARG553  GLY616  TRP617  ASP618  TYR619  PRO620  LYS621  CYS622 
 ASP623  PHE694  ASN695  SER759  ASP760  ASP761  ALA762  ILE779  LEU786  VAL792 
 PHE793  MET794  SER795  GLU796  ALA797  LYS798  CYS799  TRP800  GLU811  SER814 

> <Gold.Protein.RotatedAtoms>
  151.2689  133.4265  159.2619 H   0  0  0  0  0  0  0  0  0  0  0  0  # atno 6907 bound_to 6896
  151.0463  134.9642  159.8198 H   0  0  0  0  0  0  0  0  0  0  0  0  # atno 6908 bound_to 6896
  152.5374  134.2645  159.9000 H   0  0  0  0  0  0  0  0  0  0  0  0  # atno 6909 bound_to 6896
  145.7629  139.2809  143.1365 H   0  0  0  0  0  0  0  0  0  0  0  0  # atno 7974 bound_to 7965
  155.5411  140.0608  157.2870 H   0  0  0  0  0  0  0  0  0  0  0  0  # atno 8008 bound_to 7997
  154.4451  140.1919  156.0636 H   0  0  0  0  0  0  0  0  0  0  0  0  # atno 8009 bound_to 7997
  156.0584  140.3275  155.7436 H   0  0  0  0  0  0  0  0  0  0  0  0  # atno 8010 bound_to 7997
  140.2466  144.3525  150.6362 H   0  0  0  0  0  0  0  0  0  0  0  0  # atno 10167 bound_to 10162
  157.6517  130.9596  150.0977 H   0  0  0  0  0  0  0  0  0  0  0  0  # atno 10718 bound_to 10713
  154.6568  135.2919  154.9917 H   0  0  0  0  0  0  0  0  0  0  0  0  # atno 10763 bound_to 10752
  154.0991  135.6579  153.4869 H   0  0  0  0  0  0  0  0  0  0  0  0  # atno 10764 bound_to 10752
  153.0407  135.5238  154.7501 H   0  0  0  0  0  0  0  0  0  0  0  0  # atno 10765 bound_to 10752
  141.1662  133.7258  156.8611 H   0  0  0  0  0  0  0  0  0  0  0  0  # atno 11005 bound_to 11000
  146.0246  140.8316  142.9906 LP  0  0  0  0  0  0  0  0  0  0  0  0  # atno 17320 bound_to 7965
  144.6827  140.2678  143.7310 LP  0  0  0  0  0  0  0  0  0  0  0  0  # atno 17321 bound_to 7965
  140.6072  143.2168  151.6957 LP  0  0  0  0  0  0  0  0  0  0  0  0  # atno 17342 bound_to 10162
  139.5059  144.3699  152.0480 LP  0  0  0  0  0  0  0  0  0  0  0  0  # atno 17343 bound_to 10162
  156.1909  130.3654  149.8912 LP  0  0  0  0  0  0  0  0  0  0  0  0  # atno 17370 bound_to 10713
  156.6840  130.8869  151.3579 LP  0  0  0  0  0  0  0  0  0  0  0  0  # atno 17371 bound_to 10713
  140.1847  134.9008  157.2990 LP  0  0  0  0  0  0  0  0  0  0  0  0  # atno 17394 bound_to 11000
  140.2356  134.3857  155.7503 LP  0  0  0  0  0  0  0  0  0  0  0  0  # atno 17395 bound_to 11000

$$$$
