AV-unprocessed.smi:1244|AV-procd|sdf|5233|dock10
  -GOLD-   22720 4333D 1   1.00000     0.00000
 Structure written by MMmdl.
 56 58  0  0  0  0  0  0  0  0  3 V2000
  148.2890  137.2194  155.9283 C   0  0  0  0  0  0  0  0  0  0  0  0
  148.1475  138.6511  155.4001 C   0  0  2  0  0  0  0  0  0  0  0  0
  148.5983  138.7733  153.9301 C   0  0  0  0  0  0  0  0  0  0  0  0
  148.5371  140.1794  153.4615 N   0  3  1  0  0  0  0  0  0  0  0  0
  147.1609  140.6402  153.1372 C   0  0  0  0  0  0  0  0  0  0  0  0
  146.5954  139.9533  151.8790 C   0  0  0  0  0  0  0  0  0  0  0  0
  145.6877  138.8645  152.2232 N   0  0  0  0  0  0  0  0  0  0  0  0
  145.7088  137.6461  151.6643 C   0  0  0  0  0  0  0  0  0  0  0  0
  146.5010  137.3187  150.7809 O   0  0  0  0  0  0  0  0  0  0  0  0
  144.7762  136.8428  152.2036 N   0  0  0  0  0  0  0  0  0  0  0  0
  144.5140  135.4767  151.8976 C   0  0  0  0  0  0  0  0  0  0  0  0
  144.9548  134.8978  150.6794 C   0  0  0  0  0  0  0  0  0  0  0  0
  144.6193  133.5660  150.3711 C   0  0  0  0  0  0  0  0  0  0  0  0
  143.8332  132.8356  151.2780 C   0  0  0  0  0  0  0  0  0  0  0  0
  143.4183  133.4173  152.4221 N   0  3  0  0  0  0  0  0  0  0  0  0
  143.7207  134.6898  152.7825 C   0  0  0  0  0  0  0  0  0  0  0  0
  143.2267  135.1617  154.0199 N   0  0  0  0  0  0  0  0  0  0  0  0
  144.1481  135.5643  155.0762 C   0  0  0  0  0  0  0  0  0  0  0  0
  143.2911  136.3379  156.0742 C   0  0  0  0  0  0  0  0  0  0  0  0
  142.2911  137.0472  155.1659 C   0  0  0  0  0  0  0  0  0  0  0  0
  142.0715  136.0543  154.0191 C   0  0  0  0  0  0  0  0  0  0  0  0
  149.2889  141.0658  154.3868 C   0  0  0  0  0  0  0  0  0  0  0  0
  148.8409  140.8747  155.8522 C   0  0  2  0  0  0  0  0  0  0  0  0
  149.6991  141.6900  156.8257 C   0  0  0  0  0  0  0  0  0  0  0  0
  148.9602  139.5003  156.2033 O   0  0  0  0  0  0  0  0  0  0  0  0
  147.6776  136.5253  155.3510 H   0  0  0  0  0  0  0  0  0  0  0  0
  147.9708  137.1548  156.9691 H   0  0  0  0  0  0  0  0  0  0  0  0
  149.3232  136.8785  155.8749 H   0  0  0  0  0  0  0  0  0  0  0  0
  147.1032  138.9517  155.4993 H   0  0  0  0  0  0  0  0  0  0  0  0
  149.6291  138.4285  153.8362 H   0  0  0  0  0  0  0  0  0  0  0  0
  148.0021  138.1278  153.2838 H   0  0  0  0  0  0  0  0  0  0  0  0
  146.4998  140.4027  153.9719 H   0  0  0  0  0  0  0  0  0  0  0  0
  147.1379  141.7249  153.0329 H   0  0  0  0  0  0  0  0  0  0  0  0
  146.0734  140.6615  151.2349 H   0  0  0  0  0  0  0  0  0  0  0  0
  147.4109  139.5390  151.2852 H   0  0  0  0  0  0  0  0  0  0  0  0
  145.0063  139.0495  152.9451 H   0  0  0  0  0  0  0  0  0  0  0  0
  144.2627  137.2190  152.9871 H   0  0  0  0  0  0  0  0  0  0  0  0
  145.5284  135.4636  149.9610 H   0  0  0  0  0  0  0  0  0  0  0  0
  144.9497  133.1167  149.4460 H   0  0  0  0  0  0  0  0  0  0  0  0
  143.5210  131.8128  151.1234 H   0  0  0  0  0  0  0  0  0  0  0  0
  144.6277  134.7007  155.5381 H   0  0  0  0  0  0  0  0  0  0  0  0
  144.9245  136.2191  154.6785 H   0  0  0  0  0  0  0  0  0  0  0  0
  142.7678  135.6452  156.7351 H   0  0  0  0  0  0  0  0  0  0  0  0
  143.8721  137.0241  156.6915 H   0  0  0  0  0  0  0  0  0  0  0  0
  141.3662  137.3152  155.6775 H   0  0  0  0  0  0  0  0  0  0  0  0
  142.7369  137.9639  154.7774 H   0  0  0  0  0  0  0  0  0  0  0  0
  141.9505  136.5707  153.0659 H   0  0  0  0  0  0  0  0  0  0  0  0
  141.1720  135.4662  154.2029 H   0  0  0  0  0  0  0  0  0  0  0  0
  150.3476  140.8174  154.2991 H   0  0  0  0  0  0  0  0  0  0  0  0
  149.1996  142.1102  154.0911 H   0  0  0  0  0  0  0  0  0  0  0  0
  147.8029  141.1864  155.9751 H   0  0  0  0  0  0  0  0  0  0  0  0
  149.6365  142.7561  156.6059 H   0  0  0  0  0  0  0  0  0  0  0  0
  150.7480  141.3975  156.7692 H   0  0  0  0  0  0  0  0  0  0  0  0
  149.3676  141.5437  157.8539 H   0  0  0  0  0  0  0  0  0  0  0  0
  149.0330  140.1955  152.5816 H   0  0  0  0  0  0  0  0  0  0  0  0
  142.8479  132.8612  153.0594 H   0  0  0  0  0  0  0  0  0  0  0  0
  1  2  1  0  0  0  0
  1 26  1  0  0  0  0
  1 27  1  0  0  0  0
  1 28  1  0  0  0  0
  2 25  1  0  0  0  0
  2  3  1  0  0  0  0
  2 29  1  0  0  0  0
  3  4  1  0  0  0  0
  3 30  1  0  0  0  0
  3 31  1  0  0  0  0
  4  5  1  0  0  0  0
  4 22  1  0  0  0  0
  4 55  1  0  0  0  0
  5  6  1  0  0  0  0
  5 32  1  0  0  0  0
  5 33  1  0  0  0  0
  6  7  1  0  0  0  0
  6 34  1  0  0  0  0
  6 35  1  0  0  0  0
  7  8  1  0  0  0  0
  7 36  1  0  0  0  0
  8  9  2  0  0  0  0
  8 10  1  0  0  0  0
 10 11  1  0  0  0  0
 10 37  1  0  0  0  0
 11 16  1  0  0  0  0
 11 12  2  0  0  0  0
 12 13  1  0  0  0  0
 12 38  1  0  0  0  0
 13 14  2  0  0  0  0
 13 39  1  0  0  0  0
 14 15  1  0  0  0  0
 14 40  1  0  0  0  0
 15 16  2  0  0  0  0
 15 56  1  0  0  0  0
 16 17  1  0  0  0  0
 17 21  1  0  0  0  0
 17 18  1  0  0  0  0
 18 19  1  0  0  0  0
 18 41  1  0  0  0  0
 18 42  1  0  0  0  0
 19 20  1  0  0  0  0
 19 43  1  0  0  0  0
 19 44  1  0  0  0  0
 20 21  1  0  0  0  0
 20 45  1  0  0  0  0
 20 46  1  0  0  0  0
 21 47  1  0  0  0  0
 21 48  1  0  0  0  0
 22 23  1  0  0  0  0
 22 49  1  0  0  0  0
 22 50  1  0  0  0  0
 23 24  1  0  0  0  0
 23 25  1  0  0  0  0
 23 51  1  0  0  0  0
 24 52  1  0  0  0  0
 24 53  1  0  0  0  0
 24 54  1  0  0  0  0
M  CHG  1   4   1
M  CHG  1  15   1
M  END
> <s_m_source_file>
AV-unprocessed.smi

> <i_m_source_file_index>
1244

> <i_lp_mmshare_version>
43012

> <i_f3d_flags>
0

> <s_epik_input>
W0NIM11bQ0BASF0xW0NIMl1OKFtDSDJdW0NASF0oTzEpW0NIM10pW0NIMl1bQ0gyXVtOSF1DKD1PKVtOSF1jMltjSF1bY0hdW2NIXW5jMk4zW0NIMl1bQ0gyXVtDSDJdW0NIMl0z

> <s_epik_cmdline>
J2VwaWtfcHl0aG9uJywgJy1waCcsICc3LjAnLCAnLXRuJywgJzgnLCAnLW1hJywgJzIwMCcsICctbWV0YWxfYmluZGluZycsICctaW1hZScsICc8aW5maWxlLm1hZT4nLCAnLW9tYWUnLCAnPG91dGZpbGUubWFlPic=

> <r_lp_tautomer_probability>
0.999994

> <r_epik_Ionization_Penalty>
1.81601

> <r_epik_Ionization_Penalty_Charging>
1.81599

> <r_epik_Ionization_Penalty_Neutral>
2.01972e-05

> <r_epik_State_Penalty>
1.85672

> <r_epik_Charging_Adjusted_Penalty>
3.6727

> <i_epik_Tot_Q>
2

> <i_epik_Tot_abs_Q>
2

> <r_epik_Metal_State_Penalty>
1.93796

> <b_epik_Metal_Only>
0

> <s_lp_Force_Field>
OPLS_2005

> <r_lp_Energy>
53.9706

> <b_lp_Chiralities_Consistent>
1

> <s_lp_Variant>
AV-unprocessed.smi:1244-13

> <Gold.Version>
5.8.1

> <Gold.Id.Protein>
6NUR|6NUR_protein|mol2

> <Gold.PLP.Fitness>
43.4117

> <Gold.PLP.PLP>
-31.6743

> <Gold.PLP.part.hbond>
-5.7722

> <Gold.PLP.part.metal>
0.0000

> <Gold.PLP.part.buried>
-0.6361

> <Gold.PLP.part.nonpolar>
-29.4188

> <Gold.PLP.part.repulsive>
2.7379

> <Gold.PLP.ligand.clash>
0.0000

> <Gold.PLP.ligand.torsion>
0.7627

> <Gold.PLP.Chemscore.Hbond>
4.2880

> <Gold.PLP.Chemscore.CHOScore>
0.0000

> <Gold.PLP.Chemscore.Metal>
0.0000

> <Gold.Chemscore.Hbonds>
donor molecule, donor type, donor heavy atom, donor atom, acceptor molecule, acceptor atom, score
      L1  H     4    55       P1  7957  1.00
      L1  H     7    36       P1 10175  0.27
      L1  H    15    56       P1 10957  1.98
      P1  H  7954  7966       L1     9  1.00

> <Gold.PLP.Chemscore.Internal.Correction>
0.3988

> <Gold.Rescore>
     Score         DG    S(hbond)    S(metal)    S(lipo)     H(rot)  DE(clash)    DE(int)     intcor
     15.12     -19.75       2.97        0.00      72.90       1.63       2.63       2.01       ----

> <Gold.Chemscore.Fitness>
15.1202

> <Gold.Chemscore.DG>
-19.7507

> <Gold.Chemscore.ZeroCoef>
-5.4800

> <Gold.Chemscore.Hbond>
2.9678

> <Gold.Chemscore.Metal>
0.0000

> <Gold.Chemscore.Lipo>
72.8993

> <Gold.Chemscore.Internal_Hbond>
0.0000

> <Gold.Chemscore.DEClash>
2.6252

> <Gold.Chemscore.DEInternal>
2.0052

> <Gold.Chemscore.Rot>
1.6293

> <Gold.Chemscore.Internal.Correction>
   9.000000E+99

> <Gold.Chemscore.Hbonds>
donor molecule, donor type, donor heavy atom, donor atom, acceptor molecule, acceptor atom, score
      L1  H     4    55       P1  7957  0.94
      L1  H     7    36       P1 10175  0.27
      L1  H    15    56       P1 10957  0.35
      P1  H  7954  7966       L1     9  0.96

> <Gold.Chemscore.Hbond.Weighted>
-9.9123

> <Gold.Chemscore.Metal.Weighted>
-0.0000

> <Gold.Chemscore.Lipo.Weighted>
-8.5292

> <Gold.Chemscore.Internal_Hbond.Weighted>
0.0000

> <Gold.Chemscore.DEClash.Weighted>
2.6252

> <Gold.Chemscore.DEInternal.Weighted>
2.0052

> <Gold.Chemscore.Rot.Weighted>
4.1709

> <Gold.Chemscore.Internal.Correction.Weighted>
   9.000000E+99

> <Gold.Protein.RotatedTorsions>
[ 6907 6896 6895 6894 ] final  122.32 input  -60.11 | X-H torsion
[ 7974 7965 7964 7962 ] final  147.36 input  175.53 | X-H torsion
[ 8008 7997 7996 7995 ] final  -43.18 input   59.86 | X-H torsion
[ 10167 10162 10161 10158 ] final   45.81 input  -65.29 | X-H torsion
[ 10718 10713 10712 10709 ] final  -47.44 input   66.30 | X-H torsion
[ 10763 10752 10751 10750 ] final -123.06 input  -60.55 | X-H torsion
[ 11005 11000 10999 10996 ] final   -6.09 input  -57.11 | X-H torsion

> <Gold.Protein.ActiveResidues>
 VAL166  LYS551  ARG553  GLY616  TRP617  ASP618  TYR619  PRO620  LYS621  CYS622 
 ASP623  PHE694  ASN695  SER759  ASP760  ASP761  ALA762  ILE779  LEU786  VAL792 
 PHE793  MET794  SER795  GLU796  ALA797  LYS798  CYS799  TRP800  GLU811  SER814 

> <Gold.Protein.RotatedAtoms>
  152.4252  133.7183  159.6518 H   0  0  0  0  0  0  0  0  0  0  0  0  # atno 6907 bound_to 6896
  150.8128  133.8380  159.3180 H   0  0  0  0  0  0  0  0  0  0  0  0  # atno 6908 bound_to 6896
  151.6085  135.1044  160.0127 H   0  0  0  0  0  0  0  0  0  0  0  0  # atno 6909 bound_to 6896
  144.8597  139.6020  143.5936 H   0  0  0  0  0  0  0  0  0  0  0  0  # atno 7974 bound_to 7965
  154.3997  140.1454  156.3477 H   0  0  0  0  0  0  0  0  0  0  0  0  # atno 8008 bound_to 7997
  155.8298  140.3466  155.5544 H   0  0  0  0  0  0  0  0  0  0  0  0  # atno 8009 bound_to 7997
  155.8200  140.0896  157.1845 H   0  0  0  0  0  0  0  0  0  0  0  0  # atno 8010 bound_to 7997
  140.3203  144.2713  150.6184 H   0  0  0  0  0  0  0  0  0  0  0  0  # atno 10167 bound_to 10162
  156.2084  130.4159  149.9147 H   0  0  0  0  0  0  0  0  0  0  0  0  # atno 10718 bound_to 10713
  154.8701  135.4111  154.2883 H   0  0  0  0  0  0  0  0  0  0  0  0  # atno 10763 bound_to 10752
  153.3763  135.7009  153.6604 H   0  0  0  0  0  0  0  0  0  0  0  0  # atno 10764 bound_to 10752
  153.5445  135.3641  155.2704 H   0  0  0  0  0  0  0  0  0  0  0  0  # atno 10765 bound_to 10752
  140.6982  133.9012  155.8665 H   0  0  0  0  0  0  0  0  0  0  0  0  # atno 11005 bound_to 11000
  146.2851  139.6982  142.9201 LP  0  0  0  0  0  0  0  0  0  0  0  0  # atno 17320 bound_to 7965
  145.4336  141.0417  143.2897 LP  0  0  0  0  0  0  0  0  0  0  0  0  # atno 17321 bound_to 7965
  140.5489  143.2210  151.7960 LP  0  0  0  0  0  0  0  0  0  0  0  0  # atno 17342 bound_to 10162
  139.4875  144.4502  151.9663 LP  0  0  0  0  0  0  0  0  0  0  0  0  # atno 17343 bound_to 10162
  156.6834  130.8867  151.3579 LP  0  0  0  0  0  0  0  0  0  0  0  0  # atno 17370 bound_to 10713
  157.7025  130.9348  150.0828 LP  0  0  0  0  0  0  0  0  0  0  0  0  # atno 17371 bound_to 10713
  141.0185  134.0921  157.4146 LP  0  0  0  0  0  0  0  0  0  0  0  0  # atno 17394 bound_to 11000
  139.8904  135.0112  156.6734 LP  0  0  0  0  0  0  0  0  0  0  0  0  # atno 17395 bound_to 11000

$$$$
