AV-unprocessed.smi:1774|AV-procd|sdf|7170|dock7
  -GOLD-   22720 8413D 1   1.00000     0.00000
 Structure written by MMmdl.
 46 47  0  0  0  0  0  0  0  0  2 V2000
  147.9180  133.1440  152.3733 C   0  0  0  0  0  0  0  0  0  0  0  0
  146.5361  133.0756  151.7436 C   0  0  0  0  0  0  0  0  0  0  0  0
  145.9930  131.8178  151.4049 C   0  0  0  0  0  0  0  0  0  0  0  0
  144.7149  131.7565  150.8237 C   0  0  0  0  0  0  0  0  0  0  0  0
  144.0296  132.9636  150.6041 C   0  0  0  0  0  0  0  0  0  0  0  0
  144.5411  134.1699  150.9240 N   0  0  0  0  0  0  0  0  0  0  0  0
  145.7732  134.2465  151.4871 C   0  0  0  0  0  0  0  0  0  0  0  0
  146.3769  135.4847  151.8461 N   0  0  0  0  0  0  0  0  0  0  0  0
  145.8910  136.4504  152.6458 C   0  0  0  0  0  0  0  0  0  0  0  0
  144.8151  136.4102  153.2437 O   0  0  0  0  0  0  0  0  0  0  0  0
  146.7352  137.4897  152.7232 N   0  0  0  0  0  0  0  0  0  0  0  0
  146.5083  138.6864  153.5253 C   0  0  0  0  0  0  0  0  0  0  0  0
  147.7352  139.0306  154.3929 C   0  0  0  0  0  0  0  0  0  0  0  0
  148.7607  139.8055  153.6453 N   0  3  1  0  0  0  0  0  0  0  0  0
  148.9997  141.1600  154.2008 C   0  0  0  0  0  0  0  0  0  0  0  0
  149.8756  141.0998  155.4691 C   0  0  2  0  0  0  0  0  0  0  0  0
  150.2059  142.4962  156.0067 C   0  0  0  0  0  0  0  0  0  0  0  0
  151.1005  140.4477  155.1522 O   0  0  0  0  0  0  0  0  0  0  0  0
  150.9162  139.1041  154.7189 C   0  0  2  0  0  0  0  0  0  0  0  0
  152.2991  138.4888  154.4787 C   0  0  0  0  0  0  0  0  0  0  0  0
  150.0511  139.0980  153.4401 C   0  0  0  0  0  0  0  0  0  0  0  0
  148.3416  132.1488  152.5118 H   0  0  0  0  0  0  0  0  0  0  0  0
  147.8693  133.6259  153.3503 H   0  0  0  0  0  0  0  0  0  0  0  0
  148.5983  133.7127  151.7387 H   0  0  0  0  0  0  0  0  0  0  0  0
  146.5467  130.9084  151.5872 H   0  0  0  0  0  0  0  0  0  0  0  0
  144.2715  130.8095  150.5534 H   0  0  0  0  0  0  0  0  0  0  0  0
  143.0454  132.9620  150.1596 H   0  0  0  0  0  0  0  0  0  0  0  0
  147.2866  135.6524  151.4425 H   0  0  0  0  0  0  0  0  0  0  0  0
  147.5997  137.4437  152.2032 H   0  0  0  0  0  0  0  0  0  0  0  0
  146.2417  139.5085  152.8608 H   0  0  0  0  0  0  0  0  0  0  0  0
  145.6412  138.5089  154.1619 H   0  0  0  0  0  0  0  0  0  0  0  0
  147.3887  139.6255  155.2392 H   0  0  0  0  0  0  0  0  0  0  0  0
  148.1777  138.1303  154.8182 H   0  0  0  0  0  0  0  0  0  0  0  0
  149.5045  141.7559  153.4389 H   0  0  0  0  0  0  0  0  0  0  0  0
  148.0537  141.6635  154.4030 H   0  0  0  0  0  0  0  0  0  0  0  0
  149.3626  140.5425  156.2547 H   0  0  0  0  0  0  0  0  0  0  0  0
  149.2992  143.0384  156.2761 H   0  0  0  0  0  0  0  0  0  0  0  0
  150.7426  143.0885  155.2650 H   0  0  0  0  0  0  0  0  0  0  0  0
  150.8314  142.4324  156.8976 H   0  0  0  0  0  0  0  0  0  0  0  0
  150.4267  138.5359  155.5111 H   0  0  0  0  0  0  0  0  0  0  0  0
  152.2156  137.4519  154.1520 H   0  0  0  0  0  0  0  0  0  0  0  0
  152.8953  138.5018  155.3915 H   0  0  0  0  0  0  0  0  0  0  0  0
  152.8496  139.0376  153.7139 H   0  0  0  0  0  0  0  0  0  0  0  0
  149.8926  138.0794  153.0887 H   0  0  0  0  0  0  0  0  0  0  0  0
  150.5879  139.6105  152.6405 H   0  0  0  0  0  0  0  0  0  0  0  0
  148.3630  139.9504  152.7283 H   0  0  0  0  0  0  0  0  0  0  0  0
  1  2  1  0  0  0  0
  1 22  1  0  0  0  0
  1 23  1  0  0  0  0
  1 24  1  0  0  0  0
  2  7  1  0  0  0  0
  2  3  2  0  0  0  0
  3  4  1  0  0  0  0
  3 25  1  0  0  0  0
  4  5  2  0  0  0  0
  4 26  1  0  0  0  0
  5  6  1  0  0  0  0
  5 27  1  0  0  0  0
  6  7  2  0  0  0  0
  7  8  1  0  0  0  0
  8  9  1  0  0  0  0
  8 28  1  0  0  0  0
  9 10  2  0  0  0  0
  9 11  1  0  0  0  0
 11 12  1  0  0  0  0
 11 29  1  0  0  0  0
 12 13  1  0  0  0  0
 12 30  1  0  0  0  0
 12 31  1  0  0  0  0
 13 14  1  0  0  0  0
 13 32  1  0  0  0  0
 13 33  1  0  0  0  0
 14 21  1  0  0  0  0
 14 15  1  0  0  0  0
 14 46  1  0  0  0  0
 15 16  1  0  0  0  0
 15 34  1  0  0  0  0
 15 35  1  0  0  0  0
 16 17  1  0  0  0  0
 16 18  1  0  0  0  0
 16 36  1  0  0  0  0
 17 37  1  0  0  0  0
 17 38  1  0  0  0  0
 17 39  1  0  0  0  0
 18 19  1  0  0  0  0
 19 20  1  0  0  0  0
 19 21  1  0  0  0  0
 19 40  1  0  0  0  0
 20 41  1  0  0  0  0
 20 42  1  0  0  0  0
 20 43  1  0  0  0  0
 21 44  1  0  0  0  0
 21 45  1  0  0  0  0
M  CHG  1  14   1
M  END
> <s_m_source_file>
AV-unprocessed.smi

> <i_m_source_file_index>
1774

> <i_lp_mmshare_version>
43012

> <i_f3d_flags>
0

> <s_epik_input>
W0NIM11jMVtjSF1bY0hdW2NIXW5jMVtOSF1DKD1PKVtOSF1bQ0gyXVtDSDJdTjJbQ0gyXVtDQEBIXShbQ0gzXSlPW0NAQEhdKFtDSDNdKVtDSDJdMg==

> <s_epik_cmdline>
J2VwaWtfcHl0aG9uJywgJy1waCcsICc3LjAnLCAnLXRuJywgJzgnLCAnLW1hJywgJzIwMCcsICctbWV0YWxfYmluZGluZycsICctaW1hZScsICc8aW5maWxlLm1hZT4nLCAnLW9tYWUnLCAnPG91dGZpbGUubWFlPic=

> <r_epik_Ionization_Penalty>
0.602573

> <r_epik_Ionization_Penalty_Charging>
0.602531

> <r_epik_Ionization_Penalty_Neutral>
4.21996e-05

> <r_epik_State_Penalty>
0.617039

> <r_epik_Charging_Adjusted_Penalty>
1.21957

> <i_epik_Tot_Q>
1

> <i_epik_Tot_abs_Q>
1

> <r_epik_Metal_State_Penalty>
0.617042

> <b_epik_Metal_Only>
0

> <s_lp_Force_Field>
OPLS_2005

> <r_lp_Energy>
17.7689

> <b_lp_Chiralities_Consistent>
1

> <s_lp_Variant>
AV-unprocessed.smi:1774-7

> <Gold.Version>
5.8.1

> <Gold.Id.Protein>
6NUR|6NUR_protein|mol2

> <Gold.PLP.Fitness>
44.4586

> <Gold.PLP.PLP>
-34.9354

> <Gold.PLP.part.hbond>
-4.0000

> <Gold.PLP.part.metal>
0.0000

> <Gold.PLP.part.buried>
-0.6564

> <Gold.PLP.part.nonpolar>
-31.6403

> <Gold.PLP.part.repulsive>
0.5579

> <Gold.PLP.ligand.clash>
0.0000

> <Gold.PLP.ligand.torsion>
1.4228

> <Gold.PLP.Chemscore.Hbond>
3.1114

> <Gold.PLP.Chemscore.CHOScore>
1.0000

> <Gold.PLP.Chemscore.Metal>
0.0000

> <Gold.Chemscore.Hbonds>
donor molecule, donor type, donor heavy atom, donor atom, acceptor molecule, acceptor atom, score
      L1  H     8    28       P1  7948  0.88
      L1  H    11    29       P1  7948  0.80
      L1  H    14    46       P1  7957  0.38
      P1  H  7989  7998       L1    18  0.50
      L1  C     5    27       P1 10186  0.88

> <Gold.PLP.Chemscore.Internal.Correction>
0.0345

> <Gold.Rescore>
     Score         DG    S(hbond)    S(metal)    S(lipo)     H(rot)  DE(clash)    DE(int)     intcor
     19.53     -21.14       2.73        0.00      88.65       1.49       0.26       1.36       ----

> <Gold.Chemscore.Fitness>
19.5266

> <Gold.Chemscore.DG>
-21.1403

> <Gold.Chemscore.ZeroCoef>
-5.4800

> <Gold.Chemscore.Hbond>
2.7289

> <Gold.Chemscore.Metal>
0.0000

> <Gold.Chemscore.Lipo>
88.6495

> <Gold.Chemscore.Internal_Hbond>
0.0000

> <Gold.Chemscore.DEClash>
0.2581

> <Gold.Chemscore.DEInternal>
1.3556

> <Gold.Chemscore.Rot>
1.4946

> <Gold.Chemscore.Internal.Correction>
   9.000000E+99

> <Gold.Chemscore.Hbonds>
donor molecule, donor type, donor heavy atom, donor atom, acceptor molecule, acceptor atom, score
      L1  H     8    28       P1  7948  0.85
      L1  H    11    29       P1  7948  0.80
      L1  H    14    46       P1  7957  0.37
      P1  H  7989  7998       L1    18  0.02

> <Gold.Chemscore.Hbond.Weighted>
-9.1144

> <Gold.Chemscore.Metal.Weighted>
-0.0000

> <Gold.Chemscore.Lipo.Weighted>
-10.3720

> <Gold.Chemscore.Internal_Hbond.Weighted>
0.0000

> <Gold.Chemscore.DEClash.Weighted>
0.2581

> <Gold.Chemscore.DEInternal.Weighted>
1.3556

> <Gold.Chemscore.Rot.Weighted>
3.8261

> <Gold.Chemscore.Internal.Correction.Weighted>
   9.000000E+99

> <Gold.Protein.RotatedTorsions>
[ 6907 6896 6895 6894 ] final  -73.27 input  -60.11 | X-H torsion
[ 7974 7965 7964 7962 ] final   51.84 input  175.53 | X-H torsion
[ 8008 7997 7996 7995 ] final   41.57 input   59.86 | X-H torsion
[ 10167 10162 10161 10158 ] final  -60.18 input  -65.29 | X-H torsion
[ 10718 10713 10712 10709 ] final  143.03 input   66.30 | X-H torsion
[ 10763 10752 10751 10750 ] final  156.15 input  -60.55 | X-H torsion
[ 11005 11000 10999 10996 ] final  -69.82 input  -57.11 | X-H torsion

> <Gold.Protein.ActiveResidues>
 VAL166  LYS551  ARG553  GLY616  TRP617  ASP618  TYR619  PRO620  LYS621  CYS622 
 ASP623  PHE694  ASN695  SER759  ASP760  ASP761  ALA762  ILE779  LEU786  VAL792 
 PHE793  MET794  SER795  GLU796  ALA797  LYS798  CYS799  TRP800  GLU811  SER814 

> <Gold.Protein.RotatedAtoms>
  150.7136  134.5040  159.5575 H   0  0  0  0  0  0  0  0  0  0  0  0  # atno 6907 bound_to 6896
  152.2631  134.8009  160.0436 H   0  0  0  0  0  0  0  0  0  0  0  0  # atno 6908 bound_to 6896
  151.8716  133.3441  159.3773 H   0  0  0  0  0  0  0  0  0  0  0  0  # atno 6909 bound_to 6896
  145.9873  139.4303  143.0095 H   0  0  0  0  0  0  0  0  0  0  0  0  # atno 7974 bound_to 7965
  155.2718  140.3366  155.4264 H   0  0  0  0  0  0  0  0  0  0  0  0  # atno 8008 bound_to 7997
  156.2129  140.1777  156.7696 H   0  0  0  0  0  0  0  0  0  0  0  0  # atno 8009 bound_to 7997
  154.5712  140.0670  156.8951 H   0  0  0  0  0  0  0  0  0  0  0  0  # atno 8010 bound_to 7997
  140.6088  143.2381  151.5758 H   0  0  0  0  0  0  0  0  0  0  0  0  # atno 10167 bound_to 10162
  157.3737  131.0982  151.0804 H   0  0  0  0  0  0  0  0  0  0  0  0  # atno 10718 bound_to 10713
  154.1798  135.2800  155.3055 H   0  0  0  0  0  0  0  0  0  0  0  0  # atno 10763 bound_to 10752
  154.6011  135.5529  153.7379 H   0  0  0  0  0  0  0  0  0  0  0  0  # atno 10764 bound_to 10752
  153.0141  135.6392  154.1937 H   0  0  0  0  0  0  0  0  0  0  0  0  # atno 10765 bound_to 10752
  141.1562  133.6774  156.6658 H   0  0  0  0  0  0  0  0  0  0  0  0  # atno 11005 bound_to 11000
  145.7682  140.9907  143.1164 LP  0  0  0  0  0  0  0  0  0  0  0  0  # atno 17320 bound_to 7965
  144.6878  139.9414  143.7475 LP  0  0  0  0  0  0  0  0  0  0  0  0  # atno 17321 bound_to 7965
  139.5345  144.2820  152.1221 LP  0  0  0  0  0  0  0  0  0  0  0  0  # atno 17342 bound_to 10162
  140.2015  144.4653  150.6429 LP  0  0  0  0  0  0  0  0  0  0  0  0  # atno 17343 bound_to 10162
  157.1898  130.6347  149.5700 LP  0  0  0  0  0  0  0  0  0  0  0  0  # atno 17370 bound_to 10713
  155.9761  130.4726  150.6504 LP  0  0  0  0  0  0  0  0  0  0  0  0  # atno 17371 bound_to 10713
  140.3213  134.8006  157.4254 LP  0  0  0  0  0  0  0  0  0  0  0  0  # atno 17394 bound_to 11000
  140.1095  134.5365  155.8279 LP  0  0  0  0  0  0  0  0  0  0  0  0  # atno 17395 bound_to 11000

$$$$
