AV-unprocessed.smi:34|AV-procd|sdf|237|dock7
  -GOLD-   2262015583D 1   1.00000     0.00000
 Structure written by MMmdl.
 54 58  0  0  0  0  0  0  0  0  2 V2000
  146.7538  133.6893  153.5896 O   0  0  0  0  0  0  0  0  0  0  0  0
  145.8438  134.2048  152.9365 C   0  0  0  0  0  0  0  0  0  0  0  0
  145.2458  135.4051  153.1442 N   0  5  0  0  0  0  0  0  0  0  0  0
  145.8772  136.3542  153.8514 C   0  0  0  0  0  0  0  0  0  0  0  0
  146.1316  136.1711  155.1723 N   0  0  0  0  0  0  0  0  0  0  0  0
  146.7698  137.1143  155.8748 C   0  0  0  0  0  0  0  0  0  0  0  0
  147.2401  138.2951  155.4620 N   0  0  0  0  0  0  0  0  0  0  0  0
  146.9971  138.4882  154.1331 C   0  0  0  0  0  0  0  0  0  0  0  0
  146.3304  137.5703  153.2705 C   0  0  0  0  0  0  0  0  0  0  0  0
  146.2547  138.0737  151.9800 N   0  0  0  0  0  0  0  0  0  0  0  0
  146.8654  139.2489  152.1139 C   0  0  0  0  0  0  0  0  0  0  0  0
  147.3272  139.5736  153.3378 N   0  0  0  0  0  0  0  0  0  0  0  0
  148.0480  140.8186  153.7360 C   0  0  2  0  0  0  0  0  0  0  0  0
  149.3049  140.4498  154.2100 O   0  0  0  0  0  0  0  0  0  0  0  0
  149.6730  141.3514  155.2402 C   0  0  2  0  0  0  0  0  0  0  0  0
  150.8054  140.7709  156.0965 C   0  0  0  0  0  0  0  0  0  0  0  0
  151.1867  141.7223  157.0769 O   0  0  0  0  0  0  0  0  0  0  0  0
  152.1048  141.4005  158.0090 C   0  0  0  0  0  0  0  0  0  0  0  0
  152.8247  140.4020  157.9414 O   0  0  0  0  0  0  0  0  0  0  0  0
  152.1550  142.3775  159.1348 C   0  0  0  0  0  0  0  0  0  0  0  0
  152.7060  141.9786  160.3748 C   0  0  0  0  0  0  0  0  0  0  0  0
  152.7646  142.8783  161.4568 C   0  0  0  0  0  0  0  0  0  0  0  0
  152.2730  144.1887  161.3119 C   0  0  0  0  0  0  0  0  0  0  0  0
  151.7228  144.5983  160.0834 C   0  0  0  0  0  0  0  0  0  0  0  0
  151.6632  143.6996  159.0002 C   0  0  0  0  0  0  0  0  0  0  0  0
  148.3580  141.6042  155.9815 C   0  0  2  0  0  0  0  0  0  0  0  0
  148.1154  140.6391  156.8699 F   0  0  0  0  0  0  0  0  0  0  0  0
  147.3116  141.5508  154.8740 C   0  0  1  0  0  0  0  0  0  0  0  0
  146.9435  142.8639  154.5032 O   0  0  0  0  0  0  0  0  0  0  0  0
  145.3353  133.4914  151.7122 C   0  0  0  0  0  0  0  0  0  0  0  0
  146.2363  132.7676  150.8983 C   0  0  0  0  0  0  0  0  0  0  0  0
  145.7762  132.0723  149.7630 C   0  0  0  0  0  0  0  0  0  0  0  0
  144.4077  132.0852  149.4345 C   0  0  0  0  0  0  0  0  0  0  0  0
  143.4987  132.7904  150.2453 C   0  0  0  0  0  0  0  0  0  0  0  0
  143.9580  133.4859  151.3809 C   0  0  0  0  0  0  0  0  0  0  0  0
  146.9277  136.8898  156.9191 H   0  0  0  0  0  0  0  0  0  0  0  0
  146.9835  139.9137  151.2709 H   0  0  0  0  0  0  0  0  0  0  0  0
  148.1390  141.4061  152.8208 H   0  0  0  0  0  0  0  0  0  0  0  0
  150.0058  142.2763  154.7652 H   0  0  0  0  0  0  0  0  0  0  0  0
  150.4878  139.8394  156.5675 H   0  0  0  0  0  0  0  0  0  0  0  0
  151.6664  140.5400  155.4680 H   0  0  0  0  0  0  0  0  0  0  0  0
  153.0880  140.9767  160.5101 H   0  0  0  0  0  0  0  0  0  0  0  0
  153.1871  142.5620  162.3992 H   0  0  0  0  0  0  0  0  0  0  0  0
  152.3176  144.8784  162.1419 H   0  0  0  0  0  0  0  0  0  0  0  0
  151.3458  145.6041  159.9705 H   0  0  0  0  0  0  0  0  0  0  0  0
  151.2355  144.0470  158.0711 H   0  0  0  0  0  0  0  0  0  0  0  0
  148.3629  142.5427  156.5376 H   0  0  0  0  0  0  0  0  0  0  0  0
  146.4198  141.0054  155.1872 H   0  0  0  0  0  0  0  0  0  0  0  0
  147.6491  143.4490  154.7343 H   0  0  0  0  0  0  0  0  0  0  0  0
  147.2898  132.7461  151.1375 H   0  0  0  0  0  0  0  0  0  0  0  0
  146.4746  131.5275  149.1453 H   0  0  0  0  0  0  0  0  0  0  0  0
  144.0547  131.5516  148.5646 H   0  0  0  0  0  0  0  0  0  0  0  0
  142.4471  132.7958  149.9995 H   0  0  0  0  0  0  0  0  0  0  0  0
  143.2420  134.0111  151.9964 H   0  0  0  0  0  0  0  0  0  0  0  0
  1  2  2  0  0  0  0
  2  3  1  0  0  0  0
  2 30  1  0  0  0  0
  3  4  1  0  0  0  0
  4  9  1  0  0  0  0
  4  5  2  0  0  0  0
  5  6  1  0  0  0  0
  6  7  2  0  0  0  0
  6 36  1  0  0  0  0
  7  8  1  0  0  0  0
  8 12  1  0  0  0  0
  8  9  2  0  0  0  0
  9 10  1  0  0  0  0
 10 11  2  0  0  0  0
 11 12  1  0  0  0  0
 11 37  1  0  0  0  0
 12 13  1  0  0  0  0
 13 28  1  0  0  0  0
 13 14  1  0  0  0  0
 13 38  1  0  0  0  0
 14 15  1  0  0  0  0
 15 16  1  0  0  0  0
 15 26  1  0  0  0  0
 15 39  1  0  0  0  0
 16 17  1  0  0  0  0
 16 40  1  0  0  0  0
 16 41  1  0  0  0  0
 17 18  1  0  0  0  0
 18 19  2  0  0  0  0
 18 20  1  0  0  0  0
 20 25  1  0  0  0  0
 20 21  2  0  0  0  0
 21 22  1  0  0  0  0
 21 42  1  0  0  0  0
 22 23  2  0  0  0  0
 22 43  1  0  0  0  0
 23 24  1  0  0  0  0
 23 44  1  0  0  0  0
 24 25  2  0  0  0  0
 24 45  1  0  0  0  0
 25 46  1  0  0  0  0
 26 27  1  0  0  0  0
 26 28  1  0  0  0  0
 26 47  1  0  0  0  0
 28 29  1  0  0  0  0
 28 48  1  0  0  0  0
 29 49  1  0  0  0  0
 30 35  1  0  0  0  0
 30 31  2  0  0  0  0
 31 32  1  0  0  0  0
 31 50  1  0  0  0  0
 32 33  2  0  0  0  0
 32 51  1  0  0  0  0
 33 34  1  0  0  0  0
 33 52  1  0  0  0  0
 34 35  2  0  0  0  0
 34 53  1  0  0  0  0
 35 54  1  0  0  0  0
M  CHG  1   3  -1
M  END
> <s_m_source_file>
AV-unprocessed.smi

> <i_m_source_file_index>
34

> <i_lp_mmshare_version>
43012

> <i_f3d_flags>
0

> <s_epik_input>
W2NIXTFbY0hdW2NIXVtjSF1bY0hdYzFDKD1PKVtOSF1jKG5bY0hdbjIpYyhjMjMpbltjSF1uM1tDQEBIXTRPW0NASF0oW0NAQEhdKEYpW0NASF00W09IXSlbQ0gyXU9DKD1PKWM1W2NIXVtjSF1bY0hdW2NIXVtjSF01

> <s_epik_cmdline>
J2VwaWtfcHl0aG9uJywgJy1waCcsICc3LjAnLCAnLXRuJywgJzgnLCAnLW1hJywgJzIwMCcsICctbWV0YWxfYmluZGluZycsICctaW1hZScsICc8aW5maWxlLm1hZT4nLCAnLW9tYWUnLCAnPG91dGZpbGUubWFlPic=

> <r_lp_tautomer_probability>
1

> <r_epik_Ionization_Penalty>
4.33227

> <r_epik_Ionization_Penalty_Charging>
3.41027

> <r_epik_Ionization_Penalty_Neutral>
0.922001

> <r_epik_State_Penalty>
3.41358

> <r_epik_Charging_Adjusted_Penalty>
6.82385

> <i_epik_Tot_Q>
-1

> <i_epik_Tot_abs_Q>
1

> <r_epik_Metal_State_Penalty>
0.496292

> <b_epik_Metal_Only>
1

> <s_epik_Chemistry_Notes>
This compound has an ester and may undergo hydrolysis at high or low pH. This compound contains an acetal/aminal-like group ( X-CH(R)-Y where X, Y are N, S, or O) that may be acid/base labile, releasing an aldehyde.

> <s_lp_Force_Field>
OPLS_2005

> <r_lp_Energy>
44.3344

> <b_lp_Chiralities_Consistent>
1

> <s_lp_Variant>
AV-unprocessed.smi:34-23

> <Gold.Version>
5.8.1

> <Gold.Id.Protein>
6NUR|6NUR_protein|mol2

> <Gold.PLP.Fitness>
64.2773

> <Gold.PLP.PLP>
-60.5447

> <Gold.PLP.part.hbond>
-2.3746

> <Gold.PLP.part.metal>
0.0000

> <Gold.PLP.part.buried>
-3.3719

> <Gold.PLP.part.nonpolar>
-56.0908

> <Gold.PLP.part.repulsive>
0.7210

> <Gold.PLP.ligand.clash>
0.0000

> <Gold.PLP.ligand.torsion>
1.6867

> <Gold.PLP.Chemscore.Hbond>
1.8723

> <Gold.PLP.Chemscore.CHOScore>
0.4077

> <Gold.PLP.Chemscore.Metal>
0.0000

> <Gold.Chemscore.Hbonds>
donor molecule, donor type, donor heavy atom, donor atom, acceptor molecule, acceptor atom, score
      L1  H    29    49       P1  8028  1.00
      P1  H  7997  8008       L1    19  0.88
      L1  C    11    37       P1  7957  0.37

> <Gold.PLP.Chemscore.Internal.Correction>
0.2661

> <Gold.Rescore>
     Score         DG    S(hbond)    S(metal)    S(lipo)     H(rot)  DE(clash)    DE(int)     intcor
     15.01     -20.07       1.25        0.00     148.10       2.69       1.15       3.91       ----

> <Gold.Chemscore.Fitness>
15.0094

> <Gold.Chemscore.DG>
-20.0723

> <Gold.Chemscore.ZeroCoef>
-5.4800

> <Gold.Chemscore.Hbond>
1.2460

> <Gold.Chemscore.Metal>
0.0000

> <Gold.Chemscore.Lipo>
148.1042

> <Gold.Chemscore.Internal_Hbond>
0.0000

> <Gold.Chemscore.DEClash>
1.1481

> <Gold.Chemscore.DEInternal>
3.9148

> <Gold.Chemscore.Rot>
2.6944

> <Gold.Chemscore.Internal.Correction>
   9.000000E+99

> <Gold.Chemscore.Hbonds>
donor molecule, donor type, donor heavy atom, donor atom, acceptor molecule, acceptor atom, score
      L1  H    29    49       P1  8028  0.39
      P1  H  7997  8008       L1    19  0.84

> <Gold.Chemscore.Hbond.Weighted>
-4.1617

> <Gold.Chemscore.Metal.Weighted>
-0.0000

> <Gold.Chemscore.Lipo.Weighted>
-17.3282

> <Gold.Chemscore.Internal_Hbond.Weighted>
0.0000

> <Gold.Chemscore.DEClash.Weighted>
1.1481

> <Gold.Chemscore.DEInternal.Weighted>
3.9148

> <Gold.Chemscore.Rot.Weighted>
6.8975

> <Gold.Chemscore.Internal.Correction.Weighted>
   9.000000E+99

> <Gold.Protein.RotatedTorsions>
[ 6907 6896 6895 6894 ] final  109.69 input  -60.11 | X-H torsion
[ 7974 7965 7964 7962 ] final  -24.29 input  175.53 | X-H torsion
[ 8008 7997 7996 7995 ] final  -78.77 input   59.86 | X-H torsion
[ 10167 10162 10161 10158 ] final  -18.96 input  -65.29 | X-H torsion
[ 10718 10713 10712 10709 ] final  144.57 input   66.30 | X-H torsion
[ 10763 10752 10751 10750 ] final -166.33 input  -60.55 | X-H torsion
[ 11005 11000 10999 10996 ] final   77.94 input  -57.11 | X-H torsion

> <Gold.Protein.ActiveResidues>
 VAL166  LYS551  ARG553  GLY616  TRP617  ASP618  TYR619  PRO620  LYS621  CYS622 
 ASP623  PHE694  ASN695  SER759  ASP760  ASP761  ALA762  ILE779  LEU786  VAL792 
 PHE793  MET794  SER795  GLU796  ALA797  LYS798  CYS799  TRP800  GLU811  SER814 

> <Gold.Protein.RotatedAtoms>
  152.5055  133.8908  159.7392 H   0  0  0  0  0  0  0  0  0  0  0  0  # atno 6907 bound_to 6896
  150.9348  133.6716  159.2810 H   0  0  0  0  0  0  0  0  0  0  0  0  # atno 6908 bound_to 6896
  151.4048  135.0981  159.9619 H   0  0  0  0  0  0  0  0  0  0  0  0  # atno 6909 bound_to 6896
  146.1564  140.4731  142.8590 H   0  0  0  0  0  0  0  0  0  0  0  0  # atno 7974 bound_to 7965
  154.5721  140.0689  156.8980 H   0  0  0  0  0  0  0  0  0  0  0  0  # atno 8008 bound_to 7997
  155.2615  140.3359  155.4254 H   0  0  0  0  0  0  0  0  0  0  0  0  # atno 8009 bound_to 7997
  156.2126  140.1765  156.7646 H   0  0  0  0  0  0  0  0  0  0  0  0  # atno 8010 bound_to 7997
  140.7264  143.4865  151.0048 H   0  0  0  0  0  0  0  0  0  0  0  0  # atno 10167 bound_to 10162
  157.3556  131.0957  151.0961 H   0  0  0  0  0  0  0  0  0  0  0  0  # atno 10718 bound_to 10713
  154.6843  135.2960  154.9569 H   0  0  0  0  0  0  0  0  0  0  0  0  # atno 10763 bound_to 10752
  154.0553  135.6639  153.4809 H   0  0  0  0  0  0  0  0  0  0  0  0  # atno 10764 bound_to 10752
  153.0568  135.5139  154.7903 H   0  0  0  0  0  0  0  0  0  0  0  0  # atno 10765 bound_to 10752
  139.9233  134.7723  156.1585 H   0  0  0  0  0  0  0  0  0  0  0  0  # atno 11005 bound_to 11000
  144.7969  140.6139  143.6504 LP  0  0  0  0  0  0  0  0  0  0  0  0  # atno 17320 bound_to 7965
  145.4698  139.1504  143.3820 LP  0  0  0  0  0  0  0  0  0  0  0  0  # atno 17321 bound_to 7965
  139.8567  143.7367  152.3175 LP  0  0  0  0  0  0  0  0  0  0  0  0  # atno 17342 bound_to 10162
  139.7568  144.7518  151.0423 LP  0  0  0  0  0  0  0  0  0  0  0  0  # atno 17343 bound_to 10162
  157.2120  130.6442  149.5778 LP  0  0  0  0  0  0  0  0  0  0  0  0  # atno 17370 bound_to 10713
  155.9728  130.4657  150.6262 LP  0  0  0  0  0  0  0  0  0  0  0  0  # atno 17371 bound_to 10713
  141.0772  133.6770  156.2261 LP  0  0  0  0  0  0  0  0  0  0  0  0  # atno 17394 bound_to 11000
  140.6409  134.5167  157.5569 LP  0  0  0  0  0  0  0  0  0  0  0  0  # atno 17395 bound_to 11000

$$$$
