AV-unprocessed.smi:1230|AV-procd|sdf|5157|dock4
  -GOLD-   22720 4233D 1   1.00000     0.00000
 Structure written by MMmdl.
 39 40  0  0  0  0  0  0  0  0  1 V2000
  153.5462  141.1418  160.5215 C   0  0  0  0  0  0  0  0  0  0  0  0
  152.6122  142.2490  160.0083 C   0  0  1  0  0  0  0  0  0  0  0  0
  153.3970  143.4140  159.3715 C   0  0  0  0  0  0  0  0  0  0  0  0
  152.4575  144.5339  158.8961 C   0  0  0  0  0  0  0  0  0  0  0  0
  151.3871  143.9955  157.9345 C   0  0  0  0  0  0  0  0  0  0  0  0
  150.6031  142.8349  158.5686 C   0  0  0  0  0  0  0  0  0  0  0  0
  151.5412  141.7019  159.0379 C   0  0  1  0  0  0  0  0  0  0  0  0
  152.2038  141.1053  157.9273 O   0  0  0  0  0  0  0  0  0  0  0  0
  151.4255  140.1616  157.2083 C   0  0  0  0  0  0  0  0  0  0  0  0
  151.5784  140.4551  155.7085 C   0  0  0  0  0  0  0  0  0  0  0  0
  150.3612  140.2401  154.9667 N   0  0  0  0  0  0  0  0  0  0  0  0
  149.3922  141.2221  154.8266 C   0  0  0  0  0  0  0  0  0  0  0  0
  148.2403  141.0223  154.1430 C   0  0  0  0  0  0  0  0  0  0  0  0
  147.2527  142.0415  154.0067 C   0  0  0  0  0  0  0  0  0  0  0  0
  146.4686  142.8846  153.8876 N   0  0  0  0  0  0  0  0  0  0  0  0
  147.9598  139.7339  153.5116 C   0  0  0  0  0  0  0  0  0  0  0  0
  146.9487  139.4546  152.8697 O   0  0  0  0  0  0  0  0  0  0  0  0
  148.9625  138.7749  153.6887 N   0  0  0  0  0  0  0  0  0  0  0  0
  150.1540  138.9638  154.3918 C   0  0  0  0  0  0  0  0  0  0  0  0
  150.9622  138.0401  154.4884 O   0  0  0  0  0  0  0  0  0  0  0  0
  148.8111  137.8665  153.2744 H   0  0  0  0  0  0  0  0  0  0  0  0
  154.1293  140.7027  159.7115 H   0  0  0  0  0  0  0  0  0  0  0  0
  152.9802  140.3400  160.9962 H   0  0  0  0  0  0  0  0  0  0  0  0
  154.2472  141.5318  161.2596 H   0  0  0  0  0  0  0  0  0  0  0  0
  152.0887  142.6476  160.8787 H   0  0  0  0  0  0  0  0  0  0  0  0
  154.1108  143.8189  160.0896 H   0  0  0  0  0  0  0  0  0  0  0  0
  153.9845  143.0487  158.5280 H   0  0  0  0  0  0  0  0  0  0  0  0
  151.9740  144.9946  159.7587 H   0  0  0  0  0  0  0  0  0  0  0  0
  153.0334  145.3208  158.4085 H   0  0  0  0  0  0  0  0  0  0  0  0
  150.7024  144.7966  157.6550 H   0  0  0  0  0  0  0  0  0  0  0  0
  151.8600  143.6582  157.0113 H   0  0  0  0  0  0  0  0  0  0  0  0
  150.0418  143.2104  159.4252 H   0  0  0  0  0  0  0  0  0  0  0  0
  149.8581  142.4616  157.8670 H   0  0  0  0  0  0  0  0  0  0  0  0
  150.9576  140.9456  159.5660 H   0  0  0  0  0  0  0  0  0  0  0  0
  151.7650  139.1506  157.4373 H   0  0  0  0  0  0  0  0  0  0  0  0
  150.3754  140.2289  157.4926 H   0  0  0  0  0  0  0  0  0  0  0  0
  151.8540  141.4985  155.5477 H   0  0  0  0  0  0  0  0  0  0  0  0
  152.3629  139.8556  155.2413 H   0  0  0  0  0  0  0  0  0  0  0  0
  149.5567  142.1891  155.2813 H   0  0  0  0  0  0  0  0  0  0  0  0
  1  2  1  0  0  0  0
  1 22  1  0  0  0  0
  1 23  1  0  0  0  0
  1 24  1  0  0  0  0
  2  7  1  0  0  0  0
  2  3  1  0  0  0  0
  2 25  1  0  0  0  0
  3  4  1  0  0  0  0
  3 26  1  0  0  0  0
  3 27  1  0  0  0  0
  4  5  1  0  0  0  0
  4 28  1  0  0  0  0
  4 29  1  0  0  0  0
  5  6  1  0  0  0  0
  5 30  1  0  0  0  0
  5 31  1  0  0  0  0
  6  7  1  0  0  0  0
  6 32  1  0  0  0  0
  6 33  1  0  0  0  0
  7  8  1  0  0  0  0
  7 34  1  0  0  0  0
  8  9  1  0  0  0  0
  9 10  1  0  0  0  0
  9 35  1  0  0  0  0
  9 36  1  0  0  0  0
 10 11  1  0  0  0  0
 10 37  1  0  0  0  0
 10 38  1  0  0  0  0
 11 19  1  0  0  0  0
 11 12  1  0  0  0  0
 12 13  2  0  0  0  0
 12 39  1  0  0  0  0
 13 14  1  0  0  0  0
 13 16  1  0  0  0  0
 14 15  3  0  0  0  0
 16 17  2  0  0  0  0
 16 18  1  0  0  0  0
 18 21  1  0  0  0  0
 18 19  1  0  0  0  0
 19 20  2  0  0  0  0
M  END
> <s_m_source_file>
AV-unprocessed.smi

> <i_m_source_file_index>
1230

> <i_lp_mmshare_version>
43012

> <i_f3d_flags>
0

> <s_epik_input>
W0NIM11bQ0BASF0xW0NIMl1bQ0gyXVtDSDJdW0NIMl1bQ0BIXTFPW0NIMl1bQ0gyXW4yW2NIXWMoQyNOKWMoPU8pW25IXWMyPU8=

> <s_epik_cmdline>
J2VwaWtfcHl0aG9uJywgJy1waCcsICc3LjAnLCAnLXRuJywgJzgnLCAnLW1hJywgJzIwMCcsICctbWV0YWxfYmluZGluZycsICctaW1hZScsICc8aW5maWxlLm1hZT4nLCAnLW9tYWUnLCAnPG91dGZpbGUubWFlPic=

> <r_epik_Ionization_Penalty>
0.421541

> <r_epik_Ionization_Penalty_Charging>
0.421541

> <r_epik_Ionization_Penalty_Neutral>
2.29267e-11

> <r_epik_State_Penalty>
0.422277

> <r_epik_Charging_Adjusted_Penalty>
0.843818

> <i_epik_Tot_Q>
0

> <i_epik_Tot_abs_Q>
0

> <r_epik_Metal_State_Penalty>
4.11629

> <b_epik_Metal_Only>
0

> <s_lp_Force_Field>
OPLS_2005

> <r_lp_Energy>
14.8101

> <b_lp_Chiralities_Consistent>
1

> <s_lp_Variant>
AV-unprocessed.smi:1230-6

> <Gold.Version>
5.8.1

> <Gold.Id.Protein>
6NUR|6NUR_protein|mol2

> <Gold.PLP.Fitness>
47.2446

> <Gold.PLP.PLP>
-45.0155

> <Gold.PLP.part.hbond>
-1.6697

> <Gold.PLP.part.metal>
0.0000

> <Gold.PLP.part.buried>
-2.0571

> <Gold.PLP.part.nonpolar>
-41.7688

> <Gold.PLP.part.repulsive>
0.7061

> <Gold.PLP.ligand.clash>
0.0000

> <Gold.PLP.ligand.torsion>
1.1478

> <Gold.PLP.Chemscore.Hbond>
0.6663

> <Gold.PLP.Chemscore.CHOScore>
0.8351

> <Gold.PLP.Chemscore.Metal>
0.0000

> <Gold.Chemscore.Hbonds>
donor molecule, donor type, donor heavy atom, donor atom, acceptor molecule, acceptor atom, score
      L1  H    18    21       P1  7948  0.71
      L1  C    12    39       P1  8028  0.72

> <Gold.PLP.Chemscore.Internal.Correction>
0.0206

> <Gold.Rescore>
     Score         DG    S(hbond)    S(metal)    S(lipo)     H(rot)  DE(clash)    DE(int)     intcor
     14.80     -15.79       0.99        0.00     102.25       1.94       0.03       0.95       ----

> <Gold.Chemscore.Fitness>
14.8034

> <Gold.Chemscore.DG>
-15.7860

> <Gold.Chemscore.ZeroCoef>
-5.4800

> <Gold.Chemscore.Hbond>
0.9896

> <Gold.Chemscore.Metal>
0.0000

> <Gold.Chemscore.Lipo>
102.2506

> <Gold.Chemscore.Internal_Hbond>
0.0000

> <Gold.Chemscore.DEClash>
0.0336

> <Gold.Chemscore.DEInternal>
0.9489

> <Gold.Chemscore.Rot>
1.9385

> <Gold.Chemscore.Internal.Correction>
   9.000000E+99

> <Gold.Chemscore.Hbonds>
donor molecule, donor type, donor heavy atom, donor atom, acceptor molecule, acceptor atom, score
      L1  H    18    21       P1  7948  0.70

> <Gold.Chemscore.Hbond.Weighted>
-3.3052

> <Gold.Chemscore.Metal.Weighted>
-0.0000

> <Gold.Chemscore.Lipo.Weighted>
-11.9633

> <Gold.Chemscore.Internal_Hbond.Weighted>
0.0000

> <Gold.Chemscore.DEClash.Weighted>
0.0336

> <Gold.Chemscore.DEInternal.Weighted>
0.9489

> <Gold.Chemscore.Rot.Weighted>
4.9625

> <Gold.Chemscore.Internal.Correction.Weighted>
   9.000000E+99

> <Gold.Protein.RotatedTorsions>
[ 6907 6896 6895 6894 ] final -159.89 input  -60.11 | X-H torsion
[ 7974 7965 7964 7962 ] final  -23.44 input  175.53 | X-H torsion
[ 8008 7997 7996 7995 ] final   83.75 input   59.86 | X-H torsion
[ 10167 10162 10161 10158 ] final  -30.13 input  -65.29 | X-H torsion
[ 10718 10713 10712 10709 ] final   60.00 input   66.30 | X-H torsion
[ 10763 10752 10751 10750 ] final   44.53 input  -60.55 | X-H torsion
[ 11005 11000 10999 10996 ] final -124.78 input  -57.11 | X-H torsion

> <Gold.Protein.ActiveResidues>
 VAL166  LYS551  ARG553  GLY616  TRP617  ASP618  TYR619  PRO620  LYS621  CYS622 
 ASP623  PHE694  ASN695  SER759  ASP760  ASP761  ALA762  ILE779  LEU786  VAL792 
 PHE793  MET794  SER795  GLU796  ALA797  LYS798  CYS799  TRP800  GLU811  SER814 

> <Gold.Protein.RotatedAtoms>
  151.3406  133.3964  159.2670 H   0  0  0  0  0  0  0  0  0  0  0  0  # atno 6907 bound_to 6896
  150.9881  134.9223  159.7894 H   0  0  0  0  0  0  0  0  0  0  0  0  # atno 6908 bound_to 6896
  152.5238  134.3371  159.9256 H   0  0  0  0  0  0  0  0  0  0  0  0  # atno 6909 bound_to 6896
  146.1616  140.4617  142.8569 H   0  0  0  0  0  0  0  0  0  0  0  0  # atno 7974 bound_to 7965
  155.9281  140.3417  155.6226 H   0  0  0  0  0  0  0  0  0  0  0  0  # atno 8008 bound_to 7997
  155.7192  140.0781  157.2357 H   0  0  0  0  0  0  0  0  0  0  0  0  # atno 8009 bound_to 7997
  154.4080  140.1608  156.2370 H   0  0  0  0  0  0  0  0  0  0  0  0  # atno 8010 bound_to 7997
  140.7253  143.3873  151.1492 H   0  0  0  0  0  0  0  0  0  0  0  0  # atno 10167 bound_to 10162
  157.5719  130.8914  149.9281 H   0  0  0  0  0  0  0  0  0  0  0  0  # atno 10718 bound_to 10713
  152.9839  135.6068  154.3288 H   0  0  0  0  0  0  0  0  0  0  0  0  # atno 10763 bound_to 10752
  154.2993  135.2773  155.2620 H   0  0  0  0  0  0  0  0  0  0  0  0  # atno 10764 bound_to 10752
  154.4880  135.5900  153.6494 H   0  0  0  0  0  0  0  0  0  0  0  0  # atno 10765 bound_to 10752
  140.9814  134.0668  157.3761 H   0  0  0  0  0  0  0  0  0  0  0  0  # atno 11005 bound_to 11000
  144.8034  140.6255  143.6463 LP  0  0  0  0  0  0  0  0  0  0  0  0  # atno 17320 bound_to 7965
  145.4574  139.1516  143.3885 LP  0  0  0  0  0  0  0  0  0  0  0  0  # atno 17321 bound_to 7965
  139.7472  143.8833  152.3067 LP  0  0  0  0  0  0  0  0  0  0  0  0  # atno 17342 bound_to 10162
  139.8675  144.7085  150.9027 LP  0  0  0  0  0  0  0  0  0  0  0  0  # atno 17343 bound_to 10162
  156.0764  130.3678  150.0669 LP  0  0  0  0  0  0  0  0  0  0  0  0  # atno 17370 bound_to 10713
  156.8820  130.9560  151.3598 LP  0  0  0  0  0  0  0  0  0  0  0  0  # atno 17371 bound_to 10713
  139.8952  135.0139  156.6988 LP  0  0  0  0  0  0  0  0  0  0  0  0  # atno 17394 bound_to 11000
  140.7181  133.9165  155.8128 LP  0  0  0  0  0  0  0  0  0  0  0  0  # atno 17395 bound_to 11000

$$$$
