AV-unprocessed.smi:1554|AV-procd|sdf|6243|dock5
  -GOLD-   22720 6423D 1   1.00000     0.00000
 Structure written by MMmdl.
 47 49  0  0  0  0  0  0  0  0  1 V2000
  152.2573  143.9212  160.8371 C   0  0  0  0  0  0  0  0  0  0  0  0
  152.8664  142.5312  160.7801 C   0  0  0  0  0  0  0  0  0  0  0  0
  152.7818  141.7926  159.5783 C   0  0  0  0  0  0  0  0  0  0  0  0
  153.3368  140.4975  159.4835 C   0  0  0  0  0  0  0  0  0  0  0  0
  153.3728  139.6108  158.4208 N   0  0  0  0  0  0  0  0  0  0  0  0
  154.0228  138.5804  158.9540 C   0  0  0  0  0  0  0  0  0  0  0  0
  154.4110  138.6935  160.2386 N   0  0  0  0  0  0  0  0  0  0  0  0
  155.1234  137.7022  161.0256 C   0  0  0  0  0  0  0  0  0  0  0  0
  154.2151  136.5473  161.4893 C   0  0  1  0  0  0  0  0  0  0  0  0
  153.9403  135.6986  160.3920 O   0  0  0  0  0  0  0  0  0  0  0  0
  154.8896  135.7100  162.5945 C   0  0  0  0  0  0  0  0  0  0  0  0
  154.1055  134.5827  163.1033 N   0  0  0  0  0  0  0  0  0  0  0  0
  154.3245  134.3359  164.5270 C   0  0  0  0  0  0  0  0  0  0  0  0
  153.5169  133.1273  165.0303 C   0  0  0  0  0  0  0  0  0  0  0  0
  153.8414  131.9778  164.2559 O   0  0  0  0  0  0  0  0  0  0  0  0
  153.5937  132.1572  162.8645 C   0  0  2  0  0  0  0  0  0  0  0  0
  153.9669  130.8614  162.1370 C   0  0  0  0  0  0  0  0  0  0  0  0
  154.4104  133.3635  162.3618 C   0  0  0  0  0  0  0  0  0  0  0  0
  153.9796  139.9550  160.6345 C   0  0  0  0  0  0  0  0  0  0  0  0
  154.0707  140.6806  161.8354 C   0  0  0  0  0  0  0  0  0  0  0  0
  153.5160  141.9752  161.9114 C   0  0  0  0  0  0  0  0  0  0  0  0
  153.6271  142.7527  163.2110 C   0  0  0  0  0  0  0  0  0  0  0  0
  151.7178  144.1569  159.9193 H   0  0  0  0  0  0  0  0  0  0  0  0
  153.0359  144.6722  160.9716 H   0  0  0  0  0  0  0  0  0  0  0  0
  151.5532  143.9991  161.6655 H   0  0  0  0  0  0  0  0  0  0  0  0
  152.2894  142.2168  158.7157 H   0  0  0  0  0  0  0  0  0  0  0  0
  154.2278  137.6900  158.3779 H   0  0  0  0  0  0  0  0  0  0  0  0
  155.9583  137.3218  160.4356 H   0  0  0  0  0  0  0  0  0  0  0  0
  155.5590  138.2056  161.8895 H   0  0  0  0  0  0  0  0  0  0  0  0
  153.2759  136.9711  161.8428 H   0  0  0  0  0  0  0  0  0  0  0  0
  154.5782  135.0009  160.3894 H   0  0  0  0  0  0  0  0  0  0  0  0
  155.8377  135.3391  162.2017 H   0  0  0  0  0  0  0  0  0  0  0  0
  155.1525  136.3634  163.4277 H   0  0  0  0  0  0  0  0  0  0  0  0
  155.3854  134.1635  164.7142 H   0  0  0  0  0  0  0  0  0  0  0  0
  154.0399  135.2070  165.1151 H   0  0  0  0  0  0  0  0  0  0  0  0
  153.7457  132.9279  166.0773 H   0  0  0  0  0  0  0  0  0  0  0  0
  152.4459  133.3260  164.9685 H   0  0  0  0  0  0  0  0  0  0  0  0
  152.5293  132.3486  162.7165 H   0  0  0  0  0  0  0  0  0  0  0  0
  153.7843  130.9460  161.0654 H   0  0  0  0  0  0  0  0  0  0  0  0
  153.3788  130.0223  162.5090 H   0  0  0  0  0  0  0  0  0  0  0  0
  155.0204  130.6188  162.2791 H   0  0  0  0  0  0  0  0  0  0  0  0
  154.2064  133.5180  161.3014 H   0  0  0  0  0  0  0  0  0  0  0  0
  155.4754  133.1396  162.4438 H   0  0  0  0  0  0  0  0  0  0  0  0
  154.5692  140.2448  162.6886 H   0  0  0  0  0  0  0  0  0  0  0  0
  154.2053  142.2034  163.9545 H   0  0  0  0  0  0  0  0  0  0  0  0
  152.6378  142.9420  163.6280 H   0  0  0  0  0  0  0  0  0  0  0  0
  154.1223  143.7094  163.0436 H   0  0  0  0  0  0  0  0  0  0  0  0
  1  2  1  0  0  0  0
  1 23  1  0  0  0  0
  1 24  1  0  0  0  0
  1 25  1  0  0  0  0
  2 21  1  0  0  0  0
  2  3  2  0  0  0  0
  3  4  1  0  0  0  0
  3 26  1  0  0  0  0
  4 19  2  0  0  0  0
  4  5  1  0  0  0  0
  5  6  2  0  0  0  0
  6  7  1  0  0  0  0
  6 27  1  0  0  0  0
  7  8  1  0  0  0  0
  7 19  1  0  0  0  0
  8  9  1  0  0  0  0
  8 28  1  0  0  0  0
  8 29  1  0  0  0  0
  9 10  1  0  0  0  0
  9 11  1  0  0  0  0
  9 30  1  0  0  0  0
 10 31  1  0  0  0  0
 11 12  1  0  0  0  0
 11 32  1  0  0  0  0
 11 33  1  0  0  0  0
 12 18  1  0  0  0  0
 12 13  1  0  0  0  0
 13 14  1  0  0  0  0
 13 34  1  0  0  0  0
 13 35  1  0  0  0  0
 14 15  1  0  0  0  0
 14 36  1  0  0  0  0
 14 37  1  0  0  0  0
 15 16  1  0  0  0  0
 16 17  1  0  0  0  0
 16 18  1  0  0  0  0
 16 38  1  0  0  0  0
 17 39  1  0  0  0  0
 17 40  1  0  0  0  0
 17 41  1  0  0  0  0
 18 42  1  0  0  0  0
 18 43  1  0  0  0  0
 19 20  1  0  0  0  0
 20 21  2  0  0  0  0
 20 44  1  0  0  0  0
 21 22  1  0  0  0  0
 22 45  1  0  0  0  0
 22 46  1  0  0  0  0
 22 47  1  0  0  0  0
M  END
> <s_m_source_file>
AV-unprocessed.smi

> <i_m_source_file_index>
1554

> <i_lp_mmshare_version>
43012

> <i_f3d_flags>
0

> <s_epik_input>
W0NIM11jKFtjSF0xKWMoW0NIM10pW2NIXWMoYzEyKW4oW2NIXW4yKVtDSDJdW0NASF0oW09IXSlbQ0gyXU4zW0NIMl1bQ0gyXU9bQ0BASF0oW0NIM10pW0NIMl0z

> <s_epik_cmdline>
J2VwaWtfcHl0aG9uJywgJy1waCcsICc3LjAnLCAnLXRuJywgJzgnLCAnLW1hJywgJzIwMCcsICctbWV0YWxfYmluZGluZycsICctaW1hZScsICc8aW5maWxlLm1hZT4nLCAnLW9tYWUnLCAnPG91dGZpbGUubWFlPic=

> <r_epik_Ionization_Penalty>
0.345108

> <r_epik_Ionization_Penalty_Charging>
0

> <r_epik_Ionization_Penalty_Neutral>
0.345108

> <r_epik_State_Penalty>
0.314544

> <r_epik_Charging_Adjusted_Penalty>
0.314544

> <i_epik_Tot_Q>
0

> <i_epik_Tot_abs_Q>
0

> <r_epik_Metal_State_Penalty>
0.239719

> <b_epik_Metal_Only>
0

> <s_lp_Force_Field>
OPLS_2005

> <r_lp_Energy>
29.2504

> <b_lp_Chiralities_Consistent>
1

> <s_lp_Variant>
AV-unprocessed.smi:1554-4

> <Gold.Version>
5.8.1

> <Gold.Id.Protein>
6NUR|6NUR_protein|mol2

> <Gold.PLP.Fitness>
47.8310

> <Gold.PLP.PLP>
-43.4244

> <Gold.PLP.part.hbond>
-1.9624

> <Gold.PLP.part.metal>
0.0000

> <Gold.PLP.part.buried>
-4.4281

> <Gold.PLP.part.nonpolar>
-37.3033

> <Gold.PLP.part.repulsive>
0.0273

> <Gold.PLP.ligand.clash>
0.0000

> <Gold.PLP.ligand.torsion>
0.7406

> <Gold.PLP.Chemscore.Hbond>
1.9588

> <Gold.PLP.Chemscore.CHOScore>
0.0000

> <Gold.PLP.Chemscore.Metal>
0.0000

> <Gold.Chemscore.Hbonds>
donor molecule, donor type, donor heavy atom, donor atom, acceptor molecule, acceptor atom, score
      P1  H  6896  6908       L1    10  0.80
      P1  H  7997  8010       L1     5  0.80

> <Gold.PLP.Chemscore.Internal.Correction>
0.0115

> <Gold.Rescore>
     Score         DG    S(hbond)    S(metal)    S(lipo)     H(rot)  DE(clash)    DE(int)     intcor
     19.36     -20.31       1.49        0.00     127.71       1.98       0.16       0.78       ----

> <Gold.Chemscore.Fitness>
19.3592

> <Gold.Chemscore.DG>
-20.3076

> <Gold.Chemscore.ZeroCoef>
-5.4800

> <Gold.Chemscore.Hbond>
1.4870

> <Gold.Chemscore.Metal>
0.0000

> <Gold.Chemscore.Lipo>
127.7094

> <Gold.Chemscore.Internal_Hbond>
0.0000

> <Gold.Chemscore.DEClash>
0.1643

> <Gold.Chemscore.DEInternal>
0.7840

> <Gold.Chemscore.Rot>
1.9848

> <Gold.Chemscore.Internal.Correction>
   9.000000E+99

> <Gold.Chemscore.Hbonds>
donor molecule, donor type, donor heavy atom, donor atom, acceptor molecule, acceptor atom, score
      P1  H  6896  6908       L1    10  0.12
      P1  H  7997  8010       L1     5  0.10

> <Gold.Chemscore.Hbond.Weighted>
-4.9666

> <Gold.Chemscore.Metal.Weighted>
-0.0000

> <Gold.Chemscore.Lipo.Weighted>
-14.9420

> <Gold.Chemscore.Internal_Hbond.Weighted>
0.0000

> <Gold.Chemscore.DEClash.Weighted>
0.1643

> <Gold.Chemscore.DEInternal.Weighted>
0.7840

> <Gold.Chemscore.Rot.Weighted>
5.0810

> <Gold.Chemscore.Internal.Correction.Weighted>
   9.000000E+99

> <Gold.Protein.RotatedTorsions>
[ 6907 6896 6895 6894 ] final  -57.71 input  -60.11 | X-H torsion
[ 7974 7965 7964 7962 ] final   -0.20 input  175.53 | X-H torsion
[ 8008 7997 7996 7995 ] final   25.78 input   59.86 | X-H torsion
[ 10167 10162 10161 10158 ] final   62.68 input  -65.29 | X-H torsion
[ 10718 10713 10712 10709 ] final  104.92 input   66.30 | X-H torsion
[ 10763 10752 10751 10750 ] final  -65.39 input  -60.55 | X-H torsion
[ 11005 11000 10999 10996 ] final  -51.34 input  -57.11 | X-H torsion

> <Gold.Protein.ActiveResidues>
 VAL166  LYS551  ARG553  GLY616  TRP617  ASP618  TYR619  PRO620  LYS621  CYS622 
 ASP623  PHE694  ASN695  SER759  ASP760  ASP761  ALA762  ILE779  LEU786  VAL792 
 PHE793  MET794  SER795  GLU796  ALA797  LYS798  CYS799  TRP800  GLU811  SER814 

> <Gold.Protein.RotatedAtoms>
  150.8064  134.7192  159.6647 H   0  0  0  0  0  0  0  0  0  0  0  0  # atno 6907 bound_to 6896
  152.4183  134.5997  160.0006 H   0  0  0  0  0  0  0  0  0  0  0  0  # atno 6908 bound_to 6896
  151.6220  133.3301  159.3126 H   0  0  0  0  0  0  0  0  0  0  0  0  # atno 6909 bound_to 6896
  146.2429  140.1234  142.8340 H   0  0  0  0  0  0  0  0  0  0  0  0  # atno 7974 bound_to 7965
  155.0171  140.3143  155.4807 H   0  0  0  0  0  0  0  0  0  0  0  0  # atno 8008 bound_to 7997
  156.2899  140.2204  156.5229 H   0  0  0  0  0  0  0  0  0  0  0  0  # atno 8009 bound_to 7997
  154.7484  140.0468  157.0860 H   0  0  0  0  0  0  0  0  0  0  0  0  # atno 8010 bound_to 7997
  140.1413  144.4551  150.6810 H   0  0  0  0  0  0  0  0  0  0  0  0  # atno 10167 bound_to 10162
  157.6723  131.0815  150.5779 H   0  0  0  0  0  0  0  0  0  0  0  0  # atno 10718 bound_to 10713
  154.3444  135.6150  153.5612 H   0  0  0  0  0  0  0  0  0  0  0  0  # atno 10763 bound_to 10752
  152.9802  135.5777  154.4816 H   0  0  0  0  0  0  0  0  0  0  0  0  # atno 10764 bound_to 10752
  154.4526  135.2853  155.1747 H   0  0  0  0  0  0  0  0  0  0  0  0  # atno 10765 bound_to 10752
  141.0865  133.6641  156.3862 H   0  0  0  0  0  0  0  0  0  0  0  0  # atno 11005 bound_to 11000
  145.0387  140.8928  143.5066 LP  0  0  0  0  0  0  0  0  0  0  0  0  # atno 17320 bound_to 7965
  145.1311  139.2631  143.5539 LP  0  0  0  0  0  0  0  0  0  0  0  0  # atno 17321 bound_to 7965
  140.6759  143.2305  151.5509 LP  0  0  0  0  0  0  0  0  0  0  0  0  # atno 17342 bound_to 10162
  139.5471  144.2493  152.1462 LP  0  0  0  0  0  0  0  0  0  0  0  0  # atno 17343 bound_to 10162
  156.6080  130.4372  149.5870 LP  0  0  0  0  0  0  0  0  0  0  0  0  # atno 17370 bound_to 10713
  156.2453  130.6875  151.1594 LP  0  0  0  0  0  0  0  0  0  0  0  0  # atno 17371 bound_to 10713
  140.5350  134.6176  157.5362 LP  0  0  0  0  0  0  0  0  0  0  0  0  # atno 17394 bound_to 11000
  139.9684  134.7333  156.0090 LP  0  0  0  0  0  0  0  0  0  0  0  0  # atno 17395 bound_to 11000

$$$$
