AV-unprocessed.smi:370|AV-procd|sdf|2440|dock6
  -GOLD-   2262022383D 1   1.00000     0.00000
 Structure written by MMmdl.
 42 43  0  0  0  0  0  0  0  0  3 V2000
  152.6802  142.9974  160.4356 C   0  0  0  0  0  0  0  0  0  0  0  0
  152.6999  141.7078  159.6898 C   0  0  0  0  0  0  0  0  0  0  0  0
  151.7247  140.9732  159.0762 C   0  0  0  0  0  0  0  0  0  0  0  0
  152.4377  139.8563  158.5647 C   0  0  0  0  0  0  0  0  0  0  0  0
  151.7624  138.8376  157.8420 N   0  0  0  0  0  0  0  0  0  0  0  0
  151.3715  137.6214  158.2642 C   0  0  0  0  0  0  0  0  0  0  0  0
  151.5764  137.2687  159.4315 O   0  0  0  0  0  0  0  0  0  0  0  0
  150.7611  136.9092  157.2784 N   0  5  0  0  0  0  0  0  0  0  0  0
  149.6044  137.3783  156.5085 C   0  0  0  0  0  0  0  0  0  0  0  0
  149.8218  137.1456  154.9715 C   0  0  0  0  0  0  0  0  0  0  0  0
  150.8524  138.1985  154.4556 C   0  0  0  0  0  0  0  0  0  0  0  0
  150.4768  135.7578  154.7240 C   0  0  0  0  0  0  0  0  0  0  0  0
  148.4868  137.2490  154.2598 N   0  3  0  0  0  0  0  0  0  0  0  0
  147.3851  136.3790  154.7613 C   0  0  0  0  0  0  0  0  0  0  0  0
  146.1708  136.4400  153.8175 C   0  0  0  0  0  0  0  0  0  0  0  0
  145.7349  137.7824  153.6580 O   0  0  0  0  0  0  0  0  0  0  0  0
  146.7499  138.5963  153.0886 C   0  0  0  0  0  0  0  0  0  0  0  0
  147.9568  138.6295  154.0371 C   0  0  0  0  0  0  0  0  0  0  0  0
  153.7323  139.9063  158.8411 N   0  0  0  0  0  0  0  0  0  0  0  0
  153.9069  141.0930  159.5628 O   0  0  0  0  0  0  0  0  0  0  0  0
  151.6605  143.3651  160.5511 H   0  0  0  0  0  0  0  0  0  0  0  0
  153.2559  143.7575  159.9076 H   0  0  0  0  0  0  0  0  0  0  0  0
  153.1102  142.8752  161.4297 H   0  0  0  0  0  0  0  0  0  0  0  0
  150.6712  141.1999  159.0062 H   0  0  0  0  0  0  0  0  0  0  0  0
  151.5511  139.0554  156.8799 H   0  0  0  0  0  0  0  0  0  0  0  0
  148.6832  136.8836  156.8190 H   0  0  0  0  0  0  0  0  0  0  0  0
  149.4307  138.4408  156.6817 H   0  0  0  0  0  0  0  0  0  0  0  0
  151.7973  138.1640  155.0034 H   0  0  0  0  0  0  0  0  0  0  0  0
  150.4839  139.2246  154.5211 H   0  0  0  0  0  0  0  0  0  0  0  0
  151.1197  138.0189  153.4139 H   0  0  0  0  0  0  0  0  0  0  0  0
  151.4788  135.6960  155.1538 H   0  0  0  0  0  0  0  0  0  0  0  0
  150.5866  135.5670  153.6558 H   0  0  0  0  0  0  0  0  0  0  0  0
  149.9071  134.9241  155.1393 H   0  0  0  0  0  0  0  0  0  0  0  0
  147.6874  135.3344  154.8114 H   0  0  0  0  0  0  0  0  0  0  0  0
  147.1011  136.6877  155.7682 H   0  0  0  0  0  0  0  0  0  0  0  0
  146.4161  136.0093  152.8452 H   0  0  0  0  0  0  0  0  0  0  0  0
  145.3501  135.8505  154.2263 H   0  0  0  0  0  0  0  0  0  0  0  0
  147.0340  138.2226  152.1034 H   0  0  0  0  0  0  0  0  0  0  0  0
  146.3553  139.6027  152.9473 H   0  0  0  0  0  0  0  0  0  0  0  0
  147.6513  139.0718  154.9862 H   0  0  0  0  0  0  0  0  0  0  0  0
  148.7149  139.2854  153.6100 H   0  0  0  0  0  0  0  0  0  0  0  0
  148.6969  136.8880  153.3385 H   0  0  0  0  0  0  0  0  0  0  0  0
  1  2  1  0  0  0  0
  1 21  1  0  0  0  0
  1 22  1  0  0  0  0
  1 23  1  0  0  0  0
  2 20  1  0  0  0  0
  2  3  2  0  0  0  0
  3  4  1  0  0  0  0
  3 24  1  0  0  0  0
  4  5  1  0  0  0  0
  4 19  2  0  0  0  0
  5  6  1  0  0  0  0
  5 25  1  0  0  0  0
  6  7  2  0  0  0  0
  6  8  1  0  0  0  0
  8  9  1  0  0  0  0
  9 10  1  0  0  0  0
  9 26  1  0  0  0  0
  9 27  1  0  0  0  0
 10 11  1  0  0  0  0
 10 12  1  0  0  0  0
 10 13  1  0  0  0  0
 11 28  1  0  0  0  0
 11 29  1  0  0  0  0
 11 30  1  0  0  0  0
 12 31  1  0  0  0  0
 12 32  1  0  0  0  0
 12 33  1  0  0  0  0
 13 18  1  0  0  0  0
 13 14  1  0  0  0  0
 13 42  1  0  0  0  0
 14 15  1  0  0  0  0
 14 34  1  0  0  0  0
 14 35  1  0  0  0  0
 15 16  1  0  0  0  0
 15 36  1  0  0  0  0
 15 37  1  0  0  0  0
 16 17  1  0  0  0  0
 17 18  1  0  0  0  0
 17 38  1  0  0  0  0
 17 39  1  0  0  0  0
 18 40  1  0  0  0  0
 18 41  1  0  0  0  0
 19 20  1  0  0  0  0
M  CHG  1   8  -1
M  CHG  1  13   1
M  END
> <s_m_source_file>
AV-unprocessed.smi

> <i_m_source_file_index>
370

> <i_lp_mmshare_version>
43012

> <i_f3d_flags>
0

> <s_epik_input>
W0NIM11jMVtjSF1jKG5vMSlbTkhdQyg9TylbTkhdW0NIMl1DKFtDSDNdKShbQ0gzXSlOMltDSDJdW0NIMl1PW0NIMl1bQ0gyXTI=

> <s_epik_cmdline>
J2VwaWtfcHl0aG9uJywgJy1waCcsICc3LjAnLCAnLXRuJywgJzgnLCAnLW1hJywgJzIwMCcsICctbWV0YWxfYmluZGluZycsICctaW1hZScsICc8aW5maWxlLm1hZT4nLCAnLW9tYWUnLCAnPG91dGZpbGUubWFlPic=

> <r_epik_Ionization_Penalty>
6.79272

> <r_epik_Ionization_Penalty_Charging>
6.79272

> <r_epik_Ionization_Penalty_Neutral>
5.6208e-06

> <r_epik_State_Penalty>
7.45901

> <r_epik_Charging_Adjusted_Penalty>
14.2517

> <i_epik_Tot_Q>
0

> <i_epik_Tot_abs_Q>
2

> <r_epik_Metal_State_Penalty>
3.38639

> <b_epik_Metal_Only>
1

> <s_lp_Force_Field>
OPLS_2005

> <r_lp_Energy>
23.8333

> <b_lp_Chiralities_Consistent>
1

> <s_lp_Variant>
AV-unprocessed.smi:370-5

> <Gold.Version>
5.8.1

> <Gold.Id.Protein>
6NUR|6NUR_protein|mol2

> <Gold.PLP.Fitness>
34.9464

> <Gold.PLP.PLP>
-26.3360

> <Gold.PLP.part.hbond>
-3.0000

> <Gold.PLP.part.metal>
0.0000

> <Gold.PLP.part.buried>
-4.5429

> <Gold.PLP.part.nonpolar>
-19.8731

> <Gold.PLP.part.repulsive>
0.2212

> <Gold.PLP.ligand.clash>
0.0000

> <Gold.PLP.ligand.torsion>
1.7498

> <Gold.PLP.Chemscore.Hbond>
4.0000

> <Gold.PLP.Chemscore.CHOScore>
0.0000

> <Gold.PLP.Chemscore.Metal>
0.0000

> <Gold.Chemscore.Hbonds>
donor molecule, donor type, donor heavy atom, donor atom, acceptor molecule, acceptor atom, score
      L1  H    13    42       P1  7948  2.00
      P1  H  6896  6908       L1     7  0.65
      P1  H  7997  8009       L1    19  0.98

> <Gold.PLP.Chemscore.Internal.Correction>
0.1099

> <Gold.Rescore>
     Score         DG    S(hbond)    S(metal)    S(lipo)     H(rot)  DE(clash)    DE(int)     intcor
     15.45     -17.29       2.64        0.00      59.77       1.57       0.05       1.78       ----

> <Gold.Chemscore.Fitness>
15.4545

> <Gold.Chemscore.DG>
-17.2851

> <Gold.Chemscore.ZeroCoef>
-5.4800

> <Gold.Chemscore.Hbond>
2.6441

> <Gold.Chemscore.Metal>
0.0000

> <Gold.Chemscore.Lipo>
59.7715

> <Gold.Chemscore.Internal_Hbond>
0.0000

> <Gold.Chemscore.DEClash>
0.0528

> <Gold.Chemscore.DEInternal>
1.7778

> <Gold.Chemscore.Rot>
1.5701

> <Gold.Chemscore.Internal.Correction>
   9.000000E+99

> <Gold.Chemscore.Hbonds>
donor molecule, donor type, donor heavy atom, donor atom, acceptor molecule, acceptor atom, score
      L1  H    13    42       P1  7948  0.99
      P1  H  6896  6908       L1     7  0.62
      P1  H  7997  8009       L1    19  0.34

> <Gold.Chemscore.Hbond.Weighted>
-8.8312

> <Gold.Chemscore.Metal.Weighted>
-0.0000

> <Gold.Chemscore.Lipo.Weighted>
-6.9933

> <Gold.Chemscore.Internal_Hbond.Weighted>
0.0000

> <Gold.Chemscore.DEClash.Weighted>
0.0528

> <Gold.Chemscore.DEInternal.Weighted>
1.7778

> <Gold.Chemscore.Rot.Weighted>
4.0194

> <Gold.Chemscore.Internal.Correction.Weighted>
   9.000000E+99

> <Gold.Protein.RotatedTorsions>
[ 6907 6896 6895 6894 ] final -131.32 input  -60.11 | X-H torsion
[ 7974 7965 7964 7962 ] final  -73.15 input  175.53 | X-H torsion
[ 8008 7997 7996 7995 ] final  152.97 input   59.86 | X-H torsion
[ 10167 10162 10161 10158 ] final   82.65 input  -65.29 | X-H torsion
[ 10718 10713 10712 10709 ] final    1.44 input   66.30 | X-H torsion
[ 10763 10752 10751 10750 ] final   61.45 input  -60.55 | X-H torsion
[ 11005 11000 10999 10996 ] final  -16.88 input  -57.11 | X-H torsion

> <Gold.Protein.ActiveResidues>
 VAL166  LYS551  ARG553  GLY616  TRP617  ASP618  TYR619  PRO620  LYS621  CYS622 
 ASP623  PHE694  ASN695  SER759  ASP760  ASP761  ALA762  ILE779  LEU786  VAL792 
 PHE793  MET794  SER795  GLU796  ALA797  LYS798  CYS799  TRP800  GLU811  SER814 

> <Gold.Protein.RotatedAtoms>
  150.9496  133.6564  159.2774 H   0  0  0  0  0  0  0  0  0  0  0  0  # atno 6907 bound_to 6896
  151.3924  135.0957  159.9540 H   0  0  0  0  0  0  0  0  0  0  0  0  # atno 6908 bound_to 6896
  152.5104  133.9008  159.7495 H   0  0  0  0  0  0  0  0  0  0  0  0  # atno 6909 bound_to 6896
  145.6559  140.9268  143.0960 H   0  0  0  0  0  0  0  0  0  0  0  0  # atno 7974 bound_to 7965
  156.2604  140.2006  156.6416 H   0  0  0  0  0  0  0  0  0  0  0  0  # atno 8008 bound_to 7997
  154.6605  140.0561  157.0081 H   0  0  0  0  0  0  0  0  0  0  0  0  # atno 8009 bound_to 7997
  155.1283  140.3231  155.4483 H   0  0  0  0  0  0  0  0  0  0  0  0  # atno 8010 bound_to 7997
  139.9265  144.6179  150.8387 H   0  0  0  0  0  0  0  0  0  0  0  0  # atno 10167 bound_to 10162
  156.8483  130.5544  149.5672 H   0  0  0  0  0  0  0  0  0  0  0  0  # atno 10718 bound_to 10713
  152.9951  135.5500  154.6035 H   0  0  0  0  0  0  0  0  0  0  0  0  # atno 10763 bound_to 10752
  154.5371  135.2817  155.1131 H   0  0  0  0  0  0  0  0  0  0  0  0  # atno 10764 bound_to 10752
  154.2423  135.6414  153.5264 H   0  0  0  0  0  0  0  0  0  0  0  0  # atno 10765 bound_to 10752
  140.8112  133.8139  155.9565 H   0  0  0  0  0  0  0  0  0  0  0  0  # atno 11005 bound_to 11000
  144.7106  139.8386  143.7416 LP  0  0  0  0  0  0  0  0  0  0  0  0  # atno 17320 bound_to 7965
  146.1165  139.4177  143.0255 LP  0  0  0  0  0  0  0  0  0  0  0  0  # atno 17321 bound_to 7965
  140.7648  143.3260  151.2515 LP  0  0  0  0  0  0  0  0  0  0  0  0  # atno 17342 bound_to 10162
  139.6817  143.9842  152.2812 LP  0  0  0  0  0  0  0  0  0  0  0  0  # atno 17343 bound_to 10162
  156.0842  130.5845  150.9619 LP  0  0  0  0  0  0  0  0  0  0  0  0  # atno 17370 bound_to 10713
  157.6318  131.0920  150.8427 LP  0  0  0  0  0  0  0  0  0  0  0  0  # atno 17371 bound_to 10713
  140.9195  134.2159  157.4935 LP  0  0  0  0  0  0  0  0  0  0  0  0  # atno 17394 bound_to 11000
  139.8714  134.9786  156.5004 LP  0  0  0  0  0  0  0  0  0  0  0  0  # atno 17395 bound_to 11000

$$$$
