AV-unprocessed.smi:2140|AV-procd|sdf|8717|dock4
  -GOLD-   2272011483D 1   1.00000     0.00000
 Structure written by MMmdl.
 40 41  0  0  0  0  0  0  0  0  2 V2000
  146.6679  142.4147  154.0310 C   0  0  0  0  0  0  0  0  0  0  0  0
  147.3905  141.0759  153.7433 C   0  0  1  0  0  0  0  0  0  0  0  0
  148.2572  140.6656  154.9646 C   0  0  0  0  0  0  0  0  0  0  0  0
  148.8716  141.8049  155.6411 N   0  0  0  0  0  0  0  0  0  0  0  0
  149.6186  141.7221  156.7513 C   0  0  0  0  0  0  0  0  0  0  0  0
  149.8558  140.6606  157.3275 O   0  0  0  0  0  0  0  0  0  0  0  0
  150.0471  142.9341  157.1428 N   0  0  0  0  0  0  0  0  0  0  0  0
  150.8896  143.2632  158.2392 C   0  0  0  0  0  0  0  0  0  0  0  0
  151.8731  142.3981  158.7781 C   0  0  0  0  0  0  0  0  0  0  0  0
  152.6604  142.8510  159.8542 C   0  0  0  0  0  0  0  0  0  0  0  0
  152.4417  144.1517  160.3476 C   0  0  0  0  0  0  0  0  0  0  0  0
  151.5174  144.9912  159.8356 N   0  0  0  0  0  0  0  0  0  0  0  0
  150.7668  144.5507  158.8034 C   0  0  0  0  0  0  0  0  0  0  0  0
  146.4585  139.9623  153.3672 N   0  3  0  0  0  0  0  0  0  0  0  0
  146.9900  138.9870  152.3746 C   0  0  0  0  0  0  0  0  0  0  0  0
  145.9469  137.9053  152.0432 C   0  0  0  0  0  0  0  0  0  0  0  0
  145.5370  137.2471  153.2322 O   0  0  0  0  0  0  0  0  0  0  0  0
  144.9257  138.1497  154.1417 C   0  0  0  0  0  0  0  0  0  0  0  0
  145.9415  139.2272  154.5543 C   0  0  0  0  0  0  0  0  0  0  0  0
  147.3672  143.1959  154.3287 H   0  0  0  0  0  0  0  0  0  0  0  0
  145.9373  142.3089  154.8334 H   0  0  0  0  0  0  0  0  0  0  0  0
  146.1565  142.8013  153.1496 H   0  0  0  0  0  0  0  0  0  0  0  0
  148.0451  141.2529  152.8884 H   0  0  0  0  0  0  0  0  0  0  0  0
  147.6396  140.1390  155.6929 H   0  0  0  0  0  0  0  0  0  0  0  0
  149.0519  139.9735  154.6902 H   0  0  0  0  0  0  0  0  0  0  0  0
  148.7185  142.7165  155.2345 H   0  0  0  0  0  0  0  0  0  0  0  0
  149.6946  143.7220  156.6190 H   0  0  0  0  0  0  0  0  0  0  0  0
  152.0499  141.4100  158.3830 H   0  0  0  0  0  0  0  0  0  0  0  0
  153.4187  142.2164  160.2887 H   0  0  0  0  0  0  0  0  0  0  0  0
  153.0290  144.5296  161.1712 H   0  0  0  0  0  0  0  0  0  0  0  0
  150.0397  145.2504  158.4174 H   0  0  0  0  0  0  0  0  0  0  0  0
  147.2500  139.4843  151.4409 H   0  0  0  0  0  0  0  0  0  0  0  0
  147.8978  138.5240  152.7650 H   0  0  0  0  0  0  0  0  0  0  0  0
  145.0831  138.3397  151.5370 H   0  0  0  0  0  0  0  0  0  0  0  0
  146.3748  137.1684  151.3631 H   0  0  0  0  0  0  0  0  0  0  0  0
  144.0380  138.5989  153.6931 H   0  0  0  0  0  0  0  0  0  0  0  0
  144.5925  137.5939  155.0184 H   0  0  0  0  0  0  0  0  0  0  0  0
  146.7739  138.7623  155.0854 H   0  0  0  0  0  0  0  0  0  0  0  0
  145.4586  139.9020  155.2585 H   0  0  0  0  0  0  0  0  0  0  0  0
  145.6632  140.3983  152.9223 H   0  0  0  0  0  0  0  0  0  0  0  0
  1  2  1  0  0  0  0
  1 20  1  0  0  0  0
  1 21  1  0  0  0  0
  1 22  1  0  0  0  0
  2  3  1  0  0  0  0
  2 14  1  0  0  0  0
  2 23  1  0  0  0  0
  3  4  1  0  0  0  0
  3 24  1  0  0  0  0
  3 25  1  0  0  0  0
  4  5  1  0  0  0  0
  4 26  1  0  0  0  0
  5  6  2  0  0  0  0
  5  7  1  0  0  0  0
  7  8  1  0  0  0  0
  7 27  1  0  0  0  0
  8 13  1  0  0  0  0
  8  9  2  0  0  0  0
  9 10  1  0  0  0  0
  9 28  1  0  0  0  0
 10 11  2  0  0  0  0
 10 29  1  0  0  0  0
 11 12  1  0  0  0  0
 11 30  1  0  0  0  0
 12 13  2  0  0  0  0
 13 31  1  0  0  0  0
 14 19  1  0  0  0  0
 14 15  1  0  0  0  0
 14 40  1  0  0  0  0
 15 16  1  0  0  0  0
 15 32  1  0  0  0  0
 15 33  1  0  0  0  0
 16 17  1  0  0  0  0
 16 34  1  0  0  0  0
 16 35  1  0  0  0  0
 17 18  1  0  0  0  0
 18 19  1  0  0  0  0
 18 36  1  0  0  0  0
 18 37  1  0  0  0  0
 19 38  1  0  0  0  0
 19 39  1  0  0  0  0
M  CHG  1  14   1
M  END
> <s_m_source_file>
AV-unprocessed.smi

> <i_m_source_file_index>
2140

> <i_lp_mmshare_version>
43012

> <i_f3d_flags>
0

> <s_epik_input>
W0NIMl0xW0NIMl1PW0NIMl1bQ0gyXU4xW0NASF0oW0NIM10pW0NIMl1bTkhdQyg9TylbTkhdYzJbY0hdW2NIXVtjSF1uW2NIXTI=

> <s_epik_cmdline>
J2VwaWtfcHl0aG9uJywgJy1waCcsICc3LjAnLCAnLXRuJywgJzgnLCAnLW1hJywgJzIwMCcsICctbWV0YWxfYmluZGluZycsICctaW1hZScsICc8aW5maWxlLm1hZT4nLCAnLW9tYWUnLCAnPG91dGZpbGUubWFlPic=

> <r_epik_Ionization_Penalty>
0.60672

> <r_epik_Ionization_Penalty_Charging>
0.602531

> <r_epik_Ionization_Penalty_Neutral>
0.00418997

> <r_epik_State_Penalty>
0.607459

> <r_epik_Charging_Adjusted_Penalty>
1.20999

> <i_epik_Tot_Q>
1

> <i_epik_Tot_abs_Q>
1

> <r_epik_Metal_State_Penalty>
0.604586

> <b_epik_Metal_Only>
0

> <s_lp_Force_Field>
OPLS_2005

> <r_lp_Energy>
23.4588

> <b_lp_Chiralities_Consistent>
1

> <s_lp_Variant>
AV-unprocessed.smi:2140-4

> <Gold.Version>
5.8.1

> <Gold.Id.Protein>
6NUR|6NUR_protein|mol2

> <Gold.PLP.Fitness>
45.7126

> <Gold.PLP.PLP>
-33.2449

> <Gold.PLP.part.hbond>
-3.0000

> <Gold.PLP.part.metal>
0.0000

> <Gold.PLP.part.buried>
-3.3372

> <Gold.PLP.part.nonpolar>
-28.0541

> <Gold.PLP.part.repulsive>
0.4145

> <Gold.PLP.ligand.clash>
0.0000

> <Gold.PLP.ligand.torsion>
1.0760

> <Gold.PLP.Chemscore.Hbond>
3.8564

> <Gold.PLP.Chemscore.CHOScore>
1.0000

> <Gold.PLP.Chemscore.Metal>
0.0000

> <Gold.Chemscore.Hbonds>
donor molecule, donor type, donor heavy atom, donor atom, acceptor molecule, acceptor atom, score
      L1  H     4    26       P1  8028  0.83
      L1  H     7    27       P1  8028  1.00
      L1  H    14    40       P1 10175  2.00
      L1  C    13    31       P1  8029  1.00

> <Gold.PLP.Chemscore.Internal.Correction>
0.0503

> <Gold.Rescore>
     Score         DG    S(hbond)    S(metal)    S(lipo)     H(rot)  DE(clash)    DE(int)     intcor
     19.40     -21.61       2.75        0.00      92.50       1.52       0.19       2.01       ----

> <Gold.Chemscore.Fitness>
19.4004

> <Gold.Chemscore.DG>
-21.6062

> <Gold.Chemscore.ZeroCoef>
-5.4800

> <Gold.Chemscore.Hbond>
2.7514

> <Gold.Chemscore.Metal>
0.0000

> <Gold.Chemscore.Lipo>
92.5006

> <Gold.Chemscore.Internal_Hbond>
0.0000

> <Gold.Chemscore.DEClash>
0.1949

> <Gold.Chemscore.DEInternal>
2.0109

> <Gold.Chemscore.Rot>
1.5179

> <Gold.Chemscore.Internal.Correction>
   9.000000E+99

> <Gold.Chemscore.Hbonds>
donor molecule, donor type, donor heavy atom, donor atom, acceptor molecule, acceptor atom, score
      L1  H     4    26       P1  8028  0.77
      L1  H     7    27       P1  8028  0.98
      L1  H    14    40       P1 10175  0.80

> <Gold.Chemscore.Hbond.Weighted>
-9.1895

> <Gold.Chemscore.Metal.Weighted>
-0.0000

> <Gold.Chemscore.Lipo.Weighted>
-10.8226

> <Gold.Chemscore.Internal_Hbond.Weighted>
0.0000

> <Gold.Chemscore.DEClash.Weighted>
0.1949

> <Gold.Chemscore.DEInternal.Weighted>
2.0109

> <Gold.Chemscore.Rot.Weighted>
3.8859

> <Gold.Chemscore.Internal.Correction.Weighted>
   9.000000E+99

> <Gold.Protein.RotatedTorsions>
[ 6907 6896 6895 6894 ] final  171.45 input  -60.11 | X-H torsion
[ 7974 7965 7964 7962 ] final   15.71 input  175.53 | X-H torsion
[ 8008 7997 7996 7995 ] final  130.69 input   59.86 | X-H torsion
[ 10167 10162 10161 10158 ] final -106.09 input  -65.29 | X-H torsion
[ 10718 10713 10712 10709 ] final  -21.71 input   66.30 | X-H torsion
[ 10763 10752 10751 10750 ] final  -90.05 input  -60.55 | X-H torsion
[ 11005 11000 10999 10996 ] final  171.47 input  -57.11 | X-H torsion

> <Gold.Protein.ActiveResidues>
 VAL166  LYS551  ARG553  GLY616  TRP617  ASP618  TYR619  PRO620  LYS621  CYS622 
 ASP623  PHE694  ASN695  SER759  ASP760  ASP761  ALA762  ILE779  LEU786  VAL792 
 PHE793  MET794  SER795  GLU796  ALA797  LYS798  CYS799  TRP800  GLU811  SER814 

> <Gold.Protein.RotatedAtoms>
  151.8000  133.3369  159.3523 H   0  0  0  0  0  0  0  0  0  0  0  0  # atno 6907 bound_to 6896
  150.7362  134.5763  159.5925 H   0  0  0  0  0  0  0  0  0  0  0  0  # atno 6908 bound_to 6896
  152.3150  134.7452  160.0379 H   0  0  0  0  0  0  0  0  0  0  0  0  # atno 6909 bound_to 6896
  146.2271  139.8854  142.8563 H   0  0  0  0  0  0  0  0  0  0  0  0  # atno 7974 bound_to 7965
  156.2958  140.2590  156.2803 H   0  0  0  0  0  0  0  0  0  0  0  0  # atno 8008 bound_to 7997
  154.9608  140.0392  157.2208 H   0  0  0  0  0  0  0  0  0  0  0  0  # atno 8009 bound_to 7997
  154.7948  140.2818  155.5969 H   0  0  0  0  0  0  0  0  0  0  0  0  # atno 8010 bound_to 7997
  140.1915  143.3888  152.1202 H   0  0  0  0  0  0  0  0  0  0  0  0  # atno 10167 bound_to 10162
  156.5144  130.4617  149.6631 H   0  0  0  0  0  0  0  0  0  0  0  0  # atno 10718 bound_to 10713
  154.6617  135.5318  153.8026 H   0  0  0  0  0  0  0  0  0  0  0  0  # atno 10763 bound_to 10752
  153.0446  135.6507  154.0862 H   0  0  0  0  0  0  0  0  0  0  0  0  # atno 10764 bound_to 10752
  154.0770  135.2950  155.3277 H   0  0  0  0  0  0  0  0  0  0  0  0  # atno 10765 bound_to 10752
  140.3194  134.7450  157.4052 H   0  0  0  0  0  0  0  0  0  0  0  0  # atno 11005 bound_to 11000
  145.2470  141.0030  143.3903 LP  0  0  0  0  0  0  0  0  0  0  0  0  # atno 17320 bound_to 7965
  144.9405  139.4194  143.6451 LP  0  0  0  0  0  0  0  0  0  0  0  0  # atno 17321 bound_to 7965
  139.5254  144.7095  151.5250 LP  0  0  0  0  0  0  0  0  0  0  0  0  # atno 17342 bound_to 10162
  140.6452  143.8808  150.6730 LP  0  0  0  0  0  0  0  0  0  0  0  0  # atno 17343 bound_to 10162
  156.3209  130.7280  151.2192 LP  0  0  0  0  0  0  0  0  0  0  0  0  # atno 17370 bound_to 10713
  157.7446  131.0456  150.4850 LP  0  0  0  0  0  0  0  0  0  0  0  0  # atno 17371 bound_to 10713
  140.0955  134.5543  155.8402 LP  0  0  0  0  0  0  0  0  0  0  0  0  # atno 17394 bound_to 11000
  141.2090  133.6679  156.6409 LP  0  0  0  0  0  0  0  0  0  0  0  0  # atno 17395 bound_to 11000

$$$$
