AV-unprocessed.smi:76|AV-procd|sdf|770|dock1
  -GOLD-   2262017113D 1   1.00000     0.00000
 Structure written by MMmdl.
 55 58  0  0  0  0  0  0  0  0  1 V2000
  152.9304  139.7996  158.1279 C   0  0  0  0  0  0  0  0  0  0  0  0
  151.4803  140.3141  158.2230 C   0  0  1  0  0  0  0  0  0  0  0  0
  151.3305  141.4730  159.2315 C   0  0  0  0  0  0  0  0  0  0  0  0
  151.9118  142.8024  158.7024 C   0  0  2  0  0  0  0  0  0  0  0  0
  151.7326  143.9577  159.7081 C   0  0  0  0  0  0  0  0  0  0  0  0
  152.2157  145.0883  159.1928 F   0  0  0  0  0  0  0  0  0  0  0  0
  150.4451  144.1352  160.0058 F   0  0  0  0  0  0  0  0  0  0  0  0
  152.4022  143.6923  160.8298 F   0  0  0  0  0  0  0  0  0  0  0  0
  151.2807  143.1206  157.3327 C   0  0  0  0  0  0  0  0  0  0  0  0
  151.4578  141.9554  156.3473 C   0  0  0  0  0  0  0  0  0  0  0  0
  150.9412  140.7083  156.9159 N   0  0  0  0  0  0  0  0  0  0  0  0
  150.6594  139.6944  156.0561 C   0  0  0  0  0  0  0  0  0  0  0  0
  150.1612  139.9771  154.8223 N   0  0  0  0  0  0  0  0  0  0  0  0
  149.8930  138.9935  153.9592 C   0  0  0  0  0  0  0  0  0  0  0  0
  150.0400  137.6780  154.1223 N   0  0  0  0  0  0  0  0  0  0  0  0
  150.5269  137.3846  155.3618 C   0  0  0  0  0  0  0  0  0  0  0  0
  150.8651  138.3226  156.3786 C   0  0  0  0  0  0  0  0  0  0  0  0
  151.3257  137.6496  157.5040 N   0  0  0  0  0  0  0  0  0  0  0  0
  151.2733  136.3901  157.1681 C   0  0  0  0  0  0  0  0  0  0  0  0
  150.7867  136.1378  155.9052 N   0  0  0  0  0  0  0  0  0  0  0  0
  150.6192  134.8334  155.2795 C   0  0  0  0  0  0  0  0  0  0  0  0
  149.4500  133.9691  155.8504 C   0  0  0  0  0  0  0  0  0  0  0  0
  149.7085  133.7232  157.3632 C   0  0  0  0  0  0  0  0  0  0  0  0
  150.9556  133.1127  157.6303 O   0  0  0  0  0  0  0  0  0  0  0  0
  148.1147  134.7325  155.6523 C   0  0  0  0  0  0  0  0  0  0  0  0
  147.6710  134.7821  154.1774 C   0  0  0  0  0  0  0  0  0  0  0  0
  147.5878  133.4652  153.6454 O   0  0  0  0  0  0  0  0  0  0  0  0
  148.8325  132.7770  153.6628 C   0  0  0  0  0  0  0  0  0  0  0  0
  149.3185  132.6111  155.1136 C   0  0  0  0  0  0  0  0  0  0  0  0
  153.3003  139.4995  159.1085 H   0  0  0  0  0  0  0  0  0  0  0  0
  153.6118  140.5541  157.7356 H   0  0  0  0  0  0  0  0  0  0  0  0
  152.9967  138.9270  157.4774 H   0  0  0  0  0  0  0  0  0  0  0  0
  150.8854  139.4917  158.6170 H   0  0  0  0  0  0  0  0  0  0  0  0
  150.2709  141.6100  159.4509 H   0  0  0  0  0  0  0  0  0  0  0  0
  151.8001  141.2027  160.1776 H   0  0  0  0  0  0  0  0  0  0  0  0
  152.9839  142.6695  158.5532 H   0  0  0  0  0  0  0  0  0  0  0  0
  150.2170  143.3275  157.4567 H   0  0  0  0  0  0  0  0  0  0  0  0
  151.7236  144.0232  156.9115 H   0  0  0  0  0  0  0  0  0  0  0  0
  150.9310  142.1911  155.4215 H   0  0  0  0  0  0  0  0  0  0  0  0
  152.5111  141.8342  156.0921 H   0  0  0  0  0  0  0  0  0  0  0  0
  149.5046  139.3058  153.0010 H   0  0  0  0  0  0  0  0  0  0  0  0
  151.5816  135.6043  157.8423 H   0  0  0  0  0  0  0  0  0  0  0  0
  150.4712  134.9933  154.2107 H   0  0  0  0  0  0  0  0  0  0  0  0
  151.5736  134.3156  155.3610 H   0  0  0  0  0  0  0  0  0  0  0  0
  149.6869  134.6618  157.9168 H   0  0  0  0  0  0  0  0  0  0  0  0
  148.9268  133.0895  157.7835 H   0  0  0  0  0  0  0  0  0  0  0  0
  150.9980  132.2966  157.1557 H   0  0  0  0  0  0  0  0  0  0  0  0
  147.3158  134.2466  156.2128 H   0  0  0  0  0  0  0  0  0  0  0  0
  148.1894  135.7436  156.0539 H   0  0  0  0  0  0  0  0  0  0  0  0
  146.6873  135.2461  154.1042 H   0  0  0  0  0  0  0  0  0  0  0  0
  148.3420  135.3912  153.5718 H   0  0  0  0  0  0  0  0  0  0  0  0
  148.6924  131.7970  153.2065 H   0  0  0  0  0  0  0  0  0  0  0  0
  149.5643  133.3035  153.0498 H   0  0  0  0  0  0  0  0  0  0  0  0
  150.2552  132.0555  155.1394 H   0  0  0  0  0  0  0  0  0  0  0  0
  148.5945  131.9796  155.6291 H   0  0  0  0  0  0  0  0  0  0  0  0
  1  2  1  0  0  0  0
  1 30  1  0  0  0  0
  1 31  1  0  0  0  0
  1 32  1  0  0  0  0
  2 11  1  0  0  0  0
  2  3  1  0  0  0  0
  2 33  1  0  0  0  0
  3  4  1  0  0  0  0
  3 34  1  0  0  0  0
  3 35  1  0  0  0  0
  4  5  1  0  0  0  0
  4  9  1  0  0  0  0
  4 36  1  0  0  0  0
  5  6  1  0  0  0  0
  5  7  1  0  0  0  0
  5  8  1  0  0  0  0
  9 10  1  0  0  0  0
  9 37  1  0  0  0  0
  9 38  1  0  0  0  0
 10 11  1  0  0  0  0
 10 39  1  0  0  0  0
 10 40  1  0  0  0  0
 11 12  1  0  0  0  0
 12 17  1  0  0  0  0
 12 13  2  0  0  0  0
 13 14  1  0  0  0  0
 14 15  2  0  0  0  0
 14 41  1  0  0  0  0
 15 16  1  0  0  0  0
 16 20  1  0  0  0  0
 16 17  2  0  0  0  0
 17 18  1  0  0  0  0
 18 19  2  0  0  0  0
 19 20  1  0  0  0  0
 19 42  1  0  0  0  0
 20 21  1  0  0  0  0
 21 22  1  0  0  0  0
 21 43  1  0  0  0  0
 21 44  1  0  0  0  0
 22 29  1  0  0  0  0
 22 23  1  0  0  0  0
 22 25  1  0  0  0  0
 23 24  1  0  0  0  0
 23 45  1  0  0  0  0
 23 46  1  0  0  0  0
 24 47  1  0  0  0  0
 25 26  1  0  0  0  0
 25 48  1  0  0  0  0
 25 49  1  0  0  0  0
 26 27  1  0  0  0  0
 26 50  1  0  0  0  0
 26 51  1  0  0  0  0
 27 28  1  0  0  0  0
 28 29  1  0  0  0  0
 28 52  1  0  0  0  0
 28 53  1  0  0  0  0
 29 54  1  0  0  0  0
 29 55  1  0  0  0  0
M  END
> <s_m_source_file>
AV-unprocessed.smi

> <i_m_source_file_index>
76

> <i_lp_mmshare_version>
43012

> <i_f3d_flags>
0

> <s_epik_input>
W0NIM11bQ0BASF0xW0NIMl1bQ0BASF0oQyhGKShGKUYpW0NIMl1bQ0gyXU4xYyhuW2NIXW4yKWMoYzIzKW5bY0hdbjNbQ0gyXUM0KFtDSDJdW09IXSlbQ0gyXVtDSDJdT1tDSDJdW0NIMl00

> <s_epik_cmdline>
J2VwaWtfcHl0aG9uJywgJy1waCcsICc3LjAnLCAnLXRuJywgJzgnLCAnLW1hJywgJzIwMCcsICctbWV0YWxfYmluZGluZycsICctaW1hZScsICc8aW5maWxlLm1hZT4nLCAnLW9tYWUnLCAnPG91dGZpbGUubWFlPic=

> <r_lp_tautomer_probability>
1

> <r_epik_Ionization_Penalty>
0.00244097

> <r_epik_Ionization_Penalty_Charging>
0

> <r_epik_Ionization_Penalty_Neutral>
0.00244097

> <r_epik_State_Penalty>
0.00151846

> <r_epik_Charging_Adjusted_Penalty>
0.00151846

> <i_epik_Tot_Q>
0

> <i_epik_Tot_abs_Q>
0

> <r_epik_Metal_State_Penalty>
-0

> <b_epik_Metal_Only>
0

> <s_lp_Force_Field>
OPLS_2005

> <r_lp_Energy>
37.9525

> <b_lp_Chiralities_Consistent>
1

> <s_lp_Variant>
AV-unprocessed.smi:76-4

> <Gold.Version>
5.8.1

> <Gold.Id.Protein>
6NUR|6NUR_protein|mol2

> <Gold.PLP.Fitness>
43.5289

> <Gold.PLP.PLP>
-37.1225

> <Gold.PLP.part.hbond>
-1.6414

> <Gold.PLP.part.metal>
0.0000

> <Gold.PLP.part.buried>
-1.9640

> <Gold.PLP.part.nonpolar>
-36.6642

> <Gold.PLP.part.repulsive>
2.1069

> <Gold.PLP.ligand.clash>
0.0000

> <Gold.PLP.ligand.torsion>
0.4086

> <Gold.PLP.Chemscore.Hbond>
1.4331

> <Gold.PLP.Chemscore.CHOScore>
0.8649

> <Gold.PLP.Chemscore.Metal>
0.0000

> <Gold.Chemscore.Hbonds>
donor molecule, donor type, donor heavy atom, donor atom, acceptor molecule, acceptor atom, score
      P1  H  6896  6908       L1    24  0.98
      P1  H  7989  7998       L1    13  0.39
      L1  C    14    41       P1  7957  0.87

> <Gold.PLP.Chemscore.Internal.Correction>
0.3300

> <Gold.Rescore>
     Score         DG    S(hbond)    S(metal)    S(lipo)     H(rot)  DE(clash)    DE(int)     intcor
      8.94     -12.83       0.93        0.00      83.45       2.16       0.66       3.24       ----

> <Gold.Chemscore.Fitness>
8.9356

> <Gold.Chemscore.DG>
-12.8321

> <Gold.Chemscore.ZeroCoef>
-5.4800

> <Gold.Chemscore.Hbond>
0.9328

> <Gold.Chemscore.Metal>
0.0000

> <Gold.Chemscore.Lipo>
83.4478

> <Gold.Chemscore.Internal_Hbond>
0.0000

> <Gold.Chemscore.DEClash>
0.6587

> <Gold.Chemscore.DEInternal>
3.2378

> <Gold.Chemscore.Rot>
2.1589

> <Gold.Chemscore.Internal.Correction>
   9.000000E+99

> <Gold.Chemscore.Hbonds>
donor molecule, donor type, donor heavy atom, donor atom, acceptor molecule, acceptor atom, score
      P1  H  6896  6908       L1    24  0.37
      P1  H  7989  7998       L1    13  0.02

> <Gold.Chemscore.Hbond.Weighted>
-3.1155

> <Gold.Chemscore.Metal.Weighted>
-0.0000

> <Gold.Chemscore.Lipo.Weighted>
-9.7634

> <Gold.Chemscore.Internal_Hbond.Weighted>
0.0000

> <Gold.Chemscore.DEClash.Weighted>
0.6587

> <Gold.Chemscore.DEInternal.Weighted>
3.2378

> <Gold.Chemscore.Rot.Weighted>
5.5268

> <Gold.Chemscore.Internal.Correction.Weighted>
   9.000000E+99

> <Gold.Protein.RotatedTorsions>
[ 6907 6896 6895 6894 ] final   88.59 input  -60.11 | X-H torsion
[ 7974 7965 7964 7962 ] final -158.47 input  175.53 | X-H torsion
[ 8008 7997 7996 7995 ] final -106.03 input   59.86 | X-H torsion
[ 10167 10162 10161 10158 ] final  136.37 input  -65.29 | X-H torsion
[ 10718 10713 10712 10709 ] final   43.17 input   66.30 | X-H torsion
[ 10763 10752 10751 10750 ] final -131.53 input  -60.55 | X-H torsion
[ 11005 11000 10999 10996 ] final  -93.01 input  -57.11 | X-H torsion

> <Gold.Protein.ActiveResidues>
 VAL166  LYS551  ARG553  GLY616  TRP617  ASP618  TYR619  PRO620  LYS621  CYS622 
 ASP623  PHE694  ASN695  SER759  ASP760  ASP761  ALA762  ILE779  LEU786  VAL792 
 PHE793  MET794  SER795  GLU796  ALA797  LYS798  CYS799  TRP800  GLU811  SER814 

> <Gold.Protein.RotatedAtoms>
  152.5427  134.2097  159.8744 H   0  0  0  0  0  0  0  0  0  0  0  0  # atno 6907 bound_to 6896
  151.2081  133.4565  159.2605 H   0  0  0  0  0  0  0  0  0  0  0  0  # atno 6908 bound_to 6896
  151.0924  134.9936  159.8464 H   0  0  0  0  0  0  0  0  0  0  0  0  # atno 6909 bound_to 6896
  144.7504  140.3823  143.6052 H   0  0  0  0  0  0  0  0  0  0  0  0  # atno 7974 bound_to 7965
  154.9086  140.0410  157.1933 H   0  0  0  0  0  0  0  0  0  0  0  0  # atno 8008 bound_to 7997
  154.8371  140.2908  155.5662 H   0  0  0  0  0  0  0  0  0  0  0  0  # atno 8009 bound_to 7997
  156.2990  140.2489  156.3307 H   0  0  0  0  0  0  0  0  0  0  0  0  # atno 8010 bound_to 7997
  139.5182  144.6468  151.5417 H   0  0  0  0  0  0  0  0  0  0  0  0  # atno 10167 bound_to 10162
  157.4130  130.7925  149.7447 H   0  0  0  0  0  0  0  0  0  0  0  0  # atno 10718 bound_to 10713
  154.8750  135.3827  154.4262 H   0  0  0  0  0  0  0  0  0  0  0  0  # atno 10763 bound_to 10752
  153.4961  135.7030  153.5862 H   0  0  0  0  0  0  0  0  0  0  0  0  # atno 10764 bound_to 10752
  153.4215  135.3900  155.2081 H   0  0  0  0  0  0  0  0  0  0  0  0  # atno 10765 bound_to 10752
  141.1508  133.7859  157.0100 H   0  0  0  0  0  0  0  0  0  0  0  0  # atno 11005 bound_to 11000
  145.6964  139.1651  143.2617 LP  0  0  0  0  0  0  0  0  0  0  0  0  # atno 17320 bound_to 7965
  146.1446  140.7010  142.9350 LP  0  0  0  0  0  0  0  0  0  0  0  0  # atno 17321 bound_to 7965
  140.6256  143.9175  150.6562 LP  0  0  0  0  0  0  0  0  0  0  0  0  # atno 17342 bound_to 10162
  140.2463  143.3626  152.1444 LP  0  0  0  0  0  0  0  0  0  0  0  0  # atno 17343 bound_to 10162
  155.9856  130.3981  150.3252 LP  0  0  0  0  0  0  0  0  0  0  0  0  # atno 17370 bound_to 10713
  157.1392  131.0292  151.2935 LP  0  0  0  0  0  0  0  0  0  0  0  0  # atno 17371 bound_to 10713
  140.0884  134.9607  157.1737 LP  0  0  0  0  0  0  0  0  0  0  0  0  # atno 17394 bound_to 11000
  140.3480  134.2630  155.7202 LP  0  0  0  0  0  0  0  0  0  0  0  0  # atno 17395 bound_to 11000

$$$$
