AV-unprocessed.smi:218|AV-procd|sdf|1677|dock2
  -GOLD-   2262020103D 1   1.00000     0.00000
 Structure written by MMmdl.
 54 57  0  0  0  0  0  0  0  0  1 V2000
  142.8800  145.6793  155.2935 C   0  0  0  0  0  0  0  0  0  0  0  0
  144.1686  144.9712  154.8585 C   0  0  0  0  0  0  0  0  0  0  0  0
  144.5003  145.2742  153.3871 C   0  0  0  0  0  0  0  0  0  0  0  0
  143.9523  143.5706  155.0406 O   0  0  0  0  0  0  0  0  0  0  0  0
  145.0265  142.7035  155.0953 C   0  0  0  0  0  0  0  0  0  0  0  0
  144.7975  141.3855  155.5391 C   0  0  0  0  0  0  0  0  0  0  0  0
  145.8820  140.4848  155.5938 C   0  0  0  0  0  0  0  0  0  0  0  0
  145.6851  139.0504  156.0560 C   0  0  0  0  0  0  0  0  0  0  0  0
  144.8656  138.2285  155.1714 N   0  0  0  0  0  0  0  0  0  0  0  0
  145.2861  137.9494  153.9181 C   0  0  0  0  0  0  0  0  0  0  0  0
  146.1521  138.7712  153.2686 N   0  0  0  0  0  0  0  0  0  0  0  0
  146.5569  138.4722  152.0304 C   0  0  0  0  0  0  0  0  0  0  0  0
  146.2295  137.4200  151.2758 N   0  0  0  0  0  0  0  0  0  0  0  0
  145.3637  136.5913  151.9281 C   0  0  0  0  0  0  0  0  0  0  0  0
  144.8474  136.7841  153.2388 C   0  0  0  0  0  0  0  0  0  0  0  0
  143.9910  135.7403  153.5646 N   0  0  0  0  0  0  0  0  0  0  0  0
  144.0055  134.9771  152.5044 C   0  0  0  0  0  0  0  0  0  0  0  0
  144.8094  135.4156  151.4731 N   0  0  0  0  0  0  0  0  0  0  0  0
  145.0598  134.7952  150.1365 C   0  0  1  0  0  0  0  0  0  0  0  0
  145.8373  133.6493  150.3352 O   0  0  0  0  0  0  0  0  0  0  0  0
  145.1222  132.4735  149.9594 C   0  0  1  0  0  0  0  0  0  0  0  0
  145.4714  131.3252  150.9194 C   0  0  0  0  0  0  0  0  0  0  0  0
  146.7733  131.4938  151.4384 O   0  0  0  0  0  0  0  0  0  0  0  0
  143.6522  132.8988  149.9752 C   0  0  2  0  0  0  0  0  0  0  0  0
  142.8272  132.1099  149.1396 O   0  0  0  0  0  0  0  0  0  0  0  0
  143.7263  134.3503  149.5243 C   0  0  2  0  0  0  0  0  0  0  0  0
  143.7432  134.5002  148.1163 O   0  0  0  0  0  0  0  0  0  0  0  0
  147.1582  140.9445  155.2134 C   0  0  0  0  0  0  0  0  0  0  0  0
  147.2903  142.2806  154.7886 C   0  0  0  0  0  0  0  0  0  0  0  0
  146.2553  143.1448  154.7282 N   0  0  0  0  0  0  0  0  0  0  0  0
  145.5914  135.5621  149.5713 H   0  0  0  0  0  0  0  0  0  0  0  0
  145.4312  132.2273  148.9418 H   0  0  0  0  0  0  0  0  0  0  0  0
  143.2666  132.8602  150.9951 H   0  0  0  0  0  0  0  0  0  0  0  0
  142.8966  134.9419  149.9146 H   0  0  0  0  0  0  0  0  0  0  0  0
  142.9715  146.7609  155.1916 H   0  0  0  0  0  0  0  0  0  0  0  0
  142.6505  145.4633  156.3371 H   0  0  0  0  0  0  0  0  0  0  0  0
  142.0292  145.3572  154.6924 H   0  0  0  0  0  0  0  0  0  0  0  0
  144.9697  145.3331  155.5048 H   0  0  0  0  0  0  0  0  0  0  0  0
  144.6250  146.3455  153.2284 H   0  0  0  0  0  0  0  0  0  0  0  0
  143.7039  144.9303  152.7267 H   0  0  0  0  0  0  0  0  0  0  0  0
  145.4233  144.7889  153.0711 H   0  0  0  0  0  0  0  0  0  0  0  0
  143.8039  141.0731  155.8252 H   0  0  0  0  0  0  0  0  0  0  0  0
  146.6537  138.5704  156.2026 H   0  0  0  0  0  0  0  0  0  0  0  0
  145.2056  139.0736  157.0346 H   0  0  0  0  0  0  0  0  0  0  0  0
  143.9108  138.0872  155.4683 H   0  0  0  0  0  0  0  0  0  0  0  0
  147.2414  139.1764  151.5807 H   0  0  0  0  0  0  0  0  0  0  0  0
  143.4261  134.0673  152.4512 H   0  0  0  0  0  0  0  0  0  0  0  0
  144.7734  131.3117  151.7567 H   0  0  0  0  0  0  0  0  0  0  0  0
  145.3966  130.3579  150.4223 H   0  0  0  0  0  0  0  0  0  0  0  0
  147.3961  131.1978  150.7914 H   0  0  0  0  0  0  0  0  0  0  0  0
  141.9715  132.0522  149.5378 H   0  0  0  0  0  0  0  0  0  0  0  0
  144.6195  134.3263  147.8076 H   0  0  0  0  0  0  0  0  0  0  0  0
  148.0171  140.2903  155.2404 H   0  0  0  0  0  0  0  0  0  0  0  0
  148.2533  142.6655  154.4881 H   0  0  0  0  0  0  0  0  0  0  0  0
  1  2  1  0  0  0  0
  1 35  1  0  0  0  0
  1 36  1  0  0  0  0
  1 37  1  0  0  0  0
  2  3  1  0  0  0  0
  2  4  1  0  0  0  0
  2 38  1  0  0  0  0
  3 39  1  0  0  0  0
  3 40  1  0  0  0  0
  3 41  1  0  0  0  0
  4  5  1  0  0  0  0
  5 30  1  0  0  0  0
  5  6  2  0  0  0  0
  6  7  1  0  0  0  0
  6 42  1  0  0  0  0
  7  8  1  0  0  0  0
  7 28  2  0  0  0  0
  8  9  1  0  0  0  0
  8 43  1  0  0  0  0
  8 44  1  0  0  0  0
  9 10  1  0  0  0  0
  9 45  1  0  0  0  0
 10 15  1  0  0  0  0
 10 11  2  0  0  0  0
 11 12  1  0  0  0  0
 12 13  2  0  0  0  0
 12 46  1  0  0  0  0
 13 14  1  0  0  0  0
 14 18  1  0  0  0  0
 14 15  2  0  0  0  0
 15 16  1  0  0  0  0
 16 17  2  0  0  0  0
 17 18  1  0  0  0  0
 17 47  1  0  0  0  0
 18 19  1  0  0  0  0
 19 31  1  0  0  0  0
 19 26  1  0  0  0  0
 19 20  1  0  0  0  0
 20 21  1  0  0  0  0
 21 32  1  0  0  0  0
 21 22  1  0  0  0  0
 21 24  1  0  0  0  0
 22 23  1  0  0  0  0
 22 48  1  0  0  0  0
 22 49  1  0  0  0  0
 23 50  1  0  0  0  0
 24 33  1  0  0  0  0
 24 25  1  0  0  0  0
 24 26  1  0  0  0  0
 25 51  1  0  0  0  0
 26 34  1  0  0  0  0
 26 27  1  0  0  0  0
 27 52  1  0  0  0  0
 28 29  1  0  0  0  0
 28 53  1  0  0  0  0
 29 30  2  0  0  0  0
 29 54  1  0  0  0  0
M  END
> <s_m_source_file>
AV-unprocessed.smi

> <i_m_source_file_index>
218

> <i_lp_mmshare_version>
43012

> <i_f3d_flags>
0

> <s_epik_input>
W0NIM11bQ0hdKFtDSDNdKU9jMVtjSF1jKFtjSF1bY0hdbjEpW0NIMl1bTkhdYyhuW2NIXW4yKWMoYzIzKW5bY0hdbjNbQ0BASF00T1tDQEhdKFtDSDJdW09IXSlbQ0BASF0oW09IXSlbQ0BIXTRbT0hd

> <s_epik_cmdline>
J2VwaWtfcHl0aG9uJywgJy1waCcsICc3LjAnLCAnLXRuJywgJzgnLCAnLW1hJywgJzIwMCcsICctbWV0YWxfYmluZGluZycsICctaW1hZScsICc8aW5maWxlLm1hZT4nLCAnLW9tYWUnLCAnPG91dGZpbGUubWFlPic=

> <r_lp_tautomer_probability>
1

> <r_epik_Ionization_Penalty>
0.00457014

> <r_epik_Ionization_Penalty_Charging>
0

> <r_epik_Ionization_Penalty_Neutral>
0.00457014

> <r_epik_State_Penalty>
-0

> <r_epik_Charging_Adjusted_Penalty>
0

> <i_epik_Tot_Q>
0

> <i_epik_Tot_abs_Q>
0

> <r_epik_Metal_State_Penalty>
-0

> <b_epik_Metal_Only>
0

> <s_epik_Chemistry_Notes>
This compound contains an acetal/aminal-like group ( X-CH(R)-Y where X, Y are N, S, or O) that may be acid/base labile, releasing an aldehyde.

> <s_lp_Force_Field>
OPLS_2005

> <r_lp_Energy>
38.234

> <b_lp_Chiralities_Consistent>
1

> <s_lp_Variant>
AV-unprocessed.smi:218-16

> <Gold.Version>
5.8.1

> <Gold.Id.Protein>
6NUR|6NUR_protein|mol2

> <Gold.PLP.Fitness>
55.1131

> <Gold.PLP.PLP>
-39.2433

> <Gold.PLP.part.hbond>
-6.3548

> <Gold.PLP.part.metal>
0.0000

> <Gold.PLP.part.buried>
-1.5062

> <Gold.PLP.part.nonpolar>
-36.1702

> <Gold.PLP.part.repulsive>
4.1161

> <Gold.PLP.ligand.clash>
0.0000

> <Gold.PLP.ligand.torsion>
1.1980

> <Gold.PLP.Chemscore.Hbond>
4.3874

> <Gold.PLP.Chemscore.CHOScore>
1.6781

> <Gold.PLP.Chemscore.Metal>
0.0000

> <Gold.Chemscore.Hbonds>
donor molecule, donor type, donor heavy atom, donor atom, acceptor molecule, acceptor atom, score
      L1  H    23    50       P1 10747  1.00
      L1  H    25    51       P1 10952  0.49
      L1  H    27    52       P1  7921  0.99
      P1  H  7954  7966       L1    13  0.01
      P1  H 10192 10197       L1    27  0.86
      P1  H 10785 10796       L1    25  0.98
      L1  C    12    46       P1  7957  1.00
      L1  C    29    54       P1  8028  0.66

> <Gold.PLP.Chemscore.Internal.Correction>
0.0693

> <Gold.Rescore>
     Score         DG    S(hbond)    S(metal)    S(lipo)     H(rot)  DE(clash)    DE(int)     intcor
      7.85     -13.97       3.78        0.00      71.95       4.90       3.72       2.39       ----

> <Gold.Chemscore.Fitness>
7.8546

> <Gold.Chemscore.DG>
-13.9684

> <Gold.Chemscore.ZeroCoef>
-5.4800

> <Gold.Chemscore.Hbond>
3.7790

> <Gold.Chemscore.Metal>
0.0000

> <Gold.Chemscore.Lipo>
71.9497

> <Gold.Chemscore.Internal_Hbond>
0.0000

> <Gold.Chemscore.DEClash>
3.7238

> <Gold.Chemscore.DEInternal>
2.3900

> <Gold.Chemscore.Rot>
4.9029

> <Gold.Chemscore.Internal.Correction>
   9.000000E+99

> <Gold.Chemscore.Hbonds>
donor molecule, donor type, donor heavy atom, donor atom, acceptor molecule, acceptor atom, score
      L1  H    23    50       P1 10747  0.97
      L1  H    25    51       P1 10952  0.46
      L1  H    27    52       P1  7921  0.92
      P1  H 10192 10197       L1    27  0.81
      P1  H 10785 10796       L1    25  0.28

> <Gold.Chemscore.Hbond.Weighted>
-12.6218

> <Gold.Chemscore.Metal.Weighted>
-0.0000

> <Gold.Chemscore.Lipo.Weighted>
-8.4181

> <Gold.Chemscore.Internal_Hbond.Weighted>
0.0000

> <Gold.Chemscore.DEClash.Weighted>
3.7238

> <Gold.Chemscore.DEInternal.Weighted>
2.3900

> <Gold.Chemscore.Rot.Weighted>
12.5515

> <Gold.Chemscore.Internal.Correction.Weighted>
   9.000000E+99

> <Gold.Protein.RotatedTorsions>
[ 6907 6896 6895 6894 ] final  -92.54 input  -60.11 | X-H torsion
[ 7974 7965 7964 7962 ] final  -74.24 input  175.53 | X-H torsion
[ 8008 7997 7996 7995 ] final  -98.04 input   59.86 | X-H torsion
[ 10167 10162 10161 10158 ] final   63.18 input  -65.29 | X-H torsion
[ 10718 10713 10712 10709 ] final -115.44 input   66.30 | X-H torsion
[ 10763 10752 10751 10750 ] final  165.41 input  -60.55 | X-H torsion
[ 11005 11000 10999 10996 ] final   70.37 input  -57.11 | X-H torsion

> <Gold.Protein.ActiveResidues>
 VAL166  LYS551  ARG553  GLY616  TRP617  ASP618  TYR619  PRO620  LYS621  CYS622 
 ASP623  PHE694  ASN695  SER759  ASP760  ASP761  ALA762  ILE779  LEU786  VAL792 
 PHE793  MET794  SER795  GLU796  ALA797  LYS798  CYS799  TRP800  GLU811  SER814 

> <Gold.Protein.RotatedAtoms>
  150.6908  134.2106  159.4357 H   0  0  0  0  0  0  0  0  0  0  0  0  # atno 6907 bound_to 6896
  152.0067  134.9896  160.0576 H   0  0  0  0  0  0  0  0  0  0  0  0  # atno 6908 bound_to 6896
  152.1527  133.4497  159.4858 H   0  0  0  0  0  0  0  0  0  0  0  0  # atno 6909 bound_to 6896
  145.6417  140.9309  143.1032 H   0  0  0  0  0  0  0  0  0  0  0  0  # atno 7974 bound_to 7965
  154.7958  140.0458  157.1236 H   0  0  0  0  0  0  0  0  0  0  0  0  # atno 8008 bound_to 7997
  154.9537  140.3068  155.5043 H   0  0  0  0  0  0  0  0  0  0  0  0  # atno 8009 bound_to 7997
  156.2955  140.2283  156.4616 H   0  0  0  0  0  0  0  0  0  0  0  0  # atno 8010 bound_to 7997
  140.1358  144.4600  150.6839 H   0  0  0  0  0  0  0  0  0  0  0  0  # atno 10167 bound_to 10162
  156.0896  130.6081  150.8906 H   0  0  0  0  0  0  0  0  0  0  0  0  # atno 10718 bound_to 10713
  154.3236  135.2755  155.2507 H   0  0  0  0  0  0  0  0  0  0  0  0  # atno 10763 bound_to 10752
  154.4849  135.5848  153.6420 H   0  0  0  0  0  0  0  0  0  0  0  0  # atno 10764 bound_to 10752
  152.9874  135.6120  154.3423 H   0  0  0  0  0  0  0  0  0  0  0  0  # atno 10765 bound_to 10752
  139.9602  134.7075  156.0664 H   0  0  0  0  0  0  0  0  0  0  0  0  # atno 11005 bound_to 11000
  144.7155  139.8213  143.7400 LP  0  0  0  0  0  0  0  0  0  0  0  0  # atno 17320 bound_to 7965
  146.1275  139.4304  143.0189 LP  0  0  0  0  0  0  0  0  0  0  0  0  # atno 17321 bound_to 7965
  140.6790  143.2318  151.5433 LP  0  0  0  0  0  0  0  0  0  0  0  0  # atno 17342 bound_to 10162
  139.5497  144.2429  152.1507 LP  0  0  0  0  0  0  0  0  0  0  0  0  # atno 17343 bound_to 10162
  157.6041  131.0940  150.8909 LP  0  0  0  0  0  0  0  0  0  0  0  0  # atno 17370 bound_to 10713
  156.9061  130.5264  149.5281 LP  0  0  0  0  0  0  0  0  0  0  0  0  # atno 17371 bound_to 10713
  141.1278  133.6594  156.3383 LP  0  0  0  0  0  0  0  0  0  0  0  0  # atno 17394 bound_to 11000
  140.5518  134.6020  157.5410 LP  0  0  0  0  0  0  0  0  0  0  0  0  # atno 17395 bound_to 11000

$$$$
