AV-unprocessed.smi:303|AV-procd|sdf|2274|dock4
  -GOLD-   2262022163D 1   1.00000     0.00000
 Structure written by MMmdl.
 45 46  0  0  0  0  0  0  0  0  1 V2000
  151.6549  142.8176  158.0906 C   0  0  0  0  0  0  0  0  0  0  0  0
  150.4236  142.0936  157.5330 C   0  0  0  0  0  0  0  0  0  0  0  0
  150.8027  140.3459  157.0628 S   0  0  0  0  0  0  0  0  0  0  0  0
  152.2576  140.1503  157.1562 O   0  0  0  0  0  0  0  0  0  0  0  0
  149.8970  139.4487  157.7975 O   0  0  0  0  0  0  0  0  0  0  0  0
  150.3744  140.2558  155.3771 N   0  0  0  0  0  0  0  0  0  0  0  0
  150.5150  138.9793  154.6509 C   0  0  0  0  0  0  0  0  0  0  0  0
  149.1538  138.2860  154.4658 C   0  0  0  0  0  0  0  0  0  0  0  0
  148.1429  139.2178  153.7736 C   0  0  0  0  0  0  0  0  0  0  0  0
  146.7758  138.5415  153.6156 C   0  0  0  0  0  0  0  0  0  0  0  0
  145.7692  139.0574  154.1028 O   0  0  0  0  0  0  0  0  0  0  0  0
  146.7527  137.3992  152.9102 N   0  0  0  0  0  0  0  0  0  0  0  0
  145.5536  136.6427  152.5575 C   0  0  0  0  0  0  0  0  0  0  0  0
  145.6117  136.0997  151.1158 C   0  0  0  0  0  0  0  0  0  0  0  0
  145.1042  134.6740  150.9808 C   0  0  0  0  0  0  0  0  0  0  0  0
  143.7406  134.3701  151.1851 C   0  0  0  0  0  0  0  0  0  0  0  0
  143.3310  133.0265  151.0888 C   0  0  0  0  0  0  0  0  0  0  0  0
  144.2938  132.0440  150.7879 C   0  0  0  0  0  0  0  0  0  0  0  0
  145.6289  132.4513  150.5944 C   0  0  0  0  0  0  0  0  0  0  0  0
  146.0328  133.7365  150.6868 N   0  0  0  0  0  0  0  0  0  0  0  0
  148.0147  140.5173  154.5892 C   0  0  0  0  0  0  0  0  0  0  0  0
  149.3826  141.1886  154.8021 C   0  0  0  0  0  0  0  0  0  0  0  0
  151.4042  143.8366  158.3850 H   0  0  0  0  0  0  0  0  0  0  0  0
  152.4490  142.8747  157.3458 H   0  0  0  0  0  0  0  0  0  0  0  0
  152.0545  142.3070  158.9662 H   0  0  0  0  0  0  0  0  0  0  0  0
  149.5971  142.1088  158.2386 H   0  0  0  0  0  0  0  0  0  0  0  0
  150.0840  142.6076  156.6339 H   0  0  0  0  0  0  0  0  0  0  0  0
  150.9585  139.1834  153.6757 H   0  0  0  0  0  0  0  0  0  0  0  0
  151.2090  138.3216  155.1737 H   0  0  0  0  0  0  0  0  0  0  0  0
  149.2891  137.3782  153.8765 H   0  0  0  0  0  0  0  0  0  0  0  0
  148.7707  137.9646  155.4342 H   0  0  0  0  0  0  0  0  0  0  0  0
  148.5269  139.4668  152.7827 H   0  0  0  0  0  0  0  0  0  0  0  0
  147.6300  137.0488  152.5536 H   0  0  0  0  0  0  0  0  0  0  0  0
  145.4627  135.8104  153.2557 H   0  0  0  0  0  0  0  0  0  0  0  0
  144.6577  137.2506  152.6936 H   0  0  0  0  0  0  0  0  0  0  0  0
  145.0324  136.7476  150.4567 H   0  0  0  0  0  0  0  0  0  0  0  0
  146.6388  136.1424  150.7509 H   0  0  0  0  0  0  0  0  0  0  0  0
  143.0272  135.1447  151.4253 H   0  0  0  0  0  0  0  0  0  0  0  0
  142.2979  132.7541  151.2466 H   0  0  0  0  0  0  0  0  0  0  0  0
  144.0165  131.0034  150.7068 H   0  0  0  0  0  0  0  0  0  0  0  0
  146.3935  131.7252  150.3611 H   0  0  0  0  0  0  0  0  0  0  0  0
  147.3538  141.2140  154.0720 H   0  0  0  0  0  0  0  0  0  0  0  0
  147.5428  140.3222  155.5515 H   0  0  0  0  0  0  0  0  0  0  0  0
  149.2761  142.0715  155.4311 H   0  0  0  0  0  0  0  0  0  0  0  0
  149.7639  141.5421  153.8435 H   0  0  0  0  0  0  0  0  0  0  0  0
  1  2  1  0  0  0  0
  1 23  1  0  0  0  0
  1 24  1  0  0  0  0
  1 25  1  0  0  0  0
  2  3  1  0  0  0  0
  2 26  1  0  0  0  0
  2 27  1  0  0  0  0
  3  4  2  0  0  0  0
  3  5  2  0  0  0  0
  3  6  1  0  0  0  0
  6 22  1  0  0  0  0
  6  7  1  0  0  0  0
  7  8  1  0  0  0  0
  7 28  1  0  0  0  0
  7 29  1  0  0  0  0
  8  9  1  0  0  0  0
  8 30  1  0  0  0  0
  8 31  1  0  0  0  0
  9 10  1  0  0  0  0
  9 21  1  0  0  0  0
  9 32  1  0  0  0  0
 10 11  2  0  0  0  0
 10 12  1  0  0  0  0
 12 13  1  0  0  0  0
 12 33  1  0  0  0  0
 13 14  1  0  0  0  0
 13 34  1  0  0  0  0
 13 35  1  0  0  0  0
 14 15  1  0  0  0  0
 14 36  1  0  0  0  0
 14 37  1  0  0  0  0
 15 20  1  0  0  0  0
 15 16  2  0  0  0  0
 16 17  1  0  0  0  0
 16 38  1  0  0  0  0
 17 18  2  0  0  0  0
 17 39  1  0  0  0  0
 18 19  1  0  0  0  0
 18 40  1  0  0  0  0
 19 20  2  0  0  0  0
 19 41  1  0  0  0  0
 21 22  1  0  0  0  0
 21 42  1  0  0  0  0
 21 43  1  0  0  0  0
 22 44  1  0  0  0  0
 22 45  1  0  0  0  0
M  END
> <s_m_source_file>
AV-unprocessed.smi

> <i_m_source_file_index>
303

> <i_lp_mmshare_version>
43012

> <i_f3d_flags>
0

> <s_epik_input>
W0NIM11bQ0gyXVMoPU8pKD1PKU4xW0NIMl1bQ0gyXVtDSF0oW0NIMl1bQ0gyXTEpQyg9TylbTkhdW0NIMl1bQ0gyXWMyW2NIXVtjSF1bY0hdW2NIXW4y

> <s_epik_cmdline>
J2VwaWtfcHl0aG9uJywgJy1waCcsICc3LjAnLCAnLXRuJywgJzgnLCAnLW1hJywgJzIwMCcsICctbWV0YWxfYmluZGluZycsICctaW1hZScsICc8aW5maWxlLm1hZT4nLCAnLW9tYWUnLCAnPG91dGZpbGUubWFlPic=

> <r_epik_Ionization_Penalty>
0.0277532

> <r_epik_Ionization_Penalty_Charging>
0

> <r_epik_Ionization_Penalty_Neutral>
0.0277532

> <r_epik_State_Penalty>
0.022734

> <r_epik_Charging_Adjusted_Penalty>
0.022734

> <i_epik_Tot_Q>
0

> <i_epik_Tot_abs_Q>
0

> <r_epik_Metal_State_Penalty>
0.021713

> <b_epik_Metal_Only>
0

> <s_lp_Force_Field>
OPLS_2005

> <r_lp_Energy>
1.72058

> <b_lp_Chiralities_Consistent>
1

> <s_lp_Variant>
AV-unprocessed.smi:303-1

> <Gold.Version>
5.8.1

> <Gold.Id.Protein>
6NUR|6NUR_protein|mol2

> <Gold.PLP.Fitness>
46.7086

> <Gold.PLP.PLP>
-39.0022

> <Gold.PLP.part.hbond>
-2.0000

> <Gold.PLP.part.metal>
0.0000

> <Gold.PLP.part.buried>
-2.8609

> <Gold.PLP.part.nonpolar>
-34.3210

> <Gold.PLP.part.repulsive>
0.3640

> <Gold.PLP.ligand.clash>
0.0000

> <Gold.PLP.ligand.torsion>
1.7582

> <Gold.PLP.Chemscore.Hbond>
2.0000

> <Gold.PLP.Chemscore.CHOScore>
1.0000

> <Gold.PLP.Chemscore.Metal>
0.0000

> <Gold.Chemscore.Hbonds>
donor molecule, donor type, donor heavy atom, donor atom, acceptor molecule, acceptor atom, score
      L1  H    12    33       P1  7948  1.00
      P1  H  7997  8009       L1     4  0.62
      L1  C    19    41       P1 10747  0.53

> <Gold.PLP.Chemscore.Internal.Correction>
2.2229

> <Gold.Rescore>
     Score         DG    S(hbond)    S(metal)    S(lipo)     H(rot)  DE(clash)    DE(int)     intcor
     17.12     -18.89       1.98        0.00      94.24       1.66       0.06       1.71       ----

> <Gold.Chemscore.Fitness>
17.1161

> <Gold.Chemscore.DG>
-18.8863

> <Gold.Chemscore.ZeroCoef>
-5.4800

> <Gold.Chemscore.Hbond>
1.9821

> <Gold.Chemscore.Metal>
0.0000

> <Gold.Chemscore.Lipo>
94.2416

> <Gold.Chemscore.Internal_Hbond>
0.0000

> <Gold.Chemscore.DEClash>
0.0625

> <Gold.Chemscore.DEInternal>
1.7078

> <Gold.Chemscore.Rot>
1.6563

> <Gold.Chemscore.Internal.Correction>
   9.000000E+99

> <Gold.Chemscore.Hbonds>
donor molecule, donor type, donor heavy atom, donor atom, acceptor molecule, acceptor atom, score
      L1  H    12    33       P1  7948  1.00
      P1  H  7997  8009       L1     4  0.61

> <Gold.Chemscore.Hbond.Weighted>
-6.6201

> <Gold.Chemscore.Metal.Weighted>
-0.0000

> <Gold.Chemscore.Lipo.Weighted>
-11.0263

> <Gold.Chemscore.Internal_Hbond.Weighted>
0.0000

> <Gold.Chemscore.DEClash.Weighted>
0.0625

> <Gold.Chemscore.DEInternal.Weighted>
1.7078

> <Gold.Chemscore.Rot.Weighted>
4.2401

> <Gold.Chemscore.Internal.Correction.Weighted>
   9.000000E+99

> <Gold.Protein.RotatedTorsions>
[ 6907 6896 6895 6894 ] final  161.19 input  -60.11 | X-H torsion
[ 7974 7965 7964 7962 ] final   51.02 input  175.53 | X-H torsion
[ 8008 7997 7996 7995 ] final -171.02 input   59.86 | X-H torsion
[ 10167 10162 10161 10158 ] final  -91.96 input  -65.29 | X-H torsion
[ 10718 10713 10712 10709 ] final   53.32 input   66.30 | X-H torsion
[ 10763 10752 10751 10750 ] final  110.46 input  -60.55 | X-H torsion
[ 11005 11000 10999 10996 ] final  119.72 input  -57.11 | X-H torsion

> <Gold.Protein.ActiveResidues>
 VAL166  LYS551  ARG553  GLY616  TRP617  ASP618  TYR619  PRO620  LYS621  CYS622 
 ASP623  PHE694  ASN695  SER759  ASP760  ASP761  ALA762  ILE779  LEU786  VAL792 
 PHE793  MET794  SER795  GLU796  ALA797  LYS798  CYS799  TRP800  GLU811  SER814 

> <Gold.Protein.RotatedAtoms>
  151.9594  133.3690  159.4029 H   0  0  0  0  0  0  0  0  0  0  0  0  # atno 6907 bound_to 6896
  150.6967  134.4257  159.5234 H   0  0  0  0  0  0  0  0  0  0  0  0  # atno 6908 bound_to 6896
  152.1943  134.8644  160.0565 H   0  0  0  0  0  0  0  0  0  0  0  0  # atno 6909 bound_to 6896
  145.9955  139.4383  143.0047 H   0  0  0  0  0  0  0  0  0  0  0  0  # atno 7974 bound_to 7965
  155.9261  140.1083  157.1169 H   0  0  0  0  0  0  0  0  0  0  0  0  # atno 8008 bound_to 7997
  154.4062  140.1246  156.4807 H   0  0  0  0  0  0  0  0  0  0  0  0  # atno 8009 bound_to 7997
  155.7137  140.3470  155.4987 H   0  0  0  0  0  0  0  0  0  0  0  0  # atno 8010 bound_to 7997
  140.3396  143.2949  151.9850 H   0  0  0  0  0  0  0  0  0  0  0  0  # atno 10167 bound_to 10162
  157.5156  130.8530  149.8491 H   0  0  0  0  0  0  0  0  0  0  0  0  # atno 10718 bound_to 10713
  153.4492  135.3748  155.2274 H   0  0  0  0  0  0  0  0  0  0  0  0  # atno 10763 bound_to 10752
  154.8756  135.3882  154.4058 H   0  0  0  0  0  0  0  0  0  0  0  0  # atno 10764 bound_to 10752
  153.4615  135.7086  153.6111 H   0  0  0  0  0  0  0  0  0  0  0  0  # atno 10765 bound_to 10752
  139.9157  134.9630  156.7698 H   0  0  0  0  0  0  0  0  0  0  0  0  # atno 11005 bound_to 11000
  145.7566  140.9951  143.1222 LP  0  0  0  0  0  0  0  0  0  0  0  0  # atno 17320 bound_to 7965
  144.6902  139.9280  143.7470 LP  0  0  0  0  0  0  0  0  0  0  0  0  # atno 17321 bound_to 7965
  139.4842  144.6167  151.7332 LP  0  0  0  0  0  0  0  0  0  0  0  0  # atno 17342 bound_to 10162
  140.5321  144.0714  150.6057 LP  0  0  0  0  0  0  0  0  0  0  0  0  # atno 17343 bound_to 10162
  156.0318  130.3762  150.1667 LP  0  0  0  0  0  0  0  0  0  0  0  0  # atno 17370 bound_to 10713
  156.9856  130.9877  151.3427 LP  0  0  0  0  0  0  0  0  0  0  0  0  # atno 17371 bound_to 10713
  140.6630  133.9628  155.7815 LP  0  0  0  0  0  0  0  0  0  0  0  0  # atno 17394 bound_to 11000
  141.0630  134.0318  157.3632 LP  0  0  0  0  0  0  0  0  0  0  0  0  # atno 17395 bound_to 11000

$$$$
