AV-unprocessed.smi:160|AV-procd|sdf|1369|dock6
  -GOLD-   2262019 83D 1   1.00000     0.00000
 Structure written by MMmdl.
 28 29  0  0  0  0  0  0  0  0  2 V2000
  152.0556  137.0971  153.7757 N   0  5  0  0  0  0  0  0  0  0  0  0
  152.6987  138.1202  154.3791 C   0  0  0  0  0  0  0  0  0  0  0  0
  153.9174  138.2832  154.4322 O   0  0  0  0  0  0  0  0  0  0  0  0
  151.7898  139.1344  155.0322 C   0  0  0  0  0  0  0  0  0  0  0  0
  152.2733  139.9968  155.9774 N   0  0  0  0  0  0  0  0  0  0  0  0
  151.1599  140.6660  156.2437 C   0  0  0  0  0  0  0  0  0  0  0  0
  150.0979  140.2687  155.5372 N   0  0  0  0  0  0  0  0  0  0  0  0
  148.6867  140.7777  155.5648 C   0  0  2  0  0  0  0  0  0  0  0  0
  147.8292  139.6950  155.7692 O   0  0  0  0  0  0  0  0  0  0  0  0
  147.2162  139.3279  154.5380 C   0  0  1  0  0  0  0  0  0  0  0  0
  145.9385  138.5030  154.7746 C   0  0  0  0  0  0  0  0  0  0  0  0
  145.2053  138.3838  153.5744 O   0  0  0  0  0  0  0  0  0  0  0  0
  147.0102  140.6855  153.8504 C   0  0  1  0  0  0  0  0  0  0  0  0
  145.8419  141.3271  154.3307 O   0  0  0  0  0  0  0  0  0  0  0  0
  148.2506  141.4769  154.2531 C   0  0  2  0  0  0  0  0  0  0  0  0
  149.2136  141.4389  153.2143 O   0  0  0  0  0  0  0  0  0  0  0  0
  150.4919  139.2493  154.7333 N   0  0  0  0  0  0  0  0  0  0  0  0
  148.6564  141.4380  156.4322 H   0  0  0  0  0  0  0  0  0  0  0  0
  147.9246  138.7496  153.9421 H   0  0  0  0  0  0  0  0  0  0  0  0
  146.9121  140.5784  152.7690 H   0  0  0  0  0  0  0  0  0  0  0  0
  148.0195  142.5225  154.4614 H   0  0  0  0  0  0  0  0  0  0  0  0
  151.8272  137.1841  152.7781 H   0  0  0  0  0  0  0  0  0  0  0  0
  151.1182  141.4665  156.9675 H   0  0  0  0  0  0  0  0  0  0  0  0
  146.1701  137.5151  155.1740 H   0  0  0  0  0  0  0  0  0  0  0  0
  145.2962  139.0057  155.4982 H   0  0  0  0  0  0  0  0  0  0  0  0
  144.6449  139.1394  153.4866 H   0  0  0  0  0  0  0  0  0  0  0  0
  145.1125  141.0626  153.7914 H   0  0  0  0  0  0  0  0  0  0  0  0
  148.9598  140.7757  152.5912 H   0  0  0  0  0  0  0  0  0  0  0  0
  1  2  1  0  0  0  0
  1 22  1  0  0  0  0
  2  3  2  0  0  0  0
  2  4  1  0  0  0  0
  4 17  2  0  0  0  0
  4  5  1  0  0  0  0
  5  6  2  0  0  0  0
  6  7  1  0  0  0  0
  6 23  1  0  0  0  0
  7  8  1  0  0  0  0
  7 17  1  0  0  0  0
  8 18  1  0  0  0  0
  8 15  1  0  0  0  0
  8  9  1  0  0  0  0
  9 10  1  0  0  0  0
 10 19  1  0  0  0  0
 10 11  1  0  0  0  0
 10 13  1  0  0  0  0
 11 12  1  0  0  0  0
 11 24  1  0  0  0  0
 11 25  1  0  0  0  0
 12 26  1  0  0  0  0
 13 20  1  0  0  0  0
 13 14  1  0  0  0  0
 13 15  1  0  0  0  0
 14 27  1  0  0  0  0
 15 21  1  0  0  0  0
 15 16  1  0  0  0  0
 16 28  1  0  0  0  0
M  CHG  1   1  -1
M  END
> <s_m_source_file>
AV-unprocessed.smi

> <i_m_source_file_index>
160

> <i_lp_mmshare_version>
43012

> <i_f3d_flags>
0

> <s_epik_input>
W05IMl1DKD1PKWMxbltjSF1uKG4xKVtDQEBIXTJPW0NASF0oW0NIMl1bT0hdKVtDQEBIXShbT0hdKVtDQEhdMltPSF0=

> <s_epik_cmdline>
J2VwaWtfcHl0aG9uJywgJy1waCcsICc3LjAnLCAnLXRuJywgJzgnLCAnLW1hJywgJzIwMCcsICctbWV0YWxfYmluZGluZycsICctaW1hZScsICc8aW5maWxlLm1hZT4nLCAnLW9tYWUnLCAnPG91dGZpbGUubWFlPic=

> <r_lp_tautomer_probability>
1

> <r_epik_Ionization_Penalty>
6.6993

> <r_epik_Ionization_Penalty_Charging>
6.6993

> <r_epik_Ionization_Penalty_Neutral>
6.01698e-06

> <r_epik_State_Penalty>
6.69929

> <r_epik_Charging_Adjusted_Penalty>
13.3986

> <i_epik_Tot_Q>
-1

> <i_epik_Tot_abs_Q>
1

> <r_epik_Metal_State_Penalty>
2.62798

> <b_epik_Metal_Only>
1

> <s_epik_Chemistry_Notes>
This compound contains an acetal/aminal-like group ( X-CH(R)-Y where X, Y are N, S, or O) that may be acid/base labile, releasing an aldehyde.

> <s_lp_Force_Field>
OPLS_2005

> <r_lp_Energy>
46.3304

> <b_lp_Chiralities_Consistent>
1

> <s_lp_Variant>
AV-unprocessed.smi:160-27

> <Gold.Version>
5.8.1

> <Gold.Id.Protein>
6NUR|6NUR_protein|mol2

> <Gold.PLP.Fitness>
48.7784

> <Gold.PLP.PLP>
-27.6414

> <Gold.PLP.part.hbond>
-8.7054

> <Gold.PLP.part.metal>
0.0000

> <Gold.PLP.part.buried>
-2.7493

> <Gold.PLP.part.nonpolar>
-16.3463

> <Gold.PLP.part.repulsive>
0.1217

> <Gold.PLP.ligand.clash>
0.0000

> <Gold.PLP.ligand.torsion>
0.2993

> <Gold.PLP.Chemscore.Hbond>
7.2430

> <Gold.PLP.Chemscore.CHOScore>
0.0000

> <Gold.PLP.Chemscore.Metal>
0.0000

> <Gold.Chemscore.Hbonds>
donor molecule, donor type, donor heavy atom, donor atom, acceptor molecule, acceptor atom, score
      L1  H     1    22       P1  7949  0.69
      L1  H    12    26       P1 10175  1.00
      L1  H    14    27       P1 10175  1.00
      L1  H    16    28       P1  7957  0.75
      P1  H  7997  8010       L1     5  0.86
      P1  H  8011  8017       L1    16  0.76
      P1  H 10752 10763       L1     1  2.00

> <Gold.PLP.Chemscore.Internal.Correction>
0.0065

> <Gold.Rescore>
     Score         DG    S(hbond)    S(metal)    S(lipo)     H(rot)  DE(clash)    DE(int)     intcor
     12.21     -13.91       5.01        0.00      17.44       4.04       0.34       1.37       ----

> <Gold.Chemscore.Fitness>
12.2095

> <Gold.Chemscore.DG>
-13.9149

> <Gold.Chemscore.ZeroCoef>
-5.4800

> <Gold.Chemscore.Hbond>
5.0112

> <Gold.Chemscore.Metal>
0.0000

> <Gold.Chemscore.Lipo>
17.4403

> <Gold.Chemscore.Internal_Hbond>
0.0000

> <Gold.Chemscore.DEClash>
0.3354

> <Gold.Chemscore.DEInternal>
1.3700

> <Gold.Chemscore.Rot>
4.0403

> <Gold.Chemscore.Internal.Correction>
   9.000000E+99

> <Gold.Chemscore.Hbonds>
donor molecule, donor type, donor heavy atom, donor atom, acceptor molecule, acceptor atom, score
      L1  H     1    22       P1  7949  0.68
      L1  H    12    26       P1 10175  0.97
      L1  H    14    27       P1 10175  0.70
      L1  H    16    28       P1  7957  0.76
      P1  H  7997  8010       L1     5  0.80
      P1  H  8011  8017       L1    16  0.19
      P1  H 10752 10763       L1     1  0.29

> <Gold.Chemscore.Hbond.Weighted>
-16.7374

> <Gold.Chemscore.Metal.Weighted>
-0.0000

> <Gold.Chemscore.Lipo.Weighted>
-2.0405

> <Gold.Chemscore.Internal_Hbond.Weighted>
0.0000

> <Gold.Chemscore.DEClash.Weighted>
0.3354

> <Gold.Chemscore.DEInternal.Weighted>
1.3700

> <Gold.Chemscore.Rot.Weighted>
10.3431

> <Gold.Chemscore.Internal.Correction.Weighted>
   9.000000E+99

> <Gold.Protein.RotatedTorsions>
[ 6907 6896 6895 6894 ] final   57.66 input  -60.11 | X-H torsion
[ 7974 7965 7964 7962 ] final  -63.09 input  175.53 | X-H torsion
[ 8008 7997 7996 7995 ] final   84.79 input   59.86 | X-H torsion
[ 10167 10162 10161 10158 ] final  150.16 input  -65.29 | X-H torsion
[ 10718 10713 10712 10709 ] final  149.35 input   66.30 | X-H torsion
[ 10763 10752 10751 10750 ] final   16.47 input  -60.55 | X-H torsion
[ 11005 11000 10999 10996 ] final -104.45 input  -57.11 | X-H torsion

> <Gold.Protein.ActiveResidues>
 VAL166  LYS551  ARG553  GLY616  TRP617  ASP618  TYR619  PRO620  LYS621  CYS622 
 ASP623  PHE694  ASN695  SER759  ASP760  ASP761  ALA762  ILE779  LEU786  VAL792 
 PHE793  MET794  SER795  GLU796  ALA797  LYS798  CYS799  TRP800  GLU811  SER814 

> <Gold.Protein.RotatedAtoms>
  152.3752  134.6674  160.0162 H   0  0  0  0  0  0  0  0  0  0  0  0  # atno 6907 bound_to 6896
  151.6955  133.3305  159.3261 H   0  0  0  0  0  0  0  0  0  0  0  0  # atno 6908 bound_to 6896
  150.7704  134.6597  159.6377 H   0  0  0  0  0  0  0  0  0  0  0  0  # atno 6909 bound_to 6896
  145.7833  140.8750  143.0319 H   0  0  0  0  0  0  0  0  0  0  0  0  # atno 7974 bound_to 7965
  155.9417  140.3407  155.6333 H   0  0  0  0  0  0  0  0  0  0  0  0  # atno 8008 bound_to 7997
  155.7031  140.0762  157.2420 H   0  0  0  0  0  0  0  0  0  0  0  0  # atno 8009 bound_to 7997
  154.4104  140.1636  156.2201 H   0  0  0  0  0  0  0  0  0  0  0  0  # atno 8010 bound_to 7997
  139.4853  144.5544  151.7343 H   0  0  0  0  0  0  0  0  0  0  0  0  # atno 10167 bound_to 10162
  157.2972  131.0864  151.1418 H   0  0  0  0  0  0  0  0  0  0  0  0  # atno 10718 bound_to 10713
  153.1428  135.6763  153.9001 H   0  0  0  0  0  0  0  0  0  0  0  0  # atno 10763 bound_to 10752
  153.8453  135.3100  155.3430 H   0  0  0  0  0  0  0  0  0  0  0  0  # atno 10764 bound_to 10752
  154.7801  135.4893  153.9910 H   0  0  0  0  0  0  0  0  0  0  0  0  # atno 10765 bound_to 10752
  141.1100  133.8724  157.1613 H   0  0  0  0  0  0  0  0  0  0  0  0  # atno 11005 bound_to 11000
  144.6793  140.0019  143.7484 LP  0  0  0  0  0  0  0  0  0  0  0  0  # atno 17320 bound_to 7965
  146.0052  139.3124  143.0903 LP  0  0  0  0  0  0  0  0  0  0  0  0  # atno 17321 bound_to 7965
  140.5104  144.1034  150.5993 LP  0  0  0  0  0  0  0  0  0  0  0  0  # atno 17342 bound_to 10162
  140.3958  143.2729  152.0006 LP  0  0  0  0  0  0  0  0  0  0  0  0  # atno 17343 bound_to 10162
  157.2791  130.6741  149.6057 LP  0  0  0  0  0  0  0  0  0  0  0  0  # atno 17370 bound_to 10713
  155.9669  130.4455  150.5505 LP  0  0  0  0  0  0  0  0  0  0  0  0  # atno 17371 bound_to 10713
  139.9988  135.0036  157.0144 LP  0  0  0  0  0  0  0  0  0  0  0  0  # atno 17394 bound_to 11000
  140.4801  134.1298  155.7215 LP  0  0  0  0  0  0  0  0  0  0  0  0  # atno 17395 bound_to 11000

$$$$
