AV-unprocessed.smi:288|AV-procd|sdf|2209|dock6
  -GOLD-   2262022 43D 1   1.00000     0.00000
 Structure written by MMmdl.
 33 34  0  0  0  0  0  0  0  0  1 V2000
  153.2572  137.8283  157.3538 O   0  0  0  0  0  0  0  0  0  0  0  0
  152.7792  138.9204  157.6656 C   0  0  0  0  0  0  0  0  0  0  0  0
  152.8344  139.4652  159.0171 C   0  0  0  0  0  0  0  0  0  0  0  0
  153.4225  138.7552  159.9951 F   0  0  0  0  0  0  0  0  0  0  0  0
  152.3110  140.6765  159.3052 C   0  0  0  0  0  0  0  0  0  0  0  0
  151.6979  141.4832  158.3576 N   0  0  0  0  0  0  0  0  0  0  0  0
  151.0914  142.8333  158.6875 C   0  0  2  0  0  0  0  0  0  0  0  0
  151.7231  144.0336  157.9759 C   0  0  0  0  0  0  0  0  0  0  0  0
  151.2905  145.1435  158.9049 C   0  0  0  0  0  0  0  0  0  0  0  0
  151.4599  144.4778  160.2699 C   0  0  0  0  0  0  0  0  0  0  0  0
  151.2777  143.0794  160.0500 O   0  0  0  0  0  0  0  0  0  0  0  0
  151.6156  141.0386  157.0184 C   0  0  0  0  0  0  0  0  0  0  0  0
  151.1114  141.7515  156.1473 O   0  0  0  0  0  0  0  0  0  0  0  0
  152.1408  139.7596  156.7206 N   0  0  0  0  0  0  0  0  0  0  0  0
  152.0533  139.2880  155.3480 C   0  0  0  0  0  0  0  0  0  0  0  0
  151.4120  137.8878  155.2222 C   0  0  2  0  0  0  0  0  0  0  0  0
  151.8575  137.2956  154.0171 O   0  0  0  0  0  0  0  0  0  0  0  0
  149.8723  137.9480  155.1802 C   0  0  0  0  0  0  0  0  0  0  0  0
  149.4027  138.5224  156.2880 F   0  0  0  0  0  0  0  0  0  0  0  0
  149.4856  138.6885  154.1411 F   0  0  0  0  0  0  0  0  0  0  0  0
  149.3490  136.7279  155.0521 F   0  0  0  0  0  0  0  0  0  0  0  0
  152.4101  141.0087  160.3256 H   0  0  0  0  0  0  0  0  0  0  0  0
  150.0277  142.7395  158.4590 H   0  0  0  0  0  0  0  0  0  0  0  0
  152.8114  143.9752  157.9946 H   0  0  0  0  0  0  0  0  0  0  0  0
  151.3646  144.1348  156.9513 H   0  0  0  0  0  0  0  0  0  0  0  0
  151.8835  146.0521  158.7970 H   0  0  0  0  0  0  0  0  0  0  0  0
  150.2426  145.3931  158.7310 H   0  0  0  0  0  0  0  0  0  0  0  0
  152.4677  144.6393  160.6544 H   0  0  0  0  0  0  0  0  0  0  0  0
  150.7514  144.8598  161.0052 H   0  0  0  0  0  0  0  0  0  0  0  0
  151.4774  140.0372  154.8023 H   0  0  0  0  0  0  0  0  0  0  0  0
  153.0441  139.3389  154.8929 H   0  0  0  0  0  0  0  0  0  0  0  0
  151.7136  137.2511  156.0550 H   0  0  0  0  0  0  0  0  0  0  0  0
  151.1028  137.0882  153.4875 H   0  0  0  0  0  0  0  0  0  0  0  0
  1  2  2  0  0  0  0
  2 14  1  0  0  0  0
  2  3  1  0  0  0  0
  3  4  1  0  0  0  0
  3  5  2  0  0  0  0
  5  6  1  0  0  0  0
  5 22  1  0  0  0  0
  6  7  1  0  0  0  0
  6 12  1  0  0  0  0
  7 11  1  0  0  0  0
  7  8  1  0  0  0  0
  7 23  1  0  0  0  0
  8  9  1  0  0  0  0
  8 24  1  0  0  0  0
  8 25  1  0  0  0  0
  9 10  1  0  0  0  0
  9 26  1  0  0  0  0
  9 27  1  0  0  0  0
 10 11  1  0  0  0  0
 10 28  1  0  0  0  0
 10 29  1  0  0  0  0
 12 13  2  0  0  0  0
 12 14  1  0  0  0  0
 14 15  1  0  0  0  0
 15 16  1  0  0  0  0
 15 30  1  0  0  0  0
 15 31  1  0  0  0  0
 16 17  1  0  0  0  0
 16 18  1  0  0  0  0
 16 32  1  0  0  0  0
 17 33  1  0  0  0  0
 18 19  1  0  0  0  0
 18 20  1  0  0  0  0
 18 21  1  0  0  0  0
M  END
> <s_m_source_file>
AV-unprocessed.smi

> <i_m_source_file_index>
288

> <i_lp_mmshare_version>
43012

> <i_f3d_flags>
0

> <s_epik_input>
TzFbQ0gyXVtDSDJdW0NIMl1bQ0BIXTFuKFtjSF1jKEYpYzI9TyljKD1PKW4yW0NIMl1bQ0BIXShbT0hdKUMoRikoRilG

> <s_epik_cmdline>
J2VwaWtfcHl0aG9uJywgJy1waCcsICc3LjAnLCAnLXRuJywgJzgnLCAnLW1hJywgJzIwMCcsICctbWV0YWxfYmluZGluZycsICctaW1hZScsICc8aW5maWxlLm1hZT4nLCAnLW9tYWUnLCAnPG91dGZpbGUubWFlPic=

> <r_lp_tautomer_probability>
1

> <r_epik_Ionization_Penalty>
0.000551119

> <r_epik_Ionization_Penalty_Charging>
2.51184e-08

> <r_epik_Ionization_Penalty_Neutral>
0.000551094

> <r_epik_State_Penalty>
0.000345115

> <r_epik_Charging_Adjusted_Penalty>
0.00034514

> <i_epik_Tot_Q>
0

> <i_epik_Tot_abs_Q>
0

> <r_epik_Metal_State_Penalty>
-0

> <b_epik_Metal_Only>
0

> <s_epik_Chemistry_Notes>
This compound contains an acetal/aminal-like group ( X-CH(R)-Y where X, Y are N, S, or O) that may be acid/base labile, releasing an aldehyde.

> <s_lp_Force_Field>
OPLS_2005

> <r_lp_Energy>
36.863

> <b_lp_Chiralities_Consistent>
1

> <s_lp_Variant>
AV-unprocessed.smi:288-1

> <Gold.Version>
5.8.1

> <Gold.Id.Protein>
6NUR|6NUR_protein|mol2

> <Gold.PLP.Fitness>
40.9683

> <Gold.PLP.PLP>
-37.9072

> <Gold.PLP.part.hbond>
-2.7333

> <Gold.PLP.part.metal>
0.0000

> <Gold.PLP.part.buried>
-2.1288

> <Gold.PLP.part.nonpolar>
-30.6481

> <Gold.PLP.part.repulsive>
0.0983

> <Gold.PLP.ligand.clash>
0.0000

> <Gold.PLP.ligand.torsion>
0.3200

> <Gold.PLP.Chemscore.Hbond>
1.2298

> <Gold.PLP.Chemscore.CHOScore>
0.0000

> <Gold.PLP.Chemscore.Metal>
0.0000

> <Gold.Chemscore.Hbonds>
donor molecule, donor type, donor heavy atom, donor atom, acceptor molecule, acceptor atom, score
      L1  H    17    33       P1  7949  0.19
      P1  H 10752 10763       L1    17  1.00

> <Gold.PLP.Chemscore.Internal.Correction>
0.0116

> <Gold.Rescore>
     Score         DG    S(hbond)    S(metal)    S(lipo)     H(rot)  DE(clash)    DE(int)     intcor
      7.82     -10.28       0.99        0.00      68.88       2.57       0.03       2.43       ----

> <Gold.Chemscore.Fitness>
7.8192

> <Gold.Chemscore.DG>
-10.2767

> <Gold.Chemscore.ZeroCoef>
-5.4800

> <Gold.Chemscore.Hbond>
0.9898

> <Gold.Chemscore.Metal>
0.0000

> <Gold.Chemscore.Lipo>
68.8784

> <Gold.Chemscore.Internal_Hbond>
0.0000

> <Gold.Chemscore.DEClash>
0.0287

> <Gold.Chemscore.DEInternal>
2.4288

> <Gold.Chemscore.Rot>
2.5656

> <Gold.Chemscore.Internal.Correction>
   9.000000E+99

> <Gold.Chemscore.Hbonds>
donor molecule, donor type, donor heavy atom, donor atom, acceptor molecule, acceptor atom, score
      L1  H    17    33       P1  7949  0.08
      P1  H 10752 10763       L1    17  0.61

> <Gold.Chemscore.Hbond.Weighted>
-3.3058

> <Gold.Chemscore.Metal.Weighted>
-0.0000

> <Gold.Chemscore.Lipo.Weighted>
-8.0588

> <Gold.Chemscore.Internal_Hbond.Weighted>
0.0000

> <Gold.Chemscore.DEClash.Weighted>
0.0287

> <Gold.Chemscore.DEInternal.Weighted>
2.4288

> <Gold.Chemscore.Rot.Weighted>
6.5679

> <Gold.Chemscore.Internal.Correction.Weighted>
   9.000000E+99

> <Gold.Protein.RotatedTorsions>
[ 6907 6896 6895 6894 ] final  -54.99 input  -60.11 | X-H torsion
[ 7974 7965 7964 7962 ] final  105.34 input  175.53 | X-H torsion
[ 8008 7997 7996 7995 ] final  -90.46 input   59.86 | X-H torsion
[ 10167 10162 10161 10158 ] final -117.13 input  -65.29 | X-H torsion
[ 10718 10713 10712 10709 ] final  115.83 input   66.30 | X-H torsion
[ 10763 10752 10751 10750 ] final   29.32 input  -60.55 | X-H torsion
[ 11005 11000 10999 10996 ] final   55.82 input  -57.11 | X-H torsion

> <Gold.Protein.ActiveResidues>
 VAL166  LYS551  ARG553  GLY616  TRP617  ASP618  TYR619  PRO620  LYS621  CYS622 
 ASP623  PHE694  ASN695  SER759  ASP760  ASP761  ALA762  ILE779  LEU786  VAL792 
 PHE793  MET794  SER795  GLU796  ALA797  LYS798  CYS799  TRP800  GLU811  SER814 

> <Gold.Protein.RotatedAtoms>
  150.8290  134.7535  159.6837 H   0  0  0  0  0  0  0  0  0  0  0  0  # atno 6907 bound_to 6896
  152.4397  134.5612  159.9904 H   0  0  0  0  0  0  0  0  0  0  0  0  # atno 6908 bound_to 6896
  151.5777  133.3344  159.3038 H   0  0  0  0  0  0  0  0  0  0  0  0  # atno 6909 bound_to 6896
  145.3210  139.2513  143.3712 H   0  0  0  0  0  0  0  0  0  0  0  0  # atno 7974 bound_to 7965
  154.6988  140.0530  157.0437 H   0  0  0  0  0  0  0  0  0  0  0  0  # atno 8008 bound_to 7997
  155.0714  140.3200  155.4610 H   0  0  0  0  0  0  0  0  0  0  0  0  # atno 8009 bound_to 7997
  156.2753  140.2081  156.5841 H   0  0  0  0  0  0  0  0  0  0  0  0  # atno 8010 bound_to 7997
  140.0717  143.4871  152.1976 H   0  0  0  0  0  0  0  0  0  0  0  0  # atno 10167 bound_to 10162
  157.6198  131.1017  150.7386 H   0  0  0  0  0  0  0  0  0  0  0  0  # atno 10718 bound_to 10713
  153.0437  135.6492  154.0873 H   0  0  0  0  0  0  0  0  0  0  0  0  # atno 10763 bound_to 10752
  154.0574  135.2890  155.3332 H   0  0  0  0  0  0  0  0  0  0  0  0  # atno 10764 bound_to 10752
  154.6680  135.5367  153.8167 H   0  0  0  0  0  0  0  0  0  0  0  0  # atno 10765 bound_to 10752
  140.0577  134.5647  155.9189 H   0  0  0  0  0  0  0  0  0  0  0  0  # atno 11005 bound_to 11000
  146.3082  140.3767  142.8679 LP  0  0  0  0  0  0  0  0  0  0  0  0  # atno 17320 bound_to 7965
  144.8940  140.7559  143.5909 LP  0  0  0  0  0  0  0  0  0  0  0  0  # atno 17321 bound_to 7965
  139.5832  144.7520  151.3586 LP  0  0  0  0  0  0  0  0  0  0  0  0  # atno 17342 bound_to 10162
  140.7122  143.7360  150.7588 LP  0  0  0  0  0  0  0  0  0  0  0  0  # atno 17343 bound_to 10162
  156.7746  130.4839  149.5412 LP  0  0  0  0  0  0  0  0  0  0  0  0  # atno 17370 bound_to 10713
  156.1337  130.6196  151.0370 LP  0  0  0  0  0  0  0  0  0  0  0  0  # atno 17371 bound_to 10713
  141.1959  133.6589  156.5666 LP  0  0  0  0  0  0  0  0  0  0  0  0  # atno 17394 bound_to 11000
  140.3819  134.7516  157.4666 LP  0  0  0  0  0  0  0  0  0  0  0  0  # atno 17395 bound_to 11000

$$$$
