AV-unprocessed.smi:234|AV-procd|sdf|1790|dock6
  -GOLD-   2262020353D 1   1.00000     0.00000
 Structure written by MMmdl.
 59 62  0  0  0  0  0  0  0  0  1 V2000
  151.3959  143.1089  159.3999 C   0  0  0  0  0  0  0  0  0  0  0  0
  151.6899  142.2515  158.1670 C   0  0  0  0  0  0  0  0  0  0  0  0
  150.5326  141.4985  157.8466 O   0  0  0  0  0  0  0  0  0  0  0  0
  150.5188  141.0521  156.4994 C   0  0  1  0  0  0  0  0  0  0  0  0
  151.2024  139.7018  156.2685 C   0  0  0  0  0  0  0  0  0  0  0  0
  150.0817  139.4383  155.2593 C   0  0  1  0  0  0  0  0  0  0  0  0
  149.6370  138.0427  155.2211 N   0  0  0  0  0  0  0  0  0  0  0  0
  150.5945  137.0707  154.7094 C   0  0  0  0  0  0  0  0  0  0  0  0
  148.4151  137.8352  154.6770 C   0  0  0  0  0  0  0  0  0  0  0  0
  147.8003  138.8245  153.9756 N   0  0  0  0  0  0  0  0  0  0  0  0
  146.5933  138.6148  153.4416 C   0  0  0  0  0  0  0  0  0  0  0  0
  145.8408  137.5130  153.4850 N   0  0  0  0  0  0  0  0  0  0  0  0
  146.4605  136.5174  154.1820 C   0  0  0  0  0  0  0  0  0  0  0  0
  147.7405  136.5916  154.7978 C   0  0  0  0  0  0  0  0  0  0  0  0
  148.0457  135.3841  155.4127 N   0  0  0  0  0  0  0  0  0  0  0  0
  147.0009  134.6379  155.1774 C   0  0  0  0  0  0  0  0  0  0  0  0
  145.9981  135.2417  154.4518 N   0  0  0  0  0  0  0  0  0  0  0  0
  144.7301  134.6508  154.0558 C   0  0  0  0  0  0  0  0  0  0  0  0
  144.7854  133.9338  152.6856 C   0  0  2  0  0  0  0  0  0  0  0  0
  143.4738  133.5235  152.3317 O   0  0  0  0  0  0  0  0  0  0  0  0
  145.6868  132.7077  152.6637 C   0  0  0  0  0  0  0  0  0  0  0  0
  146.0547  132.5962  151.1897 C   0  0  0  0  0  0  0  0  0  0  0  0
  146.2008  133.9419  150.7589 O   0  0  0  0  0  0  0  0  0  0  0  0
  145.4106  134.8073  151.5732 C   0  0  1  0  0  0  0  0  0  0  0  0
  144.4353  135.6264  150.7122 C   0  0  0  0  0  0  0  0  0  0  0  0
  149.1763  140.4029  156.0806 C   0  0  0  0  0  0  0  0  0  0  0  0
  148.3475  139.8012  157.2307 C   0  0  0  0  0  0  0  0  0  0  0  0
  148.2391  141.3032  155.2761 C   0  0  0  0  0  0  0  0  0  0  0  0
  152.2678  143.6998  159.6802 H   0  0  0  0  0  0  0  0  0  0  0  0
  151.1246  142.4865  160.2530 H   0  0  0  0  0  0  0  0  0  0  0  0
  150.5717  143.7971  159.2107 H   0  0  0  0  0  0  0  0  0  0  0  0
  151.9671  142.8897  157.3269 H   0  0  0  0  0  0  0  0  0  0  0  0
  152.5314  141.5878  158.3699 H   0  0  0  0  0  0  0  0  0  0  0  0
  150.8457  141.8175  155.7910 H   0  0  0  0  0  0  0  0  0  0  0  0
  152.2007  139.7650  155.8352 H   0  0  0  0  0  0  0  0  0  0  0  0
  151.1791  139.0489  157.1428 H   0  0  0  0  0  0  0  0  0  0  0  0
  150.3366  139.8461  154.2786 H   0  0  0  0  0  0  0  0  0  0  0  0
  150.1907  136.0579  154.7446 H   0  0  0  0  0  0  0  0  0  0  0  0
  151.5066  137.0808  155.3058 H   0  0  0  0  0  0  0  0  0  0  0  0
  150.8600  137.2990  153.6766 H   0  0  0  0  0  0  0  0  0  0  0  0
  146.1690  139.4499  152.9042 H   0  0  0  0  0  0  0  0  0  0  0  0
  146.9301  133.6209  155.5347 H   0  0  0  0  0  0  0  0  0  0  0  0
  144.4147  133.9546  154.8341 H   0  0  0  0  0  0  0  0  0  0  0  0
  143.9819  135.4445  154.0366 H   0  0  0  0  0  0  0  0  0  0  0  0
  143.1699  132.9007  152.9743 H   0  0  0  0  0  0  0  0  0  0  0  0
  146.5913  132.8933  153.2447 H   0  0  0  0  0  0  0  0  0  0  0  0
  145.2149  131.8064  153.0571 H   0  0  0  0  0  0  0  0  0  0  0  0
  146.9660  132.0212  151.0246 H   0  0  0  0  0  0  0  0  0  0  0  0
  145.2479  132.1272  150.6247 H   0  0  0  0  0  0  0  0  0  0  0  0
  146.1201  135.4994  152.0287 H   0  0  0  0  0  0  0  0  0  0  0  0
  143.8222  136.2827  151.3304 H   0  0  0  0  0  0  0  0  0  0  0  0
  143.7697  134.9842  150.1349 H   0  0  0  0  0  0  0  0  0  0  0  0
  144.9794  136.2518  150.0042 H   0  0  0  0  0  0  0  0  0  0  0  0
  147.4666  139.2743  156.8634 H   0  0  0  0  0  0  0  0  0  0  0  0
  147.9943  140.5752  157.9127 H   0  0  0  0  0  0  0  0  0  0  0  0
  148.9212  139.0898  157.8246 H   0  0  0  0  0  0  0  0  0  0  0  0
  147.3664  140.7575  154.9159 H   0  0  0  0  0  0  0  0  0  0  0  0
  148.7394  141.7222  154.4029 H   0  0  0  0  0  0  0  0  0  0  0  0
  147.8788  142.1393  155.8762 H   0  0  0  0  0  0  0  0  0  0  0  0
  1  2  1  0  0  0  0
  1 29  1  0  0  0  0
  1 30  1  0  0  0  0
  1 31  1  0  0  0  0
  2  3  1  0  0  0  0
  2 32  1  0  0  0  0
  2 33  1  0  0  0  0
  3  4  1  0  0  0  0
  4 26  1  0  0  0  0
  4  5  1  0  0  0  0
  4 34  1  0  0  0  0
  5  6  1  0  0  0  0
  5 35  1  0  0  0  0
  5 36  1  0  0  0  0
  6  7  1  0  0  0  0
  6 26  1  0  0  0  0
  6 37  1  0  0  0  0
  7  8  1  0  0  0  0
  7  9  1  0  0  0  0
  8 38  1  0  0  0  0
  8 39  1  0  0  0  0
  8 40  1  0  0  0  0
  9 14  1  0  0  0  0
  9 10  2  0  0  0  0
 10 11  1  0  0  0  0
 11 12  2  0  0  0  0
 11 41  1  0  0  0  0
 12 13  1  0  0  0  0
 13 17  1  0  0  0  0
 13 14  2  0  0  0  0
 14 15  1  0  0  0  0
 15 16  2  0  0  0  0
 16 17  1  0  0  0  0
 16 42  1  0  0  0  0
 17 18  1  0  0  0  0
 18 19  1  0  0  0  0
 18 43  1  0  0  0  0
 18 44  1  0  0  0  0
 19 24  1  0  0  0  0
 19 20  1  0  0  0  0
 19 21  1  0  0  0  0
 20 45  1  0  0  0  0
 21 22  1  0  0  0  0
 21 46  1  0  0  0  0
 21 47  1  0  0  0  0
 22 23  1  0  0  0  0
 22 48  1  0  0  0  0
 22 49  1  0  0  0  0
 23 24  1  0  0  0  0
 24 25  1  0  0  0  0
 24 50  1  0  0  0  0
 25 51  1  0  0  0  0
 25 52  1  0  0  0  0
 25 53  1  0  0  0  0
 26 27  1  0  0  0  0
 26 28  1  0  0  0  0
 27 54  1  0  0  0  0
 27 55  1  0  0  0  0
 27 56  1  0  0  0  0
 28 57  1  0  0  0  0
 28 58  1  0  0  0  0
 28 59  1  0  0  0  0
M  END
> <s_m_source_file>
AV-unprocessed.smi

> <i_m_source_file_index>
234

> <i_lp_mmshare_version>
43012

> <i_f3d_flags>
0

> <s_epik_input>
W0NIM11bQ0gyXU9bQ0BASF0oQzEoW0NIM10pW0NIM10pW0NIMl1bQ0BIXTFOKFtDSDNdKWMobltjSF1uMiljKGMyMyluW2NIXW4zW0NIMl1bQ0BAXTQoW09IXSlbQ0gyXVtDSDJdT1tDQEhdNFtDSDNd

> <s_epik_cmdline>
J2VwaWtfcHl0aG9uJywgJy1waCcsICc3LjAnLCAnLXRuJywgJzgnLCAnLW1hJywgJzIwMCcsICctbWV0YWxfYmluZGluZycsICctaW1hZScsICc8aW5maWxlLm1hZT4nLCAnLW9tYWUnLCAnPG91dGZpbGUubWFlPic=

> <r_lp_tautomer_probability>
1

> <r_epik_Ionization_Penalty>
0.00349132

> <r_epik_Ionization_Penalty_Charging>
0

> <r_epik_Ionization_Penalty_Neutral>
0.00349132

> <r_epik_State_Penalty>
0.00242418

> <r_epik_Charging_Adjusted_Penalty>
0.00242418

> <i_epik_Tot_Q>
0

> <i_epik_Tot_abs_Q>
0

> <r_epik_Metal_State_Penalty>
-0

> <b_epik_Metal_Only>
0

> <s_lp_Force_Field>
OPLS_2005

> <r_lp_Energy>
47.69

> <b_lp_Chiralities_Consistent>
1

> <s_lp_Variant>
AV-unprocessed.smi:234-6

> <Gold.Version>
5.8.1

> <Gold.Id.Protein>
6NUR|6NUR_protein|mol2

> <Gold.PLP.Fitness>
39.5641

> <Gold.PLP.PLP>
-34.8007

> <Gold.PLP.part.hbond>
-1.0000

> <Gold.PLP.part.metal>
0.0000

> <Gold.PLP.part.buried>
-6.1968

> <Gold.PLP.part.nonpolar>
-30.9312

> <Gold.PLP.part.repulsive>
0.9357

> <Gold.PLP.ligand.clash>
0.0000

> <Gold.PLP.ligand.torsion>
0.9988

> <Gold.PLP.Chemscore.Hbond>
1.0000

> <Gold.PLP.Chemscore.CHOScore>
0.9939

> <Gold.PLP.Chemscore.Metal>
0.0000

> <Gold.Chemscore.Hbonds>
donor molecule, donor type, donor heavy atom, donor atom, acceptor molecule, acceptor atom, score
      L1  H    20    45       P1 10957  0.63
      L1  C    11    41       P1 10175  0.52

> <Gold.PLP.Chemscore.Internal.Correction>
0.7794

> <Gold.Rescore>
     Score         DG    S(hbond)    S(metal)    S(lipo)     H(rot)  DE(clash)    DE(int)     intcor
      9.91     -12.08       0.97        0.00      86.02       2.62       0.20       1.97       ----

> <Gold.Chemscore.Fitness>
9.9104

> <Gold.Chemscore.DG>
-12.0785

> <Gold.Chemscore.ZeroCoef>
-5.4800

> <Gold.Chemscore.Hbond>
0.9719

> <Gold.Chemscore.Metal>
0.0000

> <Gold.Chemscore.Lipo>
86.0208

> <Gold.Chemscore.Internal_Hbond>
0.0000

> <Gold.Chemscore.DEClash>
0.1976

> <Gold.Chemscore.DEInternal>
1.9705

> <Gold.Chemscore.Rot>
2.6219

> <Gold.Chemscore.Internal.Correction>
   9.000000E+99

> <Gold.Chemscore.Hbonds>
donor molecule, donor type, donor heavy atom, donor atom, acceptor molecule, acceptor atom, score
      L1  H    20    45       P1 10957  0.25

> <Gold.Chemscore.Hbond.Weighted>
-3.2462

> <Gold.Chemscore.Metal.Weighted>
-0.0000

> <Gold.Chemscore.Lipo.Weighted>
-10.0644

> <Gold.Chemscore.Internal_Hbond.Weighted>
0.0000

> <Gold.Chemscore.DEClash.Weighted>
0.1976

> <Gold.Chemscore.DEInternal.Weighted>
1.9705

> <Gold.Chemscore.Rot.Weighted>
6.7121

> <Gold.Chemscore.Internal.Correction.Weighted>
   9.000000E+99

> <Gold.Protein.RotatedTorsions>
[ 6907 6896 6895 6894 ] final   35.68 input  -60.11 | X-H torsion
[ 7974 7965 7964 7962 ] final -102.42 input  175.53 | X-H torsion
[ 8008 7997 7996 7995 ] final -138.58 input   59.86 | X-H torsion
[ 10167 10162 10161 10158 ] final  179.25 input  -65.29 | X-H torsion
[ 10718 10713 10712 10709 ] final  -83.71 input   66.30 | X-H torsion
[ 10763 10752 10751 10750 ] final   57.01 input  -60.55 | X-H torsion
[ 11005 11000 10999 10996 ] final  -67.29 input  -57.11 | X-H torsion

> <Gold.Protein.ActiveResidues>
 VAL166  LYS551  ARG553  GLY616  TRP617  ASP618  TYR619  PRO620  LYS621  CYS622 
 ASP623  PHE694  ASN695  SER759  ASP760  ASP761  ALA762  ILE779  LEU786  VAL792 
 PHE793  MET794  SER795  GLU796  ALA797  LYS798  CYS799  TRP800  GLU811  SER814 

> <Gold.Protein.RotatedAtoms>
  152.1195  134.9216  160.0563 H   0  0  0  0  0  0  0  0  0  0  0  0  # atno 6907 bound_to 6896
  152.0363  133.3953  159.4326 H   0  0  0  0  0  0  0  0  0  0  0  0  # atno 6908 bound_to 6896
  150.6848  134.3386  159.4902 H   0  0  0  0  0  0  0  0  0  0  0  0  # atno 6909 bound_to 6896
  145.2690  140.9293  143.2997 H   0  0  0  0  0  0  0  0  0  0  0  0  # atno 7974 bound_to 7965
  155.4306  140.0525  157.3019 H   0  0  0  0  0  0  0  0  0  0  0  0  # atno 8008 bound_to 7997
  154.4861  140.2101  155.9610 H   0  0  0  0  0  0  0  0  0  0  0  0  # atno 8009 bound_to 7997
  156.1277  140.3177  155.8307 H   0  0  0  0  0  0  0  0  0  0  0  0  # atno 8010 bound_to 7997
  139.5328  144.2583  152.0728 H   0  0  0  0  0  0  0  0  0  0  0  0  # atno 10167 bound_to 10162
  156.0015  130.4674  150.4299 H   0  0  0  0  0  0  0  0  0  0  0  0  # atno 10718 bound_to 10713
  152.9842  135.5656  154.5322 H   0  0  0  0  0  0  0  0  0  0  0  0  # atno 10763 bound_to 10752
  154.4791  135.2788  155.1586 H   0  0  0  0  0  0  0  0  0  0  0  0  # atno 10764 bound_to 10752
  154.3102  135.6290  153.5515 H   0  0  0  0  0  0  0  0  0  0  0  0  # atno 10765 bound_to 10752
  141.1504  133.6716  156.6269 H   0  0  0  0  0  0  0  0  0  0  0  0  # atno 11005 bound_to 11000
  144.9351  139.4253  143.6476 LP  0  0  0  0  0  0  0  0  0  0  0  0  # atno 17320 bound_to 7965
  146.3252  139.8283  142.8913 LP  0  0  0  0  0  0  0  0  0  0  0  0  # atno 17321 bound_to 7965
  140.2049  144.4621  150.6413 LP  0  0  0  0  0  0  0  0  0  0  0  0  # atno 17342 bound_to 10162
  140.6517  143.2227  151.6061 LP  0  0  0  0  0  0  0  0  0  0  0  0  # atno 17343 bound_to 10162
  157.2348  131.0512  151.2471 LP  0  0  0  0  0  0  0  0  0  0  0  0  # atno 17370 bound_to 10713
  157.3676  130.7164  149.6543 LP  0  0  0  0  0  0  0  0  0  0  0  0  # atno 17371 bound_to 10713
  140.3497  134.7779  157.4457 LP  0  0  0  0  0  0  0  0  0  0  0  0  # atno 17394 bound_to 11000
  140.0871  134.5652  155.8481 LP  0  0  0  0  0  0  0  0  0  0  0  0  # atno 17395 bound_to 11000

$$$$
