AV-unprocessed.smi:2766|AV-procd|sdf|10646|dock3
  -GOLD-   2272015 93D 1   1.00000     0.00000
 Structure written by MMmdl.
 32 33  0  0  0  0  0  0  0  0  1 V2000
  149.0150  140.2353  154.8050 C   0  0  0  0  0  0  0  0  0  0  0  0
  150.2652  140.0912  154.1537 O   0  0  0  0  0  0  0  0  0  0  0  0
  151.0800  139.0987  154.7562 C   0  0  0  0  0  0  0  0  0  0  0  0
  151.9598  139.7478  155.8393 C   0  0  2  0  0  0  0  0  0  0  0  0
  153.2256  139.1120  155.8072 O   0  0  0  0  0  0  0  0  0  0  0  0
  151.3034  139.6828  157.2470 C   0  0  0  0  0  0  0  0  0  0  0  0
  151.9954  140.4374  158.2864 N   0  0  0  0  0  0  0  0  0  0  0  0
  152.8267  139.9764  159.2563 C   0  0  0  0  0  0  0  0  0  0  0  0
  153.1729  138.5196  159.3860 C   0  0  0  0  0  0  0  0  0  0  0  0
  152.0718  137.7769  159.5075 F   0  0  0  0  0  0  0  0  0  0  0  0
  153.8349  138.0906  158.3112 F   0  0  0  0  0  0  0  0  0  0  0  0
  153.9275  138.3138  160.4652 F   0  0  0  0  0  0  0  0  0  0  0  0
  153.3298  140.9069  160.0714 N   0  0  0  0  0  0  0  0  0  0  0  0
  152.7645  142.0730  159.5940 C   0  0  0  0  0  0  0  0  0  0  0  0
  152.8996  143.4085  160.0360 C   0  0  0  0  0  0  0  0  0  0  0  0
  152.2123  144.4507  159.3797 C   0  0  0  0  0  0  0  0  0  0  0  0
  151.3815  144.1729  158.2747 C   0  0  0  0  0  0  0  0  0  0  0  0
  151.2341  142.8492  157.8178 C   0  0  0  0  0  0  0  0  0  0  0  0
  151.9235  141.8135  158.4762 C   0  0  0  0  0  0  0  0  0  0  0  0
  152.1114  140.7982  155.5879 H   0  0  0  0  0  0  0  0  0  0  0  0
  148.4313  141.0112  154.3099 H   0  0  0  0  0  0  0  0  0  0  0  0
  149.1430  140.5244  155.8490 H   0  0  0  0  0  0  0  0  0  0  0  0
  148.4422  139.3078  154.7667 H   0  0  0  0  0  0  0  0  0  0  0  0
  150.4192  138.3574  155.2085 H   0  0  0  0  0  0  0  0  0  0  0  0
  151.6911  138.5786  154.0160 H   0  0  0  0  0  0  0  0  0  0  0  0
  153.3764  138.7868  154.9330 H   0  0  0  0  0  0  0  0  0  0  0  0
  150.2718  140.0281  157.1855 H   0  0  0  0  0  0  0  0  0  0  0  0
  151.2293  138.6503  157.5904 H   0  0  0  0  0  0  0  0  0  0  0  0
  153.5325  143.6317  160.8821 H   0  0  0  0  0  0  0  0  0  0  0  0
  152.3225  145.4679  159.7260 H   0  0  0  0  0  0  0  0  0  0  0  0
  150.8570  144.9763  157.7783 H   0  0  0  0  0  0  0  0  0  0  0  0
  150.5972  142.6317  156.9735 H   0  0  0  0  0  0  0  0  0  0  0  0
  1  2  1  0  0  0  0
  1 21  1  0  0  0  0
  1 22  1  0  0  0  0
  1 23  1  0  0  0  0
  2  3  1  0  0  0  0
  3  4  1  0  0  0  0
  3 24  1  0  0  0  0
  3 25  1  0  0  0  0
  4 20  1  0  0  0  0
  4  5  1  0  0  0  0
  4  6  1  0  0  0  0
  5 26  1  0  0  0  0
  6  7  1  0  0  0  0
  6 27  1  0  0  0  0
  6 28  1  0  0  0  0
  7 19  1  0  0  0  0
  7  8  1  0  0  0  0
  8  9  1  0  0  0  0
  8 13  2  0  0  0  0
  9 10  1  0  0  0  0
  9 11  1  0  0  0  0
  9 12  1  0  0  0  0
 13 14  1  0  0  0  0
 14 19  2  0  0  0  0
 14 15  1  0  0  0  0
 15 16  2  0  0  0  0
 15 29  1  0  0  0  0
 16 17  1  0  0  0  0
 16 30  1  0  0  0  0
 17 18  2  0  0  0  0
 17 31  1  0  0  0  0
 18 19  1  0  0  0  0
 18 32  1  0  0  0  0
M  END
> <s_m_source_file>
AV-unprocessed.smi

> <i_m_source_file_index>
2766

> <i_lp_mmshare_version>
43012

> <i_f3d_flags>
0

> <s_epik_input>
W0NIM11PW0NIMl1bQ0BASF0oW09IXSlbQ0gyXW4oYyhuMSlDKEYpKEYpRiljKGMxMilbY0hdW2NIXVtjSF1bY0hdMg==

> <s_epik_cmdline>
J2VwaWtfcHl0aG9uJywgJy1waCcsICc3LjAnLCAnLXRuJywgJzgnLCAnLW1hJywgJzIwMCcsICctbWV0YWxfYmluZGluZycsICctaW1hZScsICc8aW5maWxlLm1hZT4nLCAnLW9tYWUnLCAnPG91dGZpbGUubWFlPic=

> <r_epik_Ionization_Penalty>
0.00044827

> <r_epik_Ionization_Penalty_Charging>
0

> <r_epik_Ionization_Penalty_Neutral>
0.00044827

> <r_epik_State_Penalty>
0.000276591

> <r_epik_Charging_Adjusted_Penalty>
0.000276591

> <i_epik_Tot_Q>
0

> <i_epik_Tot_abs_Q>
0

> <r_epik_Metal_State_Penalty>
-0

> <b_epik_Metal_Only>
0

> <s_lp_Force_Field>
OPLS_2005

> <r_lp_Energy>
17.0941

> <b_lp_Chiralities_Consistent>
1

> <s_lp_Variant>
AV-unprocessed.smi:2766-2

> <Gold.Version>
5.8.1

> <Gold.Id.Protein>
6NUR|6NUR_protein|mol2

> <Gold.PLP.Fitness>
46.9651

> <Gold.PLP.PLP>
-42.9156

> <Gold.PLP.part.hbond>
-2.0000

> <Gold.PLP.part.metal>
0.0000

> <Gold.PLP.part.buried>
-6.3491

> <Gold.PLP.part.nonpolar>
-35.6985

> <Gold.PLP.part.repulsive>
0.6994

> <Gold.PLP.ligand.clash>
0.0000

> <Gold.PLP.ligand.torsion>
1.0131

> <Gold.PLP.Chemscore.Hbond>
2.0000

> <Gold.PLP.Chemscore.CHOScore>
0.0000

> <Gold.PLP.Chemscore.Metal>
0.0000

> <Gold.Chemscore.Hbonds>
donor molecule, donor type, donor heavy atom, donor atom, acceptor molecule, acceptor atom, score
      P1  H  7989  7998       L1     2  0.60
      P1  H  7997  8010       L1     5  1.00

> <Gold.PLP.Chemscore.Internal.Correction>
0.0756

> <Gold.Rescore>
     Score         DG    S(hbond)    S(metal)    S(lipo)     H(rot)  DE(clash)    DE(int)     intcor
     13.66     -16.33       1.62        0.00      97.23       2.32       0.02       2.65       ----

> <Gold.Chemscore.Fitness>
13.6604

> <Gold.Chemscore.DG>
-16.3295

> <Gold.Chemscore.ZeroCoef>
-5.4800

> <Gold.Chemscore.Hbond>
1.6177

> <Gold.Chemscore.Metal>
0.0000

> <Gold.Chemscore.Lipo>
97.2318

> <Gold.Chemscore.Internal_Hbond>
0.0000

> <Gold.Chemscore.DEClash>
0.0154

> <Gold.Chemscore.DEInternal>
2.6537

> <Gold.Chemscore.Rot>
2.3164

> <Gold.Chemscore.Internal.Correction>
   9.000000E+99

> <Gold.Chemscore.Hbonds>
donor molecule, donor type, donor heavy atom, donor atom, acceptor molecule, acceptor atom, score
      P1  H  7989  7998       L1     2  0.04
      P1  H  7997  8010       L1     5  0.61

> <Gold.Chemscore.Hbond.Weighted>
-5.4033

> <Gold.Chemscore.Metal.Weighted>
-0.0000

> <Gold.Chemscore.Lipo.Weighted>
-11.3761

> <Gold.Chemscore.Internal_Hbond.Weighted>
0.0000

> <Gold.Chemscore.DEClash.Weighted>
0.0154

> <Gold.Chemscore.DEInternal.Weighted>
2.6537

> <Gold.Chemscore.Rot.Weighted>
5.9299

> <Gold.Chemscore.Internal.Correction.Weighted>
   9.000000E+99

> <Gold.Protein.RotatedTorsions>
[ 6907 6896 6895 6894 ] final  -53.51 input  -60.11 | X-H torsion
[ 7974 7965 7964 7962 ] final  -79.85 input  175.53 | X-H torsion
[ 8008 7997 7996 7995 ] final   77.96 input   59.86 | X-H torsion
[ 10167 10162 10161 10158 ] final   77.00 input  -65.29 | X-H torsion
[ 10718 10713 10712 10709 ] final  -75.04 input   66.30 | X-H torsion
[ 10763 10752 10751 10750 ] final  -46.17 input  -60.55 | X-H torsion
[ 11005 11000 10999 10996 ] final -170.67 input  -57.11 | X-H torsion

> <Gold.Protein.ActiveResidues>
 VAL166  LYS551  ARG553  GLY616  TRP617  ASP618  TYR619  PRO620  LYS621  CYS622 
 ASP623  PHE694  ASN695  SER759  ASP760  ASP761  ALA762  ILE779  LEU786  VAL792 
 PHE793  MET794  SER795  GLU796  ALA797  LYS798  CYS799  TRP800  GLU811  SER814 

> <Gold.Protein.RotatedAtoms>
  150.8420  134.7716  159.6940 H   0  0  0  0  0  0  0  0  0  0  0  0  # atno 6907 bound_to 6896
  152.4506  134.5399  159.9846 H   0  0  0  0  0  0  0  0  0  0  0  0  # atno 6908 bound_to 6896
  151.5537  133.3375  159.2993 H   0  0  0  0  0  0  0  0  0  0  0  0  # atno 6909 bound_to 6896
  145.5678  140.9471  143.1412 H   0  0  0  0  0  0  0  0  0  0  0  0  # atno 7974 bound_to 7965
  155.8490  140.3459  155.5681 H   0  0  0  0  0  0  0  0  0  0  0  0  # atno 8008 bound_to 7997
  155.8058  140.0891  157.1951 H   0  0  0  0  0  0  0  0  0  0  0  0  # atno 8009 bound_to 7997
  154.4007  140.1457  156.3315 H   0  0  0  0  0  0  0  0  0  0  0  0  # atno 8010 bound_to 7997
  139.9863  144.5790  150.7857 H   0  0  0  0  0  0  0  0  0  0  0  0  # atno 10167 bound_to 10162
  156.0221  130.4431  150.2984 H   0  0  0  0  0  0  0  0  0  0  0  0  # atno 10718 bound_to 10713
  154.0406  135.6644  153.4789 H   0  0  0  0  0  0  0  0  0  0  0  0  # atno 10763 bound_to 10752
  153.0503  135.5088  154.7846 H   0  0  0  0  0  0  0  0  0  0  0  0  # atno 10764 bound_to 10752
  154.6821  135.3046  154.9564 H   0  0  0  0  0  0  0  0  0  0  0  0  # atno 10765 bound_to 10752
  140.5169  134.5747  157.5036 H   0  0  0  0  0  0  0  0  0  0  0  0  # atno 11005 bound_to 11000
  144.7452  139.7339  143.7295 LP  0  0  0  0  0  0  0  0  0  0  0  0  # atno 17320 bound_to 7965
  146.1806  139.4997  142.9869 LP  0  0  0  0  0  0  0  0  0  0  0  0  # atno 17321 bound_to 7965
  140.7471  143.2901  151.3354 LP  0  0  0  0  0  0  0  0  0  0  0  0  # atno 17342 bound_to 10162
  139.6373  144.0606  152.2526 LP  0  0  0  0  0  0  0  0  0  0  0  0  # atno 17343 bound_to 10162
  157.1087  131.0215  151.3057 LP  0  0  0  0  0  0  0  0  0  0  0  0  # atno 17370 bound_to 10713
  157.4722  130.7715  149.7334 LP  0  0  0  0  0  0  0  0  0  0  0  0  # atno 17371 bound_to 10713
  139.9627  134.7424  156.0202 LP  0  0  0  0  0  0  0  0  0  0  0  0  # atno 17394 bound_to 11000
  141.1355  133.6576  156.3583 LP  0  0  0  0  0  0  0  0  0  0  0  0  # atno 17395 bound_to 11000

$$$$
