AV-unprocessed.smi:1944|AV-procd|sdf|7854|dock7
  -GOLD-   2272010 03D 1   1.00000     0.00000
 Structure written by MMmdl.
 46 47  0  0  0  0  0  0  0  0  2 V2000
  152.8347  138.1557  155.1259 C   0  0  0  0  0  0  0  0  0  0  0  0
  151.5353  138.5002  154.6573 O   0  0  0  0  0  0  0  0  0  0  0  0
  150.8785  139.5594  155.2545 C   0  0  0  0  0  0  0  0  0  0  0  0
  151.5048  140.2237  156.2580 N   0  0  0  0  0  0  0  0  0  0  0  0
  150.8667  141.2597  156.8401 C   0  0  0  0  0  0  0  0  0  0  0  0
  149.5848  141.6908  156.4526 C   0  0  0  0  0  0  0  0  0  0  0  0
  148.9328  141.0034  155.4124 C   0  0  0  0  0  0  0  0  0  0  0  0
  149.5831  139.9035  154.8021 C   0  0  0  0  0  0  0  0  0  0  0  0
  149.0204  139.1575  153.7301 N   0  0  0  0  0  0  0  0  0  0  0  0
  147.7579  139.1837  153.2710 C   0  0  0  0  0  0  0  0  0  0  0  0
  146.8406  139.8530  153.7468 O   0  0  0  0  0  0  0  0  0  0  0  0
  147.6015  138.3607  152.2243 N   0  0  0  0  0  0  0  0  0  0  0  0
  146.3519  138.1717  151.4963 C   0  0  0  0  0  0  0  0  0  0  0  0
  145.5109  137.0329  152.1064 C   0  0  0  0  0  0  0  0  0  0  0  0
  146.1167  135.6870  151.9171 N   0  3  1  0  0  0  0  0  0  0  0  0
  146.0968  134.8848  153.1703 C   0  0  0  0  0  0  0  0  0  0  0  0
  146.9169  133.5934  153.0233 C   0  0  0  0  0  0  0  0  0  0  0  0
  146.4238  132.7598  151.8360 C   0  0  0  0  0  0  0  0  0  0  0  0
  146.4365  133.6136  150.5608 C   0  0  0  0  0  0  0  0  0  0  0  0
  145.6309  134.9203  150.7253 C   0  0  1  0  0  0  0  0  0  0  0  0
  144.1073  134.6690  150.7265 C   0  0  0  0  0  0  0  0  0  0  0  0
  153.2065  137.3016  154.5604 H   0  0  0  0  0  0  0  0  0  0  0  0
  152.8173  137.8717  156.1791 H   0  0  0  0  0  0  0  0  0  0  0  0
  153.5403  138.9761  154.9874 H   0  0  0  0  0  0  0  0  0  0  0  0
  151.3969  141.7648  157.6338 H   0  0  0  0  0  0  0  0  0  0  0  0
  149.1145  142.5328  156.9387 H   0  0  0  0  0  0  0  0  0  0  0  0
  147.9588  141.3406  155.0935 H   0  0  0  0  0  0  0  0  0  0  0  0
  149.6397  138.4841  153.3027 H   0  0  0  0  0  0  0  0  0  0  0  0
  148.4046  137.8413  151.9007 H   0  0  0  0  0  0  0  0  0  0  0  0
  145.8072  139.1160  151.4902 H   0  0  0  0  0  0  0  0  0  0  0  0
  146.5931  137.9427  150.4579 H   0  0  0  0  0  0  0  0  0  0  0  0
  145.4220  137.2233  153.1769 H   0  0  0  0  0  0  0  0  0  0  0  0
  144.4915  137.0450  151.7203 H   0  0  0  0  0  0  0  0  0  0  0  0
  146.5158  135.4722  153.9881 H   0  0  0  0  0  0  0  0  0  0  0  0
  145.0687  134.6543  153.4517 H   0  0  0  0  0  0  0  0  0  0  0  0
  147.9697  133.8424  152.8830 H   0  0  0  0  0  0  0  0  0  0  0  0
  146.8572  133.0071  153.9408 H   0  0  0  0  0  0  0  0  0  0  0  0
  147.0561  131.8810  151.7056 H   0  0  0  0  0  0  0  0  0  0  0  0
  145.4170  132.3899  152.0324 H   0  0  0  0  0  0  0  0  0  0  0  0
  147.4695  133.8595  150.3105 H   0  0  0  0  0  0  0  0  0  0  0  0
  146.0535  133.0350  149.7194 H   0  0  0  0  0  0  0  0  0  0  0  0
  145.8508  135.5105  149.8369 H   0  0  0  0  0  0  0  0  0  0  0  0
  143.8151  134.0828  149.8550 H   0  0  0  0  0  0  0  0  0  0  0  0
  143.5424  135.5996  150.6777 H   0  0  0  0  0  0  0  0  0  0  0  0
  143.7758  134.1221  151.6087 H   0  0  0  0  0  0  0  0  0  0  0  0
  147.0954  135.8614  151.7386 H   0  0  0  0  0  0  0  0  0  0  0  0
  1  2  1  0  0  0  0
  1 22  1  0  0  0  0
  1 23  1  0  0  0  0
  1 24  1  0  0  0  0
  2  3  1  0  0  0  0
  3  8  1  0  0  0  0
  3  4  2  0  0  0  0
  4  5  1  0  0  0  0
  5  6  2  0  0  0  0
  5 25  1  0  0  0  0
  6  7  1  0  0  0  0
  6 26  1  0  0  0  0
  7  8  2  0  0  0  0
  7 27  1  0  0  0  0
  8  9  1  0  0  0  0
  9 10  1  0  0  0  0
  9 28  1  0  0  0  0
 10 11  2  0  0  0  0
 10 12  1  0  0  0  0
 12 13  1  0  0  0  0
 12 29  1  0  0  0  0
 13 14  1  0  0  0  0
 13 30  1  0  0  0  0
 13 31  1  0  0  0  0
 14 15  1  0  0  0  0
 14 32  1  0  0  0  0
 14 33  1  0  0  0  0
 15 20  1  0  0  0  0
 15 16  1  0  0  0  0
 15 46  1  0  0  0  0
 16 17  1  0  0  0  0
 16 34  1  0  0  0  0
 16 35  1  0  0  0  0
 17 18  1  0  0  0  0
 17 36  1  0  0  0  0
 17 37  1  0  0  0  0
 18 19  1  0  0  0  0
 18 38  1  0  0  0  0
 18 39  1  0  0  0  0
 19 20  1  0  0  0  0
 19 40  1  0  0  0  0
 19 41  1  0  0  0  0
 20 21  1  0  0  0  0
 20 42  1  0  0  0  0
 21 43  1  0  0  0  0
 21 44  1  0  0  0  0
 21 45  1  0  0  0  0
M  CHG  1  15   1
M  END
> <s_m_source_file>
AV-unprocessed.smi

> <i_m_source_file_index>
1944

> <i_lp_mmshare_version>
43012

> <i_f3d_flags>
0

> <s_epik_input>
W0NIM11PYzFuW2NIXVtjSF1bY0hdYzFbTkhdQyg9TylbTkhdW0NIMl1bQ0gyXU4yW0NIMl1bQ0gyXVtDSDJdW0NIMl1bQ0BIXTJbQ0gzXQ==

> <s_epik_cmdline>
J2VwaWtfcHl0aG9uJywgJy1waCcsICc3LjAnLCAnLXRuJywgJzgnLCAnLW1hJywgJzIwMCcsICctbWV0YWxfYmluZGluZycsICctaW1hZScsICc8aW5maWxlLm1hZT4nLCAnLW9tYWUnLCAnPG91dGZpbGUubWFlPic=

> <r_lp_tautomer_probability>
1

> <r_epik_Ionization_Penalty>
0.00219525

> <r_epik_Ionization_Penalty_Charging>
0.00211816

> <r_epik_Ionization_Penalty_Neutral>
7.7088e-05

> <r_epik_State_Penalty>
0.00145254

> <r_epik_Charging_Adjusted_Penalty>
0.0035707

> <i_epik_Tot_Q>
1

> <i_epik_Tot_abs_Q>
1

> <r_epik_Metal_State_Penalty>
-0

> <b_epik_Metal_Only>
0

> <s_lp_Force_Field>
OPLS_2005

> <r_lp_Energy>
22.8304

> <b_lp_Chiralities_Consistent>
1

> <s_lp_Variant>
AV-unprocessed.smi:1944-2

> <Gold.Version>
5.8.1

> <Gold.Id.Protein>
6NUR|6NUR_protein|mol2

> <Gold.PLP.Fitness>
43.3873

> <Gold.PLP.PLP>
-36.4823

> <Gold.PLP.part.hbond>
-4.3081

> <Gold.PLP.part.metal>
0.0000

> <Gold.PLP.part.buried>
-0.8361

> <Gold.PLP.part.nonpolar>
-32.5738

> <Gold.PLP.part.repulsive>
0.4734

> <Gold.PLP.ligand.clash>
0.0000

> <Gold.PLP.ligand.torsion>
0.7976

> <Gold.PLP.Chemscore.Hbond>
2.8000

> <Gold.PLP.Chemscore.CHOScore>
0.0000

> <Gold.PLP.Chemscore.Metal>
0.0000

> <Gold.Chemscore.Hbonds>
donor molecule, donor type, donor heavy atom, donor atom, acceptor molecule, acceptor atom, score
      L1  H    12    29       P1  7948  0.82
      L1  H    15    46       P1  7948  2.00

> <Gold.PLP.Chemscore.Internal.Correction>
0.1002

> <Gold.Rescore>
     Score         DG    S(hbond)    S(metal)    S(lipo)     H(rot)  DE(clash)    DE(int)     intcor
     14.60     -16.63       1.89        0.00      78.81       1.71       0.20       1.83       ----

> <Gold.Chemscore.Fitness>
14.6011

> <Gold.Chemscore.DG>
-16.6335

> <Gold.Chemscore.ZeroCoef>
-5.4800

> <Gold.Chemscore.Hbond>
1.8899

> <Gold.Chemscore.Metal>
0.0000

> <Gold.Chemscore.Lipo>
78.8088

> <Gold.Chemscore.Internal_Hbond>
0.0000

> <Gold.Chemscore.DEClash>
0.2031

> <Gold.Chemscore.DEInternal>
1.8293

> <Gold.Chemscore.Rot>
1.7107

> <Gold.Chemscore.Internal.Correction>
   9.000000E+99

> <Gold.Chemscore.Hbonds>
donor molecule, donor type, donor heavy atom, donor atom, acceptor molecule, acceptor atom, score
      L1  H    12    29       P1  7948  0.79
      L1  H    15    46       P1  7948  1.00

> <Gold.Chemscore.Hbond.Weighted>
-6.3123

> <Gold.Chemscore.Metal.Weighted>
-0.0000

> <Gold.Chemscore.Lipo.Weighted>
-9.2206

> <Gold.Chemscore.Internal_Hbond.Weighted>
0.0000

> <Gold.Chemscore.DEClash.Weighted>
0.2031

> <Gold.Chemscore.DEInternal.Weighted>
1.8293

> <Gold.Chemscore.Rot.Weighted>
4.3794

> <Gold.Chemscore.Internal.Correction.Weighted>
   9.000000E+99

> <Gold.Protein.RotatedTorsions>
[ 6907 6896 6895 6894 ] final  -44.64 input  -60.11 | X-H torsion
[ 7974 7965 7964 7962 ] final    7.10 input  175.53 | X-H torsion
[ 8008 7997 7996 7995 ] final -105.49 input   59.86 | X-H torsion
[ 10167 10162 10161 10158 ] final -120.30 input  -65.29 | X-H torsion
[ 10718 10713 10712 10709 ] final  -31.87 input   66.30 | X-H torsion
[ 10763 10752 10751 10750 ] final -168.97 input  -60.55 | X-H torsion
[ 11005 11000 10999 10996 ] final -123.75 input  -57.11 | X-H torsion

> <Gold.Protein.ActiveResidues>
 VAL166  LYS551  ARG553  GLY616  TRP617  ASP618  TYR619  PRO620  LYS621  CYS622 
 ASP623  PHE694  ASN695  SER759  ASP760  ASP761  ALA762  ILE779  LEU786  VAL792 
 PHE793  MET794  SER795  GLU796  ALA797  LYS798  CYS799  TRP800  GLU811  SER814 

> <Gold.Protein.RotatedAtoms>
  150.9306  134.8721  159.7548 H   0  0  0  0  0  0  0  0  0  0  0  0  # atno 6907 bound_to 6896
  152.5036  134.4085  159.9450 H   0  0  0  0  0  0  0  0  0  0  0  0  # atno 6908 bound_to 6896
  151.4112  133.3687  159.2779 H   0  0  0  0  0  0  0  0  0  0  0  0  # atno 6909 bound_to 6896
  146.2429  140.0134  142.8404 H   0  0  0  0  0  0  0  0  0  0  0  0  # atno 7974 bound_to 7965
  154.9006  140.0413  157.1891 H   0  0  0  0  0  0  0  0  0  0  0  0  # atno 8008 bound_to 7997
  154.8448  140.2920  155.5615 H   0  0  0  0  0  0  0  0  0  0  0  0  # atno 8009 bound_to 7997
  156.2994  140.2476  156.3396 H   0  0  0  0  0  0  0  0  0  0  0  0  # atno 8010 bound_to 7997
  140.0373  143.5189  152.2147 H   0  0  0  0  0  0  0  0  0  0  0  0  # atno 10167 bound_to 10162
  156.3819  130.4357  149.7462 H   0  0  0  0  0  0  0  0  0  0  0  0  # atno 10718 bound_to 10713
  154.6572  135.2919  154.9913 H   0  0  0  0  0  0  0  0  0  0  0  0  # atno 10763 bound_to 10752
  154.0985  135.6580  153.4868 H   0  0  0  0  0  0  0  0  0  0  0  0  # atno 10764 bound_to 10752
  153.0409  135.5237  154.7506 H   0  0  0  0  0  0  0  0  0  0  0  0  # atno 10765 bound_to 10752
  140.9895  134.0560  157.3672 H   0  0  0  0  0  0  0  0  0  0  0  0  # atno 11005 bound_to 11000
  145.1307  140.9516  143.4546 LP  0  0  0  0  0  0  0  0  0  0  0  0  # atno 17320 bound_to 7965
  145.0391  139.3275  143.5986 LP  0  0  0  0  0  0  0  0  0  0  0  0  # atno 17321 bound_to 7965
  139.6037  144.7590  151.3112 LP  0  0  0  0  0  0  0  0  0  0  0  0  # atno 17342 bound_to 10162
  140.7276  143.6959  150.7884 LP  0  0  0  0  0  0  0  0  0  0  0  0  # atno 17343 bound_to 10162
  156.4549  130.7924  151.2945 LP  0  0  0  0  0  0  0  0  0  0  0  0  # atno 17370 bound_to 10713
  157.7493  131.0084  150.3226 LP  0  0  0  0  0  0  0  0  0  0  0  0  # atno 17371 bound_to 10713
  139.8985  135.0155  156.7154 LP  0  0  0  0  0  0  0  0  0  0  0  0  # atno 17394 bound_to 11000
  140.7063  133.9262  155.8056 LP  0  0  0  0  0  0  0  0  0  0  0  0  # atno 17395 bound_to 11000

$$$$
