AV-unprocessed.smi:1962|AV-procd|sdf|7922|dock9
  -GOLD-   2272010 93D 1   1.00000     0.00000
 Structure written by MMmdl.
 36 37  0  0  0  0  0  0  0  0  1 V2000
  153.9578  141.3072  161.6467 C   0  0  0  0  0  0  0  0  0  0  0  0
  154.1733  141.4851  160.1378 C   0  0  2  0  0  0  0  0  0  0  0  0
  152.8344  141.4615  159.3709 C   0  0  0  0  0  0  0  0  0  0  0  0
  152.3497  142.7934  159.0518 N   0  0  0  0  0  0  0  0  0  0  0  0
  153.0006  144.0001  159.1997 C   0  0  0  0  0  0  0  0  0  0  0  0
  152.1566  144.9745  158.7499 C   0  0  0  0  0  0  0  0  0  0  0  0
  150.9973  144.2564  158.3433 C   0  0  0  0  0  0  0  0  0  0  0  0
  151.1141  142.9518  158.5286 N   0  0  0  0  0  0  0  0  0  0  0  0
  155.0643  140.4301  159.6573 N   0  0  0  0  0  0  0  0  0  0  0  0
  156.2972  140.1631  160.1282 C   0  0  0  0  0  0  0  0  0  0  0  0
  156.8061  140.7765  161.0669 O   0  0  0  0  0  0  0  0  0  0  0  0
  157.0383  139.0793  159.4302 C   0  0  0  0  0  0  0  0  0  0  0  0
  156.6467  138.6717  158.2635 N   0  0  0  0  0  0  0  0  0  0  0  0
  157.3148  137.6828  157.5707 N   0  0  0  0  0  0  0  0  0  0  0  0
  156.9174  137.5385  156.1717 C   0  0  0  0  0  0  0  0  0  0  0  0
  158.2550  136.8659  158.1075 C   0  0  0  0  0  0  0  0  0  0  0  0
  158.8527  135.9987  157.4703 O   0  0  0  0  0  0  0  0  0  0  0  0
  158.5400  137.0432  159.6017 C   0  0  0  0  0  0  0  0  0  0  0  0
  158.2727  138.4845  160.0791 C   0  0  0  0  0  0  0  0  0  0  0  0
  153.3148  142.0919  162.0461 H   0  0  0  0  0  0  0  0  0  0  0  0
  154.9044  141.3523  162.1864 H   0  0  0  0  0  0  0  0  0  0  0  0
  153.4908  140.3477  161.8716 H   0  0  0  0  0  0  0  0  0  0  0  0
  154.6389  142.4615  159.9923 H   0  0  0  0  0  0  0  0  0  0  0  0
  152.9293  140.8833  158.4501 H   0  0  0  0  0  0  0  0  0  0  0  0
  152.0703  140.9654  159.9706 H   0  0  0  0  0  0  0  0  0  0  0  0
  154.0009  144.0628  159.6023 H   0  0  0  0  0  0  0  0  0  0  0  0
  152.3401  146.0380  158.7142 H   0  0  0  0  0  0  0  0  0  0  0  0
  150.0802  144.6417  157.9227 H   0  0  0  0  0  0  0  0  0  0  0  0
  154.7328  139.8771  158.8798 H   0  0  0  0  0  0  0  0  0  0  0  0
  156.5442  136.5317  155.9784 H   0  0  0  0  0  0  0  0  0  0  0  0
  157.7670  137.7215  155.5120 H   0  0  0  0  0  0  0  0  0  0  0  0
  156.1291  138.2406  155.8952 H   0  0  0  0  0  0  0  0  0  0  0  0
  157.8929  136.3518  160.1426 H   0  0  0  0  0  0  0  0  0  0  0  0
  159.5671  136.7533  159.8256 H   0  0  0  0  0  0  0  0  0  0  0  0
  159.1338  139.1160  159.8577 H   0  0  0  0  0  0  0  0  0  0  0  0
  158.1702  138.4742  161.1650 H   0  0  0  0  0  0  0  0  0  0  0  0
  1  2  1  0  0  0  0
  1 20  1  0  0  0  0
  1 21  1  0  0  0  0
  1 22  1  0  0  0  0
  2  3  1  0  0  0  0
  2  9  1  0  0  0  0
  2 23  1  0  0  0  0
  3  4  1  0  0  0  0
  3 24  1  0  0  0  0
  3 25  1  0  0  0  0
  4  8  1  0  0  0  0
  4  5  1  0  0  0  0
  5  6  2  0  0  0  0
  5 26  1  0  0  0  0
  6  7  1  0  0  0  0
  6 27  1  0  0  0  0
  7  8  2  0  0  0  0
  7 28  1  0  0  0  0
  9 10  1  0  0  0  0
  9 29  1  0  0  0  0
 10 11  2  0  0  0  0
 10 12  1  0  0  0  0
 12 19  1  0  0  0  0
 12 13  2  0  0  0  0
 13 14  1  0  0  0  0
 14 15  1  0  0  0  0
 14 16  1  0  0  0  0
 15 30  1  0  0  0  0
 15 31  1  0  0  0  0
 15 32  1  0  0  0  0
 16 17  2  0  0  0  0
 16 18  1  0  0  0  0
 18 19  1  0  0  0  0
 18 33  1  0  0  0  0
 18 34  1  0  0  0  0
 19 35  1  0  0  0  0
 19 36  1  0  0  0  0
M  END
> <s_m_source_file>
AV-unprocessed.smi

> <i_m_source_file_index>
1962

> <i_lp_mmshare_version>
43012

> <i_f3d_flags>
0

> <s_epik_input>
bjFbY0hdW2NIXVtjSF1uMVtDSDJdW0NAQEhdKFtDSDNdKVtOSF1DKD1PKUMyPU5OKFtDSDNdKUMoPU8pW0NIMl1bQ0gyXTI=

> <s_epik_cmdline>
J2VwaWtfcHl0aG9uJywgJy1waCcsICc3LjAnLCAnLXRuJywgJzgnLCAnLW1hJywgJzIwMCcsICctbWV0YWxfYmluZGluZycsICctaW1hZScsICc8aW5maWxlLm1hZT4nLCAnLW9tYWUnLCAnPG91dGZpbGUubWFlPic=

> <r_lp_tautomer_probability>
1

> <r_epik_Ionization_Penalty>
9.43868e-05

> <r_epik_Ionization_Penalty_Charging>
0

> <r_epik_Ionization_Penalty_Neutral>
9.43868e-05

> <r_epik_State_Penalty>
-0

> <r_epik_Charging_Adjusted_Penalty>
0

> <i_epik_Tot_Q>
0

> <i_epik_Tot_abs_Q>
0

> <r_epik_Metal_State_Penalty>
0.0732556

> <b_epik_Metal_Only>
0

> <s_epik_Chemistry_Notes>
This compound has an imine and may undergo hydrolysis.

> <s_lp_Force_Field>
OPLS_2005

> <r_lp_Energy>
16.0967

> <b_lp_Chiralities_Consistent>
1

> <s_lp_Variant>
AV-unprocessed.smi:1962-1

> <Gold.Version>
5.8.1

> <Gold.Id.Protein>
6NUR|6NUR_protein|mol2

> <Gold.PLP.Fitness>
38.2392

> <Gold.PLP.PLP>
-33.3301

> <Gold.PLP.part.hbond>
-2.0000

> <Gold.PLP.part.metal>
0.0000

> <Gold.PLP.part.buried>
-3.8777

> <Gold.PLP.part.nonpolar>
-28.0630

> <Gold.PLP.part.repulsive>
0.3123

> <Gold.PLP.ligand.clash>
0.0000

> <Gold.PLP.ligand.torsion>
0.7425

> <Gold.PLP.Chemscore.Hbond>
1.0000

> <Gold.PLP.Chemscore.CHOScore>
1.1228

> <Gold.PLP.Chemscore.Metal>
0.0000

> <Gold.Chemscore.Hbonds>
donor molecule, donor type, donor heavy atom, donor atom, acceptor molecule, acceptor atom, score
      P1  H  7997  8008       L1    13  1.00
      L1  C     7    28       P1  8028  0.69
      L1  C     7    28       P1  8029  0.39

> <Gold.PLP.Chemscore.Internal.Correction>
0.0256

> <Gold.Rescore>
     Score         DG    S(hbond)    S(metal)    S(lipo)     H(rot)  DE(clash)    DE(int)     intcor
     10.48     -13.96       0.80        0.00      82.97       1.53       1.57       1.90       ----

> <Gold.Chemscore.Fitness>
10.4838

> <Gold.Chemscore.DG>
-13.9563

> <Gold.Chemscore.ZeroCoef>
-5.4800

> <Gold.Chemscore.Hbond>
0.8006

> <Gold.Chemscore.Metal>
0.0000

> <Gold.Chemscore.Lipo>
82.9674

> <Gold.Chemscore.Internal_Hbond>
0.0000

> <Gold.Chemscore.DEClash>
1.5685

> <Gold.Chemscore.DEInternal>
1.9040

> <Gold.Chemscore.Rot>
1.5254

> <Gold.Chemscore.Internal.Correction>
   9.000000E+99

> <Gold.Chemscore.Hbonds>
donor molecule, donor type, donor heavy atom, donor atom, acceptor molecule, acceptor atom, score
      P1  H  7997  8008       L1    13  0.78

> <Gold.Chemscore.Hbond.Weighted>
-2.6742

> <Gold.Chemscore.Metal.Weighted>
-0.0000

> <Gold.Chemscore.Lipo.Weighted>
-9.7072

> <Gold.Chemscore.Internal_Hbond.Weighted>
0.0000

> <Gold.Chemscore.DEClash.Weighted>
1.5685

> <Gold.Chemscore.DEInternal.Weighted>
1.9040

> <Gold.Chemscore.Rot.Weighted>
3.9051

> <Gold.Chemscore.Internal.Correction.Weighted>
   9.000000E+99

> <Gold.Protein.RotatedTorsions>
[ 6907 6896 6895 6894 ] final -122.15 input  -60.11 | X-H torsion
[ 7974 7965 7964 7962 ] final  -97.84 input  175.53 | X-H torsion
[ 8008 7997 7996 7995 ] final -148.12 input   59.86 | X-H torsion
[ 10167 10162 10161 10158 ] final -112.66 input  -65.29 | X-H torsion
[ 10718 10713 10712 10709 ] final   93.75 input   66.30 | X-H torsion
[ 10763 10752 10751 10750 ] final -155.35 input  -60.55 | X-H torsion
[ 11005 11000 10999 10996 ] final  -98.90 input  -57.11 | X-H torsion

> <Gold.Protein.ActiveResidues>
 VAL166  LYS551  ARG553  GLY616  TRP617  ASP618  TYR619  PRO620  LYS621  CYS622 
 ASP623  PHE694  ASN695  SER759  ASP760  ASP761  ALA762  ILE779  LEU786  VAL792 
 PHE793  MET794  SER795  GLU796  ALA797  LYS798  CYS799  TRP800  GLU811  SER814 

> <Gold.Protein.RotatedAtoms>
  150.8549  133.7730  159.3012 H   0  0  0  0  0  0  0  0  0  0  0  0  # atno 6907 bound_to 6896
  151.5390  135.1067  159.9931 H   0  0  0  0  0  0  0  0  0  0  0  0  # atno 6908 bound_to 6896
  152.4582  133.7723  159.6862 H   0  0  0  0  0  0  0  0  0  0  0  0  # atno 6909 bound_to 6896
  145.3285  140.9436  143.2675 H   0  0  0  0  0  0  0  0  0  0  0  0  # atno 7974 bound_to 7965
  155.5865  140.0648  157.2770 H   0  0  0  0  0  0  0  0  0  0  0  0  # atno 8008 bound_to 7997
  154.4317  140.1843  156.1077 H   0  0  0  0  0  0  0  0  0  0  0  0  # atno 8009 bound_to 7997
  156.0265  140.3311  155.7098 H   0  0  0  0  0  0  0  0  0  0  0  0  # atno 8010 bound_to 7997
  140.1203  143.4449  152.1695 H   0  0  0  0  0  0  0  0  0  0  0  0  # atno 10167 bound_to 10162
  157.6952  131.0489  150.4081 H   0  0  0  0  0  0  0  0  0  0  0  0  # atno 10718 bound_to 10713
  154.7793  135.3169  154.8024 H   0  0  0  0  0  0  0  0  0  0  0  0  # atno 10763 bound_to 10752
  153.8740  135.6841  153.4776 H   0  0  0  0  0  0  0  0  0  0  0  0  # atno 10764 bound_to 10752
  153.1425  135.4733  154.9454 H   0  0  0  0  0  0  0  0  0  0  0  0  # atno 10765 bound_to 10752
  141.1328  133.8280  157.0900 H   0  0  0  0  0  0  0  0  0  0  0  0  # atno 11005 bound_to 11000
  144.8883  139.4809  143.6690 LP  0  0  0  0  0  0  0  0  0  0  0  0  # atno 17320 bound_to 7965
  146.3055  139.7565  142.9059 LP  0  0  0  0  0  0  0  0  0  0  0  0  # atno 17321 bound_to 7965
  139.5572  144.7381  151.4260 LP  0  0  0  0  0  0  0  0  0  0  0  0  # atno 17342 bound_to 10162
  140.6876  143.7938  150.7208 LP  0  0  0  0  0  0  0  0  0  0  0  0  # atno 17343 bound_to 10162
  156.4468  130.4003  149.6661 LP  0  0  0  0  0  0  0  0  0  0  0  0  # atno 17370 bound_to 10713
  156.3825  130.7586  151.2580 LP  0  0  0  0  0  0  0  0  0  0  0  0  # atno 17371 bound_to 10713
  140.0398  134.9860  157.0940 LP  0  0  0  0  0  0  0  0  0  0  0  0  # atno 17394 bound_to 11000
  140.4153  134.1938  155.7163 LP  0  0  0  0  0  0  0  0  0  0  0  0  # atno 17395 bound_to 11000

$$$$
