AV-unprocessed.smi:1446|AV-procd|sdf|5890|dock7
  -GOLD-   22720 5573D 1   1.00000     0.00000
 Structure written by MMmdl.
 47 48  0  0  0  0  0  0  0  0  1 V2000
  156.5146  134.2417  160.8087 C   0  0  0  0  0  0  0  0  0  0  0  0
  155.3149  135.0007  161.3646 C   0  0  0  0  0  0  0  0  0  0  0  0
  154.2318  134.9593  160.7817 O   0  0  0  0  0  0  0  0  0  0  0  0
  155.5235  135.6934  162.4952 N   0  0  0  0  0  0  0  0  0  0  0  0
  154.5162  136.4843  163.2061 C   0  0  1  0  0  0  0  0  0  0  0  0
  154.0015  137.5956  162.2701 C   0  0  0  0  0  0  0  0  0  0  0  0
  153.4547  137.2997  161.2059 O   0  0  0  0  0  0  0  0  0  0  0  0
  154.1792  138.8547  162.7128 N   0  0  0  0  0  0  0  0  0  0  0  0
  153.7745  140.0698  162.1001 C   0  0  0  0  0  0  0  0  0  0  0  0
  153.9156  140.1082  160.6970 C   0  0  0  0  0  0  0  0  0  0  0  0
  153.5553  141.2744  159.9962 C   0  0  0  0  0  0  0  0  0  0  0  0
  153.0602  142.3922  160.7049 C   0  0  0  0  0  0  0  0  0  0  0  0
  152.6994  143.5738  160.0212 N   0  0  0  0  0  0  0  0  0  0  0  0
  152.7357  143.5641  158.5618 C   0  0  0  0  0  0  0  0  0  0  0  0
  152.6111  144.9956  158.0128 C   0  0  0  0  0  0  0  0  0  0  0  0
  151.4325  145.6055  158.5282 O   0  0  0  0  0  0  0  0  0  0  0  0
  151.4674  145.7064  159.9479 C   0  0  0  0  0  0  0  0  0  0  0  0
  151.5571  144.3015  160.5695 C   0  0  0  0  0  0  0  0  0  0  0  0
  152.9463  142.2517  162.1096 C   0  0  0  0  0  0  0  0  0  0  0  0
  153.2925  141.1349  162.7836 N   0  0  0  0  0  0  0  0  0  0  0  0
  153.3413  135.5479  163.6182 C   0  0  0  0  0  0  0  0  0  0  0  0
  152.2256  136.2793  164.3938 C   0  0  0  0  0  0  0  0  0  0  0  0
  153.8306  134.3487  164.4542 C   0  0  0  0  0  0  0  0  0  0  0  0
  156.8951  133.5363  161.5480 H   0  0  0  0  0  0  0  0  0  0  0  0
  157.3149  134.9342  160.5468 H   0  0  0  0  0  0  0  0  0  0  0  0
  156.2396  133.6830  159.9137 H   0  0  0  0  0  0  0  0  0  0  0  0
  156.4454  135.6622  162.9058 H   0  0  0  0  0  0  0  0  0  0  0  0
  154.9597  136.9248  164.1018 H   0  0  0  0  0  0  0  0  0  0  0  0
  154.6510  138.9516  163.6000 H   0  0  0  0  0  0  0  0  0  0  0  0
  154.2961  139.2537  160.1565 H   0  0  0  0  0  0  0  0  0  0  0  0
  153.6526  141.2931  158.9209 H   0  0  0  0  0  0  0  0  0  0  0  0
  153.6690  143.1237  158.2099 H   0  0  0  0  0  0  0  0  0  0  0  0
  151.9172  142.9502  158.1837 H   0  0  0  0  0  0  0  0  0  0  0  0
  153.4873  145.5909  158.2756 H   0  0  0  0  0  0  0  0  0  0  0  0
  152.5541  144.9766  156.9244 H   0  0  0  0  0  0  0  0  0  0  0  0
  152.3122  146.3232  160.2589 H   0  0  0  0  0  0  0  0  0  0  0  0
  150.5635  146.2105  160.2899 H   0  0  0  0  0  0  0  0  0  0  0  0
  150.6468  143.7405  160.3534 H   0  0  0  0  0  0  0  0  0  0  0  0
  151.6201  144.3975  161.6526 H   0  0  0  0  0  0  0  0  0  0  0  0
  152.5821  143.0538  162.7333 H   0  0  0  0  0  0  0  0  0  0  0  0
  152.8891  135.1412  162.7117 H   0  0  0  0  0  0  0  0  0  0  0  0
  152.6177  136.7575  165.2918 H   0  0  0  0  0  0  0  0  0  0  0  0
  151.4447  135.5845  164.7040 H   0  0  0  0  0  0  0  0  0  0  0  0
  151.7386  137.0466  163.7918 H   0  0  0  0  0  0  0  0  0  0  0  0
  154.3301  134.6810  165.3648 H   0  0  0  0  0  0  0  0  0  0  0  0
  154.5299  133.7222  163.9006 H   0  0  0  0  0  0  0  0  0  0  0  0
  152.9983  133.7086  164.7487 H   0  0  0  0  0  0  0  0  0  0  0  0
  1  2  1  0  0  0  0
  1 24  1  0  0  0  0
  1 25  1  0  0  0  0
  1 26  1  0  0  0  0
  2  3  2  0  0  0  0
  2  4  1  0  0  0  0
  4  5  1  0  0  0  0
  4 27  1  0  0  0  0
  5  6  1  0  0  0  0
  5 21  1  0  0  0  0
  5 28  1  0  0  0  0
  6  7  2  0  0  0  0
  6  8  1  0  0  0  0
  8  9  1  0  0  0  0
  8 29  1  0  0  0  0
  9 20  1  0  0  0  0
  9 10  2  0  0  0  0
 10 11  1  0  0  0  0
 10 30  1  0  0  0  0
 11 12  2  0  0  0  0
 11 31  1  0  0  0  0
 12 13  1  0  0  0  0
 12 19  1  0  0  0  0
 13 18  1  0  0  0  0
 13 14  1  0  0  0  0
 14 15  1  0  0  0  0
 14 32  1  0  0  0  0
 14 33  1  0  0  0  0
 15 16  1  0  0  0  0
 15 34  1  0  0  0  0
 15 35  1  0  0  0  0
 16 17  1  0  0  0  0
 17 18  1  0  0  0  0
 17 36  1  0  0  0  0
 17 37  1  0  0  0  0
 18 38  1  0  0  0  0
 18 39  1  0  0  0  0
 19 20  2  0  0  0  0
 19 40  1  0  0  0  0
 21 22  1  0  0  0  0
 21 23  1  0  0  0  0
 21 41  1  0  0  0  0
 22 42  1  0  0  0  0
 22 43  1  0  0  0  0
 22 44  1  0  0  0  0
 23 45  1  0  0  0  0
 23 46  1  0  0  0  0
 23 47  1  0  0  0  0
M  END
> <s_m_source_file>
AV-unprocessed.smi

> <i_m_source_file_index>
1446

> <i_lp_mmshare_version>
43012

> <i_f3d_flags>
0

> <s_epik_input>
W0NIM11DKD1PKVtOSF1bQ0BASF0oW0NIXShbQ0gzXSlbQ0gzXSlDKD1PKVtOSF1jMVtjSF1bY0hdYyhbY0hdbjEpTjJbQ0gyXVtDSDJdT1tDSDJdW0NIMl0y

> <s_epik_cmdline>
J2VwaWtfcHl0aG9uJywgJy1waCcsICc3LjAnLCAnLXRuJywgJzgnLCAnLW1hJywgJzIwMCcsICctbWV0YWxfYmluZGluZycsICctaW1hZScsICc8aW5maWxlLm1hZT4nLCAnLW9tYWUnLCAnPG91dGZpbGUubWFlPic=

> <r_lp_tautomer_probability>
1

> <r_epik_Ionization_Penalty>
0.00298315

> <r_epik_Ionization_Penalty_Charging>
0

> <r_epik_Ionization_Penalty_Neutral>
0.00298315

> <r_epik_State_Penalty>
0.0038483

> <r_epik_Charging_Adjusted_Penalty>
0.0038483

> <i_epik_Tot_Q>
0

> <i_epik_Tot_abs_Q>
0

> <r_epik_Metal_State_Penalty>
-0

> <b_epik_Metal_Only>
0

> <s_lp_Force_Field>
OPLS_2005

> <r_lp_Energy>
27.8209

> <b_lp_Chiralities_Consistent>
1

> <s_lp_Variant>
AV-unprocessed.smi:1446-2

> <Gold.Version>
5.8.1

> <Gold.Id.Protein>
6NUR|6NUR_protein|mol2

> <Gold.PLP.Fitness>
46.7427

> <Gold.PLP.PLP>
-44.7516

> <Gold.PLP.part.hbond>
-2.4671

> <Gold.PLP.part.metal>
0.0000

> <Gold.PLP.part.buried>
-4.5445

> <Gold.PLP.part.nonpolar>
-37.7649

> <Gold.PLP.part.repulsive>
0.1544

> <Gold.PLP.ligand.clash>
0.0000

> <Gold.PLP.ligand.torsion>
0.6923

> <Gold.PLP.Chemscore.Hbond>
1.0000

> <Gold.PLP.Chemscore.CHOScore>
0.0000

> <Gold.PLP.Chemscore.Metal>
0.0000

> <Gold.Chemscore.Hbonds>
donor molecule, donor type, donor heavy atom, donor atom, acceptor molecule, acceptor atom, score
      P1  H  6896  6907       L1     3  1.00

> <Gold.PLP.Chemscore.Internal.Correction>
0.3757

> <Gold.Rescore>
     Score         DG    S(hbond)    S(metal)    S(lipo)     H(rot)  DE(clash)    DE(int)     intcor
     11.92     -17.78       0.93        0.00     116.57       1.74       0.45       5.41       ----

> <Gold.Chemscore.Fitness>
11.9239

> <Gold.Chemscore.DG>
-17.7813

> <Gold.Chemscore.ZeroCoef>
-5.4800

> <Gold.Chemscore.Hbond>
0.9326

> <Gold.Chemscore.Metal>
0.0000

> <Gold.Chemscore.Lipo>
116.5738

> <Gold.Chemscore.Internal_Hbond>
0.0000

> <Gold.Chemscore.DEClash>
0.4519

> <Gold.Chemscore.DEInternal>
5.4055

> <Gold.Chemscore.Rot>
1.7394

> <Gold.Chemscore.Internal.Correction>
   9.000000E+99

> <Gold.Chemscore.Hbonds>
donor molecule, donor type, donor heavy atom, donor atom, acceptor molecule, acceptor atom, score
      P1  H  6896  6907       L1     3  0.95

> <Gold.Chemscore.Hbond.Weighted>
-3.1150

> <Gold.Chemscore.Metal.Weighted>
-0.0000

> <Gold.Chemscore.Lipo.Weighted>
-13.6391

> <Gold.Chemscore.Internal_Hbond.Weighted>
0.0000

> <Gold.Chemscore.DEClash.Weighted>
0.4519

> <Gold.Chemscore.DEInternal.Weighted>
5.4055

> <Gold.Chemscore.Rot.Weighted>
4.4528

> <Gold.Chemscore.Internal.Correction.Weighted>
   9.000000E+99

> <Gold.Protein.RotatedTorsions>
[ 6907 6896 6895 6894 ] final   60.92 input  -60.11 | X-H torsion
[ 7974 7965 7964 7962 ] final  179.84 input  175.53 | X-H torsion
[ 8008 7997 7996 7995 ] final -120.80 input   59.86 | X-H torsion
[ 10167 10162 10161 10158 ] final  -19.74 input  -65.29 | X-H torsion
[ 10718 10713 10712 10709 ] final -131.78 input   66.30 | X-H torsion
[ 10763 10752 10751 10750 ] final -118.42 input  -60.55 | X-H torsion
[ 11005 11000 10999 10996 ] final  147.60 input  -57.11 | X-H torsion

> <Gold.Protein.ActiveResidues>
 VAL166  LYS551  ARG553  GLY616  TRP617  ASP618  TYR619  PRO620  LYS621  CYS622 
 ASP623  PHE694  ASN695  SER759  ASP760  ASP761  ALA762  ILE779  LEU786  VAL792 
 PHE793  MET794  SER795  GLU796  ALA797  LYS798  CYS799  TRP800  GLU811  SER814 

> <Gold.Protein.RotatedAtoms>
  152.4044  134.6232  160.0055 H   0  0  0  0  0  0  0  0  0  0  0  0  # atno 6907 bound_to 6896
  151.6427  133.3319  159.3142 H   0  0  0  0  0  0  0  0  0  0  0  0  # atno 6908 bound_to 6896
  150.7941  134.7028  159.6604 H   0  0  0  0  0  0  0  0  0  0  0  0  # atno 6909 bound_to 6896
  144.7142  140.0609  143.6432 H   0  0  0  0  0  0  0  0  0  0  0  0  # atno 7974 bound_to 7965
  155.1376  140.0401  157.2790 H   0  0  0  0  0  0  0  0  0  0  0  0  # atno 8008 bound_to 7997
  154.6496  140.2566  155.7202 H   0  0  0  0  0  0  0  0  0  0  0  0  # atno 8009 bound_to 7997
  156.2571  140.2839  156.0924 H   0  0  0  0  0  0  0  0  0  0  0  0  # atno 8010 bound_to 7997
  140.7271  143.4789  151.0144 H   0  0  0  0  0  0  0  0  0  0  0  0  # atno 10167 bound_to 10162
  156.2278  130.7019  151.0826 H   0  0  0  0  0  0  0  0  0  0  0  0  # atno 10718 bound_to 10713
  154.8587  135.4274  154.2136 H   0  0  0  0  0  0  0  0  0  0  0  0  # atno 10763 bound_to 10752
  153.3156  135.6979  153.7082 H   0  0  0  0  0  0  0  0  0  0  0  0  # atno 10764 bound_to 10752
  153.6157  135.3511  155.2968 H   0  0  0  0  0  0  0  0  0  0  0  0  # atno 10765 bound_to 10752
  140.0889  134.9052  157.1620 H   0  0  0  0  0  0  0  0  0  0  0  0  # atno 11005 bound_to 11000
  145.9865  139.2981  143.1011 LP  0  0  0  0  0  0  0  0  0  0  0  0  # atno 17320 bound_to 7965
  145.8952  140.9278  143.0531 LP  0  0  0  0  0  0  0  0  0  0  0  0  # atno 17321 bound_to 7965
  139.8486  143.7468  152.3178 LP  0  0  0  0  0  0  0  0  0  0  0  0  # atno 17342 bound_to 10162
  139.7642  144.7497  151.0319 LP  0  0  0  0  0  0  0  0  0  0  0  0  # atno 17343 bound_to 10162
  157.7119  131.0730  150.6470 LP  0  0  0  0  0  0  0  0  0  0  0  0  # atno 17370 bound_to 10713
  156.6536  130.4492  149.5711 LP  0  0  0  0  0  0  0  0  0  0  0  0  # atno 17371 bound_to 10713
  140.3380  134.2736  155.7217 LP  0  0  0  0  0  0  0  0  0  0  0  0  # atno 17394 bound_to 11000
  141.2071  133.7813  157.0135 LP  0  0  0  0  0  0  0  0  0  0  0  0  # atno 17395 bound_to 11000

$$$$
