AV-unprocessed.smi:1812|AV-procd|sdf|7338|dock4
  -GOLD-   22720 8593D 1   1.00000     0.00000
 Structure written by MMmdl.
 33 35  0  0  0  0  0  0  0  0  2 V2000
  152.6334  139.0108  159.4037 O   0  0  0  0  0  0  0  0  0  0  0  0
  152.7214  139.6973  158.3831 C   0  0  0  0  0  0  0  0  0  0  0  0
  152.8084  141.0300  158.4812 N   0  0  0  0  0  0  0  0  0  0  0  0
  152.8106  141.7832  159.7287 C   0  0  0  0  0  0  0  0  0  0  0  0
  151.9123  143.0238  159.6218 C   0  0  2  0  0  0  0  0  0  0  0  0
  152.3975  144.0793  158.6274 C   0  0  0  0  0  0  0  0  0  0  0  0
  151.7348  145.3265  159.1652 C   0  0  0  0  0  0  0  0  0  0  0  0
  151.8442  145.1130  160.6725 C   0  0  0  0  0  0  0  0  0  0  0  0
  151.8458  143.7016  160.8738 O   0  0  0  0  0  0  0  0  0  0  0  0
  152.7391  139.2436  157.1090 N   0  5  0  0  0  0  0  0  0  0  0  0
  151.7861  139.6292  156.2446 C   0  0  0  0  0  0  0  0  0  0  0  0
  151.7844  139.2494  154.9588 N   0  0  0  0  0  0  0  0  0  0  0  0
  150.7179  139.7686  154.2393 N   0  0  0  0  0  0  0  0  0  0  0  0
  149.9315  140.5423  154.9916 C   0  0  0  0  0  0  0  0  0  0  0  0
  148.7207  141.2221  154.4448 C   0  0  0  0  0  0  0  0  0  0  0  0
  147.3896  141.1135  155.1526 C   0  0  0  0  0  0  0  0  0  0  0  0
  147.5864  140.4416  153.8174 C   0  0  0  0  0  0  0  0  0  0  0  0
  150.4447  140.6935  156.6647 S   0  0  0  0  0  0  0  0  0  0  0  0
  152.8789  141.5582  157.6239 H   0  0  0  0  0  0  0  0  0  0  0  0
  152.4585  141.1423  160.5383 H   0  0  0  0  0  0  0  0  0  0  0  0
  153.8322  142.0780  159.9734 H   0  0  0  0  0  0  0  0  0  0  0  0
  150.8962  142.7250  159.3585 H   0  0  0  0  0  0  0  0  0  0  0  0
  153.4827  144.1832  158.6736 H   0  0  0  0  0  0  0  0  0  0  0  0
  152.1178  143.8563  157.5973 H   0  0  0  0  0  0  0  0  0  0  0  0
  152.2116  146.2473  158.8283 H   0  0  0  0  0  0  0  0  0  0  0  0
  150.6867  145.3522  158.8635 H   0  0  0  0  0  0  0  0  0  0  0  0
  152.7865  145.5151  161.0466 H   0  0  0  0  0  0  0  0  0  0  0  0
  151.0313  145.5923  161.2185 H   0  0  0  0  0  0  0  0  0  0  0  0
  148.9857  142.1794  154.0001 H   0  0  0  0  0  0  0  0  0  0  0  0
  147.3358  140.4744  156.0319 H   0  0  0  0  0  0  0  0  0  0  0  0
  146.7630  142.0024  155.1821 H   0  0  0  0  0  0  0  0  0  0  0  0
  147.0924  140.8833  152.9544 H   0  0  0  0  0  0  0  0  0  0  0  0
  147.6487  139.3552  153.8121 H   0  0  0  0  0  0  0  0  0  0  0  0
  1  2  2  0  0  0  0
  2  3  1  0  0  0  0
  2 10  1  0  0  0  0
  3  4  1  0  0  0  0
  3 19  1  0  0  0  0
  4  5  1  0  0  0  0
  4 20  1  0  0  0  0
  4 21  1  0  0  0  0
  5  9  1  0  0  0  0
  5  6  1  0  0  0  0
  5 22  1  0  0  0  0
  6  7  1  0  0  0  0
  6 23  1  0  0  0  0
  6 24  1  0  0  0  0
  7  8  1  0  0  0  0
  7 25  1  0  0  0  0
  7 26  1  0  0  0  0
  8  9  1  0  0  0  0
  8 27  1  0  0  0  0
  8 28  1  0  0  0  0
 10 11  1  0  0  0  0
 11 18  1  0  0  0  0
 11 12  2  0  0  0  0
 12 13  1  0  0  0  0
 13 14  2  0  0  0  0
 14 15  1  0  0  0  0
 14 18  1  0  0  0  0
 15 17  1  0  0  0  0
 15 16  1  0  0  0  0
 15 29  1  0  0  0  0
 16 17  1  0  0  0  0
 16 30  1  0  0  0  0
 16 31  1  0  0  0  0
 17 32  1  0  0  0  0
 17 33  1  0  0  0  0
M  CHG  1  10  -1
M  END
> <s_m_source_file>
AV-unprocessed.smi

> <i_m_source_file_index>
1812

> <i_lp_mmshare_version>
43012

> <i_f3d_flags>
0

> <s_epik_input>
TzFbQ0gyXVtDSDJdW0NIMl1bQ0BIXTFbQ0gyXVtOSF1DKD1PKVtOSF1jMm5uYyhzMilbQ0hdM1tDSDJdW0NIMl0z

> <s_epik_cmdline>
J2VwaWtfcHl0aG9uJywgJy1waCcsICc3LjAnLCAnLXRuJywgJzgnLCAnLW1hJywgJzIwMCcsICctbWV0YWxfYmluZGluZycsICctaW1hZScsICc8aW5maWxlLm1hZT4nLCAnLW9tYWUnLCAnPG91dGZpbGUubWFlPic=

> <r_lp_tautomer_probability>
1

> <r_epik_Ionization_Penalty>
4.72991

> <r_epik_Ionization_Penalty_Charging>
4.58249

> <r_epik_Ionization_Penalty_Neutral>
0.147417

> <r_epik_State_Penalty>
4.58223

> <r_epik_Charging_Adjusted_Penalty>
9.16473

> <i_epik_Tot_Q>
-1

> <i_epik_Tot_abs_Q>
1

> <r_epik_Metal_State_Penalty>
0.861876

> <b_epik_Metal_Only>
1

> <s_lp_Force_Field>
OPLS_2005

> <r_lp_Energy>
13.803

> <b_lp_Chiralities_Consistent>
1

> <s_lp_Variant>
AV-unprocessed.smi:1812-3

> <Gold.Version>
5.8.1

> <Gold.Id.Protein>
6NUR|6NUR_protein|mol2

> <Gold.PLP.Fitness>
44.8612

> <Gold.PLP.PLP>
-37.7412

> <Gold.PLP.part.hbond>
-2.7675

> <Gold.PLP.part.metal>
0.0000

> <Gold.PLP.part.buried>
-2.7503

> <Gold.PLP.part.nonpolar>
-33.5965

> <Gold.PLP.part.repulsive>
0.3849

> <Gold.PLP.ligand.clash>
0.0000

> <Gold.PLP.ligand.torsion>
0.7854

> <Gold.PLP.Chemscore.Hbond>
2.8500

> <Gold.PLP.Chemscore.CHOScore>
0.0000

> <Gold.PLP.Chemscore.Metal>
0.0000

> <Gold.Chemscore.Hbonds>
donor molecule, donor type, donor heavy atom, donor atom, acceptor molecule, acceptor atom, score
      P1  H  7989  7998       L1    13  0.70
      P1  H  7997  8009       L1    10  2.00

> <Gold.PLP.Chemscore.Internal.Correction>
0.1409

> <Gold.Rescore>
     Score         DG    S(hbond)    S(metal)    S(lipo)     H(rot)  DE(clash)    DE(int)     intcor
     12.42     -13.46       0.34        0.00      90.05       1.45       0.03       1.00       ----

> <Gold.Chemscore.Fitness>
12.4214

> <Gold.Chemscore.DG>
-13.4557

> <Gold.Chemscore.ZeroCoef>
-5.4800

> <Gold.Chemscore.Hbond>
0.3413

> <Gold.Chemscore.Metal>
0.0000

> <Gold.Chemscore.Lipo>
90.0454

> <Gold.Chemscore.Internal_Hbond>
0.0000

> <Gold.Chemscore.DEClash>
0.0330

> <Gold.Chemscore.DEInternal>
1.0013

> <Gold.Chemscore.Rot>
1.4451

> <Gold.Chemscore.Internal.Correction>
   9.000000E+99

> <Gold.Chemscore.Hbonds>
donor molecule, donor type, donor heavy atom, donor atom, acceptor molecule, acceptor atom, score
      P1  H  7989  7998       L1    13  0.03
      P1  H  7997  8009       L1    10  0.13

> <Gold.Chemscore.Hbond.Weighted>
-1.1399

> <Gold.Chemscore.Metal.Weighted>
-0.0000

> <Gold.Chemscore.Lipo.Weighted>
-10.5353

> <Gold.Chemscore.Internal_Hbond.Weighted>
0.0000

> <Gold.Chemscore.DEClash.Weighted>
0.0330

> <Gold.Chemscore.DEInternal.Weighted>
1.0013

> <Gold.Chemscore.Rot.Weighted>
3.6995

> <Gold.Chemscore.Internal.Correction.Weighted>
   9.000000E+99

> <Gold.Protein.RotatedTorsions>
[ 6907 6896 6895 6894 ] final   88.69 input  -60.11 | X-H torsion
[ 7974 7965 7964 7962 ] final   12.16 input  175.53 | X-H torsion
[ 8008 7997 7996 7995 ] final -164.17 input   59.86 | X-H torsion
[ 10167 10162 10161 10158 ] final   21.40 input  -65.29 | X-H torsion
[ 10718 10713 10712 10709 ] final   97.28 input   66.30 | X-H torsion
[ 10763 10752 10751 10750 ] final  163.55 input  -60.55 | X-H torsion
[ 11005 11000 10999 10996 ] final  -68.05 input  -57.11 | X-H torsion

> <Gold.Protein.ActiveResidues>
 VAL166  LYS551  ARG553  GLY616  TRP617  ASP618  TYR619  PRO620  LYS621  CYS622 
 ASP623  PHE694  ASN695  SER759  ASP760  ASP761  ALA762  ILE779  LEU786  VAL792 
 PHE793  MET794  SER795  GLU796  ALA797  LYS798  CYS799  TRP800  GLU811  SER814 

> <Gold.Protein.RotatedAtoms>
  152.5428  134.2082  159.8739 H   0  0  0  0  0  0  0  0  0  0  0  0  # atno 6907 bound_to 6896
  151.2066  133.4573  159.2605 H   0  0  0  0  0  0  0  0  0  0  0  0  # atno 6908 bound_to 6896
  151.0937  134.9944  159.8471 H   0  0  0  0  0  0  0  0  0  0  0  0  # atno 6909 bound_to 6896
  146.2357  139.9377  142.8487 H   0  0  0  0  0  0  0  0  0  0  0  0  # atno 7974 bound_to 7965
  155.8317  140.0935  157.1788 H   0  0  0  0  0  0  0  0  0  0  0  0  # atno 8008 bound_to 7997
  154.3980  140.1417  156.3683 H   0  0  0  0  0  0  0  0  0  0  0  0  # atno 8009 bound_to 7997
  155.8158  140.3448  155.5487 H   0  0  0  0  0  0  0  0  0  0  0  0  # atno 8010 bound_to 7997
  140.5429  143.9645  150.6530 H   0  0  0  0  0  0  0  0  0  0  0  0  # atno 10167 bound_to 10162
  157.6915  131.0604  150.4619 H   0  0  0  0  0  0  0  0  0  0  0  0  # atno 10718 bound_to 10713
  154.2954  135.2760  155.2635 H   0  0  0  0  0  0  0  0  0  0  0  0  # atno 10763 bound_to 10752
  154.5096  135.5786  153.6597 H   0  0  0  0  0  0  0  0  0  0  0  0  # atno 10764 bound_to 10752
  152.9908  135.6178  154.3121 H   0  0  0  0  0  0  0  0  0  0  0  0  # atno 10765 bound_to 10752
  141.1523  133.6732  156.6387 H   0  0  0  0  0  0  0  0  0  0  0  0  # atno 11005 bound_to 11000
  145.1982  140.9843  143.4171 LP  0  0  0  0  0  0  0  0  0  0  0  0  # atno 17320 bound_to 7965
  144.9796  139.3796  143.6268 LP  0  0  0  0  0  0  0  0  0  0  0  0  # atno 17321 bound_to 7965
  140.3050  143.3235  152.0934 LP  0  0  0  0  0  0  0  0  0  0  0  0  # atno 17342 bound_to 10162
  139.4996  144.6672  151.6327 LP  0  0  0  0  0  0  0  0  0  0  0  0  # atno 17343 bound_to 10162
  156.4963  130.4107  149.6378 LP  0  0  0  0  0  0  0  0  0  0  0  0  # atno 17370 bound_to 10713
  156.3370  130.7362  151.2301 LP  0  0  0  0  0  0  0  0  0  0  0  0  # atno 17371 bound_to 10713
  140.3410  134.7848  157.4398 LP  0  0  0  0  0  0  0  0  0  0  0  0  # atno 17394 bound_to 11000
  140.0938  134.5565  155.8419 LP  0  0  0  0  0  0  0  0  0  0  0  0  # atno 17395 bound_to 11000

$$$$
