AV-unprocessed.smi:349|AV-procd|sdf|2397|dock2
  -GOLD-   2262022323D 1   1.00000     0.00000
 Structure written by MMmdl.
 43 44  0  0  0  0  0  0  0  0  1 V2000
  147.6729  133.2274  161.4485 C   0  0  0  0  0  0  0  0  0  0  0  0
  147.3496  134.5922  162.0766 C   0  0  0  0  0  0  0  0  0  0  0  0
  146.6914  135.5974  161.1057 C   0  0  1  0  0  0  0  0  0  0  0  0
  145.7979  136.5924  161.8659 C   0  0  0  0  0  0  0  0  0  0  0  0
  147.7329  136.3602  160.2737 C   0  0  0  0  0  0  0  0  0  0  0  0
  148.5319  137.1175  160.8253 O   0  0  0  0  0  0  0  0  0  0  0  0
  147.7045  136.1562  158.9470 N   0  0  0  0  0  0  0  0  0  0  0  0
  148.5784  136.7938  157.9657 C   0  0  0  0  0  0  0  0  0  0  0  0
  149.3862  135.7962  157.1340 C   0  0  0  0  0  0  0  0  0  0  0  0
  149.2107  134.4091  157.3444 C   0  0  0  0  0  0  0  0  0  0  0  0
  149.9311  133.4911  156.5604 C   0  0  0  0  0  0  0  0  0  0  0  0
  150.8036  133.9949  155.5807 C   0  0  0  0  0  0  0  0  0  0  0  0
  150.9789  135.3131  155.3588 N   0  0  0  0  0  0  0  0  0  0  0  0
  150.2874  136.2043  156.1114 C   0  0  0  0  0  0  0  0  0  0  0  0
  150.5171  137.5682  155.8553 N   0  0  0  0  0  0  0  0  0  0  0  0
  149.9969  138.0965  154.5985 C   0  0  0  0  0  0  0  0  0  0  0  0
  150.1574  139.6258  154.5694 C   0  0  0  0  0  0  0  0  0  0  0  0
  151.5269  139.9641  154.7718 O   0  0  0  0  0  0  0  0  0  0  0  0
  152.0130  139.5055  156.0305 C   0  0  0  0  0  0  0  0  0  0  0  0
  151.8944  137.9733  156.1067 C   0  0  0  0  0  0  0  0  0  0  0  0
  148.0756  132.5449  162.1970 H   0  0  0  0  0  0  0  0  0  0  0  0
  148.4138  133.3137  160.6534 H   0  0  0  0  0  0  0  0  0  0  0  0
  146.7790  132.7669  161.0270 H   0  0  0  0  0  0  0  0  0  0  0  0
  146.6804  134.4283  162.9221 H   0  0  0  0  0  0  0  0  0  0  0  0
  148.2601  135.0200  162.4990 H   0  0  0  0  0  0  0  0  0  0  0  0
  146.0496  135.0364  160.4241 H   0  0  0  0  0  0  0  0  0  0  0  0
  145.3327  137.3079  161.1867 H   0  0  0  0  0  0  0  0  0  0  0  0
  146.3655  137.1569  162.6067 H   0  0  0  0  0  0  0  0  0  0  0  0
  144.9955  136.0737  162.3912 H   0  0  0  0  0  0  0  0  0  0  0  0
  147.0134  135.5146  158.5861 H   0  0  0  0  0  0  0  0  0  0  0  0
  148.0066  137.4225  157.2817 H   0  0  0  0  0  0  0  0  0  0  0  0
  149.2213  137.4768  158.5176 H   0  0  0  0  0  0  0  0  0  0  0  0
  148.5252  134.0433  158.0937 H   0  0  0  0  0  0  0  0  0  0  0  0
  149.8132  132.4273  156.7036 H   0  0  0  0  0  0  0  0  0  0  0  0
  151.3744  133.3227  154.9574 H   0  0  0  0  0  0  0  0  0  0  0  0
  150.5359  137.6561  153.7585 H   0  0  0  0  0  0  0  0  0  0  0  0
  148.9458  137.8261  154.4902 H   0  0  0  0  0  0  0  0  0  0  0  0
  149.8318  140.0205  153.6069 H   0  0  0  0  0  0  0  0  0  0  0  0
  149.5380  140.0972  155.3342 H   0  0  0  0  0  0  0  0  0  0  0  0
  153.0543  139.8082  156.1402 H   0  0  0  0  0  0  0  0  0  0  0  0
  151.4558  139.9788  156.8408 H   0  0  0  0  0  0  0  0  0  0  0  0
  152.2254  137.6209  157.0841 H   0  0  0  0  0  0  0  0  0  0  0  0
  152.5456  137.5109  155.3635 H   0  0  0  0  0  0  0  0  0  0  0  0
  1  2  1  0  0  0  0
  1 21  1  0  0  0  0
  1 22  1  0  0  0  0
  1 23  1  0  0  0  0
  2  3  1  0  0  0  0
  2 24  1  0  0  0  0
  2 25  1  0  0  0  0
  3  4  1  0  0  0  0
  3  5  1  0  0  0  0
  3 26  1  0  0  0  0
  4 27  1  0  0  0  0
  4 28  1  0  0  0  0
  4 29  1  0  0  0  0
  5  6  2  0  0  0  0
  5  7  1  0  0  0  0
  7  8  1  0  0  0  0
  7 30  1  0  0  0  0
  8  9  1  0  0  0  0
  8 31  1  0  0  0  0
  8 32  1  0  0  0  0
  9 14  1  0  0  0  0
  9 10  2  0  0  0  0
 10 11  1  0  0  0  0
 10 33  1  0  0  0  0
 11 12  2  0  0  0  0
 11 34  1  0  0  0  0
 12 13  1  0  0  0  0
 12 35  1  0  0  0  0
 13 14  2  0  0  0  0
 14 15  1  0  0  0  0
 15 20  1  0  0  0  0
 15 16  1  0  0  0  0
 16 17  1  0  0  0  0
 16 36  1  0  0  0  0
 16 37  1  0  0  0  0
 17 18  1  0  0  0  0
 17 38  1  0  0  0  0
 17 39  1  0  0  0  0
 18 19  1  0  0  0  0
 19 20  1  0  0  0  0
 19 40  1  0  0  0  0
 19 41  1  0  0  0  0
 20 42  1  0  0  0  0
 20 43  1  0  0  0  0
M  END
> <s_m_source_file>
AV-unprocessed.smi

> <i_m_source_file_index>
349

> <i_lp_mmshare_version>
43012

> <i_f3d_flags>
0

> <s_epik_input>
W0NIM11bQ0gyXVtDQEhdKFtDSDNdKUMoPU8pW05IXVtDSDJdYzFbY0hdW2NIXVtjSF1uYzFOMltDSDJdW0NIMl1PW0NIMl1bQ0gyXTI=

> <s_epik_cmdline>
J2VwaWtfcHl0aG9uJywgJy1waCcsICc3LjAnLCAnLXRuJywgJzgnLCAnLW1hJywgJzIwMCcsICctbWV0YWxfYmluZGluZycsICctaW1hZScsICc8aW5maWxlLm1hZT4nLCAnLW9tYWUnLCAnPG91dGZpbGUubWFlPic=

> <r_lp_tautomer_probability>
1

> <r_epik_Ionization_Penalty>
0.00513869

> <r_epik_Ionization_Penalty_Charging>
0

> <r_epik_Ionization_Penalty_Neutral>
0.00513869

> <r_epik_State_Penalty>
0.00374265

> <r_epik_Charging_Adjusted_Penalty>
0.00374265

> <i_epik_Tot_Q>
0

> <i_epik_Tot_abs_Q>
0

> <r_epik_Metal_State_Penalty>
-0

> <b_epik_Metal_Only>
0

> <s_lp_Force_Field>
OPLS_2005

> <r_lp_Energy>
19.4622

> <b_lp_Chiralities_Consistent>
1

> <s_lp_Variant>
AV-unprocessed.smi:349-2

> <Gold.Version>
5.8.1

> <Gold.Id.Protein>
6NUR|6NUR_protein|mol2

> <Gold.PLP.Fitness>
37.2821

> <Gold.PLP.PLP>
-28.6928

> <Gold.PLP.part.hbond>
-3.7290

> <Gold.PLP.part.metal>
0.0000

> <Gold.PLP.part.buried>
-3.9027

> <Gold.PLP.part.nonpolar>
-21.1433

> <Gold.PLP.part.repulsive>
0.2839

> <Gold.PLP.ligand.clash>
0.0000

> <Gold.PLP.ligand.torsion>
0.4290

> <Gold.PLP.Chemscore.Hbond>
3.0799

> <Gold.PLP.Chemscore.CHOScore>
0.0000

> <Gold.PLP.Chemscore.Metal>
0.0000

> <Gold.Chemscore.Hbonds>
donor molecule, donor type, donor heavy atom, donor atom, acceptor molecule, acceptor atom, score
      P1  H  6931  6943       L1     6  0.90
      P1  H  6934  6947       L1     6  0.13
      P1  H  7989  7998       L1    18  0.80
      P1  H 10752 10765       L1    13  0.84

> <Gold.PLP.Chemscore.Internal.Correction>
0.2075

> <Gold.Rescore>
     Score         DG    S(hbond)    S(metal)    S(lipo)     H(rot)  DE(clash)    DE(int)     intcor
     17.95     -18.88       2.91        0.00      67.35       1.64       0.01       0.92       ----

> <Gold.Chemscore.Fitness>
17.9479

> <Gold.Chemscore.DG>
-18.8777

> <Gold.Chemscore.ZeroCoef>
-5.4800

> <Gold.Chemscore.Hbond>
2.9095

> <Gold.Chemscore.Metal>
0.0000

> <Gold.Chemscore.Lipo>
67.3521

> <Gold.Chemscore.Internal_Hbond>
0.0000

> <Gold.Chemscore.DEClash>
0.0106

> <Gold.Chemscore.DEInternal>
0.9191

> <Gold.Chemscore.Rot>
1.6407

> <Gold.Chemscore.Internal.Correction>
   9.000000E+99

> <Gold.Chemscore.Hbonds>
donor molecule, donor type, donor heavy atom, donor atom, acceptor molecule, acceptor atom, score
      P1  H  6931  6943       L1     6  0.88
      P1  H  6934  6947       L1     6  0.03
      P1  H  7989  7998       L1    18  0.11
      P1  H 10752 10765       L1    13  0.39

> <Gold.Chemscore.Hbond.Weighted>
-9.7177

> <Gold.Chemscore.Metal.Weighted>
-0.0000

> <Gold.Chemscore.Lipo.Weighted>
-7.8802

> <Gold.Chemscore.Internal_Hbond.Weighted>
0.0000

> <Gold.Chemscore.DEClash.Weighted>
0.0106

> <Gold.Chemscore.DEInternal.Weighted>
0.9191

> <Gold.Chemscore.Rot.Weighted>
4.2001

> <Gold.Chemscore.Internal.Correction.Weighted>
   9.000000E+99

> <Gold.Protein.RotatedTorsions>
[ 6907 6896 6895 6894 ] final   83.58 input  -60.11 | X-H torsion
[ 7974 7965 7964 7962 ] final -112.27 input  175.53 | X-H torsion
[ 8008 7997 7996 7995 ] final -136.94 input   59.86 | X-H torsion
[ 10167 10162 10161 10158 ] final  -39.45 input  -65.29 | X-H torsion
[ 10718 10713 10712 10709 ] final  -27.31 input   66.30 | X-H torsion
[ 10763 10752 10751 10750 ] final -165.78 input  -60.55 | X-H torsion
[ 11005 11000 10999 10996 ] final    4.45 input  -57.11 | X-H torsion

> <Gold.Protein.ActiveResidues>
 VAL166  LYS551  ARG553  GLY616  TRP617  ASP618  TYR619  PRO620  LYS621  CYS622 
 ASP623  PHE694  ASN695  SER759  ASP760  ASP761  ALA762  ILE779  LEU786  VAL792 
 PHE793  MET794  SER795  GLU796  ALA797  LYS798  CYS799  TRP800  GLU811  SER814 

> <Gold.Protein.RotatedAtoms>
  152.5331  134.2874  159.9029 H   0  0  0  0  0  0  0  0  0  0  0  0  # atno 6907 bound_to 6896
  151.2827  133.4195  159.2635 H   0  0  0  0  0  0  0  0  0  0  0  0  # atno 6908 bound_to 6896
  151.0270  134.9526  159.8147 H   0  0  0  0  0  0  0  0  0  0  0  0  # atno 6909 bound_to 6896
  145.1461  140.8804  143.3674 H   0  0  0  0  0  0  0  0  0  0  0  0  # atno 7974 bound_to 7965
  155.4035  140.0507  157.3035 H   0  0  0  0  0  0  0  0  0  0  0  0  # atno 8008 bound_to 7997
  154.4979  140.2145  155.9368 H   0  0  0  0  0  0  0  0  0  0  0  0  # atno 8009 bound_to 7997
  156.1430  140.3150  155.8530 H   0  0  0  0  0  0  0  0  0  0  0  0  # atno 8010 bound_to 7997
  140.7063  143.3213  151.2784 H   0  0  0  0  0  0  0  0  0  0  0  0  # atno 10167 bound_to 10162
  156.4398  130.4462  149.7060 H   0  0  0  0  0  0  0  0  0  0  0  0  # atno 10718 bound_to 10713
  154.6898  135.2969  154.9496 H   0  0  0  0  0  0  0  0  0  0  0  0  # atno 10763 bound_to 10752
  154.0463  135.6650  153.4799 H   0  0  0  0  0  0  0  0  0  0  0  0  # atno 10764 bound_to 10752
  153.0604  135.5119  154.7984 H   0  0  0  0  0  0  0  0  0  0  0  0  # atno 10765 bound_to 10752
  140.5817  134.0006  155.8051 H   0  0  0  0  0  0  0  0  0  0  0  0  # atno 11005 bound_to 11000
  145.0481  139.3204  143.5943 LP  0  0  0  0  0  0  0  0  0  0  0  0  # atno 17320 bound_to 7965
  146.3500  139.9879  142.8689 LP  0  0  0  0  0  0  0  0  0  0  0  0  # atno 17321 bound_to 7965
  139.6668  144.0090  152.2728 LP  0  0  0  0  0  0  0  0  0  0  0  0  # atno 17342 bound_to 10162
  139.9676  144.6516  150.8020 LP  0  0  0  0  0  0  0  0  0  0  0  0  # atno 17343 bound_to 10162
  156.3929  130.7636  151.2638 LP  0  0  0  0  0  0  0  0  0  0  0  0  # atno 17370 bound_to 10713
  157.7506  131.0262  150.3954 LP  0  0  0  0  0  0  0  0  0  0  0  0  # atno 17371 bound_to 10713
  141.0992  133.9796  157.3109 LP  0  0  0  0  0  0  0  0  0  0  0  0  # atno 17394 bound_to 11000
  139.9314  135.0199  156.8412 LP  0  0  0  0  0  0  0  0  0  0  0  0  # atno 17395 bound_to 11000

$$$$
