AV-unprocessed.smi:2627|AV-procd|sdf|10241|dock9
  -GOLD-   2272014253D 1   1.00000     0.00000
 Structure written by MMmdl.
 40 42  0  0  0  0  0  0  0  0  2 V2000
  153.0522  138.4452  154.4722 C   0  0  0  0  0  0  0  0  0  0  0  0
  151.7145  137.7930  154.8440 C   0  0  2  0  0  0  0  0  0  0  0  0
  151.5935  136.5742  154.1403 O   0  0  0  0  0  0  0  0  0  0  0  0
  150.5728  138.7216  154.5674 C   0  0  0  0  0  0  0  0  0  0  0  0
  149.5079  138.4640  153.7552 N   0  3  0  0  0  0  0  0  0  0  0  0
  148.6479  139.5625  153.7381 C   0  0  0  0  0  0  0  0  0  0  0  0
  147.4443  139.7675  153.0706 C   0  0  0  0  0  0  0  0  0  0  0  0
  146.8120  141.0117  153.2740 C   0  0  0  0  0  0  0  0  0  0  0  0
  147.3763  141.9933  154.1147 C   0  0  0  0  0  0  0  0  0  0  0  0
  148.5979  141.7742  154.7854 C   0  0  0  0  0  0  0  0  0  0  0  0
  149.2182  140.5428  154.5756 C   0  0  0  0  0  0  0  0  0  0  0  0
  150.4094  139.9859  155.0538 N   0  0  0  0  0  0  0  0  0  0  0  0
  151.2600  140.7717  155.9568 C   0  0  0  0  0  0  0  0  0  0  0  0
  150.6534  140.8783  157.3606 C   0  0  0  0  0  0  0  0  0  0  0  0
  151.7013  141.1392  158.2826 O   0  0  0  0  0  0  0  0  0  0  0  0
  151.8081  142.4098  158.8056 C   0  0  0  0  0  0  0  0  0  0  0  0
  152.3904  142.5274  160.0847 C   0  0  0  0  0  0  0  0  0  0  0  0
  152.5375  143.7867  160.6973 C   0  0  0  0  0  0  0  0  0  0  0  0
  152.1026  144.9475  160.0318 C   0  0  0  0  0  0  0  0  0  0  0  0
  151.5211  144.8454  158.7543 C   0  0  0  0  0  0  0  0  0  0  0  0
  151.3732  143.5855  158.1421 C   0  0  0  0  0  0  0  0  0  0  0  0
  153.2077  139.3674  155.0330 H   0  0  0  0  0  0  0  0  0  0  0  0
  153.0943  138.6902  153.4103 H   0  0  0  0  0  0  0  0  0  0  0  0
  153.8882  137.7811  154.6946 H   0  0  0  0  0  0  0  0  0  0  0  0
  151.7192  137.5507  155.9071 H   0  0  0  0  0  0  0  0  0  0  0  0
  151.4119  136.7676  153.2329 H   0  0  0  0  0  0  0  0  0  0  0  0
  147.0092  139.0165  152.4273 H   0  0  0  0  0  0  0  0  0  0  0  0
  145.8752  141.2171  152.7763 H   0  0  0  0  0  0  0  0  0  0  0  0
  146.8622  142.9344  154.2477 H   0  0  0  0  0  0  0  0  0  0  0  0
  149.0198  142.5327  155.4282 H   0  0  0  0  0  0  0  0  0  0  0  0
  152.2336  140.2832  156.0040 H   0  0  0  0  0  0  0  0  0  0  0  0
  151.4324  141.7572  155.5235 H   0  0  0  0  0  0  0  0  0  0  0  0
  149.9144  141.6807  157.3891 H   0  0  0  0  0  0  0  0  0  0  0  0
  150.1528  139.9426  157.6149 H   0  0  0  0  0  0  0  0  0  0  0  0
  152.7262  141.6410  160.6027 H   0  0  0  0  0  0  0  0  0  0  0  0
  152.9837  143.8611  161.6779 H   0  0  0  0  0  0  0  0  0  0  0  0
  152.2152  145.9143  160.4997 H   0  0  0  0  0  0  0  0  0  0  0  0
  151.1876  145.7357  158.2420 H   0  0  0  0  0  0  0  0  0  0  0  0
  150.9237  143.5483  157.1616 H   0  0  0  0  0  0  0  0  0  0  0  0
  149.3829  137.5939  153.2537 H   0  0  0  0  0  0  0  0  0  0  0  0
  1  2  1  0  0  0  0
  1 22  1  0  0  0  0
  1 23  1  0  0  0  0
  1 24  1  0  0  0  0
  2  3  1  0  0  0  0
  2  4  1  0  0  0  0
  2 25  1  0  0  0  0
  3 26  1  0  0  0  0
  4 12  1  0  0  0  0
  4  5  2  0  0  0  0
  5  6  1  0  0  0  0
  5 40  1  0  0  0  0
  6 11  2  0  0  0  0
  6  7  1  0  0  0  0
  7  8  2  0  0  0  0
  7 27  1  0  0  0  0
  8  9  1  0  0  0  0
  8 28  1  0  0  0  0
  9 10  2  0  0  0  0
  9 29  1  0  0  0  0
 10 11  1  0  0  0  0
 10 30  1  0  0  0  0
 11 12  1  0  0  0  0
 12 13  1  0  0  0  0
 13 14  1  0  0  0  0
 13 31  1  0  0  0  0
 13 32  1  0  0  0  0
 14 15  1  0  0  0  0
 14 33  1  0  0  0  0
 14 34  1  0  0  0  0
 15 16  1  0  0  0  0
 16 21  1  0  0  0  0
 16 17  2  0  0  0  0
 17 18  1  0  0  0  0
 17 35  1  0  0  0  0
 18 19  2  0  0  0  0
 18 36  1  0  0  0  0
 19 20  1  0  0  0  0
 19 37  1  0  0  0  0
 20 21  2  0  0  0  0
 20 38  1  0  0  0  0
 21 39  1  0  0  0  0
M  CHG  1   5   1
M  END
> <s_m_source_file>
AV-unprocessed.smi

> <i_m_source_file_index>
2627

> <i_lp_mmshare_version>
43012

> <i_f3d_flags>
0

> <s_epik_input>
W2NIXTFbY0hdW2NIXVtjSF1jKGMxMiluKGMobjIpW0NASF0oW0NIM10pW09IXSlbQ0gyXVtDSDJdT2MzW2NIXVtjSF1bY0hdW2NIXVtjSF0z

> <s_epik_cmdline>
J2VwaWtfcHl0aG9uJywgJy1waCcsICc3LjAnLCAnLXRuJywgJzgnLCAnLW1hJywgJzIwMCcsICctbWV0YWxfYmluZGluZycsICctaW1hZScsICc8aW5maWxlLm1hZT4nLCAnLW9tYWUnLCAnPG91dGZpbGUubWFlPic=

> <r_lp_tautomer_probability>
1

> <r_epik_Ionization_Penalty>
1.52183

> <r_epik_Ionization_Penalty_Charging>
1.5218

> <r_epik_Ionization_Penalty_Neutral>
2.92192e-05

> <r_epik_State_Penalty>
1.61369

> <r_epik_Charging_Adjusted_Penalty>
3.13549

> <i_epik_Tot_Q>
1

> <i_epik_Tot_abs_Q>
1

> <r_epik_Metal_State_Penalty>
5.66625

> <b_epik_Metal_Only>
0

> <s_lp_Force_Field>
OPLS_2005

> <r_lp_Energy>
19.9406

> <b_lp_Chiralities_Consistent>
1

> <s_lp_Variant>
AV-unprocessed.smi:2627-3

> <Gold.Version>
5.8.1

> <Gold.Id.Protein>
6NUR|6NUR_protein|mol2

> <Gold.PLP.Fitness>
62.5786

> <Gold.PLP.PLP>
-52.8448

> <Gold.PLP.part.hbond>
-4.0000

> <Gold.PLP.part.metal>
0.0000

> <Gold.PLP.part.buried>
0.4115

> <Gold.PLP.part.nonpolar>
-48.7966

> <Gold.PLP.part.repulsive>
0.0591

> <Gold.PLP.ligand.clash>
0.0000

> <Gold.PLP.ligand.torsion>
0.9947

> <Gold.PLP.Chemscore.Hbond>
3.8960

> <Gold.PLP.Chemscore.CHOScore>
0.0000

> <Gold.PLP.Chemscore.Metal>
0.0000

> <Gold.Chemscore.Hbonds>
donor molecule, donor type, donor heavy atom, donor atom, acceptor molecule, acceptor atom, score
      L1  H     3    26       P1  7949  0.88
      L1  H     5    40       P1  7948  2.00
      P1  H 10752 10763       L1     3  1.00

> <Gold.PLP.Chemscore.Internal.Correction>
0.0352

> <Gold.Rescore>
     Score         DG    S(hbond)    S(metal)    S(lipo)     H(rot)  DE(clash)    DE(int)     intcor
     21.79     -25.07       2.42        0.00     144.82       2.13       2.25       1.02       ----

> <Gold.Chemscore.Fitness>
21.7894

> <Gold.Chemscore.DG>
-25.0676

> <Gold.Chemscore.ZeroCoef>
-5.4800

> <Gold.Chemscore.Hbond>
2.4239

> <Gold.Chemscore.Metal>
0.0000

> <Gold.Chemscore.Lipo>
144.8220

> <Gold.Chemscore.Internal_Hbond>
0.0000

> <Gold.Chemscore.DEClash>
2.2540

> <Gold.Chemscore.DEInternal>
1.0241

> <Gold.Chemscore.Rot>
2.1299

> <Gold.Chemscore.Internal.Correction>
   9.000000E+99

> <Gold.Chemscore.Hbonds>
donor molecule, donor type, donor heavy atom, donor atom, acceptor molecule, acceptor atom, score
      L1  H     3    26       P1  7949  0.71
      L1  H     5    40       P1  7948  0.94
      P1  H 10752 10763       L1     3  0.30

> <Gold.Chemscore.Hbond.Weighted>
-8.0960

> <Gold.Chemscore.Metal.Weighted>
-0.0000

> <Gold.Chemscore.Lipo.Weighted>
-16.9442

> <Gold.Chemscore.Internal_Hbond.Weighted>
0.0000

> <Gold.Chemscore.DEClash.Weighted>
2.2540

> <Gold.Chemscore.DEInternal.Weighted>
1.0241

> <Gold.Chemscore.Rot.Weighted>
5.4526

> <Gold.Chemscore.Internal.Correction.Weighted>
   9.000000E+99

> <Gold.Protein.RotatedTorsions>
[ 6907 6896 6895 6894 ] final   20.63 input  -60.11 | X-H torsion
[ 7974 7965 7964 7962 ] final  -43.45 input  175.53 | X-H torsion
[ 8008 7997 7996 7995 ] final  128.92 input   59.86 | X-H torsion
[ 10167 10162 10161 10158 ] final   -9.19 input  -65.29 | X-H torsion
[ 10718 10713 10712 10709 ] final -151.65 input   66.30 | X-H torsion
[ 10763 10752 10751 10750 ] final   25.33 input  -60.55 | X-H torsion
[ 11005 11000 10999 10996 ] final  145.40 input  -57.11 | X-H torsion

> <Gold.Protein.ActiveResidues>
 VAL166  LYS551  ARG553  GLY616  TRP617  ASP618  TYR619  PRO620  LYS621  CYS622 
 ASP623  PHE694  ASN695  SER759  ASP760  ASP761  ALA762  ILE779  LEU786  VAL792 
 PHE793  MET794  SER795  GLU796  ALA797  LYS798  CYS799  TRP800  GLU811  SER814 

> <Gold.Protein.RotatedAtoms>
  151.8993  135.0385  160.0504 H   0  0  0  0  0  0  0  0  0  0  0  0  # atno 6907 bound_to 6896
  152.2371  133.5101  159.5257 H   0  0  0  0  0  0  0  0  0  0  0  0  # atno 6908 bound_to 6896
  150.7042  134.1055  159.4024 H   0  0  0  0  0  0  0  0  0  0  0  0  # atno 6909 bound_to 6896
  146.0018  140.7066  142.9267 H   0  0  0  0  0  0  0  0  0  0  0  0  # atno 7974 bound_to 7965
  156.2925  140.2633  156.2514 H   0  0  0  0  0  0  0  0  0  0  0  0  # atno 8008 bound_to 7997
  154.9879  140.0389  157.2325 H   0  0  0  0  0  0  0  0  0  0  0  0  # atno 8009 bound_to 7997
  154.7713  140.2778  155.6140 H   0  0  0  0  0  0  0  0  0  0  0  0  # atno 8010 bound_to 7997
  140.7080  143.5885  150.8918 H   0  0  0  0  0  0  0  0  0  0  0  0  # atno 10167 bound_to 10162
  156.4621  130.8218  151.2449 H   0  0  0  0  0  0  0  0  0  0  0  0  # atno 10718 bound_to 10713
  153.0700  135.6585  154.0269 H   0  0  0  0  0  0  0  0  0  0  0  0  # atno 10763 bound_to 10752
  153.9917  135.2945  155.3412 H   0  0  0  0  0  0  0  0  0  0  0  0  # atno 10764 bound_to 10752
  154.7071  135.5221  153.8680 H   0  0  0  0  0  0  0  0  0  0  0  0  # atno 10765 bound_to 10752
  140.0709  134.9152  157.1343 H   0  0  0  0  0  0  0  0  0  0  0  0  # atno 11005 bound_to 11000
  144.6922  140.3246  143.7226 LP  0  0  0  0  0  0  0  0  0  0  0  0  # atno 17320 bound_to 7965
  145.7476  139.1783  143.2340 LP  0  0  0  0  0  0  0  0  0  0  0  0  # atno 17321 bound_to 7965
  139.9610  143.6163  152.3002 LP  0  0  0  0  0  0  0  0  0  0  0  0  # atno 17342 bound_to 10162
  139.6716  144.7660  151.1772 LP  0  0  0  0  0  0  0  0  0  0  0  0  # atno 17343 bound_to 10162
  157.7497  131.0104  150.3303 LP  0  0  0  0  0  0  0  0  0  0  0  0  # atno 17370 bound_to 10713
  156.3706  130.3863  149.7179 LP  0  0  0  0  0  0  0  0  0  0  0  0  # atno 17371 bound_to 10713
  140.3628  134.2475  155.7185 LP  0  0  0  0  0  0  0  0  0  0  0  0  # atno 17394 bound_to 11000
  141.2011  133.7970  157.0455 LP  0  0  0  0  0  0  0  0  0  0  0  0  # atno 17395 bound_to 11000

$$$$
