AV-unprocessed.smi:1174|AV-procd|sdf|4947|dock3
  -GOLD-   22720 3533D 1   1.00000     0.00000
 Structure written by MMmdl.
 41 42  0  0  0  0  0  0  0  0  1 V2000
  150.2736  145.4001  160.2543 C   0  0  0  0  0  0  0  0  0  0  0  0
  151.3664  144.3570  159.9745 C   0  0  1  0  0  0  0  0  0  0  0  0
  151.9739  143.8105  161.2810 C   0  0  0  0  0  0  0  0  0  0  0  0
  152.9243  142.7380  161.0441 N   0  0  0  0  0  0  0  0  0  0  0  0
  153.6132  141.9834  161.9707 C   0  0  0  0  0  0  0  0  0  0  0  0
  154.3816  141.0923  161.2783 C   0  0  0  0  0  0  0  0  0  0  0  0
  154.0920  141.3840  159.9159 C   0  0  0  0  0  0  0  0  0  0  0  0
  153.2207  142.3704  159.7790 N   0  0  0  0  0  0  0  0  0  0  0  0
  150.8155  143.2579  159.1848 N   0  0  0  0  0  0  0  0  0  0  0  0
  151.0412  143.0439  157.8798 C   0  0  0  0  0  0  0  0  0  0  0  0
  151.7259  143.7901  157.1796 O   0  0  0  0  0  0  0  0  0  0  0  0
  150.3935  141.7917  157.2761 C   0  0  2  0  0  0  0  0  0  0  0  0
  150.6019  140.5570  158.1844 C   0  0  0  0  0  0  0  0  0  0  0  0
  150.0751  139.2681  157.5246 C   0  0  0  0  0  0  0  0  0  0  0  0
  150.6288  139.1131  156.0964 C   0  0  0  0  0  0  0  0  0  0  0  0
  150.2826  140.3168  155.3215 N   0  0  0  0  0  0  0  0  0  0  0  0
  149.3113  140.4100  154.3788 C   0  0  0  0  0  0  0  0  0  0  0  0
  148.7804  139.2469  153.9898 N   0  0  0  0  0  0  0  0  0  0  0  0
  148.9488  141.4706  153.8724 O   0  0  0  0  0  0  0  0  0  0  0  0
  150.9499  141.5073  155.8632 C   0  0  0  0  0  0  0  0  0  0  0  0
  150.6690  146.2358  160.8324 H   0  0  0  0  0  0  0  0  0  0  0  0
  149.4462  144.9676  160.8177 H   0  0  0  0  0  0  0  0  0  0  0  0
  149.8690  145.8071  159.3271 H   0  0  0  0  0  0  0  0  0  0  0  0
  152.1631  144.8437  159.4087 H   0  0  0  0  0  0  0  0  0  0  0  0
  152.4877  144.6076  161.8206 H   0  0  0  0  0  0  0  0  0  0  0  0
  151.1895  143.4418  161.9437 H   0  0  0  0  0  0  0  0  0  0  0  0
  153.4978  142.1395  163.0333 H   0  0  0  0  0  0  0  0  0  0  0  0
  155.0488  140.3460  161.6831 H   0  0  0  0  0  0  0  0  0  0  0  0
  154.4870  140.9118  159.0286 H   0  0  0  0  0  0  0  0  0  0  0  0
  150.2336  142.5944  159.6753 H   0  0  0  0  0  0  0  0  0  0  0  0
  149.3196  141.9693  157.1880 H   0  0  0  0  0  0  0  0  0  0  0  0
  151.6640  140.4284  158.3995 H   0  0  0  0  0  0  0  0  0  0  0  0
  150.1098  140.7072  159.1462 H   0  0  0  0  0  0  0  0  0  0  0  0
  150.3471  138.4022  158.1290 H   0  0  0  0  0  0  0  0  0  0  0  0
  148.9850  139.2934  157.4918 H   0  0  0  0  0  0  0  0  0  0  0  0
  151.7143  139.0087  156.1289 H   0  0  0  0  0  0  0  0  0  0  0  0
  150.2635  138.1848  155.6577 H   0  0  0  0  0  0  0  0  0  0  0  0
  148.0507  139.2337  153.2926 H   0  0  0  0  0  0  0  0  0  0  0  0
  149.1120  138.3851  154.3982 H   0  0  0  0  0  0  0  0  0  0  0  0
  150.8245  142.3807  155.2205 H   0  0  0  0  0  0  0  0  0  0  0  0
  152.0254  141.3263  155.9029 H   0  0  0  0  0  0  0  0  0  0  0  0
  1  2  1  0  0  0  0
  1 21  1  0  0  0  0
  1 22  1  0  0  0  0
  1 23  1  0  0  0  0
  2  3  1  0  0  0  0
  2  9  1  0  0  0  0
  2 24  1  0  0  0  0
  3  4  1  0  0  0  0
  3 25  1  0  0  0  0
  3 26  1  0  0  0  0
  4  8  1  0  0  0  0
  4  5  1  0  0  0  0
  5  6  2  0  0  0  0
  5 27  1  0  0  0  0
  6  7  1  0  0  0  0
  6 28  1  0  0  0  0
  7  8  2  0  0  0  0
  7 29  1  0  0  0  0
  9 10  1  0  0  0  0
  9 30  1  0  0  0  0
 10 11  2  0  0  0  0
 10 12  1  0  0  0  0
 12 20  1  0  0  0  0
 12 13  1  0  0  0  0
 12 31  1  0  0  0  0
 13 14  1  0  0  0  0
 13 32  1  0  0  0  0
 13 33  1  0  0  0  0
 14 15  1  0  0  0  0
 14 34  1  0  0  0  0
 14 35  1  0  0  0  0
 15 16  1  0  0  0  0
 15 36  1  0  0  0  0
 15 37  1  0  0  0  0
 16 17  1  0  0  0  0
 16 20  1  0  0  0  0
 17 18  1  0  0  0  0
 17 19  2  0  0  0  0
 18 38  1  0  0  0  0
 18 39  1  0  0  0  0
 20 40  1  0  0  0  0
 20 41  1  0  0  0  0
M  END
> <s_m_source_file>
AV-unprocessed.smi

> <i_m_source_file_index>
1174

> <i_lp_mmshare_version>
43012

> <i_f3d_flags>
0

> <s_epik_input>
bjFbY0hdW2NIXVtjSF1uMVtDSDJdW0NAQEhdKFtDSDNdKVtOSF1DKD1PKVtDQEBIXTJbQ0gyXVtDSDJdW0NIMl1OKFtDSDJdMilDKD1PKVtOSDJd

> <s_epik_cmdline>
J2VwaWtfcHl0aG9uJywgJy1waCcsICc3LjAnLCAnLXRuJywgJzgnLCAnLW1hJywgJzIwMCcsICctbWV0YWxfYmluZGluZycsICctaW1hZScsICc8aW5maWxlLm1hZT4nLCAnLW9tYWUnLCAnPG91dGZpbGUubWFlPic=

> <r_lp_tautomer_probability>
1

> <r_epik_Ionization_Penalty>
0.000372452

> <r_epik_Ionization_Penalty_Charging>
0

> <r_epik_Ionization_Penalty_Neutral>
0.000372452

> <r_epik_State_Penalty>
-0

> <r_epik_Charging_Adjusted_Penalty>
0

> <i_epik_Tot_Q>
0

> <i_epik_Tot_abs_Q>
0

> <r_epik_Metal_State_Penalty>
-0

> <b_epik_Metal_Only>
0

> <s_lp_Force_Field>
OPLS_2005

> <r_lp_Energy>
26.6636

> <b_lp_Chiralities_Consistent>
1

> <s_lp_Variant>
AV-unprocessed.smi:1174-2

> <Gold.Version>
5.8.1

> <Gold.Id.Protein>
6NUR|6NUR_protein|mol2

> <Gold.PLP.Fitness>
41.6510

> <Gold.PLP.PLP>
-40.2213

> <Gold.PLP.part.hbond>
-2.5282

> <Gold.PLP.part.metal>
0.0000

> <Gold.PLP.part.buried>
-2.7701

> <Gold.PLP.part.nonpolar>
-35.1120

> <Gold.PLP.part.repulsive>
0.7711

> <Gold.PLP.ligand.clash>
0.0000

> <Gold.PLP.ligand.torsion>
0.4788

> <Gold.PLP.Chemscore.Hbond>
0.7680

> <Gold.PLP.Chemscore.CHOScore>
0.0000

> <Gold.PLP.Chemscore.Metal>
0.0000

> <Gold.Chemscore.Hbonds>
donor molecule, donor type, donor heavy atom, donor atom, acceptor molecule, acceptor atom, score
      P1  H  8011  8017       L1    19  0.72

> <Gold.PLP.Chemscore.Internal.Correction>
0.0833

> <Gold.Rescore>
     Score         DG    S(hbond)    S(metal)    S(lipo)     H(rot)  DE(clash)    DE(int)     intcor
     11.26     -13.19       0.74        0.00      84.70       1.82       1.46       0.46       ----

> <Gold.Chemscore.Fitness>
11.2610

> <Gold.Chemscore.DG>
-13.1896

> <Gold.Chemscore.ZeroCoef>
-5.4800

> <Gold.Chemscore.Hbond>
0.7367

> <Gold.Chemscore.Metal>
0.0000

> <Gold.Chemscore.Lipo>
84.6992

> <Gold.Chemscore.Internal_Hbond>
0.0000

> <Gold.Chemscore.DEClash>
1.4648

> <Gold.Chemscore.DEInternal>
0.4638

> <Gold.Chemscore.Rot>
1.8206

> <Gold.Chemscore.Internal.Correction>
   9.000000E+99

> <Gold.Chemscore.Hbonds>
donor molecule, donor type, donor heavy atom, donor atom, acceptor molecule, acceptor atom, score
      P1  H  8011  8017       L1    19  0.70

> <Gold.Chemscore.Hbond.Weighted>
-2.4605

> <Gold.Chemscore.Metal.Weighted>
-0.0000

> <Gold.Chemscore.Lipo.Weighted>
-9.9098

> <Gold.Chemscore.Internal_Hbond.Weighted>
0.0000

> <Gold.Chemscore.DEClash.Weighted>
1.4648

> <Gold.Chemscore.DEInternal.Weighted>
0.4638

> <Gold.Chemscore.Rot.Weighted>
4.6607

> <Gold.Chemscore.Internal.Correction.Weighted>
   9.000000E+99

> <Gold.Protein.RotatedTorsions>
[ 6907 6896 6895 6894 ] final   81.51 input  -60.11 | X-H torsion
[ 7974 7965 7964 7962 ] final  -86.57 input  175.53 | X-H torsion
[ 8008 7997 7996 7995 ] final   -1.94 input   59.86 | X-H torsion
[ 10167 10162 10161 10158 ] final   33.36 input  -65.29 | X-H torsion
[ 10718 10713 10712 10709 ] final   28.66 input   66.30 | X-H torsion
[ 10763 10752 10751 10750 ] final -107.61 input  -60.55 | X-H torsion
[ 11005 11000 10999 10996 ] final -169.51 input  -57.11 | X-H torsion

> <Gold.Protein.ActiveResidues>
 VAL166  LYS551  ARG553  GLY616  TRP617  ASP618  TYR619  PRO620  LYS621  CYS622 
 ASP623  PHE694  ASN695  SER759  ASP760  ASP761  ALA762  ILE779  LEU786  VAL792 
 PHE793  MET794  SER795  GLU796  ALA797  LYS798  CYS799  TRP800  GLU811  SER814 

> <Gold.Protein.RotatedAtoms>
  152.5270  134.3193  159.9142 H   0  0  0  0  0  0  0  0  0  0  0  0  # atno 6907 bound_to 6896
  151.3142  133.4061  159.2657 H   0  0  0  0  0  0  0  0  0  0  0  0  # atno 6908 bound_to 6896
  151.0013  134.9341  159.8012 H   0  0  0  0  0  0  0  0  0  0  0  0  # atno 6909 bound_to 6896
  145.4782  140.9558  143.1879 H   0  0  0  0  0  0  0  0  0  0  0  0  # atno 7974 bound_to 7965
  154.6412  140.2547  155.7320 H   0  0  0  0  0  0  0  0  0  0  0  0  # atno 8008 bound_to 7997
  156.2529  140.2887  156.0727 H   0  0  0  0  0  0  0  0  0  0  0  0  # atno 8009 bound_to 7997
  155.1594  140.0384  157.2829 H   0  0  0  0  0  0  0  0  0  0  0  0  # atno 8010 bound_to 7997
  140.4414  144.1182  150.6174 H   0  0  0  0  0  0  0  0  0  0  0  0  # atno 10167 bound_to 10162
  157.2363  130.7048  149.6337 H   0  0  0  0  0  0  0  0  0  0  0  0  # atno 10718 bound_to 10713
  154.8085  135.4668  154.0455 H   0  0  0  0  0  0  0  0  0  0  0  0  # atno 10763 bound_to 10752
  153.1905  135.6854  153.8366 H   0  0  0  0  0  0  0  0  0  0  0  0  # atno 10764 bound_to 10752
  153.7885  135.3246  155.3353 H   0  0  0  0  0  0  0  0  0  0  0  0  # atno 10765 bound_to 10752
  140.5299  134.5626  157.5072 H   0  0  0  0  0  0  0  0  0  0  0  0  # atno 11005 bound_to 11000
  144.7905  139.6339  143.7115 LP  0  0  0  0  0  0  0  0  0  0  0  0  # atno 17320 bound_to 7965
  146.2357  139.5900  142.9525 LP  0  0  0  0  0  0  0  0  0  0  0  0  # atno 17321 bound_to 7965
  140.4314  143.2566  151.9591 LP  0  0  0  0  0  0  0  0  0  0  0  0  # atno 17342 bound_to 10162
  139.4790  144.5740  151.8041 LP  0  0  0  0  0  0  0  0  0  0  0  0  # atno 17343 bound_to 10162
  155.9672  130.4472  150.5572 LP  0  0  0  0  0  0  0  0  0  0  0  0  # atno 17370 bound_to 10713
  157.3425  131.0719  151.1777 LP  0  0  0  0  0  0  0  0  0  0  0  0  # atno 17371 bound_to 10713
  139.9560  134.7535  156.0341 LP  0  0  0  0  0  0  0  0  0  0  0  0  # atno 17394 bound_to 11000
  141.1287  133.6592  156.3406 LP  0  0  0  0  0  0  0  0  0  0  0  0  # atno 17395 bound_to 11000

$$$$
