AV-unprocessed.smi:1880|AV-procd|sdf|7636|dock1
  -GOLD-   22720 9363D 1   1.00000     0.00000
 Structure written by MMmdl.
 36 38  0  0  0  0  0  0  0  0  1 V2000
  149.9085  140.0436  153.9325 O   0  0  0  0  0  0  0  0  0  0  0  0
  149.1587  140.8433  154.8262 C   0  0  1  0  0  0  0  0  0  0  0  0
  148.5841  139.9348  155.9239 C   0  0  0  0  0  0  0  0  0  0  0  0
  147.7600  140.7085  156.7799 O   0  0  0  0  0  0  0  0  0  0  0  0
  146.3788  140.5163  156.5282 C   0  0  0  0  0  0  0  0  0  0  0  0
  145.9526  141.6224  155.6241 C   0  0  0  0  0  0  0  0  0  0  0  0
  145.0493  142.6419  155.7456 C   0  0  0  0  0  0  0  0  0  0  0  0
  145.1030  143.3726  154.5265 C   0  0  0  0  0  0  0  0  0  0  0  0
  146.0359  142.7439  153.7519 C   0  0  0  0  0  0  0  0  0  0  0  0
  146.5641  141.6742  154.4070 O   0  0  0  0  0  0  0  0  0  0  0  0
  150.0722  141.9400  155.4075 C   0  0  0  0  0  0  0  0  0  0  0  0
  151.0039  141.4238  156.3949 N   0  0  0  0  0  0  0  0  0  0  0  0
  151.7265  140.2905  156.3098 C   0  0  0  0  0  0  0  0  0  0  0  0
  152.5262  139.9990  157.3316 N   0  0  0  0  0  0  0  0  0  0  0  0
  152.2953  141.0678  158.1807 C   0  0  0  0  0  0  0  0  0  0  0  0
  152.8395  141.3639  159.4508 C   0  0  0  0  0  0  0  0  0  0  0  0
  152.4484  142.5295  160.1423 C   0  0  0  0  0  0  0  0  0  0  0  0
  152.9798  142.7983  161.3585 F   0  0  0  0  0  0  0  0  0  0  0  0
  151.5085  143.4153  159.5747 C   0  0  0  0  0  0  0  0  0  0  0  0
  151.1383  144.5318  160.2455 F   0  0  0  0  0  0  0  0  0  0  0  0
  150.9534  143.1416  158.3100 C   0  0  0  0  0  0  0  0  0  0  0  0
  151.3469  141.9779  157.6237 C   0  0  0  0  0  0  0  0  0  0  0  0
  149.4665  140.0366  153.0969 H   0  0  0  0  0  0  0  0  0  0  0  0
  148.3421  141.3160  154.2784 H   0  0  0  0  0  0  0  0  0  0  0  0
  148.0366  139.0936  155.4947 H   0  0  0  0  0  0  0  0  0  0  0  0
  149.3988  139.5192  156.5193 H   0  0  0  0  0  0  0  0  0  0  0  0
  146.2038  139.5487  156.0555 H   0  0  0  0  0  0  0  0  0  0  0  0
  145.8088  140.5467  157.4578 H   0  0  0  0  0  0  0  0  0  0  0  0
  144.4277  142.8379  156.6066 H   0  0  0  0  0  0  0  0  0  0  0  0
  144.5322  144.2474  154.2516 H   0  0  0  0  0  0  0  0  0  0  0  0
  146.4269  142.9169  152.7601 H   0  0  0  0  0  0  0  0  0  0  0  0
  150.6510  142.4087  154.6106 H   0  0  0  0  0  0  0  0  0  0  0  0
  149.4778  142.7318  155.8656 H   0  0  0  0  0  0  0  0  0  0  0  0
  151.6608  139.6424  155.4480 H   0  0  0  0  0  0  0  0  0  0  0  0
  153.5595  140.6928  159.8952 H   0  0  0  0  0  0  0  0  0  0  0  0
  150.2318  143.8163  157.8740 H   0  0  0  0  0  0  0  0  0  0  0  0
  1  2  1  0  0  0  0
  1 23  1  0  0  0  0
  2  3  1  0  0  0  0
  2 11  1  0  0  0  0
  2 24  1  0  0  0  0
  3  4  1  0  0  0  0
  3 25  1  0  0  0  0
  3 26  1  0  0  0  0
  4  5  1  0  0  0  0
  5  6  1  0  0  0  0
  5 27  1  0  0  0  0
  5 28  1  0  0  0  0
  6 10  1  0  0  0  0
  6  7  2  0  0  0  0
  7  8  1  0  0  0  0
  7 29  1  0  0  0  0
  8  9  2  0  0  0  0
  8 30  1  0  0  0  0
  9 10  1  0  0  0  0
  9 31  1  0  0  0  0
 11 12  1  0  0  0  0
 11 32  1  0  0  0  0
 11 33  1  0  0  0  0
 12 22  1  0  0  0  0
 12 13  1  0  0  0  0
 13 14  2  0  0  0  0
 13 34  1  0  0  0  0
 14 15  1  0  0  0  0
 15 22  2  0  0  0  0
 15 16  1  0  0  0  0
 16 17  2  0  0  0  0
 16 35  1  0  0  0  0
 17 18  1  0  0  0  0
 17 19  1  0  0  0  0
 19 20  1  0  0  0  0
 19 21  2  0  0  0  0
 21 22  1  0  0  0  0
 21 36  1  0  0  0  0
M  END
> <s_m_source_file>
AV-unprocessed.smi

> <i_m_source_file_index>
1880

> <i_lp_mmshare_version>
43012

> <i_f3d_flags>
0

> <s_epik_input>
W2NIXTFjKEYpYyhGKVtjSF1jKGMxMiluKFtjSF1uMilbQ0gyXVtDQEhdKFtPSF0pW0NIMl1PW0NIMl1jM1tjSF1bY0hdW2NIXW8z

> <s_epik_cmdline>
J2VwaWtfcHl0aG9uJywgJy1waCcsICc3LjAnLCAnLXRuJywgJzgnLCAnLW1hJywgJzIwMCcsICctbWV0YWxfYmluZGluZycsICctaW1hZScsICc8aW5maWxlLm1hZT4nLCAnLW9tYWUnLCAnPG91dGZpbGUubWFlPic=

> <r_epik_Ionization_Penalty>
0.0152348

> <r_epik_Ionization_Penalty_Charging>
0

> <r_epik_Ionization_Penalty_Neutral>
0.0152348

> <r_epik_State_Penalty>
0.0119607

> <r_epik_Charging_Adjusted_Penalty>
0.0119607

> <i_epik_Tot_Q>
0

> <i_epik_Tot_abs_Q>
0

> <r_epik_Metal_State_Penalty>
1.20821e-05

> <b_epik_Metal_Only>
0

> <s_lp_Force_Field>
OPLS_2005

> <r_lp_Energy>
7.94545

> <b_lp_Chiralities_Consistent>
1

> <s_lp_Variant>
AV-unprocessed.smi:1880-2

> <Gold.Version>
5.8.1

> <Gold.Id.Protein>
6NUR|6NUR_protein|mol2

> <Gold.PLP.Fitness>
51.4750

> <Gold.PLP.PLP>
-44.5097

> <Gold.PLP.part.hbond>
-3.0000

> <Gold.PLP.part.metal>
0.0000

> <Gold.PLP.part.buried>
-6.1460

> <Gold.PLP.part.nonpolar>
-34.5590

> <Gold.PLP.part.repulsive>
0.2027

> <Gold.PLP.ligand.clash>
0.0000

> <Gold.PLP.ligand.torsion>
0.8763

> <Gold.PLP.Chemscore.Hbond>
2.8560

> <Gold.PLP.Chemscore.CHOScore>
0.0000

> <Gold.PLP.Chemscore.Metal>
0.0000

> <Gold.Chemscore.Hbonds>
donor molecule, donor type, donor heavy atom, donor atom, acceptor molecule, acceptor atom, score
      L1  H     1    23       P1  7957  0.96
      P1  H  7989  7998       L1     1  0.85
      P1  H  7997  8008       L1    14  1.00

> <Gold.PLP.Chemscore.Internal.Correction>
0.1500

> <Gold.Rescore>
     Score         DG    S(hbond)    S(metal)    S(lipo)     H(rot)  DE(clash)    DE(int)     intcor
     12.14     -14.03       1.74        0.00      85.85       2.85       0.12       1.77       ----

> <Gold.Chemscore.Fitness>
12.1370

> <Gold.Chemscore.DG>
-14.0308

> <Gold.Chemscore.ZeroCoef>
-5.4800

> <Gold.Chemscore.Hbond>
1.7386

> <Gold.Chemscore.Metal>
0.0000

> <Gold.Chemscore.Lipo>
85.8484

> <Gold.Chemscore.Internal_Hbond>
0.0000

> <Gold.Chemscore.DEClash>
0.1201

> <Gold.Chemscore.DEInternal>
1.7737

> <Gold.Chemscore.Rot>
2.8518

> <Gold.Chemscore.Internal.Correction>
   9.000000E+99

> <Gold.Chemscore.Hbonds>
donor molecule, donor type, donor heavy atom, donor atom, acceptor molecule, acceptor atom, score
      L1  H     1    23       P1  7957  0.91
      P1  H  7989  7998       L1     1  0.20
      P1  H  7997  8008       L1    14  0.47

> <Gold.Chemscore.Hbond.Weighted>
-5.8070

> <Gold.Chemscore.Metal.Weighted>
-0.0000

> <Gold.Chemscore.Lipo.Weighted>
-10.0443

> <Gold.Chemscore.Internal_Hbond.Weighted>
0.0000

> <Gold.Chemscore.DEClash.Weighted>
0.1201

> <Gold.Chemscore.DEInternal.Weighted>
1.7737

> <Gold.Chemscore.Rot.Weighted>
7.3005

> <Gold.Chemscore.Internal.Correction.Weighted>
   9.000000E+99

> <Gold.Protein.RotatedTorsions>
[ 6907 6896 6895 6894 ] final -175.40 input  -60.11 | X-H torsion
[ 7974 7965 7964 7962 ] final  -86.05 input  175.53 | X-H torsion
[ 8008 7997 7996 7995 ] final  -71.86 input   59.86 | X-H torsion
[ 10167 10162 10161 10158 ] final   69.95 input  -65.29 | X-H torsion
[ 10718 10713 10712 10709 ] final  -93.35 input   66.30 | X-H torsion
[ 10763 10752 10751 10750 ] final   69.97 input  -60.55 | X-H torsion
[ 11005 11000 10999 10996 ] final   68.60 input  -57.11 | X-H torsion

> <Gold.Protein.ActiveResidues>
 VAL166  LYS551  ARG553  GLY616  TRP617  ASP618  TYR619  PRO620  LYS621  CYS622 
 ASP623  PHE694  ASN695  SER759  ASP760  ASP761  ALA762  ILE779  LEU786  VAL792 
 PHE793  MET794  SER795  GLU796  ALA797  LYS798  CYS799  TRP800  GLU811  SER814 

> <Gold.Protein.RotatedAtoms>
  151.5880  133.3370  159.3021 H   0  0  0  0  0  0  0  0  0  0  0  0  # atno 6907 bound_to 6896
  150.8276  134.7518  159.6837 H   0  0  0  0  0  0  0  0  0  0  0  0  # atno 6908 bound_to 6896
  152.4364  134.5685  159.9966 H   0  0  0  0  0  0  0  0  0  0  0  0  # atno 6909 bound_to 6896
  145.4850  140.9555  143.1843 H   0  0  0  0  0  0  0  0  0  0  0  0  # atno 7974 bound_to 7965
  154.5121  140.0808  156.8010 H   0  0  0  0  0  0  0  0  0  0  0  0  # atno 8008 bound_to 7997
  155.3762  140.3425  155.4227 H   0  0  0  0  0  0  0  0  0  0  0  0  # atno 8009 bound_to 7997
  156.1585  140.1581  156.8639 H   0  0  0  0  0  0  0  0  0  0  0  0  # atno 8010 bound_to 7997
  140.0622  144.5223  150.7286 H   0  0  0  0  0  0  0  0  0  0  0  0  # atno 10167 bound_to 10162
  156.0012  130.5023  150.5763 H   0  0  0  0  0  0  0  0  0  0  0  0  # atno 10718 bound_to 10713
  153.0316  135.5191  154.7370 H   0  0  0  0  0  0  0  0  0  0  0  0  # atno 10763 bound_to 10752
  154.6381  135.2909  155.0139 H   0  0  0  0  0  0  0  0  0  0  0  0  # atno 10764 bound_to 10752
  154.1067  135.6628  153.4930 H   0  0  0  0  0  0  0  0  0  0  0  0  # atno 10765 bound_to 10752
  139.9702  134.6913  156.0463 H   0  0  0  0  0  0  0  0  0  0  0  0  # atno 11005 bound_to 11000
  144.7867  139.6413  143.7131 LP  0  0  0  0  0  0  0  0  0  0  0  0  # atno 17320 bound_to 7965
  146.2318  139.5829  142.9550 LP  0  0  0  0  0  0  0  0  0  0  0  0  # atno 17321 bound_to 7965
  140.7166  143.2550  151.4413 LP  0  0  0  0  0  0  0  0  0  0  0  0  # atno 17342 bound_to 10162
  139.5887  144.1547  152.2061 LP  0  0  0  0  0  0  0  0  0  0  0  0  # atno 17343 bound_to 10162
  157.3650  131.0756  151.1605 LP  0  0  0  0  0  0  0  0  0  0  0  0  # atno 17370 bound_to 10713
  157.2377  130.6555  149.5876 LP  0  0  0  0  0  0  0  0  0  0  0  0  # atno 17371 bound_to 10713
  141.1381  133.6570  156.3652 LP  0  0  0  0  0  0  0  0  0  0  0  0  # atno 17394 bound_to 11000
  140.5310  134.6212  157.5350 LP  0  0  0  0  0  0  0  0  0  0  0  0  # atno 17395 bound_to 11000

$$$$
