AV-unprocessed.smi:714|AV-procd|sdf|3483|dock1
  -GOLD-   22720 0473D 1   1.00000     0.00000
 Structure written by MMmdl.
 38 39  0  0  0  0  0  0  0  0  1 V2000
  148.1451  136.5869  163.0906 C   0  0  0  0  0  0  0  0  0  0  0  0
  147.9662  135.9808  162.0457 C   0  0  0  0  0  0  0  0  0  0  0  0
  147.7594  135.2373  160.7914 C   0  0  0  0  0  0  0  0  0  0  0  0
  148.6840  135.6428  159.7384 N   0  0  0  0  0  0  0  0  0  0  0  0
  148.8622  136.8992  159.2923 C   0  0  0  0  0  0  0  0  0  0  0  0
  148.2355  137.8503  159.7626 O   0  0  0  0  0  0  0  0  0  0  0  0
  149.8508  137.0091  158.2169 C   0  0  0  0  0  0  0  0  0  0  0  0
  150.3753  135.8604  157.4969 C   0  0  0  0  0  0  0  0  0  0  0  0
  151.3177  136.0212  156.5484 C   0  0  0  0  0  0  0  0  0  0  0  0
  151.8435  137.3429  156.1944 C   0  0  0  0  0  0  0  0  0  0  0  0
  152.7316  137.4755  155.3521 O   0  0  0  0  0  0  0  0  0  0  0  0
  151.2838  138.4079  156.8493 N   0  0  0  0  0  0  0  0  0  0  0  0
  151.7638  139.7843  156.5700 C   0  0  1  0  0  0  0  0  0  0  0  0
  150.6313  140.7727  156.2096 C   0  0  0  0  0  0  0  0  0  0  0  0
  150.5430  141.7854  157.3592 C   0  0  0  0  0  0  0  0  0  0  0  0
  151.7072  141.5230  158.1854 N   0  0  0  0  0  0  0  0  0  0  0  0
  152.0038  142.3696  159.3396 C   0  0  0  0  0  0  0  0  0  0  0  0
  151.9031  143.8697  159.0094 C   0  0  0  0  0  0  0  0  0  0  0  0
  152.5901  144.5599  159.9188 F   0  0  0  0  0  0  0  0  0  0  0  0
  152.4111  144.1347  157.8061 F   0  0  0  0  0  0  0  0  0  0  0  0
  150.6314  144.2678  159.0458 F   0  0  0  0  0  0  0  0  0  0  0  0
  152.3682  140.4177  157.8226 C   0  0  0  0  0  0  0  0  0  0  0  0
  153.3495  139.9460  158.3962 O   0  0  0  0  0  0  0  0  0  0  0  0
  150.3222  138.2221  157.8699 C   0  0  0  0  0  0  0  0  0  0  0  0
  148.3017  137.1134  164.0053 H   0  0  0  0  0  0  0  0  0  0  0  0
  147.8364  134.1692  161.0000 H   0  0  0  0  0  0  0  0  0  0  0  0
  146.7397  135.4248  160.4549 H   0  0  0  0  0  0  0  0  0  0  0  0
  149.2300  134.9101  159.3090 H   0  0  0  0  0  0  0  0  0  0  0  0
  150.0281  134.8589  157.7042 H   0  0  0  0  0  0  0  0  0  0  0  0
  151.6959  135.1526  156.0295 H   0  0  0  0  0  0  0  0  0  0  0  0
  152.5122  139.8184  155.7770 H   0  0  0  0  0  0  0  0  0  0  0  0
  150.8970  141.2981  155.2913 H   0  0  0  0  0  0  0  0  0  0  0  0
  149.6716  140.2930  156.0135 H   0  0  0  0  0  0  0  0  0  0  0  0
  150.5418  142.8128  156.9935 H   0  0  0  0  0  0  0  0  0  0  0  0
  149.6373  141.6313  157.9470 H   0  0  0  0  0  0  0  0  0  0  0  0
  151.3104  142.1256  160.1455 H   0  0  0  0  0  0  0  0  0  0  0  0
  153.0003  142.1360  159.7177 H   0  0  0  0  0  0  0  0  0  0  0  0
  150.0075  139.1296  158.3632 H   0  0  0  0  0  0  0  0  0  0  0  0
  1  2  3  0  0  0  0
  1 25  1  0  0  0  0
  2  3  1  0  0  0  0
  3  4  1  0  0  0  0
  3 26  1  0  0  0  0
  3 27  1  0  0  0  0
  4  5  1  0  0  0  0
  4 28  1  0  0  0  0
  5  6  2  0  0  0  0
  5  7  1  0  0  0  0
  7 24  2  0  0  0  0
  7  8  1  0  0  0  0
  8  9  2  0  0  0  0
  8 29  1  0  0  0  0
  9 10  1  0  0  0  0
  9 30  1  0  0  0  0
 10 11  2  0  0  0  0
 10 12  1  0  0  0  0
 12 13  1  0  0  0  0
 12 24  1  0  0  0  0
 13 22  1  0  0  0  0
 13 14  1  0  0  0  0
 13 31  1  0  0  0  0
 14 15  1  0  0  0  0
 14 32  1  0  0  0  0
 14 33  1  0  0  0  0
 15 16  1  0  0  0  0
 15 34  1  0  0  0  0
 15 35  1  0  0  0  0
 16 17  1  0  0  0  0
 16 22  1  0  0  0  0
 17 18  1  0  0  0  0
 17 36  1  0  0  0  0
 17 37  1  0  0  0  0
 18 19  1  0  0  0  0
 18 20  1  0  0  0  0
 18 21  1  0  0  0  0
 22 23  2  0  0  0  0
 24 38  1  0  0  0  0
M  END
> <s_m_source_file>
AV-unprocessed.smi

> <i_m_source_file_index>
714

> <i_lp_mmshare_version>
43012

> <i_f3d_flags>
0

> <s_epik_input>
W0NIXSNDW0NIMl1bTkhdQyg9TyljMVtjSF1bY0hdYyg9TyluKFtjSF0xKVtDQEBIXTJbQ0gyXVtDSDJdTihDMj1PKVtDSDJdQyhGKShGKUY=

> <s_epik_cmdline>
J2VwaWtfcHl0aG9uJywgJy1waCcsICc3LjAnLCAnLXRuJywgJzgnLCAnLW1hJywgJzIwMCcsICctbWV0YWxfYmluZGluZycsICctaW1hZScsICc8aW5maWxlLm1hZT4nLCAnLW9tYWUnLCAnPG91dGZpbGUubWFlPic=

> <r_lp_tautomer_probability>
1

> <r_epik_Ionization_Penalty>
2.95503e-06

> <r_epik_Ionization_Penalty_Charging>
5.74209e-08

> <r_epik_Ionization_Penalty_Neutral>
2.89761e-06

> <r_epik_State_Penalty>
-0

> <r_epik_Charging_Adjusted_Penalty>
5.74209e-08

> <i_epik_Tot_Q>
0

> <i_epik_Tot_abs_Q>
0

> <r_epik_Metal_State_Penalty>
-0

> <b_epik_Metal_Only>
0

> <s_lp_Force_Field>
OPLS_2005

> <r_lp_Energy>
33.0774

> <b_lp_Chiralities_Consistent>
1

> <s_lp_Variant>
AV-unprocessed.smi:714-2

> <Gold.Version>
5.8.1

> <Gold.Id.Protein>
6NUR|6NUR_protein|mol2

> <Gold.PLP.Fitness>
49.9535

> <Gold.PLP.PLP>
-44.8973

> <Gold.PLP.part.hbond>
-3.5982

> <Gold.PLP.part.metal>
0.0000

> <Gold.PLP.part.buried>
-5.3934

> <Gold.PLP.part.nonpolar>
-36.5437

> <Gold.PLP.part.repulsive>
0.1612

> <Gold.PLP.ligand.clash>
0.0000

> <Gold.PLP.ligand.torsion>
0.6216

> <Gold.PLP.Chemscore.Hbond>
1.9342

> <Gold.PLP.Chemscore.CHOScore>
0.0000

> <Gold.PLP.Chemscore.Metal>
0.0000

> <Gold.Chemscore.Hbonds>
donor molecule, donor type, donor heavy atom, donor atom, acceptor molecule, acceptor atom, score
      P1  H  6931  6943       L1     6  0.09
      P1  H  6934  6947       L1     6  0.38
      P1  H  7997  8008       L1    23  0.85
      P1  H 10752 10765       L1    11  0.50

> <Gold.PLP.Chemscore.Internal.Correction>
0.4967

> <Gold.Rescore>
     Score         DG    S(hbond)    S(metal)    S(lipo)     H(rot)  DE(clash)    DE(int)     intcor
     16.72     -19.14       2.64        0.00      76.63       1.61       1.18       1.24       ----

> <Gold.Chemscore.Fitness>
16.7237

> <Gold.Chemscore.DG>
-19.1436

> <Gold.Chemscore.ZeroCoef>
-5.4800

> <Gold.Chemscore.Hbond>
2.6435

> <Gold.Chemscore.Metal>
0.0000

> <Gold.Chemscore.Lipo>
76.6259

> <Gold.Chemscore.Internal_Hbond>
0.0000

> <Gold.Chemscore.DEClash>
1.1788

> <Gold.Chemscore.DEInternal>
1.2411

> <Gold.Chemscore.Rot>
1.6136

> <Gold.Chemscore.Internal.Correction>
   9.000000E+99

> <Gold.Chemscore.Hbonds>
donor molecule, donor type, donor heavy atom, donor atom, acceptor molecule, acceptor atom, score
      P1  H  6931  6943       L1     6  0.06
      P1  H  6934  6947       L1     6  0.38
      P1  H  7997  8008       L1    23  0.14
      P1  H 10752 10765       L1    11  0.21

> <Gold.Chemscore.Hbond.Weighted>
-8.8291

> <Gold.Chemscore.Metal.Weighted>
-0.0000

> <Gold.Chemscore.Lipo.Weighted>
-8.9652

> <Gold.Chemscore.Internal_Hbond.Weighted>
0.0000

> <Gold.Chemscore.DEClash.Weighted>
1.1788

> <Gold.Chemscore.DEInternal.Weighted>
1.2411

> <Gold.Chemscore.Rot.Weighted>
4.1308

> <Gold.Chemscore.Internal.Correction.Weighted>
   9.000000E+99

> <Gold.Protein.RotatedTorsions>
[ 6907 6896 6895 6894 ] final  -88.65 input  -60.11 | X-H torsion
[ 7974 7965 7964 7962 ] final -102.90 input  175.53 | X-H torsion
[ 8008 7997 7996 7995 ] final  -79.02 input   59.86 | X-H torsion
[ 10167 10162 10161 10158 ] final -140.74 input  -65.29 | X-H torsion
[ 10718 10713 10712 10709 ] final  -44.25 input   66.30 | X-H torsion
[ 10763 10752 10751 10750 ] final -178.15 input  -60.55 | X-H torsion
[ 11005 11000 10999 10996 ] final  -28.24 input  -57.11 | X-H torsion

> <Gold.Protein.ActiveResidues>
 VAL166  LYS551  ARG553  GLY616  TRP617  ASP618  TYR619  PRO620  LYS621  CYS622 
 ASP623  PHE694  ASN695  SER759  ASP760  ASP761  ALA762  ILE779  LEU786  VAL792 
 PHE793  MET794  SER795  GLU796  ALA797  LYS798  CYS799  TRP800  GLU811  SER814 

> <Gold.Protein.RotatedAtoms>
  150.6869  134.2709  159.4587 H   0  0  0  0  0  0  0  0  0  0  0  0  # atno 6907 bound_to 6896
  152.0631  134.9579  160.0584 H   0  0  0  0  0  0  0  0  0  0  0  0  # atno 6908 bound_to 6896
  152.0998  133.4209  159.4619 H   0  0  0  0  0  0  0  0  0  0  0  0  # atno 6909 bound_to 6896
  145.2628  140.9274  143.3031 H   0  0  0  0  0  0  0  0  0  0  0  0  # atno 7974 bound_to 7965
  154.5745  140.0685  156.9013 H   0  0  0  0  0  0  0  0  0  0  0  0  # atno 8008 bound_to 7997
  155.2574  140.3356  155.4258 H   0  0  0  0  0  0  0  0  0  0  0  0  # atno 8009 bound_to 7997
  156.2143  140.1772  156.7609 H   0  0  0  0  0  0  0  0  0  0  0  0  # atno 8010 bound_to 7997
  139.8252  143.7520  152.2666 H   0  0  0  0  0  0  0  0  0  0  0  0  # atno 10167 bound_to 10162
  156.2405  130.4179  149.8766 H   0  0  0  0  0  0  0  0  0  0  0  0  # atno 10718 bound_to 10713
  154.5513  135.2813  155.1005 H   0  0  0  0  0  0  0  0  0  0  0  0  # atno 10763 bound_to 10752
  154.2450  135.6350  153.5224 H   0  0  0  0  0  0  0  0  0  0  0  0  # atno 10764 bound_to 10752
  153.0004  135.5569  154.6080 H   0  0  0  0  0  0  0  0  0  0  0  0  # atno 10765 bound_to 10752
  140.9190  133.7411  156.0775 H   0  0  0  0  0  0  0  0  0  0  0  0  # atno 11005 bound_to 11000
  144.9403  139.4196  143.6452 LP  0  0  0  0  0  0  0  0  0  0  0  0  # atno 17320 bound_to 7965
  146.3270  139.8360  142.8899 LP  0  0  0  0  0  0  0  0  0  0  0  0  # atno 17321 bound_to 7965
  139.7711  144.7476  151.0224 LP  0  0  0  0  0  0  0  0  0  0  0  0  # atno 17342 bound_to 10162
  140.7810  143.4644  151.0232 LP  0  0  0  0  0  0  0  0  0  0  0  0  # atno 17343 bound_to 10162
  156.6350  130.8681  151.3503 LP  0  0  0  0  0  0  0  0  0  0  0  0  # atno 17370 bound_to 10713
  157.7173  130.9513  150.1303 LP  0  0  0  0  0  0  0  0  0  0  0  0  # atno 17371 bound_to 10713
  140.8012  134.3507  157.5439 LP  0  0  0  0  0  0  0  0  0  0  0  0  # atno 17394 bound_to 11000
  139.8772  134.9199  156.3237 LP  0  0  0  0  0  0  0  0  0  0  0  0  # atno 17395 bound_to 11000

$$$$
