AV-unprocessed.smi:561|AV-procd|sdf|2941|dock6
  -GOLD-   2262023443D 1   1.00000     0.00000
 Structure written by MMmdl.
 36 37  0  0  0  0  0  0  0  0  3 V2000
  149.3019  138.9661  154.7125 C   0  0  0  0  0  0  0  0  0  0  0  0
  150.1774  140.2251  154.7728 C   0  0  1  0  0  0  0  0  0  0  0  0
  149.4882  141.4234  154.0698 C   0  0  0  0  0  0  0  0  0  0  0  0
  148.0150  141.4042  154.1378 N   0  0  0  0  0  0  0  0  0  0  0  0
  147.2183  142.0693  155.0374 C   0  0  0  0  0  0  0  0  0  0  0  0
  145.9215  141.7636  154.7160 C   0  0  0  0  0  0  0  0  0  0  0  0
  145.9778  140.9148  153.6435 N   0  3  0  0  0  0  0  0  0  0  0  0
  147.2497  140.6910  153.2979 C   0  0  0  0  0  0  0  0  0  0  0  0
  150.4412  140.5487  156.1796 N   0  5  0  0  0  0  0  0  0  0  0  0
  151.6218  140.3389  156.8348 C   0  0  0  0  0  0  0  0  0  0  0  0
  152.5416  139.5977  156.4614 O   0  0  0  0  0  0  0  0  0  0  0  0
  151.8530  141.0798  158.1099 C   0  0  0  0  0  0  0  0  0  0  0  0
  152.7999  140.6805  158.8999 N   0  0  0  0  0  0  0  0  0  0  0  0
  153.0664  141.3007  160.1029 N   0  0  0  0  0  0  0  0  0  0  0  0
  153.9725  140.5657  160.9832 C   0  0  0  0  0  0  0  0  0  0  0  0
  152.5803  142.5118  160.4705 C   0  0  0  0  0  0  0  0  0  0  0  0
  152.8229  143.0475  161.5522 O   0  0  0  0  0  0  0  0  0  0  0  0
  151.7119  143.2393  159.4414 C   0  0  0  0  0  0  0  0  0  0  0  0
  150.9823  142.2644  158.4965 C   0  0  0  0  0  0  0  0  0  0  0  0
  149.0893  138.6869  153.6802 H   0  0  0  0  0  0  0  0  0  0  0  0
  148.3474  139.1176  155.2181 H   0  0  0  0  0  0  0  0  0  0  0  0
  149.7989  138.1177  155.1844 H   0  0  0  0  0  0  0  0  0  0  0  0
  151.0958  140.0017  154.2276 H   0  0  0  0  0  0  0  0  0  0  0  0
  149.8214  142.3611  154.5164 H   0  0  0  0  0  0  0  0  0  0  0  0
  149.7714  141.4648  153.0169 H   0  0  0  0  0  0  0  0  0  0  0  0
  147.6275  142.7070  155.8077 H   0  0  0  0  0  0  0  0  0  0  0  0
  144.9880  142.0796  155.1579 H   0  0  0  0  0  0  0  0  0  0  0  0
  147.5931  140.0705  152.4896 H   0  0  0  0  0  0  0  0  0  0  0  0
  154.8930  141.1294  161.1419 H   0  0  0  0  0  0  0  0  0  0  0  0
  154.2469  139.5940  160.5690 H   0  0  0  0  0  0  0  0  0  0  0  0
  153.5076  140.3887  161.9543 H   0  0  0  0  0  0  0  0  0  0  0  0
  150.9945  143.8876  159.9454 H   0  0  0  0  0  0  0  0  0  0  0  0
  152.3685  143.8883  158.8610 H   0  0  0  0  0  0  0  0  0  0  0  0
  150.6727  142.8261  157.6146 H   0  0  0  0  0  0  0  0  0  0  0  0
  150.0684  141.9002  158.9670 H   0  0  0  0  0  0  0  0  0  0  0  0
  145.1747  140.5171  153.1734 H   0  0  0  0  0  0  0  0  0  0  0  0
  1  2  1  0  0  0  0
  1 20  1  0  0  0  0
  1 21  1  0  0  0  0
  1 22  1  0  0  0  0
  2  3  1  0  0  0  0
  2  9  1  0  0  0  0
  2 23  1  0  0  0  0
  3  4  1  0  0  0  0
  3 24  1  0  0  0  0
  3 25  1  0  0  0  0
  4  8  1  0  0  0  0
  4  5  1  0  0  0  0
  5  6  2  0  0  0  0
  5 26  1  0  0  0  0
  6  7  1  0  0  0  0
  6 27  1  0  0  0  0
  7  8  2  0  0  0  0
  7 36  1  0  0  0  0
  8 28  1  0  0  0  0
  9 10  1  0  0  0  0
 10 11  2  0  0  0  0
 10 12  1  0  0  0  0
 12 19  1  0  0  0  0
 12 13  2  0  0  0  0
 13 14  1  0  0  0  0
 14 15  1  0  0  0  0
 14 16  1  0  0  0  0
 15 29  1  0  0  0  0
 15 30  1  0  0  0  0
 15 31  1  0  0  0  0
 16 17  2  0  0  0  0
 16 18  1  0  0  0  0
 18 19  1  0  0  0  0
 18 32  1  0  0  0  0
 18 33  1  0  0  0  0
 19 34  1  0  0  0  0
 19 35  1  0  0  0  0
M  CHG  1   7   1
M  CHG  1   9  -1
M  END
> <s_m_source_file>
AV-unprocessed.smi

> <i_m_source_file_index>
561

> <i_lp_mmshare_version>
43012

> <i_f3d_flags>
0

> <s_epik_input>
W2NIXTFuW2NIXVtjSF1uMVtDSDJdW0NAQEhdKFtDSDNdKVtOSF1DKD1PKUMyPU5OKFtDSDNdKUMoPU8pW0NIMl1bQ0gyXTI=

> <s_epik_cmdline>
J2VwaWtfcHl0aG9uJywgJy1waCcsICc3LjAnLCAnLXRuJywgJzgnLCAnLW1hJywgJzIwMCcsICctbWV0YWxfYmluZGluZycsICctaW1hZScsICc8aW5maWxlLm1hZT4nLCAnLW9tYWUnLCAnPG91dGZpbGUubWFlPic=

> <r_lp_tautomer_probability>
1

> <r_epik_Ionization_Penalty>
5.37239

> <r_epik_Ionization_Penalty_Charging>
5.18263

> <r_epik_Ionization_Penalty_Neutral>
0.189756

> <r_epik_State_Penalty>
5.53772

> <r_epik_Charging_Adjusted_Penalty>
10.7204

> <i_epik_Tot_Q>
0

> <i_epik_Tot_abs_Q>
2

> <r_epik_Metal_State_Penalty>
1.80836

> <b_epik_Metal_Only>
1

> <s_epik_Chemistry_Notes>
This compound has an imine and may undergo hydrolysis.

> <s_lp_Force_Field>
OPLS_2005

> <r_lp_Energy>
21.245

> <b_lp_Chiralities_Consistent>
1

> <s_lp_Variant>
AV-unprocessed.smi:561-6

> <Gold.Version>
5.8.1

> <Gold.Id.Protein>
6NUR|6NUR_protein|mol2

> <Gold.PLP.Fitness>
47.9376

> <Gold.PLP.PLP>
-34.9589

> <Gold.PLP.part.hbond>
-2.0000

> <Gold.PLP.part.metal>
0.0000

> <Gold.PLP.part.buried>
1.5991

> <Gold.PLP.part.nonpolar>
-33.1590

> <Gold.PLP.part.repulsive>
0.0977

> <Gold.PLP.ligand.clash>
0.0000

> <Gold.PLP.ligand.torsion>
1.0318

> <Gold.PLP.Chemscore.Hbond>
3.0000

> <Gold.PLP.Chemscore.CHOScore>
1.9910

> <Gold.PLP.Chemscore.Metal>
0.0000

> <Gold.Chemscore.Hbonds>
donor molecule, donor type, donor heavy atom, donor atom, acceptor molecule, acceptor atom, score
      L1  H     7    36       P1 10175  2.00
      P1  H  7997  8010       L1    11  1.00
      L1  C     5    26       P1  8028  1.00
      L1  C     8    28       P1  7957  1.00

> <Gold.PLP.Chemscore.Internal.Correction>
0.0693

> <Gold.Rescore>
     Score         DG    S(hbond)    S(metal)    S(lipo)     H(rot)  DE(clash)    DE(int)     intcor
     13.41     -14.64       1.93        0.00      60.87       1.73       0.13       1.09       ----

> <Gold.Chemscore.Fitness>
13.4060

> <Gold.Chemscore.DG>
-14.6354

> <Gold.Chemscore.ZeroCoef>
-5.4800

> <Gold.Chemscore.Hbond>
1.9346

> <Gold.Chemscore.Metal>
0.0000

> <Gold.Chemscore.Lipo>
60.8745

> <Gold.Chemscore.Internal_Hbond>
0.0000

> <Gold.Chemscore.DEClash>
0.1347

> <Gold.Chemscore.DEInternal>
1.0946

> <Gold.Chemscore.Rot>
1.7299

> <Gold.Chemscore.Internal.Correction>
   9.000000E+99

> <Gold.Chemscore.Hbonds>
donor molecule, donor type, donor heavy atom, donor atom, acceptor molecule, acceptor atom, score
      L1  H     7    36       P1 10175  0.93
      P1  H  7997  8010       L1    11  0.93

> <Gold.Chemscore.Hbond.Weighted>
-6.4617

> <Gold.Chemscore.Metal.Weighted>
-0.0000

> <Gold.Chemscore.Lipo.Weighted>
-7.1223

> <Gold.Chemscore.Internal_Hbond.Weighted>
0.0000

> <Gold.Chemscore.DEClash.Weighted>
0.1347

> <Gold.Chemscore.DEInternal.Weighted>
1.0946

> <Gold.Chemscore.Rot.Weighted>
4.4286

> <Gold.Chemscore.Internal.Correction.Weighted>
   9.000000E+99

> <Gold.Protein.RotatedTorsions>
[ 6907 6896 6895 6894 ] final -100.28 input  -60.11 | X-H torsion
[ 7974 7965 7964 7962 ] final  -30.21 input  175.53 | X-H torsion
[ 8008 7997 7996 7995 ] final   93.05 input   59.86 | X-H torsion
[ 10167 10162 10161 10158 ] final -116.08 input  -65.29 | X-H torsion
[ 10718 10713 10712 10709 ] final  -12.00 input   66.30 | X-H torsion
[ 10763 10752 10751 10750 ] final  -35.00 input  -60.55 | X-H torsion
[ 11005 11000 10999 10996 ] final  -70.88 input  -57.11 | X-H torsion

> <Gold.Protein.ActiveResidues>
 VAL166  LYS551  ARG553  GLY616  TRP617  ASP618  TYR619  PRO620  LYS621  CYS622 
 ASP623  PHE694  ASN695  SER759  ASP760  ASP761  ALA762  ILE779  LEU786  VAL792 
 PHE793  MET794  SER795  GLU796  ALA797  LYS798  CYS799  TRP800  GLU811  SER814 

> <Gold.Protein.RotatedAtoms>
  150.7110  134.0911  159.3931 H   0  0  0  0  0  0  0  0  0  0  0  0  # atno 6907 bound_to 6896
  151.8896  135.0419  160.0506 H   0  0  0  0  0  0  0  0  0  0  0  0  # atno 6908 bound_to 6896
  152.2502  133.5173  159.5357 H   0  0  0  0  0  0  0  0  0  0  0  0  # atno 6909 bound_to 6896
  146.1160  140.5511  142.8757 H   0  0  0  0  0  0  0  0  0  0  0  0  # atno 7974 bound_to 7965
  156.0424  140.3318  155.7258 H   0  0  0  0  0  0  0  0  0  0  0  0  # atno 8008 bound_to 7997
  155.5725  140.0629  157.2821 H   0  0  0  0  0  0  0  0  0  0  0  0  # atno 8009 bound_to 7997
  154.4399  140.1858  156.0882 H   0  0  0  0  0  0  0  0  0  0  0  0  # atno 8010 bound_to 7997
  140.0831  143.4769  152.1914 H   0  0  0  0  0  0  0  0  0  0  0  0  # atno 10167 bound_to 10162
  156.6509  130.4954  149.6062 H   0  0  0  0  0  0  0  0  0  0  0  0  # atno 10718 bound_to 10713
  153.8561  135.6844  153.4787 H   0  0  0  0  0  0  0  0  0  0  0  0  # atno 10763 bound_to 10752
  153.1369  135.4674  154.9434 H   0  0  0  0  0  0  0  0  0  0  0  0  # atno 10764 bound_to 10752
  154.7780  135.3259  154.7999 H   0  0  0  0  0  0  0  0  0  0  0  0  # atno 10765 bound_to 10752
  141.1582  133.6802  156.6820 H   0  0  0  0  0  0  0  0  0  0  0  0  # atno 11005 bound_to 11000
  144.7553  140.5292  143.6773 LP  0  0  0  0  0  0  0  0  0  0  0  0  # atno 17320 bound_to 7965
  145.5566  139.1478  143.3364 LP  0  0  0  0  0  0  0  0  0  0  0  0  # atno 17321 bound_to 7965
  139.5768  144.7491  151.3744 LP  0  0  0  0  0  0  0  0  0  0  0  0  # atno 17342 bound_to 10162
  140.7067  143.7494  150.7495 LP  0  0  0  0  0  0  0  0  0  0  0  0  # atno 17343 bound_to 10162
  156.2085  130.6664  151.1244 LP  0  0  0  0  0  0  0  0  0  0  0  0  # atno 17370 bound_to 10713
  157.7141  131.0719  150.6392 LP  0  0  0  0  0  0  0  0  0  0  0  0  # atno 17371 bound_to 10713
  140.3095  134.8098  157.4164 LP  0  0  0  0  0  0  0  0  0  0  0  0  # atno 17394 bound_to 11000
  140.1191  134.5243  155.8199 LP  0  0  0  0  0  0  0  0  0  0  0  0  # atno 17395 bound_to 11000

$$$$
