AV-unprocessed.smi:1166|AV-procd|sdf|4934|dock5
  -GOLD-   22720 3523D 1   1.00000     0.00000
 Structure written by MMmdl.
 47 48  0  0  0  0  0  0  0  0  2 V2000
  147.8140  127.8097  152.1667 C   0  0  0  0  0  0  0  0  0  0  0  0
  146.8168  128.8738  152.1989 N   0  0  0  0  0  0  0  0  0  0  0  0
  145.4147  128.5762  151.9375 C   0  0  0  0  0  0  0  0  0  0  0  0
  147.2069  130.1924  152.5181 C   0  0  0  0  0  0  0  0  0  0  0  0
  146.4554  131.3348  152.1483 C   0  0  0  0  0  0  0  0  0  0  0  0
  146.9121  132.6204  152.5041 C   0  0  0  0  0  0  0  0  0  0  0  0
  148.1186  132.7649  153.2199 C   0  0  0  0  0  0  0  0  0  0  0  0
  148.5288  134.0809  153.5671 N   0  0  0  0  0  0  0  0  0  0  0  0
  149.1034  134.5085  154.7046 C   0  0  0  0  0  0  0  0  0  0  0  0
  149.4016  133.7963  155.6629 O   0  0  0  0  0  0  0  0  0  0  0  0
  149.3337  135.8286  154.6642 N   0  0  0  0  0  0  0  0  0  0  0  0
  149.9675  136.6065  155.7242 C   0  0  2  0  0  0  0  0  0  0  0  0
  149.4717  136.1524  157.1070 C   0  0  0  0  0  0  0  0  0  0  0  0
  150.1086  137.0217  158.1968 C   0  0  0  0  0  0  0  0  0  0  0  0
  149.8297  138.5154  157.9544 C   0  0  0  0  0  0  0  0  0  0  0  0
  150.2317  138.9320  156.5954 N   0  0  0  0  0  0  0  0  0  0  0  0
  151.7242  139.7939  156.3533 S   0  0  0  0  0  0  0  0  0  0  0  0
  151.5506  141.3004  157.3948 C   0  0  0  0  0  0  0  0  0  0  0  0
  152.8114  138.9750  156.9108 O   0  0  0  0  0  0  0  0  0  0  0  0
  151.7765  140.2138  154.9447 O   0  0  0  0  0  0  0  0  0  0  0  0
  149.6748  138.1041  155.5070 C   0  0  0  0  0  0  0  0  0  0  0  0
  148.8284  131.5932  153.5757 C   0  0  0  0  0  0  0  0  0  0  0  0
  148.3539  130.3812  153.2152 N   0  3  0  0  0  0  0  0  0  0  0  0
  148.6093  128.0489  151.4598 H   0  0  0  0  0  0  0  0  0  0  0  0
  147.3722  126.8611  151.8609 H   0  0  0  0  0  0  0  0  0  0  0  0
  148.2564  127.6705  153.1539 H   0  0  0  0  0  0  0  0  0  0  0  0
  144.7976  128.8514  152.7933 H   0  0  0  0  0  0  0  0  0  0  0  0
  145.2631  127.5133  151.7476 H   0  0  0  0  0  0  0  0  0  0  0  0
  145.0635  129.1247  151.0630 H   0  0  0  0  0  0  0  0  0  0  0  0
  145.5322  131.2477  151.5952 H   0  0  0  0  0  0  0  0  0  0  0  0
  146.3366  133.4902  152.2221 H   0  0  0  0  0  0  0  0  0  0  0  0
  148.4108  134.7756  152.8440 H   0  0  0  0  0  0  0  0  0  0  0  0
  149.0581  136.3352  153.8355 H   0  0  0  0  0  0  0  0  0  0  0  0
  151.0452  136.4521  155.6704 H   0  0  0  0  0  0  0  0  0  0  0  0
  148.3849  136.2312  157.1615 H   0  0  0  0  0  0  0  0  0  0  0  0
  149.7198  135.1044  157.2790 H   0  0  0  0  0  0  0  0  0  0  0  0
  149.7234  136.7295  159.1739 H   0  0  0  0  0  0  0  0  0  0  0  0
  151.1822  136.8403  158.2281 H   0  0  0  0  0  0  0  0  0  0  0  0
  148.7629  138.7097  158.0708 H   0  0  0  0  0  0  0  0  0  0  0  0
  150.3350  139.1231  158.7043 H   0  0  0  0  0  0  0  0  0  0  0  0
  152.4427  141.9155  157.2800 H   0  0  0  0  0  0  0  0  0  0  0  0
  151.4502  141.0196  158.4417 H   0  0  0  0  0  0  0  0  0  0  0  0
  150.6827  141.8751  157.0762 H   0  0  0  0  0  0  0  0  0  0  0  0
  150.0678  138.4340  154.5455 H   0  0  0  0  0  0  0  0  0  0  0  0
  148.5972  138.2696  155.4708 H   0  0  0  0  0  0  0  0  0  0  0  0
  149.7472  131.5672  154.1415 H   0  0  0  0  0  0  0  0  0  0  0  0
  148.8915  129.5582  153.4875 H   0  0  0  0  0  0  0  0  0  0  0  0
  1  2  1  0  0  0  0
  1 24  1  0  0  0  0
  1 25  1  0  0  0  0
  1 26  1  0  0  0  0
  2  3  1  0  0  0  0
  2  4  1  0  0  0  0
  3 27  1  0  0  0  0
  3 28  1  0  0  0  0
  3 29  1  0  0  0  0
  4 23  1  0  0  0  0
  4  5  2  0  0  0  0
  5  6  1  0  0  0  0
  5 30  1  0  0  0  0
  6  7  2  0  0  0  0
  6 31  1  0  0  0  0
  7  8  1  0  0  0  0
  7 22  1  0  0  0  0
  8  9  1  0  0  0  0
  8 32  1  0  0  0  0
  9 10  2  0  0  0  0
  9 11  1  0  0  0  0
 11 12  1  0  0  0  0
 11 33  1  0  0  0  0
 12 21  1  0  0  0  0
 12 13  1  0  0  0  0
 12 34  1  0  0  0  0
 13 14  1  0  0  0  0
 13 35  1  0  0  0  0
 13 36  1  0  0  0  0
 14 15  1  0  0  0  0
 14 37  1  0  0  0  0
 14 38  1  0  0  0  0
 15 16  1  0  0  0  0
 15 39  1  0  0  0  0
 15 40  1  0  0  0  0
 16 17  1  0  0  0  0
 16 21  1  0  0  0  0
 17 18  1  0  0  0  0
 17 19  2  0  0  0  0
 17 20  2  0  0  0  0
 18 41  1  0  0  0  0
 18 42  1  0  0  0  0
 18 43  1  0  0  0  0
 21 44  1  0  0  0  0
 21 45  1  0  0  0  0
 22 23  2  0  0  0  0
 22 46  1  0  0  0  0
 23 47  1  0  0  0  0
M  CHG  1  23   1
M  END
> <s_m_source_file>
AV-unprocessed.smi

> <i_m_source_file_index>
1166

> <i_lp_mmshare_version>
43012

> <i_f3d_flags>
0

> <s_epik_input>
W0NIM11OKFtDSDNdKWMxW2NIXVtjSF1jKFtjSF1uMSlbTkhdQyg9TylbTkhdW0NAQEhdMltDSDJdW0NIMl1bQ0gyXU4oW0NIMl0yKVMoPU8pKD1PKVtDSDNd

> <s_epik_cmdline>
J2VwaWtfcHl0aG9uJywgJy1waCcsICc3LjAnLCAnLXRuJywgJzgnLCAnLW1hJywgJzIwMCcsICctbWV0YWxfYmluZGluZycsICctaW1hZScsICc8aW5maWxlLm1hZT4nLCAnLW9tYWUnLCAnPG91dGZpbGUubWFlPic=

> <r_lp_tautomer_probability>
0.999994

> <r_epik_Ionization_Penalty>
0.276583

> <r_epik_Ionization_Penalty_Charging>
0.276565

> <r_epik_Ionization_Penalty_Neutral>
1.87575e-05

> <r_epik_State_Penalty>
0.268949

> <r_epik_Charging_Adjusted_Penalty>
0.545513

> <i_epik_Tot_Q>
1

> <i_epik_Tot_abs_Q>
1

> <r_epik_Metal_State_Penalty>
0.551815

> <b_epik_Metal_Only>
0

> <s_lp_Force_Field>
OPLS_2005

> <r_lp_Energy>
7.52153

> <b_lp_Chiralities_Consistent>
1

> <s_lp_Variant>
AV-unprocessed.smi:1166-1

> <Gold.Version>
5.8.1

> <Gold.Id.Protein>
6NUR|6NUR_protein|mol2

> <Gold.PLP.Fitness>
44.1519

> <Gold.PLP.PLP>
-34.6804

> <Gold.PLP.part.hbond>
-4.8846

> <Gold.PLP.part.metal>
0.0000

> <Gold.PLP.part.buried>
-2.7397

> <Gold.PLP.part.nonpolar>
-26.4499

> <Gold.PLP.part.repulsive>
0.1175

> <Gold.PLP.ligand.clash>
0.0000

> <Gold.PLP.ligand.torsion>
1.8856

> <Gold.PLP.Chemscore.Hbond>
3.7280

> <Gold.PLP.Chemscore.CHOScore>
0.0000

> <Gold.PLP.Chemscore.Metal>
0.0000

> <Gold.Chemscore.Hbonds>
donor molecule, donor type, donor heavy atom, donor atom, acceptor molecule, acceptor atom, score
      L1  H     8    32       P1  7948  1.00
      L1  H    11    33       P1  7948  0.86
      P1  H  7989  7998       L1    20  0.90
      P1  H  7997  8010       L1    19  1.00

> <Gold.PLP.Chemscore.Internal.Correction>
2.0587

> <Gold.Rescore>
     Score         DG    S(hbond)    S(metal)    S(lipo)     H(rot)  DE(clash)    DE(int)     intcor
     16.28     -21.02       3.18        0.00      63.78       1.00       0.59       4.15       ----

> <Gold.Chemscore.Fitness>
16.2791

> <Gold.Chemscore.DG>
-21.0199

> <Gold.Chemscore.ZeroCoef>
-5.4800

> <Gold.Chemscore.Hbond>
3.1850

> <Gold.Chemscore.Metal>
0.0000

> <Gold.Chemscore.Lipo>
63.7794

> <Gold.Chemscore.Internal_Hbond>
0.0000

> <Gold.Chemscore.DEClash>
0.5891

> <Gold.Chemscore.DEInternal>
4.1518

> <Gold.Chemscore.Rot>
1.0000

> <Gold.Chemscore.Internal.Correction>
   9.000000E+99

> <Gold.Chemscore.Hbonds>
donor molecule, donor type, donor heavy atom, donor atom, acceptor molecule, acceptor atom, score
      L1  H     8    32       P1  7948  0.43
      L1  H    11    33       P1  7948  0.82
      P1  H  7989  7998       L1    20  0.86
      P1  H  7997  8010       L1    19  0.50

> <Gold.Chemscore.Hbond.Weighted>
-10.6377

> <Gold.Chemscore.Metal.Weighted>
-0.0000

> <Gold.Chemscore.Lipo.Weighted>
-7.4622

> <Gold.Chemscore.Internal_Hbond.Weighted>
0.0000

> <Gold.Chemscore.DEClash.Weighted>
0.5891

> <Gold.Chemscore.DEInternal.Weighted>
4.1518

> <Gold.Chemscore.Rot.Weighted>
2.5600

> <Gold.Chemscore.Internal.Correction.Weighted>
   9.000000E+99

> <Gold.Protein.RotatedTorsions>
[ 6907 6896 6895 6894 ] final   44.33 input  -60.11 | X-H torsion
[ 7974 7965 7964 7962 ] final -122.84 input  175.53 | X-H torsion
[ 8008 7997 7996 7995 ] final   56.25 input   59.86 | X-H torsion
[ 10167 10162 10161 10158 ] final  146.13 input  -65.29 | X-H torsion
[ 10718 10713 10712 10709 ] final  137.73 input   66.30 | X-H torsion
[ 10763 10752 10751 10750 ] final  164.36 input  -60.55 | X-H torsion
[ 11005 11000 10999 10996 ] final  -79.47 input  -57.11 | X-H torsion

> <Gold.Protein.ActiveResidues>
 VAL166  LYS551  ARG553  GLY616  TRP617  ASP618  TYR619  PRO620  LYS621  CYS622 
 ASP623  PHE694  ASN695  SER759  ASP760  ASP761  ALA762  ILE779  LEU786  VAL792 
 PHE793  MET794  SER795  GLU796  ALA797  LYS798  CYS799  TRP800  GLU811  SER814 

> <Gold.Protein.RotatedAtoms>
  152.2312  134.8320  160.0473 H   0  0  0  0  0  0  0  0  0  0  0  0  # atno 6907 bound_to 6896
  151.9068  133.3546  159.3858 H   0  0  0  0  0  0  0  0  0  0  0  0  # atno 6908 bound_to 6896
  150.7026  134.4698  159.5464 H   0  0  0  0  0  0  0  0  0  0  0  0  # atno 6909 bound_to 6896
  145.0251  140.8020  143.4357 H   0  0  0  0  0  0  0  0  0  0  0  0  # atno 7974 bound_to 7965
  155.5144  140.3478  155.4394 H   0  0  0  0  0  0  0  0  0  0  0  0  # atno 8008 bound_to 7997
  156.0827  140.1390  156.9719 H   0  0  0  0  0  0  0  0  0  0  0  0  # atno 8009 bound_to 7997
  154.4589  140.0942  156.6813 H   0  0  0  0  0  0  0  0  0  0  0  0  # atno 8010 bound_to 7997
  139.4913  144.5852  151.6793 H   0  0  0  0  0  0  0  0  0  0  0  0  # atno 10167 bound_to 10162
  157.4329  131.1050  151.0230 H   0  0  0  0  0  0  0  0  0  0  0  0  # atno 10718 bound_to 10713
  154.3077  135.2758  155.2581 H   0  0  0  0  0  0  0  0  0  0  0  0  # atno 10763 bound_to 10752
  154.4990  135.5813  153.6520 H   0  0  0  0  0  0  0  0  0  0  0  0  # atno 10764 bound_to 10752
  152.9892  135.6153  154.3252 H   0  0  0  0  0  0  0  0  0  0  0  0  # atno 10765 bound_to 10752
  141.1667  133.7107  156.8127 H   0  0  0  0  0  0  0  0  0  0  0  0  # atno 11005 bound_to 11000
  145.1845  139.2334  143.5275 LP  0  0  0  0  0  0  0  0  0  0  0  0  # atno 17320 bound_to 7965
  146.3491  140.1626  142.8590 LP  0  0  0  0  0  0  0  0  0  0  0  0  # atno 17321 bound_to 7965
  140.5466  144.0493  150.6110 LP  0  0  0  0  0  0  0  0  0  0  0  0  # atno 17342 bound_to 10162
  140.3533  143.2950  152.0463 LP  0  0  0  0  0  0  0  0  0  0  0  0  # atno 17343 bound_to 10162
  157.1120  130.6025  149.5484 LP  0  0  0  0  0  0  0  0  0  0  0  0  # atno 17370 bound_to 10713
  155.9920  130.4976  150.7321 LP  0  0  0  0  0  0  0  0  0  0  0  0  # atno 17371 bound_to 10713
  140.2176  134.8781  157.3342 LP  0  0  0  0  0  0  0  0  0  0  0  0  # atno 17394 bound_to 11000
  140.2022  134.4241  155.7657 LP  0  0  0  0  0  0  0  0  0  0  0  0  # atno 17395 bound_to 11000

$$$$
