AV-unprocessed.smi:2702|AV-procd|sdf|10431|dock4
  -GOLD-   2272014473D 1   1.00000     0.00000
 Structure written by MMmdl.
 47 48  0  0  0  0  0  0  0  0  1 V2000
  149.5830  134.8985  157.6474 C   0  0  0  0  0  0  0  0  0  0  0  0
  150.8357  134.3209  157.3251 O   0  0  0  0  0  0  0  0  0  0  0  0
  151.2939  134.7003  156.0387 C   0  0  0  0  0  0  0  0  0  0  0  0
  151.4239  136.2070  155.9474 C   0  0  0  0  0  0  0  0  0  0  0  0
  150.9910  136.8982  154.8673 C   0  0  0  0  0  0  0  0  0  0  0  0
  151.1446  138.3516  154.8006 C   0  0  0  0  0  0  0  0  0  0  0  0
  150.7521  139.0174  153.8420 O   0  0  0  0  0  0  0  0  0  0  0  0
  151.7593  138.9146  155.8825 N   0  0  0  0  0  0  0  0  0  0  0  0
  151.9960  140.3680  155.9601 C   0  0  0  0  0  0  0  0  0  0  0  0
  151.4059  141.0240  157.2171 C   0  0  0  0  0  0  0  0  0  0  0  0
  150.1879  141.0784  157.3947 O   0  0  0  0  0  0  0  0  0  0  0  0
  152.2985  141.5097  158.0924 N   0  0  0  0  0  0  0  0  0  0  0  0
  151.9742  142.1690  159.3552 C   0  0  1  0  0  0  0  0  0  0  0  0
  153.1644  142.0477  160.3260 C   0  0  0  0  0  0  0  0  0  0  0  0
  152.8471  142.7001  161.6797 C   0  0  0  0  0  0  0  0  0  0  0  0
  152.4030  144.1617  161.5117 C   0  0  0  0  0  0  0  0  0  0  0  0
  151.2159  144.2823  160.5347 C   0  0  1  0  0  0  0  0  0  0  0  0
  150.6982  145.7272  160.4415 C   0  0  0  0  0  0  0  0  0  0  0  0
  151.5439  143.6487  159.1560 C   0  0  1  0  0  0  0  0  0  0  0  0
  152.5554  144.4703  158.3228 C   0  0  0  0  0  0  0  0  0  0  0  0
  152.1939  138.1464  156.9812 C   0  0  0  0  0  0  0  0  0  0  0  0
  152.0427  136.8606  157.0176 N   0  0  0  0  0  0  0  0  0  0  0  0
  149.2765  134.5750  158.6422 H   0  0  0  0  0  0  0  0  0  0  0  0
  148.8121  134.5892  156.9403 H   0  0  0  0  0  0  0  0  0  0  0  0
  149.6398  135.9879  157.6502 H   0  0  0  0  0  0  0  0  0  0  0  0
  152.2646  134.2437  155.8365 H   0  0  0  0  0  0  0  0  0  0  0  0
  150.6041  134.3445  155.2714 H   0  0  0  0  0  0  0  0  0  0  0  0
  150.5240  136.3781  154.0437 H   0  0  0  0  0  0  0  0  0  0  0  0
  153.0628  140.5964  155.9255 H   0  0  0  0  0  0  0  0  0  0  0  0
  151.5766  140.8592  155.0799 H   0  0  0  0  0  0  0  0  0  0  0  0
  153.2783  141.4218  157.8655 H   0  0  0  0  0  0  0  0  0  0  0  0
  151.1382  141.6305  159.8065 H   0  0  0  0  0  0  0  0  0  0  0  0
  153.4120  140.9968  160.4812 H   0  0  0  0  0  0  0  0  0  0  0  0
  154.0531  142.5103  159.8953 H   0  0  0  0  0  0  0  0  0  0  0  0
  152.0571  142.1363  162.1776 H   0  0  0  0  0  0  0  0  0  0  0  0
  153.7197  142.6486  162.3313 H   0  0  0  0  0  0  0  0  0  0  0  0
  152.1247  144.5664  162.4853 H   0  0  0  0  0  0  0  0  0  0  0  0
  153.2422  144.7638  161.1620 H   0  0  0  0  0  0  0  0  0  0  0  0
  150.3977  143.6984  160.9597 H   0  0  0  0  0  0  0  0  0  0  0  0
  151.4765  146.4178  160.1170 H   0  0  0  0  0  0  0  0  0  0  0  0
  150.3426  146.0740  161.4121 H   0  0  0  0  0  0  0  0  0  0  0  0
  149.8659  145.8033  159.7414 H   0  0  0  0  0  0  0  0  0  0  0  0
  150.6155  143.6394  158.5829 H   0  0  0  0  0  0  0  0  0  0  0  0
  153.5191  144.5641  158.8222 H   0  0  0  0  0  0  0  0  0  0  0  0
  152.1869  145.4763  158.1258 H   0  0  0  0  0  0  0  0  0  0  0  0
  152.7352  144.0161  157.3485 H   0  0  0  0  0  0  0  0  0  0  0  0
  152.6597  138.7091  157.7919 H   0  0  0  0  0  0  0  0  0  0  0  0
  1  2  1  0  0  0  0
  1 23  1  0  0  0  0
  1 24  1  0  0  0  0
  1 25  1  0  0  0  0
  2  3  1  0  0  0  0
  3  4  1  0  0  0  0
  3 26  1  0  0  0  0
  3 27  1  0  0  0  0
  4 22  1  0  0  0  0
  4  5  2  0  0  0  0
  5  6  1  0  0  0  0
  5 28  1  0  0  0  0
  6  7  2  0  0  0  0
  6  8  1  0  0  0  0
  8  9  1  0  0  0  0
  8 21  1  0  0  0  0
  9 10  1  0  0  0  0
  9 29  1  0  0  0  0
  9 30  1  0  0  0  0
 10 11  2  0  0  0  0
 10 12  1  0  0  0  0
 12 13  1  0  0  0  0
 12 31  1  0  0  0  0
 13 19  1  0  0  0  0
 13 14  1  0  0  0  0
 13 32  1  0  0  0  0
 14 15  1  0  0  0  0
 14 33  1  0  0  0  0
 14 34  1  0  0  0  0
 15 16  1  0  0  0  0
 15 35  1  0  0  0  0
 15 36  1  0  0  0  0
 16 17  1  0  0  0  0
 16 37  1  0  0  0  0
 16 38  1  0  0  0  0
 17 18  1  0  0  0  0
 17 19  1  0  0  0  0
 17 39  1  0  0  0  0
 18 40  1  0  0  0  0
 18 41  1  0  0  0  0
 18 42  1  0  0  0  0
 19 20  1  0  0  0  0
 19 43  1  0  0  0  0
 20 44  1  0  0  0  0
 20 45  1  0  0  0  0
 20 46  1  0  0  0  0
 21 22  2  0  0  0  0
 21 47  1  0  0  0  0
M  END
> <s_m_source_file>
AV-unprocessed.smi

> <i_m_source_file_index>
2702

> <i_lp_mmshare_version>
43012

> <i_f3d_flags>
0

> <s_epik_input>
W0NIM11PW0NIMl1jMVtjSF1jKD1PKW4oW2NIXW4xKVtDSDJdQyg9TylbTkhdW0NAQEhdMltDSDJdW0NIMl1bQ0gyXVtDQEBIXShbQ0gzXSlbQ0BIXTJbQ0gzXQ==

> <s_epik_cmdline>
J2VwaWtfcHl0aG9uJywgJy1waCcsICc3LjAnLCAnLXRuJywgJzgnLCAnLW1hJywgJzIwMCcsICctbWV0YWxfYmluZGluZycsICctaW1hZScsICc8aW5maWxlLm1hZT4nLCAnLW9tYWUnLCAnPG91dGZpbGUubWFlPic=

> <r_lp_tautomer_probability>
1

> <r_epik_Ionization_Penalty>
1.22164e-06

> <r_epik_Ionization_Penalty_Charging>
3.17988e-07

> <r_epik_Ionization_Penalty_Neutral>
9.03656e-07

> <r_epik_State_Penalty>
-0

> <r_epik_Charging_Adjusted_Penalty>
3.17988e-07

> <i_epik_Tot_Q>
0

> <i_epik_Tot_abs_Q>
0

> <r_epik_Metal_State_Penalty>
-0

> <b_epik_Metal_Only>
0

> <s_lp_Force_Field>
OPLS_2005

> <r_lp_Energy>
18.9829

> <b_lp_Chiralities_Consistent>
1

> <s_lp_Variant>
AV-unprocessed.smi:2702-2

> <Gold.Version>
5.8.1

> <Gold.Id.Protein>
6NUR|6NUR_protein|mol2

> <Gold.PLP.Fitness>
43.8489

> <Gold.PLP.PLP>
-39.9072

> <Gold.PLP.part.hbond>
-2.0000

> <Gold.PLP.part.metal>
0.0000

> <Gold.PLP.part.buried>
-0.5011

> <Gold.PLP.part.nonpolar>
-37.4810

> <Gold.PLP.part.repulsive>
0.8587

> <Gold.PLP.ligand.clash>
0.0000

> <Gold.PLP.ligand.torsion>
0.5579

> <Gold.PLP.Chemscore.Hbond>
1.6635

> <Gold.PLP.Chemscore.CHOScore>
0.0000

> <Gold.PLP.Chemscore.Metal>
0.0000

> <Gold.Chemscore.Hbonds>
donor molecule, donor type, donor heavy atom, donor atom, acceptor molecule, acceptor atom, score
      P1  H  6896  6907       L1     2  0.02
      P1  H  7989  7998       L1     7  0.93

> <Gold.PLP.Chemscore.Internal.Correction>
0.0671

> <Gold.Rescore>
     Score         DG    S(hbond)    S(metal)    S(lipo)     H(rot)  DE(clash)    DE(int)     intcor
     17.01     -19.23       1.67        0.00     111.98       1.93       1.79       0.43       ----

> <Gold.Chemscore.Fitness>
17.0075

> <Gold.Chemscore.DG>
-19.2267

> <Gold.Chemscore.ZeroCoef>
-5.4800

> <Gold.Chemscore.Hbond>
1.6714

> <Gold.Chemscore.Metal>
0.0000

> <Gold.Chemscore.Lipo>
111.9752

> <Gold.Chemscore.Internal_Hbond>
0.0000

> <Gold.Chemscore.DEClash>
1.7908

> <Gold.Chemscore.DEInternal>
0.4284

> <Gold.Chemscore.Rot>
1.9284

> <Gold.Chemscore.Internal.Correction>
   9.000000E+99

> <Gold.Chemscore.Hbonds>
donor molecule, donor type, donor heavy atom, donor atom, acceptor molecule, acceptor atom, score
      P1  H  7989  7998       L1     7  0.82

> <Gold.Chemscore.Hbond.Weighted>
-5.5824

> <Gold.Chemscore.Metal.Weighted>
-0.0000

> <Gold.Chemscore.Lipo.Weighted>
-13.1011

> <Gold.Chemscore.Internal_Hbond.Weighted>
0.0000

> <Gold.Chemscore.DEClash.Weighted>
1.7908

> <Gold.Chemscore.DEInternal.Weighted>
0.4284

> <Gold.Chemscore.Rot.Weighted>
4.9368

> <Gold.Chemscore.Internal.Correction.Weighted>
   9.000000E+99

> <Gold.Protein.RotatedTorsions>
[ 6907 6896 6895 6894 ] final -115.14 input  -60.11 | X-H torsion
[ 7974 7965 7964 7962 ] final   95.04 input  175.53 | X-H torsion
[ 8008 7997 7996 7995 ] final  -36.47 input   59.86 | X-H torsion
[ 10167 10162 10161 10158 ] final -136.57 input  -65.29 | X-H torsion
[ 10718 10713 10712 10709 ] final  -94.67 input   66.30 | X-H torsion
[ 10763 10752 10751 10750 ] final  -39.02 input  -60.55 | X-H torsion
[ 11005 11000 10999 10996 ] final -156.62 input  -57.11 | X-H torsion

> <Gold.Protein.ActiveResidues>
 VAL166  LYS551  ARG553  GLY616  TRP617  ASP618  TYR619  PRO620  LYS621  CYS622 
 ASP623  PHE694  ASN695  SER759  ASP760  ASP761  ALA762  ILE779  LEU786  VAL792 
 PHE793  MET794  SER795  GLU796  ALA797  LYS798  CYS799  TRP800  GLU811  SER814 

> <Gold.Protein.RotatedAtoms>
  150.7955  133.8700  159.3255 H   0  0  0  0  0  0  0  0  0  0  0  0  # atno 6907 bound_to 6896
  151.6527  135.0998  160.0173 H   0  0  0  0  0  0  0  0  0  0  0  0  # atno 6908 bound_to 6896
  152.4036  133.6816  159.6372 H   0  0  0  0  0  0  0  0  0  0  0  0  # atno 6909 bound_to 6896
  145.4575  139.2289  143.3006 H   0  0  0  0  0  0  0  0  0  0  0  0  # atno 7974 bound_to 7965
  154.4072  140.1630  156.2379 H   0  0  0  0  0  0  0  0  0  0  0  0  # atno 8008 bound_to 7997
  155.9227  140.3420  155.6163 H   0  0  0  0  0  0  0  0  0  0  0  0  # atno 8009 bound_to 7997
  155.7203  140.0767  157.2324 H   0  0  0  0  0  0  0  0  0  0  0  0  # atno 8010 bound_to 7997
  139.8665  143.7011  152.2644 H   0  0  0  0  0  0  0  0  0  0  0  0  # atno 10167 bound_to 10162
  156.0030  130.5077  150.5961 H   0  0  0  0  0  0  0  0  0  0  0  0  # atno 10718 bound_to 10713
  153.9224  135.6781  153.4747 H   0  0  0  0  0  0  0  0  0  0  0  0  # atno 10763 bound_to 10752
  153.1022  135.4823  154.8884 H   0  0  0  0  0  0  0  0  0  0  0  0  # atno 10764 bound_to 10752
  154.7471  135.3175  154.8582 H   0  0  0  0  0  0  0  0  0  0  0  0  # atno 10765 bound_to 10752
  140.6736  134.4220  157.5230 H   0  0  0  0  0  0  0  0  0  0  0  0  # atno 11005 bound_to 11000
  146.2470  140.5340  142.8909 LP  0  0  0  0  0  0  0  0  0  0  0  0  # atno 17320 bound_to 7965
  144.8023  140.6236  143.6470 LP  0  0  0  0  0  0  0  0  0  0  0  0  # atno 17321 bound_to 7965
  139.7324  144.7579  151.0780 LP  0  0  0  0  0  0  0  0  0  0  0  0  # atno 17342 bound_to 10162
  140.7767  143.5072  150.9698 LP  0  0  0  0  0  0  0  0  0  0  0  0  # atno 17343 bound_to 10162
  157.3817  131.0782  151.1471 LP  0  0  0  0  0  0  0  0  0  0  0  0  # atno 17370 bound_to 10713
  157.2191  130.6473  149.5804 LP  0  0  0  0  0  0  0  0  0  0  0  0  # atno 17371 bound_to 10713
  139.8974  134.8638  156.2047 LP  0  0  0  0  0  0  0  0  0  0  0  0  # atno 17394 bound_to 11000
  141.0373  133.6956  156.1534 LP  0  0  0  0  0  0  0  0  0  0  0  0  # atno 17395 bound_to 11000

$$$$
