AV-unprocessed.smi:1240|AV-procd|sdf|5206|dock4
  -GOLD-   22720 4293D 1   1.00000     0.00000
 Structure written by MMmdl.
 48 50  0  0  0  0  0  0  0  0  2 V2000
  146.6047  132.1287  153.8354 O   0  0  0  0  0  0  0  0  0  0  0  0
  147.2916  131.8112  152.8649 C   0  0  0  0  0  0  0  0  0  0  0  0
  148.5225  131.2912  152.9700 N   0  0  0  0  0  0  0  0  0  0  0  0
  149.2143  131.0257  154.2280 C   0  0  0  0  0  0  0  0  0  0  0  0
  149.9988  129.6825  154.2149 C   0  0  1  0  0  0  0  0  0  0  0  0
  151.2331  129.7004  155.1669 C   0  0  1  0  0  0  0  0  0  0  0  0
  152.4101  128.7778  154.8398 C   0  0  0  0  0  0  0  0  0  0  0  0
  153.6440  129.6451  155.1010 C   0  0  0  0  0  0  0  0  0  0  0  0
  153.1689  130.7117  155.9085 O   0  0  0  0  0  0  0  0  0  0  0  0
  151.8905  131.0644  155.4073 C   0  0  0  0  0  0  0  0  0  0  0  0
  149.1589  128.4725  154.3079 N   0  0  0  0  0  0  0  0  0  0  0  0
  148.3860  128.3343  155.5407 C   0  0  0  0  0  0  0  0  0  0  0  0
  147.6170  127.0021  155.5858 C   0  0  0  0  0  0  0  0  0  0  0  0
  146.7924  126.8773  154.4319 O   0  0  0  0  0  0  0  0  0  0  0  0
  147.5353  126.9421  153.2191 C   0  0  0  0  0  0  0  0  0  0  0  0
  148.2853  128.2825  153.1521 C   0  0  0  0  0  0  0  0  0  0  0  0
  146.9134  131.9122  151.5788 N   0  0  0  0  0  0  0  0  0  0  0  0
  145.6915  132.4128  151.0522 C   0  0  0  0  0  0  0  0  0  0  0  0
  144.9012  133.2263  151.8945 C   0  0  0  0  0  0  0  0  0  0  0  0
  143.6741  133.7336  151.4207 C   0  0  0  0  0  0  0  0  0  0  0  0
  143.2583  133.4307  150.1724 N   0  3  0  0  0  0  0  0  0  0  0  0
  143.9711  132.6459  149.3362 C   0  0  0  0  0  0  0  0  0  0  0  0
  145.2064  132.1099  149.7542 C   0  0  0  0  0  0  0  0  0  0  0  0
  149.0169  131.0535  152.1226 H   0  0  0  0  0  0  0  0  0  0  0  0
  149.8862  131.8627  154.4143 H   0  0  0  0  0  0  0  0  0  0  0  0
  148.4796  131.0479  155.0328 H   0  0  0  0  0  0  0  0  0  0  0  0
  150.4530  129.6282  153.2244 H   0  0  0  0  0  0  0  0  0  0  0  0
  150.8769  129.3792  156.1469 H   0  0  0  0  0  0  0  0  0  0  0  0
  152.3991  127.9138  155.5052 H   0  0  0  0  0  0  0  0  0  0  0  0
  152.4088  128.3942  153.8210 H   0  0  0  0  0  0  0  0  0  0  0  0
  154.4471  129.0969  155.5937 H   0  0  0  0  0  0  0  0  0  0  0  0
  154.0327  130.0507  154.1658 H   0  0  0  0  0  0  0  0  0  0  0  0
  152.0217  131.6368  154.4884 H   0  0  0  0  0  0  0  0  0  0  0  0
  151.3358  131.6785  156.1170 H   0  0  0  0  0  0  0  0  0  0  0  0
  149.0432  128.3684  156.4066 H   0  0  0  0  0  0  0  0  0  0  0  0
  147.6801  129.1595  155.6374 H   0  0  0  0  0  0  0  0  0  0  0  0
  148.3095  126.1606  155.6362 H   0  0  0  0  0  0  0  0  0  0  0  0
  146.9923  126.9554  156.4778 H   0  0  0  0  0  0  0  0  0  0  0  0
  148.2319  126.1041  153.1633 H   0  0  0  0  0  0  0  0  0  0  0  0
  146.8508  126.8475  152.3762 H   0  0  0  0  0  0  0  0  0  0  0  0
  147.5501  129.0849  153.0955 H   0  0  0  0  0  0  0  0  0  0  0  0
  148.8692  128.3237  152.2320 H   0  0  0  0  0  0  0  0  0  0  0  0
  147.5551  131.5317  150.8988 H   0  0  0  0  0  0  0  0  0  0  0  0
  145.2324  133.4675  152.8942 H   0  0  0  0  0  0  0  0  0  0  0  0
  143.0170  134.3665  151.9991 H   0  0  0  0  0  0  0  0  0  0  0  0
  143.5324  132.4661  148.3657 H   0  0  0  0  0  0  0  0  0  0  0  0
  145.7491  131.4691  149.0766 H   0  0  0  0  0  0  0  0  0  0  0  0
  142.3664  133.8066  149.8490 H   0  0  0  0  0  0  0  0  0  0  0  0
  1  2  2  0  0  0  0
  2  3  1  0  0  0  0
  2 17  1  0  0  0  0
  3  4  1  0  0  0  0
  3 24  1  0  0  0  0
  4  5  1  0  0  0  0
  4 25  1  0  0  0  0
  4 26  1  0  0  0  0
  5  6  1  0  0  0  0
  5 11  1  0  0  0  0
  5 27  1  0  0  0  0
  6 10  1  0  0  0  0
  6  7  1  0  0  0  0
  6 28  1  0  0  0  0
  7  8  1  0  0  0  0
  7 29  1  0  0  0  0
  7 30  1  0  0  0  0
  8  9  1  0  0  0  0
  8 31  1  0  0  0  0
  8 32  1  0  0  0  0
  9 10  1  0  0  0  0
 10 33  1  0  0  0  0
 10 34  1  0  0  0  0
 11 16  1  0  0  0  0
 11 12  1  0  0  0  0
 12 13  1  0  0  0  0
 12 35  1  0  0  0  0
 12 36  1  0  0  0  0
 13 14  1  0  0  0  0
 13 37  1  0  0  0  0
 13 38  1  0  0  0  0
 14 15  1  0  0  0  0
 15 16  1  0  0  0  0
 15 39  1  0  0  0  0
 15 40  1  0  0  0  0
 16 41  1  0  0  0  0
 16 42  1  0  0  0  0
 17 18  1  0  0  0  0
 17 43  1  0  0  0  0
 18 23  1  0  0  0  0
 18 19  2  0  0  0  0
 19 20  1  0  0  0  0
 19 44  1  0  0  0  0
 20 21  2  0  0  0  0
 20 45  1  0  0  0  0
 21 22  1  0  0  0  0
 21 48  1  0  0  0  0
 22 23  2  0  0  0  0
 22 46  1  0  0  0  0
 23 47  1  0  0  0  0
M  CHG  1  21   1
M  END
> <s_m_source_file>
AV-unprocessed.smi

> <i_m_source_file_index>
1240

> <i_lp_mmshare_version>
43012

> <i_f3d_flags>
0

> <s_epik_input>
W2NIXTFbY0hdbltjSF1bY0hdYzFbTkhdQyg9TylbTkhdW0NIMl1bQ0BIXShbQ0BASF0yW0NIMl1bQ0gyXU9bQ0gyXTIpTjNbQ0gyXVtDSDJdT1tDSDJdW0NIMl0z

> <s_epik_cmdline>
J2VwaWtfcHl0aG9uJywgJy1waCcsICc3LjAnLCAnLXRuJywgJzgnLCAnLW1hJywgJzIwMCcsICctbWV0YWxfYmluZGluZycsICctaW1hZScsICc8aW5maWxlLm1hZT4nLCAnLW9tYWUnLCAnPG91dGZpbGUubWFlPic=

> <r_epik_Ionization_Penalty>
1.15944

> <r_epik_Ionization_Penalty_Charging>
1.0344

> <r_epik_Ionization_Penalty_Neutral>
0.125034

> <r_epik_State_Penalty>
1.2199

> <r_epik_Charging_Adjusted_Penalty>
2.25431

> <i_epik_Tot_Q>
1

> <i_epik_Tot_abs_Q>
1

> <r_epik_Metal_State_Penalty>
1.3155

> <b_epik_Metal_Only>
0

> <s_lp_Force_Field>
OPLS_2005

> <r_lp_Energy>
63.7867

> <b_lp_Chiralities_Consistent>
1

> <s_lp_Variant>
AV-unprocessed.smi:1240-12

> <Gold.Version>
5.8.1

> <Gold.Id.Protein>
6NUR|6NUR_protein|mol2

> <Gold.PLP.Fitness>
49.7626

> <Gold.PLP.PLP>
-40.0852

> <Gold.PLP.part.hbond>
-3.9739

> <Gold.PLP.part.metal>
0.0000

> <Gold.PLP.part.buried>
-6.6109

> <Gold.PLP.part.nonpolar>
-30.5709

> <Gold.PLP.part.repulsive>
0.3844

> <Gold.PLP.ligand.clash>
0.0000

> <Gold.PLP.ligand.torsion>
1.0097

> <Gold.PLP.Chemscore.Hbond>
3.8000

> <Gold.PLP.Chemscore.CHOScore>
0.0000

> <Gold.PLP.Chemscore.Metal>
0.0000

> <Gold.Chemscore.Hbonds>
donor molecule, donor type, donor heavy atom, donor atom, acceptor molecule, acceptor atom, score
      L1  H     3    24       P1 10747  0.99
      L1  H    17    43       P1 10747  1.00
      L1  H    21    48       P1 10186  1.95

> <Gold.PLP.Chemscore.Internal.Correction>
0.2968

> <Gold.Rescore>
     Score         DG    S(hbond)    S(metal)    S(lipo)     H(rot)  DE(clash)    DE(int)     intcor
     17.80     -20.75       2.60        0.00      93.38       1.69       0.14       2.81       ----

> <Gold.Chemscore.Fitness>
17.7968

> <Gold.Chemscore.DG>
-20.7528

> <Gold.Chemscore.ZeroCoef>
-5.4800

> <Gold.Chemscore.Hbond>
2.5977

> <Gold.Chemscore.Metal>
0.0000

> <Gold.Chemscore.Lipo>
93.3833

> <Gold.Chemscore.Internal_Hbond>
0.0000

> <Gold.Chemscore.DEClash>
0.1446

> <Gold.Chemscore.DEInternal>
2.8113

> <Gold.Chemscore.Rot>
1.6912

> <Gold.Chemscore.Internal.Correction>
   9.000000E+99

> <Gold.Chemscore.Hbonds>
donor molecule, donor type, donor heavy atom, donor atom, acceptor molecule, acceptor atom, score
      L1  H     3    24       P1 10747  0.47
      L1  H    17    43       P1 10747  0.99
      L1  H    21    48       P1 10186  0.92

> <Gold.Chemscore.Hbond.Weighted>
-8.6764

> <Gold.Chemscore.Metal.Weighted>
-0.0000

> <Gold.Chemscore.Lipo.Weighted>
-10.9258

> <Gold.Chemscore.Internal_Hbond.Weighted>
0.0000

> <Gold.Chemscore.DEClash.Weighted>
0.1446

> <Gold.Chemscore.DEInternal.Weighted>
2.8113

> <Gold.Chemscore.Rot.Weighted>
4.3295

> <Gold.Chemscore.Internal.Correction.Weighted>
   9.000000E+99

> <Gold.Protein.RotatedTorsions>
[ 6907 6896 6895 6894 ] final -109.15 input  -60.11 | X-H torsion
[ 7974 7965 7964 7962 ] final -126.73 input  175.53 | X-H torsion
[ 8008 7997 7996 7995 ] final   14.58 input   59.86 | X-H torsion
[ 10167 10162 10161 10158 ] final  -91.51 input  -65.29 | X-H torsion
[ 10718 10713 10712 10709 ] final   19.56 input   66.30 | X-H torsion
[ 10763 10752 10751 10750 ] final -152.06 input  -60.55 | X-H torsion
[ 11005 11000 10999 10996 ] final   65.72 input  -57.11 | X-H torsion

> <Gold.Protein.ActiveResidues>
 VAL166  LYS551  ARG553  GLY616  TRP617  ASP618  TYR619  PRO620  LYS621  CYS622 
 ASP623  PHE694  ASN695  SER759  ASP760  ASP761  ALA762  ILE779  LEU786  VAL792 
 PHE793  MET794  SER795  GLU796  ALA797  LYS798  CYS799  TRP800  GLU811  SER814 

> <Gold.Protein.RotatedAtoms>
  150.7544  133.9572  159.3503 H   0  0  0  0  0  0  0  0  0  0  0  0  # atno 6907 bound_to 6896
  151.7494  135.0834  160.0338 H   0  0  0  0  0  0  0  0  0  0  0  0  # atno 6908 bound_to 6896
  152.3476  133.6104  159.5957 H   0  0  0  0  0  0  0  0  0  0  0  0  # atno 6909 bound_to 6896
  144.9843  140.7671  143.4593 H   0  0  0  0  0  0  0  0  0  0  0  0  # atno 7974 bound_to 7965
  154.8505  140.2929  155.5601 H   0  0  0  0  0  0  0  0  0  0  0  0  # atno 8008 bound_to 7997
  156.3016  140.2497  156.3395 H   0  0  0  0  0  0  0  0  0  0  0  0  # atno 8009 bound_to 7997
  154.9026  140.0391  157.1891 H   0  0  0  0  0  0  0  0  0  0  0  0  # atno 8010 bound_to 7997
  140.3442  143.2926  151.9801 H   0  0  0  0  0  0  0  0  0  0  0  0  # atno 10167 bound_to 10162
  157.1122  130.6513  149.5900 H   0  0  0  0  0  0  0  0  0  0  0  0  # atno 10718 bound_to 10713
  154.8018  135.3245  154.7530 H   0  0  0  0  0  0  0  0  0  0  0  0  # atno 10763 bound_to 10752
  153.8197  135.6888  153.4833 H   0  0  0  0  0  0  0  0  0  0  0  0  # atno 10764 bound_to 10752
  153.1740  135.4612  154.9883 H   0  0  0  0  0  0  0  0  0  0  0  0  # atno 10765 bound_to 10752
  139.9877  134.6642  156.0147 H   0  0  0  0  0  0  0  0  0  0  0  0  # atno 11005 bound_to 11000
  145.2376  139.2087  143.5010 LP  0  0  0  0  0  0  0  0  0  0  0  0  # atno 17320 bound_to 7965
  146.3416  140.2265  142.8592 LP  0  0  0  0  0  0  0  0  0  0  0  0  # atno 17321 bound_to 7965
  139.4836  144.6131  151.7396 LP  0  0  0  0  0  0  0  0  0  0  0  0  # atno 17342 bound_to 10162
  140.5280  144.0774  150.6044 LP  0  0  0  0  0  0  0  0  0  0  0  0  # atno 17343 bound_to 10162
  155.9848  130.4874  150.6999 LP  0  0  0  0  0  0  0  0  0  0  0  0  # atno 17370 bound_to 10713
  157.4549  131.0877  151.0807 LP  0  0  0  0  0  0  0  0  0  0  0  0  # atno 17371 bound_to 10713
  141.1539  133.6545  156.4098 LP  0  0  0  0  0  0  0  0  0  0  0  0  # atno 17394 bound_to 11000
  140.4970  134.6521  157.5234 LP  0  0  0  0  0  0  0  0  0  0  0  0  # atno 17395 bound_to 11000

$$$$
