AV-unprocessed.smi:2866|AV-procd|sdf|11021|dock1
  -GOLD-   2272015483D 1   1.00000     0.00000
 Structure written by MMmdl.
 42 44  0  0  0  0  0  0  0  0  2 V2000
  152.0788  144.6741  160.2419 C   0  0  0  0  0  0  0  0  0  0  0  0
  151.8090  143.4410  159.3965 C   0  0  0  0  0  0  0  0  0  0  0  0
  151.0133  143.5799  158.2368 C   0  0  0  0  0  0  0  0  0  0  0  0
  150.7847  142.4344  157.4837 C   0  0  0  0  0  0  0  0  0  0  0  0
  150.0582  142.2420  156.3064 N   0  3  0  0  0  0  0  0  0  0  0  0
  150.1222  140.9313  155.9422 C   0  0  0  0  0  0  0  0  0  0  0  0
  150.8780  140.2847  156.8706 N   0  0  0  0  0  0  0  0  0  0  0  0
  151.2621  138.8697  156.9557 C   0  0  0  0  0  0  0  0  0  0  0  0
  150.0640  137.9376  157.2200 C   0  0  2  0  0  0  0  0  0  0  0  0
  149.1570  138.0175  156.1359 O   0  0  0  0  0  0  0  0  0  0  0  0
  149.3446  138.2891  158.5360 C   0  0  0  0  0  0  0  0  0  0  0  0
  148.6014  137.1672  159.0816 N   0  0  0  0  0  0  0  0  0  0  0  0
  148.1915  136.0196  158.4388 C   0  0  0  0  0  0  0  0  0  0  0  0
  147.5232  135.2589  159.3543 C   0  0  0  0  0  0  0  0  0  0  0  0
  147.5747  136.0310  160.5511 C   0  0  0  0  0  0  0  0  0  0  0  0
  147.0033  135.6975  161.9039 C   0  0  0  0  0  0  0  0  0  0  0  0
  145.6750  135.8079  161.8852 F   0  0  0  0  0  0  0  0  0  0  0  0
  147.3253  134.4480  162.2380 F   0  0  0  0  0  0  0  0  0  0  0  0
  147.4906  136.5329  162.8214 F   0  0  0  0  0  0  0  0  0  0  0  0
  148.2231  137.1750  160.3775 N   0  0  0  0  0  0  0  0  0  0  0  0
  151.3148  141.1823  157.8498 C   0  0  0  0  0  0  0  0  0  0  0  0
  152.1018  141.0273  158.9880 C   0  0  0  0  0  0  0  0  0  0  0  0
  152.3479  142.1811  159.7662 C   0  0  0  0  0  0  0  0  0  0  0  0
  153.2064  142.0449  161.0122 C   0  0  0  0  0  0  0  0  0  0  0  0
  151.5506  145.5462  159.8555 H   0  0  0  0  0  0  0  0  0  0  0  0
  153.1441  144.9056  160.2500 H   0  0  0  0  0  0  0  0  0  0  0  0
  151.7499  144.5162  161.2692 H   0  0  0  0  0  0  0  0  0  0  0  0
  150.6016  144.5361  157.9482 H   0  0  0  0  0  0  0  0  0  0  0  0
  149.6612  140.4854  155.0725 H   0  0  0  0  0  0  0  0  0  0  0  0
  151.7766  138.5954  156.0338 H   0  0  0  0  0  0  0  0  0  0  0  0
  151.9958  138.7782  157.7580 H   0  0  0  0  0  0  0  0  0  0  0  0
  150.4178  136.9076  157.2777 H   0  0  0  0  0  0  0  0  0  0  0  0
  148.3524  137.5883  156.3863 H   0  0  0  0  0  0  0  0  0  0  0  0
  150.0716  138.6051  159.2851 H   0  0  0  0  0  0  0  0  0  0  0  0
  148.6642  139.1299  158.3902 H   0  0  0  0  0  0  0  0  0  0  0  0
  148.4071  135.8416  157.3955 H   0  0  0  0  0  0  0  0  0  0  0  0
  147.0663  134.2936  159.1942 H   0  0  0  0  0  0  0  0  0  0  0  0
  152.5107  140.0678  159.2682 H   0  0  0  0  0  0  0  0  0  0  0  0
  153.5702  141.0245  161.1368 H   0  0  0  0  0  0  0  0  0  0  0  0
  152.6328  142.3051  161.9022 H   0  0  0  0  0  0  0  0  0  0  0  0
  154.0744  142.7020  160.9538 H   0  0  0  0  0  0  0  0  0  0  0  0
  149.5566  142.9507  155.7862 H   0  0  0  0  0  0  0  0  0  0  0  0
  1  2  1  0  0  0  0
  1 25  1  0  0  0  0
  1 26  1  0  0  0  0
  1 27  1  0  0  0  0
  2 23  1  0  0  0  0
  2  3  2  0  0  0  0
  3  4  1  0  0  0  0
  3 28  1  0  0  0  0
  4 21  2  0  0  0  0
  4  5  1  0  0  0  0
  5  6  2  0  0  0  0
  5 42  1  0  0  0  0
  6  7  1  0  0  0  0
  6 29  1  0  0  0  0
  7  8  1  0  0  0  0
  7 21  1  0  0  0  0
  8  9  1  0  0  0  0
  8 30  1  0  0  0  0
  8 31  1  0  0  0  0
  9 10  1  0  0  0  0
  9 11  1  0  0  0  0
  9 32  1  0  0  0  0
 10 33  1  0  0  0  0
 11 12  1  0  0  0  0
 11 34  1  0  0  0  0
 11 35  1  0  0  0  0
 12 20  1  0  0  0  0
 12 13  1  0  0  0  0
 13 14  2  0  0  0  0
 13 36  1  0  0  0  0
 14 15  1  0  0  0  0
 14 37  1  0  0  0  0
 15 16  1  0  0  0  0
 15 20  2  0  0  0  0
 16 17  1  0  0  0  0
 16 18  1  0  0  0  0
 16 19  1  0  0  0  0
 21 22  1  0  0  0  0
 22 23  2  0  0  0  0
 22 38  1  0  0  0  0
 23 24  1  0  0  0  0
 24 39  1  0  0  0  0
 24 40  1  0  0  0  0
 24 41  1  0  0  0  0
M  CHG  1   5   1
M  END
> <s_m_source_file>
AV-unprocessed.smi

> <i_m_source_file_index>
2866

> <i_lp_mmshare_version>
43012

> <i_f3d_flags>
0

> <s_epik_input>
W0NIM11jKFtjSF0xKWMoW0NIM10pW2NIXWMoYzEyKW4oW2NIXW4yKVtDSDJdW0NASF0oW09IXSlbQ0gyXW4zW2NIXVtjSF1jKG4zKUMoRikoRilG

> <s_epik_cmdline>
J2VwaWtfcHl0aG9uJywgJy1waCcsICc3LjAnLCAnLXRuJywgJzgnLCAnLW1hJywgJzIwMCcsICctbWV0YWxfYmluZGluZycsICctaW1hZScsICc8aW5maWxlLm1hZT4nLCAnLW9tYWUnLCAnPG91dGZpbGUubWFlPic=

> <r_lp_tautomer_probability>
1

> <r_epik_Ionization_Penalty>
1.09214

> <r_epik_Ionization_Penalty_Charging>
1.09214

> <r_epik_Ionization_Penalty_Neutral>
2.80082e-06

> <r_epik_State_Penalty>
1.14852

> <r_epik_Charging_Adjusted_Penalty>
2.24066

> <i_epik_Tot_Q>
1

> <i_epik_Tot_abs_Q>
1

> <r_epik_Metal_State_Penalty>
1.23687

> <b_epik_Metal_Only>
0

> <s_lp_Force_Field>
OPLS_2005

> <r_lp_Energy>
15.9965

> <b_lp_Chiralities_Consistent>
1

> <s_lp_Variant>
AV-unprocessed.smi:2866-3

> <Gold.Version>
5.8.1

> <Gold.Id.Protein>
6NUR|6NUR_protein|mol2

> <Gold.PLP.Fitness>
59.4569

> <Gold.PLP.PLP>
-51.9533

> <Gold.PLP.part.hbond>
-3.0000

> <Gold.PLP.part.metal>
0.0000

> <Gold.PLP.part.buried>
-6.6971

> <Gold.PLP.part.nonpolar>
-42.6905

> <Gold.PLP.part.repulsive>
0.0817

> <Gold.PLP.ligand.clash>
0.0000

> <Gold.PLP.ligand.torsion>
0.9561

> <Gold.PLP.Chemscore.Hbond>
3.1114

> <Gold.PLP.Chemscore.CHOScore>
0.0000

> <Gold.PLP.Chemscore.Metal>
0.0000

> <Gold.Chemscore.Hbonds>
donor molecule, donor type, donor heavy atom, donor atom, acceptor molecule, acceptor atom, score
      L1  H     5    42       P1  8028  1.98
      P1  H  6931  6943       L1    20  0.72
      P1  H  6934  6947       L1    20  0.41

> <Gold.PLP.Chemscore.Internal.Correction>
0.0815

> <Gold.Rescore>
     Score         DG    S(hbond)    S(metal)    S(lipo)     H(rot)  DE(clash)    DE(int)     intcor
     18.51     -19.10       2.28        0.00     105.76       2.48       0.10       0.49       ----

> <Gold.Chemscore.Fitness>
18.5126

> <Gold.Chemscore.DG>
-19.1013

> <Gold.Chemscore.ZeroCoef>
-5.4800

> <Gold.Chemscore.Hbond>
2.2762

> <Gold.Chemscore.Metal>
0.0000

> <Gold.Chemscore.Lipo>
105.7602

> <Gold.Chemscore.Internal_Hbond>
0.0000

> <Gold.Chemscore.DEClash>
0.1037

> <Gold.Chemscore.DEInternal>
0.4851

> <Gold.Chemscore.Rot>
2.4825

> <Gold.Chemscore.Internal.Correction>
   9.000000E+99

> <Gold.Chemscore.Hbonds>
donor molecule, donor type, donor heavy atom, donor atom, acceptor molecule, acceptor atom, score
      L1  H     5    42       P1  8028  0.94
      P1  H  6931  6943       L1    20  0.67
      P1  H  6934  6947       L1    20  0.32

> <Gold.Chemscore.Hbond.Weighted>
-7.6025

> <Gold.Chemscore.Metal.Weighted>
-0.0000

> <Gold.Chemscore.Lipo.Weighted>
-12.3739

> <Gold.Chemscore.Internal_Hbond.Weighted>
0.0000

> <Gold.Chemscore.DEClash.Weighted>
0.1037

> <Gold.Chemscore.DEInternal.Weighted>
0.4851

> <Gold.Chemscore.Rot.Weighted>
6.3551

> <Gold.Chemscore.Internal.Correction.Weighted>
   9.000000E+99

> <Gold.Protein.RotatedTorsions>
[ 6907 6896 6895 6894 ] final -103.32 input  -60.11 | X-H torsion
[ 7974 7965 7964 7962 ] final  110.06 input  175.53 | X-H torsion
[ 8008 7997 7996 7995 ] final   37.56 input   59.86 | X-H torsion
[ 10167 10162 10161 10158 ] final  -37.82 input  -65.29 | X-H torsion
[ 10718 10713 10712 10709 ] final   54.30 input   66.30 | X-H torsion
[ 10763 10752 10751 10750 ] final   86.24 input  -60.55 | X-H torsion
[ 11005 11000 10999 10996 ] final  134.78 input  -57.11 | X-H torsion

> <Gold.Protein.ActiveResidues>
 VAL166  LYS551  ARG553  GLY616  TRP617  ASP618  TYR619  PRO620  LYS621  CYS622 
 ASP623  PHE694  ASN695  SER759  ASP760  ASP761  ALA762  ILE779  LEU786  VAL792 
 PHE793  MET794  SER795  GLU796  ALA797  LYS798  CYS799  TRP800  GLU811  SER814 

> <Gold.Protein.RotatedAtoms>
  150.7235  134.0446  159.3777 H   0  0  0  0  0  0  0  0  0  0  0  0  # atno 6907 bound_to 6896
  151.8421  135.0584  160.0458 H   0  0  0  0  0  0  0  0  0  0  0  0  # atno 6908 bound_to 6896
  152.2854  133.5474  159.5560 H   0  0  0  0  0  0  0  0  0  0  0  0  # atno 6909 bound_to 6896
  145.2598  139.2706  143.4023 H   0  0  0  0  0  0  0  0  0  0  0  0  # atno 7974 bound_to 7965
  155.2058  140.3319  155.4336 H   0  0  0  0  0  0  0  0  0  0  0  0  # atno 8008 bound_to 7997
  156.2389  140.1885  156.7092 H   0  0  0  0  0  0  0  0  0  0  0  0  # atno 8009 bound_to 7997
  154.6110  140.0609  156.9480 H   0  0  0  0  0  0  0  0  0  0  0  0  # atno 8010 bound_to 7997
  140.7108  143.3317  151.2554 H   0  0  0  0  0  0  0  0  0  0  0  0  # atno 10167 bound_to 10162
  157.5244  130.8587  149.8602 H   0  0  0  0  0  0  0  0  0  0  0  0  # atno 10718 bound_to 10713
  153.1551  135.4587  154.9693 H   0  0  0  0  0  0  0  0  0  0  0  0  # atno 10763 bound_to 10752
  154.7855  135.3202  154.7898 H   0  0  0  0  0  0  0  0  0  0  0  0  # atno 10764 bound_to 10752
  153.8396  135.6931  153.4859 H   0  0  0  0  0  0  0  0  0  0  0  0  # atno 10765 bound_to 10752
  139.9937  134.9505  156.9915 H   0  0  0  0  0  0  0  0  0  0  0  0  # atno 11005 bound_to 11000
  146.3278  140.3012  142.8621 LP  0  0  0  0  0  0  0  0  0  0  0  0  # atno 17320 bound_to 7965
  144.9428  140.8096  143.5620 LP  0  0  0  0  0  0  0  0  0  0  0  0  # atno 17321 bound_to 7965
  139.6801  143.9870  152.2803 LP  0  0  0  0  0  0  0  0  0  0  0  0  # atno 17342 bound_to 10162
  139.9497  144.6629  150.8184 LP  0  0  0  0  0  0  0  0  0  0  0  0  # atno 17343 bound_to 10162
  156.0377  130.3747  150.1518 LP  0  0  0  0  0  0  0  0  0  0  0  0  # atno 17370 bound_to 10713
  156.9705  130.9833  151.3460 LP  0  0  0  0  0  0  0  0  0  0  0  0  # atno 17371 bound_to 10713
  140.4859  134.1242  155.7224 LP  0  0  0  0  0  0  0  0  0  0  0  0  # atno 17394 bound_to 11000
  141.1587  133.8834  157.1907 LP  0  0  0  0  0  0  0  0  0  0  0  0  # atno 17395 bound_to 11000

$$$$
