AV-unprocessed.smi:1753|AV-procd|sdf|7062|dock2
  -GOLD-   22720 8283D 1   1.00000     0.00000
 Structure written by MMmdl.
 37 38  0  0  0  0  0  0  0  0  1 V2000
  145.8669  129.4480  152.3467 C   0  0  0  0  0  0  0  0  0  0  0  0
  146.3606  130.8644  152.3226 C   0  0  0  0  0  0  0  0  0  0  0  0
  147.3635  131.4585  153.1428 C   0  0  0  0  0  0  0  0  0  0  0  0
  147.3982  132.7486  152.6886 C   0  0  0  0  0  0  0  0  0  0  0  0
  148.1741  133.7828  153.1089 N   0  0  0  0  0  0  0  0  0  0  0  0
  148.8836  133.8935  154.2454 C   0  0  0  0  0  0  0  0  0  0  0  0
  148.9624  133.0367  155.1259 O   0  0  0  0  0  0  0  0  0  0  0  0
  149.5088  135.0775  154.3114 N   0  0  0  0  0  0  0  0  0  0  0  0
  150.3509  135.5203  155.4180 C   0  0  0  0  0  0  0  0  0  0  0  0
  150.4297  137.0570  155.5217 C   0  0  2  0  0  0  0  0  0  0  0  0
  151.2359  137.7121  154.3803 C   0  0  0  0  0  0  0  0  0  0  0  0
  151.4930  139.1773  154.7434 C   0  0  0  0  0  0  0  0  0  0  0  0
  151.7130  139.2004  156.5605 S   0  0  0  0  0  0  0  0  0  0  0  0
  153.1488  139.1979  156.8792 O   0  0  0  0  0  0  0  0  0  0  0  0
  150.8101  140.2059  157.1409 O   0  0  0  0  0  0  0  0  0  0  0  0
  151.0377  137.5211  156.8552 C   0  0  0  0  0  0  0  0  0  0  0  0
  146.4776  132.8883  151.6740 N   0  0  0  0  0  0  0  0  0  0  0  0
  146.1465  134.0595  150.8861 C   0  0  0  0  0  0  0  0  0  0  0  0
  145.8378  131.7200  151.4512 N   0  0  0  0  0  0  0  0  0  0  0  0
  146.3555  128.8739  153.1342 H   0  0  0  0  0  0  0  0  0  0  0  0
  146.0661  128.9471  151.3992 H   0  0  0  0  0  0  0  0  0  0  0  0
  144.7923  129.4091  152.5267 H   0  0  0  0  0  0  0  0  0  0  0  0
  147.9454  130.9966  153.9260 H   0  0  0  0  0  0  0  0  0  0  0  0
  148.2135  134.5720  152.4809 H   0  0  0  0  0  0  0  0  0  0  0  0
  149.3930  135.7215  153.5426 H   0  0  0  0  0  0  0  0  0  0  0  0
  149.9810  135.0969  156.3534 H   0  0  0  0  0  0  0  0  0  0  0  0
  151.3476  135.1050  155.2669 H   0  0  0  0  0  0  0  0  0  0  0  0
  149.4181  137.4633  155.4749 H   0  0  0  0  0  0  0  0  0  0  0  0
  152.1935  137.2000  154.2775 H   0  0  0  0  0  0  0  0  0  0  0  0
  150.7247  137.6297  153.4206 H   0  0  0  0  0  0  0  0  0  0  0  0
  152.3699  139.5959  154.2493 H   0  0  0  0  0  0  0  0  0  0  0  0
  150.6262  139.7926  154.5009 H   0  0  0  0  0  0  0  0  0  0  0  0
  150.3090  137.5470  157.6655 H   0  0  0  0  0  0  0  0  0  0  0  0
  151.8667  136.8801  157.1565 H   0  0  0  0  0  0  0  0  0  0  0  0
  147.0466  134.4447  150.4059 H   0  0  0  0  0  0  0  0  0  0  0  0
  145.7297  134.8305  151.5346 H   0  0  0  0  0  0  0  0  0  0  0  0
  145.4148  133.8104  150.1159 H   0  0  0  0  0  0  0  0  0  0  0  0
  1  2  1  0  0  0  0
  1 20  1  0  0  0  0
  1 21  1  0  0  0  0
  1 22  1  0  0  0  0
  2 19  2  0  0  0  0
  2  3  1  0  0  0  0
  3  4  2  0  0  0  0
  3 23  1  0  0  0  0
  4  5  1  0  0  0  0
  4 17  1  0  0  0  0
  5  6  1  0  0  0  0
  5 24  1  0  0  0  0
  6  7  2  0  0  0  0
  6  8  1  0  0  0  0
  8  9  1  0  0  0  0
  8 25  1  0  0  0  0
  9 10  1  0  0  0  0
  9 26  1  0  0  0  0
  9 27  1  0  0  0  0
 10 16  1  0  0  0  0
 10 11  1  0  0  0  0
 10 28  1  0  0  0  0
 11 12  1  0  0  0  0
 11 29  1  0  0  0  0
 11 30  1  0  0  0  0
 12 13  1  0  0  0  0
 12 31  1  0  0  0  0
 12 32  1  0  0  0  0
 13 14  2  0  0  0  0
 13 15  2  0  0  0  0
 13 16  1  0  0  0  0
 16 33  1  0  0  0  0
 16 34  1  0  0  0  0
 17 18  1  0  0  0  0
 17 19  1  0  0  0  0
 18 35  1  0  0  0  0
 18 36  1  0  0  0  0
 18 37  1  0  0  0  0
M  END
> <s_m_source_file>
AV-unprocessed.smi

> <i_m_source_file_index>
1753

> <i_lp_mmshare_version>
43012

> <i_f3d_flags>
0

> <s_epik_input>
W0NIM11jMVtjSF1jKG4objEpW0NIM10pW05IXUMoPU8pW05IXVtDSDJdW0NAQEhdKFtDSDJdMilbQ0gyXVtDSDJdUzIoPU8pPU8=

> <s_epik_cmdline>
J2VwaWtfcHl0aG9uJywgJy1waCcsICc3LjAnLCAnLXRuJywgJzgnLCAnLW1hJywgJzIwMCcsICctbWV0YWxfYmluZGluZycsICctaW1hZScsICc8aW5maWxlLm1hZT4nLCAnLW9tYWUnLCAnPG91dGZpbGUubWFlPic=

> <r_lp_tautomer_probability>
1

> <r_epik_Ionization_Penalty>
9.06651e-05

> <r_epik_Ionization_Penalty_Charging>
0

> <r_epik_Ionization_Penalty_Neutral>
9.06651e-05

> <r_epik_State_Penalty>
-0

> <r_epik_Charging_Adjusted_Penalty>
0

> <i_epik_Tot_Q>
0

> <i_epik_Tot_abs_Q>
0

> <r_epik_Metal_State_Penalty>
-0

> <b_epik_Metal_Only>
0

> <s_lp_Force_Field>
OPLS_2005

> <r_lp_Energy>
5.34898

> <b_lp_Chiralities_Consistent>
1

> <s_lp_Variant>
AV-unprocessed.smi:1753-1

> <Gold.Version>
5.8.1

> <Gold.Id.Protein>
6NUR|6NUR_protein|mol2

> <Gold.PLP.Fitness>
39.9555

> <Gold.PLP.PLP>
-31.5525

> <Gold.PLP.part.hbond>
-2.8042

> <Gold.PLP.part.metal>
0.0000

> <Gold.PLP.part.buried>
-4.0413

> <Gold.PLP.part.nonpolar>
-24.7595

> <Gold.PLP.part.repulsive>
0.1761

> <Gold.PLP.ligand.clash>
0.0000

> <Gold.PLP.ligand.torsion>
0.3009

> <Gold.PLP.Chemscore.Hbond>
3.0000

> <Gold.PLP.Chemscore.CHOScore>
0.0000

> <Gold.PLP.Chemscore.Metal>
0.0000

> <Gold.Chemscore.Hbonds>
donor molecule, donor type, donor heavy atom, donor atom, acceptor molecule, acceptor atom, score
      L1  H     5    24       P1  7948  1.00
      L1  H     8    25       P1  7948  1.00
      P1  H  7997  8008       L1    14  1.00

> <Gold.PLP.Chemscore.Internal.Correction>
0.0047

> <Gold.Rescore>
     Score         DG    S(hbond)    S(metal)    S(lipo)     H(rot)  DE(clash)    DE(int)     intcor
     15.04     -16.35       2.47        0.00      51.02       1.31       0.00       1.31       ----

> <Gold.Chemscore.Fitness>
15.0353

> <Gold.Chemscore.DG>
-16.3518

> <Gold.Chemscore.ZeroCoef>
-5.4800

> <Gold.Chemscore.Hbond>
2.4702

> <Gold.Chemscore.Metal>
0.0000

> <Gold.Chemscore.Lipo>
51.0241

> <Gold.Chemscore.Internal_Hbond>
0.0000

> <Gold.Chemscore.DEClash>
0.0030

> <Gold.Chemscore.DEInternal>
1.3135

> <Gold.Chemscore.Rot>
1.3080

> <Gold.Chemscore.Internal.Correction>
   9.000000E+99

> <Gold.Chemscore.Hbonds>
donor molecule, donor type, donor heavy atom, donor atom, acceptor molecule, acceptor atom, score
      L1  H     5    24       P1  7948  0.29
      L1  H     8    25       P1  7948  0.39
      P1  H  7997  8008       L1    14  0.95

> <Gold.Chemscore.Hbond.Weighted>
-8.2505

> <Gold.Chemscore.Metal.Weighted>
-0.0000

> <Gold.Chemscore.Lipo.Weighted>
-5.9698

> <Gold.Chemscore.Internal_Hbond.Weighted>
0.0000

> <Gold.Chemscore.DEClash.Weighted>
0.0030

> <Gold.Chemscore.DEInternal.Weighted>
1.3135

> <Gold.Chemscore.Rot.Weighted>
3.3485

> <Gold.Chemscore.Internal.Correction.Weighted>
   9.000000E+99

> <Gold.Protein.RotatedTorsions>
[ 6907 6896 6895 6894 ] final -158.16 input  -60.11 | X-H torsion
[ 7974 7965 7964 7962 ] final  -62.93 input  175.53 | X-H torsion
[ 8008 7997 7996 7995 ] final  -50.60 input   59.86 | X-H torsion
[ 10167 10162 10161 10158 ] final  118.90 input  -65.29 | X-H torsion
[ 10718 10713 10712 10709 ] final  -70.40 input   66.30 | X-H torsion
[ 10763 10752 10751 10750 ] final  120.60 input  -60.55 | X-H torsion
[ 11005 11000 10999 10996 ] final   80.81 input  -57.11 | X-H torsion

> <Gold.Protein.ActiveResidues>
 VAL166  LYS551  ARG553  GLY616  TRP617  ASP618  TYR619  PRO620  LYS621  CYS622 
 ASP623  PHE694  ASN695  SER759  ASP760  ASP761  ALA762  ILE779  LEU786  VAL792 
 PHE793  MET794  SER795  GLU796  ALA797  LYS798  CYS799  TRP800  GLU811  SER814 

> <Gold.Protein.RotatedAtoms>
  151.3140  133.4068  159.2648 H   0  0  0  0  0  0  0  0  0  0  0  0  # atno 6907 bound_to 6896
  151.0090  134.9383  159.8007 H   0  0  0  0  0  0  0  0  0  0  0  0  # atno 6908 bound_to 6896
  152.5296  134.3104  159.9164 H   0  0  0  0  0  0  0  0  0  0  0  0  # atno 6909 bound_to 6896
  145.7853  140.8740  143.0309 H   0  0  0  0  0  0  0  0  0  0  0  0  # atno 7974 bound_to 7965
  154.4065  140.1268  156.4692 H   0  0  0  0  0  0  0  0  0  0  0  0  # atno 8008 bound_to 7997
  155.7196  140.3493  155.4990 H   0  0  0  0  0  0  0  0  0  0  0  0  # atno 8009 bound_to 7997
  155.9226  140.1055  157.1185 H   0  0  0  0  0  0  0  0  0  0  0  0  # atno 8010 bound_to 7997
  139.6081  144.7075  151.2906 H   0  0  0  0  0  0  0  0  0  0  0  0  # atno 10167 bound_to 10162
  156.0410  130.4331  150.2290 H   0  0  0  0  0  0  0  0  0  0  0  0  # atno 10718 bound_to 10713
  153.6010  135.3448  155.2945 H   0  0  0  0  0  0  0  0  0  0  0  0  # atno 10763 bound_to 10752
  154.8636  135.4227  154.2413 H   0  0  0  0  0  0  0  0  0  0  0  0  # atno 10764 bound_to 10752
  153.3241  135.7040  153.7076 H   0  0  0  0  0  0  0  0  0  0  0  0  # atno 10765 bound_to 10752
  139.9121  134.7949  156.1958 H   0  0  0  0  0  0  0  0  0  0  0  0  # atno 11005 bound_to 11000
  144.6790  140.0046  143.7484 LP  0  0  0  0  0  0  0  0  0  0  0  0  # atno 17320 bound_to 7965
  146.0033  139.3109  143.0915 LP  0  0  0  0  0  0  0  0  0  0  0  0  # atno 17321 bound_to 7965
  140.7299  143.6893  150.7935 LP  0  0  0  0  0  0  0  0  0  0  0  0  # atno 17342 bound_to 10162
  140.0483  143.5276  152.2686 LP  0  0  0  0  0  0  0  0  0  0  0  0  # atno 17343 bound_to 10162
  157.0385  131.0028  151.3291 LP  0  0  0  0  0  0  0  0  0  0  0  0  # atno 17370 bound_to 10713
  157.5227  130.8008  149.7827 LP  0  0  0  0  0  0  0  0  0  0  0  0  # atno 17371 bound_to 10713
  141.0555  133.6867  156.1853 LP  0  0  0  0  0  0  0  0  0  0  0  0  # atno 17394 bound_to 11000
  140.6743  134.4834  157.5588 LP  0  0  0  0  0  0  0  0  0  0  0  0  # atno 17395 bound_to 11000

$$$$
