AV-unprocessed.smi:2032|AV-procd|sdf|8239|dock3
  -GOLD-   2272010513D 1   1.00000     0.00000
 Structure written by MMmdl.
 43 44  0  0  0  0  0  0  0  0  2 V2000
  151.5545  138.1819  154.6308 C   0  0  0  0  0  0  0  0  0  0  0  0
  150.3705  139.0845  154.9954 C   0  0  2  0  0  0  0  0  0  0  0  0
  149.1530  138.8331  154.0899 C   0  0  0  0  0  0  0  0  0  0  0  0
  148.0409  139.7619  154.4231 N   0  3  2  0  0  0  0  0  0  0  0  0
  146.7787  139.4342  153.6808 C   0  0  1  0  0  0  0  0  0  0  0  0
  147.0487  139.4652  152.1594 C   0  0  0  0  0  0  0  0  0  0  0  0
  146.1345  138.0835  154.1010 C   0  0  0  0  0  0  0  0  0  0  0  0
  146.4784  136.9821  153.2040 N   0  0  0  0  0  0  0  0  0  0  0  0
  145.5992  136.1981  152.5622 C   0  0  0  0  0  0  0  0  0  0  0  0
  144.3789  136.3124  152.6776 O   0  0  0  0  0  0  0  0  0  0  0  0
  146.2260  135.2864  151.7983 N   0  0  0  0  0  0  0  0  0  0  0  0
  145.6476  134.2692  150.9941 C   0  0  0  0  0  0  0  0  0  0  0  0
  144.3605  134.2357  150.6301 N   0  0  0  0  0  0  0  0  0  0  0  0
  144.0664  133.1183  149.8444 C   0  0  0  0  0  0  0  0  0  0  0  0
  145.1494  132.3056  149.6191 C   0  0  0  0  0  0  0  0  0  0  0  0
  146.5902  132.9153  150.3884 S   0  0  0  0  0  0  0  0  0  0  0  0
  148.5240  141.1657  154.3097 C   0  0  0  0  0  0  0  0  0  0  0  0
  149.7906  141.4035  155.1576 C   0  0  1  0  0  0  0  0  0  0  0  0
  149.5112  141.4878  156.6691 C   0  0  0  0  0  0  0  0  0  0  0  0
  150.7908  140.4361  154.8477 O   0  0  0  0  0  0  0  0  0  0  0  0
  151.2918  137.1285  154.7331 H   0  0  0  0  0  0  0  0  0  0  0  0
  152.4070  138.3751  155.2825 H   0  0  0  0  0  0  0  0  0  0  0  0
  151.8773  138.3481  153.6027 H   0  0  0  0  0  0  0  0  0  0  0  0
  150.1047  138.8874  156.0339 H   0  0  0  0  0  0  0  0  0  0  0  0
  149.4322  138.9639  153.0428 H   0  0  0  0  0  0  0  0  0  0  0  0
  148.8437  137.7955  154.2024 H   0  0  0  0  0  0  0  0  0  0  0  0
  146.0501  140.2131  153.9129 H   0  0  0  0  0  0  0  0  0  0  0  0
  146.1318  139.3430  151.5836 H   0  0  0  0  0  0  0  0  0  0  0  0
  147.7304  138.6657  151.8670 H   0  0  0  0  0  0  0  0  0  0  0  0
  147.4852  140.4050  151.8266 H   0  0  0  0  0  0  0  0  0  0  0  0
  146.3973  137.8398  155.1321 H   0  0  0  0  0  0  0  0  0  0  0  0
  145.0475  138.1521  154.0653 H   0  0  0  0  0  0  0  0  0  0  0  0
  147.4618  136.8141  153.0489 H   0  0  0  0  0  0  0  0  0  0  0  0
  147.2347  135.3180  151.7951 H   0  0  0  0  0  0  0  0  0  0  0  0
  143.0567  132.9786  149.4878 H   0  0  0  0  0  0  0  0  0  0  0  0
  145.1866  131.3889  149.0496 H   0  0  0  0  0  0  0  0  0  0  0  0
  148.7364  141.3846  153.2619 H   0  0  0  0  0  0  0  0  0  0  0  0
  147.7661  141.8749  154.6407 H   0  0  0  0  0  0  0  0  0  0  0  0
  150.2073  142.3675  154.8638 H   0  0  0  0  0  0  0  0  0  0  0  0
  148.8548  142.3285  156.8947 H   0  0  0  0  0  0  0  0  0  0  0  0
  150.4360  141.6354  157.2271 H   0  0  0  0  0  0  0  0  0  0  0  0
  149.0279  140.5897  157.0525 H   0  0  0  0  0  0  0  0  0  0  0  0
  147.8279  139.6274  155.4013 H   0  0  0  0  0  0  0  0  0  0  0  0
  1  2  1  0  0  0  0
  1 21  1  0  0  0  0
  1 22  1  0  0  0  0
  1 23  1  0  0  0  0
  2 20  1  0  0  0  0
  2  3  1  0  0  0  0
  2 24  1  0  0  0  0
  3  4  1  0  0  0  0
  3 25  1  0  0  0  0
  3 26  1  0  0  0  0
  4  5  1  0  0  0  0
  4 17  1  0  0  0  0
  4 43  1  0  0  0  0
  5  6  1  0  0  0  0
  5  7  1  0  0  0  0
  5 27  1  0  0  0  0
  6 28  1  0  0  0  0
  6 29  1  0  0  0  0
  6 30  1  0  0  0  0
  7  8  1  0  0  0  0
  7 31  1  0  0  0  0
  7 32  1  0  0  0  0
  8  9  1  0  0  0  0
  8 33  1  0  0  0  0
  9 10  2  0  0  0  0
  9 11  1  0  0  0  0
 11 12  1  0  0  0  0
 11 34  1  0  0  0  0
 12 16  1  0  0  0  0
 12 13  2  0  0  0  0
 13 14  1  0  0  0  0
 14 15  2  0  0  0  0
 14 35  1  0  0  0  0
 15 16  1  0  0  0  0
 15 36  1  0  0  0  0
 17 18  1  0  0  0  0
 17 37  1  0  0  0  0
 17 38  1  0  0  0  0
 18 19  1  0  0  0  0
 18 20  1  0  0  0  0
 18 39  1  0  0  0  0
 19 40  1  0  0  0  0
 19 41  1  0  0  0  0
 19 42  1  0  0  0  0
M  CHG  1   4   1
M  END
> <s_m_source_file>
AV-unprocessed.smi

> <i_m_source_file_index>
2032

> <i_lp_mmshare_version>
43012

> <i_f3d_flags>
0

> <s_epik_input>
W0NIM11bQ0BASF0xW0NIMl1OKFtDSDJdW0NASF0oTzEpW0NIM10pW0NASF0oW0NIM10pW0NIMl1bTkhdQyg9TylbTkhdYzJuW2NIXVtjSF1zMg==

> <s_epik_cmdline>
J2VwaWtfcHl0aG9uJywgJy1waCcsICc3LjAnLCAnLXRuJywgJzgnLCAnLW1hJywgJzIwMCcsICctbWV0YWxfYmluZGluZycsICctaW1hZScsICc8aW5maWxlLm1hZT4nLCAnLW9tYWUnLCAnPG91dGZpbGUubWFlPic=

> <r_lp_tautomer_probability>
0.999

> <r_epik_Ionization_Penalty>
0.695838

> <r_epik_Ionization_Penalty_Charging>
0.695697

> <r_epik_Ionization_Penalty_Neutral>
0.000141198

> <r_epik_State_Penalty>
0.717972

> <r_epik_Charging_Adjusted_Penalty>
1.41367

> <i_epik_Tot_Q>
1

> <i_epik_Tot_abs_Q>
1

> <r_epik_Metal_State_Penalty>
0.756405

> <b_epik_Metal_Only>
0

> <s_lp_Force_Field>
OPLS_2005

> <r_lp_Energy>
21.3106

> <b_lp_Chiralities_Consistent>
1

> <s_lp_Variant>
AV-unprocessed.smi:2032-9

> <Gold.Version>
5.8.1

> <Gold.Id.Protein>
6NUR|6NUR_protein|mol2

> <Gold.PLP.Fitness>
45.6448

> <Gold.PLP.PLP>
-34.8963

> <Gold.PLP.part.hbond>
-3.0000

> <Gold.PLP.part.metal>
0.0000

> <Gold.PLP.part.buried>
-1.3191

> <Gold.PLP.part.nonpolar>
-30.9358

> <Gold.PLP.part.repulsive>
0.4760

> <Gold.PLP.ligand.clash>
0.0000

> <Gold.PLP.ligand.torsion>
0.6358

> <Gold.PLP.Chemscore.Hbond>
2.9920

> <Gold.PLP.Chemscore.CHOScore>
1.0000

> <Gold.PLP.Chemscore.Metal>
0.0000

> <Gold.Chemscore.Hbonds>
donor molecule, donor type, donor heavy atom, donor atom, acceptor molecule, acceptor atom, score
      L1  H     8    33       P1  7948  0.99
      L1  H    11    34       P1  7948  1.00
      P1  H  7989  7998       L1    20  1.00
      L1  C    14    35       P1 10186  1.00

> <Gold.PLP.Chemscore.Internal.Correction>
0.0440

> <Gold.Rescore>
     Score         DG    S(hbond)    S(metal)    S(lipo)     H(rot)  DE(clash)    DE(int)     intcor
     18.92     -21.36       2.79        0.00      91.31       1.61       0.57       1.86       ----

> <Gold.Chemscore.Fitness>
18.9241

> <Gold.Chemscore.DG>
-21.3600

> <Gold.Chemscore.ZeroCoef>
-5.4800

> <Gold.Chemscore.Hbond>
2.7906

> <Gold.Chemscore.Metal>
0.0000

> <Gold.Chemscore.Lipo>
91.3122

> <Gold.Chemscore.Internal_Hbond>
0.0000

> <Gold.Chemscore.DEClash>
0.5709

> <Gold.Chemscore.DEInternal>
1.8650

> <Gold.Chemscore.Rot>
1.6110

> <Gold.Chemscore.Internal.Correction>
   9.000000E+99

> <Gold.Chemscore.Hbonds>
donor molecule, donor type, donor heavy atom, donor atom, acceptor molecule, acceptor atom, score
      L1  H     8    33       P1  7948  0.91
      L1  H    11    34       P1  7948  0.96
      P1  H  7989  7998       L1    20  0.71

> <Gold.Chemscore.Hbond.Weighted>
-9.3206

> <Gold.Chemscore.Metal.Weighted>
-0.0000

> <Gold.Chemscore.Lipo.Weighted>
-10.6835

> <Gold.Chemscore.Internal_Hbond.Weighted>
0.0000

> <Gold.Chemscore.DEClash.Weighted>
0.5709

> <Gold.Chemscore.DEInternal.Weighted>
1.8650

> <Gold.Chemscore.Rot.Weighted>
4.1242

> <Gold.Chemscore.Internal.Correction.Weighted>
   9.000000E+99

> <Gold.Protein.RotatedTorsions>
[ 6907 6896 6895 6894 ] final  -74.90 input  -60.11 | X-H torsion
[ 7974 7965 7964 7962 ] final -169.69 input  175.53 | X-H torsion
[ 8008 7997 7996 7995 ] final  162.70 input   59.86 | X-H torsion
[ 10167 10162 10161 10158 ] final -149.36 input  -65.29 | X-H torsion
[ 10718 10713 10712 10709 ] final  161.74 input   66.30 | X-H torsion
[ 10763 10752 10751 10750 ] final -146.13 input  -60.55 | X-H torsion
[ 11005 11000 10999 10996 ] final -141.03 input  -57.11 | X-H torsion

> <Gold.Protein.ActiveResidues>
 VAL166  LYS551  ARG553  GLY616  TRP617  ASP618  TYR619  PRO620  LYS621  CYS622 
 ASP623  PHE694  ASN695  SER759  ASP760  ASP761  ALA762  ILE779  LEU786  VAL792 
 PHE793  MET794  SER795  GLU796  ALA797  LYS798  CYS799  TRP800  GLU811  SER814 

> <Gold.Protein.RotatedAtoms>
  150.7077  134.4801  159.5465 H   0  0  0  0  0  0  0  0  0  0  0  0  # atno 6907 bound_to 6896
  152.2440  134.8197  160.0465 H   0  0  0  0  0  0  0  0  0  0  0  0  # atno 6908 bound_to 6896
  151.8969  133.3494  159.3854 H   0  0  0  0  0  0  0  0  0  0  0  0  # atno 6909 bound_to 6896
  144.7181  140.2183  143.6319 H   0  0  0  0  0  0  0  0  0  0  0  0  # atno 7974 bound_to 7965
  156.2012  140.1743  156.7895 H   0  0  0  0  0  0  0  0  0  0  0  0  # atno 8008 bound_to 7997
  154.5594  140.0702  156.8826 H   0  0  0  0  0  0  0  0  0  0  0  0  # atno 8009 bound_to 7997
  155.2876  140.3353  155.4257 H   0  0  0  0  0  0  0  0  0  0  0  0  # atno 8010 bound_to 7997
  139.7449  143.8605  152.2572 H   0  0  0  0  0  0  0  0  0  0  0  0  # atno 10167 bound_to 10162
  157.1323  131.0520  151.2365 H   0  0  0  0  0  0  0  0  0  0  0  0  # atno 10718 bound_to 10713
  154.8351  135.3394  154.6613 H   0  0  0  0  0  0  0  0  0  0  0  0  # atno 10763 bound_to 10752
  153.7229  135.6957  153.5013 H   0  0  0  0  0  0  0  0  0  0  0  0  # atno 10764 bound_to 10752
  153.2368  135.4398  155.0608 H   0  0  0  0  0  0  0  0  0  0  0  0  # atno 10765 bound_to 10752
  140.8364  134.2455  157.4832 H   0  0  0  0  0  0  0  0  0  0  0  0  # atno 11005 bound_to 11000
  145.8525  139.2182  143.1763 LP  0  0  0  0  0  0  0  0  0  0  0  0  # atno 17320 bound_to 7965
  146.0247  140.8315  142.9905 LP  0  0  0  0  0  0  0  0  0  0  0  0  # atno 17321 bound_to 7965
  139.8566  144.7138  150.9149 LP  0  0  0  0  0  0  0  0  0  0  0  0  # atno 17342 bound_to 10162
  140.7791  143.3853  151.1405 LP  0  0  0  0  0  0  0  0  0  0  0  0  # atno 17343 bound_to 10162
  157.4381  130.7528  149.7046 LP  0  0  0  0  0  0  0  0  0  0  0  0  # atno 17370 bound_to 10713
  155.9805  130.4028  150.3523 LP  0  0  0  0  0  0  0  0  0  0  0  0  # atno 17371 bound_to 10713
  139.8704  134.9613  156.4391 LP  0  0  0  0  0  0  0  0  0  0  0  0  # atno 17394 bound_to 11000
  140.8943  133.7826  155.9607 LP  0  0  0  0  0  0  0  0  0  0  0  0  # atno 17395 bound_to 11000

$$$$
