AV-unprocessed.smi:265|AV-procd|sdf|2026|dock6
  -GOLD-   2262021233D 1   1.00000     0.00000
 Structure written by MMmdl.
 52 56  0  0  0  0  0  0  0  0  1 V2000
  144.1441  137.0797  153.9857 C   0  0  0  0  0  0  0  0  0  0  0  0
  143.8223  138.1317  155.0577 C   0  0  1  0  0  0  0  0  0  0  0  0
  143.1445  137.5370  156.1614 O   0  0  0  0  0  0  0  0  0  0  0  0
  143.5096  138.1913  157.3735 C   0  0  0  0  0  0  0  0  0  0  0  0
  144.3737  139.3787  156.9589 C   0  0  0  0  0  0  0  0  0  0  0  0
  145.0176  138.8881  155.6681 C   0  0  2  0  0  0  0  0  0  0  0  0
  145.3500  140.0087  154.8706 O   0  0  0  0  0  0  0  0  0  0  0  0
  146.2780  138.0065  155.8874 C   0  0  0  0  0  0  0  0  0  0  0  0
  147.3845  138.7011  156.5262 N   0  0  0  0  0  0  0  0  0  0  0  0
  147.7675  138.6044  157.8449 C   0  0  0  0  0  0  0  0  0  0  0  0
  148.7984  139.3310  158.1799 N   0  0  0  0  0  0  0  0  0  0  0  0
  149.1674  139.9629  156.9980 C   0  0  0  0  0  0  0  0  0  0  0  0
  150.1954  140.8822  156.6447 C   0  0  0  0  0  0  0  0  0  0  0  0
  151.1139  141.3325  157.5370 N   0  0  0  0  0  0  0  0  0  0  0  0
  151.3473  140.5295  158.7372 C   0  0  0  0  0  0  0  0  0  0  0  0
  152.6608  140.9410  159.4198 C   0  0  0  0  0  0  0  0  0  0  0  0
  152.7123  142.4519  159.6989 C   0  0  2  0  0  0  0  0  0  0  0  0
  151.7631  142.8008  160.6982 O   0  0  0  0  0  0  0  0  0  0  0  0
  151.8686  144.1532  161.1466 C   0  0  0  0  0  0  0  0  0  0  0  0
  151.9331  145.1550  159.9784 C   0  0  0  0  0  0  0  0  0  0  0  0
  151.7349  146.3500  160.1843 O   0  0  0  0  0  0  0  0  0  0  0  0
  152.2499  144.6870  158.7605 N   0  0  0  0  0  0  0  0  0  0  0  0
  152.3791  143.2710  158.4329 C   0  0  2  0  0  0  0  0  0  0  0  0
  151.0808  142.7761  157.7636 C   0  0  0  0  0  0  0  0  0  0  0  0
  150.2373  141.3063  155.3528 N   0  0  0  0  0  0  0  0  0  0  0  0
  149.3462  140.8562  154.4648 C   0  0  0  0  0  0  0  0  0  0  0  0
  148.3436  139.9960  154.6515 N   0  0  0  0  0  0  0  0  0  0  0  0
  148.2874  139.5762  155.9478 C   0  0  0  0  0  0  0  0  0  0  0  0
  153.7113  142.7039  160.0601 H   0  0  0  0  0  0  0  0  0  0  0  0
  153.1987  143.1655  157.7211 H   0  0  0  0  0  0  0  0  0  0  0  0
  144.6946  137.5221  153.1551 H   0  0  0  0  0  0  0  0  0  0  0  0
  143.2274  136.6487  153.5829 H   0  0  0  0  0  0  0  0  0  0  0  0
  144.7383  136.2598  154.3887 H   0  0  0  0  0  0  0  0  0  0  0  0
  143.1272  138.8582  154.6316 H   0  0  0  0  0  0  0  0  0  0  0  0
  142.6302  138.4976  157.9402 H   0  0  0  0  0  0  0  0  0  0  0  0
  144.0821  137.4954  157.9874 H   0  0  0  0  0  0  0  0  0  0  0  0
  143.7227  140.2308  156.7544 H   0  0  0  0  0  0  0  0  0  0  0  0
  145.0750  139.6908  157.7314 H   0  0  0  0  0  0  0  0  0  0  0  0
  144.7229  140.0733  154.1665 H   0  0  0  0  0  0  0  0  0  0  0  0
  146.0313  137.1366  156.4971 H   0  0  0  0  0  0  0  0  0  0  0  0
  146.6382  137.6152  154.9353 H   0  0  0  0  0  0  0  0  0  0  0  0
  147.2483  137.9805  158.5579 H   0  0  0  0  0  0  0  0  0  0  0  0
  150.5119  140.6601  159.4267 H   0  0  0  0  0  0  0  0  0  0  0  0
  151.3911  139.4702  158.4803 H   0  0  0  0  0  0  0  0  0  0  0  0
  152.7940  140.3822  160.3465 H   0  0  0  0  0  0  0  0  0  0  0  0
  153.4965  140.6691  158.7737 H   0  0  0  0  0  0  0  0  0  0  0  0
  151.0142  144.3842  161.7828 H   0  0  0  0  0  0  0  0  0  0  0  0
  152.7656  144.2638  161.7569 H   0  0  0  0  0  0  0  0  0  0  0  0
  152.3296  145.3471  158.0006 H   0  0  0  0  0  0  0  0  0  0  0  0
  150.9238  143.3228  156.8343 H   0  0  0  0  0  0  0  0  0  0  0  0
  150.2234  142.9999  158.4002 H   0  0  0  0  0  0  0  0  0  0  0  0
  149.4513  141.2405  153.4609 H   0  0  0  0  0  0  0  0  0  0  0  0
  1  2  1  0  0  0  0
  1 31  1  0  0  0  0
  1 32  1  0  0  0  0
  1 33  1  0  0  0  0
  2  6  1  0  0  0  0
  2  3  1  0  0  0  0
  2 34  1  0  0  0  0
  3  4  1  0  0  0  0
  4  5  1  0  0  0  0
  4 35  1  0  0  0  0
  4 36  1  0  0  0  0
  5  6  1  0  0  0  0
  5 37  1  0  0  0  0
  5 38  1  0  0  0  0
  6  7  1  0  0  0  0
  6  8  1  0  0  0  0
  7 39  1  0  0  0  0
  8  9  1  0  0  0  0
  8 40  1  0  0  0  0
  8 41  1  0  0  0  0
  9 28  1  0  0  0  0
  9 10  1  0  0  0  0
 10 11  2  0  0  0  0
 10 42  1  0  0  0  0
 11 12  1  0  0  0  0
 12 28  2  0  0  0  0
 12 13  1  0  0  0  0
 13 14  1  0  0  0  0
 13 25  2  0  0  0  0
 14 24  1  0  0  0  0
 14 15  1  0  0  0  0
 15 16  1  0  0  0  0
 15 43  1  0  0  0  0
 15 44  1  0  0  0  0
 16 17  1  0  0  0  0
 16 45  1  0  0  0  0
 16 46  1  0  0  0  0
 17 29  1  0  0  0  0
 17 23  1  0  0  0  0
 17 18  1  0  0  0  0
 18 19  1  0  0  0  0
 19 20  1  0  0  0  0
 19 47  1  0  0  0  0
 19 48  1  0  0  0  0
 20 21  2  0  0  0  0
 20 22  1  0  0  0  0
 22 23  1  0  0  0  0
 22 49  1  0  0  0  0
 23 30  1  0  0  0  0
 23 24  1  0  0  0  0
 24 50  1  0  0  0  0
 24 51  1  0  0  0  0
 25 26  1  0  0  0  0
 26 27  2  0  0  0  0
 26 52  1  0  0  0  0
 27 28  1  0  0  0  0
M  END
> <s_m_source_file>
AV-unprocessed.smi

> <i_m_source_file_index>
265

> <i_lp_mmshare_version>
43012

> <i_f3d_flags>
0

> <s_epik_input>
W0NIMl0xW0NIMl1PW0NAQEhdKFtDSDNdKVtDQEBdMShbT0hdKVtDSDJdbihbY0hdbjIpYyhjMjMpbltjSF1uYzNOKFtDSDJdW0NIMl00KVtDSDJdW0NAQEhdKFtDQEhdNDUpW05IXUMoPU8pW0NIMl1PNQ==

> <s_epik_cmdline>
J2VwaWtfcHl0aG9uJywgJy1waCcsICc3LjAnLCAnLXRuJywgJzgnLCAnLW1hJywgJzIwMCcsICctbWV0YWxfYmluZGluZycsICctaW1hZScsICc8aW5maWxlLm1hZT4nLCAnLW9tYWUnLCAnPG91dGZpbGUubWFlPic=

> <r_lp_tautomer_probability>
1

> <r_epik_Ionization_Penalty>
0.00221504

> <r_epik_Ionization_Penalty_Charging>
0

> <r_epik_Ionization_Penalty_Neutral>
0.00221504

> <r_epik_State_Penalty>
-0

> <r_epik_Charging_Adjusted_Penalty>
0

> <i_epik_Tot_Q>
0

> <i_epik_Tot_abs_Q>
0

> <r_epik_Metal_State_Penalty>
-0

> <b_epik_Metal_Only>
0

> <s_lp_Force_Field>
OPLS_2005

> <r_lp_Energy>
44.4274

> <b_lp_Chiralities_Consistent>
1

> <s_lp_Variant>
AV-unprocessed.smi:265-12

> <Gold.Version>
5.8.1

> <Gold.Id.Protein>
6NUR|6NUR_protein|mol2

> <Gold.PLP.Fitness>
41.2657

> <Gold.PLP.PLP>
-36.0222

> <Gold.PLP.part.hbond>
-5.3292

> <Gold.PLP.part.metal>
0.0000

> <Gold.PLP.part.buried>
-5.5250

> <Gold.PLP.part.nonpolar>
-26.1115

> <Gold.PLP.part.repulsive>
0.6088

> <Gold.PLP.ligand.clash>
0.0000

> <Gold.PLP.ligand.torsion>
0.5631

> <Gold.PLP.Chemscore.Hbond>
1.0000

> <Gold.PLP.Chemscore.CHOScore>
1.0000

> <Gold.PLP.Chemscore.Metal>
0.0000

> <Gold.Chemscore.Hbonds>
donor molecule, donor type, donor heavy atom, donor atom, acceptor molecule, acceptor atom, score
      L1  H     7    39       P1 10175  1.00
      L1  C    26    52       P1  7957  0.85

> <Gold.PLP.Chemscore.Internal.Correction>
0.3697

> <Gold.Rescore>
     Score         DG    S(hbond)    S(metal)    S(lipo)     H(rot)  DE(clash)    DE(int)     intcor
      8.49     -10.46       1.11        0.00      60.00       2.25       0.02       1.95       ----

> <Gold.Chemscore.Fitness>
8.4872

> <Gold.Chemscore.DG>
-10.4632

> <Gold.Chemscore.ZeroCoef>
-5.4800

> <Gold.Chemscore.Hbond>
1.1110

> <Gold.Chemscore.Metal>
0.0000

> <Gold.Chemscore.Lipo>
60.0020

> <Gold.Chemscore.Internal_Hbond>
0.0000

> <Gold.Chemscore.DEClash>
0.0211

> <Gold.Chemscore.DEInternal>
1.9548

> <Gold.Chemscore.Rot>
2.2453

> <Gold.Chemscore.Internal.Correction>
   9.000000E+99

> <Gold.Chemscore.Hbonds>
donor molecule, donor type, donor heavy atom, donor atom, acceptor molecule, acceptor atom, score
      L1  H     7    39       P1 10175  0.94

> <Gold.Chemscore.Hbond.Weighted>
-3.7109

> <Gold.Chemscore.Metal.Weighted>
-0.0000

> <Gold.Chemscore.Lipo.Weighted>
-7.0202

> <Gold.Chemscore.Internal_Hbond.Weighted>
0.0000

> <Gold.Chemscore.DEClash.Weighted>
0.0211

> <Gold.Chemscore.DEInternal.Weighted>
1.9548

> <Gold.Chemscore.Rot.Weighted>
5.7479

> <Gold.Chemscore.Internal.Correction.Weighted>
   9.000000E+99

> <Gold.Protein.RotatedTorsions>
[ 6907 6896 6895 6894 ] final  -86.38 input  -60.11 | X-H torsion
[ 7974 7965 7964 7962 ] final  -13.55 input  175.53 | X-H torsion
[ 8008 7997 7996 7995 ] final  161.63 input   59.86 | X-H torsion
[ 10167 10162 10161 10158 ] final  111.97 input  -65.29 | X-H torsion
[ 10718 10713 10712 10709 ] final  -45.80 input   66.30 | X-H torsion
[ 10763 10752 10751 10750 ] final   20.46 input  -60.55 | X-H torsion
[ 11005 11000 10999 10996 ] final  144.88 input  -57.11 | X-H torsion

> <Gold.Protein.ActiveResidues>
 VAL166  LYS551  ARG553  GLY616  TRP617  ASP618  TYR619  PRO620  LYS621  CYS622 
 ASP623  PHE694  ASN695  SER759  ASP760  ASP761  ALA762  ILE779  LEU786  VAL792 
 PHE793  MET794  SER795  GLU796  ALA797  LYS798  CYS799  TRP800  GLU811  SER814 

> <Gold.Protein.RotatedAtoms>
  150.6867  134.3059  159.4725 H   0  0  0  0  0  0  0  0  0  0  0  0  # atno 6907 bound_to 6896
  152.0950  134.9378  160.0580 H   0  0  0  0  0  0  0  0  0  0  0  0  # atno 6908 bound_to 6896
  152.0680  133.4058  159.4483 H   0  0  0  0  0  0  0  0  0  0  0  0  # atno 6909 bound_to 6896
  146.2109  140.3220  142.8391 H   0  0  0  0  0  0  0  0  0  0  0  0  # atno 7974 bound_to 7965
  156.2089  140.1772  156.7739 H   0  0  0  0  0  0  0  0  0  0  0  0  # atno 8008 bound_to 7997
  154.5694  140.0685  156.8971 H   0  0  0  0  0  0  0  0  0  0  0  0  # atno 8009 bound_to 7997
  155.2701  140.3342  155.4268 H   0  0  0  0  0  0  0  0  0  0  0  0  # atno 8010 bound_to 7997
  139.6571  144.7129  151.1937 H   0  0  0  0  0  0  0  0  0  0  0  0  # atno 10167 bound_to 10162
  156.2246  130.4168  149.8949 H   0  0  0  0  0  0  0  0  0  0  0  0  # atno 10718 bound_to 10713
  153.1075  135.6688  153.9560 H   0  0  0  0  0  0  0  0  0  0  0  0  # atno 10763 bound_to 10752
  153.9112  135.3025  155.3450 H   0  0  0  0  0  0  0  0  0  0  0  0  # atno 10764 bound_to 10752
  154.7496  135.5041  153.9342 H   0  0  0  0  0  0  0  0  0  0  0  0  # atno 10765 bound_to 10752
  140.0667  134.9174  157.1277 H   0  0  0  0  0  0  0  0  0  0  0  0  # atno 11005 bound_to 11000
  144.8913  140.7527  143.5925 LP  0  0  0  0  0  0  0  0  0  0  0  0  # atno 17320 bound_to 7965
  145.3142  139.1809  143.4622 LP  0  0  0  0  0  0  0  0  0  0  0  0  # atno 17321 bound_to 7965
  140.7564  143.6055  150.8657 LP  0  0  0  0  0  0  0  0  0  0  0  0  # atno 17342 bound_to 10162
  139.9709  143.6058  152.2974 LP  0  0  0  0  0  0  0  0  0  0  0  0  # atno 17343 bound_to 10162
  156.6584  130.8772  151.3543 LP  0  0  0  0  0  0  0  0  0  0  0  0  # atno 17370 bound_to 10713
  157.7104  130.9434  150.1071 LP  0  0  0  0  0  0  0  0  0  0  0  0  # atno 17371 bound_to 10713
  140.3688  134.2413  155.7180 LP  0  0  0  0  0  0  0  0  0  0  0  0  # atno 17394 bound_to 11000
  141.1995  133.8008  157.0530 LP  0  0  0  0  0  0  0  0  0  0  0  0  # atno 17395 bound_to 11000

$$$$
