AV-unprocessed.smi:2353|AV-procd|sdf|9380|dock4
  -GOLD-   2272013 03D 1   1.00000     0.00000
 Structure written by MMmdl.
 45 47  0  0  0  0  0  0  0  0  1 V2000
  147.4569  131.9804  160.9047 C   0  0  0  0  0  0  0  0  0  0  0  0
  147.2549  133.3987  161.3970 C   0  0  0  0  0  0  0  0  0  0  0  0
  146.3044  133.6754  162.3986 C   0  0  0  0  0  0  0  0  0  0  0  0
  146.1267  134.9943  162.8531 C   0  0  0  0  0  0  0  0  0  0  0  0
  146.8959  136.0439  162.3096 C   0  0  0  0  0  0  0  0  0  0  0  0
  146.6914  137.4609  162.8116 C   0  0  0  0  0  0  0  0  0  0  0  0
  147.8510  135.7812  161.3004 C   0  0  0  0  0  0  0  0  0  0  0  0
  148.5658  136.8540  160.8089 O   0  0  0  0  0  0  0  0  0  0  0  0
  149.2647  136.7021  159.5807 C   0  0  0  0  0  0  0  0  0  0  0  0
  149.3883  138.0817  158.9125 C   0  0  2  0  0  0  0  0  0  0  0  0
  148.0809  138.5003  158.5711 O   0  0  0  0  0  0  0  0  0  0  0  0
  150.2216  138.0192  157.6130 C   0  0  0  0  0  0  0  0  0  0  0  0
  150.2809  139.3195  156.9347 N   0  0  0  0  0  0  0  0  0  0  0  0
  150.8196  140.3315  157.7085 N   0  0  0  0  0  0  0  0  0  0  0  0
  150.9599  141.5276  157.2388 C   0  0  0  0  0  0  0  0  0  0  0  0
  151.5385  142.5752  158.0611 N   0  0  0  0  0  0  0  0  0  0  0  0
  152.3285  142.3048  159.1793 C   0  0  0  0  0  0  0  0  0  0  0  0
  152.6841  143.5318  159.6949 C   0  0  0  0  0  0  0  0  0  0  0  0
  152.1315  144.5533  158.9246 N   0  0  0  0  0  0  0  0  0  0  0  0
  151.4635  143.9107  157.9758 C   0  0  0  0  0  0  0  0  0  0  0  0
  150.5299  141.8232  155.8763 C   0  0  0  0  0  0  0  0  0  0  0  0
  150.0016  140.8284  155.1310 C   0  0  0  0  0  0  0  0  0  0  0  0
  149.8508  139.4697  155.6476 C   0  0  0  0  0  0  0  0  0  0  0  0
  149.3830  138.5443  154.9849 O   0  0  0  0  0  0  0  0  0  0  0  0
  148.0244  134.4466  160.8520 C   0  0  0  0  0  0  0  0  0  0  0  0
  146.6941  131.3093  161.3002 H   0  0  0  0  0  0  0  0  0  0  0  0
  148.4334  131.6094  161.2164 H   0  0  0  0  0  0  0  0  0  0  0  0
  147.4072  131.9454  159.8161 H   0  0  0  0  0  0  0  0  0  0  0  0
  145.7097  132.8796  162.8228 H   0  0  0  0  0  0  0  0  0  0  0  0
  145.3958  135.1968  163.6222 H   0  0  0  0  0  0  0  0  0  0  0  0
  146.3187  138.0966  162.0078 H   0  0  0  0  0  0  0  0  0  0  0  0
  147.6342  137.8757  163.1693 H   0  0  0  0  0  0  0  0  0  0  0  0
  145.9748  137.4945  163.6328 H   0  0  0  0  0  0  0  0  0  0  0  0
  150.2602  136.3146  159.8025 H   0  0  0  0  0  0  0  0  0  0  0  0
  148.7686  135.9913  158.9171 H   0  0  0  0  0  0  0  0  0  0  0  0
  149.8323  138.7869  159.6164 H   0  0  0  0  0  0  0  0  0  0  0  0
  148.1273  139.0214  157.7843 H   0  0  0  0  0  0  0  0  0  0  0  0
  151.2405  137.7002  157.8398 H   0  0  0  0  0  0  0  0  0  0  0  0
  149.8312  137.2487  156.9449 H   0  0  0  0  0  0  0  0  0  0  0  0
  152.5839  141.3215  159.5390 H   0  0  0  0  0  0  0  0  0  0  0  0
  153.2908  143.7568  160.5595 H   0  0  0  0  0  0  0  0  0  0  0  0
  150.9102  144.4244  157.2033 H   0  0  0  0  0  0  0  0  0  0  0  0
  150.6112  142.8054  155.4423 H   0  0  0  0  0  0  0  0  0  0  0  0
  149.6792  141.0409  154.1221 H   0  0  0  0  0  0  0  0  0  0  0  0
  148.7467  134.2005  160.0885 H   0  0  0  0  0  0  0  0  0  0  0  0
  1  2  1  0  0  0  0
  1 26  1  0  0  0  0
  1 27  1  0  0  0  0
  1 28  1  0  0  0  0
  2 25  1  0  0  0  0
  2  3  2  0  0  0  0
  3  4  1  0  0  0  0
  3 29  1  0  0  0  0
  4  5  2  0  0  0  0
  4 30  1  0  0  0  0
  5  6  1  0  0  0  0
  5  7  1  0  0  0  0
  6 31  1  0  0  0  0
  6 32  1  0  0  0  0
  6 33  1  0  0  0  0
  7  8  1  0  0  0  0
  7 25  2  0  0  0  0
  8  9  1  0  0  0  0
  9 10  1  0  0  0  0
  9 34  1  0  0  0  0
  9 35  1  0  0  0  0
 10 11  1  0  0  0  0
 10 12  1  0  0  0  0
 10 36  1  0  0  0  0
 11 37  1  0  0  0  0
 12 13  1  0  0  0  0
 12 38  1  0  0  0  0
 12 39  1  0  0  0  0
 13 23  1  0  0  0  0
 13 14  1  0  0  0  0
 14 15  2  0  0  0  0
 15 16  1  0  0  0  0
 15 21  1  0  0  0  0
 16 20  1  0  0  0  0
 16 17  1  0  0  0  0
 17 18  2  0  0  0  0
 17 40  1  0  0  0  0
 18 19  1  0  0  0  0
 18 41  1  0  0  0  0
 19 20  2  0  0  0  0
 20 42  1  0  0  0  0
 21 22  2  0  0  0  0
 21 43  1  0  0  0  0
 22 23  1  0  0  0  0
 22 44  1  0  0  0  0
 23 24  2  0  0  0  0
 25 45  1  0  0  0  0
M  END
> <s_m_source_file>
AV-unprocessed.smi

> <i_m_source_file_index>
2353

> <i_lp_mmshare_version>
43012

> <i_f3d_flags>
0

> <s_epik_input>
W0NIM11jMVtjSF1bY0hdYyhbQ0gzXSljKFtjSF0xKU9bQ0gyXVtDQEhdKFtPSF0pW0NIMl1uMm5jKFtjSF1bY0hdYzI9TyktbjNbY0hdW2NIXW5bY0hdMw==

> <s_epik_cmdline>
J2VwaWtfcHl0aG9uJywgJy1waCcsICc3LjAnLCAnLXRuJywgJzgnLCAnLW1hJywgJzIwMCcsICctbWV0YWxfYmluZGluZycsICctaW1hZScsICc8aW5maWxlLm1hZT4nLCAnLW9tYWUnLCAnPG91dGZpbGUubWFlPic=

> <r_lp_tautomer_probability>
1

> <r_epik_Ionization_Penalty>
0.03707

> <r_epik_Ionization_Penalty_Charging>
0.0370699

> <r_epik_Ionization_Penalty_Neutral>
1.17174e-07

> <r_epik_State_Penalty>
0.0310055

> <r_epik_Charging_Adjusted_Penalty>
0.0680754

> <i_epik_Tot_Q>
0

> <i_epik_Tot_abs_Q>
0

> <r_epik_Metal_State_Penalty>
0.0291724

> <b_epik_Metal_Only>
0

> <s_lp_Force_Field>
OPLS_2005

> <r_lp_Energy>
36.9493

> <b_lp_Chiralities_Consistent>
1

> <s_lp_Variant>
AV-unprocessed.smi:2353-1

> <Gold.Version>
5.8.1

> <Gold.Id.Protein>
6NUR|6NUR_protein|mol2

> <Gold.PLP.Fitness>
51.7313

> <Gold.PLP.PLP>
-46.8974

> <Gold.PLP.part.hbond>
-2.1526

> <Gold.PLP.part.metal>
0.0000

> <Gold.PLP.part.buried>
-5.1657

> <Gold.PLP.part.nonpolar>
-40.8853

> <Gold.PLP.part.repulsive>
0.1525

> <Gold.PLP.ligand.clash>
0.0000

> <Gold.PLP.ligand.torsion>
0.5732

> <Gold.PLP.Chemscore.Hbond>
0.9760

> <Gold.PLP.Chemscore.CHOScore>
1.0000

> <Gold.PLP.Chemscore.Metal>
0.0000

> <Gold.Chemscore.Hbonds>
donor molecule, donor type, donor heavy atom, donor atom, acceptor molecule, acceptor atom, score
      P1  H  6931  6943       L1     8  0.99
      L1  C    20    42       P1  8028  1.00

> <Gold.PLP.Chemscore.Internal.Correction>
0.0524

> <Gold.Rescore>
     Score         DG    S(hbond)    S(metal)    S(lipo)     H(rot)  DE(clash)    DE(int)     intcor
     14.67     -15.30       0.91        0.00     114.81       2.60       0.06       0.56       ----

> <Gold.Chemscore.Fitness>
14.6710

> <Gold.Chemscore.DG>
-15.2998

> <Gold.Chemscore.ZeroCoef>
-5.4800

> <Gold.Chemscore.Hbond>
0.9100

> <Gold.Chemscore.Metal>
0.0000

> <Gold.Chemscore.Lipo>
114.8095

> <Gold.Chemscore.Internal_Hbond>
0.0000

> <Gold.Chemscore.DEClash>
0.0640

> <Gold.Chemscore.DEInternal>
0.5648

> <Gold.Chemscore.Rot>
2.5986

> <Gold.Chemscore.Internal.Correction>
   9.000000E+99

> <Gold.Chemscore.Hbonds>
donor molecule, donor type, donor heavy atom, donor atom, acceptor molecule, acceptor atom, score
      P1  H  6931  6943       L1     8  0.87

> <Gold.Chemscore.Hbond.Weighted>
-3.0395

> <Gold.Chemscore.Metal.Weighted>
-0.0000

> <Gold.Chemscore.Lipo.Weighted>
-13.4327

> <Gold.Chemscore.Internal_Hbond.Weighted>
0.0000

> <Gold.Chemscore.DEClash.Weighted>
0.0640

> <Gold.Chemscore.DEInternal.Weighted>
0.5648

> <Gold.Chemscore.Rot.Weighted>
6.6524

> <Gold.Chemscore.Internal.Correction.Weighted>
   9.000000E+99

> <Gold.Protein.RotatedTorsions>
[ 6907 6896 6895 6894 ] final   60.03 input  -60.11 | X-H torsion
[ 7974 7965 7964 7962 ] final   98.76 input  175.53 | X-H torsion
[ 8008 7997 7996 7995 ] final -110.22 input   59.86 | X-H torsion
[ 10167 10162 10161 10158 ] final   82.14 input  -65.29 | X-H torsion
[ 10718 10713 10712 10709 ] final   61.14 input   66.30 | X-H torsion
[ 10763 10752 10751 10750 ] final   55.59 input  -60.55 | X-H torsion
[ 11005 11000 10999 10996 ] final -174.12 input  -57.11 | X-H torsion

> <Gold.Protein.ActiveResidues>
 VAL166  LYS551  ARG553  GLY616  TRP617  ASP618  TYR619  PRO620  LYS621  CYS622 
 ASP623  PHE694  ASN695  SER759  ASP760  ASP761  ALA762  ILE779  LEU786  VAL792 
 PHE793  MET794  SER795  GLU796  ALA797  LYS798  CYS799  TRP800  GLU811  SER814 

> <Gold.Protein.RotatedAtoms>
  152.3967  134.6353  160.0085 H   0  0  0  0  0  0  0  0  0  0  0  0  # atno 6907 bound_to 6896
  151.6570  133.3313  159.3173 H   0  0  0  0  0  0  0  0  0  0  0  0  # atno 6908 bound_to 6896
  150.7874  134.6913  159.6543 H   0  0  0  0  0  0  0  0  0  0  0  0  # atno 6909 bound_to 6896
  145.4079  139.2338  143.3264 H   0  0  0  0  0  0  0  0  0  0  0  0  # atno 7974 bound_to 7965
  154.9713  140.0397  157.2235 H   0  0  0  0  0  0  0  0  0  0  0  0  # atno 8008 bound_to 7997
  154.7799  140.2817  155.6050 H   0  0  0  0  0  0  0  0  0  0  0  0  # atno 8009 bound_to 7997
  156.2934  140.2593  156.2622 H   0  0  0  0  0  0  0  0  0  0  0  0  # atno 8010 bound_to 7997
  139.9319  144.6146  150.8337 H   0  0  0  0  0  0  0  0  0  0  0  0  # atno 10167 bound_to 10162
  157.5806  130.8978  149.9424 H   0  0  0  0  0  0  0  0  0  0  0  0  # atno 10718 bound_to 10713
  152.9819  135.5705  154.5092 H   0  0  0  0  0  0  0  0  0  0  0  0  # atno 10763 bound_to 10752
  154.4599  135.2781  155.1722 H   0  0  0  0  0  0  0  0  0  0  0  0  # atno 10764 bound_to 10752
  154.3315  135.6248  153.5607 H   0  0  0  0  0  0  0  0  0  0  0  0  # atno 10765 bound_to 10752
  140.4781  134.6101  157.4909 H   0  0  0  0  0  0  0  0  0  0  0  0  # atno 11005 bound_to 11000
  146.2719  140.4786  142.8811 LP  0  0  0  0  0  0  0  0  0  0  0  0  # atno 17320 bound_to 7965
  144.8329  140.6735  143.6279 LP  0  0  0  0  0  0  0  0  0  0  0  0  # atno 17321 bound_to 7965
  140.7635  143.3225  151.2590 LP  0  0  0  0  0  0  0  0  0  0  0  0  # atno 17342 bound_to 10162
  139.6775  143.9911  152.2790 LP  0  0  0  0  0  0  0  0  0  0  0  0  # atno 17343 bound_to 10162
  156.0852  130.3669  150.0502 LP  0  0  0  0  0  0  0  0  0  0  0  0  # atno 17370 bound_to 10713
  156.8642  130.9502  151.3615 LP  0  0  0  0  0  0  0  0  0  0  0  0  # atno 17371 bound_to 10713
  139.9843  134.7086  155.9802 LP  0  0  0  0  0  0  0  0  0  0  0  0  # atno 17394 bound_to 11000
  141.1544  133.6544  156.4116 LP  0  0  0  0  0  0  0  0  0  0  0  0  # atno 17395 bound_to 11000

$$$$
