AV-unprocessed.smi:2753|AV-procd|sdf|10613|dock3
  -GOLD-   2272015 63D 1   1.00000     0.00000
 Structure written by MMmdl.
 27 28  0  0  0  0  0  0  0  0  3 V2000
  150.9591  143.6725  159.4818 F   0  0  0  0  0  0  0  0  0  0  0  0
  152.0195  143.1124  158.8998 C   0  0  0  0  0  0  0  0  0  0  0  0
  152.7353  144.0647  158.3021 F   0  0  0  0  0  0  0  0  0  0  0  0
  152.7716  142.5300  159.8334 F   0  0  0  0  0  0  0  0  0  0  0  0
  151.5688  142.0839  157.8815 C   0  0  0  0  0  0  0  0  0  0  0  0
  151.9844  140.7273  158.0274 C   0  0  0  0  0  0  0  0  0  0  0  0
  151.4341  140.0793  156.9947 N   0  5  0  0  0  0  0  0  0  0  0  0
  150.7224  140.9431  156.2403 C   0  0  0  0  0  0  0  0  0  0  0  0
  149.9502  140.5811  154.9884 C   0  0  2  0  0  0  0  0  0  0  0  0
  148.4623  140.9616  155.0942 C   0  0  0  0  0  0  0  0  0  0  0  0
  147.7145  140.5576  153.8142 C   0  0  0  0  0  0  0  0  0  0  0  0
  147.9385  139.0701  153.4929 C   0  0  0  0  0  0  0  0  0  0  0  0
  149.3828  138.7690  153.3846 N   0  3  0  0  0  0  0  0  0  0  0  0
  150.1353  139.0990  154.6143 C   0  0  0  0  0  0  0  0  0  0  0  0
  150.7988  142.1742  156.7799 N   0  0  0  0  0  0  0  0  0  0  0  0
  152.5986  140.2128  158.7557 H   0  0  0  0  0  0  0  0  0  0  0  0
  150.3807  141.1766  154.1815 H   0  0  0  0  0  0  0  0  0  0  0  0
  148.0119  140.4600  155.9519 H   0  0  0  0  0  0  0  0  0  0  0  0
  148.3573  142.0332  155.2682 H   0  0  0  0  0  0  0  0  0  0  0  0
  146.6490  140.7602  153.9258 H   0  0  0  0  0  0  0  0  0  0  0  0
  148.0602  141.1692  152.9796 H   0  0  0  0  0  0  0  0  0  0  0  0
  147.4980  138.4434  154.2696 H   0  0  0  0  0  0  0  0  0  0  0  0
  147.4490  138.8078  152.5548 H   0  0  0  0  0  0  0  0  0  0  0  0
  149.5012  137.7864  153.1838 H   0  0  0  0  0  0  0  0  0  0  0  0
  151.1906  138.8761  154.4548 H   0  0  0  0  0  0  0  0  0  0  0  0
  149.7917  138.4548  155.4250 H   0  0  0  0  0  0  0  0  0  0  0  0
  149.7673  139.3079  152.6218 H   0  0  0  0  0  0  0  0  0  0  0  0
  1  2  1  0  0  0  0
  2  3  1  0  0  0  0
  2  4  1  0  0  0  0
  2  5  1  0  0  0  0
  5 15  1  0  0  0  0
  5  6  2  0  0  0  0
  6  7  1  0  0  0  0
  6 16  1  0  0  0  0
  7  8  1  0  0  0  0
  8  9  1  0  0  0  0
  8 15  2  0  0  0  0
  9 14  1  0  0  0  0
  9 10  1  0  0  0  0
  9 17  1  0  0  0  0
 10 11  1  0  0  0  0
 10 18  1  0  0  0  0
 10 19  1  0  0  0  0
 11 12  1  0  0  0  0
 11 20  1  0  0  0  0
 11 21  1  0  0  0  0
 12 13  1  0  0  0  0
 12 22  1  0  0  0  0
 12 23  1  0  0  0  0
 13 14  1  0  0  0  0
 13 24  1  0  0  0  0
 13 27  1  0  0  0  0
 14 25  1  0  0  0  0
 14 26  1  0  0  0  0
M  CHG  1   7  -1
M  CHG  1  13   1
M  END
> <s_m_source_file>
AV-unprocessed.smi

> <i_m_source_file_index>
2753

> <i_lp_mmshare_version>
43012

> <i_f3d_flags>
0

> <s_epik_input>
RkMoRikoRiljMVtjSF1bbkhdYyhuMSlbQ0BASF0yW0NIMl1bQ0gyXVtDSDJdW05IXVtDSDJdMg==

> <s_epik_cmdline>
J2VwaWtfcHl0aG9uJywgJy1waCcsICc3LjAnLCAnLXRuJywgJzgnLCAnLW1hJywgJzIwMCcsICctbWV0YWxfYmluZGluZycsICctaW1hZScsICc8aW5maWxlLm1hZT4nLCAnLW9tYWUnLCAnPG91dGZpbGUubWFlPic=

> <r_lp_tautomer_probability>
0.5

> <r_epik_Ionization_Penalty>
6.42345

> <r_epik_Ionization_Penalty_Charging>
5.19935

> <r_epik_Ionization_Penalty_Neutral>
1.22411

> <r_epik_State_Penalty>
5.30226

> <r_epik_Charging_Adjusted_Penalty>
10.5016

> <i_epik_Tot_Q>
0

> <i_epik_Tot_abs_Q>
2

> <r_epik_Metal_State_Penalty>
1.35744

> <b_epik_Metal_Only>
1

> <s_lp_Force_Field>
OPLS_2005

> <r_lp_Energy>
18.3827

> <b_lp_Chiralities_Consistent>
1

> <s_lp_Variant>
AV-unprocessed.smi:2753-5

> <Gold.Version>
5.8.1

> <Gold.Id.Protein>
6NUR|6NUR_protein|mol2

> <Gold.PLP.Fitness>
37.6921

> <Gold.PLP.PLP>
-31.9308

> <Gold.PLP.part.hbond>
-1.8175

> <Gold.PLP.part.metal>
0.0000

> <Gold.PLP.part.buried>
-2.7168

> <Gold.PLP.part.nonpolar>
-28.6435

> <Gold.PLP.part.repulsive>
0.2063

> <Gold.PLP.ligand.clash>
2.8503

> <Gold.PLP.ligand.torsion>
0.0221

> <Gold.PLP.Chemscore.Hbond>
2.8715

> <Gold.PLP.Chemscore.CHOScore>
0.0000

> <Gold.PLP.Chemscore.Metal>
0.0000

> <Gold.Chemscore.Hbonds>
donor molecule, donor type, donor heavy atom, donor atom, acceptor molecule, acceptor atom, score
      L1  H    13    24       P1  7948  1.54
      L1  H    13    27       P1  7957  1.00

> <Gold.PLP.Chemscore.Internal.Correction>
0.0414

> <Gold.Rescore>
     Score         DG    S(hbond)    S(metal)    S(lipo)     H(rot)  DE(clash)    DE(int)     intcor
     15.82     -15.90       1.92        0.00      56.12       1.00       0.03       0.04       ----

> <Gold.Chemscore.Fitness>
15.8244

> <Gold.Chemscore.DG>
-15.9001

> <Gold.Chemscore.ZeroCoef>
-5.4800

> <Gold.Chemscore.Hbond>
1.9204

> <Gold.Chemscore.Metal>
0.0000

> <Gold.Chemscore.Lipo>
56.1189

> <Gold.Chemscore.Internal_Hbond>
0.0000

> <Gold.Chemscore.DEClash>
0.0331

> <Gold.Chemscore.DEInternal>
0.0426

> <Gold.Chemscore.Rot>
1.0000

> <Gold.Chemscore.Internal.Correction>
   9.000000E+99

> <Gold.Chemscore.Hbonds>
donor molecule, donor type, donor heavy atom, donor atom, acceptor molecule, acceptor atom, score
      L1  H    13    24       P1  7948  0.67
      L1  H    13    27       P1  7957  0.92

> <Gold.Chemscore.Hbond.Weighted>
-6.4142

> <Gold.Chemscore.Metal.Weighted>
-0.0000

> <Gold.Chemscore.Lipo.Weighted>
-6.5659

> <Gold.Chemscore.Internal_Hbond.Weighted>
0.0000

> <Gold.Chemscore.DEClash.Weighted>
0.0331

> <Gold.Chemscore.DEInternal.Weighted>
0.0426

> <Gold.Chemscore.Rot.Weighted>
2.5600

> <Gold.Chemscore.Internal.Correction.Weighted>
   9.000000E+99

> <Gold.Protein.RotatedTorsions>
[ 6907 6896 6895 6894 ] final -155.34 input  -60.11 | X-H torsion
[ 7974 7965 7964 7962 ] final   96.30 input  175.53 | X-H torsion
[ 8008 7997 7996 7995 ] final  170.82 input   59.86 | X-H torsion
[ 10167 10162 10161 10158 ] final -130.08 input  -65.29 | X-H torsion
[ 10718 10713 10712 10709 ] final   11.21 input   66.30 | X-H torsion
[ 10763 10752 10751 10750 ] final  -92.38 input  -60.55 | X-H torsion
[ 11005 11000 10999 10996 ] final  136.05 input  -57.11 | X-H torsion

> <Gold.Protein.ActiveResidues>
 VAL166  LYS551  ARG553  GLY616  TRP617  ASP618  TYR619  PRO620  LYS621  CYS622 
 ASP623  PHE694  ASN695  SER759  ASP760  ASP761  ALA762  ILE779  LEU786  VAL792 
 PHE793  MET794  SER795  GLU796  ALA797  LYS798  CYS799  TRP800  GLU811  SER814 

> <Gold.Protein.RotatedAtoms>
  151.2710  133.4255  159.2621 H   0  0  0  0  0  0  0  0  0  0  0  0  # atno 6907 bound_to 6896
  151.0445  134.9631  159.8189 H   0  0  0  0  0  0  0  0  0  0  0  0  # atno 6908 bound_to 6896
  152.5371  134.2666  159.9008 H   0  0  0  0  0  0  0  0  0  0  0  0  # atno 6909 bound_to 6896
  145.4406  139.2301  143.3094 H   0  0  0  0  0  0  0  0  0  0  0  0  # atno 7974 bound_to 7965
  156.1330  140.1528  156.9037 H   0  0  0  0  0  0  0  0  0  0  0  0  # atno 8008 bound_to 7997
  154.4924  140.0847  156.7663 H   0  0  0  0  0  0  0  0  0  0  0  0  # atno 8009 bound_to 7997
  155.4221  140.3423  155.4274 H   0  0  0  0  0  0  0  0  0  0  0  0  # atno 8010 bound_to 7997
  139.9330  143.6250  152.2524 H   0  0  0  0  0  0  0  0  0  0  0  0  # atno 10167 bound_to 10162
  156.9923  130.6047  149.5687 H   0  0  0  0  0  0  0  0  0  0  0  0  # atno 10718 bound_to 10713
  154.6855  135.5233  153.8321 H   0  0  0  0  0  0  0  0  0  0  0  0  # atno 10763 bound_to 10752
  153.0594  135.6563  154.0507 H   0  0  0  0  0  0  0  0  0  0  0  0  # atno 10764 bound_to 10752
  154.0389  135.2979  155.3337 H   0  0  0  0  0  0  0  0  0  0  0  0  # atno 10765 bound_to 10752
  140.0020  134.9474  157.0092 H   0  0  0  0  0  0  0  0  0  0  0  0  # atno 11005 bound_to 11000
  146.2558  140.5154  142.8874 LP  0  0  0  0  0  0  0  0  0  0  0  0  # atno 17320 bound_to 7965
  144.8124  140.6408  143.6407 LP  0  0  0  0  0  0  0  0  0  0  0  0  # atno 17321 bound_to 7965
  139.6766  144.7658  151.1684 LP  0  0  0  0  0  0  0  0  0  0  0  0  # atno 17342 bound_to 10162
  140.7632  143.5786  150.8919 LP  0  0  0  0  0  0  0  0  0  0  0  0  # atno 17343 bound_to 10162
  156.0202  130.5297  150.8254 LP  0  0  0  0  0  0  0  0  0  0  0  0  # atno 17370 bound_to 10713
  157.5450  131.0942  150.9775 LP  0  0  0  0  0  0  0  0  0  0  0  0  # atno 17371 bound_to 10713
  140.4711  134.1386  155.7203 LP  0  0  0  0  0  0  0  0  0  0  0  0  # atno 17394 bound_to 11000
  141.1649  133.8722  157.1744 LP  0  0  0  0  0  0  0  0  0  0  0  0  # atno 17395 bound_to 11000

$$$$
