AV-unprocessed.smi:740|AV-procd|sdf|3546|dock6
  -GOLD-   22720 0543D 1   1.00000     0.00000
 Structure written by MMmdl.
 44 46  0  0  0  0  0  0  0  0  1 V2000
  152.4762  142.5965  160.4951 C   0  0  0  0  0  0  0  0  0  0  0  0
  151.9083  142.1100  159.1735 C   0  0  0  0  0  0  0  0  0  0  0  0
  152.5680  141.0676  158.4845 C   0  0  0  0  0  0  0  0  0  0  0  0
  152.0755  140.5891  157.2509 C   0  0  0  0  0  0  0  0  0  0  0  0
  152.5563  139.5940  156.4172 N   0  0  0  0  0  0  0  0  0  0  0  0
  151.6702  139.6242  155.4261 C   0  0  0  0  0  0  0  0  0  0  0  0
  150.6702  140.5213  155.5197 N   0  0  0  0  0  0  0  0  0  0  0  0
  149.6020  140.7365  154.5604 C   0  0  0  0  0  0  0  0  0  0  0  0
  148.7774  139.4603  154.3049 C   0  0  2  0  0  0  0  0  0  0  0  0
  149.5722  138.5479  153.5716 O   0  0  0  0  0  0  0  0  0  0  0  0
  147.4957  139.7608  153.5007 C   0  0  0  0  0  0  0  0  0  0  0  0
  146.7570  138.5371  153.1680 N   0  0  0  0  0  0  0  0  0  0  0  0
  146.4429  138.1663  151.9192 C   0  0  0  0  0  0  0  0  0  0  0  0
  146.7264  138.7724  150.8864 O   0  0  0  0  0  0  0  0  0  0  0  0
  145.6558  136.8633  151.9178 C   0  0  0  0  0  0  0  0  0  0  0  0
  145.5560  136.5096  153.4092 C   0  0  1  0  0  0  0  0  0  0  0  0
  146.1742  135.1473  153.7649 C   0  0  0  0  0  0  0  0  0  0  0  0
  146.3009  137.6638  154.0771 C   0  0  0  0  0  0  0  0  0  0  0  0
  146.4415  137.7465  155.2974 O   0  0  0  0  0  0  0  0  0  0  0  0
  150.8950  141.1870  156.7201 C   0  0  0  0  0  0  0  0  0  0  0  0
  150.2283  142.2236  157.3972 C   0  0  0  0  0  0  0  0  0  0  0  0
  150.7341  142.6896  158.6289 C   0  0  0  0  0  0  0  0  0  0  0  0
  150.0084  143.8107  159.3514 C   0  0  0  0  0  0  0  0  0  0  0  0
  153.3563  142.0222  160.7860 H   0  0  0  0  0  0  0  0  0  0  0  0
  151.7365  142.4986  161.2899 H   0  0  0  0  0  0  0  0  0  0  0  0
  152.7693  143.6439  160.4209 H   0  0  0  0  0  0  0  0  0  0  0  0
  153.4628  140.6260  158.8978 H   0  0  0  0  0  0  0  0  0  0  0  0
  151.7534  138.9578  154.5800 H   0  0  0  0  0  0  0  0  0  0  0  0
  148.9583  141.5285  154.9459 H   0  0  0  0  0  0  0  0  0  0  0  0
  150.0325  141.1114  153.6309 H   0  0  0  0  0  0  0  0  0  0  0  0
  148.5231  139.0081  155.2647 H   0  0  0  0  0  0  0  0  0  0  0  0
  149.0116  138.0635  152.9850 H   0  0  0  0  0  0  0  0  0  0  0  0
  146.8377  140.4001  154.0919 H   0  0  0  0  0  0  0  0  0  0  0  0
  147.7282  140.3426  152.6068 H   0  0  0  0  0  0  0  0  0  0  0  0
  144.6723  137.0143  151.4714 H   0  0  0  0  0  0  0  0  0  0  0  0
  146.1862  136.1043  151.3415 H   0  0  0  0  0  0  0  0  0  0  0  0
  144.5137  136.5359  153.7296 H   0  0  0  0  0  0  0  0  0  0  0  0
  146.0783  134.9363  154.8306 H   0  0  0  0  0  0  0  0  0  0  0  0
  147.2341  135.1080  153.5103 H   0  0  0  0  0  0  0  0  0  0  0  0
  145.6743  134.3423  153.2257 H   0  0  0  0  0  0  0  0  0  0  0  0
  149.3372  142.6584  156.9696 H   0  0  0  0  0  0  0  0  0  0  0  0
  149.1361  144.1472  158.7901 H   0  0  0  0  0  0  0  0  0  0  0  0
  150.6685  144.6672  159.4891 H   0  0  0  0  0  0  0  0  0  0  0  0
  149.6667  143.4750  160.3307 H   0  0  0  0  0  0  0  0  0  0  0  0
  1  2  1  0  0  0  0
  1 24  1  0  0  0  0
  1 25  1  0  0  0  0
  1 26  1  0  0  0  0
  2 22  1  0  0  0  0
  2  3  2  0  0  0  0
  3  4  1  0  0  0  0
  3 27  1  0  0  0  0
  4 20  2  0  0  0  0
  4  5  1  0  0  0  0
  5  6  2  0  0  0  0
  6  7  1  0  0  0  0
  6 28  1  0  0  0  0
  7  8  1  0  0  0  0
  7 20  1  0  0  0  0
  8  9  1  0  0  0  0
  8 29  1  0  0  0  0
  8 30  1  0  0  0  0
  9 10  1  0  0  0  0
  9 11  1  0  0  0  0
  9 31  1  0  0  0  0
 10 32  1  0  0  0  0
 11 12  1  0  0  0  0
 11 33  1  0  0  0  0
 11 34  1  0  0  0  0
 12 18  1  0  0  0  0
 12 13  1  0  0  0  0
 13 14  2  0  0  0  0
 13 15  1  0  0  0  0
 15 16  1  0  0  0  0
 15 35  1  0  0  0  0
 15 36  1  0  0  0  0
 16 17  1  0  0  0  0
 16 18  1  0  0  0  0
 16 37  1  0  0  0  0
 17 38  1  0  0  0  0
 17 39  1  0  0  0  0
 17 40  1  0  0  0  0
 18 19  2  0  0  0  0
 20 21  1  0  0  0  0
 21 22  2  0  0  0  0
 21 41  1  0  0  0  0
 22 23  1  0  0  0  0
 23 42  1  0  0  0  0
 23 43  1  0  0  0  0
 23 44  1  0  0  0  0
M  END
> <s_m_source_file>
AV-unprocessed.smi

> <i_m_source_file_index>
740

> <i_lp_mmshare_version>
43012

> <i_f3d_flags>
0

> <s_epik_input>
W0NIM11jKFtjSF0xKWMoW0NIM10pW2NIXWMoYzEyKW4oW2NIXW4yKVtDSDJdW0NASF0oW09IXSlbQ0gyXU4zQyg9TylbQ0gyXVtDQEBIXShbQ0gzXSlDMz1P

> <s_epik_cmdline>
J2VwaWtfcHl0aG9uJywgJy1waCcsICc3LjAnLCAnLXRuJywgJzgnLCAnLW1hJywgJzIwMCcsICctbWV0YWxfYmluZGluZycsICctaW1hZScsICc8aW5maWxlLm1hZT4nLCAnLW9tYWUnLCAnPG91dGZpbGUubWFlPic=

> <r_lp_tautomer_probability>
1

> <r_epik_Ionization_Penalty>
0.104021

> <r_epik_Ionization_Penalty_Charging>
0

> <r_epik_Ionization_Penalty_Neutral>
0.104021

> <r_epik_State_Penalty>
0.0939354

> <r_epik_Charging_Adjusted_Penalty>
0.0939354

> <i_epik_Tot_Q>
0

> <i_epik_Tot_abs_Q>
0

> <r_epik_Metal_State_Penalty>
0.000101783

> <b_epik_Metal_Only>
0

> <s_lp_Force_Field>
OPLS_2005

> <r_lp_Energy>
16.4677

> <b_lp_Chiralities_Consistent>
1

> <s_lp_Variant>
AV-unprocessed.smi:740-1

> <Gold.Version>
5.8.1

> <Gold.Id.Protein>
6NUR|6NUR_protein|mol2

> <Gold.PLP.Fitness>
48.1179

> <Gold.PLP.PLP>
-40.6504

> <Gold.PLP.part.hbond>
-4.0000

> <Gold.PLP.part.metal>
0.0000

> <Gold.PLP.part.buried>
-2.4095

> <Gold.PLP.part.nonpolar>
-35.7863

> <Gold.PLP.part.repulsive>
0.8985

> <Gold.PLP.ligand.clash>
0.0041

> <Gold.PLP.ligand.torsion>
0.0789

> <Gold.PLP.Chemscore.Hbond>
2.5380

> <Gold.PLP.Chemscore.CHOScore>
0.0000

> <Gold.PLP.Chemscore.Metal>
0.0000

> <Gold.Chemscore.Hbonds>
donor molecule, donor type, donor heavy atom, donor atom, acceptor molecule, acceptor atom, score
      L1  H    10    32       P1  7948  0.62
      P1  H  7954  7966       L1    14  0.86
      P1  H  7997  8010       L1     5  1.00

> <Gold.PLP.Chemscore.Internal.Correction>
0.0155

> <Gold.Rescore>
     Score         DG    S(hbond)    S(metal)    S(lipo)     H(rot)  DE(clash)    DE(int)     intcor
     15.25     -17.56       2.24        0.00      89.84       2.31       0.73       1.59       ----

> <Gold.Chemscore.Fitness>
15.2473

> <Gold.Chemscore.DG>
-17.5618

> <Gold.Chemscore.ZeroCoef>
-5.4800

> <Gold.Chemscore.Hbond>
2.2443

> <Gold.Chemscore.Metal>
0.0000

> <Gold.Chemscore.Lipo>
89.8398

> <Gold.Chemscore.Internal_Hbond>
0.0000

> <Gold.Chemscore.DEClash>
0.7257

> <Gold.Chemscore.DEInternal>
1.5888

> <Gold.Chemscore.Rot>
2.3147

> <Gold.Chemscore.Internal.Correction>
   9.000000E+99

> <Gold.Chemscore.Hbonds>
donor molecule, donor type, donor heavy atom, donor atom, acceptor molecule, acceptor atom, score
      L1  H    10    32       P1  7948  0.61
      P1  H  7954  7966       L1    14  0.70
      P1  H  7997  8010       L1     5  0.29

> <Gold.Chemscore.Hbond.Weighted>
-7.4961

> <Gold.Chemscore.Metal.Weighted>
-0.0000

> <Gold.Chemscore.Lipo.Weighted>
-10.5113

> <Gold.Chemscore.Internal_Hbond.Weighted>
0.0000

> <Gold.Chemscore.DEClash.Weighted>
0.7257

> <Gold.Chemscore.DEInternal.Weighted>
1.5888

> <Gold.Chemscore.Rot.Weighted>
5.9256

> <Gold.Chemscore.Internal.Correction.Weighted>
   9.000000E+99

> <Gold.Protein.RotatedTorsions>
[ 6907 6896 6895 6894 ] final -107.70 input  -60.11 | X-H torsion
[ 7974 7965 7964 7962 ] final   81.64 input  175.53 | X-H torsion
[ 8008 7997 7996 7995 ] final   88.06 input   59.86 | X-H torsion
[ 10167 10162 10161 10158 ] final  -31.15 input  -65.29 | X-H torsion
[ 10718 10713 10712 10709 ] final  -56.12 input   66.30 | X-H torsion
[ 10763 10752 10751 10750 ] final   57.28 input  -60.55 | X-H torsion
[ 11005 11000 10999 10996 ] final  -93.80 input  -57.11 | X-H torsion

> <Gold.Protein.ActiveResidues>
 VAL166  LYS551  ARG553  GLY616  TRP617  ASP618  TYR619  PRO620  LYS621  CYS622 
 ASP623  PHE694  ASN695  SER759  ASP760  ASP761  ALA762  ILE779  LEU786  VAL792 
 PHE793  MET794  SER795  GLU796  ALA797  LYS798  CYS799  TRP800  GLU811  SER814 

> <Gold.Protein.RotatedAtoms>
  150.7459  133.9787  159.3569 H   0  0  0  0  0  0  0  0  0  0  0  0  # atno 6907 bound_to 6896
  151.7727  135.0780  160.0371 H   0  0  0  0  0  0  0  0  0  0  0  0  # atno 6908 bound_to 6896
  152.3328  133.5941  159.5858 H   0  0  0  0  0  0  0  0  0  0  0  0  # atno 6909 bound_to 6896
  145.6355  139.2414  143.2060 H   0  0  0  0  0  0  0  0  0  0  0  0  # atno 7974 bound_to 7965
  155.9831  140.3375  155.6682 H   0  0  0  0  0  0  0  0  0  0  0  0  # atno 8008 bound_to 7997
  155.6522  140.0707  157.2601 H   0  0  0  0  0  0  0  0  0  0  0  0  # atno 8009 bound_to 7997
  154.4197  140.1723  156.1674 H   0  0  0  0  0  0  0  0  0  0  0  0  # atno 8010 bound_to 7997
  140.7240  143.3793  151.1631 H   0  0  0  0  0  0  0  0  0  0  0  0  # atno 10167 bound_to 10162
  156.1314  130.4159  150.0262 H   0  0  0  0  0  0  0  0  0  0  0  0  # atno 10718 bound_to 10713
  152.9847  135.5647  154.5365 H   0  0  0  0  0  0  0  0  0  0  0  0  # atno 10763 bound_to 10752
  154.4827  135.2789  155.1560 H   0  0  0  0  0  0  0  0  0  0  0  0  # atno 10764 bound_to 10752
  154.3062  135.6297  153.5499 H   0  0  0  0  0  0  0  0  0  0  0  0  # atno 10765 bound_to 10752
  141.1487  133.7912  157.0210 H   0  0  0  0  0  0  0  0  0  0  0  0  # atno 11005 bound_to 11000
  146.1322  140.7170  142.9406 LP  0  0  0  0  0  0  0  0  0  0  0  0  # atno 17320 bound_to 7965
  144.7177  140.4267  143.7032 LP  0  0  0  0  0  0  0  0  0  0  0  0  # atno 17321 bound_to 7965
  139.7379  143.8971  152.3040 LP  0  0  0  0  0  0  0  0  0  0  0  0  # atno 17342 bound_to 10162
  139.8782  144.7032  150.8908 LP  0  0  0  0  0  0  0  0  0  0  0  0  # atno 17343 bound_to 10162
  156.8173  130.9346  151.3642 LP  0  0  0  0  0  0  0  0  0  0  0  0  # atno 17370 bound_to 10713
  157.6492  130.8869  149.9598 LP  0  0  0  0  0  0  0  0  0  0  0  0  # atno 17371 bound_to 10713
  140.0816  134.9645  157.1633 LP  0  0  0  0  0  0  0  0  0  0  0  0  # atno 17394 bound_to 11000
  140.3569  134.2537  155.7191 LP  0  0  0  0  0  0  0  0  0  0  0  0  # atno 17395 bound_to 11000

$$$$
