AV-unprocessed.smi:763|AV-procd|sdf|3634|dock9
  -GOLD-   22720 1 33D 1   1.00000     0.00000
 Structure written by MMmdl.
 44 45  0  0  0  0  0  0  0  0  1 V2000
  155.6881  139.5919  163.1317 C   0  0  0  0  0  0  0  0  0  0  0  0
  155.4955  140.7433  162.3251 O   0  0  0  0  0  0  0  0  0  0  0  0
  154.5827  140.5535  161.2530 C   0  0  0  0  0  0  0  0  0  0  0  0
  153.6024  141.7277  161.1169 C   0  0  0  0  0  0  0  0  0  0  0  0
  152.6921  141.4386  160.0602 O   0  0  0  0  0  0  0  0  0  0  0  0
  152.4052  142.4301  159.1415 C   0  0  0  0  0  0  0  0  0  0  0  0
  152.7409  143.7101  159.4414 N   0  0  0  0  0  0  0  0  0  0  0  0
  152.4622  144.6746  158.5397 C   0  0  0  0  0  0  0  0  0  0  0  0
  151.8412  144.4183  157.3029 C   0  0  0  0  0  0  0  0  0  0  0  0
  151.4913  143.0913  156.9924 C   0  0  0  0  0  0  0  0  0  0  0  0
  151.7760  142.0728  157.9275 C   0  0  0  0  0  0  0  0  0  0  0  0
  151.4502  140.7364  157.6795 N   0  0  0  0  0  0  0  0  0  0  0  0
  150.6838  140.0548  156.2822 S   0  0  0  0  0  0  0  0  0  0  0  0
  151.6778  140.1477  155.2017 O   0  0  0  0  0  0  0  0  0  0  0  0
  150.1537  138.7537  156.7180 O   0  0  0  0  0  0  0  0  0  0  0  0
  149.2919  141.2399  155.9581 C   0  0  2  0  0  0  0  0  0  0  0  0
  148.3453  141.2787  157.1756 C   0  0  0  0  0  0  0  0  0  0  0  0
  147.1567  142.2239  156.9458 C   0  0  0  0  0  0  0  0  0  0  0  0
  146.3919  141.8468  155.6692 C   0  0  0  0  0  0  0  0  0  0  0  0
  147.3254  141.8502  154.4500 C   0  0  0  0  0  0  0  0  0  0  0  0
  148.5268  140.9083  154.6530 C   0  0  1  0  0  0  0  0  0  0  0  0
  149.3707  141.0419  153.5280 O   0  0  0  0  0  0  0  0  0  0  0  0
  156.3561  139.8362  163.9575 H   0  0  0  0  0  0  0  0  0  0  0  0
  156.1427  138.7756  162.5707 H   0  0  0  0  0  0  0  0  0  0  0  0
  154.7456  139.2437  163.5559 H   0  0  0  0  0  0  0  0  0  0  0  0
  155.1077  140.3641  160.3154 H   0  0  0  0  0  0  0  0  0  0  0  0
  154.0173  139.6490  161.4783 H   0  0  0  0  0  0  0  0  0  0  0  0
  153.0525  141.8520  162.0513 H   0  0  0  0  0  0  0  0  0  0  0  0
  154.1432  142.6533  160.9143 H   0  0  0  0  0  0  0  0  0  0  0  0
  152.7431  145.6810  158.8127 H   0  0  0  0  0  0  0  0  0  0  0  0
  151.6366  145.2203  156.6092 H   0  0  0  0  0  0  0  0  0  0  0  0
  151.0121  142.8710  156.0501 H   0  0  0  0  0  0  0  0  0  0  0  0
  151.6865  140.0927  158.4206 H   0  0  0  0  0  0  0  0  0  0  0  0
  149.7480  142.2256  155.8561 H   0  0  0  0  0  0  0  0  0  0  0  0
  147.9688  140.2764  157.3823 H   0  0  0  0  0  0  0  0  0  0  0  0
  148.8910  141.5918  158.0661 H   0  0  0  0  0  0  0  0  0  0  0  0
  146.4854  142.1918  157.8044 H   0  0  0  0  0  0  0  0  0  0  0  0
  147.5139  143.2517  156.8711 H   0  0  0  0  0  0  0  0  0  0  0  0
  145.9445  140.8589  155.7865 H   0  0  0  0  0  0  0  0  0  0  0  0
  145.5687  142.5439  155.5096 H   0  0  0  0  0  0  0  0  0  0  0  0
  146.7678  141.5582  153.5593 H   0  0  0  0  0  0  0  0  0  0  0  0
  147.6785  142.8673  154.2725 H   0  0  0  0  0  0  0  0  0  0  0  0
  148.1655  139.8801  154.6868 H   0  0  0  0  0  0  0  0  0  0  0  0
  149.0835  140.4352  152.8618 H   0  0  0  0  0  0  0  0  0  0  0  0
  1  2  1  0  0  0  0
  1 23  1  0  0  0  0
  1 24  1  0  0  0  0
  1 25  1  0  0  0  0
  2  3  1  0  0  0  0
  3  4  1  0  0  0  0
  3 26  1  0  0  0  0
  3 27  1  0  0  0  0
  4  5  1  0  0  0  0
  4 28  1  0  0  0  0
  4 29  1  0  0  0  0
  5  6  1  0  0  0  0
  6 11  1  0  0  0  0
  6  7  2  0  0  0  0
  7  8  1  0  0  0  0
  8  9  2  0  0  0  0
  8 30  1  0  0  0  0
  9 10  1  0  0  0  0
  9 31  1  0  0  0  0
 10 11  2  0  0  0  0
 10 32  1  0  0  0  0
 11 12  1  0  0  0  0
 12 13  1  0  0  0  0
 12 33  1  0  0  0  0
 13 14  2  0  0  0  0
 13 15  2  0  0  0  0
 13 16  1  0  0  0  0
 16 21  1  0  0  0  0
 16 17  1  0  0  0  0
 16 34  1  0  0  0  0
 17 18  1  0  0  0  0
 17 35  1  0  0  0  0
 17 36  1  0  0  0  0
 18 19  1  0  0  0  0
 18 37  1  0  0  0  0
 18 38  1  0  0  0  0
 19 20  1  0  0  0  0
 19 39  1  0  0  0  0
 19 40  1  0  0  0  0
 20 21  1  0  0  0  0
 20 41  1  0  0  0  0
 20 42  1  0  0  0  0
 21 22  1  0  0  0  0
 21 43  1  0  0  0  0
 22 44  1  0  0  0  0
M  END
> <s_m_source_file>
AV-unprocessed.smi

> <i_m_source_file_index>
763

> <i_lp_mmshare_version>
43012

> <i_f3d_flags>
0

> <s_epik_input>
W0NIM11PW0NIMl1bQ0gyXU9jMW5bY0hdW2NIXVtjSF1jMVtOSF1TKD1PKSg9TylbQ0BASF0yW0NIMl1bQ0gyXVtDSDJdW0NIMl1bQ0BIXTJbT0hd

> <s_epik_cmdline>
J2VwaWtfcHl0aG9uJywgJy1waCcsICc3LjAnLCAnLXRuJywgJzgnLCAnLW1hJywgJzIwMCcsICctbWV0YWxfYmluZGluZycsICctaW1hZScsICc8aW5maWxlLm1hZT4nLCAnLW9tYWUnLCAnPG91dGZpbGUubWFlPic=

> <r_epik_Ionization_Penalty>
0.124685

> <r_epik_Ionization_Penalty_Charging>
0

> <r_epik_Ionization_Penalty_Neutral>
0.124685

> <r_epik_State_Penalty>
0.114154

> <r_epik_Charging_Adjusted_Penalty>
0.114154

> <i_epik_Tot_Q>
0

> <i_epik_Tot_abs_Q>
0

> <r_epik_Metal_State_Penalty>
0.443785

> <b_epik_Metal_Only>
0

> <s_lp_Force_Field>
OPLS_2005

> <r_lp_Energy>
9.05246

> <b_lp_Chiralities_Consistent>
1

> <s_lp_Variant>
AV-unprocessed.smi:763-1

> <Gold.Version>
5.8.1

> <Gold.Id.Protein>
6NUR|6NUR_protein|mol2

> <Gold.PLP.Fitness>
49.9161

> <Gold.PLP.PLP>
-44.6456

> <Gold.PLP.part.hbond>
-5.0000

> <Gold.PLP.part.metal>
0.0000

> <Gold.PLP.part.buried>
-7.4440

> <Gold.PLP.part.nonpolar>
-31.6052

> <Gold.PLP.part.repulsive>
0.0855

> <Gold.PLP.ligand.clash>
0.0000

> <Gold.PLP.ligand.torsion>
1.5464

> <Gold.PLP.Chemscore.Hbond>
2.3460

> <Gold.PLP.Chemscore.CHOScore>
0.0000

> <Gold.PLP.Chemscore.Metal>
0.0000

> <Gold.Chemscore.Hbonds>
donor molecule, donor type, donor heavy atom, donor atom, acceptor molecule, acceptor atom, score
      L1  H    22    44       P1  7957  0.70
      P1  H  7989  7998       L1    14  0.94
      P1  H  8011  8017       L1    22  0.75

> <Gold.PLP.Chemscore.Internal.Correction>
1.3253

> <Gold.Rescore>
     Score         DG    S(hbond)    S(metal)    S(lipo)     H(rot)  DE(clash)    DE(int)     intcor
     15.55     -18.40       2.11        0.00     102.89       2.41       1.12       1.72       ----

> <Gold.Chemscore.Fitness>
15.5490

> <Gold.Chemscore.DG>
-18.3973

> <Gold.Chemscore.ZeroCoef>
-5.4800

> <Gold.Chemscore.Hbond>
2.1068

> <Gold.Chemscore.Metal>
0.0000

> <Gold.Chemscore.Lipo>
102.8893

> <Gold.Chemscore.Internal_Hbond>
0.0000

> <Gold.Chemscore.DEClash>
1.1246

> <Gold.Chemscore.DEInternal>
1.7237

> <Gold.Chemscore.Rot>
2.4052

> <Gold.Chemscore.Internal.Correction>
   9.000000E+99

> <Gold.Chemscore.Hbonds>
donor molecule, donor type, donor heavy atom, donor atom, acceptor molecule, acceptor atom, score
      L1  H    22    44       P1  7957  0.70
      P1  H  7989  7998       L1    14  0.91
      P1  H  8011  8017       L1    22  0.09

> <Gold.Chemscore.Hbond.Weighted>
-7.0367

> <Gold.Chemscore.Metal.Weighted>
-0.0000

> <Gold.Chemscore.Lipo.Weighted>
-12.0380

> <Gold.Chemscore.Internal_Hbond.Weighted>
0.0000

> <Gold.Chemscore.DEClash.Weighted>
1.1246

> <Gold.Chemscore.DEInternal.Weighted>
1.7237

> <Gold.Chemscore.Rot.Weighted>
6.1574

> <Gold.Chemscore.Internal.Correction.Weighted>
   9.000000E+99

> <Gold.Protein.RotatedTorsions>
[ 6907 6896 6895 6894 ] final -153.11 input  -60.11 | X-H torsion
[ 7974 7965 7964 7962 ] final   90.33 input  175.53 | X-H torsion
[ 8008 7997 7996 7995 ] final  -52.19 input   59.86 | X-H torsion
[ 10167 10162 10161 10158 ] final -158.96 input  -65.29 | X-H torsion
[ 10718 10713 10712 10709 ] final  -97.57 input   66.30 | X-H torsion
[ 10763 10752 10751 10750 ] final  -54.08 input  -60.55 | X-H torsion
[ 11005 11000 10999 10996 ] final  137.61 input  -57.11 | X-H torsion

> <Gold.Protein.ActiveResidues>
 VAL166  LYS551  ARG553  GLY616  TRP617  ASP618  TYR619  PRO620  LYS621  CYS622 
 ASP623  PHE694  ASN695  SER759  ASP760  ASP761  ALA762  ILE779  LEU786  VAL792 
 PHE793  MET794  SER795  GLU796  ALA797  LYS798  CYS799  TRP800  GLU811  SER814 

> <Gold.Protein.RotatedAtoms>
  151.2377  133.4416  159.2605 H   0  0  0  0  0  0  0  0  0  0  0  0  # atno 6907 bound_to 6896
  151.0734  134.9813  159.8330 H   0  0  0  0  0  0  0  0  0  0  0  0  # atno 6908 bound_to 6896
  152.5415  134.2321  159.8882 H   0  0  0  0  0  0  0  0  0  0  0  0  # atno 6909 bound_to 6896
  145.5204  139.2279  143.2675 H   0  0  0  0  0  0  0  0  0  0  0  0  # atno 7974 bound_to 7965
  154.4100  140.1230  156.4951 H   0  0  0  0  0  0  0  0  0  0  0  0  # atno 8008 bound_to 7997
  155.6951  140.3495  155.4890 H   0  0  0  0  0  0  0  0  0  0  0  0  # atno 8009 bound_to 7997
  155.9434  140.1091  157.1026 H   0  0  0  0  0  0  0  0  0  0  0  0  # atno 8010 bound_to 7997
  139.6652  143.9843  152.2250 H   0  0  0  0  0  0  0  0  0  0  0  0  # atno 10167 bound_to 10162
  156.0086  130.5200  150.6394 H   0  0  0  0  0  0  0  0  0  0  0  0  # atno 10718 bound_to 10713
  154.1691  135.6462  153.5005 H   0  0  0  0  0  0  0  0  0  0  0  0  # atno 10763 bound_to 10752
  153.0089  135.5379  154.6632 H   0  0  0  0  0  0  0  0  0  0  0  0  # atno 10764 bound_to 10752
  154.5966  135.2939  155.0552 H   0  0  0  0  0  0  0  0  0  0  0  0  # atno 10765 bound_to 10752
  140.0126  134.9432  157.0310 H   0  0  0  0  0  0  0  0  0  0  0  0  # atno 11005 bound_to 11000
  146.2109  140.6016  142.9060 LP  0  0  0  0  0  0  0  0  0  0  0  0  # atno 17320 bound_to 7965
  144.7679  140.5572  143.6690 LP  0  0  0  0  0  0  0  0  0  0  0  0  # atno 17321 bound_to 7965
  139.9592  144.6569  150.8096 LP  0  0  0  0  0  0  0  0  0  0  0  0  # atno 17342 bound_to 10162
  140.7596  143.3133  151.2793 LP  0  0  0  0  0  0  0  0  0  0  0  0  # atno 17343 bound_to 10162
  157.4176  131.0832  151.1161 LP  0  0  0  0  0  0  0  0  0  0  0  0  # atno 17370 bound_to 10713
  157.1773  130.6294  149.5660 LP  0  0  0  0  0  0  0  0  0  0  0  0  # atno 17371 bound_to 10713
  140.4527  134.1566  155.7183 LP  0  0  0  0  0  0  0  0  0  0  0  0  # atno 17394 bound_to 11000
  141.1721  133.8587  157.1537 LP  0  0  0  0  0  0  0  0  0  0  0  0  # atno 17395 bound_to 11000

$$$$
