AV-unprocessed.smi:2923|AV-procd|sdf|11216|dock5
  -GOLD-   2272016103D 1   1.00000     0.00000
 Structure written by MMmdl.
 46 48  0  0  0  0  0  0  0  0  1 V2000
  152.1804  145.4414  160.1803 C   0  0  0  0  0  0  0  0  0  0  0  0
  151.8641  144.2357  159.4248 N   0  0  0  0  0  0  0  0  0  0  0  0
  150.8501  144.2794  158.3762 C   0  0  0  0  0  0  0  0  0  0  0  0
  152.5127  143.0162  159.7265 C   0  0  0  0  0  0  0  0  0  0  0  0
  153.4421  142.9161  160.7913 C   0  0  0  0  0  0  0  0  0  0  0  0
  154.0597  141.6786  161.0560 C   0  0  0  0  0  0  0  0  0  0  0  0
  153.7415  140.5651  160.2451 C   0  0  0  0  0  0  0  0  0  0  0  0
  154.2750  139.2599  160.4247 N   0  0  0  0  0  0  0  0  0  0  0  0
  155.1839  138.8395  161.3209 C   0  0  0  0  0  0  0  0  0  0  0  0
  155.7837  139.5578  162.1203 O   0  0  0  0  0  0  0  0  0  0  0  0
  155.3771  137.5173  161.2301 N   0  0  0  0  0  0  0  0  0  0  0  0
  156.2817  136.7574  162.0847 C   0  0  2  0  0  0  0  0  0  0  0  0
  155.6842  135.4219  162.5281 C   0  0  1  0  0  0  0  0  0  0  0  0
  156.0084  133.9941  162.2683 C   0  0  0  0  0  0  0  0  0  0  0  0
  155.9204  133.4868  163.7327 C   0  0  0  0  0  0  0  0  0  0  0  0
  155.8420  134.6731  164.5603 O   0  0  0  0  0  0  0  0  0  0  0  0
  156.4905  135.6634  163.7892 C   0  0  2  0  0  0  0  0  0  0  0  0
  156.2071  137.1673  163.6042 C   0  0  0  0  0  0  0  0  0  0  0  0
  157.3169  138.1031  164.0843 C   0  0  0  0  0  0  0  0  0  0  0  0
  154.8906  137.7258  164.1824 C   0  0  0  0  0  0  0  0  0  0  0  0
  152.7992  140.7580  159.2165 C   0  0  0  0  0  0  0  0  0  0  0  0
  152.2054  141.9419  158.9593 N   0  0  0  0  0  0  0  0  0  0  0  0
  151.9691  145.2958  161.2400 H   0  0  0  0  0  0  0  0  0  0  0  0
  151.5901  146.2915  159.8382 H   0  0  0  0  0  0  0  0  0  0  0  0
  153.2333  145.7005  160.0657 H   0  0  0  0  0  0  0  0  0  0  0  0
  150.0245  143.6077  158.6138 H   0  0  0  0  0  0  0  0  0  0  0  0
  151.2772  143.9801  157.4184 H   0  0  0  0  0  0  0  0  0  0  0  0
  150.4401  145.2825  158.2591 H   0  0  0  0  0  0  0  0  0  0  0  0
  153.6910  143.7609  161.4151 H   0  0  0  0  0  0  0  0  0  0  0  0
  154.7489  141.6102  161.8827 H   0  0  0  0  0  0  0  0  0  0  0  0
  153.9385  138.5639  159.7754 H   0  0  0  0  0  0  0  0  0  0  0  0
  154.8519  136.9994  160.5410 H   0  0  0  0  0  0  0  0  0  0  0  0
  157.2984  136.6632  161.6920 H   0  0  0  0  0  0  0  0  0  0  0  0
  154.6072  135.5211  162.6824 H   0  0  0  0  0  0  0  0  0  0  0  0
  155.2867  133.5072  161.6122 H   0  0  0  0  0  0  0  0  0  0  0  0
  157.0094  133.8716  161.8520 H   0  0  0  0  0  0  0  0  0  0  0  0
  155.0374  132.8690  163.8974 H   0  0  0  0  0  0  0  0  0  0  0  0
  156.8002  132.8971  163.9932 H   0  0  0  0  0  0  0  0  0  0  0  0
  157.5569  135.4330  163.6841 H   0  0  0  0  0  0  0  0  0  0  0  0
  157.3913  138.1099  165.1721 H   0  0  0  0  0  0  0  0  0  0  0  0
  157.1465  139.1293  163.7576 H   0  0  0  0  0  0  0  0  0  0  0  0
  158.2905  137.8021  163.6963 H   0  0  0  0  0  0  0  0  0  0  0  0
  154.9128  137.7309  165.2725 H   0  0  0  0  0  0  0  0  0  0  0  0
  154.0081  137.1586  163.8931 H   0  0  0  0  0  0  0  0  0  0  0  0
  154.7204  138.7534  163.8591 H   0  0  0  0  0  0  0  0  0  0  0  0
  152.5105  139.9376  158.5760 H   0  0  0  0  0  0  0  0  0  0  0  0
  1  2  1  0  0  0  0
  1 23  1  0  0  0  0
  1 24  1  0  0  0  0
  1 25  1  0  0  0  0
  2  3  1  0  0  0  0
  2  4  1  0  0  0  0
  3 26  1  0  0  0  0
  3 27  1  0  0  0  0
  3 28  1  0  0  0  0
  4 22  1  0  0  0  0
  4  5  2  0  0  0  0
  5  6  1  0  0  0  0
  5 29  1  0  0  0  0
  6  7  2  0  0  0  0
  6 30  1  0  0  0  0
  7  8  1  0  0  0  0
  7 21  1  0  0  0  0
  8  9  1  0  0  0  0
  8 31  1  0  0  0  0
  9 10  2  0  0  0  0
  9 11  1  0  0  0  0
 11 12  1  0  0  0  0
 11 32  1  0  0  0  0
 12 18  1  0  0  0  0
 12 13  1  0  0  0  0
 12 33  1  0  0  0  0
 13 17  1  0  0  0  0
 13 14  1  0  0  0  0
 13 34  1  0  0  0  0
 14 15  1  0  0  0  0
 14 35  1  0  0  0  0
 14 36  1  0  0  0  0
 15 16  1  0  0  0  0
 15 37  1  0  0  0  0
 15 38  1  0  0  0  0
 16 17  1  0  0  0  0
 17 18  1  0  0  0  0
 17 39  1  0  0  0  0
 18 19  1  0  0  0  0
 18 20  1  0  0  0  0
 19 40  1  0  0  0  0
 19 41  1  0  0  0  0
 19 42  1  0  0  0  0
 20 43  1  0  0  0  0
 20 44  1  0  0  0  0
 20 45  1  0  0  0  0
 21 22  2  0  0  0  0
 21 46  1  0  0  0  0
M  END
> <s_m_source_file>
AV-unprocessed.smi

> <i_m_source_file_index>
2923

> <i_lp_mmshare_version>
43012

> <i_f3d_flags>
0

> <s_epik_input>
W0NIM11OKFtDSDNdKWMxW2NIXVtjSF1jKFtjSF1uMSlbTkhdQyg9TylbTkhdW0NASF0yQyhbQ0gzXSkoW0NIM10pW0NAQEhdKFtDQEhdMjMpT1tDSDJdW0NIMl0z

> <s_epik_cmdline>
J2VwaWtfcHl0aG9uJywgJy1waCcsICc3LjAnLCAnLXRuJywgJzgnLCAnLW1hJywgJzIwMCcsICctbWV0YWxfYmluZGluZycsICctaW1hZScsICc8aW5maWxlLm1hZT4nLCAnLW9tYWUnLCAnPG91dGZpbGUubWFlPic=

> <r_lp_tautomer_probability>
1

> <r_epik_Ionization_Penalty>
0.628785

> <r_epik_Ionization_Penalty_Charging>
0

> <r_epik_Ionization_Penalty_Neutral>
0.628785

> <r_epik_State_Penalty>
0.644286

> <r_epik_Charging_Adjusted_Penalty>
0.644286

> <i_epik_Tot_Q>
0

> <i_epik_Tot_abs_Q>
0

> <r_epik_Metal_State_Penalty>
0.308404

> <b_epik_Metal_Only>
0

> <s_lp_Force_Field>
OPLS_2005

> <r_lp_Energy>
62.6556

> <b_lp_Chiralities_Consistent>
1

> <s_lp_Variant>
AV-unprocessed.smi:2923-15

> <Gold.Version>
5.8.1

> <Gold.Id.Protein>
6NUR|6NUR_protein|mol2

> <Gold.PLP.Fitness>
44.3956

> <Gold.PLP.PLP>
-44.6210

> <Gold.PLP.part.hbond>
0.0000

> <Gold.PLP.part.metal>
0.0000

> <Gold.PLP.part.buried>
-6.1804

> <Gold.PLP.part.nonpolar>
-38.6099

> <Gold.PLP.part.repulsive>
0.0987

> <Gold.PLP.ligand.clash>
0.0000

> <Gold.PLP.ligand.torsion>
0.2468

> <Gold.PLP.Chemscore.Hbond>
0.0000

> <Gold.PLP.Chemscore.CHOScore>
0.0000

> <Gold.PLP.Chemscore.Metal>
0.0000

> <Gold.PLP.Chemscore.Internal.Correction>
0.2682

> <Gold.Rescore>
     Score         DG    S(hbond)    S(metal)    S(lipo)     H(rot)  DE(clash)    DE(int)     intcor
     11.62     -15.46       0.00        0.00     107.16       1.00       0.07       3.77       ----

> <Gold.Chemscore.Fitness>
11.6233

> <Gold.Chemscore.DG>
-15.4576

> <Gold.Chemscore.ZeroCoef>
-5.4800

> <Gold.Chemscore.Hbond>
0.0000

> <Gold.Chemscore.Metal>
0.0000

> <Gold.Chemscore.Lipo>
107.1589

> <Gold.Chemscore.Internal_Hbond>
0.0000

> <Gold.Chemscore.DEClash>
0.0650

> <Gold.Chemscore.DEInternal>
3.7693

> <Gold.Chemscore.Rot>
1.0000

> <Gold.Chemscore.Internal.Correction>
   9.000000E+99

> <Gold.Chemscore.Hbond.Weighted>
-0.0000

> <Gold.Chemscore.Metal.Weighted>
-0.0000

> <Gold.Chemscore.Lipo.Weighted>
-12.5376

> <Gold.Chemscore.Internal_Hbond.Weighted>
0.0000

> <Gold.Chemscore.DEClash.Weighted>
0.0650

> <Gold.Chemscore.DEInternal.Weighted>
3.7693

> <Gold.Chemscore.Rot.Weighted>
2.5600

> <Gold.Chemscore.Internal.Correction.Weighted>
   9.000000E+99

> <Gold.Protein.RotatedTorsions>
[ 6907 6896 6895 6894 ] final  -72.84 input  -60.11 | X-H torsion
[ 7974 7965 7964 7962 ] final  -89.83 input  175.53 | X-H torsion
[ 8008 7997 7996 7995 ] final   48.43 input   59.86 | X-H torsion
[ 10167 10162 10161 10158 ] final  -47.13 input  -65.29 | X-H torsion
[ 10718 10713 10712 10709 ] final  -14.26 input   66.30 | X-H torsion
[ 10763 10752 10751 10750 ] final -130.92 input  -60.55 | X-H torsion
[ 11005 11000 10999 10996 ] final  -73.44 input  -57.11 | X-H torsion

> <Gold.Protein.ActiveResidues>
 VAL166  LYS551  ARG553  GLY616  TRP617  ASP618  TYR619  PRO620  LYS621  CYS622 
 ASP623  PHE694  ASN695  SER759  ASP760  ASP761  ALA762  ILE779  LEU786  VAL792 
 PHE793  MET794  SER795  GLU796  ALA797  LYS798  CYS799  TRP800  GLU811  SER814 

> <Gold.Protein.RotatedAtoms>
  150.7153  134.5103  159.5604 H   0  0  0  0  0  0  0  0  0  0  0  0  # atno 6907 bound_to 6896
  152.2681  134.7959  160.0428 H   0  0  0  0  0  0  0  0  0  0  0  0  # atno 6908 bound_to 6896
  151.8649  133.3429  159.3752 H   0  0  0  0  0  0  0  0  0  0  0  0  # atno 6909 bound_to 6896
  145.4345  140.9557  143.2109 H   0  0  0  0  0  0  0  0  0  0  0  0  # atno 7974 bound_to 7965
  155.3855  140.3431  155.4249 H   0  0  0  0  0  0  0  0  0  0  0  0  # atno 8008 bound_to 7997
  156.1587  140.1593  156.8683 H   0  0  0  0  0  0  0  0  0  0  0  0  # atno 8009 bound_to 7997
  154.5119  140.0788  156.7987 H   0  0  0  0  0  0  0  0  0  0  0  0  # atno 8010 bound_to 7997
  140.6788  143.2799  151.3882 H   0  0  0  0  0  0  0  0  0  0  0  0  # atno 10167 bound_to 10162
  156.6185  130.4869  149.6173 H   0  0  0  0  0  0  0  0  0  0  0  0  # atno 10718 bound_to 10713
  154.8753  135.3847  154.4162 H   0  0  0  0  0  0  0  0  0  0  0  0  # atno 10763 bound_to 10752
  153.4871  135.7030  153.5910 H   0  0  0  0  0  0  0  0  0  0  0  0  # atno 10764 bound_to 10752
  153.4300  135.3881  155.2132 H   0  0  0  0  0  0  0  0  0  0  0  0  # atno 10765 bound_to 10752
  141.1623  133.6878  156.7213 H   0  0  0  0  0  0  0  0  0  0  0  0  # atno 11005 bound_to 11000
  144.8161  139.5874  143.7008 LP  0  0  0  0  0  0  0  0  0  0  0  0  # atno 17320 bound_to 7965
  146.2589  139.6366  142.9375 LP  0  0  0  0  0  0  0  0  0  0  0  0  # atno 17321 bound_to 7965
  139.6097  144.1123  152.2286 LP  0  0  0  0  0  0  0  0  0  0  0  0  # atno 17342 bound_to 10162
  140.0534  144.5915  150.7319 LP  0  0  0  0  0  0  0  0  0  0  0  0  # atno 17343 bound_to 10162
  156.2331  130.6806  151.1483 LP  0  0  0  0  0  0  0  0  0  0  0  0  # atno 17370 bound_to 10713
  157.7234  131.0666  150.6037 LP  0  0  0  0  0  0  0  0  0  0  0  0  # atno 17371 bound_to 10713
  140.2814  134.8314  157.3936 LP  0  0  0  0  0  0  0  0  0  0  0  0  # atno 17394 bound_to 11000
  140.1430  134.4948  155.8017 LP  0  0  0  0  0  0  0  0  0  0  0  0  # atno 17395 bound_to 11000

$$$$
