AV-unprocessed.smi:37|AV-procd|sdf|306|dock4
  -GOLD-   2262016113D 1   1.00000     0.00000
 Structure written by MMmdl.
 44 45  0  0  0  0  0  0  0  0  1 V2000
  147.1541  135.2216  162.5556 C   0  0  0  0  0  0  0  0  0  0  0  0
  147.0716  134.9170  161.0526 C   0  0  0  0  0  0  0  0  0  0  0  0
  147.7616  135.9648  160.1770 C   0  0  0  0  0  0  0  0  0  0  0  0
  148.2794  136.9811  160.6434 O   0  0  0  0  0  0  0  0  0  0  0  0
  147.7171  135.6366  158.8793 O   0  0  0  0  0  0  0  0  0  0  0  0
  148.1782  136.5544  157.9021 C   0  0  0  0  0  0  0  0  0  0  0  0
  149.7039  136.4524  157.7303 C   0  0  1  0  0  0  0  0  0  0  0  0
  150.0698  135.0743  157.6287 O   0  0  0  0  0  0  0  0  0  0  0  0
  151.0933  134.9089  156.6927 C   0  0  2  0  0  0  0  0  0  0  0  0
  152.4537  135.0269  157.3647 N   0  0  0  0  0  0  0  0  0  0  0  0
  153.2802  136.1350  157.2014 C   0  0  0  0  0  0  0  0  0  0  0  0
  154.4789  136.2614  157.8187 C   0  0  0  0  0  0  0  0  0  0  0  0
  155.2197  137.3629  157.6087 F   0  0  0  0  0  0  0  0  0  0  0  0
  154.9654  135.2247  158.7226 C   0  0  0  0  0  0  0  0  0  0  0  0
  156.0421  135.2426  159.3154 O   0  0  0  0  0  0  0  0  0  0  0  0
  154.0842  134.1550  158.8975 N   0  0  0  0  0  0  0  0  0  0  0  0
  152.8419  134.0180  158.2766 C   0  0  0  0  0  0  0  0  0  0  0  0
  152.1313  133.0484  158.5386 O   0  0  0  0  0  0  0  0  0  0  0  0
  150.8703  136.0210  155.6577 C   0  0  1  0  0  0  0  0  0  0  0  0
  149.5148  135.3992  154.3305 Br  0  0  0  0  0  0  0  0  0  0  0  0
  150.3361  137.1616  156.5139 C   0  0  1  0  0  0  0  0  0  0  0  0
  149.4763  138.0172  155.7684 O   0  0  0  0  0  0  0  0  0  0  0  0
  149.8573  138.4882  154.5670 C   0  0  0  0  0  0  0  0  0  0  0  0
  150.9282  138.2532  154.0072 O   0  0  0  0  0  0  0  0  0  0  0  0
  148.7990  139.3781  153.9182 C   0  0  0  0  0  0  0  0  0  0  0  0
  147.5436  139.5254  154.7887 C   0  0  0  0  0  0  0  0  0  0  0  0
  154.3656  133.4253  159.5361 H   0  0  0  0  0  0  0  0  0  0  0  0
  146.6439  134.4494  163.1314 H   0  0  0  0  0  0  0  0  0  0  0  0
  146.6834  136.1761  162.7948 H   0  0  0  0  0  0  0  0  0  0  0  0
  148.1888  135.2580  162.8982 H   0  0  0  0  0  0  0  0  0  0  0  0
  147.5225  133.9456  160.8488 H   0  0  0  0  0  0  0  0  0  0  0  0
  146.0264  134.8480  160.7501 H   0  0  0  0  0  0  0  0  0  0  0  0
  147.6873  136.3579  156.9480 H   0  0  0  0  0  0  0  0  0  0  0  0
  147.9041  137.5669  158.2007 H   0  0  0  0  0  0  0  0  0  0  0  0
  150.1595  136.8667  158.6296 H   0  0  0  0  0  0  0  0  0  0  0  0
  151.0801  133.9000  156.2763 H   0  0  0  0  0  0  0  0  0  0  0  0
  152.9772  136.9562  156.5711 H   0  0  0  0  0  0  0  0  0  0  0  0
  151.7698  136.2911  155.1068 H   0  0  0  0  0  0  0  0  0  0  0  0
  151.2011  137.7257  156.8676 H   0  0  0  0  0  0  0  0  0  0  0  0
  149.2350  140.3603  153.7337 H   0  0  0  0  0  0  0  0  0  0  0  0
  148.5343  138.9619  152.9460 H   0  0  0  0  0  0  0  0  0  0  0  0
  146.8463  140.2332  154.3404 H   0  0  0  0  0  0  0  0  0  0  0  0
  147.7901  139.8915  155.7860 H   0  0  0  0  0  0  0  0  0  0  0  0
  147.0209  138.5746  154.8968 H   0  0  0  0  0  0  0  0  0  0  0  0
  1  2  1  0  0  0  0
  1 28  1  0  0  0  0
  1 29  1  0  0  0  0
  1 30  1  0  0  0  0
  2  3  1  0  0  0  0
  2 31  1  0  0  0  0
  2 32  1  0  0  0  0
  3  4  2  0  0  0  0
  3  5  1  0  0  0  0
  5  6  1  0  0  0  0
  6  7  1  0  0  0  0
  6 33  1  0  0  0  0
  6 34  1  0  0  0  0
  7 21  1  0  0  0  0
  7  8  1  0  0  0  0
  7 35  1  0  0  0  0
  8  9  1  0  0  0  0
  9 10  1  0  0  0  0
  9 19  1  0  0  0  0
  9 36  1  0  0  0  0
 10 17  1  0  0  0  0
 10 11  1  0  0  0  0
 11 12  2  0  0  0  0
 11 37  1  0  0  0  0
 12 13  1  0  0  0  0
 12 14  1  0  0  0  0
 14 15  2  0  0  0  0
 14 16  1  0  0  0  0
 16 27  1  0  0  0  0
 16 17  1  0  0  0  0
 17 18  2  0  0  0  0
 19 20  1  0  0  0  0
 19 21  1  0  0  0  0
 19 38  1  0  0  0  0
 21 22  1  0  0  0  0
 21 39  1  0  0  0  0
 22 23  1  0  0  0  0
 23 24  2  0  0  0  0
 23 25  1  0  0  0  0
 25 26  1  0  0  0  0
 25 40  1  0  0  0  0
 25 41  1  0  0  0  0
 26 42  1  0  0  0  0
 26 43  1  0  0  0  0
 26 44  1  0  0  0  0
M  END
> <s_m_source_file>
AV-unprocessed.smi

> <i_m_source_file_index>
37

> <i_lp_mmshare_version>
43012

> <i_f3d_flags>
0

> <s_epik_input>
W0NIM11bQ0gyXUMoPU8pT1tDSDJdW0NAQEhdMU9bQ0BASF0objJbY0hdYyhGKWMoPU8pW25IXWMyPU8pW0NAQEhdKEJyKVtDQEhdMU9DKD1PKVtDSDJdW0NIM10=

> <s_epik_cmdline>
J2VwaWtfcHl0aG9uJywgJy1waCcsICc3LjAnLCAnLXRuJywgJzgnLCAnLW1hJywgJzIwMCcsICctbWV0YWxfYmluZGluZycsICctaW1hZScsICc8aW5maWxlLm1hZT4nLCAnLW9tYWUnLCAnPG91dGZpbGUubWFlPic=

> <r_lp_tautomer_probability>
0.999537

> <r_epik_Ionization_Penalty>
0.104106

> <r_epik_Ionization_Penalty_Charging>
0.104106

> <r_epik_Ionization_Penalty_Neutral>
3.94675e-16

> <r_epik_State_Penalty>
0.0940182

> <r_epik_Charging_Adjusted_Penalty>
0.198124

> <i_epik_Tot_Q>
0

> <i_epik_Tot_abs_Q>
0

> <r_epik_Metal_State_Penalty>
3.05314

> <b_epik_Metal_Only>
0

> <s_epik_Chemistry_Notes>
This compound has an ester and may undergo hydrolysis at high or low pH. This compound contains an acetal/aminal-like group ( X-CH(R)-Y where X, Y are N, S, or O) that may be acid/base labile, releasing an aldehyde.

> <s_lp_Force_Field>
OPLS_2005

> <r_lp_Energy>
23.6922

> <b_lp_Chiralities_Consistent>
1

> <s_lp_Variant>
AV-unprocessed.smi:37-4

> <Gold.Version>
5.8.1

> <Gold.Id.Protein>
6NUR|6NUR_protein|mol2

> <Gold.PLP.Fitness>
49.4717

> <Gold.PLP.PLP>
-39.0372

> <Gold.PLP.part.hbond>
-5.1232

> <Gold.PLP.part.metal>
0.0000

> <Gold.PLP.part.buried>
-7.6051

> <Gold.PLP.part.nonpolar>
-27.1418

> <Gold.PLP.part.repulsive>
0.0413

> <Gold.PLP.ligand.clash>
0.0000

> <Gold.PLP.ligand.torsion>
0.4807

> <Gold.PLP.Chemscore.Hbond>
3.7520

> <Gold.PLP.Chemscore.CHOScore>
0.0000

> <Gold.PLP.Chemscore.Metal>
0.0000

> <Gold.Chemscore.Hbonds>
donor molecule, donor type, donor heavy atom, donor atom, acceptor molecule, acceptor atom, score
      P1  H  6896  6909       L1     8  0.76
      P1  H  6931  6943       L1     4  0.90
      P1  H  6934  6947       L1     4  0.17

> <Gold.PLP.Chemscore.Internal.Correction>
0.1399

> <Gold.Rescore>
     Score         DG    S(hbond)    S(metal)    S(lipo)     H(rot)  DE(clash)    DE(int)     intcor
     13.65     -15.77       3.61        0.00      57.73       3.33       0.02       2.10       ----

> <Gold.Chemscore.Fitness>
13.6507

> <Gold.Chemscore.DG>
-15.7707

> <Gold.Chemscore.ZeroCoef>
-5.4800

> <Gold.Chemscore.Hbond>
3.6112

> <Gold.Chemscore.Metal>
0.0000

> <Gold.Chemscore.Lipo>
57.7341

> <Gold.Chemscore.Internal_Hbond>
0.0000

> <Gold.Chemscore.DEClash>
0.0174

> <Gold.Chemscore.DEInternal>
2.1027

> <Gold.Chemscore.Rot>
3.3303

> <Gold.Chemscore.Internal.Correction>
   9.000000E+99

> <Gold.Chemscore.Hbonds>
donor molecule, donor type, donor heavy atom, donor atom, acceptor molecule, acceptor atom, score
      P1  H  6896  6909       L1     8  0.36
      P1  H  6931  6943       L1     4  0.88
      P1  H  6934  6947       L1     4  0.18

> <Gold.Chemscore.Hbond.Weighted>
-12.0614

> <Gold.Chemscore.Metal.Weighted>
-0.0000

> <Gold.Chemscore.Lipo.Weighted>
-6.7549

> <Gold.Chemscore.Internal_Hbond.Weighted>
0.0000

> <Gold.Chemscore.DEClash.Weighted>
0.0174

> <Gold.Chemscore.DEInternal.Weighted>
2.1027

> <Gold.Chemscore.Rot.Weighted>
8.5256

> <Gold.Chemscore.Internal.Correction.Weighted>
   9.000000E+99

> <Gold.Protein.RotatedTorsions>
[ 6907 6896 6895 6894 ] final   41.14 input  -60.11 | X-H torsion
[ 7974 7965 7964 7962 ] final -100.61 input  175.53 | X-H torsion
[ 8008 7997 7996 7995 ] final   -1.75 input   59.86 | X-H torsion
[ 10167 10162 10161 10158 ] final   26.34 input  -65.29 | X-H torsion
[ 10718 10713 10712 10709 ] final   83.76 input   66.30 | X-H torsion
[ 10763 10752 10751 10750 ] final -155.95 input  -60.55 | X-H torsion
[ 11005 11000 10999 10996 ] final -109.52 input  -57.11 | X-H torsion

> <Gold.Protein.ActiveResidues>
 VAL166  LYS551  ARG553  GLY616  TRP617  ASP618  TYR619  PRO620  LYS621  CYS622 
 ASP623  PHE694  ASN695  SER759  ASP760  ASP761  ALA762  ILE779  LEU786  VAL792 
 PHE793  MET794  SER795  GLU796  ALA797  LYS798  CYS799  TRP800  GLU811  SER814 

> <Gold.Protein.RotatedAtoms>
  152.1915  134.8668  160.0516 H   0  0  0  0  0  0  0  0  0  0  0  0  # atno 6907 bound_to 6896
  151.9555  133.3674  159.4024 H   0  0  0  0  0  0  0  0  0  0  0  0  # atno 6908 bound_to 6896
  150.6936  134.4219  159.5253 H   0  0  0  0  0  0  0  0  0  0  0  0  # atno 6909 bound_to 6896
  145.2924  140.9356  143.2870 H   0  0  0  0  0  0  0  0  0  0  0  0  # atno 7974 bound_to 7965
  154.6433  140.2551  155.7297 H   0  0  0  0  0  0  0  0  0  0  0  0  # atno 8008 bound_to 7997
  156.2540  140.2883  156.0757 H   0  0  0  0  0  0  0  0  0  0  0  0  # atno 8009 bound_to 7997
  155.1562  140.0383  157.2822 H   0  0  0  0  0  0  0  0  0  0  0  0  # atno 8010 bound_to 7997
  140.5030  144.0283  150.6341 H   0  0  0  0  0  0  0  0  0  0  0  0  # atno 10167 bound_to 10162
  157.6885  131.0104  150.2571 H   0  0  0  0  0  0  0  0  0  0  0  0  # atno 10718 bound_to 10713
  154.7749  135.3156  154.8112 H   0  0  0  0  0  0  0  0  0  0  0  0  # atno 10763 bound_to 10752
  153.8838  135.6832  153.4769 H   0  0  0  0  0  0  0  0  0  0  0  0  # atno 10764 bound_to 10752
  153.1371  135.4755  154.9374 H   0  0  0  0  0  0  0  0  0  0  0  0  # atno 10765 bound_to 10752
  141.0843  133.9166  157.2220 H   0  0  0  0  0  0  0  0  0  0  0  0  # atno 11005 bound_to 11000
  144.9162  139.4468  143.6563 LP  0  0  0  0  0  0  0  0  0  0  0  0  # atno 17320 bound_to 7965
  146.3180  139.7997  142.8968 LP  0  0  0  0  0  0  0  0  0  0  0  0  # atno 17321 bound_to 7965
  140.3585  143.2922  152.0410 LP  0  0  0  0  0  0  0  0  0  0  0  0  # atno 17342 bound_to 10162
  139.4877  144.6321  151.7049 LP  0  0  0  0  0  0  0  0  0  0  0  0  # atno 17343 bound_to 10162
  156.3157  130.3778  149.7621 LP  0  0  0  0  0  0  0  0  0  0  0  0  # atno 17370 bound_to 10713
  156.5207  130.8213  151.3202 LP  0  0  0  0  0  0  0  0  0  0  0  0  # atno 17371 bound_to 10713
  139.9660  135.0142  156.9387 LP  0  0  0  0  0  0  0  0  0  0  0  0  # atno 17394 bound_to 11000
  140.5398  134.0731  155.7338 LP  0  0  0  0  0  0  0  0  0  0  0  0  # atno 17395 bound_to 11000

$$$$
