AV-unprocessed.smi:3202|AV-procd|sdf|12242|dock1
  -GOLD-   2272018 73D 1   1.00000     0.00000
 Structure written by MMmdl.
 43 44  0  0  0  0  0  0  0  0  2 V2000
  147.2401  142.0248  153.9330 C   0  0  0  0  0  0  0  0  0  0  0  0
  148.5073  141.3604  154.3526 C   0  0  0  0  0  0  0  0  0  0  0  0
  149.1760  141.3585  155.5444 C   0  0  0  0  0  0  0  0  0  0  0  0
  150.3213  140.5435  155.3057 C   0  0  0  0  0  0  0  0  0  0  0  0
  151.4181  140.1876  156.2733 C   0  0  0  0  0  0  0  0  0  0  0  0
  151.2247  140.7951  157.6804 C   0  0  1  0  0  0  0  0  0  0  0  0
  152.2980  140.3419  158.6839 C   0  0  0  0  0  0  0  0  0  0  0  0
  151.2365  142.2736  157.6022 N   0  3  0  0  0  0  0  0  0  0  0  0
  151.0552  142.9949  158.8840 C   0  0  2  0  0  0  0  0  0  0  0  0
  149.8500  143.9432  158.9010 C   0  0  0  0  0  0  0  0  0  0  0  0
  150.1688  144.9793  159.9859 C   0  0  0  0  0  0  0  0  0  0  0  0
  151.6494  144.7852  160.3510 C   0  0  0  0  0  0  0  0  0  0  0  0
  152.2601  143.8829  159.2620 C   0  0  0  0  0  0  0  0  0  0  0  0
  153.4305  143.0503  159.8185 C   0  0  0  0  0  0  0  0  0  0  0  0
  152.7589  144.7512  158.0831 C   0  0  0  0  0  0  0  0  0  0  0  0
  150.3580  140.0758  154.0657 N   0  0  0  0  0  0  0  0  0  0  0  0
  149.2481  140.5802  153.4953 N   0  0  0  0  0  0  0  0  0  0  0  0
  149.0134  140.3889  152.5312 H   0  0  0  0  0  0  0  0  0  0  0  0
  146.6852  142.3879  154.7983 H   0  0  0  0  0  0  0  0  0  0  0  0
  146.5980  141.3316  153.3889 H   0  0  0  0  0  0  0  0  0  0  0  0
  147.4467  142.8761  153.2841 H   0  0  0  0  0  0  0  0  0  0  0  0
  148.8905  141.8664  156.4538 H   0  0  0  0  0  0  0  0  0  0  0  0
  151.4983  139.1026  156.3553 H   0  0  0  0  0  0  0  0  0  0  0  0
  152.3695  140.5181  155.8579 H   0  0  0  0  0  0  0  0  0  0  0  0
  150.2595  140.4683  158.0710 H   0  0  0  0  0  0  0  0  0  0  0  0
  152.2496  139.2685  158.8673 H   0  0  0  0  0  0  0  0  0  0  0  0
  152.1655  140.8352  159.6477 H   0  0  0  0  0  0  0  0  0  0  0  0
  153.3013  140.5755  158.3262 H   0  0  0  0  0  0  0  0  0  0  0  0
  152.1431  142.5419  157.2465 H   0  0  0  0  0  0  0  0  0  0  0  0
  150.9174  142.2557  159.6756 H   0  0  0  0  0  0  0  0  0  0  0  0
  149.7484  144.4497  157.9404 H   0  0  0  0  0  0  0  0  0  0  0  0
  148.9142  143.4178  159.0953 H   0  0  0  0  0  0  0  0  0  0  0  0
  149.9855  145.9876  159.6121 H   0  0  0  0  0  0  0  0  0  0  0  0
  149.5377  144.8383  160.8643 H   0  0  0  0  0  0  0  0  0  0  0  0
  152.1757  145.7350  160.4555 H   0  0  0  0  0  0  0  0  0  0  0  0
  151.7047  144.2889  161.3212 H   0  0  0  0  0  0  0  0  0  0  0  0
  154.2440  143.6928  160.1575 H   0  0  0  0  0  0  0  0  0  0  0  0
  153.8348  142.3793  159.0600 H   0  0  0  0  0  0  0  0  0  0  0  0
  153.1224  142.4379  160.6667 H   0  0  0  0  0  0  0  0  0  0  0  0
  153.5447  145.4343  158.4069 H   0  0  0  0  0  0  0  0  0  0  0  0
  151.9624  145.3588  157.6533 H   0  0  0  0  0  0  0  0  0  0  0  0
  153.1778  144.1424  157.2814 H   0  0  0  0  0  0  0  0  0  0  0  0
  150.5366  142.5788  156.9412 H   0  0  0  0  0  0  0  0  0  0  0  0
  1  2  1  0  0  0  0
  1 19  1  0  0  0  0
  1 20  1  0  0  0  0
  1 21  1  0  0  0  0
  2 17  1  0  0  0  0
  2  3  2  0  0  0  0
  3  4  1  0  0  0  0
  3 22  1  0  0  0  0
  4  5  1  0  0  0  0
  4 16  2  0  0  0  0
  5  6  1  0  0  0  0
  5 23  1  0  0  0  0
  5 24  1  0  0  0  0
  6  7  1  0  0  0  0
  6  8  1  0  0  0  0
  6 25  1  0  0  0  0
  7 26  1  0  0  0  0
  7 27  1  0  0  0  0
  7 28  1  0  0  0  0
  8  9  1  0  0  0  0
  8 29  1  0  0  0  0
  8 43  1  0  0  0  0
  9 13  1  0  0  0  0
  9 10  1  0  0  0  0
  9 30  1  0  0  0  0
 10 11  1  0  0  0  0
 10 31  1  0  0  0  0
 10 32  1  0  0  0  0
 11 12  1  0  0  0  0
 11 33  1  0  0  0  0
 11 34  1  0  0  0  0
 12 13  1  0  0  0  0
 12 35  1  0  0  0  0
 12 36  1  0  0  0  0
 13 14  1  0  0  0  0
 13 15  1  0  0  0  0
 14 37  1  0  0  0  0
 14 38  1  0  0  0  0
 14 39  1  0  0  0  0
 15 40  1  0  0  0  0
 15 41  1  0  0  0  0
 15 42  1  0  0  0  0
 16 17  1  0  0  0  0
 17 18  1  0  0  0  0
M  CHG  1   8   1
M  END
> <s_m_source_file>
AV-unprocessed.smi

> <i_m_source_file_index>
3202

> <i_lp_mmshare_version>
43012

> <i_f3d_flags>
0

> <s_epik_input>
W0NIM11jMVtjSF1jKG5bbkhdMSlbQ0gyXVtDQEhdKFtDSDNdKVtOSF1bQ0BASF0oQzIoW0NIM10pW0NIM10pW0NIMl1bQ0gyXVtDSDJdMg==

> <s_epik_cmdline>
J2VwaWtfcHl0aG9uJywgJy1waCcsICc3LjAnLCAnLXRuJywgJzgnLCAnLW1hJywgJzIwMCcsICctbWV0YWxfYmluZGluZycsICctaW1hZScsICc8aW5maWxlLm1hZT4nLCAnLW9tYWUnLCAnPG91dGZpbGUubWFlPic=

> <r_lp_tautomer_probability>
0.5

> <r_epik_Ionization_Penalty>
0.000341671

> <r_epik_Ionization_Penalty_Charging>
0.000281809

> <r_epik_Ionization_Penalty_Neutral>
5.9862e-05

> <r_epik_State_Penalty>
0.41068

> <r_epik_Charging_Adjusted_Penalty>
0.410962

> <i_epik_Tot_Q>
1

> <i_epik_Tot_abs_Q>
1

> <r_epik_Metal_State_Penalty>
0.410672

> <b_epik_Metal_Only>
0

> <s_lp_Force_Field>
OPLS_2005

> <r_lp_Energy>
29.8366

> <b_lp_Chiralities_Consistent>
1

> <s_lp_Variant>
AV-unprocessed.smi:3202-2

> <Gold.Version>
5.8.1

> <Gold.Id.Protein>
6NUR|6NUR_protein|mol2

> <Gold.PLP.Fitness>
47.5082

> <Gold.PLP.PLP>
-43.4089

> <Gold.PLP.part.hbond>
-1.7412

> <Gold.PLP.part.metal>
0.0000

> <Gold.PLP.part.buried>
-6.8911

> <Gold.PLP.part.nonpolar>
-35.7243

> <Gold.PLP.part.repulsive>
1.5683

> <Gold.PLP.ligand.clash>
0.0000

> <Gold.PLP.ligand.torsion>
0.7587

> <Gold.PLP.Chemscore.Hbond>
1.8640

> <Gold.PLP.Chemscore.CHOScore>
0.0000

> <Gold.PLP.Chemscore.Metal>
0.0000

> <Gold.Chemscore.Hbonds>
donor molecule, donor type, donor heavy atom, donor atom, acceptor molecule, acceptor atom, score
      L1  H    17    18       P1  7957  0.88
      P1  H  7989  7998       L1    16  1.00

> <Gold.PLP.Chemscore.Internal.Correction>
0.0248

> <Gold.Rescore>
     Score         DG    S(hbond)    S(metal)    S(lipo)     H(rot)  DE(clash)    DE(int)     intcor
     19.91     -20.89       1.62        0.00     117.32       1.46       0.18       0.79       ----

> <Gold.Chemscore.Fitness>
19.9149

> <Gold.Chemscore.DG>
-20.8876

> <Gold.Chemscore.ZeroCoef>
-5.4800

> <Gold.Chemscore.Hbond>
1.6219

> <Gold.Chemscore.Metal>
0.0000

> <Gold.Chemscore.Lipo>
117.3237

> <Gold.Chemscore.Internal_Hbond>
0.0000

> <Gold.Chemscore.DEClash>
0.1809

> <Gold.Chemscore.DEInternal>
0.7918

> <Gold.Chemscore.Rot>
1.4596

> <Gold.Chemscore.Internal.Correction>
   9.000000E+99

> <Gold.Chemscore.Hbonds>
donor molecule, donor type, donor heavy atom, donor atom, acceptor molecule, acceptor atom, score
      L1  H    17    18       P1  7957  0.81
      P1  H  7989  7998       L1    16  0.19

> <Gold.Chemscore.Hbond.Weighted>
-5.4173

> <Gold.Chemscore.Metal.Weighted>
-0.0000

> <Gold.Chemscore.Lipo.Weighted>
-13.7269

> <Gold.Chemscore.Internal_Hbond.Weighted>
0.0000

> <Gold.Chemscore.DEClash.Weighted>
0.1809

> <Gold.Chemscore.DEInternal.Weighted>
0.7918

> <Gold.Chemscore.Rot.Weighted>
3.7365

> <Gold.Chemscore.Internal.Correction.Weighted>
   9.000000E+99

> <Gold.Protein.RotatedTorsions>
[ 6907 6896 6895 6894 ] final   55.89 input  -60.11 | X-H torsion
[ 7974 7965 7964 7962 ] final -168.84 input  175.53 | X-H torsion
[ 8008 7997 7996 7995 ] final  -66.94 input   59.86 | X-H torsion
[ 10167 10162 10161 10158 ] final    9.55 input  -65.29 | X-H torsion
[ 10718 10713 10712 10709 ] final   30.89 input   66.30 | X-H torsion
[ 10763 10752 10751 10750 ] final  -91.69 input  -60.55 | X-H torsion
[ 11005 11000 10999 10996 ] final  -96.19 input  -57.11 | X-H torsion

> <Gold.Protein.ActiveResidues>
 VAL166  LYS551  ARG553  GLY616  TRP617  ASP618  TYR619  PRO620  LYS621  CYS622 
 ASP623  PHE694  ASN695  SER759  ASP760  ASP761  ALA762  ILE779  LEU786  VAL792 
 PHE793  MET794  SER795  GLU796  ALA797  LYS798  CYS799  TRP800  GLU811  SER814 

> <Gold.Protein.RotatedAtoms>
  152.3583  134.6908  160.0214 H   0  0  0  0  0  0  0  0  0  0  0  0  # atno 6907 bound_to 6896
  151.7240  133.3310  159.3331 H   0  0  0  0  0  0  0  0  0  0  0  0  # atno 6908 bound_to 6896
  150.7587  134.6357  159.6254 H   0  0  0  0  0  0  0  0  0  0  0  0  # atno 6909 bound_to 6896
  144.7196  140.2310  143.6304 H   0  0  0  0  0  0  0  0  0  0  0  0  # atno 7974 bound_to 7965
  154.4767  140.0902  156.7280 H   0  0  0  0  0  0  0  0  0  0  0  0  # atno 8008 bound_to 7997
  155.4577  140.3460  155.4290 H   0  0  0  0  0  0  0  0  0  0  0  0  # atno 8009 bound_to 7997
  156.1128  140.1452  156.9303 H   0  0  0  0  0  0  0  0  0  0  0  0  # atno 8010 bound_to 7997
  140.6248  143.8125  150.7219 H   0  0  0  0  0  0  0  0  0  0  0  0  # atno 10167 bound_to 10162
  157.2655  130.7182  149.6476 H   0  0  0  0  0  0  0  0  0  0  0  0  # atno 10718 bound_to 10713
  154.6785  135.5259  153.8232 H   0  0  0  0  0  0  0  0  0  0  0  0  # atno 10763 bound_to 10752
  153.0549  135.6546  154.0612 H   0  0  0  0  0  0  0  0  0  0  0  0  # atno 10764 bound_to 10752
  154.0502  135.2970  155.3321 H   0  0  0  0  0  0  0  0  0  0  0  0  # atno 10765 bound_to 10752
  141.1419  133.8080  157.0538 H   0  0  0  0  0  0  0  0  0  0  0  0  # atno 11005 bound_to 11000
  145.8411  139.2130  143.1827 LP  0  0  0  0  0  0  0  0  0  0  0  0  # atno 17320 bound_to 7965
  146.0345  140.8225  142.9859 LP  0  0  0  0  0  0  0  0  0  0  0  0  # atno 17321 bound_to 7965
  140.1723  143.4184  152.1992 LP  0  0  0  0  0  0  0  0  0  0  0  0  # atno 17342 bound_to 10162
  139.5470  144.7307  151.4552 LP  0  0  0  0  0  0  0  0  0  0  0  0  # atno 17343 bound_to 10162
  155.9663  130.4384  150.5215 LP  0  0  0  0  0  0  0  0  0  0  0  0  # atno 17370 bound_to 10713
  157.3129  131.0667  151.1988 LP  0  0  0  0  0  0  0  0  0  0  0  0  # atno 17371 bound_to 10713
  140.0615  134.9752  157.1312 LP  0  0  0  0  0  0  0  0  0  0  0  0  # atno 17394 bound_to 11000
  140.3842  134.2254  155.7169 LP  0  0  0  0  0  0  0  0  0  0  0  0  # atno 17395 bound_to 11000

$$$$
