AV-unprocessed.smi:2176|AV-procd|sdf|8847|dock1
  -GOLD-   2272012 43D 1   1.00000     0.00000
 Structure written by MMmdl.
 28 29  0  0  0  0  0  0  0  0  2 V2000
  150.9683  140.9679  158.2154 O   0  0  0  0  0  0  0  0  0  0  0  0
  150.7919  141.8726  157.3984 C   0  0  0  0  0  0  0  0  0  0  0  0
  150.9804  141.6128  155.8982 C   0  0  0  0  0  0  0  0  0  0  0  0
  151.0732  140.1781  155.5854 N   0  0  0  0  0  0  0  0  0  0  0  0
  150.1515  139.6449  154.6672 C   0  0  0  0  0  0  0  0  0  0  0  0
  150.1679  138.3442  154.3186 C   0  0  0  0  0  0  0  0  0  0  0  0
  151.1759  137.4805  154.9207 C   0  0  0  0  0  0  0  0  0  0  0  0
  151.2025  136.2892  154.6178 O   0  0  0  0  0  0  0  0  0  0  0  0
  152.0509  138.0459  155.8028 N   0  5  0  0  0  0  0  0  0  0  0  0
  152.0243  139.3711  156.1461 C   0  0  0  0  0  0  0  0  0  0  0  0
  152.8253  139.8615  156.9429 O   0  0  0  0  0  0  0  0  0  0  0  0
  150.4587  143.1232  157.7470 N   0  0  0  0  0  0  0  0  0  0  0  0
  150.2200  143.5653  159.1128 C   0  0  0  0  0  0  0  0  0  0  0  0
  151.4411  144.1496  159.7911 C   0  0  0  0  0  0  0  0  0  0  0  0
  152.3260  145.1350  159.0644 C   0  0  0  0  0  0  0  0  0  0  0  0
  152.8326  143.7442  159.3650 C   0  0  0  0  0  0  0  0  0  0  0  0
  150.1674  142.0698  155.3304 H   0  0  0  0  0  0  0  0  0  0  0  0
  151.8825  142.1335  155.5748 H   0  0  0  0  0  0  0  0  0  0  0  0
  149.4429  140.3527  154.2631 H   0  0  0  0  0  0  0  0  0  0  0  0
  149.4552  137.9507  153.6089 H   0  0  0  0  0  0  0  0  0  0  0  0
  150.3351  143.8058  157.0133 H   0  0  0  0  0  0  0  0  0  0  0  0
  149.4176  144.3053  159.1274 H   0  0  0  0  0  0  0  0  0  0  0  0
  149.8743  142.7130  159.6991 H   0  0  0  0  0  0  0  0  0  0  0  0
  151.3015  144.3421  160.8534 H   0  0  0  0  0  0  0  0  0  0  0  0
  152.0837  145.3674  158.0292 H   0  0  0  0  0  0  0  0  0  0  0  0
  152.7431  145.9574  159.6418 H   0  0  0  0  0  0  0  0  0  0  0  0
  153.5835  143.6378  160.1450 H   0  0  0  0  0  0  0  0  0  0  0  0
  152.9255  143.0513  158.5310 H   0  0  0  0  0  0  0  0  0  0  0  0
  1  2  2  0  0  0  0
  2  3  1  0  0  0  0
  2 12  1  0  0  0  0
  3  4  1  0  0  0  0
  3 17  1  0  0  0  0
  3 18  1  0  0  0  0
  4 10  1  0  0  0  0
  4  5  1  0  0  0  0
  5  6  2  0  0  0  0
  5 19  1  0  0  0  0
  6  7  1  0  0  0  0
  6 20  1  0  0  0  0
  7  8  2  0  0  0  0
  7  9  1  0  0  0  0
  9 10  1  0  0  0  0
 10 11  2  0  0  0  0
 12 13  1  0  0  0  0
 12 21  1  0  0  0  0
 13 14  1  0  0  0  0
 13 22  1  0  0  0  0
 13 23  1  0  0  0  0
 14 16  1  0  0  0  0
 14 15  1  0  0  0  0
 14 24  1  0  0  0  0
 15 16  1  0  0  0  0
 15 25  1  0  0  0  0
 15 26  1  0  0  0  0
 16 27  1  0  0  0  0
 16 28  1  0  0  0  0
M  CHG  1   9  -1
M  END
> <s_m_source_file>
AV-unprocessed.smi

> <i_m_source_file_index>
2176

> <i_lp_mmshare_version>
43012

> <i_f3d_flags>
0

> <s_epik_input>
W0NIMl0xW0NIMl1bQ0hdMVtDSDJdW05IXUMoPU8pW0NIMl1uMltjSF1bY0hdYyg9TylbbkhdYzI9Tw==

> <s_epik_cmdline>
J2VwaWtfcHl0aG9uJywgJy1waCcsICc3LjAnLCAnLXRuJywgJzgnLCAnLW1hJywgJzIwMCcsICctbWV0YWxfYmluZGluZycsICctaW1hZScsICc8aW5maWxlLm1hZT4nLCAnLW9tYWUnLCAnPG91dGZpbGUubWFlPic=

> <r_lp_tautomer_probability>
0.999537

> <r_epik_Ionization_Penalty>
3.07884

> <r_epik_Ionization_Penalty_Charging>
2.64713e-08

> <r_epik_Ionization_Penalty_Neutral>
3.07884

> <r_epik_State_Penalty>
3.07787

> <r_epik_Charging_Adjusted_Penalty>
3.07787

> <i_epik_Tot_Q>
-1

> <i_epik_Tot_abs_Q>
1

> <r_epik_Metal_State_Penalty>
0.459857

> <b_epik_Metal_Only>
1

> <s_lp_Force_Field>
OPLS_2005

> <r_lp_Energy>
21.5126

> <b_lp_Chiralities_Consistent>
1

> <s_lp_Variant>
AV-unprocessed.smi:2176-2

> <Gold.Version>
5.8.1

> <Gold.Id.Protein>
6NUR|6NUR_protein|mol2

> <Gold.PLP.Fitness>
42.6580

> <Gold.PLP.PLP>
-34.4897

> <Gold.PLP.part.hbond>
-3.0000

> <Gold.PLP.part.metal>
0.0000

> <Gold.PLP.part.buried>
-2.5896

> <Gold.PLP.part.nonpolar>
-27.5553

> <Gold.PLP.part.repulsive>
0.1845

> <Gold.PLP.ligand.clash>
0.0000

> <Gold.PLP.ligand.torsion>
0.6037

> <Gold.PLP.Chemscore.Hbond>
2.9440

> <Gold.PLP.Chemscore.CHOScore>
0.0000

> <Gold.PLP.Chemscore.Metal>
0.0000

> <Gold.Chemscore.Hbonds>
donor molecule, donor type, donor heavy atom, donor atom, acceptor molecule, acceptor atom, score
      L1  H    12    21       P1  8028  0.61
      P1  H  7997  8010       L1    11  1.00
      P1  H 10752 10763       L1     8  1.00

> <Gold.PLP.Chemscore.Internal.Correction>
0.5437

> <Gold.Rescore>
     Score         DG    S(hbond)    S(metal)    S(lipo)     H(rot)  DE(clash)    DE(int)     intcor
     12.76     -16.58       2.71        0.00      61.18       1.99       0.17       3.65       ----

> <Gold.Chemscore.Fitness>
12.7621

> <Gold.Chemscore.DG>
-16.5809

> <Gold.Chemscore.ZeroCoef>
-5.4800

> <Gold.Chemscore.Hbond>
2.7054

> <Gold.Chemscore.Metal>
0.0000

> <Gold.Chemscore.Lipo>
61.1779

> <Gold.Chemscore.Internal_Hbond>
0.0000

> <Gold.Chemscore.DEClash>
0.1664

> <Gold.Chemscore.DEInternal>
3.6524

> <Gold.Chemscore.Rot>
1.9895

> <Gold.Chemscore.Internal.Correction>
   9.000000E+99

> <Gold.Chemscore.Hbonds>
donor molecule, donor type, donor heavy atom, donor atom, acceptor molecule, acceptor atom, score
      L1  H    12    21       P1  8028  0.58
      P1  H  7997  8010       L1    11  0.98
      P1  H 10752 10763       L1     8  0.88

> <Gold.Chemscore.Hbond.Weighted>
-9.0362

> <Gold.Chemscore.Metal.Weighted>
-0.0000

> <Gold.Chemscore.Lipo.Weighted>
-7.1578

> <Gold.Chemscore.Internal_Hbond.Weighted>
0.0000

> <Gold.Chemscore.DEClash.Weighted>
0.1664

> <Gold.Chemscore.DEInternal.Weighted>
3.6524

> <Gold.Chemscore.Rot.Weighted>
5.0931

> <Gold.Chemscore.Internal.Correction.Weighted>
   9.000000E+99

> <Gold.Protein.RotatedTorsions>
[ 6907 6896 6895 6894 ] final  168.60 input  -60.11 | X-H torsion
[ 7974 7965 7964 7962 ] final   34.19 input  175.53 | X-H torsion
[ 8008 7997 7996 7995 ] final   55.18 input   59.86 | X-H torsion
[ 10167 10162 10161 10158 ] final   30.14 input  -65.29 | X-H torsion
[ 10718 10713 10712 10709 ] final  121.48 input   66.30 | X-H torsion
[ 10763 10752 10751 10750 ] final   46.64 input  -60.55 | X-H torsion
[ 11005 11000 10999 10996 ] final -147.77 input  -57.11 | X-H torsion

> <Gold.Protein.ActiveResidues>
 VAL166  LYS551  ARG553  GLY616  TRP617  ASP618  TYR619  PRO620  LYS621  CYS622 
 ASP623  PHE694  ASN695  SER759  ASP760  ASP761  ALA762  ILE779  LEU786  VAL792 
 PHE793  MET794  SER795  GLU796  ALA797  LYS798  CYS799  TRP800  GLU811  SER814 

> <Gold.Protein.RotatedAtoms>
  151.8451  133.3430  159.3655 H   0  0  0  0  0  0  0  0  0  0  0  0  # atno 6907 bound_to 6896
  150.7223  134.5353  159.5730 H   0  0  0  0  0  0  0  0  0  0  0  0  # atno 6908 bound_to 6896
  152.2835  134.7802  160.0443 H   0  0  0  0  0  0  0  0  0  0  0  0  # atno 6909 bound_to 6896
  146.1370  139.6301  142.9189 H   0  0  0  0  0  0  0  0  0  0  0  0  # atno 7974 bound_to 7965
  155.4968  140.3473  155.4364 H   0  0  0  0  0  0  0  0  0  0  0  0  # atno 8008 bound_to 7997
  156.0940  140.1418  156.9583 H   0  0  0  0  0  0  0  0  0  0  0  0  # atno 8009 bound_to 7997
  154.4652  140.0920  156.6978 H   0  0  0  0  0  0  0  0  0  0  0  0  # atno 8010 bound_to 7997
  140.4704  144.0771  150.6236 H   0  0  0  0  0  0  0  0  0  0  0  0  # atno 10167 bound_to 10162
  157.5814  131.1074  150.8179 H   0  0  0  0  0  0  0  0  0  0  0  0  # atno 10718 bound_to 10713
  152.9808  135.6002  154.3632 H   0  0  0  0  0  0  0  0  0  0  0  0  # atno 10763 bound_to 10752
  154.3312  135.2768  155.2472 H   0  0  0  0  0  0  0  0  0  0  0  0  # atno 10764 bound_to 10752
  154.4596  135.5969  153.6302 H   0  0  0  0  0  0  0  0  0  0  0  0  # atno 10765 bound_to 10752
  140.7682  134.3220  157.5082 H   0  0  0  0  0  0  0  0  0  0  0  0  # atno 11005 bound_to 11000
  145.5134  141.0434  143.2475 LP  0  0  0  0  0  0  0  0  0  0  0  0  # atno 17320 bound_to 7965
  144.7750  139.6649  143.7178 LP  0  0  0  0  0  0  0  0  0  0  0  0  # atno 17321 bound_to 7965
  140.3984  143.2716  151.9977 LP  0  0  0  0  0  0  0  0  0  0  0  0  # atno 17342 bound_to 10162
  139.4818  144.6019  151.7591 LP  0  0  0  0  0  0  0  0  0  0  0  0  # atno 17343 bound_to 10162
  156.8625  130.5118  149.5302 LP  0  0  0  0  0  0  0  0  0  0  0  0  # atno 17370 bound_to 10713
  156.0860  130.5858  150.9649 LP  0  0  0  0  0  0  0  0  0  0  0  0  # atno 17371 bound_to 10713
  139.8760  134.9244  156.3349 LP  0  0  0  0  0  0  0  0  0  0  0  0  # atno 17394 bound_to 11000
  140.9599  133.7395  156.0387 LP  0  0  0  0  0  0  0  0  0  0  0  0  # atno 17395 bound_to 11000

$$$$
