AV-unprocessed.smi:467|AV-procd|sdf|2648|dock3
  -GOLD-   2262023 63D 1   1.00000     0.00000
 Structure written by MMmdl.
 45 47  0  0  0  0  0  0  0  0  2 V2000
  151.8059  144.9088  160.8706 C   0  0  0  0  0  0  0  0  0  0  0  0
  151.6619  143.7778  159.8664 C   0  0  0  0  0  0  0  0  0  0  0  0
  150.8861  144.0010  158.7066 C   0  0  0  0  0  0  0  0  0  0  0  0
  150.7762  142.9490  157.8049 C   0  0  0  0  0  0  0  0  0  0  0  0
  150.0997  142.8565  156.5867 N   0  3  0  0  0  0  0  0  0  0  0  0
  150.2861  141.6161  156.0565 C   0  0  0  0  0  0  0  0  0  0  0  0
  151.0682  140.9132  156.9198 N   0  0  0  0  0  0  0  0  0  0  0  0
  151.5584  139.5302  156.8272 C   0  0  0  0  0  0  0  0  0  0  0  0
  151.1457  138.8305  155.5173 C   0  0  1  0  0  0  0  0  0  0  0  0
  151.6872  139.5309  154.4148 O   0  0  0  0  0  0  0  0  0  0  0  0
  151.6596  137.3778  155.4692 C   0  0  0  0  0  0  0  0  0  0  0  0
  150.7829  136.3769  156.0805 N   0  0  0  0  0  0  0  0  0  0  0  0
  150.5074  136.6459  157.4910 C   0  0  0  0  0  0  0  0  0  0  0  0
  149.6078  135.5647  158.1155 C   0  0  0  0  0  0  0  0  0  0  0  0
  150.2094  134.2851  157.9506 O   0  0  0  0  0  0  0  0  0  0  0  0
  150.4510  133.9655  156.5847 C   0  0  0  0  0  0  0  0  0  0  0  0
  151.3561  135.0405  155.9588 C   0  0  0  0  0  0  0  0  0  0  0  0
  151.4007  141.7059  158.0253 C   0  0  0  0  0  0  0  0  0  0  0  0
  152.1677  141.4697  159.1639 C   0  0  0  0  0  0  0  0  0  0  0  0
  152.2972  142.5288  160.0904 C   0  0  0  0  0  0  0  0  0  0  0  0
  153.1380  142.3023  161.3352 C   0  0  0  0  0  0  0  0  0  0  0  0
  151.2101  145.7758  160.5834 H   0  0  0  0  0  0  0  0  0  0  0  0
  152.8465  145.2266  160.9401 H   0  0  0  0  0  0  0  0  0  0  0  0
  151.4734  144.5915  161.8591 H   0  0  0  0  0  0  0  0  0  0  0  0
  150.4018  144.9500  158.5279 H   0  0  0  0  0  0  0  0  0  0  0  0
  149.8840  141.2545  155.1209 H   0  0  0  0  0  0  0  0  0  0  0  0
  152.6406  139.5222  156.9597 H   0  0  0  0  0  0  0  0  0  0  0  0
  151.1444  138.9892  157.6790 H   0  0  0  0  0  0  0  0  0  0  0  0
  150.0594  138.8582  155.4431 H   0  0  0  0  0  0  0  0  0  0  0  0
  152.6301  139.4927  154.4742 H   0  0  0  0  0  0  0  0  0  0  0  0
  151.8263  137.1159  154.4230 H   0  0  0  0  0  0  0  0  0  0  0  0
  152.6407  137.3286  155.9443 H   0  0  0  0  0  0  0  0  0  0  0  0
  151.4443  136.7018  158.0476 H   0  0  0  0  0  0  0  0  0  0  0  0
  150.0158  137.6105  157.6080 H   0  0  0  0  0  0  0  0  0  0  0  0
  149.4648  135.7575  159.1787 H   0  0  0  0  0  0  0  0  0  0  0  0
  148.6194  135.5710  157.6530 H   0  0  0  0  0  0  0  0  0  0  0  0
  150.9275  132.9869  156.5264 H   0  0  0  0  0  0  0  0  0  0  0  0
  149.5048  133.8952  156.0462 H   0  0  0  0  0  0  0  0  0  0  0  0
  151.5204  134.8026  154.9070 H   0  0  0  0  0  0  0  0  0  0  0  0
  152.3348  135.0119  156.4408 H   0  0  0  0  0  0  0  0  0  0  0  0
  152.6555  140.5210  159.3324 H   0  0  0  0  0  0  0  0  0  0  0  0
  153.5791  141.3051  161.3427 H   0  0  0  0  0  0  0  0  0  0  0  0
  152.5287  142.4037  162.2335 H   0  0  0  0  0  0  0  0  0  0  0  0
  153.9521  143.0257  161.3846 H   0  0  0  0  0  0  0  0  0  0  0  0
  149.5514  143.5848  156.1473 H   0  0  0  0  0  0  0  0  0  0  0  0
  1  2  1  0  0  0  0
  1 22  1  0  0  0  0
  1 23  1  0  0  0  0
  1 24  1  0  0  0  0
  2 20  1  0  0  0  0
  2  3  2  0  0  0  0
  3  4  1  0  0  0  0
  3 25  1  0  0  0  0
  4 18  2  0  0  0  0
  4  5  1  0  0  0  0
  5  6  2  0  0  0  0
  5 45  1  0  0  0  0
  6  7  1  0  0  0  0
  6 26  1  0  0  0  0
  7  8  1  0  0  0  0
  7 18  1  0  0  0  0
  8  9  1  0  0  0  0
  8 27  1  0  0  0  0
  8 28  1  0  0  0  0
  9 10  1  0  0  0  0
  9 11  1  0  0  0  0
  9 29  1  0  0  0  0
 10 30  1  0  0  0  0
 11 12  1  0  0  0  0
 11 31  1  0  0  0  0
 11 32  1  0  0  0  0
 12 17  1  0  0  0  0
 12 13  1  0  0  0  0
 13 14  1  0  0  0  0
 13 33  1  0  0  0  0
 13 34  1  0  0  0  0
 14 15  1  0  0  0  0
 14 35  1  0  0  0  0
 14 36  1  0  0  0  0
 15 16  1  0  0  0  0
 16 17  1  0  0  0  0
 16 37  1  0  0  0  0
 16 38  1  0  0  0  0
 17 39  1  0  0  0  0
 17 40  1  0  0  0  0
 18 19  1  0  0  0  0
 19 20  2  0  0  0  0
 19 41  1  0  0  0  0
 20 21  1  0  0  0  0
 21 42  1  0  0  0  0
 21 43  1  0  0  0  0
 21 44  1  0  0  0  0
M  CHG  1   5   1
M  END
> <s_m_source_file>
AV-unprocessed.smi

> <i_m_source_file_index>
467

> <i_lp_mmshare_version>
43012

> <i_f3d_flags>
0

> <s_epik_input>
W0NIM11jKFtjSF0xKWMoW0NIM10pW2NIXWMoYzEyKW4oW2NIXW4yKVtDSDJdW0NASF0oW09IXSlbQ0gyXU4zW0NIMl1bQ0gyXU9bQ0gyXVtDSDJdMw==

> <s_epik_cmdline>
J2VwaWtfcHl0aG9uJywgJy1waCcsICc3LjAnLCAnLXRuJywgJzgnLCAnLW1hJywgJzIwMCcsICctbWV0YWxfYmluZGluZycsICctaW1hZScsICc8aW5maWxlLm1hZT4nLCAnLW9tYWUnLCAnPG91dGZpbGUubWFlPic=

> <r_epik_Ionization_Penalty>
1.42557

> <r_epik_Ionization_Penalty_Charging>
1.21121

> <r_epik_Ionization_Penalty_Neutral>
0.214359

> <r_epik_State_Penalty>
1.47019

> <r_epik_Charging_Adjusted_Penalty>
2.68141

> <i_epik_Tot_Q>
1

> <i_epik_Tot_abs_Q>
1

> <r_epik_Metal_State_Penalty>
5.48819

> <b_epik_Metal_Only>
0

> <s_lp_Force_Field>
OPLS_2005

> <r_lp_Energy>
35.2286

> <b_lp_Chiralities_Consistent>
1

> <s_lp_Variant>
AV-unprocessed.smi:467-6

> <Gold.Version>
5.8.1

> <Gold.Id.Protein>
6NUR|6NUR_protein|mol2

> <Gold.PLP.Fitness>
52.0220

> <Gold.PLP.PLP>
-40.6393

> <Gold.PLP.part.hbond>
-2.8198

> <Gold.PLP.part.metal>
0.0000

> <Gold.PLP.part.buried>
-5.0545

> <Gold.PLP.part.nonpolar>
-32.9313

> <Gold.PLP.part.repulsive>
0.1269

> <Gold.PLP.ligand.clash>
0.0000

> <Gold.PLP.ligand.torsion>
0.3317

> <Gold.PLP.Chemscore.Hbond>
3.9920

> <Gold.PLP.Chemscore.CHOScore>
0.0000

> <Gold.PLP.Chemscore.Metal>
0.0000

> <Gold.Chemscore.Hbonds>
donor molecule, donor type, donor heavy atom, donor atom, acceptor molecule, acceptor atom, score
      L1  H     5    45       P1  8028  1.37
      P1  H  6896  6907       L1    15  0.73
      P1  H  7989  7998       L1    10  0.75

> <Gold.PLP.Chemscore.Internal.Correction>
0.0702

> <Gold.Rescore>
     Score         DG    S(hbond)    S(metal)    S(lipo)     H(rot)  DE(clash)    DE(int)     intcor
     21.65     -22.06       2.64        0.00     111.98       2.08       0.06       0.35       ----

> <Gold.Chemscore.Fitness>
21.6515

> <Gold.Chemscore.DG>
-22.0637

> <Gold.Chemscore.ZeroCoef>
-5.4800

> <Gold.Chemscore.Hbond>
2.6377

> <Gold.Chemscore.Metal>
0.0000

> <Gold.Chemscore.Lipo>
111.9759

> <Gold.Chemscore.Internal_Hbond>
0.0000

> <Gold.Chemscore.DEClash>
0.0630

> <Gold.Chemscore.DEInternal>
0.3491

> <Gold.Chemscore.Rot>
2.0811

> <Gold.Chemscore.Internal.Correction>
   9.000000E+99

> <Gold.Chemscore.Hbonds>
donor molecule, donor type, donor heavy atom, donor atom, acceptor molecule, acceptor atom, score
      L1  H     5    45       P1  8028  0.69
      P1  H  6896  6907       L1    15  0.36
      P1  H  7989  7998       L1    10  0.09

> <Gold.Chemscore.Hbond.Weighted>
-8.8100

> <Gold.Chemscore.Metal.Weighted>
-0.0000

> <Gold.Chemscore.Lipo.Weighted>
-13.1012

> <Gold.Chemscore.Internal_Hbond.Weighted>
0.0000

> <Gold.Chemscore.DEClash.Weighted>
0.0630

> <Gold.Chemscore.DEInternal.Weighted>
0.3491

> <Gold.Chemscore.Rot.Weighted>
5.3275

> <Gold.Chemscore.Internal.Correction.Weighted>
   9.000000E+99

> <Gold.Protein.RotatedTorsions>
[ 6907 6896 6895 6894 ] final -111.12 input  -60.11 | X-H torsion
[ 7974 7965 7964 7962 ] final    2.06 input  175.53 | X-H torsion
[ 8008 7997 7996 7995 ] final   13.09 input   59.86 | X-H torsion
[ 10167 10162 10161 10158 ] final -102.25 input  -65.29 | X-H torsion
[ 10718 10713 10712 10709 ] final -103.06 input   66.30 | X-H torsion
[ 10763 10752 10751 10750 ] final   34.27 input  -60.55 | X-H torsion
[ 11005 11000 10999 10996 ] final  120.17 input  -57.11 | X-H torsion

> <Gold.Protein.ActiveResidues>
 VAL166  LYS551  ARG553  GLY616  TRP617  ASP618  TYR619  PRO620  LYS621  CYS622 
 ASP623  PHE694  ASN695  SER759  ASP760  ASP761  ALA762  ILE779  LEU786  VAL792 
 PHE793  MET794  SER795  GLU796  ALA797  LYS798  CYS799  TRP800  GLU811  SER814 

> <Gold.Protein.RotatedAtoms>
  150.7669  133.9281  159.3418 H   0  0  0  0  0  0  0  0  0  0  0  0  # atno 6907 bound_to 6896
  151.7177  135.0898  160.0288 H   0  0  0  0  0  0  0  0  0  0  0  0  # atno 6908 bound_to 6896
  152.3670  133.6331  159.6093 H   0  0  0  0  0  0  0  0  0  0  0  0  # atno 6909 bound_to 6896
  146.2442  140.0893  142.8353 H   0  0  0  0  0  0  0  0  0  0  0  0  # atno 7974 bound_to 7965
  154.8297  140.2897  155.5731 H   0  0  0  0  0  0  0  0  0  0  0  0  # atno 8008 bound_to 7997
  156.3004  140.2534  156.3150 H   0  0  0  0  0  0  0  0  0  0  0  0  # atno 8009 bound_to 7997
  154.9245  140.0385  157.2005 H   0  0  0  0  0  0  0  0  0  0  0  0  # atno 8010 bound_to 7997
  140.2327  143.3595  152.0872 H   0  0  0  0  0  0  0  0  0  0  0  0  # atno 10167 bound_to 10162
  156.0251  130.5449  150.7199 H   0  0  0  0  0  0  0  0  0  0  0  0  # atno 10718 bound_to 10713
  153.0172  135.6365  154.1642 H   0  0  0  0  0  0  0  0  0  0  0  0  # atno 10763 bound_to 10752
  154.1379  135.2836  155.3170 H   0  0  0  0  0  0  0  0  0  0  0  0  # atno 10764 bound_to 10752
  154.6146  135.5545  153.7571 H   0  0  0  0  0  0  0  0  0  0  0  0  # atno 10765 bound_to 10752
  139.9174  134.9633  156.7766 H   0  0  0  0  0  0  0  0  0  0  0  0  # atno 11005 bound_to 11000
  145.0664  140.9124  143.4908 LP  0  0  0  0  0  0  0  0  0  0  0  0  # atno 17320 bound_to 7965
  145.1018  139.2817  143.5682 LP  0  0  0  0  0  0  0  0  0  0  0  0  # atno 17321 bound_to 7965
  139.5104  144.6884  151.5826 LP  0  0  0  0  0  0  0  0  0  0  0  0  # atno 17342 bound_to 10162
  140.6173  143.9325  150.6498 LP  0  0  0  0  0  0  0  0  0  0  0  0  # atno 17343 bound_to 10162
  157.4817  131.0903  151.0529 LP  0  0  0  0  0  0  0  0  0  0  0  0  # atno 17370 bound_to 10713
  157.0960  130.5962  149.5450 LP  0  0  0  0  0  0  0  0  0  0  0  0  # atno 17371 bound_to 10713
  140.6578  133.9673  155.7789 LP  0  0  0  0  0  0  0  0  0  0  0  0  # atno 17394 bound_to 11000
  141.0664  134.0270  157.3588 LP  0  0  0  0  0  0  0  0  0  0  0  0  # atno 17395 bound_to 11000

$$$$
