AV-unprocessed.smi:1046|AV-procd|sdf|4551|dock2
  -GOLD-   22720 2583D 1   1.00000     0.00000
 Structure written by MMmdl.
 53 55  0  0  0  0  0  0  0  0  2 V2000
  151.1978  144.9489  159.3892 C   0  0  0  0  0  0  0  0  0  0  0  0
  151.8855  143.6336  159.7109 C   0  0  0  0  0  0  0  0  0  0  0  0
  152.6511  143.5304  160.8944 C   0  0  0  0  0  0  0  0  0  0  0  0
  153.3060  142.3253  161.2303 C   0  0  0  0  0  0  0  0  0  0  0  0
  154.0950  142.0044  162.3219 N   0  0  0  0  0  0  0  0  0  0  0  0
  154.4079  140.7377  162.0632 C   0  0  0  0  0  0  0  0  0  0  0  0
  153.9143  140.1997  160.9312 N   0  0  0  0  0  0  0  0  0  0  0  0
  154.1128  138.8481  160.4396 C   0  0  0  0  0  0  0  0  0  0  0  0
  154.0320  137.7968  161.5626 C   0  0  1  0  0  0  0  0  0  0  0  0
  153.8878  136.5131  160.9867 O   0  0  0  0  0  0  0  0  0  0  0  0
  155.2985  137.8127  162.4421 C   0  0  0  0  0  0  0  0  0  0  0  0
  155.0677  137.8460  163.8922 N   0  0  0  0  0  0  0  0  0  0  0  0
  153.9135  137.0441  164.2975 C   0  0  0  0  0  0  0  0  0  0  0  0
  154.1633  135.5244  164.2013 C   0  0  0  0  0  0  0  0  0  0  0  0
  155.3471  135.1390  165.0124 N   0  3  0  0  0  0  0  0  0  0  0  0
  155.5862  133.6736  165.0043 C   0  0  0  0  0  0  0  0  0  0  0  0
  154.3127  132.8629  165.2999 C   0  0  0  0  0  0  0  0  0  0  0  0
  154.5953  131.4807  165.2422 O   0  0  0  0  0  0  0  0  0  0  0  0
  156.5369  135.9417  164.6219 C   0  0  0  0  0  0  0  0  0  0  0  0
  156.2164  137.4471  164.7101 C   0  0  0  0  0  0  0  0  0  0  0  0
  153.1726  141.2178  160.3428 C   0  0  0  0  0  0  0  0  0  0  0  0
  152.4144  141.3081  159.1621 C   0  0  0  0  0  0  0  0  0  0  0  0
  151.7673  142.5197  158.8412 C   0  0  0  0  0  0  0  0  0  0  0  0
  150.9520  142.6084  157.5634 C   0  0  0  0  0  0  0  0  0  0  0  0
  151.3816  145.6940  160.1634 H   0  0  0  0  0  0  0  0  0  0  0  0
  150.1196  144.8078  159.3110 H   0  0  0  0  0  0  0  0  0  0  0  0
  151.5648  145.3506  158.4448 H   0  0  0  0  0  0  0  0  0  0  0  0
  152.7419  144.3786  161.5567 H   0  0  0  0  0  0  0  0  0  0  0  0
  155.0338  140.1682  162.7346 H   0  0  0  0  0  0  0  0  0  0  0  0
  153.3725  138.6427  159.6647 H   0  0  0  0  0  0  0  0  0  0  0  0
  155.0896  138.8074  159.9560 H   0  0  0  0  0  0  0  0  0  0  0  0
  153.1464  138.0060  162.1607 H   0  0  0  0  0  0  0  0  0  0  0  0
  153.6542  136.6144  160.0769 H   0  0  0  0  0  0  0  0  0  0  0  0
  155.8874  136.9275  162.1975 H   0  0  0  0  0  0  0  0  0  0  0  0
  155.9158  138.6606  162.1475 H   0  0  0  0  0  0  0  0  0  0  0  0
  153.6513  137.2940  165.3267 H   0  0  0  0  0  0  0  0  0  0  0  0
  153.0442  137.3158  163.6976 H   0  0  0  0  0  0  0  0  0  0  0  0
  153.2830  134.9944  164.5670 H   0  0  0  0  0  0  0  0  0  0  0  0
  154.3057  135.2169  163.1645 H   0  0  0  0  0  0  0  0  0  0  0  0
  155.9687  133.3693  164.0288 H   0  0  0  0  0  0  0  0  0  0  0  0
  156.3667  133.4295  165.7266 H   0  0  0  0  0  0  0  0  0  0  0  0
  153.9541  133.0949  166.3030 H   0  0  0  0  0  0  0  0  0  0  0  0
  153.5012  133.1033  164.6141 H   0  0  0  0  0  0  0  0  0  0  0  0
  153.9561  131.0192  165.7647 H   0  0  0  0  0  0  0  0  0  0  0  0
  157.3720  135.7233  165.2863 H   0  0  0  0  0  0  0  0  0  0  0  0
  156.8606  135.6706  163.6163 H   0  0  0  0  0  0  0  0  0  0  0  0
  157.0975  138.0327  164.4527 H   0  0  0  0  0  0  0  0  0  0  0  0
  156.0062  137.6953  165.7516 H   0  0  0  0  0  0  0  0  0  0  0  0
  152.3330  140.4518  158.5095 H   0  0  0  0  0  0  0  0  0  0  0  0
  150.9799  141.6707  157.0078 H   0  0  0  0  0  0  0  0  0  0  0  0
  151.3420  143.3931  156.9148 H   0  0  0  0  0  0  0  0  0  0  0  0
  149.9094  142.8324  157.7902 H   0  0  0  0  0  0  0  0  0  0  0  0
  155.1251  135.3860  165.9666 H   0  0  0  0  0  0  0  0  0  0  0  0
  1  2  1  0  0  0  0
  1 25  1  0  0  0  0
  1 26  1  0  0  0  0
  1 27  1  0  0  0  0
  2 23  1  0  0  0  0
  2  3  2  0  0  0  0
  3  4  1  0  0  0  0
  3 28  1  0  0  0  0
  4 21  2  0  0  0  0
  4  5  1  0  0  0  0
  5  6  2  0  0  0  0
  6  7  1  0  0  0  0
  6 29  1  0  0  0  0
  7  8  1  0  0  0  0
  7 21  1  0  0  0  0
  8  9  1  0  0  0  0
  8 30  1  0  0  0  0
  8 31  1  0  0  0  0
  9 10  1  0  0  0  0
  9 11  1  0  0  0  0
  9 32  1  0  0  0  0
 10 33  1  0  0  0  0
 11 12  1  0  0  0  0
 11 34  1  0  0  0  0
 11 35  1  0  0  0  0
 12 20  1  0  0  0  0
 12 13  1  0  0  0  0
 13 14  1  0  0  0  0
 13 36  1  0  0  0  0
 13 37  1  0  0  0  0
 14 15  1  0  0  0  0
 14 38  1  0  0  0  0
 14 39  1  0  0  0  0
 15 16  1  0  0  0  0
 15 19  1  0  0  0  0
 15 53  1  0  0  0  0
 16 17  1  0  0  0  0
 16 40  1  0  0  0  0
 16 41  1  0  0  0  0
 17 18  1  0  0  0  0
 17 42  1  0  0  0  0
 17 43  1  0  0  0  0
 18 44  1  0  0  0  0
 19 20  1  0  0  0  0
 19 45  1  0  0  0  0
 19 46  1  0  0  0  0
 20 47  1  0  0  0  0
 20 48  1  0  0  0  0
 21 22  1  0  0  0  0
 22 23  2  0  0  0  0
 22 49  1  0  0  0  0
 23 24  1  0  0  0  0
 24 50  1  0  0  0  0
 24 51  1  0  0  0  0
 24 52  1  0  0  0  0
M  CHG  1  15   1
M  END
> <s_m_source_file>
AV-unprocessed.smi

> <i_m_source_file_index>
1046

> <i_lp_mmshare_version>
43012

> <i_f3d_flags>
0

> <s_epik_input>
W0NIM11jKFtjSF0xKWMoW0NIM10pW2NIXWMoYzEyKW4oW2NIXW4yKVtDSDJdW0NASF0oW09IXSlbQ0gyXU4zW0NIMl1bQ0gyXU4oW0NIMl1bQ0gyXTMpW0NIMl1bQ0gyXVtPSF0=

> <s_epik_cmdline>
J2VwaWtfcHl0aG9uJywgJy1waCcsICc3LjAnLCAnLXRuJywgJzgnLCAnLW1hJywgJzIwMCcsICctbWV0YWxfYmluZGluZycsICctaW1hZScsICc8aW5maWxlLm1hZT4nLCAnLW9tYWUnLCAnPG91dGZpbGUubWFlPic=

> <r_epik_Ionization_Penalty>
0.218081

> <r_epik_Ionization_Penalty_Charging>
0.0909554

> <r_epik_Ionization_Penalty_Neutral>
0.127126

> <r_epik_State_Penalty>
0.825642

> <r_epik_Charging_Adjusted_Penalty>
0.916597

> <i_epik_Tot_Q>
1

> <i_epik_Tot_abs_Q>
1

> <r_epik_Metal_State_Penalty>
0.740189

> <b_epik_Metal_Only>
0

> <s_lp_Force_Field>
OPLS_2005

> <r_lp_Energy>
34.993

> <b_lp_Chiralities_Consistent>
1

> <s_lp_Variant>
AV-unprocessed.smi:1046-4

> <Gold.Version>
5.8.1

> <Gold.Id.Protein>
6NUR|6NUR_protein|mol2

> <Gold.PLP.Fitness>
49.7493

> <Gold.PLP.PLP>
-52.0516

> <Gold.PLP.part.hbond>
-2.0000

> <Gold.PLP.part.metal>
0.0000

> <Gold.PLP.part.buried>
-6.5398

> <Gold.PLP.part.nonpolar>
-42.4739

> <Gold.PLP.part.repulsive>
0.0822

> <Gold.PLP.ligand.clash>
0.0000

> <Gold.PLP.ligand.torsion>
1.2816

> <Gold.PLP.Chemscore.Hbond>
0.0000

> <Gold.PLP.Chemscore.CHOScore>
0.0000

> <Gold.PLP.Chemscore.Metal>
0.0000

> <Gold.PLP.Chemscore.Internal.Correction>
0.2609

> <Gold.Rescore>
     Score         DG    S(hbond)    S(metal)    S(lipo)     H(rot)  DE(clash)    DE(int)     intcor
     13.65     -15.03       0.00        0.00     151.74       3.21       0.09       1.29       ----

> <Gold.Chemscore.Fitness>
13.6520

> <Gold.Chemscore.DG>
-15.0273

> <Gold.Chemscore.ZeroCoef>
-5.4800

> <Gold.Chemscore.Hbond>
0.0000

> <Gold.Chemscore.Metal>
0.0000

> <Gold.Chemscore.Lipo>
151.7437

> <Gold.Chemscore.Internal_Hbond>
0.0000

> <Gold.Chemscore.DEClash>
0.0861

> <Gold.Chemscore.DEInternal>
1.2892

> <Gold.Chemscore.Rot>
3.2058

> <Gold.Chemscore.Internal.Correction>
   9.000000E+99

> <Gold.Chemscore.Hbond.Weighted>
-0.0000

> <Gold.Chemscore.Metal.Weighted>
-0.0000

> <Gold.Chemscore.Lipo.Weighted>
-17.7540

> <Gold.Chemscore.Internal_Hbond.Weighted>
0.0000

> <Gold.Chemscore.DEClash.Weighted>
0.0861

> <Gold.Chemscore.DEInternal.Weighted>
1.2892

> <Gold.Chemscore.Rot.Weighted>
8.2067

> <Gold.Chemscore.Internal.Correction.Weighted>
   9.000000E+99

> <Gold.Protein.RotatedTorsions>
[ 6907 6896 6895 6894 ] final  -70.13 input  -60.11 | X-H torsion
[ 7974 7965 7964 7962 ] final -108.06 input  175.53 | X-H torsion
[ 8008 7997 7996 7995 ] final -173.14 input   59.86 | X-H torsion
[ 10167 10162 10161 10158 ] final  103.61 input  -65.29 | X-H torsion
[ 10718 10713 10712 10709 ] final  152.86 input   66.30 | X-H torsion
[ 10763 10752 10751 10750 ] final   57.54 input  -60.55 | X-H torsion
[ 11005 11000 10999 10996 ] final   78.60 input  -57.11 | X-H torsion

> <Gold.Protein.ActiveResidues>
 VAL166  LYS551  ARG553  GLY616  TRP617  ASP618  TYR619  PRO620  LYS621  CYS622 
 ASP623  PHE694  ASN695  SER759  ASP760  ASP761  ALA762  ILE779  LEU786  VAL792 
 PHE793  MET794  SER795  GLU796  ALA797  LYS798  CYS799  TRP800  GLU811  SER814 

> <Gold.Protein.RotatedAtoms>
  150.7272  134.5497  159.5788 H   0  0  0  0  0  0  0  0  0  0  0  0  # atno 6907 bound_to 6896
  152.2987  134.7633  160.0371 H   0  0  0  0  0  0  0  0  0  0  0  0  # atno 6908 bound_to 6896
  151.8221  133.3360  159.3624 H   0  0  0  0  0  0  0  0  0  0  0  0  # atno 6909 bound_to 6896
  145.1976  140.9042  143.3388 H   0  0  0  0  0  0  0  0  0  0  0  0  # atno 7974 bound_to 7965
  155.9536  140.1131  157.0956 H   0  0  0  0  0  0  0  0  0  0  0  0  # atno 8008 bound_to 7997
  154.4115  140.1195  156.5152 H   0  0  0  0  0  0  0  0  0  0  0  0  # atno 8009 bound_to 7997
  155.6810  140.3473  155.4858 H   0  0  0  0  0  0  0  0  0  0  0  0  # atno 8010 bound_to 7997
  139.7248  144.7050  151.0815 H   0  0  0  0  0  0  0  0  0  0  0  0  # atno 10167 bound_to 10162
  157.2523  131.0781  151.1721 H   0  0  0  0  0  0  0  0  0  0  0  0  # atno 10718 bound_to 10713
  152.9852  135.5638  154.5408 H   0  0  0  0  0  0  0  0  0  0  0  0  # atno 10763 bound_to 10752
  154.4863  135.2791  155.1534 H   0  0  0  0  0  0  0  0  0  0  0  0  # atno 10764 bound_to 10752
  154.3022  135.6305  153.5482 H   0  0  0  0  0  0  0  0  0  0  0  0  # atno 10765 bound_to 10752
  139.9206  134.7776  156.1670 H   0  0  0  0  0  0  0  0  0  0  0  0  # atno 11005 bound_to 11000
  144.9980  139.3626  143.6182 LP  0  0  0  0  0  0  0  0  0  0  0  0  # atno 17320 bound_to 7965
  146.3424  139.9190  142.8769 LP  0  0  0  0  0  0  0  0  0  0  0  0  # atno 17321 bound_to 7965
  140.7760  143.5119  150.9642 LP  0  0  0  0  0  0  0  0  0  0  0  0  # atno 17342 bound_to 10162
  139.8807  143.7076  152.3157 LP  0  0  0  0  0  0  0  0  0  0  0  0  # atno 17343 bound_to 10162
  157.3264  130.6963  149.6299 LP  0  0  0  0  0  0  0  0  0  0  0  0  # atno 17370 bound_to 10713
  155.9666  130.4320  150.4945 LP  0  0  0  0  0  0  0  0  0  0  0  0  # atno 17371 bound_to 10713
  141.0723  133.6791  156.2165 LP  0  0  0  0  0  0  0  0  0  0  0  0  # atno 17394 bound_to 11000
  140.6486  134.5091  157.5575 LP  0  0  0  0  0  0  0  0  0  0  0  0  # atno 17395 bound_to 11000

$$$$
