AV-unprocessed.smi:2302|AV-procd|sdf|9238|dock1
  -GOLD-   2272012453D 1   1.00000     0.00000
 Structure written by MMmdl.
 40 41  0  0  0  0  0  0  0  0  2 V2000
  152.6086  141.8742  161.4916 C   0  0  0  0  0  0  0  0  0  0  0  0
  151.9600  142.9304  160.6216 C   0  0  0  0  0  0  0  0  0  0  0  0
  151.8464  144.2631  161.0633 C   0  0  0  0  0  0  0  0  0  0  0  0
  151.2309  145.1948  160.2083 C   0  0  0  0  0  0  0  0  0  0  0  0
  150.7567  144.7584  158.9560 C   0  0  0  0  0  0  0  0  0  0  0  0
  150.9086  143.4022  158.5895 C   0  0  0  0  0  0  0  0  0  0  0  0
  150.3961  143.0623  157.3089 N   0  0  0  0  0  0  0  0  0  0  0  0
  150.5184  141.8973  156.6484 C   0  0  0  0  0  0  0  0  0  0  0  0
  151.1189  140.9041  157.0599 O   0  0  0  0  0  0  0  0  0  0  0  0
  149.8961  141.9427  155.4614 N   0  0  0  0  0  0  0  0  0  0  0  0
  149.8272  140.8392  154.5085 C   0  0  0  0  0  0  0  0  0  0  0  0
  148.4658  140.1223  154.5541 C   0  0  2  0  0  0  0  0  0  0  0  0
  147.5323  140.6057  153.4223 C   0  0  0  0  0  0  0  0  0  0  0  0
  146.1860  139.9920  153.5208 N   0  3  1  0  0  0  0  0  0  0  0  0
  146.1259  138.5992  153.0207 C   0  0  0  0  0  0  0  0  0  0  0  0
  145.6160  140.1630  154.8781 C   0  0  0  0  0  0  0  0  0  0  0  0
  146.6076  139.7055  155.9634 C   0  0  0  0  0  0  0  0  0  0  0  0
  147.8379  140.3992  155.8026 O   0  0  0  0  0  0  0  0  0  0  0  0
  151.5041  142.5116  159.4214 N   0  0  0  0  0  0  0  0  0  0  0  0
  153.1711  142.3276  162.3082 H   0  0  0  0  0  0  0  0  0  0  0  0
  153.2961  141.2633  160.9058 H   0  0  0  0  0  0  0  0  0  0  0  0
  151.8482  141.2212  161.9205 H   0  0  0  0  0  0  0  0  0  0  0  0
  152.2196  144.5655  162.0307 H   0  0  0  0  0  0  0  0  0  0  0  0
  151.1231  146.2269  160.5074 H   0  0  0  0  0  0  0  0  0  0  0  0
  150.2811  145.4618  158.2880 H   0  0  0  0  0  0  0  0  0  0  0  0
  149.8714  143.7893  156.8458 H   0  0  0  0  0  0  0  0  0  0  0  0
  149.4260  142.7982  155.2032 H   0  0  0  0  0  0  0  0  0  0  0  0
  150.0484  141.1847  153.4970 H   0  0  0  0  0  0  0  0  0  0  0  0
  150.6186  140.1364  154.7700 H   0  0  0  0  0  0  0  0  0  0  0  0
  148.6357  139.0482  154.4631 H   0  0  0  0  0  0  0  0  0  0  0  0
  147.4157  141.6885  153.4863 H   0  0  0  0  0  0  0  0  0  0  0  0
  147.9678  140.4001  152.4436 H   0  0  0  0  0  0  0  0  0  0  0  0
  146.7265  137.9216  153.6274 H   0  0  0  0  0  0  0  0  0  0  0  0
  146.4877  138.5462  151.9933 H   0  0  0  0  0  0  0  0  0  0  0  0
  145.0974  138.2372  153.0261 H   0  0  0  0  0  0  0  0  0  0  0  0
  145.3892  141.2201  155.0224 H   0  0  0  0  0  0  0  0  0  0  0  0
  144.6692  139.6285  154.9651 H   0  0  0  0  0  0  0  0  0  0  0  0
  146.2067  139.9272  156.9524 H   0  0  0  0  0  0  0  0  0  0  0  0
  146.7727  138.6281  155.9250 H   0  0  0  0  0  0  0  0  0  0  0  0
  145.5904  140.5186  152.8975 H   0  0  0  0  0  0  0  0  0  0  0  0
  1  2  1  0  0  0  0
  1 20  1  0  0  0  0
  1 21  1  0  0  0  0
  1 22  1  0  0  0  0
  2 19  1  0  0  0  0
  2  3  2  0  0  0  0
  3  4  1  0  0  0  0
  3 23  1  0  0  0  0
  4  5  2  0  0  0  0
  4 24  1  0  0  0  0
  5  6  1  0  0  0  0
  5 25  1  0  0  0  0
  6  7  1  0  0  0  0
  6 19  2  0  0  0  0
  7  8  1  0  0  0  0
  7 26  1  0  0  0  0
  8  9  2  0  0  0  0
  8 10  1  0  0  0  0
 10 11  1  0  0  0  0
 10 27  1  0  0  0  0
 11 12  1  0  0  0  0
 11 28  1  0  0  0  0
 11 29  1  0  0  0  0
 12 18  1  0  0  0  0
 12 13  1  0  0  0  0
 12 30  1  0  0  0  0
 13 14  1  0  0  0  0
 13 31  1  0  0  0  0
 13 32  1  0  0  0  0
 14 15  1  0  0  0  0
 14 16  1  0  0  0  0
 14 40  1  0  0  0  0
 15 33  1  0  0  0  0
 15 34  1  0  0  0  0
 15 35  1  0  0  0  0
 16 17  1  0  0  0  0
 16 36  1  0  0  0  0
 16 37  1  0  0  0  0
 17 18  1  0  0  0  0
 17 38  1  0  0  0  0
 17 39  1  0  0  0  0
M  CHG  1  14   1
M  END
> <s_m_source_file>
AV-unprocessed.smi

> <i_m_source_file_index>
2302

> <i_lp_mmshare_version>
43012

> <i_f3d_flags>
0

> <s_epik_input>
W0NIM11jMVtjSF1bY0hdW2NIXWMobjEpW05IXUMoPU8pW05IXVtDSDJdW0NAQEhdMltDSDJdTihbQ0gzXSlbQ0gyXVtDSDJdTzI=

> <s_epik_cmdline>
J2VwaWtfcHl0aG9uJywgJy1waCcsICc3LjAnLCAnLXRuJywgJzgnLCAnLW1hJywgJzIwMCcsICctbWV0YWxfYmluZGluZycsICctaW1hZScsICc8aW5maWxlLm1hZT4nLCAnLW9tYWUnLCAnPG91dGZpbGUubWFlPic=

> <r_epik_Ionization_Penalty>
0.204647

> <r_epik_Ionization_Penalty_Charging>
0.204578

> <r_epik_Ionization_Penalty_Neutral>
6.91954e-05

> <r_epik_State_Penalty>
0.194513

> <r_epik_Charging_Adjusted_Penalty>
0.399091

> <i_epik_Tot_Q>
1

> <i_epik_Tot_abs_Q>
1

> <r_epik_Metal_State_Penalty>
0.194515

> <b_epik_Metal_Only>
0

> <s_lp_Force_Field>
OPLS_2005

> <r_lp_Energy>
17.8944

> <b_lp_Chiralities_Consistent>
1

> <s_lp_Variant>
AV-unprocessed.smi:2302-3

> <Gold.Version>
5.8.1

> <Gold.Id.Protein>
6NUR|6NUR_protein|mol2

> <Gold.PLP.Fitness>
46.2241

> <Gold.PLP.PLP>
-35.6575

> <Gold.PLP.part.hbond>
-3.0000

> <Gold.PLP.part.metal>
0.0000

> <Gold.PLP.part.buried>
-3.5300

> <Gold.PLP.part.nonpolar>
-29.2368

> <Gold.PLP.part.repulsive>
0.2321

> <Gold.PLP.ligand.clash>
0.0000

> <Gold.PLP.ligand.torsion>
0.6822

> <Gold.PLP.Chemscore.Hbond>
3.9760

> <Gold.PLP.Chemscore.CHOScore>
0.0000

> <Gold.PLP.Chemscore.Metal>
0.0000

> <Gold.Chemscore.Hbonds>
donor molecule, donor type, donor heavy atom, donor atom, acceptor molecule, acceptor atom, score
      L1  H     7    26       P1  8028  1.00
      L1  H    10    27       P1  8028  0.98
      L1  H    14    40       P1 10175  1.41

> <Gold.PLP.Chemscore.Internal.Correction>
0.0030

> <Gold.Rescore>
     Score         DG    S(hbond)    S(metal)    S(lipo)     H(rot)  DE(clash)    DE(int)     intcor
     19.09     -21.58       2.89        0.00      82.86       1.27       0.44       2.05       ----

> <Gold.Chemscore.Fitness>
19.0875

> <Gold.Chemscore.DG>
-21.5796

> <Gold.Chemscore.ZeroCoef>
-5.4800

> <Gold.Chemscore.Hbond>
2.8937

> <Gold.Chemscore.Metal>
0.0000

> <Gold.Chemscore.Lipo>
82.8612

> <Gold.Chemscore.Internal_Hbond>
0.0000

> <Gold.Chemscore.DEClash>
0.4435

> <Gold.Chemscore.DEInternal>
2.0486

> <Gold.Chemscore.Rot>
1.2736

> <Gold.Chemscore.Internal.Correction>
   9.000000E+99

> <Gold.Chemscore.Hbonds>
donor molecule, donor type, donor heavy atom, donor atom, acceptor molecule, acceptor atom, score
      L1  H     7    26       P1  8028  0.99
      L1  H    10    27       P1  8028  0.86
      L1  H    14    40       P1 10175  0.54

> <Gold.Chemscore.Hbond.Weighted>
-9.6651

> <Gold.Chemscore.Metal.Weighted>
-0.0000

> <Gold.Chemscore.Lipo.Weighted>
-9.6948

> <Gold.Chemscore.Internal_Hbond.Weighted>
0.0000

> <Gold.Chemscore.DEClash.Weighted>
0.4435

> <Gold.Chemscore.DEInternal.Weighted>
2.0486

> <Gold.Chemscore.Rot.Weighted>
3.2603

> <Gold.Chemscore.Internal.Correction.Weighted>
   9.000000E+99

> <Gold.Protein.RotatedTorsions>
[ 6907 6896 6895 6894 ] final  -95.21 input  -60.11 | X-H torsion
[ 7974 7965 7964 7962 ] final  158.74 input  175.53 | X-H torsion
[ 8008 7997 7996 7995 ] final   94.30 input   59.86 | X-H torsion
[ 10167 10162 10161 10158 ] final  -68.82 input  -65.29 | X-H torsion
[ 10718 10713 10712 10709 ] final  147.42 input   66.30 | X-H torsion
[ 10763 10752 10751 10750 ] final  -79.93 input  -60.55 | X-H torsion
[ 11005 11000 10999 10996 ] final   57.10 input  -57.11 | X-H torsion

> <Gold.Protein.ActiveResidues>
 VAL166  LYS551  ARG553  GLY616  TRP617  ASP618  TYR619  PRO620  LYS621  CYS622 
 ASP623  PHE694  ASN695  SER759  ASP760  ASP761  ALA762  ILE779  LEU786  VAL792 
 PHE793  MET794  SER795  GLU796  ALA797  LYS798  CYS799  TRP800  GLU811  SER814 

> <Gold.Protein.RotatedAtoms>
  150.6959  134.1692  159.4205 H   0  0  0  0  0  0  0  0  0  0  0  0  # atno 6907 bound_to 6896
  151.9670  135.0093  160.0560 H   0  0  0  0  0  0  0  0  0  0  0  0  # atno 6908 bound_to 6896
  152.1875  133.4715  159.5027 H   0  0  0  0  0  0  0  0  0  0  0  0  # atno 6909 bound_to 6896
  144.7829  139.7520  143.6252 H   0  0  0  0  0  0  0  0  0  0  0  0  # atno 7974 bound_to 7965
  156.0563  140.3301  155.7409 H   0  0  0  0  0  0  0  0  0  0  0  0  # atno 8008 bound_to 7997
  155.5523  140.0611  157.2864 H   0  0  0  0  0  0  0  0  0  0  0  0  # atno 8009 bound_to 7997
  154.4460  140.1892  156.0687 H   0  0  0  0  0  0  0  0  0  0  0  0  # atno 8010 bound_to 7997
  140.5478  143.2312  151.6968 H   0  0  0  0  0  0  0  0  0  0  0  0  # atno 10167 bound_to 10162
  157.3211  131.0904  151.1239 H   0  0  0  0  0  0  0  0  0  0  0  0  # atno 10718 bound_to 10713
  154.5449  135.5678  153.6871 H   0  0  0  0  0  0  0  0  0  0  0  0  # atno 10763 bound_to 10752
  152.9973  135.6236  154.2452 H   0  0  0  0  0  0  0  0  0  0  0  0  # atno 10764 bound_to 10752
  154.2385  135.2863  155.2843 H   0  0  0  0  0  0  0  0  0  0  0  0  # atno 10765 bound_to 10752
  140.0478  134.5780  155.9301 H   0  0  0  0  0  0  0  0  0  0  0  0  # atno 11005 bound_to 11000
  146.2046  139.5362  142.9721 LP  0  0  0  0  0  0  0  0  0  0  0  0  # atno 17320 bound_to 7965
  145.6001  141.0356  143.2023 LP  0  0  0  0  0  0  0  0  0  0  0  0  # atno 17321 bound_to 7965
  139.5015  144.3866  152.0322 LP  0  0  0  0  0  0  0  0  0  0  0  0  # atno 17342 bound_to 10162
  140.2981  144.3678  150.6068 LP  0  0  0  0  0  0  0  0  0  0  0  0  # atno 17343 bound_to 10162
  157.2524  130.6620  149.5937 LP  0  0  0  0  0  0  0  0  0  0  0  0  # atno 17370 bound_to 10713
  155.9686  130.4534  150.5811 LP  0  0  0  0  0  0  0  0  0  0  0  0  # atno 17371 bound_to 10713
  141.1915  133.6572  156.5461 LP  0  0  0  0  0  0  0  0  0  0  0  0  # atno 17394 bound_to 11000
  140.3966  134.7394  157.4754 LP  0  0  0  0  0  0  0  0  0  0  0  0  # atno 17395 bound_to 11000

$$$$
