AV-unprocessed.smi:2785|AV-procd|sdf|10747|dock8
  -GOLD-   2272015183D 1   1.00000     0.00000
 Structure written by MMmdl.
 37 38  0  0  0  0  0  0  0  0  1 V2000
  149.7768  138.4601  158.6441 C   0  0  0  0  0  0  0  0  0  0  0  0
  150.6794  138.9864  157.5133 C   0  0  0  0  0  0  0  0  0  0  0  0
  151.9037  139.7365  158.0613 C   0  0  0  0  0  0  0  0  0  0  0  0
  149.9537  139.8305  156.5537 N   0  0  0  0  0  0  0  0  0  0  0  0
  148.6098  140.3235  156.8087 C   0  0  0  0  0  0  0  0  0  0  0  0
  148.3478  141.3466  155.6993 C   0  0  0  0  0  0  0  0  0  0  0  0
  149.4169  141.1124  154.6197 C   0  0  2  0  0  0  0  0  0  0  0  0
  148.8348  140.3877  153.4923 N   0  0  0  0  0  0  0  0  0  0  0  0
  148.0013  139.3416  153.5921 C   0  0  0  0  0  0  0  0  0  0  0  0
  147.6523  138.8519  154.6666 O   0  0  0  0  0  0  0  0  0  0  0  0
  147.6077  138.9172  152.3784 N   0  0  0  0  0  0  0  0  0  0  0  0
  146.7230  137.8512  152.0651 C   0  0  0  0  0  0  0  0  0  0  0  0
  145.8501  137.4721  153.1103 C   0  0  0  0  0  0  0  0  0  0  0  0
  144.9335  136.4230  152.9018 C   0  0  0  0  0  0  0  0  0  0  0  0
  144.9145  135.7811  151.6508 C   0  0  0  0  0  0  0  0  0  0  0  0
  144.0512  134.7675  151.4037 F   0  0  0  0  0  0  0  0  0  0  0  0
  145.8157  136.2193  150.6631 C   0  0  0  0  0  0  0  0  0  0  0  0
  146.6947  137.2246  150.8618 N   0  0  0  0  0  0  0  0  0  0  0  0
  150.4133  140.2184  155.3559 C   0  0  0  0  0  0  0  0  0  0  0  0
  151.5105  139.9262  154.8808 O   0  0  0  0  0  0  0  0  0  0  0  0
  150.3233  137.7658  159.2828 H   0  0  0  0  0  0  0  0  0  0  0  0
  148.9153  137.9243  158.2442 H   0  0  0  0  0  0  0  0  0  0  0  0
  149.4091  139.2654  159.2807 H   0  0  0  0  0  0  0  0  0  0  0  0
  151.0443  138.1086  156.9764 H   0  0  0  0  0  0  0  0  0  0  0  0
  152.4756  139.1069  158.7433 H   0  0  0  0  0  0  0  0  0  0  0  0
  151.6071  140.6334  158.6061 H   0  0  0  0  0  0  0  0  0  0  0  0
  152.5741  140.0414  157.2573 H   0  0  0  0  0  0  0  0  0  0  0  0
  147.8988  139.4988  156.7433 H   0  0  0  0  0  0  0  0  0  0  0  0
  148.5268  140.7742  157.7985 H   0  0  0  0  0  0  0  0  0  0  0  0
  147.3280  141.2820  155.3170 H   0  0  0  0  0  0  0  0  0  0  0  0
  148.4674  142.3524  156.1048 H   0  0  0  0  0  0  0  0  0  0  0  0
  149.8792  142.0506  154.3075 H   0  0  0  0  0  0  0  0  0  0  0  0
  149.0667  140.7246  152.5695 H   0  0  0  0  0  0  0  0  0  0  0  0
  147.9767  139.4213  151.5860 H   0  0  0  0  0  0  0  0  0  0  0  0
  145.8799  137.9768  154.0651 H   0  0  0  0  0  0  0  0  0  0  0  0
  144.2585  136.1174  153.6875 H   0  0  0  0  0  0  0  0  0  0  0  0
  145.8322  135.7523  149.6894 H   0  0  0  0  0  0  0  0  0  0  0  0
  1  2  1  0  0  0  0
  1 21  1  0  0  0  0
  1 22  1  0  0  0  0
  1 23  1  0  0  0  0
  2  3  1  0  0  0  0
  2  4  1  0  0  0  0
  2 24  1  0  0  0  0
  3 25  1  0  0  0  0
  3 26  1  0  0  0  0
  3 27  1  0  0  0  0
  4 19  1  0  0  0  0
  4  5  1  0  0  0  0
  5  6  1  0  0  0  0
  5 28  1  0  0  0  0
  5 29  1  0  0  0  0
  6  7  1  0  0  0  0
  6 30  1  0  0  0  0
  6 31  1  0  0  0  0
  7  8  1  0  0  0  0
  7 19  1  0  0  0  0
  7 32  1  0  0  0  0
  8  9  1  0  0  0  0
  8 33  1  0  0  0  0
  9 10  2  0  0  0  0
  9 11  1  0  0  0  0
 11 12  1  0  0  0  0
 11 34  1  0  0  0  0
 12 18  1  0  0  0  0
 12 13  2  0  0  0  0
 13 14  1  0  0  0  0
 13 35  1  0  0  0  0
 14 15  2  0  0  0  0
 14 36  1  0  0  0  0
 15 16  1  0  0  0  0
 15 17  1  0  0  0  0
 17 18  2  0  0  0  0
 17 37  1  0  0  0  0
 19 20  2  0  0  0  0
M  END
> <s_m_source_file>
AV-unprocessed.smi

> <i_m_source_file_index>
2785

> <i_lp_mmshare_version>
43012

> <i_f3d_flags>
0

> <s_epik_input>
W0NIM11bQ0hdKFtDSDNdKU4xW0NIMl1bQ0gyXVtDQEhdKEMxPU8pW05IXUMoPU8pW05IXWMyW2NIXVtjSF1jKEYpW2NIXW4y

> <s_epik_cmdline>
J2VwaWtfcHl0aG9uJywgJy1waCcsICc3LjAnLCAnLXRuJywgJzgnLCAnLW1hJywgJzIwMCcsICctbWV0YWxfYmluZGluZycsICctaW1hZScsICc8aW5maWxlLm1hZT4nLCAnLW9tYWUnLCAnPG91dGZpbGUubWFlPic=

> <r_lp_tautomer_probability>
1

> <r_epik_Ionization_Penalty>
3.20266e-05

> <r_epik_Ionization_Penalty_Charging>
0

> <r_epik_Ionization_Penalty_Neutral>
3.20266e-05

> <r_epik_State_Penalty>
-0

> <r_epik_Charging_Adjusted_Penalty>
0

> <i_epik_Tot_Q>
0

> <i_epik_Tot_abs_Q>
0

> <r_epik_Metal_State_Penalty>
-0

> <b_epik_Metal_Only>
0

> <s_lp_Force_Field>
OPLS_2005

> <r_lp_Energy>
23.5858

> <b_lp_Chiralities_Consistent>
1

> <s_lp_Variant>
AV-unprocessed.smi:2785-2

> <Gold.Version>
5.8.1

> <Gold.Id.Protein>
6NUR|6NUR_protein|mol2

> <Gold.PLP.Fitness>
39.4684

> <Gold.PLP.PLP>
-27.2583

> <Gold.PLP.part.hbond>
-4.4489

> <Gold.PLP.part.metal>
0.0000

> <Gold.PLP.part.buried>
-0.9687

> <Gold.PLP.part.nonpolar>
-24.7369

> <Gold.PLP.part.repulsive>
2.8985

> <Gold.PLP.ligand.clash>
0.0000

> <Gold.PLP.ligand.torsion>
0.4240

> <Gold.PLP.Chemscore.Hbond>
3.3280

> <Gold.PLP.Chemscore.CHOScore>
1.0000

> <Gold.PLP.Chemscore.Metal>
0.0000

> <Gold.Chemscore.Hbonds>
donor molecule, donor type, donor heavy atom, donor atom, acceptor molecule, acceptor atom, score
      L1  H     8    33       P1  7957  0.74
      L1  H    11    34       P1  7957  0.70
      P1  H  7954  7966       L1    18  1.00
      P1  H  7989  7998       L1    20  1.00
      L1  C    17    37       P1  7921  1.00

> <Gold.PLP.Chemscore.Internal.Correction>
0.0741

> <Gold.Rescore>
     Score         DG    S(hbond)    S(metal)    S(lipo)     H(rot)  DE(clash)    DE(int)     intcor
     11.06     -17.59       3.04        0.00      44.97       1.29       1.88       4.66       ----

> <Gold.Chemscore.Fitness>
11.0568

> <Gold.Chemscore.DG>
-17.5926

> <Gold.Chemscore.ZeroCoef>
-5.4800

> <Gold.Chemscore.Hbond>
3.0379

> <Gold.Chemscore.Metal>
0.0000

> <Gold.Chemscore.Lipo>
44.9739

> <Gold.Chemscore.Internal_Hbond>
0.0000

> <Gold.Chemscore.DEClash>
1.8790

> <Gold.Chemscore.DEInternal>
4.6568

> <Gold.Chemscore.Rot>
1.2875

> <Gold.Chemscore.Internal.Correction>
   9.000000E+99

> <Gold.Chemscore.Hbonds>
donor molecule, donor type, donor heavy atom, donor atom, acceptor molecule, acceptor atom, score
      L1  H     8    33       P1  7957  0.74
      L1  H    11    34       P1  7957  0.69
      P1  H  7954  7966       L1    18  0.59
      P1  H  7989  7998       L1    20  0.50

> <Gold.Chemscore.Hbond.Weighted>
-10.1465

> <Gold.Chemscore.Metal.Weighted>
-0.0000

> <Gold.Chemscore.Lipo.Weighted>
-5.2619

> <Gold.Chemscore.Internal_Hbond.Weighted>
0.0000

> <Gold.Chemscore.DEClash.Weighted>
1.8790

> <Gold.Chemscore.DEInternal.Weighted>
4.6568

> <Gold.Chemscore.Rot.Weighted>
3.2959

> <Gold.Chemscore.Internal.Correction.Weighted>
   9.000000E+99

> <Gold.Protein.RotatedTorsions>
[ 6907 6896 6895 6894 ] final  -10.82 input  -60.11 | X-H torsion
[ 7974 7965 7964 7962 ] final  -82.63 input  175.53 | X-H torsion
[ 8008 7997 7996 7995 ] final -177.56 input   59.86 | X-H torsion
[ 10167 10162 10161 10158 ] final    7.87 input  -65.29 | X-H torsion
[ 10718 10713 10712 10709 ] final   82.93 input   66.30 | X-H torsion
[ 10763 10752 10751 10750 ] final  101.86 input  -60.55 | X-H torsion
[ 11005 11000 10999 10996 ] final   74.76 input  -57.11 | X-H torsion

> <Gold.Protein.ActiveResidues>
 VAL166  LYS551  ARG553  GLY616  TRP617  ASP618  TYR619  PRO620  LYS621  CYS622 
 ASP623  PHE694  ASN695  SER759  ASP760  ASP761  ALA762  ILE779  LEU786  VAL792 
 PHE793  MET794  SER795  GLU796  ALA797  LYS798  CYS799  TRP800  GLU811  SER814 

> <Gold.Protein.RotatedAtoms>
  151.3960  135.0963  159.9540 H   0  0  0  0  0  0  0  0  0  0  0  0  # atno 6907 bound_to 6896
  152.5065  133.8934  159.7416 H   0  0  0  0  0  0  0  0  0  0  0  0  # atno 6908 bound_to 6896
  150.9398  133.6614  159.2821 H   0  0  0  0  0  0  0  0  0  0  0  0  # atno 6909 bound_to 6896
  145.5308  140.9521  143.1604 H   0  0  0  0  0  0  0  0  0  0  0  0  # atno 7974 bound_to 7965
  156.0084  140.1235  157.0478 H   0  0  0  0  0  0  0  0  0  0  0  0  # atno 8008 bound_to 7997
  154.4267  140.1092  156.5864 H   0  0  0  0  0  0  0  0  0  0  0  0  # atno 8009 bound_to 7997
  155.6114  140.3471  155.4626 H   0  0  0  0  0  0  0  0  0  0  0  0  # atno 8010 bound_to 7997
  140.6347  143.7913  150.7343 H   0  0  0  0  0  0  0  0  0  0  0  0  # atno 10167 bound_to 10162
  157.6868  131.0069  150.2447 H   0  0  0  0  0  0  0  0  0  0  0  0  # atno 10718 bound_to 10713
  153.3322  135.4030  155.1504 H   0  0  0  0  0  0  0  0  0  0  0  0  # atno 10763 bound_to 10752
  154.8625  135.3613  154.5456 H   0  0  0  0  0  0  0  0  0  0  0  0  # atno 10764 bound_to 10752
  153.5895  135.7074  153.5488 H   0  0  0  0  0  0  0  0  0  0  0  0  # atno 10765 bound_to 10752
  139.9375  134.7460  156.1188 H   0  0  0  0  0  0  0  0  0  0  0  0  # atno 11005 bound_to 11000
  144.7627  139.6918  143.7228 LP  0  0  0  0  0  0  0  0  0  0  0  0  # atno 17320 bound_to 7965
  146.2045  139.5361  142.9721 LP  0  0  0  0  0  0  0  0  0  0  0  0  # atno 17321 bound_to 7965
  140.1532  143.4339  152.2117 LP  0  0  0  0  0  0  0  0  0  0  0  0  # atno 17342 bound_to 10162
  139.5558  144.7372  151.4298 LP  0  0  0  0  0  0  0  0  0  0  0  0  # atno 17343 bound_to 10162
  156.3055  130.3764  149.7710 LP  0  0  0  0  0  0  0  0  0  0  0  0  # atno 17370 bound_to 10713
  156.5327  130.8264  151.3242 LP  0  0  0  0  0  0  0  0  0  0  0  0  # atno 17371 bound_to 10713
  141.0996  133.6682  156.2723 LP  0  0  0  0  0  0  0  0  0  0  0  0  # atno 17394 bound_to 11000
  140.6037  134.5529  157.5522 LP  0  0  0  0  0  0  0  0  0  0  0  0  # atno 17395 bound_to 11000

$$$$
