AV-unprocessed.smi:1808|AV-procd|sdf|7307|dock7
  -GOLD-   22720 8563D 1   1.00000     0.00000
 Structure written by MMmdl.
 27 28  0  0  0  0  0  0  0  0  2 V2000
  150.2640  140.8264  158.1884 O   0  0  0  0  0  0  0  0  0  0  0  0
  149.6624  141.7088  157.5714 C   0  0  0  0  0  0  0  0  0  0  0  0
  150.3233  142.7933  157.1419 N   0  0  0  0  0  0  0  0  0  0  0  0
  151.7476  143.0524  157.3227 C   0  0  0  0  0  0  0  0  0  0  0  0
  152.0031  144.0161  158.4932 C   0  0  2  0  0  0  0  0  0  0  0  0
  152.2815  143.3163  159.8191 C   0  0  0  0  0  0  0  0  0  0  0  0
  151.9767  144.4041  160.8317 C   0  0  0  0  0  0  0  0  0  0  0  0
  150.9680  145.3020  160.1077 C   0  0  0  0  0  0  0  0  0  0  0  0
  150.8382  144.7697  158.7938 O   0  0  0  0  0  0  0  0  0  0  0  0
  148.3471  141.7118  157.2564 N   0  5  0  0  0  0  0  0  0  0  0  0
  147.9633  141.6094  155.9734 C   0  0  0  0  0  0  0  0  0  0  0  0
  146.6828  141.6595  155.5885 N   0  0  0  0  0  0  0  0  0  0  0  0
  146.5130  141.5390  154.2080 C   0  0  0  0  0  0  0  0  0  0  0  0
  147.6921  141.4022  153.5247 C   0  0  0  0  0  0  0  0  0  0  0  0
  149.0593  141.4207  154.6015 S   0  0  0  0  0  0  0  0  0  0  0  0
  149.7937  143.4896  156.6381 H   0  0  0  0  0  0  0  0  0  0  0  0
  152.2514  142.1022  157.5009 H   0  0  0  0  0  0  0  0  0  0  0  0
  152.1678  143.4570  156.4006 H   0  0  0  0  0  0  0  0  0  0  0  0
  152.8222  144.7002  158.2634 H   0  0  0  0  0  0  0  0  0  0  0  0
  151.5953  142.4796  159.9571 H   0  0  0  0  0  0  0  0  0  0  0  0
  153.3011  142.9372  159.8933 H   0  0  0  0  0  0  0  0  0  0  0  0
  151.5849  143.9992  161.7651 H   0  0  0  0  0  0  0  0  0  0  0  0
  152.8801  144.9700  161.0624 H   0  0  0  0  0  0  0  0  0  0  0  0
  149.9967  145.3102  160.6025 H   0  0  0  0  0  0  0  0  0  0  0  0
  151.3315  146.3290  160.0564 H   0  0  0  0  0  0  0  0  0  0  0  0
  145.5148  141.5628  153.7970 H   0  0  0  0  0  0  0  0  0  0  0  0
  147.8403  141.2936  152.4610 H   0  0  0  0  0  0  0  0  0  0  0  0
  1  2  2  0  0  0  0
  2  3  1  0  0  0  0
  2 10  1  0  0  0  0
  3  4  1  0  0  0  0
  3 16  1  0  0  0  0
  4  5  1  0  0  0  0
  4 17  1  0  0  0  0
  4 18  1  0  0  0  0
  5  9  1  0  0  0  0
  5  6  1  0  0  0  0
  5 19  1  0  0  0  0
  6  7  1  0  0  0  0
  6 20  1  0  0  0  0
  6 21  1  0  0  0  0
  7  8  1  0  0  0  0
  7 22  1  0  0  0  0
  7 23  1  0  0  0  0
  8  9  1  0  0  0  0
  8 24  1  0  0  0  0
  8 25  1  0  0  0  0
 10 11  1  0  0  0  0
 11 15  1  0  0  0  0
 11 12  2  0  0  0  0
 12 13  1  0  0  0  0
 13 14  2  0  0  0  0
 13 26  1  0  0  0  0
 14 15  1  0  0  0  0
 14 27  1  0  0  0  0
M  CHG  1  10  -1
M  END
> <s_m_source_file>
AV-unprocessed.smi

> <i_m_source_file_index>
1808

> <i_lp_mmshare_version>
43012

> <i_f3d_flags>
0

> <s_epik_input>
czFbY0hdW2NIXW5jMVtOSF1DKD1PKVtOSF1bQ0gyXVtDQEBIXTJbQ0gyXVtDSDJdW0NIMl1PMg==

> <s_epik_cmdline>
J2VwaWtfcHl0aG9uJywgJy1waCcsICc3LjAnLCAnLXRuJywgJzgnLCAnLW1hJywgJzIwMCcsICctbWV0YWxfYmluZGluZycsICctaW1hZScsICc8aW5maWxlLm1hZT4nLCAnLW9tYWUnLCAnPG91dGZpbGUubWFlPic=

> <r_lp_tautomer_probability>
0.999

> <r_epik_Ionization_Penalty>
8.26346

> <r_epik_Ionization_Penalty_Charging>
6.6559

> <r_epik_Ionization_Penalty_Neutral>
1.60756

> <r_epik_State_Penalty>
6.65607

> <r_epik_Charging_Adjusted_Penalty>
13.312

> <i_epik_Tot_Q>
-1

> <i_epik_Tot_abs_Q>
1

> <r_epik_Metal_State_Penalty>
2.5789

> <b_epik_Metal_Only>
1

> <s_lp_Force_Field>
OPLS_2005

> <r_lp_Energy>
12.338

> <b_lp_Chiralities_Consistent>
1

> <s_lp_Variant>
AV-unprocessed.smi:1808-3

> <Gold.Version>
5.8.1

> <Gold.Id.Protein>
6NUR|6NUR_protein|mol2

> <Gold.PLP.Fitness>
36.0814

> <Gold.PLP.PLP>
-29.6294

> <Gold.PLP.part.hbond>
-1.0000

> <Gold.PLP.part.metal>
0.0000

> <Gold.PLP.part.buried>
-5.7559

> <Gold.PLP.part.nonpolar>
-24.0505

> <Gold.PLP.part.repulsive>
0.3930

> <Gold.PLP.ligand.clash>
0.0000

> <Gold.PLP.ligand.torsion>
1.2800

> <Gold.PLP.Chemscore.Hbond>
1.0000

> <Gold.PLP.Chemscore.CHOScore>
1.9993

> <Gold.PLP.Chemscore.Metal>
0.0000

> <Gold.Chemscore.Hbonds>
donor molecule, donor type, donor heavy atom, donor atom, acceptor molecule, acceptor atom, score
      L1  H     3    16       P1  8028  1.00
      L1  C    13    26       P1 10175  0.96
      L1  C    14    27       P1  7957  1.00

> <Gold.PLP.Chemscore.Internal.Correction>
0.0143

> <Gold.Rescore>
     Score         DG    S(hbond)    S(metal)    S(lipo)     H(rot)  DE(clash)    DE(int)     intcor
     13.28     -14.86       1.00        0.00      80.12       1.30       0.39       1.20       ----

> <Gold.Chemscore.Fitness>
13.2806

> <Gold.Chemscore.DG>
-14.8636

> <Gold.Chemscore.ZeroCoef>
-5.4800

> <Gold.Chemscore.Hbond>
0.9992

> <Gold.Chemscore.Metal>
0.0000

> <Gold.Chemscore.Lipo>
80.1211

> <Gold.Chemscore.Internal_Hbond>
0.0000

> <Gold.Chemscore.DEClash>
0.3869

> <Gold.Chemscore.DEInternal>
1.1961

> <Gold.Chemscore.Rot>
1.3000

> <Gold.Chemscore.Internal.Correction>
   9.000000E+99

> <Gold.Chemscore.Hbonds>
donor molecule, donor type, donor heavy atom, donor atom, acceptor molecule, acceptor atom, score
      L1  H     3    16       P1  8028  1.00

> <Gold.Chemscore.Hbond.Weighted>
-3.3374

> <Gold.Chemscore.Metal.Weighted>
-0.0000

> <Gold.Chemscore.Lipo.Weighted>
-9.3742

> <Gold.Chemscore.Internal_Hbond.Weighted>
0.0000

> <Gold.Chemscore.DEClash.Weighted>
0.3869

> <Gold.Chemscore.DEInternal.Weighted>
1.1961

> <Gold.Chemscore.Rot.Weighted>
3.3280

> <Gold.Chemscore.Internal.Correction.Weighted>
   9.000000E+99

> <Gold.Protein.RotatedTorsions>
[ 6907 6896 6895 6894 ] final    9.01 input  -60.11 | X-H torsion
[ 7974 7965 7964 7962 ] final -108.87 input  175.53 | X-H torsion
[ 8008 7997 7996 7995 ] final  -25.86 input   59.86 | X-H torsion
[ 10167 10162 10161 10158 ] final  -49.94 input  -65.29 | X-H torsion
[ 10718 10713 10712 10709 ] final  -22.44 input   66.30 | X-H torsion
[ 10763 10752 10751 10750 ] final  169.53 input  -60.55 | X-H torsion
[ 11005 11000 10999 10996 ] final  -53.50 input  -57.11 | X-H torsion

> <Gold.Protein.ActiveResidues>
 VAL166  LYS551  ARG553  GLY616  TRP617  ASP618  TYR619  PRO620  LYS621  CYS622 
 ASP623  PHE694  ASN695  SER759  ASP760  ASP761  ALA762  ILE779  LEU786  VAL792 
 PHE793  MET794  SER795  GLU796  ALA797  LYS798  CYS799  TRP800  GLU811  SER814 

> <Gold.Protein.RotatedAtoms>
  151.7153  135.0905  160.0274 H   0  0  0  0  0  0  0  0  0  0  0  0  # atno 6907 bound_to 6896
  152.3636  133.6324  159.6042 H   0  0  0  0  0  0  0  0  0  0  0  0  # atno 6908 bound_to 6896
  150.7622  133.9300  159.3465 H   0  0  0  0  0  0  0  0  0  0  0  0  # atno 6909 bound_to 6896
  145.1875  140.8999  143.3444 H   0  0  0  0  0  0  0  0  0  0  0  0  # atno 7974 bound_to 7965
  154.4454  140.1915  156.0685 H   0  0  0  0  0  0  0  0  0  0  0  0  # atno 8008 bound_to 7997
  156.0529  140.3306  155.7345 H   0  0  0  0  0  0  0  0  0  0  0  0  # atno 8009 bound_to 7997
  155.5529  140.0596  157.2836 H   0  0  0  0  0  0  0  0  0  0  0  0  # atno 8010 bound_to 7997
  140.6661  143.2677  151.4287 H   0  0  0  0  0  0  0  0  0  0  0  0  # atno 10167 bound_to 10162
  156.5045  130.4596  149.6682 H   0  0  0  0  0  0  0  0  0  0  0  0  # atno 10718 bound_to 10713
  154.3845  135.2753  155.2192 H   0  0  0  0  0  0  0  0  0  0  0  0  # atno 10763 bound_to 10752
  154.4284  135.5983  153.6057 H   0  0  0  0  0  0  0  0  0  0  0  0  # atno 10764 bound_to 10752
  152.9833  135.5989  154.4092 H   0  0  0  0  0  0  0  0  0  0  0  0  # atno 10765 bound_to 10752
  141.0979  133.6622  156.4181 H   0  0  0  0  0  0  0  0  0  0  0  0  # atno 11005 bound_to 11000
  145.0075  139.3541  143.6137 LP  0  0  0  0  0  0  0  0  0  0  0  0  # atno 17320 bound_to 7965
  146.3442  139.9323  142.8752 LP  0  0  0  0  0  0  0  0  0  0  0  0  # atno 17321 bound_to 7965
  139.5911  144.1497  152.2089 LP  0  0  0  0  0  0  0  0  0  0  0  0  # atno 17342 bound_to 10162
  140.0852  144.5667  150.7094 LP  0  0  0  0  0  0  0  0  0  0  0  0  # atno 17343 bound_to 10162
  156.3300  130.7326  151.2254 LP  0  0  0  0  0  0  0  0  0  0  0  0  # atno 17370 bound_to 10713
  157.7458  131.0432  150.4734 LP  0  0  0  0  0  0  0  0  0  0  0  0  # atno 17371 bound_to 10713
  140.5095  134.6409  157.5279 LP  0  0  0  0  0  0  0  0  0  0  0  0  # atno 17394 bound_to 11000
  139.9821  134.7120  155.9840 LP  0  0  0  0  0  0  0  0  0  0  0  0  # atno 17395 bound_to 11000

$$$$
