AV-unprocessed.smi:3083|AV-procd|sdf|11745|dock9
  -GOLD-   2272017143D 1   1.00000     0.00000
 Structure written by MMmdl.
 28 29  0  0  0  0  0  0  0  0  2 V2000
  146.1949  136.3186  151.4859 N   0  3  0  0  0  0  0  0  0  0  0  0
  145.8049  134.9734  151.0236 C   0  0  1  0  0  0  0  0  0  0  0  0
  146.4823  133.8748  151.8727 C   0  0  0  0  0  0  0  0  0  0  0  0
  146.0545  132.4680  151.4249 C   0  0  0  0  0  0  0  0  0  0  0  0
  144.5254  132.3200  151.4091 C   0  0  0  0  0  0  0  0  0  0  0  0
  143.8795  133.3847  150.5066 C   0  0  0  0  0  0  0  0  0  0  0  0
  144.2595  134.8231  150.9186 C   0  0  1  0  0  0  0  0  0  0  0  0
  143.5022  135.2586  152.0947 N   0  0  0  0  0  0  0  0  0  0  0  0
  143.3626  136.5510  152.5604 C   0  0  0  0  0  0  0  0  0  0  0  0
  142.5443  136.5143  153.6525 C   0  0  0  0  0  0  0  0  0  0  0  0
  142.2084  135.1384  153.7739 C   0  0  0  0  0  0  0  0  0  0  0  0
  142.7759  134.3942  152.8395 N   0  0  0  0  0  0  0  0  0  0  0  0
  146.1377  136.9648  150.7112 H   0  0  0  0  0  0  0  0  0  0  0  0
  147.1422  136.2957  151.8351 H   0  0  0  0  0  0  0  0  0  0  0  0
  146.2035  134.8803  150.0124 H   0  0  0  0  0  0  0  0  0  0  0  0
  147.5662  133.9628  151.7899 H   0  0  0  0  0  0  0  0  0  0  0  0
  146.2584  134.0012  152.9310 H   0  0  0  0  0  0  0  0  0  0  0  0
  146.4482  132.2676  150.4275 H   0  0  0  0  0  0  0  0  0  0  0  0
  146.4937  131.7193  152.0848 H   0  0  0  0  0  0  0  0  0  0  0  0
  144.2558  131.3248  151.0544 H   0  0  0  0  0  0  0  0  0  0  0  0
  144.1334  132.3978  152.4236 H   0  0  0  0  0  0  0  0  0  0  0  0
  144.2004  133.2126  149.4783 H   0  0  0  0  0  0  0  0  0  0  0  0
  142.7953  133.2650  150.5059 H   0  0  0  0  0  0  0  0  0  0  0  0
  143.9361  135.4788  150.1084 H   0  0  0  0  0  0  0  0  0  0  0  0
  143.8531  137.3847  152.0798 H   0  0  0  0  0  0  0  0  0  0  0  0
  142.2267  137.3452  154.2652 H   0  0  0  0  0  0  0  0  0  0  0  0
  141.5714  134.6624  154.5048 H   0  0  0  0  0  0  0  0  0  0  0  0
  145.5708  136.6182  152.2212 H   0  0  0  0  0  0  0  0  0  0  0  0
  1  2  1  0  0  0  0
  1 13  1  0  0  0  0
  1 14  1  0  0  0  0
  1 28  1  0  0  0  0
  2  7  1  0  0  0  0
  2  3  1  0  0  0  0
  2 15  1  0  0  0  0
  3  4  1  0  0  0  0
  3 16  1  0  0  0  0
  3 17  1  0  0  0  0
  4  5  1  0  0  0  0
  4 18  1  0  0  0  0
  4 19  1  0  0  0  0
  5  6  1  0  0  0  0
  5 20  1  0  0  0  0
  5 21  1  0  0  0  0
  6  7  1  0  0  0  0
  6 22  1  0  0  0  0
  6 23  1  0  0  0  0
  7  8  1  0  0  0  0
  7 24  1  0  0  0  0
  8 12  1  0  0  0  0
  8  9  1  0  0  0  0
  9 10  2  0  0  0  0
  9 25  1  0  0  0  0
 10 11  1  0  0  0  0
 10 26  1  0  0  0  0
 11 12  2  0  0  0  0
 11 27  1  0  0  0  0
M  CHG  1   1   1
M  END
> <s_m_source_file>
AV-unprocessed.smi

> <i_m_source_file_index>
3083

> <i_lp_mmshare_version>
43012

> <i_f3d_flags>
0

> <s_epik_input>
W05IMl1bQ0BASF0xW0NIMl1bQ0gyXVtDSDJdW0NIMl1bQ0BIXTFuMltjSF1bY0hdW2NIXW4y

> <s_epik_cmdline>
J2VwaWtfcHl0aG9uJywgJy1waCcsICc3LjAnLCAnLXRuJywgJzgnLCAnLW1hJywgJzIwMCcsICctbWV0YWxfYmluZGluZycsICctaW1hZScsICc8aW5maWxlLm1hZT4nLCAnLW9tYWUnLCAnPG91dGZpbGUubWFlPic=

> <r_lp_tautomer_probability>
1

> <r_epik_Ionization_Penalty>
0.00385053

> <r_epik_Ionization_Penalty_Charging>
0.0038389

> <r_epik_Ionization_Penalty_Neutral>
1.16305e-05

> <r_epik_State_Penalty>
-0

> <r_epik_Charging_Adjusted_Penalty>
0.0038389

> <i_epik_Tot_Q>
1

> <i_epik_Tot_abs_Q>
1

> <r_epik_Metal_State_Penalty>
-0

> <b_epik_Metal_Only>
0

> <s_lp_Force_Field>
OPLS_2005

> <r_lp_Energy>
16.3847

> <b_lp_Chiralities_Consistent>
1

> <s_lp_Variant>
AV-unprocessed.smi:3083-2

> <Gold.Version>
5.8.1

> <Gold.Id.Protein>
6NUR|6NUR_protein|mol2

> <Gold.PLP.Fitness>
34.9683

> <Gold.PLP.PLP>
-23.2976

> <Gold.PLP.part.hbond>
-1.0000

> <Gold.PLP.part.metal>
0.0000

> <Gold.PLP.part.buried>
-5.1190

> <Gold.PLP.part.nonpolar>
-18.4404

> <Gold.PLP.part.repulsive>
0.2852

> <Gold.PLP.ligand.clash>
0.0000

> <Gold.PLP.ligand.torsion>
0.1970

> <Gold.PLP.Chemscore.Hbond>
2.0000

> <Gold.PLP.Chemscore.CHOScore>
2.0000

> <Gold.PLP.Chemscore.Metal>
0.0000

> <Gold.Chemscore.Hbonds>
donor molecule, donor type, donor heavy atom, donor atom, acceptor molecule, acceptor atom, score
      L1  H     1    14       P1  7948  2.00
      L1  C     9    25       P1 10171  0.93
      L1  C    11    27       P1 11000  1.00

> <Gold.PLP.Chemscore.Internal.Correction>
0.0647

> <Gold.Rescore>
     Score         DG    S(hbond)    S(metal)    S(lipo)     H(rot)  DE(clash)    DE(int)     intcor
     11.60     -12.96       1.00        0.00      57.30       1.00       0.05       1.31       ----

> <Gold.Chemscore.Fitness>
11.6002

> <Gold.Chemscore.DG>
-12.9565

> <Gold.Chemscore.ZeroCoef>
-5.4800

> <Gold.Chemscore.Hbond>
0.9978

> <Gold.Chemscore.Metal>
0.0000

> <Gold.Chemscore.Lipo>
57.2974

> <Gold.Chemscore.Internal_Hbond>
0.0000

> <Gold.Chemscore.DEClash>
0.0509

> <Gold.Chemscore.DEInternal>
1.3054

> <Gold.Chemscore.Rot>
1.0000

> <Gold.Chemscore.Internal.Correction>
   9.000000E+99

> <Gold.Chemscore.Hbonds>
donor molecule, donor type, donor heavy atom, donor atom, acceptor molecule, acceptor atom, score
      L1  H     1    14       P1  7948  0.99

> <Gold.Chemscore.Hbond.Weighted>
-3.3327

> <Gold.Chemscore.Metal.Weighted>
-0.0000

> <Gold.Chemscore.Lipo.Weighted>
-6.7038

> <Gold.Chemscore.Internal_Hbond.Weighted>
0.0000

> <Gold.Chemscore.DEClash.Weighted>
0.0509

> <Gold.Chemscore.DEInternal.Weighted>
1.3054

> <Gold.Chemscore.Rot.Weighted>
2.5600

> <Gold.Chemscore.Internal.Correction.Weighted>
   9.000000E+99

> <Gold.Protein.RotatedTorsions>
[ 6907 6896 6895 6894 ] final -129.18 input  -60.11 | X-H torsion
[ 7974 7965 7964 7962 ] final  -67.00 input  175.53 | X-H torsion
[ 8008 7997 7996 7995 ] final  -27.44 input   59.86 | X-H torsion
[ 10167 10162 10161 10158 ] final   56.80 input  -65.29 | X-H torsion
[ 10718 10713 10712 10709 ] final   58.03 input   66.30 | X-H torsion
[ 10763 10752 10751 10750 ] final -163.47 input  -60.55 | X-H torsion
[ 11005 11000 10999 10996 ] final -174.29 input  -57.11 | X-H torsion

> <Gold.Protein.ActiveResidues>
 VAL166  LYS551  ARG553  GLY616  TRP617  ASP618  TYR619  PRO620  LYS621  CYS622 
 ASP623  PHE694  ASN695  SER759  ASP760  ASP761  ALA762  ILE779  LEU786  VAL792 
 PHE793  MET794  SER795  GLU796  ALA797  LYS798  CYS799  TRP800  GLU811  SER814 

> <Gold.Protein.RotatedAtoms>
  150.9259  133.6824  159.2821 H   0  0  0  0  0  0  0  0  0  0  0  0  # atno 6907 bound_to 6896
  151.4263  135.1003  159.9638 H   0  0  0  0  0  0  0  0  0  0  0  0  # atno 6908 bound_to 6896
  152.5002  133.8699  159.7348 H   0  0  0  0  0  0  0  0  0  0  0  0  # atno 6909 bound_to 6896
  145.7347  140.8981  143.0561 H   0  0  0  0  0  0  0  0  0  0  0  0  # atno 7974 bound_to 7965
  154.4377  140.1872  156.0932 H   0  0  0  0  0  0  0  0  0  0  0  0  # atno 8008 bound_to 7997
  156.0350  140.3326  155.7154 H   0  0  0  0  0  0  0  0  0  0  0  0  # atno 8009 bound_to 7997
  155.5784  140.0619  157.2780 H   0  0  0  0  0  0  0  0  0  0  0  0  # atno 8010 bound_to 7997
  140.2048  144.3950  150.6513 H   0  0  0  0  0  0  0  0  0  0  0  0  # atno 10167 bound_to 10162
  157.5563  130.8803  149.9041 H   0  0  0  0  0  0  0  0  0  0  0  0  # atno 10718 bound_to 10713
  154.7120  135.3008  154.9183 H   0  0  0  0  0  0  0  0  0  0  0  0  # atno 10763 bound_to 10752
  154.0082  135.6698  153.4767 H   0  0  0  0  0  0  0  0  0  0  0  0  # atno 10764 bound_to 10752
  153.0762  135.5033  154.8323 H   0  0  0  0  0  0  0  0  0  0  0  0  # atno 10765 bound_to 10752
  140.4761  134.6119  157.4901 H   0  0  0  0  0  0  0  0  0  0  0  0  # atno 11005 bound_to 11000
  144.6884  139.9379  143.7474 LP  0  0  0  0  0  0  0  0  0  0  0  0  # atno 17320 bound_to 7965
  146.0504  139.3506  143.0643 LP  0  0  0  0  0  0  0  0  0  0  0  0  # atno 17321 bound_to 7965
  140.6365  143.2196  151.6383 LP  0  0  0  0  0  0  0  0  0  0  0  0  # atno 17342 bound_to 10162
  139.5203  144.3228  152.0896 LP  0  0  0  0  0  0  0  0  0  0  0  0  # atno 17343 bound_to 10162
  156.0622  130.3698  150.0958 LP  0  0  0  0  0  0  0  0  0  0  0  0  # atno 17370 bound_to 10713
  156.9126  130.9657  151.3561 LP  0  0  0  0  0  0  0  0  0  0  0  0  # atno 17371 bound_to 10713
  139.9855  134.7069  155.9782 LP  0  0  0  0  0  0  0  0  0  0  0  0  # atno 17394 bound_to 11000
  141.1553  133.6543  156.4143 LP  0  0  0  0  0  0  0  0  0  0  0  0  # atno 17395 bound_to 11000

$$$$
