AV-unprocessed.smi:2082|AV-procd|sdf|8489|dock5
  -GOLD-   2272011193D 1   1.00000     0.00000
 Structure written by MMmdl.
 39 40  0  0  0  0  0  0  0  0  1 V2000
  144.9120  135.5412  150.8254 C   0  0  0  0  0  0  0  0  0  0  0  0
  145.9661  136.2429  151.4605 O   0  0  0  0  0  0  0  0  0  0  0  0
  145.6669  137.6155  151.6527 C   0  0  0  0  0  0  0  0  0  0  0  0
  146.9082  138.3276  152.1977 C   0  0  0  0  0  0  0  0  0  0  0  0
  146.4935  139.5002  152.8922 O   0  0  0  0  0  0  0  0  0  0  0  0
  147.3977  140.1306  153.7217 C   0  0  0  0  0  0  0  0  0  0  0  0
  148.5773  139.4458  154.0753 C   0  0  0  0  0  0  0  0  0  0  0  0
  149.5061  140.0802  154.9221 C   0  0  0  0  0  0  0  0  0  0  0  0
  149.2190  141.3820  155.3974 C   0  0  0  0  0  0  0  0  0  0  0  0
  150.0832  142.1363  156.2354 N   0  0  0  0  0  0  0  0  0  0  0  0
  151.0373  141.6975  157.0805 C   0  0  0  0  0  0  0  0  0  0  0  0
  151.2471  140.5030  157.2936 O   0  0  0  0  0  0  0  0  0  0  0  0
  151.7164  142.6865  157.7188 N   0  0  0  0  0  0  0  0  0  0  0  0
  151.5904  144.1265  157.4468 C   0  0  0  0  0  0  0  0  0  0  0  0
  150.8859  144.7823  158.6469 C   0  0  0  0  0  0  0  0  0  0  0  0
  151.4544  144.3460  159.9236 N   0  0  0  0  0  0  0  0  0  0  0  0
  152.2451  143.2701  160.0956 C   0  0  0  0  0  0  0  0  0  0  0  0
  152.6969  142.9723  161.1987 O   0  0  0  0  0  0  0  0  0  0  0  0
  152.5861  142.3977  158.8715 C   0  0  0  0  0  0  0  0  0  0  0  0
  148.0177  141.9860  154.9730 C   0  0  0  0  0  0  0  0  0  0  0  0
  147.1229  141.3832  154.1624 N   0  0  0  0  0  0  0  0  0  0  0  0
  145.1926  134.4957  150.6979 H   0  0  0  0  0  0  0  0  0  0  0  0
  144.6986  135.9555  149.8392 H   0  0  0  0  0  0  0  0  0  0  0  0
  144.0007  135.5740  151.4240 H   0  0  0  0  0  0  0  0  0  0  0  0
  145.3836  138.0574  150.6963 H   0  0  0  0  0  0  0  0  0  0  0  0
  144.8250  137.7425  152.3353 H   0  0  0  0  0  0  0  0  0  0  0  0
  147.4724  137.6568  152.8480 H   0  0  0  0  0  0  0  0  0  0  0  0
  147.5538  138.6096  151.3645 H   0  0  0  0  0  0  0  0  0  0  0  0
  148.7694  138.4521  153.6986 H   0  0  0  0  0  0  0  0  0  0  0  0
  150.4197  139.5653  155.1755 H   0  0  0  0  0  0  0  0  0  0  0  0
  149.9300  143.1342  156.2273 H   0  0  0  0  0  0  0  0  0  0  0  0
  152.5940  144.5419  157.3407 H   0  0  0  0  0  0  0  0  0  0  0  0
  151.0779  144.3782  156.5182 H   0  0  0  0  0  0  0  0  0  0  0  0
  150.9496  145.8683  158.5772 H   0  0  0  0  0  0  0  0  0  0  0  0
  149.8260  144.5257  158.6417 H   0  0  0  0  0  0  0  0  0  0  0  0
  151.2359  144.9048  160.7359 H   0  0  0  0  0  0  0  0  0  0  0  0
  152.5482  141.3538  159.1865 H   0  0  0  0  0  0  0  0  0  0  0  0
  153.6201  142.5922  158.5850 H   0  0  0  0  0  0  0  0  0  0  0  0
  147.7616  142.9842  155.2970 H   0  0  0  0  0  0  0  0  0  0  0  0
  1  2  1  0  0  0  0
  1 22  1  0  0  0  0
  1 23  1  0  0  0  0
  1 24  1  0  0  0  0
  2  3  1  0  0  0  0
  3  4  1  0  0  0  0
  3 25  1  0  0  0  0
  3 26  1  0  0  0  0
  4  5  1  0  0  0  0
  4 27  1  0  0  0  0
  4 28  1  0  0  0  0
  5  6  1  0  0  0  0
  6 21  1  0  0  0  0
  6  7  2  0  0  0  0
  7  8  1  0  0  0  0
  7 29  1  0  0  0  0
  8  9  2  0  0  0  0
  8 30  1  0  0  0  0
  9 10  1  0  0  0  0
  9 20  1  0  0  0  0
 10 11  1  0  0  0  0
 10 31  1  0  0  0  0
 11 12  2  0  0  0  0
 11 13  1  0  0  0  0
 13 19  1  0  0  0  0
 13 14  1  0  0  0  0
 14 15  1  0  0  0  0
 14 32  1  0  0  0  0
 14 33  1  0  0  0  0
 15 16  1  0  0  0  0
 15 34  1  0  0  0  0
 15 35  1  0  0  0  0
 16 17  1  0  0  0  0
 16 36  1  0  0  0  0
 17 18  2  0  0  0  0
 17 19  1  0  0  0  0
 19 37  1  0  0  0  0
 19 38  1  0  0  0  0
 20 21  2  0  0  0  0
 20 39  1  0  0  0  0
M  END
> <s_m_source_file>
AV-unprocessed.smi

> <i_m_source_file_index>
2082

> <i_lp_mmshare_version>
43012

> <i_f3d_flags>
0

> <s_epik_input>
W0NIM11PW0NIMl1bQ0gyXU9jMVtjSF1bY0hdYyhbY0hdbjEpW05IXUMoPU8pTjJbQ0gyXVtDSDJdW05IXUMoPU8pW0NIMl0y

> <s_epik_cmdline>
J2VwaWtfcHl0aG9uJywgJy1waCcsICc3LjAnLCAnLXRuJywgJzgnLCAnLW1hJywgJzIwMCcsICctbWV0YWxfYmluZGluZycsICctaW1hZScsICc8aW5maWxlLm1hZT4nLCAnLW9tYWUnLCAnPG91dGZpbGUubWFlPic=

> <r_lp_tautomer_probability>
1

> <r_epik_Ionization_Penalty>
5.92413e-05

> <r_epik_Ionization_Penalty_Charging>
0

> <r_epik_Ionization_Penalty_Neutral>
5.92413e-05

> <r_epik_State_Penalty>
-0

> <r_epik_Charging_Adjusted_Penalty>
0

> <i_epik_Tot_Q>
0

> <i_epik_Tot_abs_Q>
0

> <r_epik_Metal_State_Penalty>
-0

> <b_epik_Metal_Only>
0

> <s_lp_Force_Field>
OPLS_2005

> <r_lp_Energy>
31.1837

> <b_lp_Chiralities_Consistent>
1

> <s_lp_Variant>
AV-unprocessed.smi:2082-1

> <Gold.Version>
5.8.1

> <Gold.Id.Protein>
6NUR|6NUR_protein|mol2

> <Gold.PLP.Fitness>
39.2011

> <Gold.PLP.PLP>
-34.1935

> <Gold.PLP.part.hbond>
-1.0000

> <Gold.PLP.part.metal>
0.0000

> <Gold.PLP.part.buried>
-0.0098

> <Gold.PLP.part.nonpolar>
-37.0448

> <Gold.PLP.part.repulsive>
2.5439

> <Gold.PLP.ligand.clash>
0.0083

> <Gold.PLP.ligand.torsion>
0.5084

> <Gold.PLP.Chemscore.Hbond>
1.0000

> <Gold.PLP.Chemscore.CHOScore>
1.0000

> <Gold.PLP.Chemscore.Metal>
0.0000

> <Gold.Chemscore.Hbonds>
donor molecule, donor type, donor heavy atom, donor atom, acceptor molecule, acceptor atom, score
      L1  H    10    31       P1  8028  1.00
      L1  C    20    39       P1  8028  1.00

> <Gold.PLP.Chemscore.Internal.Correction>
0.0328

> <Gold.Rescore>
     Score         DG    S(hbond)    S(metal)    S(lipo)     H(rot)  DE(clash)    DE(int)     intcor
     10.43     -12.28       0.97        0.00      69.99       1.81       0.37       1.47       ----

> <Gold.Chemscore.Fitness>
10.4289

> <Gold.Chemscore.DG>
-12.2768

> <Gold.Chemscore.ZeroCoef>
-5.4800

> <Gold.Chemscore.Hbond>
0.9702

> <Gold.Chemscore.Metal>
0.0000

> <Gold.Chemscore.Lipo>
69.9876

> <Gold.Chemscore.Internal_Hbond>
0.0000

> <Gold.Chemscore.DEClash>
0.3735

> <Gold.Chemscore.DEInternal>
1.4745

> <Gold.Chemscore.Rot>
1.8095

> <Gold.Chemscore.Internal.Correction>
   9.000000E+99

> <Gold.Chemscore.Hbonds>
donor molecule, donor type, donor heavy atom, donor atom, acceptor molecule, acceptor atom, score
      L1  H    10    31       P1  8028  0.93

> <Gold.Chemscore.Hbond.Weighted>
-3.2405

> <Gold.Chemscore.Metal.Weighted>
-0.0000

> <Gold.Chemscore.Lipo.Weighted>
-8.1886

> <Gold.Chemscore.Internal_Hbond.Weighted>
0.0000

> <Gold.Chemscore.DEClash.Weighted>
0.3735

> <Gold.Chemscore.DEInternal.Weighted>
1.4745

> <Gold.Chemscore.Rot.Weighted>
4.6322

> <Gold.Chemscore.Internal.Correction.Weighted>
   9.000000E+99

> <Gold.Protein.RotatedTorsions>
[ 6907 6896 6895 6894 ] final -105.62 input  -60.11 | X-H torsion
[ 7974 7965 7964 7962 ] final  154.19 input  175.53 | X-H torsion
[ 8008 7997 7996 7995 ] final   55.02 input   59.86 | X-H torsion
[ 10167 10162 10161 10158 ] final   25.09 input  -65.29 | X-H torsion
[ 10718 10713 10712 10709 ] final  103.80 input   66.30 | X-H torsion
[ 10763 10752 10751 10750 ] final  -57.12 input  -60.55 | X-H torsion
[ 11005 11000 10999 10996 ] final   32.86 input  -57.11 | X-H torsion

> <Gold.Protein.ActiveResidues>
 VAL166  LYS551  ARG553  GLY616  TRP617  ASP618  TYR619  PRO620  LYS621  CYS622 
 ASP623  PHE694  ASN695  SER759  ASP760  ASP761  ALA762  ILE779  LEU786  VAL792 
 PHE793  MET794  SER795  GLU796  ALA797  LYS798  CYS799  TRP800  GLU811  SER814 

> <Gold.Protein.RotatedAtoms>
  150.7346  134.0098  159.3665 H   0  0  0  0  0  0  0  0  0  0  0  0  # atno 6907 bound_to 6896
  151.8057  135.0693  160.0415 H   0  0  0  0  0  0  0  0  0  0  0  0  # atno 6908 bound_to 6896
  152.3108  133.5715  159.5716 H   0  0  0  0  0  0  0  0  0  0  0  0  # atno 6909 bound_to 6896
  144.8105  139.6900  143.6143 H   0  0  0  0  0  0  0  0  0  0  0  0  # atno 7974 bound_to 7965
  155.4942  140.3472  155.4360 H   0  0  0  0  0  0  0  0  0  0  0  0  # atno 8008 bound_to 7997
  156.0956  140.1422  156.9562 H   0  0  0  0  0  0  0  0  0  0  0  0  # atno 8009 bound_to 7997
  154.4662  140.0917  156.7003 H   0  0  0  0  0  0  0  0  0  0  0  0  # atno 8010 bound_to 7997
  140.5134  144.0122  150.6383 H   0  0  0  0  0  0  0  0  0  0  0  0  # atno 10167 bound_to 10162
  157.6761  131.0788  150.5610 H   0  0  0  0  0  0  0  0  0  0  0  0  # atno 10718 bound_to 10713
  154.2174  135.6384  153.5134 H   0  0  0  0  0  0  0  0  0  0  0  0  # atno 10763 bound_to 10752
  152.9976  135.5488  154.6150 H   0  0  0  0  0  0  0  0  0  0  0  0  # atno 10764 bound_to 10752
  154.5602  135.2908  155.0900 H   0  0  0  0  0  0  0  0  0  0  0  0  # atno 10765 bound_to 10752
  140.2691  134.3103  155.7833 H   0  0  0  0  0  0  0  0  0  0  0  0  # atno 11005 bound_to 11000
  146.2403  139.5987  142.9496 LP  0  0  0  0  0  0  0  0  0  0  0  0  # atno 17320 bound_to 7965
  145.5336  141.0425  143.2369 LP  0  0  0  0  0  0  0  0  0  0  0  0  # atno 17321 bound_to 7965
  140.3451  143.2996  152.0547 LP  0  0  0  0  0  0  0  0  0  0  0  0  # atno 17342 bound_to 10162
  139.4902  144.6414  151.6868 LP  0  0  0  0  0  0  0  0  0  0  0  0  # atno 17343 bound_to 10162
  156.5913  130.4330  149.5935 LP  0  0  0  0  0  0  0  0  0  0  0  0  # atno 17370 bound_to 10713
  156.2581  130.6946  151.1706 LP  0  0  0  0  0  0  0  0  0  0  0  0  # atno 17371 bound_to 10713
  141.2180  133.7456  156.9306 LP  0  0  0  0  0  0  0  0  0  0  0  0  # atno 17394 bound_to 11000
  140.1391  134.9306  157.2442 LP  0  0  0  0  0  0  0  0  0  0  0  0  # atno 17395 bound_to 11000

$$$$
