AV-unprocessed.smi:1692|AV-procd|sdf|6779|dock3
  -GOLD-   22720 7543D 1   1.00000     0.00000
 Structure written by MMmdl.
 46 47  0  0  0  0  0  0  0  0  2 V2000
  144.7928  135.3158  151.0484 C   0  0  0  0  0  0  0  0  0  0  0  0
  145.8134  135.8645  152.0517 C   0  0  1  0  0  0  0  0  0  0  0  0
  145.8404  137.4046  152.0700 C   0  0  0  0  0  0  0  0  0  0  0  0
  146.7828  137.8965  153.1027 N   0  3  1  0  0  0  0  0  0  0  0  0
  146.8904  139.3770  153.1126 C   0  0  0  0  0  0  0  0  0  0  0  0
  147.8829  139.8869  154.1710 C   0  0  0  0  0  0  0  0  0  0  0  0
  148.5626  141.1997  153.7474 C   0  0  0  0  0  0  0  0  0  0  0  0
  148.9625  141.9983  154.9005 N   0  0  0  0  0  0  0  0  0  0  0  0
  150.0305  141.7504  155.6729 C   0  0  0  0  0  0  0  0  0  0  0  0
  150.8045  140.8130  155.4751 O   0  0  0  0  0  0  0  0  0  0  0  0
  150.1341  142.6507  156.6664 N   0  0  0  0  0  0  0  0  0  0  0  0
  151.1184  142.7207  157.6882 C   0  0  0  0  0  0  0  0  0  0  0  0
  151.4709  144.0285  158.0914 C   0  0  0  0  0  0  0  0  0  0  0  0
  152.4374  144.2057  159.1004 C   0  0  0  0  0  0  0  0  0  0  0  0
  153.0261  143.0690  159.6823 C   0  0  0  0  0  0  0  0  0  0  0  0
  152.6188  141.8030  159.2230 C   0  0  0  0  0  0  0  0  0  0  0  0
  151.6940  141.6308  158.2549 N   0  0  0  0  0  0  0  0  0  0  0  0
  146.4436  137.3167  154.4256 C   0  0  0  0  0  0  0  0  0  0  0  0
  146.3997  135.7788  154.3456 C   0  0  1  0  0  0  0  0  0  0  0  0
  145.9750  135.1417  155.6734 C   0  0  0  0  0  0  0  0  0  0  0  0
  145.4621  135.3909  153.3471 O   0  0  0  0  0  0  0  0  0  0  0  0
  145.0223  135.6454  150.0349 H   0  0  0  0  0  0  0  0  0  0  0  0
  143.7832  135.6496  151.2889 H   0  0  0  0  0  0  0  0  0  0  0  0
  144.7917  134.2255  151.0506 H   0  0  0  0  0  0  0  0  0  0  0  0
  146.8006  135.4825  151.7852 H   0  0  0  0  0  0  0  0  0  0  0  0
  146.1412  137.7767  151.0899 H   0  0  0  0  0  0  0  0  0  0  0  0
  144.8427  137.7988  152.2710 H   0  0  0  0  0  0  0  0  0  0  0  0
  147.2381  139.7137  152.1349 H   0  0  0  0  0  0  0  0  0  0  0  0
  145.9047  139.8215  153.2588 H   0  0  0  0  0  0  0  0  0  0  0  0
  147.3702  140.0415  155.1200 H   0  0  0  0  0  0  0  0  0  0  0  0
  148.6443  139.1269  154.3514 H   0  0  0  0  0  0  0  0  0  0  0  0
  149.4559  140.9841  153.1609 H   0  0  0  0  0  0  0  0  0  0  0  0
  147.9019  141.7825  153.1031 H   0  0  0  0  0  0  0  0  0  0  0  0
  148.3775  142.7874  155.1345 H   0  0  0  0  0  0  0  0  0  0  0  0
  149.4241  143.3672  156.6993 H   0  0  0  0  0  0  0  0  0  0  0  0
  151.0075  144.8913  157.6354 H   0  0  0  0  0  0  0  0  0  0  0  0
  152.7211  145.1967  159.4223 H   0  0  0  0  0  0  0  0  0  0  0  0
  153.7697  143.1645  160.4597 H   0  0  0  0  0  0  0  0  0  0  0  0
  153.0456  140.9046  159.6436 H   0  0  0  0  0  0  0  0  0  0  0  0
  147.1793  137.6161  155.1712 H   0  0  0  0  0  0  0  0  0  0  0  0
  145.4783  137.7043  154.7562 H   0  0  0  0  0  0  0  0  0  0  0  0
  147.3867  135.3966  154.0785 H   0  0  0  0  0  0  0  0  0  0  0  0
  146.6684  135.4015  156.4737 H   0  0  0  0  0  0  0  0  0  0  0  0
  145.9527  134.0545  155.5943 H   0  0  0  0  0  0  0  0  0  0  0  0
  144.9801  135.4739  155.9716 H   0  0  0  0  0  0  0  0  0  0  0  0
  147.6933  137.5417  152.8471 H   0  0  0  0  0  0  0  0  0  0  0  0
  1  2  1  0  0  0  0
  1 22  1  0  0  0  0
  1 23  1  0  0  0  0
  1 24  1  0  0  0  0
  2 21  1  0  0  0  0
  2  3  1  0  0  0  0
  2 25  1  0  0  0  0
  3  4  1  0  0  0  0
  3 26  1  0  0  0  0
  3 27  1  0  0  0  0
  4  5  1  0  0  0  0
  4 18  1  0  0  0  0
  4 46  1  0  0  0  0
  5  6  1  0  0  0  0
  5 28  1  0  0  0  0
  5 29  1  0  0  0  0
  6  7  1  0  0  0  0
  6 30  1  0  0  0  0
  6 31  1  0  0  0  0
  7  8  1  0  0  0  0
  7 32  1  0  0  0  0
  7 33  1  0  0  0  0
  8  9  1  0  0  0  0
  8 34  1  0  0  0  0
  9 10  2  0  0  0  0
  9 11  1  0  0  0  0
 11 12  1  0  0  0  0
 11 35  1  0  0  0  0
 12 17  1  0  0  0  0
 12 13  2  0  0  0  0
 13 14  1  0  0  0  0
 13 36  1  0  0  0  0
 14 15  2  0  0  0  0
 14 37  1  0  0  0  0
 15 16  1  0  0  0  0
 15 38  1  0  0  0  0
 16 17  2  0  0  0  0
 16 39  1  0  0  0  0
 18 19  1  0  0  0  0
 18 40  1  0  0  0  0
 18 41  1  0  0  0  0
 19 20  1  0  0  0  0
 19 21  1  0  0  0  0
 19 42  1  0  0  0  0
 20 43  1  0  0  0  0
 20 44  1  0  0  0  0
 20 45  1  0  0  0  0
M  CHG  1   4   1
M  END
> <s_m_source_file>
AV-unprocessed.smi

> <i_m_source_file_index>
1692

> <i_lp_mmshare_version>
43012

> <i_f3d_flags>
0

> <s_epik_input>
W0NIM11bQ0BASF0xW0NIMl1OKFtDSDJdW0NASF0oTzEpW0NIM10pW0NIMl1bQ0gyXVtDSDJdW05IXUMoPU8pW05IXWMyW2NIXVtjSF1bY0hdW2NIXW4y

> <s_epik_cmdline>
J2VwaWtfcHl0aG9uJywgJy1waCcsICc3LjAnLCAnLXRuJywgJzgnLCAnLW1hJywgJzIwMCcsICctbWV0YWxfYmluZGluZycsICctaW1hZScsICc8aW5maWxlLm1hZT4nLCAnLW9tYWUnLCAnPG91dGZpbGUubWFlPic=

> <r_epik_Ionization_Penalty>
0.270538

> <r_epik_Ionization_Penalty_Charging>
0.270496

> <r_epik_Ionization_Penalty_Neutral>
4.22978e-05

> <r_epik_State_Penalty>
0.262618

> <r_epik_Charging_Adjusted_Penalty>
0.533114

> <i_epik_Tot_Q>
1

> <i_epik_Tot_abs_Q>
1

> <r_epik_Metal_State_Penalty>
0.262618

> <b_epik_Metal_Only>
0

> <s_lp_Force_Field>
OPLS_2005

> <r_lp_Energy>
16.7861

> <b_lp_Chiralities_Consistent>
1

> <s_lp_Variant>
AV-unprocessed.smi:1692-2

> <Gold.Version>
5.8.1

> <Gold.Id.Protein>
6NUR|6NUR_protein|mol2

> <Gold.PLP.Fitness>
49.2140

> <Gold.PLP.PLP>
-36.9137

> <Gold.PLP.part.hbond>
-4.0000

> <Gold.PLP.part.metal>
0.0000

> <Gold.PLP.part.buried>
0.2803

> <Gold.PLP.part.nonpolar>
-32.8055

> <Gold.PLP.part.repulsive>
0.4261

> <Gold.PLP.ligand.clash>
0.0000

> <Gold.PLP.ligand.torsion>
0.7125

> <Gold.PLP.Chemscore.Hbond>
4.5642

> <Gold.PLP.Chemscore.CHOScore>
0.0000

> <Gold.PLP.Chemscore.Metal>
0.0000

> <Gold.Chemscore.Hbonds>
donor molecule, donor type, donor heavy atom, donor atom, acceptor molecule, acceptor atom, score
      L1  H     4    46       P1  7948  1.85
      L1  H     8    34       P1  8028  0.60
      L1  H    11    35       P1  8028  0.75
      P1  H  7989  7998       L1    10  0.59

> <Gold.PLP.Chemscore.Internal.Correction>
0.0328

> <Gold.Rescore>
     Score         DG    S(hbond)    S(metal)    S(lipo)     H(rot)  DE(clash)    DE(int)     intcor
     19.28     -21.44       3.05        0.00      88.39       1.78       0.59       1.56       ----

> <Gold.Chemscore.Fitness>
19.2833

> <Gold.Chemscore.DG>
-21.4371

> <Gold.Chemscore.ZeroCoef>
-5.4800

> <Gold.Chemscore.Hbond>
3.0465

> <Gold.Chemscore.Metal>
0.0000

> <Gold.Chemscore.Lipo>
88.3925

> <Gold.Chemscore.Internal_Hbond>
0.0000

> <Gold.Chemscore.DEClash>
0.5914

> <Gold.Chemscore.DEInternal>
1.5623

> <Gold.Chemscore.Rot>
1.7814

> <Gold.Chemscore.Internal.Correction>
   9.000000E+99

> <Gold.Chemscore.Hbonds>
donor molecule, donor type, donor heavy atom, donor atom, acceptor molecule, acceptor atom, score
      L1  H     4    46       P1  7948  0.86
      L1  H     8    34       P1  8028  0.56
      L1  H    11    35       P1  8028  0.74
      P1  H  7989  7998       L1    10  0.45

> <Gold.Chemscore.Hbond.Weighted>
-10.1755

> <Gold.Chemscore.Metal.Weighted>
-0.0000

> <Gold.Chemscore.Lipo.Weighted>
-10.3419

> <Gold.Chemscore.Internal_Hbond.Weighted>
0.0000

> <Gold.Chemscore.DEClash.Weighted>
0.5914

> <Gold.Chemscore.DEInternal.Weighted>
1.5623

> <Gold.Chemscore.Rot.Weighted>
4.5603

> <Gold.Chemscore.Internal.Correction.Weighted>
   9.000000E+99

> <Gold.Protein.RotatedTorsions>
[ 6907 6896 6895 6894 ] final  -52.32 input  -60.11 | X-H torsion
[ 7974 7965 7964 7962 ] final -125.60 input  175.53 | X-H torsion
[ 8008 7997 7996 7995 ] final  -81.23 input   59.86 | X-H torsion
[ 10167 10162 10161 10158 ] final   30.69 input  -65.29 | X-H torsion
[ 10718 10713 10712 10709 ] final  -47.85 input   66.30 | X-H torsion
[ 10763 10752 10751 10750 ] final  -73.27 input  -60.55 | X-H torsion
[ 11005 11000 10999 10996 ] final  115.77 input  -57.11 | X-H torsion

> <Gold.Protein.ActiveResidues>
 VAL166  LYS551  ARG553  GLY616  TRP617  ASP618  TYR619  PRO620  LYS621  CYS622 
 ASP623  PHE694  ASN695  SER759  ASP760  ASP761  ALA762  ILE779  LEU786  VAL792 
 PHE793  MET794  SER795  GLU796  ALA797  LYS798  CYS799  TRP800  GLU811  SER814 

> <Gold.Protein.RotatedAtoms>
  150.8529  134.7859  159.7022 H   0  0  0  0  0  0  0  0  0  0  0  0  # atno 6907 bound_to 6896
  152.4588  134.5227  159.9797 H   0  0  0  0  0  0  0  0  0  0  0  0  # atno 6908 bound_to 6896
  151.5345  133.3405  159.2960 H   0  0  0  0  0  0  0  0  0  0  0  0  # atno 6909 bound_to 6896
  144.9959  140.7775  143.4526 H   0  0  0  0  0  0  0  0  0  0  0  0  # atno 7974 bound_to 7965
  154.5963  140.0651  156.9307 H   0  0  0  0  0  0  0  0  0  0  0  0  # atno 8008 bound_to 7997
  155.2209  140.3330  155.4297 H   0  0  0  0  0  0  0  0  0  0  0  0  # atno 8009 bound_to 7997
  156.2289  140.1832  156.7277 H   0  0  0  0  0  0  0  0  0  0  0  0  # atno 8010 bound_to 7997
  140.4655  144.0842  150.6223 H   0  0  0  0  0  0  0  0  0  0  0  0  # atno 10167 bound_to 10162
  156.2044  130.4157  149.9198 H   0  0  0  0  0  0  0  0  0  0  0  0  # atno 10718 bound_to 10713
  154.4572  135.5902  153.6231 H   0  0  0  0  0  0  0  0  0  0  0  0  # atno 10763 bound_to 10752
  152.9819  135.6035  154.3531 H   0  0  0  0  0  0  0  0  0  0  0  0  # atno 10764 bound_to 10752
  154.3399  135.2842  155.2407 H   0  0  0  0  0  0  0  0  0  0  0  0  # atno 10765 bound_to 10752
  139.9020  134.9588  156.7095 H   0  0  0  0  0  0  0  0  0  0  0  0  # atno 11005 bound_to 11000
  145.2220  139.2154  143.5088 LP  0  0  0  0  0  0  0  0  0  0  0  0  # atno 17320 bound_to 7965
  146.3442  140.2080  142.8590 LP  0  0  0  0  0  0  0  0  0  0  0  0  # atno 17321 bound_to 7965
  140.4041  143.2689  151.9912 LP  0  0  0  0  0  0  0  0  0  0  0  0  # atno 17342 bound_to 10162
  139.4811  144.5972  151.7670 LP  0  0  0  0  0  0  0  0  0  0  0  0  # atno 17343 bound_to 10162
  156.6896  130.8890  151.3586 LP  0  0  0  0  0  0  0  0  0  0  0  0  # atno 17370 bound_to 10713
  157.7004  130.9327  150.0768 LP  0  0  0  0  0  0  0  0  0  0  0  0  # atno 17371 bound_to 10713
  140.7087  133.9243  155.8070 LP  0  0  0  0  0  0  0  0  0  0  0  0  # atno 17394 bound_to 11000
  141.0317  134.0747  157.4006 LP  0  0  0  0  0  0  0  0  0  0  0  0  # atno 17395 bound_to 11000

$$$$
