AV-unprocessed.smi:1677|AV-procd|sdf|6720|dock2
  -GOLD-   22720 7463D 1   1.00000     0.00000
 Structure written by MMmdl.
 37 38  0  0  0  0  0  0  0  0  2 V2000
  151.5350  139.6421  155.3773 C   0  0  0  0  0  0  0  0  0  0  0  0
  150.2217  140.4072  155.5887 C   0  0  2  0  0  0  0  0  0  0  0  0
  149.6586  140.9323  154.2503 C   0  0  0  0  0  0  0  0  0  0  0  0
  148.2092  141.1565  154.2884 N   0  0  0  0  0  0  0  0  0  0  0  0
  147.5233  142.0135  155.1102 C   0  0  0  0  0  0  0  0  0  0  0  0
  146.1983  141.8978  154.7771 C   0  0  0  0  0  0  0  0  0  0  0  0
  146.1307  140.9718  153.7709 N   0  3  0  0  0  0  0  0  0  0  0  0
  147.3536  140.5180  153.4788 C   0  0  0  0  0  0  0  0  0  0  0  0
  150.4593  141.5047  156.5257 N   0  0  0  0  0  0  0  0  0  0  0  0
  151.0153  141.3906  157.7429 C   0  0  0  0  0  0  0  0  0  0  0  0
  151.3976  140.3187  158.2132 O   0  0  0  0  0  0  0  0  0  0  0  0
  151.1335  142.6796  158.5651 C   0  0  2  0  0  0  0  0  0  0  0  0
  151.6780  143.8455  157.7080 C   0  0  0  0  0  0  0  0  0  0  0  0
  152.0497  145.0514  158.5527 C   0  0  0  0  0  0  0  0  0  0  0  0
  152.2151  144.9979  159.8855 C   0  0  0  0  0  0  0  0  0  0  0  0
  152.0532  143.7253  160.6979 C   0  0  0  0  0  0  0  0  0  0  0  0
  152.0178  142.4667  159.8103 C   0  0  0  0  0  0  0  0  0  0  0  0
  151.3907  138.7927  154.7092 H   0  0  0  0  0  0  0  0  0  0  0  0
  151.9210  139.2544  156.3207 H   0  0  0  0  0  0  0  0  0  0  0  0
  152.3028  140.2817  154.9405 H   0  0  0  0  0  0  0  0  0  0  0  0
  149.5071  139.7038  156.0203 H   0  0  0  0  0  0  0  0  0  0  0  0
  150.1497  141.8617  153.9575 H   0  0  0  0  0  0  0  0  0  0  0  0
  149.8476  140.2117  153.4536 H   0  0  0  0  0  0  0  0  0  0  0  0
  148.0172  142.6321  155.8456 H   0  0  0  0  0  0  0  0  0  0  0  0
  145.3221  142.3932  155.1691 H   0  0  0  0  0  0  0  0  0  0  0  0
  147.6015  139.7890  152.7280 H   0  0  0  0  0  0  0  0  0  0  0  0
  150.1777  142.4266  156.2239 H   0  0  0  0  0  0  0  0  0  0  0  0
  150.1358  142.9549  158.9132 H   0  0  0  0  0  0  0  0  0  0  0  0
  152.5624  143.5464  157.1438 H   0  0  0  0  0  0  0  0  0  0  0  0
  150.9256  144.1504  156.9799 H   0  0  0  0  0  0  0  0  0  0  0  0
  152.1956  145.9857  158.0307 H   0  0  0  0  0  0  0  0  0  0  0  0
  152.4673  145.8954  160.4313 H   0  0  0  0  0  0  0  0  0  0  0  0
  152.8695  143.6505  161.4166 H   0  0  0  0  0  0  0  0  0  0  0  0
  151.1304  143.8075  161.2726 H   0  0  0  0  0  0  0  0  0  0  0  0
  151.6654  141.6159  160.3953 H   0  0  0  0  0  0  0  0  0  0  0  0
  153.0348  142.2237  159.4976 H   0  0  0  0  0  0  0  0  0  0  0  0
  145.2793  140.6734  153.3116 H   0  0  0  0  0  0  0  0  0  0  0  0
  1  2  1  0  0  0  0
  1 18  1  0  0  0  0
  1 19  1  0  0  0  0
  1 20  1  0  0  0  0
  2  3  1  0  0  0  0
  2  9  1  0  0  0  0
  2 21  1  0  0  0  0
  3  4  1  0  0  0  0
  3 22  1  0  0  0  0
  3 23  1  0  0  0  0
  4  8  1  0  0  0  0
  4  5  1  0  0  0  0
  5  6  2  0  0  0  0
  5 24  1  0  0  0  0
  6  7  1  0  0  0  0
  6 25  1  0  0  0  0
  7  8  2  0  0  0  0
  7 37  1  0  0  0  0
  8 26  1  0  0  0  0
  9 10  1  0  0  0  0
  9 27  1  0  0  0  0
 10 11  2  0  0  0  0
 10 12  1  0  0  0  0
 12 17  1  0  0  0  0
 12 13  1  0  0  0  0
 12 28  1  0  0  0  0
 13 14  1  0  0  0  0
 13 29  1  0  0  0  0
 13 30  1  0  0  0  0
 14 15  2  0  0  0  0
 14 31  1  0  0  0  0
 15 16  1  0  0  0  0
 15 32  1  0  0  0  0
 16 17  1  0  0  0  0
 16 33  1  0  0  0  0
 16 34  1  0  0  0  0
 17 35  1  0  0  0  0
 17 36  1  0  0  0  0
M  CHG  1   7   1
M  END
> <s_m_source_file>
AV-unprocessed.smi

> <i_m_source_file_index>
1677

> <i_lp_mmshare_version>
43012

> <i_f3d_flags>
0

> <s_epik_input>
W2NIXTFuW2NIXVtjSF1uMVtDSDJdW0NAQEhdKFtDSDNdKVtOSF1DKD1PKVtDQEBIXTJbQ0gyXVtDSF09W0NIXVtDSDJdW0NIMl0y

> <s_epik_cmdline>
J2VwaWtfcHl0aG9uJywgJy1waCcsICc3LjAnLCAnLXRuJywgJzgnLCAnLW1hJywgJzIwMCcsICctbWV0YWxfYmluZGluZycsICctaW1hZScsICc8aW5maWxlLm1hZT4nLCAnLW9tYWUnLCAnPG91dGZpbGUubWFlPic=

> <r_lp_tautomer_probability>
1

> <r_epik_Ionization_Penalty>
0.245541

> <r_epik_Ionization_Penalty_Charging>
0

> <r_epik_Ionization_Penalty_Neutral>
0.245541

> <r_epik_State_Penalty>
0.236686

> <r_epik_Charging_Adjusted_Penalty>
0.236686

> <i_epik_Tot_Q>
1

> <i_epik_Tot_abs_Q>
1

> <r_epik_Metal_State_Penalty>
0.529594

> <b_epik_Metal_Only>
0

> <s_lp_Force_Field>
OPLS_2005

> <r_lp_Energy>
10.8723

> <b_lp_Chiralities_Consistent>
1

> <s_lp_Variant>
AV-unprocessed.smi:1677-1

> <Gold.Version>
5.8.1

> <Gold.Id.Protein>
6NUR|6NUR_protein|mol2

> <Gold.PLP.Fitness>
49.6928

> <Gold.PLP.PLP>
-39.2153

> <Gold.PLP.part.hbond>
-1.0000

> <Gold.PLP.part.metal>
0.0000

> <Gold.PLP.part.buried>
0.0396

> <Gold.PLP.part.nonpolar>
-37.5742

> <Gold.PLP.part.repulsive>
0.0654

> <Gold.PLP.ligand.clash>
0.0000

> <Gold.PLP.ligand.torsion>
0.5844

> <Gold.PLP.Chemscore.Hbond>
2.0000

> <Gold.PLP.Chemscore.CHOScore>
1.8594

> <Gold.PLP.Chemscore.Metal>
0.0000

> <Gold.Chemscore.Hbonds>
donor molecule, donor type, donor heavy atom, donor atom, acceptor molecule, acceptor atom, score
      L1  H     7    37       P1 10175  2.00
      L1  C     5    24       P1  8028  0.99
      L1  C     8    26       P1  7957  0.84

> <Gold.PLP.Chemscore.Internal.Correction>
0.0681

> <Gold.Rescore>
     Score         DG    S(hbond)    S(metal)    S(lipo)     H(rot)  DE(clash)    DE(int)     intcor
     14.23     -15.89       0.97        0.00     101.08       1.81       0.09       1.57       ----

> <Gold.Chemscore.Fitness>
14.2327

> <Gold.Chemscore.DG>
-15.8926

> <Gold.Chemscore.ZeroCoef>
-5.4800

> <Gold.Chemscore.Hbond>
0.9678

> <Gold.Chemscore.Metal>
0.0000

> <Gold.Chemscore.Lipo>
101.0752

> <Gold.Chemscore.Internal_Hbond>
0.0000

> <Gold.Chemscore.DEClash>
0.0889

> <Gold.Chemscore.DEInternal>
1.5710

> <Gold.Chemscore.Rot>
1.8147

> <Gold.Chemscore.Internal.Correction>
   9.000000E+99

> <Gold.Chemscore.Hbonds>
donor molecule, donor type, donor heavy atom, donor atom, acceptor molecule, acceptor atom, score
      L1  H     7    37       P1 10175  0.88

> <Gold.Chemscore.Hbond.Weighted>
-3.2323

> <Gold.Chemscore.Metal.Weighted>
-0.0000

> <Gold.Chemscore.Lipo.Weighted>
-11.8258

> <Gold.Chemscore.Internal_Hbond.Weighted>
0.0000

> <Gold.Chemscore.DEClash.Weighted>
0.0889

> <Gold.Chemscore.DEInternal.Weighted>
1.5710

> <Gold.Chemscore.Rot.Weighted>
4.6456

> <Gold.Chemscore.Internal.Correction.Weighted>
   9.000000E+99

> <Gold.Protein.RotatedTorsions>
[ 6907 6896 6895 6894 ] final  -55.25 input  -60.11 | X-H torsion
[ 7974 7965 7964 7962 ] final -140.42 input  175.53 | X-H torsion
[ 8008 7997 7996 7995 ] final  -73.92 input   59.86 | X-H torsion
[ 10167 10162 10161 10158 ] final  -75.98 input  -65.29 | X-H torsion
[ 10718 10713 10712 10709 ] final  137.85 input   66.30 | X-H torsion
[ 10763 10752 10751 10750 ] final  168.11 input  -60.55 | X-H torsion
[ 11005 11000 10999 10996 ] final -147.88 input  -57.11 | X-H torsion

> <Gold.Protein.ActiveResidues>
 VAL166  LYS551  ARG553  GLY616  TRP617  ASP618  TYR619  PRO620  LYS621  CYS622 
 ASP623  PHE694  ASN695  SER759  ASP760  ASP761  ALA762  ILE779  LEU786  VAL792 
 PHE793  MET794  SER795  GLU796  ALA797  LYS798  CYS799  TRP800  GLU811  SER814 

> <Gold.Protein.RotatedAtoms>
  150.8268  134.7503  159.6819 H   0  0  0  0  0  0  0  0  0  0  0  0  # atno 6907 bound_to 6896
  152.4378  134.5649  159.9914 H   0  0  0  0  0  0  0  0  0  0  0  0  # atno 6908 bound_to 6896
  151.5819  133.3339  159.3046 H   0  0  0  0  0  0  0  0  0  0  0  0  # atno 6909 bound_to 6896
  144.8598  140.6201  143.5335 H   0  0  0  0  0  0  0  0  0  0  0  0  # atno 7974 bound_to 7965
  154.5287  140.0770  156.8306 H   0  0  0  0  0  0  0  0  0  0  0  0  # atno 8008 bound_to 7997
  155.3420  140.3408  155.4221 H   0  0  0  0  0  0  0  0  0  0  0  0  # atno 8009 bound_to 7997
  156.1759  140.1635  156.8351 H   0  0  0  0  0  0  0  0  0  0  0  0  # atno 8010 bound_to 7997
  140.4896  143.2383  151.7929 H   0  0  0  0  0  0  0  0  0  0  0  0  # atno 10167 bound_to 10162
  157.4317  131.1049  151.0243 H   0  0  0  0  0  0  0  0  0  0  0  0  # atno 10718 bound_to 10713
  154.3638  135.2753  155.2305 H   0  0  0  0  0  0  0  0  0  0  0  0  # atno 10763 bound_to 10752
  154.4482  135.5937  153.6177 H   0  0  0  0  0  0  0  0  0  0  0  0  # atno 10764 bound_to 10752
  152.9842  135.6035  154.3861 H   0  0  0  0  0  0  0  0  0  0  0  0  # atno 10765 bound_to 10752
  140.7671  134.3232  157.5085 H   0  0  0  0  0  0  0  0  0  0  0  0  # atno 11005 bound_to 11000
  145.4334  139.1546  143.4010 LP  0  0  0  0  0  0  0  0  0  0  0  0  # atno 17320 bound_to 7965
  146.2852  140.4452  142.8761 LP  0  0  0  0  0  0  0  0  0  0  0  0  # atno 17321 bound_to 7965
  139.4848  144.4667  151.9475 LP  0  0  0  0  0  0  0  0  0  0  0  0  # atno 17342 bound_to 10162
  140.3753  144.2804  150.5915 LP  0  0  0  0  0  0  0  0  0  0  0  0  # atno 17343 bound_to 10162
  157.1137  130.6032  149.5488 LP  0  0  0  0  0  0  0  0  0  0  0  0  # atno 17370 bound_to 10713
  155.9915  130.4970  150.7304 LP  0  0  0  0  0  0  0  0  0  0  0  0  # atno 17371 bound_to 10713
  139.8761  134.9238  156.3333 LP  0  0  0  0  0  0  0  0  0  0  0  0  # atno 17394 bound_to 11000
  140.9609  133.7389  156.0400 LP  0  0  0  0  0  0  0  0  0  0  0  0  # atno 17395 bound_to 11000

$$$$
