AV-unprocessed.smi:210|AV-procd|sdf|1613|dock9
  -GOLD-   2262019533D 1   1.00000     0.00000
 Structure written by MMmdl.
 57 61  0  0  0  0  0  0  0  0  1 V2000
  150.7799  141.8716  157.3295 C   0  0  0  0  0  0  0  0  0  0  0  0
  149.4039  141.6801  157.6078 O   0  0  0  0  0  0  0  0  0  0  0  0
  148.6070  141.6494  156.4342 C   0  0  2  0  0  0  0  0  0  0  0  0
  147.1256  141.3245  156.6769 C   0  0  0  0  0  0  0  0  0  0  0  0
  147.1925  140.4767  155.3942 C   0  0  2  0  0  0  0  0  0  0  0  0
  146.4045  139.2341  155.3893 N   0  0  0  0  0  0  0  0  0  0  0  0
  146.2080  138.4265  156.5914 C   0  0  0  0  0  0  0  0  0  0  0  0
  146.2729  138.6260  154.1790 C   0  0  0  0  0  0  0  0  0  0  0  0
  146.7308  139.2902  153.0851 N   0  0  0  0  0  0  0  0  0  0  0  0
  146.6326  138.7486  151.8684 C   0  0  0  0  0  0  0  0  0  0  0  0
  146.1255  137.5653  151.5214 N   0  0  0  0  0  0  0  0  0  0  0  0
  145.6758  136.8814  152.6116 C   0  0  0  0  0  0  0  0  0  0  0  0
  145.7033  137.3335  153.9634 C   0  0  0  0  0  0  0  0  0  0  0  0
  145.1545  136.3563  154.7882 N   0  0  0  0  0  0  0  0  0  0  0  0
  144.8084  135.3983  153.9741 C   0  0  0  0  0  0  0  0  0  0  0  0
  145.1114  135.6179  152.6506 N   0  0  0  0  0  0  0  0  0  0  0  0
  144.8106  134.7525  151.5475 C   0  0  0  0  0  0  0  0  0  0  0  0
  144.1885  133.3692  151.7687 C   0  0  0  0  0  0  0  0  0  0  0  0
  144.9561  132.8411  150.5346 C   0  0  0  0  0  0  0  0  0  0  0  0
  145.5391  131.4180  150.6402 C   0  0  0  0  0  0  0  0  0  0  0  0
  146.5236  131.3082  151.6484 O   0  0  0  0  0  0  0  0  0  0  0  0
  144.1558  132.9083  149.2197 C   0  0  0  0  0  0  0  0  0  0  0  0
  143.0267  132.0589  149.2532 O   0  0  0  0  0  0  0  0  0  0  0  0
  145.9211  134.0233  150.7856 C   0  0  0  0  0  0  0  0  0  0  0  0
  148.7055  140.3210  155.6545 C   0  0  0  0  0  0  0  0  0  0  0  0
  149.3410  139.0704  156.2940 C   0  0  0  0  0  0  0  0  0  0  0  0
  150.5946  139.3561  155.4615 C   0  0  0  0  0  0  0  0  0  0  0  0
  149.7134  140.1704  154.5081 C   0  0  0  0  0  0  0  0  0  0  0  0
  151.3453  141.8689  158.2613 H   0  0  0  0  0  0  0  0  0  0  0  0
  150.9556  142.8268  156.8335 H   0  0  0  0  0  0  0  0  0  0  0  0
  151.1686  141.0722  156.6978 H   0  0  0  0  0  0  0  0  0  0  0  0
  148.7512  142.5160  155.7851 H   0  0  0  0  0  0  0  0  0  0  0  0
  146.9915  140.7698  157.6058 H   0  0  0  0  0  0  0  0  0  0  0  0
  146.4581  142.1846  156.6213 H   0  0  0  0  0  0  0  0  0  0  0  0
  147.0086  141.1129  154.5264 H   0  0  0  0  0  0  0  0  0  0  0  0
  145.4878  137.6261  156.4199 H   0  0  0  0  0  0  0  0  0  0  0  0
  145.7991  139.0336  157.3983 H   0  0  0  0  0  0  0  0  0  0  0  0
  147.1448  137.9855  156.9310 H   0  0  0  0  0  0  0  0  0  0  0  0
  147.0171  139.3484  151.0569 H   0  0  0  0  0  0  0  0  0  0  0  0
  144.3268  134.4961  154.3223 H   0  0  0  0  0  0  0  0  0  0  0  0
  144.2006  135.3442  150.8628 H   0  0  0  0  0  0  0  0  0  0  0  0
  144.5064  132.9191  152.7103 H   0  0  0  0  0  0  0  0  0  0  0  0
  143.1021  133.3452  151.6782 H   0  0  0  0  0  0  0  0  0  0  0  0
  144.7548  130.6924  150.8586 H   0  0  0  0  0  0  0  0  0  0  0  0
  145.9985  131.1112  149.7001 H   0  0  0  0  0  0  0  0  0  0  0  0
  147.3536  131.1192  151.2382 H   0  0  0  0  0  0  0  0  0  0  0  0
  143.8220  133.9263  149.0157 H   0  0  0  0  0  0  0  0  0  0  0  0
  144.7679  132.6128  148.3676 H   0  0  0  0  0  0  0  0  0  0  0  0
  142.2489  132.5940  149.2959 H   0  0  0  0  0  0  0  0  0  0  0  0
  146.2621  134.5405  149.8882 H   0  0  0  0  0  0  0  0  0  0  0  0
  146.7653  133.7699  151.4289 H   0  0  0  0  0  0  0  0  0  0  0  0
  149.4871  139.1156  157.3733 H   0  0  0  0  0  0  0  0  0  0  0  0
  148.8695  138.1343  155.9962 H   0  0  0  0  0  0  0  0  0  0  0  0
  151.3217  139.9720  155.9933 H   0  0  0  0  0  0  0  0  0  0  0  0
  151.0575  138.4758  155.0150 H   0  0  0  0  0  0  0  0  0  0  0  0
  149.3259  139.5741  153.6806 H   0  0  0  0  0  0  0  0  0  0  0  0
  150.1578  141.1033  154.1604 H   0  0  0  0  0  0  0  0  0  0  0  0
  1  2  1  0  0  0  0
  1 29  1  0  0  0  0
  1 30  1  0  0  0  0
  1 31  1  0  0  0  0
  2  3  1  0  0  0  0
  3 25  1  0  0  0  0
  3  4  1  0  0  0  0
  3 32  1  0  0  0  0
  4  5  1  0  0  0  0
  4 33  1  0  0  0  0
  4 34  1  0  0  0  0
  5  6  1  0  0  0  0
  5 25  1  0  0  0  0
  5 35  1  0  0  0  0
  6  7  1  0  0  0  0
  6  8  1  0  0  0  0
  7 36  1  0  0  0  0
  7 37  1  0  0  0  0
  7 38  1  0  0  0  0
  8 13  1  0  0  0  0
  8  9  2  0  0  0  0
  9 10  1  0  0  0  0
 10 11  2  0  0  0  0
 10 39  1  0  0  0  0
 11 12  1  0  0  0  0
 12 16  1  0  0  0  0
 12 13  2  0  0  0  0
 13 14  1  0  0  0  0
 14 15  2  0  0  0  0
 15 16  1  0  0  0  0
 15 40  1  0  0  0  0
 16 17  1  0  0  0  0
 17 24  1  0  0  0  0
 17 18  1  0  0  0  0
 17 41  1  0  0  0  0
 18 19  1  0  0  0  0
 18 42  1  0  0  0  0
 18 43  1  0  0  0  0
 19 20  1  0  0  0  0
 19 22  1  0  0  0  0
 19 24  1  0  0  0  0
 20 21  1  0  0  0  0
 20 44  1  0  0  0  0
 20 45  1  0  0  0  0
 21 46  1  0  0  0  0
 22 23  1  0  0  0  0
 22 47  1  0  0  0  0
 22 48  1  0  0  0  0
 23 49  1  0  0  0  0
 24 50  1  0  0  0  0
 24 51  1  0  0  0  0
 25 28  1  0  0  0  0
 25 26  1  0  0  0  0
 26 27  1  0  0  0  0
 26 52  1  0  0  0  0
 26 53  1  0  0  0  0
 27 28  1  0  0  0  0
 27 54  1  0  0  0  0
 27 55  1  0  0  0  0
 28 56  1  0  0  0  0
 28 57  1  0  0  0  0
M  END
> <s_m_source_file>
AV-unprocessed.smi

> <i_m_source_file_index>
210

> <i_lp_mmshare_version>
43012

> <i_f3d_flags>
0

> <s_epik_input>
W0NIMl0xW0NIMl1bQ0gyXUMxMltDQEhdKE9bQ0gzXSlbQ0gyXVtDQEhdMk4oW0NIM10pYyhuW2NIXW4zKWMoYzM0KW5bY0hdbjRbQ0hdKFtDSDJdNSlbQ0gyXUM1KFtDSDJdW09IXSlbQ0gyXVtPSF0=

> <s_epik_cmdline>
J2VwaWtfcHl0aG9uJywgJy1waCcsICc3LjAnLCAnLXRuJywgJzgnLCAnLW1hJywgJzIwMCcsICctbWV0YWxfYmluZGluZycsICctaW1hZScsICc8aW5maWxlLm1hZT4nLCAnLW9tYWUnLCAnPG91dGZpbGUubWFlPic=

> <r_lp_tautomer_probability>
1

> <r_epik_Ionization_Penalty>
0.00313676

> <r_epik_Ionization_Penalty_Charging>
0

> <r_epik_Ionization_Penalty_Neutral>
0.00313676

> <r_epik_State_Penalty>
0.00199132

> <r_epik_Charging_Adjusted_Penalty>
0.00199132

> <i_epik_Tot_Q>
0

> <i_epik_Tot_abs_Q>
0

> <r_epik_Metal_State_Penalty>
-0

> <b_epik_Metal_Only>
0

> <s_lp_Force_Field>
OPLS_2005

> <r_lp_Energy>
62.7777

> <b_lp_Chiralities_Consistent>
1

> <s_lp_Variant>
AV-unprocessed.smi:210-3

> <Gold.Version>
5.8.1

> <Gold.Id.Protein>
6NUR|6NUR_protein|mol2

> <Gold.PLP.Fitness>
47.1813

> <Gold.PLP.PLP>
-37.0010

> <Gold.PLP.part.hbond>
-3.9324

> <Gold.PLP.part.metal>
0.0000

> <Gold.PLP.part.buried>
-5.4609

> <Gold.PLP.part.nonpolar>
-28.7873

> <Gold.PLP.part.repulsive>
1.6199

> <Gold.PLP.ligand.clash>
0.0000

> <Gold.PLP.ligand.torsion>
0.9751

> <Gold.PLP.Chemscore.Hbond>
2.7875

> <Gold.PLP.Chemscore.CHOScore>
0.7685

> <Gold.PLP.Chemscore.Metal>
0.0000

> <Gold.Chemscore.Hbonds>
donor molecule, donor type, donor heavy atom, donor atom, acceptor molecule, acceptor atom, score
      L1  H    21    46       P1 10747  1.00
      L1  H    23    49       P1 10186  0.55
      P1  H 10785 10796       L1    23  1.00
      L1  C    10    39       P1  7957  0.58

> <Gold.PLP.Chemscore.Internal.Correction>
1.4624

> <Gold.Rescore>
     Score         DG    S(hbond)    S(metal)    S(lipo)     H(rot)  DE(clash)    DE(int)     intcor
     12.89     -15.70       2.67        0.00      83.17       3.29       0.56       2.26       ----

> <Gold.Chemscore.Fitness>
12.8856

> <Gold.Chemscore.DG>
-15.7017

> <Gold.Chemscore.ZeroCoef>
-5.4800

> <Gold.Chemscore.Hbond>
2.6664

> <Gold.Chemscore.Metal>
0.0000

> <Gold.Chemscore.Lipo>
83.1695

> <Gold.Chemscore.Internal_Hbond>
0.0000

> <Gold.Chemscore.DEClash>
0.5573

> <Gold.Chemscore.DEInternal>
2.2588

> <Gold.Chemscore.Rot>
3.2870

> <Gold.Chemscore.Internal.Correction>
   9.000000E+99

> <Gold.Chemscore.Hbonds>
donor molecule, donor type, donor heavy atom, donor atom, acceptor molecule, acceptor atom, score
      L1  H    21    46       P1 10747  1.00
      L1  H    23    49       P1 10186  0.54
      P1  H 10785 10796       L1    23  0.94

> <Gold.Chemscore.Hbond.Weighted>
-8.9056

> <Gold.Chemscore.Metal.Weighted>
-0.0000

> <Gold.Chemscore.Lipo.Weighted>
-9.7308

> <Gold.Chemscore.Internal_Hbond.Weighted>
0.0000

> <Gold.Chemscore.DEClash.Weighted>
0.5573

> <Gold.Chemscore.DEInternal.Weighted>
2.2588

> <Gold.Chemscore.Rot.Weighted>
8.4147

> <Gold.Chemscore.Internal.Correction.Weighted>
   9.000000E+99

> <Gold.Protein.RotatedTorsions>
[ 6907 6896 6895 6894 ] final -121.01 input  -60.11 | X-H torsion
[ 7974 7965 7964 7962 ] final  -25.34 input  175.53 | X-H torsion
[ 8008 7997 7996 7995 ] final  -87.62 input   59.86 | X-H torsion
[ 10167 10162 10161 10158 ] final  108.41 input  -65.29 | X-H torsion
[ 10718 10713 10712 10709 ] final  129.02 input   66.30 | X-H torsion
[ 10763 10752 10751 10750 ] final  179.51 input  -60.55 | X-H torsion
[ 11005 11000 10999 10996 ] final  -54.64 input  -57.11 | X-H torsion

> <Gold.Protein.ActiveResidues>
 VAL166  LYS551  ARG553  GLY616  TRP617  ASP618  TYR619  PRO620  LYS621  CYS622 
 ASP623  PHE694  ASN695  SER759  ASP760  ASP761  ALA762  ILE779  LEU786  VAL792 
 PHE793  MET794  SER795  GLU796  ALA797  LYS798  CYS799  TRP800  GLU811  SER814 

> <Gold.Protein.RotatedAtoms>
  150.8444  133.7884  159.3048 H   0  0  0  0  0  0  0  0  0  0  0  0  # atno 6907 bound_to 6896
  151.5575  135.1064  159.9974 H   0  0  0  0  0  0  0  0  0  0  0  0  # atno 6908 bound_to 6896
  152.4501  133.7570  159.6782 H   0  0  0  0  0  0  0  0  0  0  0  0  # atno 6909 bound_to 6896
  146.1497  140.4873  142.8616 H   0  0  0  0  0  0  0  0  0  0  0  0  # atno 7974 bound_to 7965
  154.6653  140.0563  157.0107 H   0  0  0  0  0  0  0  0  0  0  0  0  # atno 8008 bound_to 7997
  155.1168  140.3243  155.4489 H   0  0  0  0  0  0  0  0  0  0  0  0  # atno 8009 bound_to 7997
  156.2635  140.2004  156.6291 H   0  0  0  0  0  0  0  0  0  0  0  0  # atno 8010 bound_to 7997
  139.6848  144.7114  151.1451 H   0  0  0  0  0  0  0  0  0  0  0  0  # atno 10167 bound_to 10162
  157.5192  131.1098  150.9179 H   0  0  0  0  0  0  0  0  0  0  0  0  # atno 10718 bound_to 10713
  154.5215  135.2794  155.1258 H   0  0  0  0  0  0  0  0  0  0  0  0  # atno 10763 bound_to 10752
  154.2813  135.6285  153.5352 H   0  0  0  0  0  0  0  0  0  0  0  0  # atno 10764 bound_to 10752
  152.9938  135.5652  154.5706 H   0  0  0  0  0  0  0  0  0  0  0  0  # atno 10765 bound_to 10752
  141.1035  133.6615  156.4350 H   0  0  0  0  0  0  0  0  0  0  0  0  # atno 11005 bound_to 11000
  144.7889  140.5992  143.6555 LP  0  0  0  0  0  0  0  0  0  0  0  0  # atno 17320 bound_to 7965
  145.4852  139.1492  143.3740 LP  0  0  0  0  0  0  0  0  0  0  0  0  # atno 17321 bound_to 7965
  140.7664  143.5645  150.9062 LP  0  0  0  0  0  0  0  0  0  0  0  0  # atno 17342 bound_to 10162
  139.9319  143.6483  152.3074 LP  0  0  0  0  0  0  0  0  0  0  0  0  # atno 17343 bound_to 10162
  156.9795  130.5521  149.5295 LP  0  0  0  0  0  0  0  0  0  0  0  0  # atno 17370 bound_to 10713
  156.0341  130.5430  150.8610 LP  0  0  0  0  0  0  0  0  0  0  0  0  # atno 17371 bound_to 10713
  140.4961  134.6529  157.5230 LP  0  0  0  0  0  0  0  0  0  0  0  0  # atno 17394 bound_to 11000
  139.9896  134.7006  155.9713 LP  0  0  0  0  0  0  0  0  0  0  0  0  # atno 17395 bound_to 11000

$$$$
