AV-unprocessed.smi:670|AV-procd|sdf|3269|dock8
  -GOLD-   22720 0223D 1   1.00000     0.00000
 Structure written by MMmdl.
 45 46  0  0  0  0  0  0  0  0  1 V2000
  153.0230  141.8071  160.6739 C   0  0  0  0  0  0  0  0  0  0  0  0
  152.6113  143.0051  159.8027 C   0  0  2  0  0  0  0  0  0  0  0  0
  152.4005  144.2617  160.6712 C   0  0  0  0  0  0  0  0  0  0  0  0
  151.9876  145.4757  159.8257 C   0  0  0  0  0  0  0  0  0  0  0  0
  150.7277  145.1702  159.0046 C   0  0  0  0  0  0  0  0  0  0  0  0
  150.9297  143.9262  158.1271 C   0  0  0  0  0  0  0  0  0  0  0  0
  151.3476  142.6993  158.9665 C   0  0  1  0  0  0  0  0  0  0  0  0
  151.6556  141.6103  158.1058 O   0  0  0  0  0  0  0  0  0  0  0  0
  151.3632  140.3260  158.6368 C   0  0  0  0  0  0  0  0  0  0  0  0
  151.2107  139.3252  157.4829 C   0  0  0  0  0  0  0  0  0  0  0  0
  150.0892  138.4191  157.7072 N   0  0  0  0  0  0  0  0  0  0  0  0
  149.9126  137.6629  158.8013 C   0  0  0  0  0  0  0  0  0  0  0  0
  150.6941  137.6594  159.7536 O   0  0  0  0  0  0  0  0  0  0  0  0
  148.6722  136.7575  158.8001 C   0  0  0  0  0  0  0  0  0  0  0  0
  148.3768  136.1742  160.1169 N   0  0  0  0  0  0  0  0  0  0  0  0
  147.9685  137.0976  161.0676 N   0  0  0  0  0  0  0  0  0  0  0  0
  147.6633  136.7051  162.2582 C   0  0  0  0  0  0  0  0  0  0  0  0
  147.2601  137.6514  163.1684 O   0  0  0  0  0  0  0  0  0  0  0  0
  147.7425  135.3093  162.6297 C   0  0  0  0  0  0  0  0  0  0  0  0
  148.1479  134.4183  161.6985 C   0  0  0  0  0  0  0  0  0  0  0  0
  148.5010  134.8294  160.3384 C   0  0  0  0  0  0  0  0  0  0  0  0
  148.8750  134.0397  159.4713 O   0  0  0  0  0  0  0  0  0  0  0  0
  148.0544  137.9721  163.5668 H   0  0  0  0  0  0  0  0  0  0  0  0
  152.2333  141.5369  161.3752 H   0  0  0  0  0  0  0  0  0  0  0  0
  153.9196  142.0323  161.2522 H   0  0  0  0  0  0  0  0  0  0  0  0
  153.2418  140.9295  160.0649 H   0  0  0  0  0  0  0  0  0  0  0  0
  153.4320  143.2096  159.1130 H   0  0  0  0  0  0  0  0  0  0  0  0
  151.6340  144.0661  161.4224 H   0  0  0  0  0  0  0  0  0  0  0  0
  153.3148  144.4949  161.2180 H   0  0  0  0  0  0  0  0  0  0  0  0
  151.8118  146.3365  160.4713 H   0  0  0  0  0  0  0  0  0  0  0  0
  152.8038  145.7516  159.1568 H   0  0  0  0  0  0  0  0  0  0  0  0
  149.8821  145.0119  159.6753 H   0  0  0  0  0  0  0  0  0  0  0  0
  150.4729  146.0277  158.3815 H   0  0  0  0  0  0  0  0  0  0  0  0
  150.0091  143.7246  157.5804 H   0  0  0  0  0  0  0  0  0  0  0  0
  151.6943  144.1318  157.3768 H   0  0  0  0  0  0  0  0  0  0  0  0
  150.5386  142.4243  159.6462 H   0  0  0  0  0  0  0  0  0  0  0  0
  152.1794  140.0083  159.2870 H   0  0  0  0  0  0  0  0  0  0  0  0
  150.4547  140.3415  159.2390 H   0  0  0  0  0  0  0  0  0  0  0  0
  151.1114  139.8483  156.5302 H   0  0  0  0  0  0  0  0  0  0  0  0
  152.1137  138.7193  157.4079 H   0  0  0  0  0  0  0  0  0  0  0  0
  149.4008  138.3555  156.9714 H   0  0  0  0  0  0  0  0  0  0  0  0
  147.8082  137.3185  158.4386 H   0  0  0  0  0  0  0  0  0  0  0  0
  148.8348  135.9664  158.0657 H   0  0  0  0  0  0  0  0  0  0  0  0
  147.4831  134.9957  163.6302 H   0  0  0  0  0  0  0  0  0  0  0  0
  148.2126  133.3729  161.9621 H   0  0  0  0  0  0  0  0  0  0  0  0
  1  2  1  0  0  0  0
  1 24  1  0  0  0  0
  1 25  1  0  0  0  0
  1 26  1  0  0  0  0
  2  7  1  0  0  0  0
  2  3  1  0  0  0  0
  2 27  1  0  0  0  0
  3  4  1  0  0  0  0
  3 28  1  0  0  0  0
  3 29  1  0  0  0  0
  4  5  1  0  0  0  0
  4 30  1  0  0  0  0
  4 31  1  0  0  0  0
  5  6  1  0  0  0  0
  5 32  1  0  0  0  0
  5 33  1  0  0  0  0
  6  7  1  0  0  0  0
  6 34  1  0  0  0  0
  6 35  1  0  0  0  0
  7  8  1  0  0  0  0
  7 36  1  0  0  0  0
  8  9  1  0  0  0  0
  9 10  1  0  0  0  0
  9 37  1  0  0  0  0
  9 38  1  0  0  0  0
 10 11  1  0  0  0  0
 10 39  1  0  0  0  0
 10 40  1  0  0  0  0
 11 12  1  0  0  0  0
 11 41  1  0  0  0  0
 12 13  2  0  0  0  0
 12 14  1  0  0  0  0
 14 42  1  0  0  0  0
 14 43  1  0  0  0  0
 14 15  1  0  0  0  0
 15 16  1  0  0  0  0
 15 21  1  0  0  0  0
 16 17  2  0  0  0  0
 17 18  1  0  0  0  0
 17 19  1  0  0  0  0
 18 23  1  0  0  0  0
 19 44  1  0  0  0  0
 19 20  2  0  0  0  0
 20 45  1  0  0  0  0
 20 21  1  0  0  0  0
 21 22  2  0  0  0  0
M  END
> <s_m_source_file>
AV-unprocessed.smi

> <i_m_source_file_index>
670

> <i_lp_mmshare_version>
43012

> <i_f3d_flags>
0

> <s_epik_input>
W0NIM11bQ0BASF0xW0NIMl1bQ0gyXVtDSDJdW0NIMl1bQ0BIXTFPW0NIMl1bQ0gyXVtOSF1DKD1PKVtDSDJdbjJbbkhdYyg9TylbY0hdW2NIXWMyPU8=

> <s_epik_cmdline>
J2VwaWtfcHl0aG9uJywgJy1waCcsICc3LjAnLCAnLXRuJywgJzgnLCAnLW1hJywgJzIwMCcsICctbWV0YWxfYmluZGluZycsICctaW1hZScsICc8aW5maWxlLm1hZT4nLCAnLW9tYWUnLCAnPG91dGZpbGUubWFlPic=

> <r_lp_tautomer_probability>
0.9996

> <r_epik_Ionization_Penalty>
2.12726

> <r_epik_Ionization_Penalty_Charging>
3.83395e-08

> <r_epik_Ionization_Penalty_Neutral>
2.12726

> <r_epik_State_Penalty>
1.70432

> <r_epik_Charging_Adjusted_Penalty>
1.70432

> <i_epik_Tot_Q>
0

> <i_epik_Tot_abs_Q>
0

> <r_epik_Metal_State_Penalty>
1.70432

> <b_epik_Metal_Only>
0

> <s_lp_Force_Field>
OPLS_2005

> <r_lp_Energy>
21.1157

> <b_lp_Chiralities_Consistent>
1

> <s_lp_Variant>
AV-unprocessed.smi:670-5

> <Gold.Version>
5.8.1

> <Gold.Id.Protein>
6NUR|6NUR_protein|mol2

> <Gold.PLP.Fitness>
50.4456

> <Gold.PLP.PLP>
-46.2103

> <Gold.PLP.part.hbond>
-5.9723

> <Gold.PLP.part.metal>
0.0000

> <Gold.PLP.part.buried>
-5.4474

> <Gold.PLP.part.nonpolar>
-35.5621

> <Gold.PLP.part.repulsive>
0.0567

> <Gold.PLP.ligand.clash>
0.0000

> <Gold.PLP.ligand.torsion>
1.0262

> <Gold.PLP.Chemscore.Hbond>
2.0889

> <Gold.PLP.Chemscore.CHOScore>
0.0000

> <Gold.PLP.Chemscore.Metal>
0.0000

> <Gold.Chemscore.Hbonds>
donor molecule, donor type, donor heavy atom, donor atom, acceptor molecule, acceptor atom, score
      P1  H  6896  6909       L1    22  0.91
      P1  H  6931  6943       L1    16  0.25
      P1  H  6934  6947       L1    16  0.66

> <Gold.PLP.Chemscore.Internal.Correction>
0.0212

> <Gold.Rescore>
     Score         DG    S(hbond)    S(metal)    S(lipo)     H(rot)  DE(clash)    DE(int)     intcor
     12.22     -14.87       1.46        0.00     106.28       3.09       0.37       2.28       ----

> <Gold.Chemscore.Fitness>
12.2186

> <Gold.Chemscore.DG>
-14.8745

> <Gold.Chemscore.ZeroCoef>
-5.4800

> <Gold.Chemscore.Hbond>
1.4583

> <Gold.Chemscore.Metal>
0.0000

> <Gold.Chemscore.Lipo>
106.2753

> <Gold.Chemscore.Internal_Hbond>
0.0000

> <Gold.Chemscore.DEClash>
0.3725

> <Gold.Chemscore.DEInternal>
2.2833

> <Gold.Chemscore.Rot>
3.0901

> <Gold.Chemscore.Internal.Correction>
   9.000000E+99

> <Gold.Chemscore.Hbonds>
donor molecule, donor type, donor heavy atom, donor atom, acceptor molecule, acceptor atom, score
      P1  H  6896  6909       L1    22  0.39
      P1  H  6934  6947       L1    16  0.32

> <Gold.Chemscore.Hbond.Weighted>
-4.8708

> <Gold.Chemscore.Metal.Weighted>
-0.0000

> <Gold.Chemscore.Lipo.Weighted>
-12.4342

> <Gold.Chemscore.Internal_Hbond.Weighted>
0.0000

> <Gold.Chemscore.DEClash.Weighted>
0.3725

> <Gold.Chemscore.DEInternal.Weighted>
2.2833

> <Gold.Chemscore.Rot.Weighted>
7.9106

> <Gold.Chemscore.Internal.Correction.Weighted>
   9.000000E+99

> <Gold.Protein.RotatedTorsions>
[ 6907 6896 6895 6894 ] final   29.97 input  -60.11 | X-H torsion
[ 7974 7965 7964 7962 ] final   51.27 input  175.53 | X-H torsion
[ 8008 7997 7996 7995 ] final -149.22 input   59.86 | X-H torsion
[ 10167 10162 10161 10158 ] final -164.86 input  -65.29 | X-H torsion
[ 10718 10713 10712 10709 ] final   29.30 input   66.30 | X-H torsion
[ 10763 10752 10751 10750 ] final  -25.62 input  -60.55 | X-H torsion
[ 11005 11000 10999 10996 ] final   61.64 input  -57.11 | X-H torsion

> <Gold.Protein.ActiveResidues>
 VAL166  LYS551  ARG553  GLY616  TRP617  ASP618  TYR619  PRO620  LYS621  CYS622 
 ASP623  PHE694  ASN695  SER759  ASP760  ASP761  ALA762  ILE779  LEU786  VAL792 
 PHE793  MET794  SER795  GLU796  ALA797  LYS798  CYS799  TRP800  GLU811  SER814 

> <Gold.Protein.RotatedAtoms>
  152.0393  134.9721  160.0573 H   0  0  0  0  0  0  0  0  0  0  0  0  # atno 6907 bound_to 6896
  152.1166  133.4325  159.4664 H   0  0  0  0  0  0  0  0  0  0  0  0  # atno 6908 bound_to 6896
  150.6846  134.2503  159.4551 H   0  0  0  0  0  0  0  0  0  0  0  0  # atno 6909 bound_to 6896
  145.9930  139.4359  143.0062 H   0  0  0  0  0  0  0  0  0  0  0  0  # atno 7974 bound_to 7965
  155.6041  140.0665  157.2724 H   0  0  0  0  0  0  0  0  0  0  0  0  # atno 8008 bound_to 7997
  154.4271  140.1813  156.1251 H   0  0  0  0  0  0  0  0  0  0  0  0  # atno 8009 bound_to 7997
  156.0136  140.3324  155.6969 H   0  0  0  0  0  0  0  0  0  0  0  0  # atno 8010 bound_to 7997
  139.6221  144.0603  152.1942 H   0  0  0  0  0  0  0  0  0  0  0  0  # atno 10167 bound_to 10162
  157.2448  130.7086  149.6376 H   0  0  0  0  0  0  0  0  0  0  0  0  # atno 10718 bound_to 10713
  153.7028  135.6955  153.5058 H   0  0  0  0  0  0  0  0  0  0  0  0  # atno 10763 bound_to 10752
  153.2330  135.4331  155.0615 H   0  0  0  0  0  0  0  0  0  0  0  0  # atno 10764 bound_to 10752
  154.8339  135.3489  154.6567 H   0  0  0  0  0  0  0  0  0  0  0  0  # atno 10765 bound_to 10752
  140.0147  134.6243  155.9728 H   0  0  0  0  0  0  0  0  0  0  0  0  # atno 11005 bound_to 11000
  145.7601  140.9938  143.1204 LP  0  0  0  0  0  0  0  0  0  0  0  0  # atno 17320 bound_to 7965
  144.6895  139.9320  143.7472 LP  0  0  0  0  0  0  0  0  0  0  0  0  # atno 17321 bound_to 7965
  140.0247  144.6126  150.7537 LP  0  0  0  0  0  0  0  0  0  0  0  0  # atno 17342 bound_to 10162
  140.7389  143.2784  151.3673 LP  0  0  0  0  0  0  0  0  0  0  0  0  # atno 17343 bound_to 10162
  155.9668  130.4446  150.5469 LP  0  0  0  0  0  0  0  0  0  0  0  0  # atno 17370 bound_to 10713
  157.3340  131.0705  151.1839 LP  0  0  0  0  0  0  0  0  0  0  0  0  # atno 17371 bound_to 10713
  141.1735  133.6538  156.4739 LP  0  0  0  0  0  0  0  0  0  0  0  0  # atno 17394 bound_to 11000
  140.4492  134.6944  157.5031 LP  0  0  0  0  0  0  0  0  0  0  0  0  # atno 17395 bound_to 11000

$$$$
