AV-unprocessed.smi:1817|AV-procd|sdf|7372|dock3
  -GOLD-   22720 9 33D 1   1.00000     0.00000
 Structure written by MMmdl.
 42 43  0  0  0  0  0  0  0  0  1 V2000
  143.9057  132.3543  149.7034 C   0  0  0  0  0  0  0  0  0  0  0  0
  143.6540  132.8695  151.1277 C   0  0  0  0  0  0  0  0  0  0  0  0
  144.8291  132.8783  151.9970 N   0  0  0  0  0  0  0  0  0  0  0  0
  145.9325  133.6052  151.3740 C   0  0  0  0  0  0  0  0  0  0  0  0
  147.1764  133.6424  152.2804 C   0  0  0  0  0  0  0  0  0  0  0  0
  147.6618  132.2952  152.6094 N   0  0  0  0  0  0  0  0  0  0  0  0
  148.8648  132.3189  153.4697 C   0  0  2  0  0  0  0  0  0  0  0  0
  149.2464  130.9309  154.0322 C   0  0  0  0  0  0  0  0  0  0  0  0
  148.7748  133.3207  154.6507 C   0  0  0  0  0  0  0  0  0  0  0  0
  149.1745  134.6732  154.2664 N   0  0  0  0  0  0  0  0  0  0  0  0
  149.8804  135.5256  155.0227 C   0  0  0  0  0  0  0  0  0  0  0  0
  150.2972  135.2523  156.1482 O   0  0  0  0  0  0  0  0  0  0  0  0
  150.0590  136.6977  154.3923 N   0  0  0  0  0  0  0  0  0  0  0  0
  150.7476  137.8442  154.8618 C   0  0  0  0  0  0  0  0  0  0  0  0
  150.4812  139.0197  154.2800 N   0  0  0  0  0  0  0  0  0  0  0  0
  151.2237  140.0552  154.8345 N   0  0  0  0  0  0  0  0  0  0  0  0
  152.0221  139.6194  155.8138 C   0  0  0  0  0  0  0  0  0  0  0  0
  151.9472  137.9004  156.1571 S   0  0  0  0  0  0  0  0  0  0  0  0
  146.5443  131.5640  153.2228 C   0  0  0  0  0  0  0  0  0  0  0  0
  145.3013  131.5306  152.3144 C   0  0  0  0  0  0  0  0  0  0  0  0
  142.9677  132.2797  149.1532 H   0  0  0  0  0  0  0  0  0  0  0  0
  144.3592  131.3628  149.7183 H   0  0  0  0  0  0  0  0  0  0  0  0
  144.5594  133.0179  149.1382 H   0  0  0  0  0  0  0  0  0  0  0  0
  143.2179  133.8686  151.0816 H   0  0  0  0  0  0  0  0  0  0  0  0
  142.8915  132.2305  151.5749 H   0  0  0  0  0  0  0  0  0  0  0  0
  146.1910  133.1466  150.4180 H   0  0  0  0  0  0  0  0  0  0  0  0
  145.6217  134.6272  151.1542 H   0  0  0  0  0  0  0  0  0  0  0  0
  147.9444  134.2056  151.7526 H   0  0  0  0  0  0  0  0  0  0  0  0
  146.9516  134.1943  153.1945 H   0  0  0  0  0  0  0  0  0  0  0  0
  149.7080  132.6434  152.8577 H   0  0  0  0  0  0  0  0  0  0  0  0
  150.0572  131.0068  154.7573 H   0  0  0  0  0  0  0  0  0  0  0  0
  149.5999  130.2568  153.2527 H   0  0  0  0  0  0  0  0  0  0  0  0
  148.4022  130.4547  154.5315 H   0  0  0  0  0  0  0  0  0  0  0  0
  147.7671  133.3187  155.0695 H   0  0  0  0  0  0  0  0  0  0  0  0
  149.4095  133.0023  155.4768 H   0  0  0  0  0  0  0  0  0  0  0  0
  148.8668  134.9900  153.3586 H   0  0  0  0  0  0  0  0  0  0  0  0
  149.6554  136.7815  153.4708 H   0  0  0  0  0  0  0  0  0  0  0  0
  152.6599  140.3158  156.3377 H   0  0  0  0  0  0  0  0  0  0  0  0
  146.8268  130.5319  153.4230 H   0  0  0  0  0  0  0  0  0  0  0  0
  146.2865  132.0118  154.1838 H   0  0  0  0  0  0  0  0  0  0  0  0
  144.5186  130.9673  152.8212 H   0  0  0  0  0  0  0  0  0  0  0  0
  145.5327  130.9880  151.3963 H   0  0  0  0  0  0  0  0  0  0  0  0
  1  2  1  0  0  0  0
  1 21  1  0  0  0  0
  1 22  1  0  0  0  0
  1 23  1  0  0  0  0
  2  3  1  0  0  0  0
  2 24  1  0  0  0  0
  2 25  1  0  0  0  0
  3 20  1  0  0  0  0
  3  4  1  0  0  0  0
  4  5  1  0  0  0  0
  4 26  1  0  0  0  0
  4 27  1  0  0  0  0
  5  6  1  0  0  0  0
  5 28  1  0  0  0  0
  5 29  1  0  0  0  0
  6  7  1  0  0  0  0
  6 19  1  0  0  0  0
  7  8  1  0  0  0  0
  7  9  1  0  0  0  0
  7 30  1  0  0  0  0
  8 31  1  0  0  0  0
  8 32  1  0  0  0  0
  8 33  1  0  0  0  0
  9 10  1  0  0  0  0
  9 34  1  0  0  0  0
  9 35  1  0  0  0  0
 10 11  1  0  0  0  0
 10 36  1  0  0  0  0
 11 12  2  0  0  0  0
 11 13  1  0  0  0  0
 13 14  1  0  0  0  0
 13 37  1  0  0  0  0
 14 18  1  0  0  0  0
 14 15  2  0  0  0  0
 15 16  1  0  0  0  0
 16 17  2  0  0  0  0
 17 18  1  0  0  0  0
 17 38  1  0  0  0  0
 19 20  1  0  0  0  0
 19 39  1  0  0  0  0
 19 40  1  0  0  0  0
 20 41  1  0  0  0  0
 20 42  1  0  0  0  0
M  END
> <s_m_source_file>
AV-unprocessed.smi

> <i_m_source_file_index>
1817

> <i_lp_mmshare_version>
43012

> <i_f3d_flags>
0

> <s_epik_input>
W0NIM11bQ0gyXU4xW0NIMl1bQ0gyXU4oW0NIMl1bQ0gyXTEpW0NASF0oW0NIM10pW0NIMl1bTkhdQyg9TylbTkhdYzJubltjSF1zMg==

> <s_epik_cmdline>
J2VwaWtfcHl0aG9uJywgJy1waCcsICc3LjAnLCAnLXRuJywgJzgnLCAnLW1hJywgJzIwMCcsICctbWV0YWxfYmluZGluZycsICctaW1hZScsICc8aW5maWxlLm1hZT4nLCAnLW9tYWUnLCAnPG91dGZpbGUubWFlPic=

> <r_lp_tautomer_probability>
1

> <r_epik_Ionization_Penalty>
2.44129

> <r_epik_Ionization_Penalty_Charging>
0

> <r_epik_Ionization_Penalty_Neutral>
2.44129

> <r_epik_State_Penalty>
1.7682

> <r_epik_Charging_Adjusted_Penalty>
1.7682

> <i_epik_Tot_Q>
0

> <i_epik_Tot_abs_Q>
0

> <r_epik_Metal_State_Penalty>
2.10306

> <b_epik_Metal_Only>
0

> <s_lp_Force_Field>
OPLS_2005

> <r_lp_Energy>
42.0041

> <b_lp_Chiralities_Consistent>
1

> <s_lp_Variant>
AV-unprocessed.smi:1817-5

> <Gold.Version>
5.8.1

> <Gold.Id.Protein>
6NUR|6NUR_protein|mol2

> <Gold.PLP.Fitness>
41.7343

> <Gold.PLP.PLP>
-34.2767

> <Gold.PLP.part.hbond>
-3.9296

> <Gold.PLP.part.metal>
0.0000

> <Gold.PLP.part.buried>
-5.9308

> <Gold.PLP.part.nonpolar>
-26.4423

> <Gold.PLP.part.repulsive>
1.6073

> <Gold.PLP.ligand.clash>
0.0036

> <Gold.PLP.ligand.torsion>
0.7969

> <Gold.PLP.Chemscore.Hbond>
3.0000

> <Gold.PLP.Chemscore.CHOScore>
0.0000

> <Gold.PLP.Chemscore.Metal>
0.0000

> <Gold.Chemscore.Hbonds>
donor molecule, donor type, donor heavy atom, donor atom, acceptor molecule, acceptor atom, score
      L1  H    10    36       P1  7948  1.00
      L1  H    13    37       P1  7948  1.00
      P1  H  7989  7998       L1    16  1.00

> <Gold.PLP.Chemscore.Internal.Correction>
0.0548

> <Gold.Rescore>
     Score         DG    S(hbond)    S(metal)    S(lipo)     H(rot)  DE(clash)    DE(int)     intcor
     13.15     -15.16       1.95        0.00      68.17       1.87       0.02       1.99       ----

> <Gold.Chemscore.Fitness>
13.1471

> <Gold.Chemscore.DG>
-15.1618

> <Gold.Chemscore.ZeroCoef>
-5.4800

> <Gold.Chemscore.Hbond>
1.9465

> <Gold.Chemscore.Metal>
0.0000

> <Gold.Chemscore.Lipo>
68.1737

> <Gold.Chemscore.Internal_Hbond>
0.0000

> <Gold.Chemscore.DEClash>
0.0234

> <Gold.Chemscore.DEInternal>
1.9913

> <Gold.Chemscore.Rot>
1.8733

> <Gold.Chemscore.Internal.Correction>
   9.000000E+99

> <Gold.Chemscore.Hbonds>
donor molecule, donor type, donor heavy atom, donor atom, acceptor molecule, acceptor atom, score
      L1  H    10    36       P1  7948  0.38
      L1  H    13    37       P1  7948  0.60
      P1  H  7989  7998       L1    16  0.30

> <Gold.Chemscore.Hbond.Weighted>
-6.5012

> <Gold.Chemscore.Metal.Weighted>
-0.0000

> <Gold.Chemscore.Lipo.Weighted>
-7.9763

> <Gold.Chemscore.Internal_Hbond.Weighted>
0.0000

> <Gold.Chemscore.DEClash.Weighted>
0.0234

> <Gold.Chemscore.DEInternal.Weighted>
1.9913

> <Gold.Chemscore.Rot.Weighted>
4.7957

> <Gold.Chemscore.Internal.Correction.Weighted>
   9.000000E+99

> <Gold.Protein.RotatedTorsions>
[ 6907 6896 6895 6894 ] final -154.28 input  -60.11 | X-H torsion
[ 7974 7965 7964 7962 ] final  -99.34 input  175.53 | X-H torsion
[ 8008 7997 7996 7995 ] final  -99.55 input   59.86 | X-H torsion
[ 10167 10162 10161 10158 ] final -171.68 input  -65.29 | X-H torsion
[ 10718 10713 10712 10709 ] final   79.49 input   66.30 | X-H torsion
[ 10763 10752 10751 10750 ] final  -66.40 input  -60.55 | X-H torsion
[ 11005 11000 10999 10996 ] final    9.28 input  -57.11 | X-H torsion

> <Gold.Protein.ActiveResidues>
 VAL166  LYS551  ARG553  GLY616  TRP617  ASP618  TYR619  PRO620  LYS621  CYS622 
 ASP623  PHE694  ASN695  SER759  ASP760  ASP761  ALA762  ILE779  LEU786  VAL792 
 PHE793  MET794  SER795  GLU796  ALA797  LYS798  CYS799  TRP800  GLU811  SER814 

> <Gold.Protein.RotatedAtoms>
  151.2551  133.4330  159.2613 H   0  0  0  0  0  0  0  0  0  0  0  0  # atno 6907 bound_to 6896
  151.0582  134.9719  159.8257 H   0  0  0  0  0  0  0  0  0  0  0  0  # atno 6908 bound_to 6896
  152.5394  134.2502  159.8948 H   0  0  0  0  0  0  0  0  0  0  0  0  # atno 6909 bound_to 6896
  145.3088  140.9395  143.2781 H   0  0  0  0  0  0  0  0  0  0  0  0  # atno 7974 bound_to 7965
  154.8164  140.0447  157.1380 H   0  0  0  0  0  0  0  0  0  0  0  0  # atno 8008 bound_to 7997
  154.9309  140.3039  155.5148 H   0  0  0  0  0  0  0  0  0  0  0  0  # atno 8009 bound_to 7997
  156.2976  140.2323  156.4369 H   0  0  0  0  0  0  0  0  0  0  0  0  # atno 8010 bound_to 7997
  139.5788  144.1470  152.1487 H   0  0  0  0  0  0  0  0  0  0  0  0  # atno 10167 bound_to 10162
  157.6778  130.9917  150.1941 H   0  0  0  0  0  0  0  0  0  0  0  0  # atno 10718 bound_to 10713
  154.3593  135.6119  153.5682 H   0  0  0  0  0  0  0  0  0  0  0  0  # atno 10763 bound_to 10752
  152.9794  135.5811  154.4652 H   0  0  0  0  0  0  0  0  0  0  0  0  # atno 10764 bound_to 10752
  154.4386  135.2849  155.1840 H   0  0  0  0  0  0  0  0  0  0  0  0  # atno 10765 bound_to 10752
  140.5275  134.0498  155.7863 H   0  0  0  0  0  0  0  0  0  0  0  0  # atno 11005 bound_to 11000
  144.9033  139.4622  143.6622 LP  0  0  0  0  0  0  0  0  0  0  0  0  # atno 17320 bound_to 7965
  146.3125  139.7799  142.9008 LP  0  0  0  0  0  0  0  0  0  0  0  0  # atno 17321 bound_to 7965
  140.1019  144.5532  150.6983 LP  0  0  0  0  0  0  0  0  0  0  0  0  # atno 17342 bound_to 10162
  140.7068  143.2474  151.4701 LP  0  0  0  0  0  0  0  0  0  0  0  0  # atno 17343 bound_to 10162
  156.2646  130.3714  149.8095 LP  0  0  0  0  0  0  0  0  0  0  0  0  # atno 17370 bound_to 10713
  156.5830  130.8474  151.3388 LP  0  0  0  0  0  0  0  0  0  0  0  0  # atno 17371 bound_to 10713
  141.1300  133.9319  157.2556 LP  0  0  0  0  0  0  0  0  0  0  0  0  # atno 17394 bound_to 11000
  139.9572  135.0163  156.9161 LP  0  0  0  0  0  0  0  0  0  0  0  0  # atno 17395 bound_to 11000

$$$$
