AV-unprocessed.smi:3348|AV-procd|sdf|12928|dock4
  -GOLD-   2272019353D 1   1.00000     0.00000
 Structure written by MMmdl.
 46 47  0  0  0  0  0  0  0  0  1 V2000
  147.9478  138.9146  156.8753 C   0  0  0  0  0  0  0  0  0  0  0  0
  147.8629  138.6431  158.3922 C   0  0  1  0  0  0  0  0  0  0  0  0
  147.6984  137.1415  158.7055 C   0  0  0  0  0  0  0  0  0  0  0  0
  147.1552  136.8956  160.0299 N   0  0  0  0  0  0  0  0  0  0  0  0
  146.0628  136.1283  160.3751 C   0  0  0  0  0  0  0  0  0  0  0  0
  145.9323  136.1942  161.7327 C   0  0  0  0  0  0  0  0  0  0  0  0
  147.0033  137.0407  162.1342 C   0  0  0  0  0  0  0  0  0  0  0  0
  147.7318  137.4612  161.1128 N   0  0  0  0  0  0  0  0  0  0  0  0
  149.0398  139.1513  159.1041 N   0  0  0  0  0  0  0  0  0  0  0  0
  149.5629  140.4329  158.6323 C   0  0  0  0  0  0  0  0  0  0  0  0
  151.0260  140.6102  159.0489 C   0  0  0  0  0  0  0  0  0  0  0  0
  151.2173  141.9547  159.4630 O   0  0  0  0  0  0  0  0  0  0  0  0
  152.5587  142.4208  159.3637 C   0  0  2  0  0  0  0  0  0  0  0  0
  153.4593  141.6654  160.3638 C   0  0  0  0  0  0  0  0  0  0  0  0
  153.0640  141.9617  161.8200 C   0  0  0  0  0  0  0  0  0  0  0  0
  153.0732  143.4715  162.1035 C   0  0  0  0  0  0  0  0  0  0  0  0
  152.1777  144.2323  161.1125 C   0  0  0  0  0  0  0  0  0  0  0  0
  152.5744  143.9387  159.6516 C   0  0  2  0  0  0  0  0  0  0  0  0
  151.7084  144.7233  158.6536 C   0  0  0  0  0  0  0  0  0  0  0  0
  147.0788  138.5198  156.3496 H   0  0  0  0  0  0  0  0  0  0  0  0
  148.8341  138.4522  156.4398 H   0  0  0  0  0  0  0  0  0  0  0  0
  147.9799  139.9799  156.6506 H   0  0  0  0  0  0  0  0  0  0  0  0
  146.9795  139.1571  158.7734 H   0  0  0  0  0  0  0  0  0  0  0  0
  147.0553  136.6658  157.9630 H   0  0  0  0  0  0  0  0  0  0  0  0
  148.6647  136.6385  158.6453 H   0  0  0  0  0  0  0  0  0  0  0  0
  145.4780  135.6041  159.6338 H   0  0  0  0  0  0  0  0  0  0  0  0
  145.1856  135.7118  162.3456 H   0  0  0  0  0  0  0  0  0  0  0  0
  147.2705  137.3607  163.1305 H   0  0  0  0  0  0  0  0  0  0  0  0
  149.7807  138.4575  159.0782 H   0  0  0  0  0  0  0  0  0  0  0  0
  149.4916  140.5171  157.5485 H   0  0  0  0  0  0  0  0  0  0  0  0
  148.9690  141.2450  159.0530 H   0  0  0  0  0  0  0  0  0  0  0  0
  151.2477  139.9307  159.8716 H   0  0  0  0  0  0  0  0  0  0  0  0
  151.6971  140.3567  158.2263 H   0  0  0  0  0  0  0  0  0  0  0  0
  152.9310  142.2623  158.3499 H   0  0  0  0  0  0  0  0  0  0  0  0
  153.4270  140.5916  160.1820 H   0  0  0  0  0  0  0  0  0  0  0  0
  154.4964  141.9641  160.2073 H   0  0  0  0  0  0  0  0  0  0  0  0
  152.0702  141.5583  162.0190 H   0  0  0  0  0  0  0  0  0  0  0  0
  153.7453  141.4516  162.5011 H   0  0  0  0  0  0  0  0  0  0  0  0
  152.7409  143.6602  163.1248 H   0  0  0  0  0  0  0  0  0  0  0  0
  154.0943  143.8490  162.0366 H   0  0  0  0  0  0  0  0  0  0  0  0
  151.1353  143.9560  161.2769 H   0  0  0  0  0  0  0  0  0  0  0  0
  152.2456  145.3027  161.3090 H   0  0  0  0  0  0  0  0  0  0  0  0
  153.6008  144.2840  159.5179 H   0  0  0  0  0  0  0  0  0  0  0  0
  150.6566  144.4478  158.7338 H   0  0  0  0  0  0  0  0  0  0  0  0
  152.0242  144.5346  157.6273 H   0  0  0  0  0  0  0  0  0  0  0  0
  151.7839  145.7967  158.8293 H   0  0  0  0  0  0  0  0  0  0  0  0
  1  2  1  0  0  0  0
  1 20  1  0  0  0  0
  1 21  1  0  0  0  0
  1 22  1  0  0  0  0
  2  3  1  0  0  0  0
  2  9  1  0  0  0  0
  2 23  1  0  0  0  0
  3  4  1  0  0  0  0
  3 24  1  0  0  0  0
  3 25  1  0  0  0  0
  4  8  1  0  0  0  0
  4  5  1  0  0  0  0
  5  6  2  0  0  0  0
  5 26  1  0  0  0  0
  6  7  1  0  0  0  0
  6 27  1  0  0  0  0
  7  8  2  0  0  0  0
  7 28  1  0  0  0  0
  9 10  1  0  0  0  0
  9 29  1  0  0  0  0
 10 11  1  0  0  0  0
 10 30  1  0  0  0  0
 10 31  1  0  0  0  0
 11 12  1  0  0  0  0
 11 32  1  0  0  0  0
 11 33  1  0  0  0  0
 12 13  1  0  0  0  0
 13 18  1  0  0  0  0
 13 14  1  0  0  0  0
 13 34  1  0  0  0  0
 14 15  1  0  0  0  0
 14 35  1  0  0  0  0
 14 36  1  0  0  0  0
 15 16  1  0  0  0  0
 15 37  1  0  0  0  0
 15 38  1  0  0  0  0
 16 17  1  0  0  0  0
 16 39  1  0  0  0  0
 16 40  1  0  0  0  0
 17 18  1  0  0  0  0
 17 41  1  0  0  0  0
 17 42  1  0  0  0  0
 18 19  1  0  0  0  0
 18 43  1  0  0  0  0
 19 44  1  0  0  0  0
 19 45  1  0  0  0  0
 19 46  1  0  0  0  0
M  END
> <s_m_source_file>
AV-unprocessed.smi

> <i_m_source_file_index>
3348

> <i_lp_mmshare_version>
43012

> <i_f3d_flags>
0

> <s_epik_input>
bjFbY0hdW2NIXVtjSF1uMVtDSDJdW0NAQEhdKFtDSDNdKVtOSF1bQ0gyXVtDSDJdT1tDQEBIXTJbQ0gyXVtDSDJdW0NIMl1bQ0gyXVtDQEhdMltDSDNd

> <s_epik_cmdline>
J2VwaWtfcHl0aG9uJywgJy1waCcsICc3LjAnLCAnLXRuJywgJzgnLCAnLW1hJywgJzIwMCcsICctbWV0YWxfYmluZGluZycsICctaW1hZScsICc8aW5maWxlLm1hZT4nLCAnLW9tYWUnLCAnPG91dGZpbGUubWFlPic=

> <r_lp_tautomer_probability>
1

> <r_epik_Ionization_Penalty>
2.46945

> <r_epik_Ionization_Penalty_Charging>
0

> <r_epik_Ionization_Penalty_Neutral>
2.46945

> <r_epik_State_Penalty>
2.6322

> <r_epik_Charging_Adjusted_Penalty>
2.6322

> <i_epik_Tot_Q>
0

> <i_epik_Tot_abs_Q>
0

> <r_epik_Metal_State_Penalty>
2.63217

> <b_epik_Metal_Only>
0

> <s_lp_Force_Field>
OPLS_2005

> <r_lp_Energy>
17.7248

> <b_lp_Chiralities_Consistent>
1

> <s_lp_Variant>
AV-unprocessed.smi:3348-14

> <Gold.Version>
5.8.1

> <Gold.Id.Protein>
6NUR|6NUR_protein|mol2

> <Gold.PLP.Fitness>
46.6624

> <Gold.PLP.PLP>
-45.4683

> <Gold.PLP.part.hbond>
-2.2752

> <Gold.PLP.part.metal>
0.0000

> <Gold.PLP.part.buried>
-4.2758

> <Gold.PLP.part.nonpolar>
-38.7934

> <Gold.PLP.part.repulsive>
0.0000

> <Gold.PLP.ligand.clash>
0.0000

> <Gold.PLP.ligand.torsion>
0.9330

> <Gold.PLP.Chemscore.Hbond>
0.9500

> <Gold.PLP.Chemscore.CHOScore>
0.0000

> <Gold.PLP.Chemscore.Metal>
0.0000

> <Gold.Chemscore.Hbonds>
donor molecule, donor type, donor heavy atom, donor atom, acceptor molecule, acceptor atom, score
      P1  H  6931  6943       L1     8  0.78
      P1  H  6934  6947       L1     8  0.80

> <Gold.PLP.Chemscore.Internal.Correction>
0.2100

> <Gold.Rescore>
     Score         DG    S(hbond)    S(metal)    S(lipo)     H(rot)  DE(clash)    DE(int)     intcor
     16.48     -17.45       0.91        0.00     113.99       1.72       0.02       0.96       ----

> <Gold.Chemscore.Fitness>
16.4779

> <Gold.Chemscore.DG>
-17.4535

> <Gold.Chemscore.ZeroCoef>
-5.4800

> <Gold.Chemscore.Hbond>
0.9130

> <Gold.Chemscore.Metal>
0.0000

> <Gold.Chemscore.Lipo>
113.9871

> <Gold.Chemscore.Internal_Hbond>
0.0000

> <Gold.Chemscore.DEClash>
0.0195

> <Gold.Chemscore.DEInternal>
0.9560

> <Gold.Chemscore.Rot>
1.7237

> <Gold.Chemscore.Internal.Correction>
   9.000000E+99

> <Gold.Chemscore.Hbonds>
donor molecule, donor type, donor heavy atom, donor atom, acceptor molecule, acceptor atom, score
      P1  H  6931  6943       L1     8  0.28
      P1  H  6934  6947       L1     8  0.07

> <Gold.Chemscore.Hbond.Weighted>
-3.0496

> <Gold.Chemscore.Metal.Weighted>
-0.0000

> <Gold.Chemscore.Lipo.Weighted>
-13.3365

> <Gold.Chemscore.Internal_Hbond.Weighted>
0.0000

> <Gold.Chemscore.DEClash.Weighted>
0.0195

> <Gold.Chemscore.DEInternal.Weighted>
0.9560

> <Gold.Chemscore.Rot.Weighted>
4.4126

> <Gold.Chemscore.Internal.Correction.Weighted>
   9.000000E+99

> <Gold.Protein.RotatedTorsions>
[ 6907 6896 6895 6894 ] final  -52.04 input  -60.11 | X-H torsion
[ 7974 7965 7964 7962 ] final  -29.96 input  175.53 | X-H torsion
[ 8008 7997 7996 7995 ] final  113.85 input   59.86 | X-H torsion
[ 10167 10162 10161 10158 ] final   47.92 input  -65.29 | X-H torsion
[ 10718 10713 10712 10709 ] final   82.62 input   66.30 | X-H torsion
[ 10763 10752 10751 10750 ] final  127.38 input  -60.55 | X-H torsion
[ 11005 11000 10999 10996 ] final  169.48 input  -57.11 | X-H torsion

> <Gold.Protein.ActiveResidues>
 VAL166  LYS551  ARG553  GLY616  TRP617  ASP618  TYR619  PRO620  LYS621  CYS622 
 ASP623  PHE694  ASN695  SER759  ASP760  ASP761  ALA762  ILE779  LEU786  VAL792 
 PHE793  MET794  SER795  GLU796  ALA797  LYS798  CYS799  TRP800  GLU811  SER814 

> <Gold.Protein.RotatedAtoms>
  150.8555  134.7892  159.7041 H   0  0  0  0  0  0  0  0  0  0  0  0  # atno 6907 bound_to 6896
  152.4608  134.5186  159.9785 H   0  0  0  0  0  0  0  0  0  0  0  0  # atno 6908 bound_to 6896
  151.5299  133.3413  159.2952 H   0  0  0  0  0  0  0  0  0  0  0  0  # atno 6909 bound_to 6896
  146.1178  140.5479  142.8749 H   0  0  0  0  0  0  0  0  0  0  0  0  # atno 7974 bound_to 7965
  156.2284  140.2971  156.0125 H   0  0  0  0  0  0  0  0  0  0  0  0  # atno 8008 bound_to 7997
  155.2293  140.0418  157.2977 H   0  0  0  0  0  0  0  0  0  0  0  0  # atno 8009 bound_to 7997
  154.5954  140.2412  155.7872 H   0  0  0  0  0  0  0  0  0  0  0  0  # atno 8010 bound_to 7997
  140.2986  144.2961  150.6224 H   0  0  0  0  0  0  0  0  0  0  0  0  # atno 10167 bound_to 10162
  157.6861  131.0056  150.2402 H   0  0  0  0  0  0  0  0  0  0  0  0  # atno 10718 bound_to 10713
  153.7085  135.3272  155.3241 H   0  0  0  0  0  0  0  0  0  0  0  0  # atno 10763 bound_to 10752
  154.8392  135.4471  154.1338 H   0  0  0  0  0  0  0  0  0  0  0  0  # atno 10764 bound_to 10752
  153.2425  135.6972  153.7846 H   0  0  0  0  0  0  0  0  0  0  0  0  # atno 10765 bound_to 10752
  140.2982  134.7617  157.3894 H   0  0  0  0  0  0  0  0  0  0  0  0  # atno 11005 bound_to 11000
  144.7569  140.5329  143.6762 LP  0  0  0  0  0  0  0  0  0  0  0  0  # atno 17320 bound_to 7965
  145.5529  139.1477  143.3384 LP  0  0  0  0  0  0  0  0  0  0  0  0  # atno 17321 bound_to 7965
  140.5670  143.2185  151.7665 LP  0  0  0  0  0  0  0  0  0  0  0  0  # atno 17342 bound_to 10162
  139.4920  144.4269  151.9915 LP  0  0  0  0  0  0  0  0  0  0  0  0  # atno 17343 bound_to 10162
  156.3018  130.3759  149.7743 LP  0  0  0  0  0  0  0  0  0  0  0  0  # atno 17370 bound_to 10713
  156.5371  130.8283  151.3256 LP  0  0  0  0  0  0  0  0  0  0  0  0  # atno 17371 bound_to 10713
  140.1133  134.5316  155.8246 LP  0  0  0  0  0  0  0  0  0  0  0  0  # atno 17394 bound_to 11000
  141.2133  133.6732  156.6730 LP  0  0  0  0  0  0  0  0  0  0  0  0  # atno 17395 bound_to 11000

$$$$
