AV-unprocessed.smi:1703|AV-procd|sdf|6855|dock3
  -GOLD-   22720 8 33D 1   1.00000     0.00000
 Structure written by MMmdl.
 48 50  0  0  0  0  0  0  0  0  1 V2000
  146.2606  133.9306  152.1902 C   0  0  0  0  0  0  0  0  0  0  0  0
  145.2774  134.7068  151.2971 C   0  0  2  0  0  0  0  0  0  0  0  0
  145.5502  136.2237  151.2612 C   0  0  0  0  0  0  0  0  0  0  0  0
  145.1626  136.8992  152.4952 N   0  0  0  0  0  0  0  0  0  0  0  0
  145.4378  138.3341  152.4074 C   0  0  0  0  0  0  0  0  0  0  0  0
  146.8906  138.7529  152.7235 C   0  0  1  0  0  0  0  0  0  0  0  0
  147.7318  138.2400  151.7116 O   0  0  0  0  0  0  0  0  0  0  0  0
  147.0979  140.2811  152.7667 C   0  0  0  0  0  0  0  0  0  0  0  0
  147.7868  140.7305  153.9693 N   0  0  0  0  0  0  0  0  0  0  0  0
  147.3980  141.6874  154.8497 C   0  0  0  0  0  0  0  0  0  0  0  0
  146.1148  142.4450  154.6957 C   0  0  0  0  0  0  0  0  0  0  0  0
  144.9820  141.6030  154.7041 O   0  0  0  0  0  0  0  0  0  0  0  0
  148.2258  141.9067  155.8718 N   0  0  0  0  0  0  0  0  0  0  0  0
  149.2419  141.0006  155.6401 C   0  0  0  0  0  0  0  0  0  0  0  0
  150.4220  140.7379  156.3719 C   0  0  0  0  0  0  0  0  0  0  0  0
  151.3274  139.7485  155.9354 C   0  0  0  0  0  0  0  0  0  0  0  0
  151.0659  139.0087  154.7640 C   0  0  0  0  0  0  0  0  0  0  0  0
  149.8961  139.2547  154.0201 C   0  0  0  0  0  0  0  0  0  0  0  0
  148.9958  140.2444  154.4592 C   0  0  0  0  0  0  0  0  0  0  0  0
  143.7570  136.6107  152.7675 C   0  0  0  0  0  0  0  0  0  0  0  0
  143.4874  135.0978  152.8628 C   0  0  1  0  0  0  0  0  0  0  0  0
  141.9991  134.7892  153.0574 C   0  0  0  0  0  0  0  0  0  0  0  0
  143.9190  134.4593  151.6626 O   0  0  0  0  0  0  0  0  0  0  0  0
  147.2828  134.0405  151.8273 H   0  0  0  0  0  0  0  0  0  0  0  0
  146.0244  132.8664  152.1941 H   0  0  0  0  0  0  0  0  0  0  0  0
  146.2428  134.2807  153.2221 H   0  0  0  0  0  0  0  0  0  0  0  0
  145.3962  134.3214  150.2840 H   0  0  0  0  0  0  0  0  0  0  0  0
  146.6073  136.3973  151.0560 H   0  0  0  0  0  0  0  0  0  0  0  0
  145.0015  136.6587  150.4243 H   0  0  0  0  0  0  0  0  0  0  0  0
  145.2003  138.6862  151.4023 H   0  0  0  0  0  0  0  0  0  0  0  0
  144.7511  138.8576  153.0727 H   0  0  0  0  0  0  0  0  0  0  0  0
  147.2125  138.3327  153.6743 H   0  0  0  0  0  0  0  0  0  0  0  0
  148.3299  137.6243  152.1078 H   0  0  0  0  0  0  0  0  0  0  0  0
  147.6625  140.6125  151.8947 H   0  0  0  0  0  0  0  0  0  0  0  0
  146.1358  140.7920  152.7109 H   0  0  0  0  0  0  0  0  0  0  0  0
  146.0207  143.1626  155.5115 H   0  0  0  0  0  0  0  0  0  0  0  0
  146.1293  143.0229  153.7726 H   0  0  0  0  0  0  0  0  0  0  0  0
  144.7682  141.3783  153.8117 H   0  0  0  0  0  0  0  0  0  0  0  0
  150.6306  141.2984  157.2711 H   0  0  0  0  0  0  0  0  0  0  0  0
  152.2265  139.5559  156.5023 H   0  0  0  0  0  0  0  0  0  0  0  0
  151.7644  138.2524  154.4366 H   0  0  0  0  0  0  0  0  0  0  0  0
  149.6951  138.6909  153.1213 H   0  0  0  0  0  0  0  0  0  0  0  0
  143.4474  137.0728  153.7037 H   0  0  0  0  0  0  0  0  0  0  0  0
  143.1329  137.0444  151.9843 H   0  0  0  0  0  0  0  0  0  0  0  0
  144.0358  134.6836  153.7096 H   0  0  0  0  0  0  0  0  0  0  0  0
  141.6212  135.2418  153.9744 H   0  0  0  0  0  0  0  0  0  0  0  0
  141.8296  133.7141  153.1232 H   0  0  0  0  0  0  0  0  0  0  0  0
  141.4052  135.1700  152.2261 H   0  0  0  0  0  0  0  0  0  0  0  0
  1  2  1  0  0  0  0
  1 24  1  0  0  0  0
  1 25  1  0  0  0  0
  1 26  1  0  0  0  0
  2 23  1  0  0  0  0
  2  3  1  0  0  0  0
  2 27  1  0  0  0  0
  3  4  1  0  0  0  0
  3 28  1  0  0  0  0
  3 29  1  0  0  0  0
  4  5  1  0  0  0  0
  4 20  1  0  0  0  0
  5  6  1  0  0  0  0
  5 30  1  0  0  0  0
  5 31  1  0  0  0  0
  6  7  1  0  0  0  0
  6  8  1  0  0  0  0
  6 32  1  0  0  0  0
  7 33  1  0  0  0  0
  8  9  1  0  0  0  0
  8 34  1  0  0  0  0
  8 35  1  0  0  0  0
  9 19  1  0  0  0  0
  9 10  1  0  0  0  0
 10 11  1  0  0  0  0
 10 13  2  0  0  0  0
 11 12  1  0  0  0  0
 11 36  1  0  0  0  0
 11 37  1  0  0  0  0
 12 38  1  0  0  0  0
 13 14  1  0  0  0  0
 14 19  2  0  0  0  0
 14 15  1  0  0  0  0
 15 16  2  0  0  0  0
 15 39  1  0  0  0  0
 16 17  1  0  0  0  0
 16 40  1  0  0  0  0
 17 18  2  0  0  0  0
 17 41  1  0  0  0  0
 18 19  1  0  0  0  0
 18 42  1  0  0  0  0
 20 21  1  0  0  0  0
 20 43  1  0  0  0  0
 20 44  1  0  0  0  0
 21 22  1  0  0  0  0
 21 23  1  0  0  0  0
 21 45  1  0  0  0  0
 22 46  1  0  0  0  0
 22 47  1  0  0  0  0
 22 48  1  0  0  0  0
M  END
> <s_m_source_file>
AV-unprocessed.smi

> <i_m_source_file_index>
1703

> <i_lp_mmshare_version>
43012

> <i_f3d_flags>
0

> <s_epik_input>
W0NIM11bQ0BASF0xW0NIMl1OKFtDSDJdW0NASF0oTzEpW0NIM10pW0NIMl1bQ0BIXShbT0hdKVtDSDJdbihjKG4yKVtDSDJdW09IXSljKGMyMylbY0hdW2NIXVtjSF1bY0hdMw==

> <s_epik_cmdline>
J2VwaWtfcHl0aG9uJywgJy1waCcsICc3LjAnLCAnLXRuJywgJzgnLCAnLW1hJywgJzIwMCcsICctbWV0YWxfYmluZGluZycsICctaW1hZScsICc8aW5maWxlLm1hZT4nLCAnLW9tYWUnLCAnPG91dGZpbGUubWFlPic=

> <r_epik_Ionization_Penalty>
0.307685

> <r_epik_Ionization_Penalty_Charging>
0

> <r_epik_Ionization_Penalty_Neutral>
0.307685

> <r_epik_State_Penalty>
0.277856

> <r_epik_Charging_Adjusted_Penalty>
0.277856

> <i_epik_Tot_Q>
0

> <i_epik_Tot_abs_Q>
0

> <r_epik_Metal_State_Penalty>
0.238959

> <b_epik_Metal_Only>
0

> <s_lp_Force_Field>
OPLS_2005

> <r_lp_Energy>
33.3157

> <b_lp_Chiralities_Consistent>
1

> <s_lp_Variant>
AV-unprocessed.smi:1703-3

> <Gold.Version>
5.8.1

> <Gold.Id.Protein>
6NUR|6NUR_protein|mol2

> <Gold.PLP.Fitness>
45.2081

> <Gold.PLP.PLP>
-39.4432

> <Gold.PLP.part.hbond>
-3.3661

> <Gold.PLP.part.metal>
0.0000

> <Gold.PLP.part.buried>
2.5084

> <Gold.PLP.part.nonpolar>
-40.5429

> <Gold.PLP.part.repulsive>
2.0749

> <Gold.PLP.ligand.clash>
0.0000

> <Gold.PLP.ligand.torsion>
1.0359

> <Gold.PLP.Chemscore.Hbond>
2.5924

> <Gold.PLP.Chemscore.CHOScore>
0.0000

> <Gold.PLP.Chemscore.Metal>
0.0000

> <Gold.Chemscore.Hbonds>
donor molecule, donor type, donor heavy atom, donor atom, acceptor molecule, acceptor atom, score
      L1  H     7    33       P1  7948  0.77
      L1  H    12    38       P1 10175  1.00
      P1  H  7954  7966       L1     7  0.85

> <Gold.PLP.Chemscore.Internal.Correction>
0.0595

> <Gold.Rescore>
     Score         DG    S(hbond)    S(metal)    S(lipo)     H(rot)  DE(clash)    DE(int)     intcor
     12.37     -14.51       1.76        0.00      89.85       2.88       0.28       1.85       ----

> <Gold.Chemscore.Fitness>
12.3735

> <Gold.Chemscore.DG>
-14.5089

> <Gold.Chemscore.ZeroCoef>
-5.4800

> <Gold.Chemscore.Hbond>
1.7616

> <Gold.Chemscore.Metal>
0.0000

> <Gold.Chemscore.Lipo>
89.8495

> <Gold.Chemscore.Internal_Hbond>
0.0000

> <Gold.Chemscore.DEClash>
0.2807

> <Gold.Chemscore.DEInternal>
1.8547

> <Gold.Chemscore.Rot>
2.8778

> <Gold.Chemscore.Internal.Correction>
   9.000000E+99

> <Gold.Chemscore.Hbonds>
donor molecule, donor type, donor heavy atom, donor atom, acceptor molecule, acceptor atom, score
      L1  H     7    33       P1  7948  0.73
      L1  H    12    38       P1 10175  0.29
      P1  H  7954  7966       L1     7  0.14

> <Gold.Chemscore.Hbond.Weighted>
-5.8836

> <Gold.Chemscore.Metal.Weighted>
-0.0000

> <Gold.Chemscore.Lipo.Weighted>
-10.5124

> <Gold.Chemscore.Internal_Hbond.Weighted>
0.0000

> <Gold.Chemscore.DEClash.Weighted>
0.2807

> <Gold.Chemscore.DEInternal.Weighted>
1.8547

> <Gold.Chemscore.Rot.Weighted>
7.3671

> <Gold.Chemscore.Internal.Correction.Weighted>
   9.000000E+99

> <Gold.Protein.RotatedTorsions>
[ 6907 6896 6895 6894 ] final   68.81 input  -60.11 | X-H torsion
[ 7974 7965 7964 7962 ] final  170.65 input  175.53 | X-H torsion
[ 8008 7997 7996 7995 ] final  -35.86 input   59.86 | X-H torsion
[ 10167 10162 10161 10158 ] final  -15.01 input  -65.29 | X-H torsion
[ 10718 10713 10712 10709 ] final  122.13 input   66.30 | X-H torsion
[ 10763 10752 10751 10750 ] final -137.55 input  -60.55 | X-H torsion
[ 11005 11000 10999 10996 ] final   35.28 input  -57.11 | X-H torsion

> <Gold.Protein.ActiveResidues>
 VAL166  LYS551  ARG553  GLY616  TRP617  ASP618  TYR619  PRO620  LYS621  CYS622 
 ASP623  PHE694  ASN695  SER759  ASP760  ASP761  ALA762  ILE779  LEU786  VAL792 
 PHE793  MET794  SER795  GLU796  ALA797  LYS798  CYS799  TRP800  GLU811  SER814 

> <Gold.Protein.RotatedAtoms>
  152.4645  134.5107  159.9752 H   0  0  0  0  0  0  0  0  0  0  0  0  # atno 6907 bound_to 6896
  151.5148  133.3472  159.2899 H   0  0  0  0  0  0  0  0  0  0  0  0  # atno 6908 bound_to 6896
  150.8623  134.8007  159.7154 H   0  0  0  0  0  0  0  0  0  0  0  0  # atno 6909 bound_to 6896
  144.7317  139.9233  143.6421 H   0  0  0  0  0  0  0  0  0  0  0  0  # atno 7974 bound_to 7965
  154.4086  140.1646  156.2280 H   0  0  0  0  0  0  0  0  0  0  0  0  # atno 8008 bound_to 7997
  155.9307  140.3415  155.6224 H   0  0  0  0  0  0  0  0  0  0  0  0  # atno 8009 bound_to 7997
  155.7110  140.0756  157.2362 H   0  0  0  0  0  0  0  0  0  0  0  0  # atno 8010 bound_to 7997
  140.7211  143.5263  150.9573 H   0  0  0  0  0  0  0  0  0  0  0  0  # atno 10167 bound_to 10162
  157.5766  131.1079  150.8268 H   0  0  0  0  0  0  0  0  0  0  0  0  # atno 10718 bound_to 10713
  154.8659  135.3639  154.5241 H   0  0  0  0  0  0  0  0  0  0  0  0  # atno 10763 bound_to 10752
  153.5870  135.7016  153.5444 H   0  0  0  0  0  0  0  0  0  0  0  0  # atno 10764 bound_to 10752
  153.3407  135.4099  155.1531 H   0  0  0  0  0  0  0  0  0  0  0  0  # atno 10765 bound_to 10752
  140.2442  134.3379  155.7914 H   0  0  0  0  0  0  0  0  0  0  0  0  # atno 11005 bound_to 11000
  146.0913  139.3903  143.0404 LP  0  0  0  0  0  0  0  0  0  0  0  0  # atno 17320 bound_to 7965
  145.7707  140.9897  143.1151 LP  0  0  0  0  0  0  0  0  0  0  0  0  # atno 17321 bound_to 7965
  139.8981  143.6869  152.3135 LP  0  0  0  0  0  0  0  0  0  0  0  0  # atno 17342 bound_to 10162
  139.7209  144.7603  151.0957 LP  0  0  0  0  0  0  0  0  0  0  0  0  # atno 17343 bound_to 10162
  156.8725  130.5151  149.5296 LP  0  0  0  0  0  0  0  0  0  0  0  0  # atno 17370 bound_to 10713
  156.0810  130.5821  150.9563 LP  0  0  0  0  0  0  0  0  0  0  0  0  # atno 17371 bound_to 10713
  141.2208  133.7316  156.8934 LP  0  0  0  0  0  0  0  0  0  0  0  0  # atno 17394 bound_to 11000
  140.1622  134.9157  157.2729 LP  0  0  0  0  0  0  0  0  0  0  0  0  # atno 17395 bound_to 11000

$$$$
