AV-unprocessed.smi:1180|AV-procd|sdf|4963|dock9
  -GOLD-   22720 3553D 1   1.00000     0.00000
 Structure written by MMmdl.
 38 39  0  0  0  0  0  0  0  0  1 V2000
  146.8351  139.2223  152.6671 C   0  0  0  0  0  0  0  0  0  0  0  0
  148.0715  139.5127  153.4904 C   0  0  0  0  0  0  0  0  0  0  0  0
  148.9279  138.4305  153.6072 N   0  0  0  0  0  0  0  0  0  0  0  0
  150.0938  138.6011  154.3326 C   0  0  0  0  0  0  0  0  0  0  0  0
  150.9776  137.3676  154.3968 C   0  0  0  0  0  0  0  0  0  0  0  0
  150.3886  139.7902  154.9180 C   0  0  0  0  0  0  0  0  0  0  0  0
  151.6623  140.0315  155.7252 C   0  0  0  0  0  0  0  0  0  0  0  0
  151.4650  140.1418  157.2373 C   0  0  0  0  0  0  0  0  0  0  0  0
  151.0230  139.1860  157.8737 O   0  0  0  0  0  0  0  0  0  0  0  0
  151.7955  141.3162  157.7960 N   0  0  0  0  0  0  0  0  0  0  0  0
  151.6778  141.6468  159.2124 C   0  0  0  0  0  0  0  0  0  0  0  0
  152.2713  143.0319  159.5314 C   0  0  1  0  0  0  0  0  0  0  0  0
  151.5147  144.1814  158.8982 C   0  0  0  0  0  0  0  0  0  0  0  0
  152.0023  145.3723  159.7181 C   0  0  0  0  0  0  0  0  0  0  0  0
  152.2878  144.8611  161.0171 O   0  0  0  0  0  0  0  0  0  0  0  0
  152.2279  143.4382  161.0058 C   0  0  0  0  0  0  0  0  0  0  0  0
  149.4256  140.9072  154.7701 C   0  0  0  0  0  0  0  0  0  0  0  0
  149.6264  142.0021  155.2948 O   0  0  0  0  0  0  0  0  0  0  0  0
  148.2627  140.6847  154.0151 N   0  0  0  0  0  0  0  0  0  0  0  0
  148.7494  137.5311  153.1840 H   0  0  0  0  0  0  0  0  0  0  0  0
  146.1957  140.1033  152.5989 H   0  0  0  0  0  0  0  0  0  0  0  0
  146.2571  138.4164  153.1203 H   0  0  0  0  0  0  0  0  0  0  0  0
  147.1132  138.9237  151.6557 H   0  0  0  0  0  0  0  0  0  0  0  0
  151.1281  137.0575  155.4305 H   0  0  0  0  0  0  0  0  0  0  0  0
  151.9513  137.5713  153.9509 H   0  0  0  0  0  0  0  0  0  0  0  0
  150.5348  136.5284  153.8590 H   0  0  0  0  0  0  0  0  0  0  0  0
  152.1772  140.9206  155.3578 H   0  0  0  0  0  0  0  0  0  0  0  0
  152.3645  139.2186  155.5415 H   0  0  0  0  0  0  0  0  0  0  0  0
  152.1503  142.0416  157.1896 H   0  0  0  0  0  0  0  0  0  0  0  0
  150.6166  141.6415  159.4620 H   0  0  0  0  0  0  0  0  0  0  0  0
  152.1393  140.8756  159.8318 H   0  0  0  0  0  0  0  0  0  0  0  0
  153.3065  143.0704  159.1875 H   0  0  0  0  0  0  0  0  0  0  0  0
  151.7137  144.2915  157.8319 H   0  0  0  0  0  0  0  0  0  0  0  0
  150.4399  144.0512  159.0330 H   0  0  0  0  0  0  0  0  0  0  0  0
  152.9238  145.7739  159.2949 H   0  0  0  0  0  0  0  0  0  0  0  0
  151.2687  146.1777  159.7584 H   0  0  0  0  0  0  0  0  0  0  0  0
  151.2861  143.1317  161.4631 H   0  0  0  0  0  0  0  0  0  0  0  0
  153.0424  143.0024  161.5848 H   0  0  0  0  0  0  0  0  0  0  0  0
  1 21  1  0  0  0  0
  1 22  1  0  0  0  0
  1 23  1  0  0  0  0
  1  2  1  0  0  0  0
  2  3  1  0  0  0  0
  2 19  2  0  0  0  0
  3  4  1  0  0  0  0
  3 20  1  0  0  0  0
  4  6  2  0  0  0  0
  4  5  1  0  0  0  0
  5 24  1  0  0  0  0
  5 25  1  0  0  0  0
  5 26  1  0  0  0  0
  6 17  1  0  0  0  0
  6  7  1  0  0  0  0
  7  8  1  0  0  0  0
  7 27  1  0  0  0  0
  7 28  1  0  0  0  0
  8  9  2  0  0  0  0
  8 10  1  0  0  0  0
 10 11  1  0  0  0  0
 10 29  1  0  0  0  0
 11 12  1  0  0  0  0
 11 30  1  0  0  0  0
 11 31  1  0  0  0  0
 12 16  1  0  0  0  0
 12 13  1  0  0  0  0
 12 32  1  0  0  0  0
 13 14  1  0  0  0  0
 13 33  1  0  0  0  0
 13 34  1  0  0  0  0
 14 15  1  0  0  0  0
 14 35  1  0  0  0  0
 14 36  1  0  0  0  0
 15 16  1  0  0  0  0
 16 37  1  0  0  0  0
 16 38  1  0  0  0  0
 17 18  2  0  0  0  0
 17 19  1  0  0  0  0
M  END
> <s_m_source_file>
AV-unprocessed.smi

> <i_m_source_file_index>
1180

> <i_lp_mmshare_version>
43012

> <i_f3d_flags>
0

> <s_epik_input>
W0NIM11jMW5jKFtDSDNdKWMoYyg9TylbbkhdMSlbQ0gyXUMoPU8pW05IXVtDSDJdW0NAQEhdMltDSDJdW0NIMl1PW0NIMl0y

> <s_epik_cmdline>
J2VwaWtfcHl0aG9uJywgJy1waCcsICc3LjAnLCAnLXRuJywgJzgnLCAnLW1hJywgJzIwMCcsICctbWV0YWxfYmluZGluZycsICctaW1hZScsICc8aW5maWxlLm1hZT4nLCAnLW9tYWUnLCAnPG91dGZpbGUubWFlPic=

> <r_lp_tautomer_probability>
0.156392

> <r_epik_Ionization_Penalty>
0.014237

> <r_epik_Ionization_Penalty_Charging>
0.0141173

> <r_epik_Ionization_Penalty_Neutral>
0.000119724

> <r_epik_State_Penalty>
1.52876

> <r_epik_Charging_Adjusted_Penalty>
1.54288

> <i_epik_Tot_Q>
0

> <i_epik_Tot_abs_Q>
0

> <r_epik_Metal_State_Penalty>
1.70686

> <b_epik_Metal_Only>
0

> <s_lp_Force_Field>
OPLS_2005

> <r_lp_Energy>
23.3722

> <b_lp_Chiralities_Consistent>
1

> <s_lp_Variant>
AV-unprocessed.smi:1180-4

> <Gold.Version>
5.8.1

> <Gold.Id.Protein>
6NUR|6NUR_protein|mol2

> <Gold.PLP.Fitness>
40.4297

> <Gold.PLP.PLP>
-37.7555

> <Gold.PLP.part.hbond>
-1.9076

> <Gold.PLP.part.metal>
0.0000

> <Gold.PLP.part.buried>
-0.6920

> <Gold.PLP.part.nonpolar>
-36.9252

> <Gold.PLP.part.repulsive>
1.8996

> <Gold.PLP.ligand.clash>
0.0000

> <Gold.PLP.ligand.torsion>
0.1686

> <Gold.PLP.Chemscore.Hbond>
1.0000

> <Gold.PLP.Chemscore.CHOScore>
0.0000

> <Gold.PLP.Chemscore.Metal>
0.0000

> <Gold.Chemscore.Hbonds>
donor molecule, donor type, donor heavy atom, donor atom, acceptor molecule, acceptor atom, score
      L1  H     3    20       P1  7948  1.00

> <Gold.PLP.Chemscore.Internal.Correction>
0.0114

> <Gold.Rescore>
     Score         DG    S(hbond)    S(metal)    S(lipo)     H(rot)  DE(clash)    DE(int)     intcor
     13.08     -14.87       0.97        0.00      92.14       1.81       1.62       0.17       ----

> <Gold.Chemscore.Fitness>
13.0764

> <Gold.Chemscore.DG>
-14.8733

> <Gold.Chemscore.ZeroCoef>
-5.4800

> <Gold.Chemscore.Hbond>
0.9692

> <Gold.Chemscore.Metal>
0.0000

> <Gold.Chemscore.Lipo>
92.1424

> <Gold.Chemscore.Internal_Hbond>
0.0000

> <Gold.Chemscore.DEClash>
1.6231

> <Gold.Chemscore.DEInternal>
0.1738

> <Gold.Chemscore.Rot>
1.8065

> <Gold.Chemscore.Internal.Correction>
   9.000000E+99

> <Gold.Chemscore.Hbonds>
donor molecule, donor type, donor heavy atom, donor atom, acceptor molecule, acceptor atom, score
      L1  H     3    20       P1  7948  0.97

> <Gold.Chemscore.Hbond.Weighted>
-3.2373

> <Gold.Chemscore.Metal.Weighted>
-0.0000

> <Gold.Chemscore.Lipo.Weighted>
-10.7807

> <Gold.Chemscore.Internal_Hbond.Weighted>
0.0000

> <Gold.Chemscore.DEClash.Weighted>
1.6231

> <Gold.Chemscore.DEInternal.Weighted>
0.1738

> <Gold.Chemscore.Rot.Weighted>
4.6246

> <Gold.Chemscore.Internal.Correction.Weighted>
   9.000000E+99

> <Gold.Protein.RotatedTorsions>
[ 6907 6896 6895 6894 ] final   19.58 input  -60.11 | X-H torsion
[ 7974 7965 7964 7962 ] final  -55.99 input  175.53 | X-H torsion
[ 8008 7997 7996 7995 ] final   50.59 input   59.86 | X-H torsion
[ 10167 10162 10161 10158 ] final   82.28 input  -65.29 | X-H torsion
[ 10718 10713 10712 10709 ] final -147.90 input   66.30 | X-H torsion
[ 10763 10752 10751 10750 ] final   93.43 input  -60.55 | X-H torsion
[ 11005 11000 10999 10996 ] final  -17.69 input  -57.11 | X-H torsion

> <Gold.Protein.ActiveResidues>
 VAL166  LYS551  ARG553  GLY616  TRP617  ASP618  TYR619  PRO620  LYS621  CYS622 
 ASP623  PHE694  ASN695  SER759  ASP760  ASP761  ALA762  ILE779  LEU786  VAL792 
 PHE793  MET794  SER795  GLU796  ALA797  LYS798  CYS799  TRP800  GLU811  SER814 

> <Gold.Protein.RotatedAtoms>
  151.8830  135.0446  160.0490 H   0  0  0  0  0  0  0  0  0  0  0  0  # atno 6907 bound_to 6896
  152.2497  133.5200  159.5326 H   0  0  0  0  0  0  0  0  0  0  0  0  # atno 6908 bound_to 6896
  150.7080  134.0893  159.3968 H   0  0  0  0  0  0  0  0  0  0  0  0  # atno 6909 bound_to 6896
  145.8678  140.8238  142.9903 H   0  0  0  0  0  0  0  0  0  0  0  0  # atno 7974 bound_to 7965
  155.4213  140.3446  155.4271 H   0  0  0  0  0  0  0  0  0  0  0  0  # atno 8008 bound_to 7997
  156.1391  140.1537  156.8979 H   0  0  0  0  0  0  0  0  0  0  0  0  # atno 8009 bound_to 7997
  154.4956  140.0829  156.7670 H   0  0  0  0  0  0  0  0  0  0  0  0  # atno 8010 bound_to 7997
  139.9304  144.6155  150.8350 H   0  0  0  0  0  0  0  0  0  0  0  0  # atno 10167 bound_to 10162
  156.4133  130.7992  151.2211 H   0  0  0  0  0  0  0  0  0  0  0  0  # atno 10718 bound_to 10713
  153.2302  135.4326  155.0586 H   0  0  0  0  0  0  0  0  0  0  0  0  # atno 10763 bound_to 10752
  154.8293  135.3377  154.6799 H   0  0  0  0  0  0  0  0  0  0  0  0  # atno 10764 bound_to 10752
  153.7227  135.7016  153.5065 H   0  0  0  0  0  0  0  0  0  0  0  0  # atno 10765 bound_to 10752
  140.8193  133.8080  155.9643 H   0  0  0  0  0  0  0  0  0  0  0  0  # atno 11005 bound_to 11000
  144.6726  140.1193  143.7451 LP  0  0  0  0  0  0  0  0  0  0  0  0  # atno 17320 bound_to 7965
  145.9172  139.2523  143.1403 LP  0  0  0  0  0  0  0  0  0  0  0  0  # atno 17321 bound_to 7965
  140.7639  143.3234  151.2571 LP  0  0  0  0  0  0  0  0  0  0  0  0  # atno 17342 bound_to 10162
  139.6787  143.9893  152.2796 LP  0  0  0  0  0  0  0  0  0  0  0  0  # atno 17343 bound_to 10162
  157.7507  131.0251  150.3903 LP  0  0  0  0  0  0  0  0  0  0  0  0  # atno 17370 bound_to 10713
  156.4206  130.3952  149.6828 LP  0  0  0  0  0  0  0  0  0  0  0  0  # atno 17371 bound_to 10713
  140.9115  134.2254  157.4982 LP  0  0  0  0  0  0  0  0  0  0  0  0  # atno 17394 bound_to 11000
  139.8709  134.9752  156.4875 LP  0  0  0  0  0  0  0  0  0  0  0  0  # atno 17395 bound_to 11000

$$$$
