AV-unprocessed.smi:2780|AV-procd|sdf|10713|dock9
  -GOLD-   2272015153D 1   1.00000     0.00000
 Structure written by MMmdl.
 47 49  0  0  0  0  0  0  0  0  2 V2000
  148.2989  133.2875  152.8734 C   0  0  0  0  0  0  0  0  0  0  0  0
  149.0090  133.0180  154.1900 C   0  0  0  0  0  0  0  0  0  0  0  0
  149.8474  131.9706  154.3191 C   0  0  0  0  0  0  0  0  0  0  0  0
  150.5572  131.5815  155.6041 C   0  0  0  0  0  0  0  0  0  0  0  0
  150.3776  132.6128  156.7303 C   0  0  0  0  0  0  0  0  0  0  0  0
  148.9656  133.2238  156.7137 C   0  0  1  0  0  0  0  0  0  0  0  0
  148.6884  134.0751  157.9651 C   0  0  0  0  0  0  0  0  0  0  0  0
  148.6888  133.9498  155.3667 C   0  0  1  0  0  0  0  0  0  0  0  0
  149.4199  135.3136  155.2541 C   0  0  0  0  0  0  0  0  0  0  0  0
  148.6058  136.3514  154.5917 N   0  3  0  0  0  0  0  0  0  0  0  0
  148.8107  137.7102  155.1281 C   0  0  0  0  0  0  0  0  0  0  0  0
  149.6392  138.5658  154.1602 C   0  0  0  0  0  0  0  0  0  0  0  0
  150.9975  138.7480  154.6392 N   0  0  0  0  0  0  0  0  0  0  0  0
  152.1163  138.1322  154.2268 C   0  0  0  0  0  0  0  0  0  0  0  0
  153.2319  138.5146  154.8458 N   0  0  0  0  0  0  0  0  0  0  0  0
  152.8173  139.4758  155.7460 N   0  0  0  0  0  0  0  0  0  0  0  0
  151.4911  139.5659  155.5918 C   0  0  0  0  0  0  0  0  0  0  0  0
  150.6320  140.5222  156.3562 C   0  0  0  0  0  0  0  0  0  0  0  0
  149.7123  141.4916  155.6467 C   0  0  0  0  0  0  0  0  0  0  0  0
  150.9324  142.0050  156.3656 C   0  0  0  0  0  0  0  0  0  0  0  0
  147.2320  133.4391  153.0380 H   0  0  0  0  0  0  0  0  0  0  0  0
  148.4104  132.4450  152.1898 H   0  0  0  0  0  0  0  0  0  0  0  0
  148.7038  134.1644  152.3714 H   0  0  0  0  0  0  0  0  0  0  0  0
  150.0250  131.3214  153.4738 H   0  0  0  0  0  0  0  0  0  0  0  0
  150.1515  130.6201  155.9209 H   0  0  0  0  0  0  0  0  0  0  0  0
  151.6171  131.4246  155.4027 H   0  0  0  0  0  0  0  0  0  0  0  0
  150.5771  132.1355  157.6906 H   0  0  0  0  0  0  0  0  0  0  0  0
  151.1225  133.4021  156.6271 H   0  0  0  0  0  0  0  0  0  0  0  0
  148.2628  132.3900  156.7672 H   0  0  0  0  0  0  0  0  0  0  0  0
  149.4322  134.8603  158.0992 H   0  0  0  0  0  0  0  0  0  0  0  0
  148.7107  133.4577  158.8635 H   0  0  0  0  0  0  0  0  0  0  0  0
  147.7047  134.5425  157.9148 H   0  0  0  0  0  0  0  0  0  0  0  0
  147.6158  134.1452  155.3369 H   0  0  0  0  0  0  0  0  0  0  0  0
  149.6723  135.6960  156.2422 H   0  0  0  0  0  0  0  0  0  0  0  0
  150.3572  135.1976  154.7089 H   0  0  0  0  0  0  0  0  0  0  0  0
  148.8343  136.3550  153.6078 H   0  0  0  0  0  0  0  0  0  0  0  0
  147.8395  138.1741  155.3025 H   0  0  0  0  0  0  0  0  0  0  0  0
  149.3133  137.6436  156.0941 H   0  0  0  0  0  0  0  0  0  0  0  0
  149.6835  138.0940  153.1776 H   0  0  0  0  0  0  0  0  0  0  0  0
  149.1760  139.5425  154.0180 H   0  0  0  0  0  0  0  0  0  0  0  0
  152.1158  137.3832  153.4483 H   0  0  0  0  0  0  0  0  0  0  0  0
  150.2775  140.0673  157.2791 H   0  0  0  0  0  0  0  0  0  0  0  0
  149.7292  141.5063  154.5587 H   0  0  0  0  0  0  0  0  0  0  0  0
  148.7423  141.6853  156.1002 H   0  0  0  0  0  0  0  0  0  0  0  0
  150.7786  142.5419  157.2992 H   0  0  0  0  0  0  0  0  0  0  0  0
  151.7540  142.3649  155.7500 H   0  0  0  0  0  0  0  0  0  0  0  0
  147.6310  136.1077  154.6957 H   0  0  0  0  0  0  0  0  0  0  0  0
  1  2  1  0  0  0  0
  1 21  1  0  0  0  0
  1 22  1  0  0  0  0
  1 23  1  0  0  0  0
  2  8  1  0  0  0  0
  2  3  2  0  0  0  0
  3  4  1  0  0  0  0
  3 24  1  0  0  0  0
  4  5  1  0  0  0  0
  4 25  1  0  0  0  0
  4 26  1  0  0  0  0
  5  6  1  0  0  0  0
  5 27  1  0  0  0  0
  5 28  1  0  0  0  0
  6  7  1  0  0  0  0
  6  8  1  0  0  0  0
  6 29  1  0  0  0  0
  7 30  1  0  0  0  0
  7 31  1  0  0  0  0
  7 32  1  0  0  0  0
  8  9  1  0  0  0  0
  8 33  1  0  0  0  0
  9 10  1  0  0  0  0
  9 34  1  0  0  0  0
  9 35  1  0  0  0  0
 10 11  1  0  0  0  0
 10 36  1  0  0  0  0
 10 47  1  0  0  0  0
 11 12  1  0  0  0  0
 11 37  1  0  0  0  0
 11 38  1  0  0  0  0
 12 13  1  0  0  0  0
 12 39  1  0  0  0  0
 12 40  1  0  0  0  0
 13 17  1  0  0  0  0
 13 14  1  0  0  0  0
 14 15  2  0  0  0  0
 14 41  1  0  0  0  0
 15 16  1  0  0  0  0
 16 17  2  0  0  0  0
 17 18  1  0  0  0  0
 18 20  1  0  0  0  0
 18 19  1  0  0  0  0
 18 42  1  0  0  0  0
 19 20  1  0  0  0  0
 19 43  1  0  0  0  0
 19 44  1  0  0  0  0
 20 45  1  0  0  0  0
 20 46  1  0  0  0  0
M  CHG  1  10   1
M  END
> <s_m_source_file>
AV-unprocessed.smi

> <i_m_source_file_index>
2780

> <i_lp_mmshare_version>
43012

> <i_f3d_flags>
0

> <s_epik_input>
W0NIM11DMT1bQ0hdW0NIMl1bQ0gyXVtDQEBIXShbQ0gzXSlbQ0BIXTFbQ0gyXVtOSF1bQ0gyXVtDSDJdbjJbY0hdbm5jMltDSF0zW0NIMl1bQ0gyXTM=

> <s_epik_cmdline>
J2VwaWtfcHl0aG9uJywgJy1waCcsICc3LjAnLCAnLXRuJywgJzgnLCAnLW1hJywgJzIwMCcsICctbWV0YWxfYmluZGluZycsICctaW1hZScsICc8aW5maWxlLm1hZT4nLCAnLW9tYWUnLCAnPG91dGZpbGUubWFlPic=

> <r_lp_tautomer_probability>
1

> <r_epik_Ionization_Penalty>
0.00176214

> <r_epik_Ionization_Penalty_Charging>
0.00175191

> <r_epik_Ionization_Penalty_Neutral>
1.02377e-05

> <r_epik_State_Penalty>
-0

> <r_epik_Charging_Adjusted_Penalty>
0.00175191

> <i_epik_Tot_Q>
1

> <i_epik_Tot_abs_Q>
1

> <r_epik_Metal_State_Penalty>
-0

> <b_epik_Metal_Only>
0

> <s_lp_Force_Field>
OPLS_2005

> <r_lp_Energy>
21.6978

> <b_lp_Chiralities_Consistent>
1

> <s_lp_Variant>
AV-unprocessed.smi:2780-1

> <Gold.Version>
5.8.1

> <Gold.Id.Protein>
6NUR|6NUR_protein|mol2

> <Gold.PLP.Fitness>
45.4119

> <Gold.PLP.PLP>
-36.5263

> <Gold.PLP.part.hbond>
-2.2157

> <Gold.PLP.part.metal>
0.0000

> <Gold.PLP.part.buried>
-4.6456

> <Gold.PLP.part.nonpolar>
-29.0230

> <Gold.PLP.part.repulsive>
0.0171

> <Gold.PLP.ligand.clash>
0.0000

> <Gold.PLP.ligand.torsion>
1.6786

> <Gold.PLP.Chemscore.Hbond>
3.0000

> <Gold.PLP.Chemscore.CHOScore>
1.0000

> <Gold.PLP.Chemscore.Metal>
0.0000

> <Gold.Chemscore.Hbonds>
donor molecule, donor type, donor heavy atom, donor atom, acceptor molecule, acceptor atom, score
      L1  H    10    36       P1  7948  2.00
      P1  H  7997  8010       L1    16  0.95
      L1  C    14    41       P1  7949  0.88

> <Gold.PLP.Chemscore.Internal.Correction>
0.2429

> <Gold.Rescore>
     Score         DG    S(hbond)    S(metal)    S(lipo)     H(rot)  DE(clash)    DE(int)     intcor
     13.28     -14.94       1.92        0.00      69.20       1.98       0.15       1.50       ----

> <Gold.Chemscore.Fitness>
13.2795

> <Gold.Chemscore.DG>
-14.9353

> <Gold.Chemscore.ZeroCoef>
-5.4800

> <Gold.Chemscore.Hbond>
1.9243

> <Gold.Chemscore.Metal>
0.0000

> <Gold.Chemscore.Lipo>
69.2022

> <Gold.Chemscore.Internal_Hbond>
0.0000

> <Gold.Chemscore.DEClash>
0.1522

> <Gold.Chemscore.DEInternal>
1.5036

> <Gold.Chemscore.Rot>
1.9799

> <Gold.Chemscore.Internal.Correction>
   9.000000E+99

> <Gold.Chemscore.Hbonds>
donor molecule, donor type, donor heavy atom, donor atom, acceptor molecule, acceptor atom, score
      L1  H    10    36       P1  7948  1.00
      P1  H  7997  8010       L1    16  0.22

> <Gold.Chemscore.Hbond.Weighted>
-6.4272

> <Gold.Chemscore.Metal.Weighted>
-0.0000

> <Gold.Chemscore.Lipo.Weighted>
-8.0967

> <Gold.Chemscore.Internal_Hbond.Weighted>
0.0000

> <Gold.Chemscore.DEClash.Weighted>
0.1522

> <Gold.Chemscore.DEInternal.Weighted>
1.5036

> <Gold.Chemscore.Rot.Weighted>
5.0685

> <Gold.Chemscore.Internal.Correction.Weighted>
   9.000000E+99

> <Gold.Protein.RotatedTorsions>
[ 6907 6896 6895 6894 ] final   54.50 input  -60.11 | X-H torsion
[ 7974 7965 7964 7962 ] final  104.34 input  175.53 | X-H torsion
[ 8008 7997 7996 7995 ] final   86.96 input   59.86 | X-H torsion
[ 10167 10162 10161 10158 ] final   98.14 input  -65.29 | X-H torsion
[ 10718 10713 10712 10709 ] final   -8.18 input   66.30 | X-H torsion
[ 10763 10752 10751 10750 ] final  -30.11 input  -60.55 | X-H torsion
[ 11005 11000 10999 10996 ] final  -27.44 input  -57.11 | X-H torsion

> <Gold.Protein.ActiveResidues>
 VAL166  LYS551  ARG553  GLY616  TRP617  ASP618  TYR619  PRO620  LYS621  CYS622 
 ASP623  PHE694  ASN695  SER759  ASP760  ASP761  ALA762  ILE779  LEU786  VAL792 
 PHE793  MET794  SER795  GLU796  ALA797  LYS798  CYS799  TRP800  GLU811  SER814 

> <Gold.Protein.RotatedAtoms>
  152.3445  134.7090  160.0254 H   0  0  0  0  0  0  0  0  0  0  0  0  # atno 6907 bound_to 6896
  151.7464  133.3319  159.3387 H   0  0  0  0  0  0  0  0  0  0  0  0  # atno 6908 bound_to 6896
  150.7500  134.6165  159.6158 H   0  0  0  0  0  0  0  0  0  0  0  0  # atno 6909 bound_to 6896
  145.3341  139.2479  143.3645 H   0  0  0  0  0  0  0  0  0  0  0  0  # atno 7974 bound_to 7965
  155.9694  140.3387  155.6561 H   0  0  0  0  0  0  0  0  0  0  0  0  # atno 8008 bound_to 7997
  155.6695  140.0725  157.2543 H   0  0  0  0  0  0  0  0  0  0  0  0  # atno 8009 bound_to 7997
  154.4162  140.1694  156.1851 H   0  0  0  0  0  0  0  0  0  0  0  0  # atno 8010 bound_to 7997
  139.7736  144.6913  151.0121 H   0  0  0  0  0  0  0  0  0  0  0  0  # atno 10167 bound_to 10162
  156.7064  130.5108  149.5903 H   0  0  0  0  0  0  0  0  0  0  0  0  # atno 10718 bound_to 10713
  153.7756  135.6909  153.4898 H   0  0  0  0  0  0  0  0  0  0  0  0  # atno 10763 bound_to 10752
  153.1846  135.4494  155.0070 H   0  0  0  0  0  0  0  0  0  0  0  0  # atno 10764 bound_to 10752
  154.8101  135.3374  154.7262 H   0  0  0  0  0  0  0  0  0  0  0  0  # atno 10765 bound_to 10752
  140.9120  133.7455  156.0683 H   0  0  0  0  0  0  0  0  0  0  0  0  # atno 11005 bound_to 11000
  146.3034  140.3924  142.8696 LP  0  0  0  0  0  0  0  0  0  0  0  0  # atno 17320 bound_to 7965
  144.8841  140.7439  143.5968 LP  0  0  0  0  0  0  0  0  0  0  0  0  # atno 17321 bound_to 7965
  140.7815  143.4560  151.0344 LP  0  0  0  0  0  0  0  0  0  0  0  0  # atno 17342 bound_to 10162
  139.8243  143.7777  152.3178 LP  0  0  0  0  0  0  0  0  0  0  0  0  # atno 17343 bound_to 10162
  156.1692  130.6426  151.0816 LP  0  0  0  0  0  0  0  0  0  0  0  0  # atno 17370 bound_to 10713
  157.6953  131.0796  150.6986 LP  0  0  0  0  0  0  0  0  0  0  0  0  # atno 17371 bound_to 10713
  140.8098  134.3412  157.5415 LP  0  0  0  0  0  0  0  0  0  0  0  0  # atno 17394 bound_to 11000
  139.8759  134.9247  156.3357 LP  0  0  0  0  0  0  0  0  0  0  0  0  # atno 17395 bound_to 11000

$$$$
