AV-unprocessed.smi:573|AV-procd|sdf|2973|dock2
  -GOLD-   2262023483D 1   1.00000     0.00000
 Structure written by MMmdl.
 44 46  0  0  0  0  0  0  0  0  1 V2000
  147.3802  141.2653  155.1000 C   0  0  0  0  0  0  0  0  0  0  0  0
  148.7071  141.7103  154.4725 C   0  0  2  0  0  0  0  0  0  0  0  0
  148.7955  141.1165  153.1937 O   0  0  0  0  0  0  0  0  0  0  0  0
  149.9154  141.2618  155.3126 C   0  0  0  0  0  0  0  0  0  0  0  0
  150.1065  142.0914  156.4891 N   0  0  0  0  0  0  0  0  0  0  0  0
  150.9410  141.9645  157.5936 C   0  0  0  0  0  0  0  0  0  0  0  0
  151.7913  140.9546  157.7700 N   0  0  0  0  0  0  0  0  0  0  0  0
  152.3809  141.2756  158.9785 C   0  0  0  0  0  0  0  0  0  0  0  0
  153.3755  140.6005  159.7218 C   0  0  0  0  0  0  0  0  0  0  0  0
  153.8328  141.1280  160.9471 C   0  0  0  0  0  0  0  0  0  0  0  0
  153.3050  142.3367  161.4457 C   0  0  0  0  0  0  0  0  0  0  0  0
  152.3119  143.0251  160.7225 C   0  0  0  0  0  0  0  0  0  0  0  0
  151.8560  142.4933  159.5013 C   0  0  0  0  0  0  0  0  0  0  0  0
  150.9124  142.9071  158.5651 N   0  0  0  0  0  0  0  0  0  0  0  0
  150.0887  144.1060  158.6351 C   0  0  0  0  0  0  0  0  0  0  0  0
  149.0410  144.0218  159.7574 C   0  0  1  0  0  0  0  0  0  0  0  0
  148.9233  145.3459  160.5364 C   0  0  0  0  0  0  0  0  0  0  0  0
  147.8193  145.2535  161.5962 C   0  0  0  0  0  0  0  0  0  0  0  0
  146.5139  144.7855  160.9439 C   0  0  0  0  0  0  0  0  0  0  0  0
  146.7488  143.4935  160.1455 C   0  0  0  0  0  0  0  0  0  0  0  0
  147.7759  143.7001  159.1813 O   0  0  0  0  0  0  0  0  0  0  0  0
  147.2515  141.7025  156.0906 H   0  0  0  0  0  0  0  0  0  0  0  0
  147.3335  140.1810  155.2067 H   0  0  0  0  0  0  0  0  0  0  0  0
  146.5317  141.5781  154.4903 H   0  0  0  0  0  0  0  0  0  0  0  0
  148.6964  142.7955  154.3633 H   0  0  0  0  0  0  0  0  0  0  0  0
  147.9487  141.1774  152.7785 H   0  0  0  0  0  0  0  0  0  0  0  0
  149.7603  140.2399  155.6603 H   0  0  0  0  0  0  0  0  0  0  0  0
  150.8275  141.2528  154.7148 H   0  0  0  0  0  0  0  0  0  0  0  0
  149.5147  142.9090  156.5045 H   0  0  0  0  0  0  0  0  0  0  0  0
  153.7876  139.6752  159.3476 H   0  0  0  0  0  0  0  0  0  0  0  0
  154.5935  140.6033  161.5064 H   0  0  0  0  0  0  0  0  0  0  0  0
  153.6631  142.7354  162.3837 H   0  0  0  0  0  0  0  0  0  0  0  0
  151.9074  143.9524  161.1003 H   0  0  0  0  0  0  0  0  0  0  0  0
  150.7327  144.9748  158.7746 H   0  0  0  0  0  0  0  0  0  0  0  0
  149.5964  144.2431  157.6718 H   0  0  0  0  0  0  0  0  0  0  0  0
  149.3285  143.2233  160.4440 H   0  0  0  0  0  0  0  0  0  0  0  0
  149.8740  145.5934  161.0095 H   0  0  0  0  0  0  0  0  0  0  0  0
  148.6965  146.1593  159.8458 H   0  0  0  0  0  0  0  0  0  0  0  0
  148.1149  144.5484  162.3742 H   0  0  0  0  0  0  0  0  0  0  0  0
  147.6770  146.2185  162.0834 H   0  0  0  0  0  0  0  0  0  0  0  0
  145.7475  144.6272  161.7031 H   0  0  0  0  0  0  0  0  0  0  0  0
  146.1384  145.5620  160.2763 H   0  0  0  0  0  0  0  0  0  0  0  0
  147.0172  142.6686  160.8072 H   0  0  0  0  0  0  0  0  0  0  0  0
  145.8350  143.2013  159.6283 H   0  0  0  0  0  0  0  0  0  0  0  0
  1  2  1  0  0  0  0
  1 22  1  0  0  0  0
  1 23  1  0  0  0  0
  1 24  1  0  0  0  0
  2  3  1  0  0  0  0
  2  4  1  0  0  0  0
  2 25  1  0  0  0  0
  3 26  1  0  0  0  0
  4  5  1  0  0  0  0
  4 27  1  0  0  0  0
  4 28  1  0  0  0  0
  5  6  1  0  0  0  0
  5 29  1  0  0  0  0
  6 14  1  0  0  0  0
  6  7  2  0  0  0  0
  7  8  1  0  0  0  0
  8 13  2  0  0  0  0
  8  9  1  0  0  0  0
  9 10  2  0  0  0  0
  9 30  1  0  0  0  0
 10 11  1  0  0  0  0
 10 31  1  0  0  0  0
 11 12  2  0  0  0  0
 11 32  1  0  0  0  0
 12 13  1  0  0  0  0
 12 33  1  0  0  0  0
 13 14  1  0  0  0  0
 14 15  1  0  0  0  0
 15 16  1  0  0  0  0
 15 34  1  0  0  0  0
 15 35  1  0  0  0  0
 16 21  1  0  0  0  0
 16 17  1  0  0  0  0
 16 36  1  0  0  0  0
 17 18  1  0  0  0  0
 17 37  1  0  0  0  0
 17 38  1  0  0  0  0
 18 19  1  0  0  0  0
 18 39  1  0  0  0  0
 18 40  1  0  0  0  0
 19 20  1  0  0  0  0
 19 41  1  0  0  0  0
 19 42  1  0  0  0  0
 20 21  1  0  0  0  0
 20 43  1  0  0  0  0
 20 44  1  0  0  0  0
M  END
> <s_m_source_file>
AV-unprocessed.smi

> <i_m_source_file_index>
573

> <i_lp_mmshare_version>
43012

> <i_f3d_flags>
0

> <s_epik_input>
W0NIM11bQ0BIXShbT0hdKVtDSDJdW05IXWMobjEpbihjKGMxMilbY0hdW2NIXVtjSF1bY0hdMilbQ0gyXVtDQEBIXTNbQ0gyXVtDSDJdW0NIMl1bQ0gyXU8z

> <s_epik_cmdline>
J2VwaWtfcHl0aG9uJywgJy1waCcsICc3LjAnLCAnLXRuJywgJzgnLCAnLW1hJywgJzIwMCcsICctbWV0YWxfYmluZGluZycsICctaW1hZScsICc8aW5maWxlLm1hZT4nLCAnLW9tYWUnLCAnPG91dGZpbGUubWFlPic=

> <r_epik_Ionization_Penalty>
1.30635

> <r_epik_Ionization_Penalty_Charging>
0

> <r_epik_Ionization_Penalty_Neutral>
1.30635

> <r_epik_State_Penalty>
1.38073

> <r_epik_Charging_Adjusted_Penalty>
1.38073

> <i_epik_Tot_Q>
0

> <i_epik_Tot_abs_Q>
0

> <r_epik_Metal_State_Penalty>
0.00547412

> <b_epik_Metal_Only>
0

> <s_lp_Force_Field>
OPLS_2005

> <r_lp_Energy>
9.89465

> <b_lp_Chiralities_Consistent>
1

> <s_lp_Variant>
AV-unprocessed.smi:573-7

> <Gold.Version>
5.8.1

> <Gold.Id.Protein>
6NUR|6NUR_protein|mol2

> <Gold.PLP.Fitness>
47.5688

> <Gold.PLP.PLP>
-43.7484

> <Gold.PLP.part.hbond>
-2.8890

> <Gold.PLP.part.metal>
0.0000

> <Gold.PLP.part.buried>
-2.9821

> <Gold.PLP.part.nonpolar>
-38.3433

> <Gold.PLP.part.repulsive>
1.2649

> <Gold.PLP.ligand.clash>
0.0000

> <Gold.PLP.ligand.torsion>
0.8364

> <Gold.PLP.Chemscore.Hbond>
1.8288

> <Gold.PLP.Chemscore.CHOScore>
0.0000

> <Gold.PLP.Chemscore.Metal>
0.0000

> <Gold.Chemscore.Hbonds>
donor molecule, donor type, donor heavy atom, donor atom, acceptor molecule, acceptor atom, score
      L1  H     5    29       P1  8028  0.84
      P1  H  8011  8017       L1     3  1.00

> <Gold.PLP.Chemscore.Internal.Correction>
0.0070

> <Gold.Rescore>
     Score         DG    S(hbond)    S(metal)    S(lipo)     H(rot)  DE(clash)    DE(int)     intcor
     16.10     -17.21       1.09        0.00     113.24       2.02       0.43       0.68       ----

> <Gold.Chemscore.Fitness>
16.1049

> <Gold.Chemscore.DG>
-17.2082

> <Gold.Chemscore.ZeroCoef>
-5.4800

> <Gold.Chemscore.Hbond>
1.0949

> <Gold.Chemscore.Metal>
0.0000

> <Gold.Chemscore.Lipo>
113.2366

> <Gold.Chemscore.Internal_Hbond>
0.0000

> <Gold.Chemscore.DEClash>
0.4267

> <Gold.Chemscore.DEInternal>
0.6765

> <Gold.Chemscore.Rot>
2.0224

> <Gold.Chemscore.Internal.Correction>
   9.000000E+99

> <Gold.Chemscore.Hbonds>
donor molecule, donor type, donor heavy atom, donor atom, acceptor molecule, acceptor atom, score
      L1  H     5    29       P1  8028  0.78
      P1  H  8011  8017       L1     3  0.10

> <Gold.Chemscore.Hbond.Weighted>
-3.6568

> <Gold.Chemscore.Metal.Weighted>
-0.0000

> <Gold.Chemscore.Lipo.Weighted>
-13.2487

> <Gold.Chemscore.Internal_Hbond.Weighted>
0.0000

> <Gold.Chemscore.DEClash.Weighted>
0.4267

> <Gold.Chemscore.DEInternal.Weighted>
0.6765

> <Gold.Chemscore.Rot.Weighted>
5.1773

> <Gold.Chemscore.Internal.Correction.Weighted>
   9.000000E+99

> <Gold.Protein.RotatedTorsions>
[ 6907 6896 6895 6894 ] final   10.67 input  -60.11 | X-H torsion
[ 7974 7965 7964 7962 ] final  104.93 input  175.53 | X-H torsion
[ 8008 7997 7996 7995 ] final  150.85 input   59.86 | X-H torsion
[ 10167 10162 10161 10158 ] final   -3.01 input  -65.29 | X-H torsion
[ 10718 10713 10712 10709 ] final   41.19 input   66.30 | X-H torsion
[ 10763 10752 10751 10750 ] final   47.65 input  -60.55 | X-H torsion
[ 11005 11000 10999 10996 ] final  -10.03 input  -57.11 | X-H torsion

> <Gold.Protein.ActiveResidues>
 VAL166  LYS551  ARG553  GLY616  TRP617  ASP618  TYR619  PRO620  LYS621  CYS622 
 ASP623  PHE694  ASN695  SER759  ASP760  ASP761  ALA762  ILE779  LEU786  VAL792 
 PHE793  MET794  SER795  GLU796  ALA797  LYS798  CYS799  TRP800  GLU811  SER814 

> <Gold.Protein.RotatedAtoms>
  151.7420  135.0852  160.0316 H   0  0  0  0  0  0  0  0  0  0  0  0  # atno 6907 bound_to 6896
  152.3473  133.6133  159.5927 H   0  0  0  0  0  0  0  0  0  0  0  0  # atno 6908 bound_to 6896
  150.7517  133.9546  159.3538 H   0  0  0  0  0  0  0  0  0  0  0  0  # atno 6909 bound_to 6896
  145.3263  139.2499  143.3684 H   0  0  0  0  0  0  0  0  0  0  0  0  # atno 7974 bound_to 7965
  156.2699  140.2064  156.6082 H   0  0  0  0  0  0  0  0  0  0  0  0  # atno 8008 bound_to 7997
  154.6852  140.0536  157.0331 H   0  0  0  0  0  0  0  0  0  0  0  0  # atno 8009 bound_to 7997
  155.0943  140.3199  155.4567 H   0  0  0  0  0  0  0  0  0  0  0  0  # atno 8010 bound_to 7997
  140.6873  143.6590  150.8283 H   0  0  0  0  0  0  0  0  0  0  0  0  # atno 10167 bound_to 10162
  157.3908  130.7805  149.7267 H   0  0  0  0  0  0  0  0  0  0  0  0  # atno 10718 bound_to 10713
  152.9798  135.5969  154.3797 H   0  0  0  0  0  0  0  0  0  0  0  0  # atno 10763 bound_to 10752
  154.3463  135.2767  155.2398 H   0  0  0  0  0  0  0  0  0  0  0  0  # atno 10764 bound_to 10752
  154.4457  135.6002  153.6213 H   0  0  0  0  0  0  0  0  0  0  0  0  # atno 10765 bound_to 10752
  140.7404  133.8675  155.8963 H   0  0  0  0  0  0  0  0  0  0  0  0  # atno 11005 bound_to 11000
  146.3063  140.3832  142.8686 LP  0  0  0  0  0  0  0  0  0  0  0  0  # atno 17320 bound_to 7965
  144.8899  140.7510  143.5933 LP  0  0  0  0  0  0  0  0  0  0  0  0  # atno 17321 bound_to 7965
  140.0299  143.5454  152.2764 LP  0  0  0  0  0  0  0  0  0  0  0  0  # atno 17342 bound_to 10162
  139.6243  144.7634  151.2672 LP  0  0  0  0  0  0  0  0  0  0  0  0  # atno 17343 bound_to 10162
  155.9798  130.4036  150.3567 LP  0  0  0  0  0  0  0  0  0  0  0  0  # atno 17370 bound_to 10713
  157.1683  131.0362  151.2808 LP  0  0  0  0  0  0  0  0  0  0  0  0  # atno 17371 bound_to 10713
  140.9841  134.1366  157.4468 LP  0  0  0  0  0  0  0  0  0  0  0  0  # atno 17394 bound_to 11000
  139.8807  135.0020  156.6100 LP  0  0  0  0  0  0  0  0  0  0  0  0  # atno 17395 bound_to 11000

$$$$
