AV-unprocessed.smi:334|AV-procd|sdf|2362|dock2
  -GOLD-   2262022273D 1   1.00000     0.00000
 Structure written by MMmdl.
 44 46  0  0  0  0  0  0  0  0  3 V2000
  150.8946  138.1266  154.2023 C   0  0  0  0  0  0  0  0  0  0  0  0
  150.7769  139.5719  154.7143 C   0  0  2  0  0  0  0  0  0  0  0  0
  150.7062  139.5328  156.1745 N   0  0  0  0  0  0  0  0  0  0  0  0
  151.7369  139.3337  157.0110 C   0  0  0  0  0  0  0  0  0  0  0  0
  152.8977  139.1737  156.6315 O   0  0  0  0  0  0  0  0  0  0  0  0
  151.3915  139.3442  158.5070 C   0  0  0  0  0  0  0  0  0  0  0  0
  152.0823  140.4048  159.2596 N   0  0  0  0  0  0  0  0  0  0  0  0
  153.0639  139.9972  160.1846 C   0  0  0  0  0  0  0  0  0  0  0  0
  153.7540  140.8807  160.9321 C   0  0  0  0  0  0  0  0  0  0  0  0
  154.7542  140.4440  161.8814 N   0  3  0  0  0  0  0  0  0  0  0  0
  155.1392  139.2800  161.8369 O   0  0  0  0  0  0  0  0  0  0  0  0
  155.1874  141.2470  162.7023 O   0  5  0  0  0  0  0  0  0  0  0  0
  153.4572  142.2893  160.7566 C   0  0  0  0  0  0  0  0  0  0  0  0
  152.5166  142.6852  159.8765 C   0  0  0  0  0  0  0  0  0  0  0  0
  151.7630  141.7214  159.0678 C   0  0  0  0  0  0  0  0  0  0  0  0
  150.8972  142.0764  158.2677 O   0  0  0  0  0  0  0  0  0  0  0  0
  149.5409  140.3034  154.1315 C   0  0  2  0  0  0  0  0  0  0  0  0
  149.3398  141.7272  154.7072 C   0  0  0  0  0  0  0  0  0  0  0  0
  147.8881  141.7044  155.2174 C   0  0  1  0  0  0  0  0  0  0  0  0
  146.9213  141.6515  154.0208 C   0  0  0  0  0  0  0  0  0  0  0  0
  147.1027  140.2119  153.5054 C   0  0  0  0  0  0  0  0  0  0  0  0
  148.1746  139.6427  154.4548 C   0  0  2  0  0  0  0  0  0  0  0  0
  147.7832  140.2922  155.7777 C   0  0  0  0  0  0  0  0  0  0  0  0
  151.0032  138.0896  153.1186 H   0  0  0  0  0  0  0  0  0  0  0  0
  150.0151  137.5383  154.4670 H   0  0  0  0  0  0  0  0  0  0  0  0
  151.7665  137.6308  154.6306 H   0  0  0  0  0  0  0  0  0  0  0  0
  151.6769  140.1032  154.4009 H   0  0  0  0  0  0  0  0  0  0  0  0
  149.7920  139.6642  156.5828 H   0  0  0  0  0  0  0  0  0  0  0  0
  150.3100  139.4496  158.6054 H   0  0  0  0  0  0  0  0  0  0  0  0
  151.6209  138.3666  158.9354 H   0  0  0  0  0  0  0  0  0  0  0  0
  153.2049  138.9275  160.2459 H   0  0  0  0  0  0  0  0  0  0  0  0
  153.9858  143.0366  161.3295 H   0  0  0  0  0  0  0  0  0  0  0  0
  152.3107  143.7393  159.7622 H   0  0  0  0  0  0  0  0  0  0  0  0
  149.6644  140.3594  153.0487 H   0  0  0  0  0  0  0  0  0  0  0  0
  150.0158  141.9221  155.5405 H   0  0  0  0  0  0  0  0  0  0  0  0
  149.5061  142.5041  153.9601 H   0  0  0  0  0  0  0  0  0  0  0  0
  147.6624  142.5002  155.9278 H   0  0  0  0  0  0  0  0  0  0  0  0
  145.8925  141.8169  154.3430 H   0  0  0  0  0  0  0  0  0  0  0  0
  147.1602  142.3988  153.2632 H   0  0  0  0  0  0  0  0  0  0  0  0
  146.1701  139.6537  153.5972 H   0  0  0  0  0  0  0  0  0  0  0  0
  147.4082  140.1775  152.4591 H   0  0  0  0  0  0  0  0  0  0  0  0
  148.1829  138.5533  154.4683 H   0  0  0  0  0  0  0  0  0  0  0  0
  148.4863  140.0914  156.5877 H   0  0  0  0  0  0  0  0  0  0  0  0
  146.7758  140.0308  156.1068 H   0  0  0  0  0  0  0  0  0  0  0  0
  1  2  1  0  0  0  0
  1 24  1  0  0  0  0
  1 25  1  0  0  0  0
  1 26  1  0  0  0  0
  2  3  1  0  0  0  0
  2 17  1  0  0  0  0
  2 27  1  0  0  0  0
  3  4  1  0  0  0  0
  3 28  1  0  0  0  0
  4  5  2  0  0  0  0
  4  6  1  0  0  0  0
  6  7  1  0  0  0  0
  6 29  1  0  0  0  0
  6 30  1  0  0  0  0
  7 15  1  0  0  0  0
  7  8  1  0  0  0  0
  8  9  2  0  0  0  0
  8 31  1  0  0  0  0
  9 10  1  0  0  0  0
  9 13  1  0  0  0  0
 10 11  2  0  0  0  0
 10 12  1  0  0  0  0
 13 14  2  0  0  0  0
 13 32  1  0  0  0  0
 14 15  1  0  0  0  0
 14 33  1  0  0  0  0
 15 16  2  0  0  0  0
 17 22  1  0  0  0  0
 17 18  1  0  0  0  0
 17 34  1  0  0  0  0
 18 19  1  0  0  0  0
 18 35  1  0  0  0  0
 18 36  1  0  0  0  0
 19 23  1  0  0  0  0
 19 20  1  0  0  0  0
 19 37  1  0  0  0  0
 20 21  1  0  0  0  0
 20 38  1  0  0  0  0
 20 39  1  0  0  0  0
 21 22  1  0  0  0  0
 21 40  1  0  0  0  0
 21 41  1  0  0  0  0
 22 23  1  0  0  0  0
 22 42  1  0  0  0  0
 23 43  1  0  0  0  0
 23 44  1  0  0  0  0
M  CHG  1  10   1
M  CHG  1  12  -1
M  END
> <s_m_source_file>
AV-unprocessed.smi

> <i_m_source_file_index>
334

> <i_lp_mmshare_version>
43012

> <i_f3d_flags>
0

> <s_epik_input>
W0NIMl0xW0NIMl1bQ0BIXShbQ0gyXTIpW0NAQEhdKFtDSDJdW0NAQEhdMTIpW0NASF0oW0NIM10pW05IXUMoPU8pW0NIMl1uM1tjSF1jKFtOK10oPU8pW08tXSlbY0hdW2NIXWMzPU8=

> <s_epik_cmdline>
J2VwaWtfcHl0aG9uJywgJy1waCcsICc3LjAnLCAnLXRuJywgJzgnLCAnLW1hJywgJzIwMCcsICctbWV0YWxfYmluZGluZycsICctaW1hZScsICc8aW5maWxlLm1hZT4nLCAnLW9tYWUnLCAnPG91dGZpbGUubWFlPic=

> <r_lp_tautomer_probability>
1

> <r_epik_Ionization_Penalty>
2.17081e-08

> <r_epik_Ionization_Penalty_Charging>
8.1195e-11

> <r_epik_Ionization_Penalty_Neutral>
2.16269e-08

> <r_epik_State_Penalty>
-0

> <r_epik_Charging_Adjusted_Penalty>
8.1195e-11

> <i_epik_Tot_Q>
0

> <i_epik_Tot_abs_Q>
2

> <r_epik_Metal_State_Penalty>
-0

> <b_epik_Metal_Only>
0

> <s_lp_Force_Field>
OPLS_2005

> <r_lp_Energy>
62.1866

> <b_lp_Chiralities_Consistent>
1

> <s_lp_Variant>
AV-unprocessed.smi:334-1

> <Gold.Version>
5.8.1

> <Gold.Id.Protein>
6NUR|6NUR_protein|mol2

> <Gold.PLP.Fitness>
43.9092

> <Gold.PLP.PLP>
-41.6844

> <Gold.PLP.part.hbond>
-1.7402

> <Gold.PLP.part.metal>
0.0000

> <Gold.PLP.part.buried>
-0.9500

> <Gold.PLP.part.nonpolar>
-38.8893

> <Gold.PLP.part.repulsive>
0.0963

> <Gold.PLP.ligand.clash>
0.0000

> <Gold.PLP.ligand.torsion>
0.4120

> <Gold.PLP.Chemscore.Hbond>
1.0000

> <Gold.PLP.Chemscore.CHOScore>
0.0000

> <Gold.PLP.Chemscore.Metal>
0.0000

> <Gold.Chemscore.Hbonds>
donor molecule, donor type, donor heavy atom, donor atom, acceptor molecule, acceptor atom, score
      P1  H  7997  8010       L1     5  1.00

> <Gold.PLP.Chemscore.Internal.Correction>
0.0488

> <Gold.Rescore>
     Score         DG    S(hbond)    S(metal)    S(lipo)     H(rot)  DE(clash)    DE(int)     intcor
     13.31     -15.56       1.00        0.00      95.86       1.75       1.74       0.51       ----

> <Gold.Chemscore.Fitness>
13.3116

> <Gold.Chemscore.DG>
-15.5590

> <Gold.Chemscore.ZeroCoef>
-5.4800

> <Gold.Chemscore.Hbond>
0.9990

> <Gold.Chemscore.Metal>
0.0000

> <Gold.Chemscore.Lipo>
95.8610

> <Gold.Chemscore.Internal_Hbond>
0.0000

> <Gold.Chemscore.DEClash>
1.7383

> <Gold.Chemscore.DEInternal>
0.5090

> <Gold.Chemscore.Rot>
1.7474

> <Gold.Chemscore.Internal.Correction>
   9.000000E+99

> <Gold.Chemscore.Hbonds>
donor molecule, donor type, donor heavy atom, donor atom, acceptor molecule, acceptor atom, score
      P1  H  7997  8010       L1     5  1.00

> <Gold.Chemscore.Hbond.Weighted>
-3.3366

> <Gold.Chemscore.Metal.Weighted>
-0.0000

> <Gold.Chemscore.Lipo.Weighted>
-11.2157

> <Gold.Chemscore.Internal_Hbond.Weighted>
0.0000

> <Gold.Chemscore.DEClash.Weighted>
1.7383

> <Gold.Chemscore.DEInternal.Weighted>
0.5090

> <Gold.Chemscore.Rot.Weighted>
4.4733

> <Gold.Chemscore.Internal.Correction.Weighted>
   9.000000E+99

> <Gold.Protein.RotatedTorsions>
[ 6907 6896 6895 6894 ] final   80.21 input  -60.11 | X-H torsion
[ 7974 7965 7964 7962 ] final -169.68 input  175.53 | X-H torsion
[ 8008 7997 7996 7995 ] final   74.60 input   59.86 | X-H torsion
[ 10167 10162 10161 10158 ] final   20.68 input  -65.29 | X-H torsion
[ 10718 10713 10712 10709 ] final   44.36 input   66.30 | X-H torsion
[ 10763 10752 10751 10750 ] final -178.84 input  -60.55 | X-H torsion
[ 11005 11000 10999 10996 ] final -106.50 input  -57.11 | X-H torsion

> <Gold.Protein.ActiveResidues>
 VAL166  LYS551  ARG553  GLY616  TRP617  ASP618  TYR619  PRO620  LYS621  CYS622 
 ASP623  PHE694  ASN695  SER759  ASP760  ASP761  ALA762  ILE779  LEU786  VAL792 
 PHE793  MET794  SER795  GLU796  ALA797  LYS798  CYS799  TRP800  GLU811  SER814 

> <Gold.Protein.RotatedAtoms>
  152.5226  134.3393  159.9210 H   0  0  0  0  0  0  0  0  0  0  0  0  # atno 6907 bound_to 6896
  151.3342  133.3982  159.2673 H   0  0  0  0  0  0  0  0  0  0  0  0  # atno 6908 bound_to 6896
  150.9855  134.9219  159.7927 H   0  0  0  0  0  0  0  0  0  0  0  0  # atno 6909 bound_to 6896
  144.7181  140.2185  143.6319 H   0  0  0  0  0  0  0  0  0  0  0  0  # atno 7974 bound_to 7965
  155.8007  140.3476  155.5401 H   0  0  0  0  0  0  0  0  0  0  0  0  # atno 8008 bound_to 7997
  155.8540  140.0961  157.1676 H   0  0  0  0  0  0  0  0  0  0  0  0  # atno 8009 bound_to 7997
  154.4009  140.1371  156.3867 H   0  0  0  0  0  0  0  0  0  0  0  0  # atno 8010 bound_to 7997
  140.5485  143.9552  150.6563 H   0  0  0  0  0  0  0  0  0  0  0  0  # atno 10167 bound_to 10162
  157.4259  130.7996  149.7558 H   0  0  0  0  0  0  0  0  0  0  0  0  # atno 10718 bound_to 10713
  154.5427  135.2807  155.1081 H   0  0  0  0  0  0  0  0  0  0  0  0  # atno 10763 bound_to 10752
  154.2558  135.6331  153.5260 H   0  0  0  0  0  0  0  0  0  0  0  0  # atno 10764 bound_to 10752
  152.9983  135.5593  154.5970 H   0  0  0  0  0  0  0  0  0  0  0  0  # atno 10765 bound_to 10752
  141.1001  133.8899  157.1864 H   0  0  0  0  0  0  0  0  0  0  0  0  # atno 11005 bound_to 11000
  145.8523  139.2182  143.1764 LP  0  0  0  0  0  0  0  0  0  0  0  0  # atno 17320 bound_to 7965
  146.0249  140.8313  142.9905 LP  0  0  0  0  0  0  0  0  0  0  0  0  # atno 17321 bound_to 7965
  140.2971  143.3285  152.1007 LP  0  0  0  0  0  0  0  0  0  0  0  0  # atno 17342 bound_to 10162
  139.5017  144.6719  151.6221 LP  0  0  0  0  0  0  0  0  0  0  0  0  # atno 17343 bound_to 10162
  155.9896  130.3950  150.3064 LP  0  0  0  0  0  0  0  0  0  0  0  0  # atno 17370 bound_to 10713
  157.1216  131.0248  151.3007 LP  0  0  0  0  0  0  0  0  0  0  0  0  # atno 17371 bound_to 10713
  139.9850  135.0085  156.9840 LP  0  0  0  0  0  0  0  0  0  0  0  0  # atno 17394 bound_to 11000
  140.5043  134.1066  155.7257 LP  0  0  0  0  0  0  0  0  0  0  0  0  # atno 17395 bound_to 11000

$$$$
