AV-unprocessed.smi:3204|AV-procd|sdf|12250|dock3
  -GOLD-   2272018 83D 1   1.00000     0.00000
 Structure written by MMmdl.
 30 31  0  0  0  0  0  0  0  0  1 V2000
  153.2551  142.8853  162.6756 C   0  0  0  0  0  0  0  0  0  0  0  0
  153.8667  142.2694  161.4122 C   0  0  0  0  0  0  0  0  0  0  0  0
  152.9642  142.4195  160.2015 C   0  0  0  0  0  0  0  0  0  0  0  0
  152.5533  143.6721  159.9015 N   0  0  0  0  0  0  0  0  0  0  0  0
  151.7617  143.8057  158.8346 C   0  0  0  0  0  0  0  0  0  0  0  0
  151.3346  142.8296  158.0293 N   0  0  0  0  0  0  0  0  0  0  0  0
  151.7417  141.5692  158.3130 C   0  0  0  0  0  0  0  0  0  0  0  0
  151.3218  140.5059  157.5010 N   0  0  0  0  0  0  0  0  0  0  0  0
  151.4775  140.5435  156.0511 C   0  0  2  0  0  0  0  0  0  0  0  0
  150.1229  140.6666  155.3513 C   0  0  0  0  0  0  0  0  0  0  0  0
  150.3404  140.0570  154.0920 O   0  0  0  0  0  0  0  0  0  0  0  0
  151.0972  138.8801  154.3284 C   0  0  0  0  0  0  0  0  0  0  0  0
  152.0555  139.2497  155.4680 C   0  0  1  0  0  0  0  0  0  0  0  0
  153.3452  139.4794  154.9384 O   0  0  0  0  0  0  0  0  0  0  0  0
  152.5806  141.3087  159.4181 C   0  0  0  0  0  0  0  0  0  0  0  0
  152.9990  140.0528  159.7103 F   0  0  0  0  0  0  0  0  0  0  0  0
  153.9236  142.7654  163.5283 H   0  0  0  0  0  0  0  0  0  0  0  0
  152.3064  142.4103  162.9269 H   0  0  0  0  0  0  0  0  0  0  0  0
  153.0721  143.9520  162.5430 H   0  0  0  0  0  0  0  0  0  0  0  0
  154.8335  142.7297  161.2069 H   0  0  0  0  0  0  0  0  0  0  0  0
  154.0644  141.2095  161.5783 H   0  0  0  0  0  0  0  0  0  0  0  0
  151.4325  144.8065  158.5979 H   0  0  0  0  0  0  0  0  0  0  0  0
  150.9696  139.6628  157.9309 H   0  0  0  0  0  0  0  0  0  0  0  0
  152.0904  141.3990  155.7621 H   0  0  0  0  0  0  0  0  0  0  0  0
  149.3450  140.1125  155.8804 H   0  0  0  0  0  0  0  0  0  0  0  0
  149.7954  141.7014  155.2484 H   0  0  0  0  0  0  0  0  0  0  0  0
  150.4176  138.0899  154.6508 H   0  0  0  0  0  0  0  0  0  0  0  0
  151.6005  138.5376  153.4235 H   0  0  0  0  0  0  0  0  0  0  0  0
  152.1073  138.4418  156.1994 H   0  0  0  0  0  0  0  0  0  0  0  0
  153.2968  139.4044  153.9973 H   0  0  0  0  0  0  0  0  0  0  0  0
  1  2  1  0  0  0  0
  1 17  1  0  0  0  0
  1 18  1  0  0  0  0
  1 19  1  0  0  0  0
  2  3  1  0  0  0  0
  2 20  1  0  0  0  0
  2 21  1  0  0  0  0
  3 15  1  0  0  0  0
  3  4  2  0  0  0  0
  4  5  1  0  0  0  0
  5  6  2  0  0  0  0
  5 22  1  0  0  0  0
  6  7  1  0  0  0  0
  7  8  1  0  0  0  0
  7 15  2  0  0  0  0
  8  9  1  0  0  0  0
  8 23  1  0  0  0  0
  9 13  1  0  0  0  0
  9 10  1  0  0  0  0
  9 24  1  0  0  0  0
 10 11  1  0  0  0  0
 10 25  1  0  0  0  0
 10 26  1  0  0  0  0
 11 12  1  0  0  0  0
 12 13  1  0  0  0  0
 12 27  1  0  0  0  0
 12 28  1  0  0  0  0
 13 14  1  0  0  0  0
 13 29  1  0  0  0  0
 14 30  1  0  0  0  0
 15 16  1  0  0  0  0
M  END
> <s_m_source_file>
AV-unprocessed.smi

> <i_m_source_file_index>
3204

> <i_lp_mmshare_version>
43012

> <i_f3d_flags>
0

> <s_epik_input>
W0NIM11bQ0gyXWMxbltjSF1uYyhjMUYpW05IXVtDQEBIXTJbQ0gyXU9bQ0gyXVtDQEhdMltPSF0=

> <s_epik_cmdline>
J2VwaWtfcHl0aG9uJywgJy1waCcsICc3LjAnLCAnLXRuJywgJzgnLCAnLW1hJywgJzIwMCcsICctbWV0YWxfYmluZGluZycsICctaW1hZScsICc8aW5maWxlLm1hZT4nLCAnLW9tYWUnLCAnPG91dGZpbGUubWFlPic=

> <r_lp_tautomer_probability>
1

> <r_epik_Ionization_Penalty>
0.000484964

> <r_epik_Ionization_Penalty_Charging>
0

> <r_epik_Ionization_Penalty_Neutral>
0.000484964

> <r_epik_State_Penalty>
-0

> <r_epik_Charging_Adjusted_Penalty>
0

> <i_epik_Tot_Q>
0

> <i_epik_Tot_abs_Q>
0

> <r_epik_Metal_State_Penalty>
-0

> <b_epik_Metal_Only>
0

> <s_lp_Force_Field>
OPLS_2005

> <r_lp_Energy>
13.6654

> <b_lp_Chiralities_Consistent>
1

> <s_lp_Variant>
AV-unprocessed.smi:3204-1

> <Gold.Version>
5.8.1

> <Gold.Id.Protein>
6NUR|6NUR_protein|mol2

> <Gold.PLP.Fitness>
42.3503

> <Gold.PLP.PLP>
-37.5732

> <Gold.PLP.part.hbond>
-2.0000

> <Gold.PLP.part.metal>
0.0000

> <Gold.PLP.part.buried>
-5.8227

> <Gold.PLP.part.nonpolar>
-29.2731

> <Gold.PLP.part.repulsive>
0.9277

> <Gold.PLP.ligand.clash>
0.0000

> <Gold.PLP.ligand.torsion>
0.6165

> <Gold.PLP.Chemscore.Hbond>
2.0000

> <Gold.PLP.Chemscore.CHOScore>
0.0000

> <Gold.PLP.Chemscore.Metal>
0.0000

> <Gold.Chemscore.Hbonds>
donor molecule, donor type, donor heavy atom, donor atom, acceptor molecule, acceptor atom, score
      P1  H  7989  7998       L1    11  0.70
      P1  H  7997  8009       L1    14  1.00

> <Gold.PLP.Chemscore.Internal.Correction>
0.0100

> <Gold.Rescore>
     Score         DG    S(hbond)    S(metal)    S(lipo)     H(rot)  DE(clash)    DE(int)     intcor
     12.12     -12.81       1.08        0.00      71.87       1.83       0.03       0.66       ----

> <Gold.Chemscore.Fitness>
12.1219

> <Gold.Chemscore.DG>
-12.8114

> <Gold.Chemscore.ZeroCoef>
-5.4800

> <Gold.Chemscore.Hbond>
1.0828

> <Gold.Chemscore.Metal>
0.0000

> <Gold.Chemscore.Lipo>
71.8735

> <Gold.Chemscore.Internal_Hbond>
0.0000

> <Gold.Chemscore.DEClash>
0.0270

> <Gold.Chemscore.DEInternal>
0.6625

> <Gold.Chemscore.Rot>
1.8337

> <Gold.Chemscore.Internal.Correction>
   9.000000E+99

> <Gold.Chemscore.Hbonds>
donor molecule, donor type, donor heavy atom, donor atom, acceptor molecule, acceptor atom, score
      P1  H  7989  7998       L1    11  0.03
      P1  H  7997  8009       L1    14  0.98

> <Gold.Chemscore.Hbond.Weighted>
-3.6164

> <Gold.Chemscore.Metal.Weighted>
-0.0000

> <Gold.Chemscore.Lipo.Weighted>
-8.4092

> <Gold.Chemscore.Internal_Hbond.Weighted>
0.0000

> <Gold.Chemscore.DEClash.Weighted>
0.0270

> <Gold.Chemscore.DEInternal.Weighted>
0.6625

> <Gold.Chemscore.Rot.Weighted>
4.6942

> <Gold.Chemscore.Internal.Correction.Weighted>
   9.000000E+99

> <Gold.Protein.RotatedTorsions>
[ 6907 6896 6895 6894 ] final    7.58 input  -60.11 | X-H torsion
[ 7974 7965 7964 7962 ] final  137.61 input  175.53 | X-H torsion
[ 8008 7997 7996 7995 ] final -123.02 input   59.86 | X-H torsion
[ 10167 10162 10161 10158 ] final  147.41 input  -65.29 | X-H torsion
[ 10718 10713 10712 10709 ] final  178.32 input   66.30 | X-H torsion
[ 10763 10752 10751 10750 ] final  142.80 input  -60.55 | X-H torsion
[ 11005 11000 10999 10996 ] final    0.47 input  -57.11 | X-H torsion

> <Gold.Protein.ActiveResidues>
 VAL166  LYS551  ARG553  GLY616  TRP617  ASP618  TYR619  PRO620  LYS621  CYS622 
 ASP623  PHE694  ASN695  SER759  ASP760  ASP761  ALA762  ILE779  LEU786  VAL792 
 PHE793  MET794  SER795  GLU796  ALA797  LYS798  CYS799  TRP800  GLU811  SER814 

> <Gold.Protein.RotatedAtoms>
  151.6921  135.0944  160.0235 H   0  0  0  0  0  0  0  0  0  0  0  0  # atno 6907 bound_to 6896
  152.3772  133.6493  159.6141 H   0  0  0  0  0  0  0  0  0  0  0  0  # atno 6908 bound_to 6896
  150.7718  133.9090  159.3405 H   0  0  0  0  0  0  0  0  0  0  0  0  # atno 6909 bound_to 6896
  144.9452  139.4884  143.5553 H   0  0  0  0  0  0  0  0  0  0  0  0  # atno 7974 bound_to 7965
  155.1738  140.0409  157.2868 H   0  0  0  0  0  0  0  0  0  0  0  0  # atno 8008 bound_to 7997
  154.6251  140.2510  155.7474 H   0  0  0  0  0  0  0  0  0  0  0  0  # atno 8009 bound_to 7997
  156.2455  140.2887  156.0577 H   0  0  0  0  0  0  0  0  0  0  0  0  # atno 8010 bound_to 7997
  139.4890  144.5757  151.6970 H   0  0  0  0  0  0  0  0  0  0  0  0  # atno 10167 bound_to 10162
  156.8923  130.9851  151.3048 H   0  0  0  0  0  0  0  0  0  0  0  0  # atno 10718 bound_to 10713
  153.9617  135.2959  155.3433 H   0  0  0  0  0  0  0  0  0  0  0  0  # atno 10763 bound_to 10752
  154.7371  135.5041  153.9063 H   0  0  0  0  0  0  0  0  0  0  0  0  # atno 10764 bound_to 10752
  153.0943  135.6716  153.9904 H   0  0  0  0  0  0  0  0  0  0  0  0  # atno 10765 bound_to 10752
  140.6262  133.9616  155.8250 H   0  0  0  0  0  0  0  0  0  0  0  0  # atno 11005 bound_to 11000
  146.3301  139.8498  142.8875 LP  0  0  0  0  0  0  0  0  0  0  0  0  # atno 17320 bound_to 7965
  145.2929  141.0172  143.3652 LP  0  0  0  0  0  0  0  0  0  0  0  0  # atno 17321 bound_to 7965
  140.5353  144.0666  150.6068 LP  0  0  0  0  0  0  0  0  0  0  0  0  # atno 17342 bound_to 10162
  140.3670  143.2876  152.0321 LP  0  0  0  0  0  0  0  0  0  0  0  0  # atno 17343 bound_to 10162
  157.6076  130.8559  149.8901 LP  0  0  0  0  0  0  0  0  0  0  0  0  # atno 17370 bound_to 10713
  156.0623  130.3698  150.0955 LP  0  0  0  0  0  0  0  0  0  0  0  0  # atno 17371 bound_to 10713
  141.0707  134.0209  157.3529 LP  0  0  0  0  0  0  0  0  0  0  0  0  # atno 17394 bound_to 11000
  139.9134  135.0193  156.7783 LP  0  0  0  0  0  0  0  0  0  0  0  0  # atno 17395 bound_to 11000

$$$$
