AV-unprocessed.smi:657|AV-procd|sdf|3224|dock4
  -GOLD-   22720 0163D 1   1.00000     0.00000
 Structure written by MMmdl.
 46 47  0  0  0  0  0  0  0  0  1 V2000
  151.9406  139.8917  155.6249 C   0  0  0  0  0  0  0  0  0  0  0  0
  150.6498  139.2876  156.2148 C   0  0  0  0  0  0  0  0  0  0  0  0
  150.6958  137.7480  156.2231 C   0  0  0  0  0  0  0  0  0  0  0  0
  149.4147  139.7902  155.5711 N   0  0  0  0  0  0  0  0  0  0  0  0
  149.2501  139.3308  154.1806 C   0  0  0  0  0  0  0  0  0  0  0  0
  147.8328  139.6297  153.6631 C   0  0  0  0  0  0  0  0  0  0  0  0
  147.5329  141.1284  153.7244 C   0  0  0  0  0  0  0  0  0  0  0  0
  147.7633  141.6275  155.1523 C   0  0  0  0  0  0  0  0  0  0  0  0
  149.1845  141.2708  155.6480 C   0  0  1  0  0  0  0  0  0  0  0  0
  149.4054  141.8901  157.0422 C   0  0  0  0  0  0  0  0  0  0  0  0
  148.8244  141.4318  158.0265 O   0  0  0  0  0  0  0  0  0  0  0  0
  150.2693  142.9141  157.1109 N   0  0  0  0  0  0  0  0  0  0  0  0
  150.6394  143.6143  158.3333 C   0  0  0  0  0  0  0  0  0  0  0  0
  152.1660  143.7043  158.4598 C   0  0  0  0  0  0  0  0  0  0  0  0
  152.6446  143.1335  159.7653 C   0  0  0  0  0  0  0  0  0  0  0  0
  153.3879  141.9372  159.9765 C   0  0  0  0  0  0  0  0  0  0  0  0
  153.6486  141.7119  161.2542 N   0  0  0  0  0  0  0  0  0  0  0  0
  153.0826  142.7516  161.9005 N   0  0  0  0  0  0  0  0  0  0  0  0
  153.1717  142.8285  163.3429 C   0  0  0  0  0  0  0  0  0  0  0  0
  152.4712  143.6260  161.0281 C   0  0  0  0  0  0  0  0  0  0  0  0
  152.8103  139.5623  156.1939 H   0  0  0  0  0  0  0  0  0  0  0  0
  151.9339  140.9807  155.6563 H   0  0  0  0  0  0  0  0  0  0  0  0
  152.1005  139.5854  154.5913 H   0  0  0  0  0  0  0  0  0  0  0  0
  150.6238  139.5482  157.2715 H   0  0  0  0  0  0  0  0  0  0  0  0
  151.4836  137.3942  156.8886 H   0  0  0  0  0  0  0  0  0  0  0  0
  150.9053  137.3280  155.2398 H   0  0  0  0  0  0  0  0  0  0  0  0
  149.7564  137.3252  156.5805 H   0  0  0  0  0  0  0  0  0  0  0  0
  149.9835  139.8102  153.5310 H   0  0  0  0  0  0  0  0  0  0  0  0
  149.4106  138.2579  154.0952 H   0  0  0  0  0  0  0  0  0  0  0  0
  147.7302  139.2758  152.6368 H   0  0  0  0  0  0  0  0  0  0  0  0
  147.1002  139.0795  154.2554 H   0  0  0  0  0  0  0  0  0  0  0  0
  148.1826  141.6663  153.0328 H   0  0  0  0  0  0  0  0  0  0  0  0
  146.5063  141.3249  153.4136 H   0  0  0  0  0  0  0  0  0  0  0  0
  147.6064  142.7067  155.1871 H   0  0  0  0  0  0  0  0  0  0  0  0
  147.0132  141.1851  155.8101 H   0  0  0  0  0  0  0  0  0  0  0  0
  149.8914  141.7560  154.9721 H   0  0  0  0  0  0  0  0  0  0  0  0
  150.7065  143.2239  156.2552 H   0  0  0  0  0  0  0  0  0  0  0  0
  150.2006  144.6128  158.3121 H   0  0  0  0  0  0  0  0  0  0  0  0
  150.2297  143.1010  159.2051 H   0  0  0  0  0  0  0  0  0  0  0  0
  152.6269  143.1777  157.6229 H   0  0  0  0  0  0  0  0  0  0  0  0
  152.4772  144.7452  158.3624 H   0  0  0  0  0  0  0  0  0  0  0  0
  153.7416  141.2282  159.2424 H   0  0  0  0  0  0  0  0  0  0  0  0
  152.6626  143.7235  163.7016 H   0  0  0  0  0  0  0  0  0  0  0  0
  154.2181  142.8697  163.6469 H   0  0  0  0  0  0  0  0  0  0  0  0
  152.7020  141.9511  163.7886 H   0  0  0  0  0  0  0  0  0  0  0  0
  151.9658  144.5160  161.3733 H   0  0  0  0  0  0  0  0  0  0  0  0
  1  2  1  0  0  0  0
  1 21  1  0  0  0  0
  1 22  1  0  0  0  0
  1 23  1  0  0  0  0
  2  3  1  0  0  0  0
  2  4  1  0  0  0  0
  2 24  1  0  0  0  0
  3 25  1  0  0  0  0
  3 26  1  0  0  0  0
  3 27  1  0  0  0  0
  4  9  1  0  0  0  0
  4  5  1  0  0  0  0
  5  6  1  0  0  0  0
  5 28  1  0  0  0  0
  5 29  1  0  0  0  0
  6  7  1  0  0  0  0
  6 30  1  0  0  0  0
  6 31  1  0  0  0  0
  7  8  1  0  0  0  0
  7 32  1  0  0  0  0
  7 33  1  0  0  0  0
  8  9  1  0  0  0  0
  8 34  1  0  0  0  0
  8 35  1  0  0  0  0
  9 10  1  0  0  0  0
  9 36  1  0  0  0  0
 10 11  2  0  0  0  0
 10 12  1  0  0  0  0
 12 13  1  0  0  0  0
 12 37  1  0  0  0  0
 13 14  1  0  0  0  0
 13 38  1  0  0  0  0
 13 39  1  0  0  0  0
 14 15  1  0  0  0  0
 14 40  1  0  0  0  0
 14 41  1  0  0  0  0
 15 20  2  0  0  0  0
 15 16  1  0  0  0  0
 16 17  2  0  0  0  0
 16 42  1  0  0  0  0
 17 18  1  0  0  0  0
 18 19  1  0  0  0  0
 18 20  1  0  0  0  0
 19 43  1  0  0  0  0
 19 44  1  0  0  0  0
 19 45  1  0  0  0  0
 20 46  1  0  0  0  0
M  END
> <s_m_source_file>
AV-unprocessed.smi

> <i_m_source_file_index>
657

> <i_lp_mmshare_version>
43012

> <i_f3d_flags>
0

> <s_epik_input>
W0NIM11bQ0hdKFtDSDNdKU4xW0NIMl1bQ0gyXVtDSDJdW0NIMl1bQ0BIXTFDKD1PKVtOSF1bQ0gyXVtDSDJdYzJbY0hdbm4oW0NIM10pW2NIXTI=

> <s_epik_cmdline>
J2VwaWtfcHl0aG9uJywgJy1waCcsICc3LjAnLCAnLXRuJywgJzgnLCAnLW1hJywgJzIwMCcsICctbWV0YWxfYmluZGluZycsICctaW1hZScsICc8aW5maWxlLm1hZT4nLCAnLW9tYWUnLCAnPG91dGZpbGUubWFlPic=

> <r_lp_tautomer_probability>
1

> <r_epik_Ionization_Penalty>
1.91154

> <r_epik_Ionization_Penalty_Charging>
0

> <r_epik_Ionization_Penalty_Neutral>
1.91154

> <r_epik_State_Penalty>
2.0331

> <r_epik_Charging_Adjusted_Penalty>
2.0331

> <i_epik_Tot_Q>
0

> <i_epik_Tot_abs_Q>
0

> <r_epik_Metal_State_Penalty>
2.04973

> <b_epik_Metal_Only>
0

> <s_lp_Force_Field>
OPLS_2005

> <r_lp_Energy>
17.3109

> <b_lp_Chiralities_Consistent>
1

> <s_lp_Variant>
AV-unprocessed.smi:657-5

> <Gold.Version>
5.8.1

> <Gold.Id.Protein>
6NUR|6NUR_protein|mol2

> <Gold.PLP.Fitness>
41.1324

> <Gold.PLP.PLP>
-42.3649

> <Gold.PLP.part.hbond>
-1.0000

> <Gold.PLP.part.metal>
0.0000

> <Gold.PLP.part.buried>
-2.8130

> <Gold.PLP.part.nonpolar>
-38.6105

> <Gold.PLP.part.repulsive>
0.1061

> <Gold.PLP.ligand.clash>
0.0000

> <Gold.PLP.ligand.torsion>
0.6719

> <Gold.PLP.Chemscore.Hbond>
0.0000

> <Gold.PLP.Chemscore.CHOScore>
0.0000

> <Gold.PLP.Chemscore.Metal>
0.0000

> <Gold.PLP.Chemscore.Internal.Correction>
0.1113

> <Gold.Rescore>
     Score         DG    S(hbond)    S(metal)    S(lipo)     H(rot)  DE(clash)    DE(int)     intcor
     14.50     -15.17       0.00        0.00     117.28       1.57       0.07       0.60       ----

> <Gold.Chemscore.Fitness>
14.5008

> <Gold.Chemscore.DG>
-15.1740

> <Gold.Chemscore.ZeroCoef>
-5.4800

> <Gold.Chemscore.Hbond>
0.0000

> <Gold.Chemscore.Metal>
0.0000

> <Gold.Chemscore.Lipo>
117.2849

> <Gold.Chemscore.Internal_Hbond>
0.0000

> <Gold.Chemscore.DEClash>
0.0712

> <Gold.Chemscore.DEInternal>
0.6019

> <Gold.Chemscore.Rot>
1.5736

> <Gold.Chemscore.Internal.Correction>
   9.000000E+99

> <Gold.Chemscore.Hbond.Weighted>
-0.0000

> <Gold.Chemscore.Metal.Weighted>
-0.0000

> <Gold.Chemscore.Lipo.Weighted>
-13.7223

> <Gold.Chemscore.Internal_Hbond.Weighted>
0.0000

> <Gold.Chemscore.DEClash.Weighted>
0.0712

> <Gold.Chemscore.DEInternal.Weighted>
0.6019

> <Gold.Chemscore.Rot.Weighted>
4.0284

> <Gold.Chemscore.Internal.Correction.Weighted>
   9.000000E+99

> <Gold.Protein.RotatedTorsions>
[ 6907 6896 6895 6894 ] final   -6.58 input  -60.11 | X-H torsion
[ 7974 7965 7964 7962 ] final    6.16 input  175.53 | X-H torsion
[ 8008 7997 7996 7995 ] final  -51.94 input   59.86 | X-H torsion
[ 10167 10162 10161 10158 ] final  136.29 input  -65.29 | X-H torsion
[ 10718 10713 10712 10709 ] final -170.36 input   66.30 | X-H torsion
[ 10763 10752 10751 10750 ] final   -6.87 input  -60.55 | X-H torsion
[ 11005 11000 10999 10996 ] final   35.02 input  -57.11 | X-H torsion

> <Gold.Protein.ActiveResidues>
 VAL166  LYS551  ARG553  GLY616  TRP617  ASP618  TYR619  PRO620  LYS621  CYS622 
 ASP623  PHE694  ASN695  SER759  ASP760  ASP761  ALA762  ILE779  LEU786  VAL792 
 PHE793  MET794  SER795  GLU796  ALA797  LYS798  CYS799  TRP800  GLU811  SER814 

> <Gold.Protein.RotatedAtoms>
  151.4633  135.1040  159.9730 H   0  0  0  0  0  0  0  0  0  0  0  0  # atno 6907 bound_to 6896
  152.4844  133.8332  159.7125 H   0  0  0  0  0  0  0  0  0  0  0  0  # atno 6908 bound_to 6896
  150.8942  133.7142  159.2923 H   0  0  0  0  0  0  0  0  0  0  0  0  # atno 6909 bound_to 6896
  146.2436  140.0275  142.8392 H   0  0  0  0  0  0  0  0  0  0  0  0  # atno 7974 bound_to 7965
  154.4094  140.1236  156.4910 H   0  0  0  0  0  0  0  0  0  0  0  0  # atno 8008 bound_to 7997
  155.6990  140.3495  155.4905 H   0  0  0  0  0  0  0  0  0  0  0  0  # atno 8009 bound_to 7997
  155.9402  140.1085  157.1052 H   0  0  0  0  0  0  0  0  0  0  0  0  # atno 8010 bound_to 7997
  139.5185  144.6472  151.5405 H   0  0  0  0  0  0  0  0  0  0  0  0  # atno 10167 bound_to 10162
  156.7251  130.9285  151.3100 H   0  0  0  0  0  0  0  0  0  0  0  0  # atno 10718 bound_to 10713
  153.4185  135.7009  153.6310 H   0  0  0  0  0  0  0  0  0  0  0  0  # atno 10763 bound_to 10752
  153.4775  135.3701  155.2424 H   0  0  0  0  0  0  0  0  0  0  0  0  # atno 10764 bound_to 10752
  154.8721  135.4058  154.3549 H   0  0  0  0  0  0  0  0  0  0  0  0  # atno 10765 bound_to 10752
  140.2470  134.3348  155.7904 H   0  0  0  0  0  0  0  0  0  0  0  0  # atno 11005 bound_to 11000
  145.1185  140.9448  143.4614 LP  0  0  0  0  0  0  0  0  0  0  0  0  # atno 17320 bound_to 7965
  145.0505  139.3185  143.5931 LP  0  0  0  0  0  0  0  0  0  0  0  0  # atno 17321 bound_to 7965
  140.6262  143.9164  150.6566 LP  0  0  0  0  0  0  0  0  0  0  0  0  # atno 17342 bound_to 10162
  140.2453  143.3633  152.1451 LP  0  0  0  0  0  0  0  0  0  0  0  0  # atno 17343 bound_to 10162
  157.6882  130.9207  150.0442 LP  0  0  0  0  0  0  0  0  0  0  0  0  # atno 17370 bound_to 10713
  156.1567  130.3643  149.9358 LP  0  0  0  0  0  0  0  0  0  0  0  0  # atno 17371 bound_to 10713
  141.2205  133.7331  156.8976 LP  0  0  0  0  0  0  0  0  0  0  0  0  # atno 17394 bound_to 11000
  140.1596  134.9174  157.2698 LP  0  0  0  0  0  0  0  0  0  0  0  0  # atno 17395 bound_to 11000

$$$$
