AV-unprocessed.smi:2154|AV-procd|sdf|8771|dock8
  -GOLD-   2272011553D 1   1.00000     0.00000
 Structure written by MMmdl.
 32 33  0  0  0  0  0  0  0  0  1 V2000
  152.8734  143.0592  160.0622 C   0  0  0  0  0  0  0  0  0  0  0  0
  152.4930  144.4306  159.5405 C   0  0  1  0  0  0  0  0  0  0  0  0
  152.3382  144.6750  158.0581 C   0  0  0  0  0  0  0  0  0  0  0  0
  151.1247  144.7272  158.9583 C   0  0  1  0  0  0  0  0  0  0  0  0
  150.0398  143.6669  158.8730 C   0  0  0  0  0  0  0  0  0  0  0  0
  149.7881  143.1558  157.5324 N   0  0  0  0  0  0  0  0  0  0  0  0
  149.9134  141.8720  157.1639 C   0  0  0  0  0  0  0  0  0  0  0  0
  150.2364  140.9755  157.9445 O   0  0  0  0  0  0  0  0  0  0  0  0
  149.6041  141.5583  155.6930 C   0  0  0  0  0  0  0  0  0  0  0  0
  150.2274  140.3107  155.2276 N   0  0  0  0  0  0  0  0  0  0  0  0
  151.5333  140.0044  155.5836 C   0  0  0  0  0  0  0  0  0  0  0  0
  152.1704  138.8779  155.1848 C   0  0  0  0  0  0  0  0  0  0  0  0
  151.4902  137.9061  154.3354 C   0  0  0  0  0  0  0  0  0  0  0  0
  151.9809  136.8569  153.9245 O   0  0  0  0  0  0  0  0  0  0  0  0
  150.1793  138.2513  153.9960 N   0  0  0  0  0  0  0  0  0  0  0  0
  149.5175  139.4113  154.4024 C   0  0  0  0  0  0  0  0  0  0  0  0
  148.3596  139.6207  154.0423 O   0  0  0  0  0  0  0  0  0  0  0  0
  149.6693  137.6097  153.4065 H   0  0  0  0  0  0  0  0  0  0  0  0
  152.5151  142.2702  159.4012 H   0  0  0  0  0  0  0  0  0  0  0  0
  152.4485  142.9050  161.0541 H   0  0  0  0  0  0  0  0  0  0  0  0
  153.9581  142.9770  160.1329 H   0  0  0  0  0  0  0  0  0  0  0  0
  152.9367  145.2427  160.1134 H   0  0  0  0  0  0  0  0  0  0  0  0
  152.7081  145.6183  157.6619 H   0  0  0  0  0  0  0  0  0  0  0  0
  152.4345  143.8219  157.3894 H   0  0  0  0  0  0  0  0  0  0  0  0
  150.7387  145.7183  159.1900 H   0  0  0  0  0  0  0  0  0  0  0  0
  150.2732  142.8369  159.5413 H   0  0  0  0  0  0  0  0  0  0  0  0
  149.1098  144.1033  159.2376 H   0  0  0  0  0  0  0  0  0  0  0  0
  149.5114  143.8277  156.8312 H   0  0  0  0  0  0  0  0  0  0  0  0
  148.5204  141.5053  155.5797 H   0  0  0  0  0  0  0  0  0  0  0  0
  149.9190  142.3920  155.0618 H   0  0  0  0  0  0  0  0  0  0  0  0
  152.0781  140.6978  156.2085 H   0  0  0  0  0  0  0  0  0  0  0  0
  153.1891  138.6951  155.4950 H   0  0  0  0  0  0  0  0  0  0  0  0
  1  2  1  0  0  0  0
  1 19  1  0  0  0  0
  1 20  1  0  0  0  0
  1 21  1  0  0  0  0
  2  4  1  0  0  0  0
  2  3  1  0  0  0  0
  2 22  1  0  0  0  0
  3  4  1  0  0  0  0
  3 23  1  0  0  0  0
  3 24  1  0  0  0  0
  4  5  1  0  0  0  0
  4 25  1  0  0  0  0
  5  6  1  0  0  0  0
  5 26  1  0  0  0  0
  5 27  1  0  0  0  0
  6  7  1  0  0  0  0
  6 28  1  0  0  0  0
  7  8  2  0  0  0  0
  7  9  1  0  0  0  0
  9 10  1  0  0  0  0
  9 29  1  0  0  0  0
  9 30  1  0  0  0  0
 10 16  1  0  0  0  0
 10 11  1  0  0  0  0
 11 12  2  0  0  0  0
 11 31  1  0  0  0  0
 12 13  1  0  0  0  0
 12 32  1  0  0  0  0
 13 14  2  0  0  0  0
 13 15  1  0  0  0  0
 15 18  1  0  0  0  0
 15 16  1  0  0  0  0
 16 17  2  0  0  0  0
M  END
> <s_m_source_file>
AV-unprocessed.smi

> <i_m_source_file_index>
2154

> <i_lp_mmshare_version>
43012

> <i_f3d_flags>
0

> <s_epik_input>
W0NIM11bQ0BASF0xW0NIMl1bQ0BIXTFbQ0gyXVtOSF1DKD1PKVtDSDJdbjJbY0hdW2NIXWMoPU8pW25IXWMyPU8=

> <s_epik_cmdline>
J2VwaWtfcHl0aG9uJywgJy1waCcsICc3LjAnLCAnLXRuJywgJzgnLCAnLW1hJywgJzIwMCcsICctbWV0YWxfYmluZGluZycsICctaW1hZScsICc8aW5maWxlLm1hZT4nLCAnLW9tYWUnLCAnPG91dGZpbGUubWFlPic=

> <r_lp_tautomer_probability>
0.999537

> <r_epik_Ionization_Penalty>
0.00305319

> <r_epik_Ionization_Penalty_Charging>
0.00305317

> <r_epik_Ionization_Penalty_Neutral>
2.06703e-08

> <r_epik_State_Penalty>
0.00214626

> <r_epik_Charging_Adjusted_Penalty>
0.00519944

> <i_epik_Tot_Q>
0

> <i_epik_Tot_abs_Q>
0

> <r_epik_Metal_State_Penalty>
0.361976

> <b_epik_Metal_Only>
0

> <s_lp_Force_Field>
OPLS_2005

> <r_lp_Energy>
15.5744

> <b_lp_Chiralities_Consistent>
1

> <s_lp_Variant>
AV-unprocessed.smi:2154-2

> <Gold.Version>
5.8.1

> <Gold.Id.Protein>
6NUR|6NUR_protein|mol2

> <Gold.PLP.Fitness>
44.5550

> <Gold.PLP.PLP>
-37.7091

> <Gold.PLP.part.hbond>
-2.7669

> <Gold.PLP.part.metal>
0.0000

> <Gold.PLP.part.buried>
-5.0621

> <Gold.PLP.part.nonpolar>
-34.6530

> <Gold.PLP.part.repulsive>
3.4034

> <Gold.PLP.ligand.clash>
0.0000

> <Gold.PLP.ligand.torsion>
1.0367

> <Gold.PLP.Chemscore.Hbond>
2.7963

> <Gold.PLP.Chemscore.CHOScore>
0.0000

> <Gold.PLP.Chemscore.Metal>
0.0000

> <Gold.Chemscore.Hbonds>
donor molecule, donor type, donor heavy atom, donor atom, acceptor molecule, acceptor atom, score
      L1  H     6    28       P1  8028  1.00
      L1  H    15    18       P1  7948  0.68
      P1  H 10752 10765       L1    14  0.98

> <Gold.PLP.Chemscore.Internal.Correction>
0.5306

> <Gold.Rescore>
     Score         DG    S(hbond)    S(metal)    S(lipo)     H(rot)  DE(clash)    DE(int)     intcor
     15.42     -19.58       2.87        0.00      82.44       2.01       1.90       2.25       ----

> <Gold.Chemscore.Fitness>
15.4212

> <Gold.Chemscore.DG>
-19.5756

> <Gold.Chemscore.ZeroCoef>
-5.4800

> <Gold.Chemscore.Hbond>
2.8704

> <Gold.Chemscore.Metal>
0.0000

> <Gold.Chemscore.Lipo>
82.4356

> <Gold.Chemscore.Internal_Hbond>
0.0000

> <Gold.Chemscore.DEClash>
1.9040

> <Gold.Chemscore.DEInternal>
2.2504

> <Gold.Chemscore.Rot>
2.0065

> <Gold.Chemscore.Internal.Correction>
   9.000000E+99

> <Gold.Chemscore.Hbonds>
donor molecule, donor type, donor heavy atom, donor atom, acceptor molecule, acceptor atom, score
      L1  H     6    28       P1  8028  0.91
      L1  H    15    18       P1  7948  0.54
      P1  H 10752 10765       L1    14  0.92

> <Gold.Chemscore.Hbond.Weighted>
-9.5872

> <Gold.Chemscore.Metal.Weighted>
-0.0000

> <Gold.Chemscore.Lipo.Weighted>
-9.6450

> <Gold.Chemscore.Internal_Hbond.Weighted>
0.0000

> <Gold.Chemscore.DEClash.Weighted>
1.9040

> <Gold.Chemscore.DEInternal.Weighted>
2.2504

> <Gold.Chemscore.Rot.Weighted>
5.1366

> <Gold.Chemscore.Internal.Correction.Weighted>
   9.000000E+99

> <Gold.Protein.RotatedTorsions>
[ 6907 6896 6895 6894 ] final  -29.39 input  -60.11 | X-H torsion
[ 7974 7965 7964 7962 ] final  -32.90 input  175.53 | X-H torsion
[ 8008 7997 7996 7995 ] final  -11.36 input   59.86 | X-H torsion
[ 10167 10162 10161 10158 ] final   13.11 input  -65.29 | X-H torsion
[ 10718 10713 10712 10709 ] final   35.61 input   66.30 | X-H torsion
[ 10763 10752 10751 10750 ] final  134.25 input  -60.55 | X-H torsion
[ 11005 11000 10999 10996 ] final  175.16 input  -57.11 | X-H torsion

> <Gold.Protein.ActiveResidues>
 VAL166  LYS551  ARG553  GLY616  TRP617  ASP618  TYR619  PRO620  LYS621  CYS622 
 ASP623  PHE694  ASN695  SER759  ASP760  ASP761  ALA762  ILE779  LEU786  VAL792 
 PHE793  MET794  SER795  GLU796  ALA797  LYS798  CYS799  TRP800  GLU811  SER814 

> <Gold.Protein.RotatedAtoms>
  151.1198  135.0073  159.8532 H   0  0  0  0  0  0  0  0  0  0  0  0  # atno 6907 bound_to 6896
  152.5447  134.1736  159.8617 H   0  0  0  0  0  0  0  0  0  0  0  0  # atno 6908 bound_to 6896
  151.1793  133.4690  159.2627 H   0  0  0  0  0  0  0  0  0  0  0  0  # atno 6909 bound_to 6896
  146.0953  140.5849  142.8845 H   0  0  0  0  0  0  0  0  0  0  0  0  # atno 7974 bound_to 7965
  154.5471  140.2304  155.8545 H   0  0  0  0  0  0  0  0  0  0  0  0  # atno 8008 bound_to 7997
  156.1913  140.3076  155.9299 H   0  0  0  0  0  0  0  0  0  0  0  0  # atno 8009 bound_to 7997
  155.3143  140.0437  157.3027 H   0  0  0  0  0  0  0  0  0  0  0  0  # atno 8010 bound_to 7997
  140.6024  143.8577  150.6979 H   0  0  0  0  0  0  0  0  0  0  0  0  # atno 10167 bound_to 10162
  157.3247  130.7466  149.6808 H   0  0  0  0  0  0  0  0  0  0  0  0  # atno 10718 bound_to 10713
  153.8204  135.3117  155.3409 H   0  0  0  0  0  0  0  0  0  0  0  0  # atno 10763 bound_to 10752
  154.8015  135.4724  154.0290 H   0  0  0  0  0  0  0  0  0  0  0  0  # atno 10764 bound_to 10752
  153.1697  135.6875  153.8715 H   0  0  0  0  0  0  0  0  0  0  0  0  # atno 10765 bound_to 10752
  140.3592  134.7127  157.4320 H   0  0  0  0  0  0  0  0  0  0  0  0  # atno 11005 bound_to 11000
  144.7391  140.4892  143.6882 LP  0  0  0  0  0  0  0  0  0  0  0  0  # atno 17320 bound_to 7965
  145.5959  139.1499  143.3156 LP  0  0  0  0  0  0  0  0  0  0  0  0  # atno 17321 bound_to 7965
  140.2126  143.3871  152.1706 LP  0  0  0  0  0  0  0  0  0  0  0  0  # atno 17342 bound_to 10162
  139.5301  144.7148  151.5088 LP  0  0  0  0  0  0  0  0  0  0  0  0  # atno 17343 bound_to 10162
  155.9689  130.4213  150.4461 LP  0  0  0  0  0  0  0  0  0  0  0  0  # atno 17370 bound_to 10713
  157.2483  131.0540  151.2395 LP  0  0  0  0  0  0  0  0  0  0  0  0  # atno 17371 bound_to 10713
  140.0640  134.5955  155.8716 LP  0  0  0  0  0  0  0  0  0  0  0  0  # atno 17394 bound_to 11000
  141.1989  133.6604  156.5816 LP  0  0  0  0  0  0  0  0  0  0  0  0  # atno 17395 bound_to 11000

$$$$
