AV-unprocessed.smi:40|AV-procd|sdf|367|dock4
  -GOLD-   2262016203D 1   1.00000     0.00000
 Structure written by MMmdl.
 47 48  0  0  0  0  0  0  0  0  1 V2000
  151.3900  144.6860  160.0003 C   0  0  0  0  0  0  0  0  0  0  0  0
  152.5452  143.9198  159.3468 C   0  0  0  0  0  0  0  0  0  0  0  0
  152.2206  143.4774  157.9129 C   0  0  0  0  0  0  0  0  0  0  0  0
  151.4101  142.1755  157.8662 C   0  0  0  0  0  0  0  0  0  0  0  0
  151.0905  141.7414  156.4280 C   0  0  0  0  0  0  0  0  0  0  0  0
  149.9061  140.9580  156.3978 O   0  0  0  0  0  0  0  0  0  0  0  0
  149.5593  140.2597  155.2956 C   0  0  0  0  0  0  0  0  0  0  0  0
  150.3265  140.0158  154.3647 O   0  0  0  0  0  0  0  0  0  0  0  0
  148.1798  139.8044  155.3601 N   0  0  0  0  0  0  0  0  0  0  0  0
  147.4706  139.0820  154.4578 C   0  0  0  0  0  0  0  0  0  0  0  0
  147.6453  139.1992  153.1513 N   0  0  0  0  0  0  0  0  0  0  0  0
  146.9585  138.4720  152.2175 C   0  0  0  0  0  0  0  0  0  0  0  0
  147.1350  138.6738  151.0175 O   0  0  0  0  0  0  0  0  0  0  0  0
  146.0414  137.5000  152.6860 N   0  0  0  0  0  0  0  0  0  0  0  0
  145.2440  136.7076  151.6613 C   0  0  2  0  0  0  0  0  0  0  0  0
  144.6369  135.6137  152.2914 O   0  0  0  0  0  0  0  0  0  0  0  0
  145.2607  134.3827  151.9289 C   0  0  2  0  0  0  0  0  0  0  0  0
  146.3625  133.9976  152.9294 C   0  0  0  0  0  0  0  0  0  0  0  0
  145.7967  134.6451  150.5234 C   0  0  1  0  0  0  0  0  0  0  0  0
  144.7826  134.3192  149.5878 O   0  0  0  0  0  0  0  0  0  0  0  0
  146.1466  136.1330  150.5432 C   0  0  1  0  0  0  0  0  0  0  0  0
  145.9315  136.7333  149.2788 O   0  0  0  0  0  0  0  0  0  0  0  0
  145.8279  137.3795  154.0543 C   0  0  0  0  0  0  0  0  0  0  0  0
  146.5127  138.1184  154.9540 C   0  0  0  0  0  0  0  0  0  0  0  0
  146.3005  137.9639  156.2726 F   0  0  0  0  0  0  0  0  0  0  0  0
  144.4774  137.3990  151.3073 H   0  0  0  0  0  0  0  0  0  0  0  0
  144.5128  133.5884  151.9301 H   0  0  0  0  0  0  0  0  0  0  0  0
  146.6675  134.0299  150.2930 H   0  0  0  0  0  0  0  0  0  0  0  0
  147.1936  136.2481  150.8278 H   0  0  0  0  0  0  0  0  0  0  0  0
  151.6521  144.9958  161.0122 H   0  0  0  0  0  0  0  0  0  0  0  0
  150.4934  144.0687  160.0623 H   0  0  0  0  0  0  0  0  0  0  0  0
  151.1421  145.5826  159.4316 H   0  0  0  0  0  0  0  0  0  0  0  0
  153.4356  144.5497  159.3427 H   0  0  0  0  0  0  0  0  0  0  0  0
  152.7874  143.0471  159.9545 H   0  0  0  0  0  0  0  0  0  0  0  0
  151.6660  144.2672  157.4047 H   0  0  0  0  0  0  0  0  0  0  0  0
  153.1493  143.3441  157.3565 H   0  0  0  0  0  0  0  0  0  0  0  0
  151.9674  141.3816  158.3652 H   0  0  0  0  0  0  0  0  0  0  0  0
  150.4832  142.3029  158.4268 H   0  0  0  0  0  0  0  0  0  0  0  0
  151.0103  142.6056  155.7670 H   0  0  0  0  0  0  0  0  0  0  0  0
  151.9061  141.1297  156.0421 H   0  0  0  0  0  0  0  0  0  0  0  0
  147.6929  140.0881  156.1980 H   0  0  0  0  0  0  0  0  0  0  0  0
  146.8204  133.0477  152.6532 H   0  0  0  0  0  0  0  0  0  0  0  0
  145.9542  133.8849  153.9339 H   0  0  0  0  0  0  0  0  0  0  0  0
  147.1555  134.7444  152.9698 H   0  0  0  0  0  0  0  0  0  0  0  0
  145.0500  134.6346  148.7377 H   0  0  0  0  0  0  0  0  0  0  0  0
  145.1318  137.2353  149.3203 H   0  0  0  0  0  0  0  0  0  0  0  0
  145.1019  136.6846  154.4465 H   0  0  0  0  0  0  0  0  0  0  0  0
  1  2  1  0  0  0  0
  1 30  1  0  0  0  0
  1 31  1  0  0  0  0
  1 32  1  0  0  0  0
  2  3  1  0  0  0  0
  2 33  1  0  0  0  0
  2 34  1  0  0  0  0
  3  4  1  0  0  0  0
  3 35  1  0  0  0  0
  3 36  1  0  0  0  0
  4  5  1  0  0  0  0
  4 37  1  0  0  0  0
  4 38  1  0  0  0  0
  5  6  1  0  0  0  0
  5 39  1  0  0  0  0
  5 40  1  0  0  0  0
  6  7  1  0  0  0  0
  7  8  2  0  0  0  0
  7  9  1  0  0  0  0
  9 10  1  0  0  0  0
  9 41  1  0  0  0  0
 10 24  1  0  0  0  0
 10 11  2  0  0  0  0
 11 12  1  0  0  0  0
 12 13  2  0  0  0  0
 12 14  1  0  0  0  0
 14 15  1  0  0  0  0
 14 23  1  0  0  0  0
 15 26  1  0  0  0  0
 15 21  1  0  0  0  0
 15 16  1  0  0  0  0
 16 17  1  0  0  0  0
 17 27  1  0  0  0  0
 17 18  1  0  0  0  0
 17 19  1  0  0  0  0
 18 42  1  0  0  0  0
 18 43  1  0  0  0  0
 18 44  1  0  0  0  0
 19 28  1  0  0  0  0
 19 20  1  0  0  0  0
 19 21  1  0  0  0  0
 20 45  1  0  0  0  0
 21 29  1  0  0  0  0
 21 22  1  0  0  0  0
 22 46  1  0  0  0  0
 23 24  2  0  0  0  0
 23 47  1  0  0  0  0
 24 25  1  0  0  0  0
M  END
> <s_m_source_file>
AV-unprocessed.smi

> <i_m_source_file_index>
40

> <i_lp_mmshare_version>
43012

> <i_f3d_flags>
0

> <s_epik_input>
W0NIM11bQ0gyXVtDSDJdW0NIMl1bQ0gyXU9DKD1PKVtOSF1jMW5jKD1PKW4oW2NIXWMxRilbQ0BASF0yT1tDQEhdKFtDSDNdKVtDQEBIXShbT0hdKVtDQEhdMltPSF0=

> <s_epik_cmdline>
J2VwaWtfcHl0aG9uJywgJy1waCcsICc3LjAnLCAnLXRuJywgJzgnLCAnLW1hJywgJzIwMCcsICctbWV0YWxfYmluZGluZycsICctaW1hZScsICc8aW5maWxlLm1hZT4nLCAnLW9tYWUnLCAnPG91dGZpbGUubWFlPic=

> <r_lp_tautomer_probability>
1

> <r_epik_Ionization_Penalty>
2.29506e-06

> <r_epik_Ionization_Penalty_Charging>
8.26867e-09

> <r_epik_Ionization_Penalty_Neutral>
2.2868e-06

> <r_epik_State_Penalty>
-0

> <r_epik_Charging_Adjusted_Penalty>
8.26867e-09

> <i_epik_Tot_Q>
0

> <i_epik_Tot_abs_Q>
0

> <r_epik_Metal_State_Penalty>
-0

> <b_epik_Metal_Only>
0

> <s_epik_Chemistry_Notes>
This compound has an ester and may undergo hydrolysis at high or low pH. This compound contains an acetal/aminal-like group ( X-CH(R)-Y where X, Y are N, S, or O) that may be acid/base labile, releasing an aldehyde.

> <s_lp_Force_Field>
OPLS_2005

> <r_lp_Energy>
38.6642

> <b_lp_Chiralities_Consistent>
1

> <s_lp_Variant>
AV-unprocessed.smi:40-1

> <Gold.Version>
5.8.1

> <Gold.Id.Protein>
6NUR|6NUR_protein|mol2

> <Gold.PLP.Fitness>
49.8829

> <Gold.PLP.PLP>
-40.3357

> <Gold.PLP.part.hbond>
-5.0000

> <Gold.PLP.part.metal>
0.0000

> <Gold.PLP.part.buried>
-6.2784

> <Gold.PLP.part.nonpolar>
-31.5905

> <Gold.PLP.part.repulsive>
1.5122

> <Gold.PLP.ligand.clash>
0.0000

> <Gold.PLP.ligand.torsion>
1.1078

> <Gold.PLP.Chemscore.Hbond>
3.8880

> <Gold.PLP.Chemscore.CHOScore>
0.0000

> <Gold.PLP.Chemscore.Metal>
0.0000

> <Gold.Chemscore.Hbonds>
donor molecule, donor type, donor heavy atom, donor atom, acceptor molecule, acceptor atom, score
      L1  H    20    45       P1  7921  1.00
      L1  H    22    46       P1 10171  1.00
      P1  H  7954  7966       L1    13  0.94
      P1  H  7989  7998       L1     8  1.00

> <Gold.PLP.Chemscore.Internal.Correction>
0.0987

> <Gold.Rescore>
     Score         DG    S(hbond)    S(metal)    S(lipo)     H(rot)  DE(clash)    DE(int)     intcor
     13.01     -16.90       3.70        0.00      72.86       3.70       1.60       2.29       ----

> <Gold.Chemscore.Fitness>
13.0138

> <Gold.Chemscore.DG>
-16.9040

> <Gold.Chemscore.ZeroCoef>
-5.4800

> <Gold.Chemscore.Hbond>
3.7008

> <Gold.Chemscore.Metal>
0.0000

> <Gold.Chemscore.Lipo>
72.8577

> <Gold.Chemscore.Internal_Hbond>
0.0000

> <Gold.Chemscore.DEClash>
1.6026

> <Gold.Chemscore.DEInternal>
2.2877

> <Gold.Chemscore.Rot>
3.6957

> <Gold.Chemscore.Internal.Correction>
   9.000000E+99

> <Gold.Chemscore.Hbonds>
donor molecule, donor type, donor heavy atom, donor atom, acceptor molecule, acceptor atom, score
      L1  H    20    45       P1  7921  0.91
      L1  H    22    46       P1 10171  1.00
      P1  H  7954  7966       L1    13  0.91
      P1  H  7989  7998       L1     8  0.99

> <Gold.Chemscore.Hbond.Weighted>
-12.3607

> <Gold.Chemscore.Metal.Weighted>
-0.0000

> <Gold.Chemscore.Lipo.Weighted>
-8.5243

> <Gold.Chemscore.Internal_Hbond.Weighted>
0.0000

> <Gold.Chemscore.DEClash.Weighted>
1.6026

> <Gold.Chemscore.DEInternal.Weighted>
2.2877

> <Gold.Chemscore.Rot.Weighted>
9.4610

> <Gold.Chemscore.Internal.Correction.Weighted>
   9.000000E+99

> <Gold.Protein.RotatedTorsions>
[ 6907 6896 6895 6894 ] final -161.64 input  -60.11 | X-H torsion
[ 7974 7965 7964 7962 ] final -167.58 input  175.53 | X-H torsion
[ 8008 7997 7996 7995 ] final -130.11 input   59.86 | X-H torsion
[ 10167 10162 10161 10158 ] final -132.63 input  -65.29 | X-H torsion
[ 10718 10713 10712 10709 ] final  138.11 input   66.30 | X-H torsion
[ 10763 10752 10751 10750 ] final -162.40 input  -60.55 | X-H torsion
[ 11005 11000 10999 10996 ] final   39.63 input  -57.11 | X-H torsion

> <Gold.Protein.ActiveResidues>
 VAL166  LYS551  ARG553  GLY616  TRP617  ASP618  TYR619  PRO620  LYS621  CYS622 
 ASP623  PHE694  ASN695  SER759  ASP760  ASP761  ALA762  ILE779  LEU786  VAL792 
 PHE793  MET794  SER795  GLU796  ALA797  LYS798  CYS799  TRP800  GLU811  SER814 

> <Gold.Protein.RotatedAtoms>
  151.3679  133.3865  159.2696 H   0  0  0  0  0  0  0  0  0  0  0  0  # atno 6907 bound_to 6896
  150.9674  134.9054  159.7778 H   0  0  0  0  0  0  0  0  0  0  0  0  # atno 6908 bound_to 6896
  152.5172  134.3639  159.9347 H   0  0  0  0  0  0  0  0  0  0  0  0  # atno 6909 bound_to 6896
  144.7220  140.2498  143.6280 H   0  0  0  0  0  0  0  0  0  0  0  0  # atno 7974 bound_to 7965
  155.2904  140.0448  157.3022 H   0  0  0  0  0  0  0  0  0  0  0  0  # atno 8008 bound_to 7997
  154.5545  140.2327  155.8400 H   0  0  0  0  0  0  0  0  0  0  0  0  # atno 8009 bound_to 7997
  156.1995  140.3029  155.9504 H   0  0  0  0  0  0  0  0  0  0  0  0  # atno 8010 bound_to 7997
  139.9065  143.6544  152.2584 H   0  0  0  0  0  0  0  0  0  0  0  0  # atno 10167 bound_to 10162
  157.4288  131.1046  151.0273 H   0  0  0  0  0  0  0  0  0  0  0  0  # atno 10718 bound_to 10713
  154.7217  135.3027  154.9036 H   0  0  0  0  0  0  0  0  0  0  0  0  # atno 10763 bound_to 10752
  153.9906  135.6719  153.4758 H   0  0  0  0  0  0  0  0  0  0  0  0  # atno 10764 bound_to 10752
  153.0840  135.4994  154.8477 H   0  0  0  0  0  0  0  0  0  0  0  0  # atno 10765 bound_to 10752
  140.2010  134.3871  155.8096 H   0  0  0  0  0  0  0  0  0  0  0  0  # atno 11005 bound_to 11000
  145.8239  139.2056  143.1922 LP  0  0  0  0  0  0  0  0  0  0  0  0  # atno 17320 bound_to 7965
  146.0490  140.8089  142.9791 LP  0  0  0  0  0  0  0  0  0  0  0  0  # atno 17321 bound_to 7965
  139.6979  144.7639  151.1324 LP  0  0  0  0  0  0  0  0  0  0  0  0  # atno 17342 bound_to 10162
  140.7695  143.5498  150.9217 LP  0  0  0  0  0  0  0  0  0  0  0  0  # atno 17343 bound_to 10162
  157.1177  130.6048  149.5497 LP  0  0  0  0  0  0  0  0  0  0  0  0  # atno 17370 bound_to 10713
  155.9906  130.4957  150.7263 LP  0  0  0  0  0  0  0  0  0  0  0  0  # atno 17371 bound_to 10713
  141.2227  133.7094  156.8257 LP  0  0  0  0  0  0  0  0  0  0  0  0  # atno 17394 bound_to 11000
  140.2055  134.8866  157.3216 LP  0  0  0  0  0  0  0  0  0  0  0  0  # atno 17395 bound_to 11000

$$$$
