AV-unprocessed.smi:2468|AV-procd|sdf|9729|dock8
  -GOLD-   2272013373D 1   1.00000     0.00000
 Structure written by MMmdl.
 32 33  0  0  0  0  0  0  0  0  1 V2000
  152.8399  143.5212  162.2497 C   0  0  0  0  0  0  0  0  0  0  0  0
  152.3030  143.5314  160.8308 C   0  0  0  0  0  0  0  0  0  0  0  0
  151.8119  144.7141  160.4001 N   0  0  0  0  0  0  0  0  0  0  0  0
  151.3139  144.7763  159.1484 C   0  0  0  0  0  0  0  0  0  0  0  0
  151.2859  143.6764  158.2700 C   0  0  0  0  0  0  0  0  0  0  0  0
  151.8151  142.4400  158.7119 C   0  0  0  0  0  0  0  0  0  0  0  0
  151.8164  141.2613  157.9160 N   0  0  0  0  0  0  0  0  0  0  0  0
  151.3418  141.0811  156.6694 C   0  0  0  0  0  0  0  0  0  0  0  0
  150.8057  141.9608  155.9954 O   0  0  0  0  0  0  0  0  0  0  0  0
  151.5124  139.6657  156.0967 C   0  0  2  0  0  0  0  0  0  0  0  0
  152.9015  139.3549  155.9824 O   0  0  0  0  0  0  0  0  0  0  0  0
  153.1509  138.6267  154.7834 C   0  0  0  0  0  0  0  0  0  0  0  0
  151.7806  138.2838  154.2079 C   0  0  0  0  0  0  0  0  0  0  0  0
  150.9328  139.4434  154.6904 C   0  0  1  0  0  0  0  0  0  0  0  0
  149.4227  139.1593  154.6522 C   0  0  0  0  0  0  0  0  0  0  0  0
  152.3233  142.3652  160.0300 C   0  0  0  0  0  0  0  0  0  0  0  0
  152.9636  140.8796  160.6493 Cl  0  0  0  0  0  0  0  0  0  0  0  0
  153.8949  143.2460  162.2537 H   0  0  0  0  0  0  0  0  0  0  0  0
  152.2924  142.8002  162.8572 H   0  0  0  0  0  0  0  0  0  0  0  0
  152.7450  144.5000  162.7218 H   0  0  0  0  0  0  0  0  0  0  0  0
  150.9175  145.7319  158.8387 H   0  0  0  0  0  0  0  0  0  0  0  0
  150.8509  143.7988  157.2902 H   0  0  0  0  0  0  0  0  0  0  0  0
  152.3115  140.4747  158.3116 H   0  0  0  0  0  0  0  0  0  0  0  0
  151.0727  138.9510  156.7942 H   0  0  0  0  0  0  0  0  0  0  0  0
  153.7012  139.2716  154.0974 H   0  0  0  0  0  0  0  0  0  0  0  0
  153.7561  137.7401  154.9730 H   0  0  0  0  0  0  0  0  0  0  0  0
  151.7904  138.1814  153.1223 H   0  0  0  0  0  0  0  0  0  0  0  0
  151.4219  137.3462  154.6357 H   0  0  0  0  0  0  0  0  0  0  0  0
  151.1484  140.3107  154.0632 H   0  0  0  0  0  0  0  0  0  0  0  0
  149.1639  138.2999  155.2712 H   0  0  0  0  0  0  0  0  0  0  0  0
  149.0929  138.9474  153.6348 H   0  0  0  0  0  0  0  0  0  0  0  0
  148.8480  140.0124  155.0122 H   0  0  0  0  0  0  0  0  0  0  0  0
  1  2  1  0  0  0  0
  1 18  1  0  0  0  0
  1 19  1  0  0  0  0
  1 20  1  0  0  0  0
  2 16  1  0  0  0  0
  2  3  2  0  0  0  0
  3  4  1  0  0  0  0
  4  5  2  0  0  0  0
  4 21  1  0  0  0  0
  5  6  1  0  0  0  0
  5 22  1  0  0  0  0
  6  7  1  0  0  0  0
  6 16  2  0  0  0  0
  7  8  1  0  0  0  0
  7 23  1  0  0  0  0
  8  9  2  0  0  0  0
  8 10  1  0  0  0  0
 10 14  1  0  0  0  0
 10 11  1  0  0  0  0
 10 24  1  0  0  0  0
 11 12  1  0  0  0  0
 12 13  1  0  0  0  0
 12 25  1  0  0  0  0
 12 26  1  0  0  0  0
 13 14  1  0  0  0  0
 13 27  1  0  0  0  0
 13 28  1  0  0  0  0
 14 15  1  0  0  0  0
 14 29  1  0  0  0  0
 15 30  1  0  0  0  0
 15 31  1  0  0  0  0
 15 32  1  0  0  0  0
 16 17  1  0  0  0  0
M  END
> <s_m_source_file>
AV-unprocessed.smi

> <i_m_source_file_index>
2468

> <i_lp_mmshare_version>
43012

> <i_f3d_flags>
0

> <s_epik_input>
W0NIM11jMW5bY0hdW2NIXWMoYzFDbClbTkhdQyg9TylbQ0BASF0yT1tDSDJdW0NIMl1bQ0BIXTJbQ0gzXQ==

> <s_epik_cmdline>
J2VwaWtfcHl0aG9uJywgJy1waCcsICc3LjAnLCAnLXRuJywgJzgnLCAnLW1hJywgJzIwMCcsICctbWV0YWxfYmluZGluZycsICctaW1hZScsICc8aW5maWxlLm1hZT4nLCAnLW9tYWUnLCAnPG91dGZpbGUubWFlPic=

> <r_epik_Ionization_Penalty>
0.000361027

> <r_epik_Ionization_Penalty_Charging>
0

> <r_epik_Ionization_Penalty_Neutral>
0.000361027

> <r_epik_State_Penalty>
0.000217849

> <r_epik_Charging_Adjusted_Penalty>
0.000217849

> <i_epik_Tot_Q>
0

> <i_epik_Tot_abs_Q>
0

> <r_epik_Metal_State_Penalty>
-0

> <b_epik_Metal_Only>
0

> <s_lp_Force_Field>
OPLS_2005

> <r_lp_Energy>
24.8892

> <b_lp_Chiralities_Consistent>
1

> <s_lp_Variant>
AV-unprocessed.smi:2468-1

> <Gold.Version>
5.8.1

> <Gold.Id.Protein>
6NUR|6NUR_protein|mol2

> <Gold.PLP.Fitness>
41.8745

> <Gold.PLP.PLP>
-38.9036

> <Gold.PLP.part.hbond>
-1.0000

> <Gold.PLP.part.metal>
0.0000

> <Gold.PLP.part.buried>
-5.1349

> <Gold.PLP.part.nonpolar>
-32.4053

> <Gold.PLP.part.repulsive>
0.2845

> <Gold.PLP.ligand.clash>
0.0000

> <Gold.PLP.ligand.torsion>
0.0158

> <Gold.PLP.Chemscore.Hbond>
1.0000

> <Gold.PLP.Chemscore.CHOScore>
0.0000

> <Gold.PLP.Chemscore.Metal>
0.0000

> <Gold.Chemscore.Hbonds>
donor molecule, donor type, donor heavy atom, donor atom, acceptor molecule, acceptor atom, score
      P1  H  7997  8008       L1    11  1.00

> <Gold.PLP.Chemscore.Internal.Correction>
0.0025

> <Gold.Rescore>
     Score         DG    S(hbond)    S(metal)    S(lipo)     H(rot)  DE(clash)    DE(int)     intcor
     17.83     -19.53       0.96        0.00     114.47       1.00       0.26       1.43       ----

> <Gold.Chemscore.Fitness>
17.8345

> <Gold.Chemscore.DG>
-19.5255

> <Gold.Chemscore.ZeroCoef>
-5.4800

> <Gold.Chemscore.Hbond>
0.9617

> <Gold.Chemscore.Metal>
0.0000

> <Gold.Chemscore.Lipo>
114.4733

> <Gold.Chemscore.Internal_Hbond>
0.0000

> <Gold.Chemscore.DEClash>
0.2597

> <Gold.Chemscore.DEInternal>
1.4312

> <Gold.Chemscore.Rot>
1.0000

> <Gold.Chemscore.Internal.Correction>
   9.000000E+99

> <Gold.Chemscore.Hbonds>
donor molecule, donor type, donor heavy atom, donor atom, acceptor molecule, acceptor atom, score
      P1  H  7997  8008       L1    11  0.26

> <Gold.Chemscore.Hbond.Weighted>
-3.2121

> <Gold.Chemscore.Metal.Weighted>
-0.0000

> <Gold.Chemscore.Lipo.Weighted>
-13.3934

> <Gold.Chemscore.Internal_Hbond.Weighted>
0.0000

> <Gold.Chemscore.DEClash.Weighted>
0.2597

> <Gold.Chemscore.DEInternal.Weighted>
1.4312

> <Gold.Chemscore.Rot.Weighted>
2.5600

> <Gold.Chemscore.Internal.Correction.Weighted>
   9.000000E+99

> <Gold.Protein.RotatedTorsions>
[ 6907 6896 6895 6894 ] final   20.98 input  -60.11 | X-H torsion
[ 7974 7965 7964 7962 ] final  -44.38 input  175.53 | X-H torsion
[ 8008 7997 7996 7995 ] final  -32.06 input   59.86 | X-H torsion
[ 10167 10162 10161 10158 ] final   42.08 input  -65.29 | X-H torsion
[ 10718 10713 10712 10709 ] final  -79.65 input   66.30 | X-H torsion
[ 10763 10752 10751 10750 ] final  -25.04 input  -60.55 | X-H torsion
[ 11005 11000 10999 10996 ] final   -8.02 input  -57.11 | X-H torsion

> <Gold.Protein.ActiveResidues>
 VAL166  LYS551  ARG553  GLY616  TRP617  ASP618  TYR619  PRO620  LYS621  CYS622 
 ASP623  PHE694  ASN695  SER759  ASP760  ASP761  ALA762  ILE779  LEU786  VAL792 
 PHE793  MET794  SER795  GLU796  ALA797  LYS798  CYS799  TRP800  GLU811  SER814 

> <Gold.Protein.RotatedAtoms>
  151.9047  135.0364  160.0509 H   0  0  0  0  0  0  0  0  0  0  0  0  # atno 6907 bound_to 6896
  152.2329  133.5068  159.5234 H   0  0  0  0  0  0  0  0  0  0  0  0  # atno 6908 bound_to 6896
  150.7031  134.1108  159.4042 H   0  0  0  0  0  0  0  0  0  0  0  0  # atno 6909 bound_to 6896
  145.9926  140.7164  142.9309 H   0  0  0  0  0  0  0  0  0  0  0  0  # atno 7974 bound_to 7965
  154.4192  140.1747  156.1667 H   0  0  0  0  0  0  0  0  0  0  0  0  # atno 8008 bound_to 7997
  155.9794  140.3379  155.6624 H   0  0  0  0  0  0  0  0  0  0  0  0  # atno 8009 bound_to 7997
  155.6520  140.0691  157.2574 H   0  0  0  0  0  0  0  0  0  0  0  0  # atno 8010 bound_to 7997
  140.3579  144.2266  150.6140 H   0  0  0  0  0  0  0  0  0  0  0  0  # atno 10167 bound_to 10162
  156.0088  130.4551  150.3680 H   0  0  0  0  0  0  0  0  0  0  0  0  # atno 10718 bound_to 10713
  153.6935  135.6960  153.5083 H   0  0  0  0  0  0  0  0  0  0  0  0  # atno 10763 bound_to 10752
  153.2395  135.4310  155.0682 H   0  0  0  0  0  0  0  0  0  0  0  0  # atno 10764 bound_to 10752
  154.8365  135.3504  154.6476 H   0  0  0  0  0  0  0  0  0  0  0  0  # atno 10765 bound_to 10752
  140.7190  133.8844  155.8806 H   0  0  0  0  0  0  0  0  0  0  0  0  # atno 11005 bound_to 11000
  144.6893  140.3096  143.7250 LP  0  0  0  0  0  0  0  0  0  0  0  0  # atno 17320 bound_to 7965
  145.7607  139.1824  143.2268 LP  0  0  0  0  0  0  0  0  0  0  0  0  # atno 17321 bound_to 7965
  140.5155  143.2279  151.8469 LP  0  0  0  0  0  0  0  0  0  0  0  0  # atno 17342 bound_to 10162
  139.4818  144.4899  151.9199 LP  0  0  0  0  0  0  0  0  0  0  0  0  # atno 17343 bound_to 10162
  157.1766  131.0382  151.2769 LP  0  0  0  0  0  0  0  0  0  0  0  0  # atno 17370 bound_to 10713
  157.4182  130.7423  149.6892 LP  0  0  0  0  0  0  0  0  0  0  0  0  # atno 17371 bound_to 10713
  141.0020  134.1138  157.4308 LP  0  0  0  0  0  0  0  0  0  0  0  0  # atno 17394 bound_to 11000
  139.8853  135.0071  156.6424 LP  0  0  0  0  0  0  0  0  0  0  0  0  # atno 17395 bound_to 11000

$$$$
