AV-unprocessed.smi:21|AV-procd|sdf|138|dock7
  -GOLD-   2262015333D 1   1.00000     0.00000
 Structure written by MMmdl.
 62 65  0  0  0  0  0  0  0  0  2 V2000
  146.3744  132.7118  151.1349 C   0  0  0  0  0  0  0  0  0  0  0  0
  145.0607  132.4799  151.6188 O   0  0  0  0  0  0  0  0  0  0  0  0
  144.0699  133.2912  151.0009 C   0  0  2  0  0  0  0  0  0  0  0  0
  144.3635  134.7524  151.3148 C   0  0  0  0  0  0  0  0  0  0  0  0
  143.7868  134.9596  152.7221 C   0  0  1  0  0  0  0  0  0  0  0  0
  143.4320  136.4327  153.0452 C   0  0  0  0  0  0  0  0  0  0  0  0
  143.5071  136.7278  154.4773 N   0  0  0  0  0  0  0  0  0  0  0  0
  142.8682  135.8086  155.4104 C   0  0  0  0  0  0  0  0  0  0  0  0
  144.4548  137.5929  154.9312 C   0  0  0  0  0  0  0  0  0  0  0  0
  144.3183  138.0842  156.1910 N   0  0  0  0  0  0  0  0  0  0  0  0
  145.2163  138.9363  156.6923 C   0  0  0  0  0  0  0  0  0  0  0  0
  146.3098  139.4302  156.1119 N   0  0  0  0  0  0  0  0  0  0  0  0
  146.4538  138.9521  154.8436 C   0  0  0  0  0  0  0  0  0  0  0  0
  145.5846  138.0378  154.1796 C   0  0  0  0  0  0  0  0  0  0  0  0
  146.0574  137.8026  152.8922 N   0  0  0  0  0  0  0  0  0  0  0  0
  147.1441  138.5191  152.8068 C   0  0  0  0  0  0  0  0  0  0  0  0
  147.4578  139.2388  153.9354 N   0  0  0  0  0  0  0  0  0  0  0  0
  148.6024  140.1148  154.1110 C   0  0  0  0  0  0  0  0  0  0  0  0
  149.2975  139.9707  155.4906 C   0  0  2  0  0  0  0  0  0  0  0  0
  148.9365  141.1283  156.4566 C   0  0  0  0  0  0  0  0  0  0  0  0
  149.7047  142.2866  156.2022 O   0  0  0  0  0  0  0  0  0  0  0  0
  150.8342  139.8563  155.3141 C   0  0  2  0  0  0  0  0  0  0  0  0
  151.3061  138.6298  154.5496 C   0  0  0  0  0  0  0  0  0  0  0  0
  152.7725  138.5492  154.9516 C   0  0  0  0  0  0  0  0  0  0  0  0
  152.8016  138.9575  156.3122 O   0  0  0  0  0  0  0  0  0  0  0  0
  151.6221  139.6943  156.6227 C   0  0  0  0  0  0  0  0  0  0  0  0
  142.6699  133.9775  152.8460 N   0  3  1  0  0  0  0  0  0  0  0  0
  141.3166  134.5032  153.1433 C   0  0  0  0  0  0  0  0  0  0  0  0
  142.7019  133.0896  151.6601 C   0  0  0  0  0  0  0  0  0  0  0  0
  144.0462  133.1206  149.9230 H   0  0  0  0  0  0  0  0  0  0  0  0
  144.5359  134.6232  153.4403 H   0  0  0  0  0  0  0  0  0  0  0  0
  147.0733  132.0535  151.6506 H   0  0  0  0  0  0  0  0  0  0  0  0
  146.6861  133.7402  151.3214 H   0  0  0  0  0  0  0  0  0  0  0  0
  146.4555  132.5117  150.0665 H   0  0  0  0  0  0  0  0  0  0  0  0
  145.4252  134.9937  151.2502 H   0  0  0  0  0  0  0  0  0  0  0  0
  143.8361  135.3859  150.6001 H   0  0  0  0  0  0  0  0  0  0  0  0
  144.0573  137.1127  152.4668 H   0  0  0  0  0  0  0  0  0  0  0  0
  142.4072  136.6386  152.7356 H   0  0  0  0  0  0  0  0  0  0  0  0
  142.6051  136.3158  156.3393 H   0  0  0  0  0  0  0  0  0  0  0  0
  143.5270  134.9711  155.6410 H   0  0  0  0  0  0  0  0  0  0  0  0
  141.9495  135.4059  154.9834 H   0  0  0  0  0  0  0  0  0  0  0  0
  145.0324  139.2694  157.7032 H   0  0  0  0  0  0  0  0  0  0  0  0
  147.7526  138.5414  151.9144 H   0  0  0  0  0  0  0  0  0  0  0  0
  149.3005  139.8933  153.3041 H   0  0  0  0  0  0  0  0  0  0  0  0
  148.2787  141.1454  153.9607 H   0  0  0  0  0  0  0  0  0  0  0  0
  148.9567  139.0377  155.9427 H   0  0  0  0  0  0  0  0  0  0  0  0
  147.8941  141.4248  156.3497 H   0  0  0  0  0  0  0  0  0  0  0  0
  149.0678  140.8219  157.4948 H   0  0  0  0  0  0  0  0  0  0  0  0
  149.1233  142.9768  155.9212 H   0  0  0  0  0  0  0  0  0  0  0  0
  151.2042  140.7423  154.7952 H   0  0  0  0  0  0  0  0  0  0  0  0
  150.7755  137.7387  154.8880 H   0  0  0  0  0  0  0  0  0  0  0  0
  151.1790  138.7168  153.4702 H   0  0  0  0  0  0  0  0  0  0  0  0
  153.1912  137.5509  154.8228 H   0  0  0  0  0  0  0  0  0  0  0  0
  153.3680  139.2479  154.3623 H   0  0  0  0  0  0  0  0  0  0  0  0
  151.8783  140.6545  157.0711 H   0  0  0  0  0  0  0  0  0  0  0  0
  151.0504  139.1238  157.3557 H   0  0  0  0  0  0  0  0  0  0  0  0
  140.9699  135.1807  152.3619 H   0  0  0  0  0  0  0  0  0  0  0  0
  141.2971  135.0265  154.0991 H   0  0  0  0  0  0  0  0  0  0  0  0
  140.6049  133.6798  153.2134 H   0  0  0  0  0  0  0  0  0  0  0  0
  141.9285  133.3992  150.9548 H   0  0  0  0  0  0  0  0  0  0  0  0
  142.4949  132.0551  151.9332 H   0  0  0  0  0  0  0  0  0  0  0  0
  142.9197  133.3963  153.6337 H   0  0  0  0  0  0  0  0  0  0  0  0
  1  2  1  0  0  0  0
  1 32  1  0  0  0  0
  1 33  1  0  0  0  0
  1 34  1  0  0  0  0
  2  3  1  0  0  0  0
  3 30  1  0  0  0  0
  3 29  1  0  0  0  0
  3  4  1  0  0  0  0
  4  5  1  0  0  0  0
  4 35  1  0  0  0  0
  4 36  1  0  0  0  0
  5 31  1  0  0  0  0
  5  6  1  0  0  0  0
  5 27  1  0  0  0  0
  6  7  1  0  0  0  0
  6 37  1  0  0  0  0
  6 38  1  0  0  0  0
  7  8  1  0  0  0  0
  7  9  1  0  0  0  0
  8 39  1  0  0  0  0
  8 40  1  0  0  0  0
  8 41  1  0  0  0  0
  9 14  1  0  0  0  0
  9 10  2  0  0  0  0
 10 11  1  0  0  0  0
 11 12  2  0  0  0  0
 11 42  1  0  0  0  0
 12 13  1  0  0  0  0
 13 17  1  0  0  0  0
 13 14  2  0  0  0  0
 14 15  1  0  0  0  0
 15 16  2  0  0  0  0
 16 17  1  0  0  0  0
 16 43  1  0  0  0  0
 17 18  1  0  0  0  0
 18 19  1  0  0  0  0
 18 44  1  0  0  0  0
 18 45  1  0  0  0  0
 19 20  1  0  0  0  0
 19 22  1  0  0  0  0
 19 46  1  0  0  0  0
 20 21  1  0  0  0  0
 20 47  1  0  0  0  0
 20 48  1  0  0  0  0
 21 49  1  0  0  0  0
 22 26  1  0  0  0  0
 22 23  1  0  0  0  0
 22 50  1  0  0  0  0
 23 24  1  0  0  0  0
 23 51  1  0  0  0  0
 23 52  1  0  0  0  0
 24 25  1  0  0  0  0
 24 53  1  0  0  0  0
 24 54  1  0  0  0  0
 25 26  1  0  0  0  0
 26 55  1  0  0  0  0
 26 56  1  0  0  0  0
 27 28  1  0  0  0  0
 27 29  1  0  0  0  0
 27 62  1  0  0  0  0
 28 57  1  0  0  0  0
 28 58  1  0  0  0  0
 28 59  1  0  0  0  0
 29 60  1  0  0  0  0
 29 61  1  0  0  0  0
M  CHG  1  27   1
M  END
> <s_m_source_file>
AV-unprocessed.smi

> <i_m_source_file_index>
21

> <i_lp_mmshare_version>
43012

> <i_f3d_flags>
0

> <s_epik_input>
W0NIM11PW0NASF0xW0NIMl1bQ0BIXShOKFtDSDNdKVtDSDJdMSlbQ0gyXU4oW0NIM10pYyhuW2NIXW4yKWMoYzIzKW5bY0hdbjNbQ0gyXVtDQEhdKFtDSDJdW09IXSlbQ0BASF00W0NIMl1bQ0gyXU9bQ0gyXTQ=

> <s_epik_cmdline>
J2VwaWtfcHl0aG9uJywgJy1waCcsICc3LjAnLCAnLXRuJywgJzgnLCAnLW1hJywgJzIwMCcsICctbWV0YWxfYmluZGluZycsICctaW1hZScsICc8aW5maWxlLm1hZT4nLCAnLW9tYWUnLCAnPG91dGZpbGUubWFlPic=

> <r_lp_tautomer_probability>
1

> <r_epik_Ionization_Penalty>
0.0157465

> <r_epik_Ionization_Penalty_Charging>
0.015354

> <r_epik_Ionization_Penalty_Neutral>
0.000392529

> <r_epik_State_Penalty>
0.0120612

> <r_epik_Charging_Adjusted_Penalty>
0.0274152

> <i_epik_Tot_Q>
1

> <i_epik_Tot_abs_Q>
1

> <r_epik_Metal_State_Penalty>
0.0121253

> <b_epik_Metal_Only>
0

> <s_lp_Force_Field>
OPLS_2005

> <r_lp_Energy>
61.8504

> <b_lp_Chiralities_Consistent>
1

> <s_lp_Variant>
AV-unprocessed.smi:21-18

> <Gold.Version>
5.8.1

> <Gold.Id.Protein>
6NUR|6NUR_protein|mol2

> <Gold.PLP.Fitness>
50.8291

> <Gold.PLP.PLP>
-38.2096

> <Gold.PLP.part.hbond>
-3.0000

> <Gold.PLP.part.metal>
0.0000

> <Gold.PLP.part.buried>
-2.8095

> <Gold.PLP.part.nonpolar>
-34.6369

> <Gold.PLP.part.repulsive>
0.3877

> <Gold.PLP.ligand.clash>
0.0000

> <Gold.PLP.ligand.torsion>
1.7393

> <Gold.PLP.Chemscore.Hbond>
3.9269

> <Gold.PLP.Chemscore.CHOScore>
1.2682

> <Gold.PLP.Chemscore.Metal>
0.0000

> <Gold.Chemscore.Hbonds>
donor molecule, donor type, donor heavy atom, donor atom, acceptor molecule, acceptor atom, score
      L1  H    21    49       P1  8028  0.96
      L1  H    27    62       P1 10957  2.00
      P1  H  7997  8009       L1    25  1.00
      L1  C    16    43       P1  7948  0.47
      L1  C    16    43       P1  7957  1.00

> <Gold.PLP.Chemscore.Internal.Correction>
0.5128

> <Gold.Rescore>
     Score         DG    S(hbond)    S(metal)    S(lipo)     H(rot)  DE(clash)    DE(int)     intcor
     13.78     -16.80       2.57        0.00      90.62       3.08       0.09       2.93       ----

> <Gold.Chemscore.Fitness>
13.7816

> <Gold.Chemscore.DG>
-16.8040

> <Gold.Chemscore.ZeroCoef>
-5.4800

> <Gold.Chemscore.Hbond>
2.5737

> <Gold.Chemscore.Metal>
0.0000

> <Gold.Chemscore.Lipo>
90.6165

> <Gold.Chemscore.Internal_Hbond>
0.0000

> <Gold.Chemscore.DEClash>
0.0903

> <Gold.Chemscore.DEInternal>
2.9322

> <Gold.Chemscore.Rot>
3.0758

> <Gold.Chemscore.Internal.Correction>
   9.000000E+99

> <Gold.Chemscore.Hbonds>
donor molecule, donor type, donor heavy atom, donor atom, acceptor molecule, acceptor atom, score
      L1  H    21    49       P1  8028  0.92
      L1  H    27    62       P1 10957  0.91
      P1  H  7997  8009       L1    25  0.51

> <Gold.Chemscore.Hbond.Weighted>
-8.5960

> <Gold.Chemscore.Metal.Weighted>
-0.0000

> <Gold.Chemscore.Lipo.Weighted>
-10.6021

> <Gold.Chemscore.Internal_Hbond.Weighted>
0.0000

> <Gold.Chemscore.DEClash.Weighted>
0.0903

> <Gold.Chemscore.DEInternal.Weighted>
2.9322

> <Gold.Chemscore.Rot.Weighted>
7.8741

> <Gold.Chemscore.Internal.Correction.Weighted>
   9.000000E+99

> <Gold.Protein.RotatedTorsions>
[ 6907 6896 6895 6894 ] final   56.74 input  -60.11 | X-H torsion
[ 7974 7965 7964 7962 ] final  -21.06 input  175.53 | X-H torsion
[ 8008 7997 7996 7995 ] final -179.34 input   59.86 | X-H torsion
[ 10167 10162 10161 10158 ] final -151.98 input  -65.29 | X-H torsion
[ 10718 10713 10712 10709 ] final -160.38 input   66.30 | X-H torsion
[ 10763 10752 10751 10750 ] final  133.53 input  -60.55 | X-H torsion
[ 11005 11000 10999 10996 ] final    9.89 input  -57.11 | X-H torsion

> <Gold.Protein.ActiveResidues>
 VAL166  LYS551  ARG553  GLY616  TRP617  ASP618  TYR619  PRO620  LYS621  CYS622 
 ASP623  PHE694  ASN695  SER759  ASP760  ASP761  ALA762  ILE779  LEU786  VAL792 
 PHE793  MET794  SER795  GLU796  ALA797  LYS798  CYS799  TRP800  GLU811  SER814 

> <Gold.Protein.RotatedAtoms>
  152.3665  134.6796  160.0189 H   0  0  0  0  0  0  0  0  0  0  0  0  # atno 6907 bound_to 6896
  151.7102  133.3307  159.3297 H   0  0  0  0  0  0  0  0  0  0  0  0  # atno 6908 bound_to 6896
  150.7642  134.6473  159.6314 H   0  0  0  0  0  0  0  0  0  0  0  0  # atno 6909 bound_to 6896
  146.1754  140.4289  142.8516 H   0  0  0  0  0  0  0  0  0  0  0  0  # atno 7974 bound_to 7965
  156.0293  140.1278  157.0275 H   0  0  0  0  0  0  0  0  0  0  0  0  # atno 8008 bound_to 7997
  154.4343  140.1052  156.6147 H   0  0  0  0  0  0  0  0  0  0  0  0  # atno 8009 bound_to 7997
  155.5830  140.3468  155.4547 H   0  0  0  0  0  0  0  0  0  0  0  0  # atno 8010 bound_to 7997
  139.7221  143.8941  152.2507 H   0  0  0  0  0  0  0  0  0  0  0  0  # atno 10167 bound_to 10162
  156.5814  130.8731  151.2865 H   0  0  0  0  0  0  0  0  0  0  0  0  # atno 10718 bound_to 10713
  153.8087  135.3132  155.3398 H   0  0  0  0  0  0  0  0  0  0  0  0  # atno 10763 bound_to 10752
  154.8060  135.4697  154.0397 H   0  0  0  0  0  0  0  0  0  0  0  0  # atno 10764 bound_to 10752
  153.1768  135.6887  153.8621 H   0  0  0  0  0  0  0  0  0  0  0  0  # atno 10765 bound_to 10752
  140.5206  134.0563  155.7844 H   0  0  0  0  0  0  0  0  0  0  0  0  # atno 11005 bound_to 11000
  144.8228  140.6578  143.6342 LP  0  0  0  0  0  0  0  0  0  0  0  0  # atno 17320 bound_to 7965
  145.4226  139.1561  143.4065 LP  0  0  0  0  0  0  0  0  0  0  0  0  # atno 17321 bound_to 7965
  139.8840  144.7002  150.8846 LP  0  0  0  0  0  0  0  0  0  0  0  0  # atno 17342 bound_to 10162
  140.7756  143.3639  151.1776 LP  0  0  0  0  0  0  0  0  0  0  0  0  # atno 17343 bound_to 10162
  157.7325  130.9717  150.1934 LP  0  0  0  0  0  0  0  0  0  0  0  0  # atno 17370 bound_to 10713
  156.2628  130.3713  149.8112 LP  0  0  0  0  0  0  0  0  0  0  0  0  # atno 17371 bound_to 10713
  141.1336  133.9260  157.2482 LP  0  0  0  0  0  0  0  0  0  0  0  0  # atno 17394 bound_to 11000
  139.9608  135.0154  156.9255 LP  0  0  0  0  0  0  0  0  0  0  0  0  # atno 17395 bound_to 11000

$$$$
