AV-unprocessed.smi:280|AV-procd|sdf|2098|dock7
  -GOLD-   2262021383D 1   1.00000     0.00000
 Structure written by MMmdl.
 59 62  0  0  0  0  0  0  0  0  2 V2000
  148.1234  137.8338  156.4484 C   0  0  0  0  0  0  0  0  0  0  0  0
  148.4076  137.5579  154.9552 C   0  0  1  0  0  0  0  0  0  0  0  0
  149.5897  138.4012  154.4307 C   0  0  0  0  0  0  0  0  0  0  0  0
  150.8660  137.8863  154.9283 N   0  0  0  0  0  0  0  0  0  0  0  0
  151.4487  138.5082  155.9905 C   0  0  0  0  0  0  0  0  0  0  0  0
  152.6108  137.9810  156.4576 N   0  0  0  0  0  0  0  0  0  0  0  0
  153.2442  138.5326  157.4951 C   0  0  0  0  0  0  0  0  0  0  0  0
  152.8969  139.6039  158.2069 N   0  0  0  0  0  0  0  0  0  0  0  0
  151.7320  140.1445  157.7523 C   0  0  0  0  0  0  0  0  0  0  0  0
  150.9490  139.6689  156.6590 C   0  0  0  0  0  0  0  0  0  0  0  0
  149.8468  140.5008  156.4888 N   0  0  0  0  0  0  0  0  0  0  0  0
  149.9661  141.4012  157.4246 C   0  0  0  0  0  0  0  0  0  0  0  0
  151.0658  141.2567  158.2378 N   0  0  0  0  0  0  0  0  0  0  0  0
  151.4402  142.1175  159.3506 C   0  0  0  0  0  0  0  0  0  0  0  0
  151.4193  143.6239  159.0233 C   0  0  0  0  0  0  0  0  0  0  0  0
  150.1466  144.2508  159.6295 C   0  0  0  0  0  0  0  0  0  0  0  0
  149.8915  145.5497  159.1331 O   0  0  0  0  0  0  0  0  0  0  0  0
  152.7249  144.3943  159.2689 C   0  0  0  0  0  0  0  0  0  0  0  0
  152.7195  144.9360  157.9300 O   0  0  0  0  0  0  0  0  0  0  0  0
  151.7135  143.9691  157.5559 C   0  0  0  0  0  0  0  0  0  0  0  0
  151.1002  136.4733  154.6503 C   0  0  0  0  0  0  0  0  0  0  0  0
  149.9357  135.6075  155.1672 C   0  0  0  0  0  0  0  0  0  0  0  0
  148.6332  136.1129  154.6536 N   0  3  1  0  0  0  0  0  0  0  0  0
  147.4732  135.2323  154.9629 C   0  0  0  0  0  0  0  0  0  0  0  0
  147.3734  134.0023  154.0278 C   0  0  0  0  0  0  0  0  0  0  0  0
  148.5958  133.0901  154.2278 C   0  0  0  0  0  0  0  0  0  0  0  0
  146.0739  133.2058  154.2474 C   0  0  0  0  0  0  0  0  0  0  0  0
  147.4128  134.4258  152.6802 O   0  0  0  0  0  0  0  0  0  0  0  0
  147.9537  138.8977  156.6151 H   0  0  0  0  0  0  0  0  0  0  0  0
  148.9529  137.5367  157.0894 H   0  0  0  0  0  0  0  0  0  0  0  0
  147.2343  137.3110  156.7998 H   0  0  0  0  0  0  0  0  0  0  0  0
  147.5241  137.8685  154.3957 H   0  0  0  0  0  0  0  0  0  0  0  0
  149.6157  138.3496  153.3416 H   0  0  0  0  0  0  0  0  0  0  0  0
  149.4334  139.4524  154.6729 H   0  0  0  0  0  0  0  0  0  0  0  0
  154.1600  138.0463  157.7977 H   0  0  0  0  0  0  0  0  0  0  0  0
  149.2475  142.1980  157.5514 H   0  0  0  0  0  0  0  0  0  0  0  0
  150.7708  141.8960  160.1829 H   0  0  0  0  0  0  0  0  0  0  0  0
  152.4341  141.8204  159.6877 H   0  0  0  0  0  0  0  0  0  0  0  0
  149.2719  143.6334  159.4224 H   0  0  0  0  0  0  0  0  0  0  0  0
  150.2280  144.3331  160.7133 H   0  0  0  0  0  0  0  0  0  0  0  0
  149.2494  145.4872  158.4424 H   0  0  0  0  0  0  0  0  0  0  0  0
  152.6530  145.1644  160.0377 H   0  0  0  0  0  0  0  0  0  0  0  0
  153.5959  143.7600  159.4345 H   0  0  0  0  0  0  0  0  0  0  0  0
  152.1421  143.1441  156.9845 H   0  0  0  0  0  0  0  0  0  0  0  0
  150.8763  144.4151  157.0178 H   0  0  0  0  0  0  0  0  0  0  0  0
  151.1756  136.3598  153.5684 H   0  0  0  0  0  0  0  0  0  0  0  0
  152.0576  136.1343  155.0437 H   0  0  0  0  0  0  0  0  0  0  0  0
  150.0960  134.5775  154.8530 H   0  0  0  0  0  0  0  0  0  0  0  0
  149.9185  135.5943  156.2566 H   0  0  0  0  0  0  0  0  0  0  0  0
  147.5017  134.9298  156.0110 H   0  0  0  0  0  0  0  0  0  0  0  0
  146.5483  135.7985  154.8446 H   0  0  0  0  0  0  0  0  0  0  0  0
  148.6360  132.7013  155.2460 H   0  0  0  0  0  0  0  0  0  0  0  0
  149.5279  133.6262  154.0449 H   0  0  0  0  0  0  0  0  0  0  0  0
  148.5717  132.2340  153.5520 H   0  0  0  0  0  0  0  0  0  0  0  0
  145.9938  132.8606  155.2788 H   0  0  0  0  0  0  0  0  0  0  0  0
  146.0353  132.3259  153.6040 H   0  0  0  0  0  0  0  0  0  0  0  0
  145.1879  133.8031  154.0302 H   0  0  0  0  0  0  0  0  0  0  0  0
  148.1044  135.0635  152.5841 H   0  0  0  0  0  0  0  0  0  0  0  0
  148.7172  136.0774  153.6477 H   0  0  0  0  0  0  0  0  0  0  0  0
  1  2  1  0  0  0  0
  1 29  1  0  0  0  0
  1 30  1  0  0  0  0
  1 31  1  0  0  0  0
  2 23  1  0  0  0  0
  2  3  1  0  0  0  0
  2 32  1  0  0  0  0
  3  4  1  0  0  0  0
  3 33  1  0  0  0  0
  3 34  1  0  0  0  0
  4  5  1  0  0  0  0
  4 21  1  0  0  0  0
  5 10  1  0  0  0  0
  5  6  2  0  0  0  0
  6  7  1  0  0  0  0
  7  8  2  0  0  0  0
  7 35  1  0  0  0  0
  8  9  1  0  0  0  0
  9 13  1  0  0  0  0
  9 10  2  0  0  0  0
 10 11  1  0  0  0  0
 11 12  2  0  0  0  0
 12 13  1  0  0  0  0
 12 36  1  0  0  0  0
 13 14  1  0  0  0  0
 14 15  1  0  0  0  0
 14 37  1  0  0  0  0
 14 38  1  0  0  0  0
 15 20  1  0  0  0  0
 15 16  1  0  0  0  0
 15 18  1  0  0  0  0
 16 17  1  0  0  0  0
 16 39  1  0  0  0  0
 16 40  1  0  0  0  0
 17 41  1  0  0  0  0
 18 19  1  0  0  0  0
 18 42  1  0  0  0  0
 18 43  1  0  0  0  0
 19 20  1  0  0  0  0
 20 44  1  0  0  0  0
 20 45  1  0  0  0  0
 21 22  1  0  0  0  0
 21 46  1  0  0  0  0
 21 47  1  0  0  0  0
 22 23  1  0  0  0  0
 22 48  1  0  0  0  0
 22 49  1  0  0  0  0
 23 24  1  0  0  0  0
 23 59  1  0  0  0  0
 24 25  1  0  0  0  0
 24 50  1  0  0  0  0
 24 51  1  0  0  0  0
 25 26  1  0  0  0  0
 25 27  1  0  0  0  0
 25 28  1  0  0  0  0
 26 52  1  0  0  0  0
 26 53  1  0  0  0  0
 26 54  1  0  0  0  0
 27 55  1  0  0  0  0
 27 56  1  0  0  0  0
 27 57  1  0  0  0  0
 28 58  1  0  0  0  0
M  CHG  1  23   1
M  END
> <s_m_source_file>
AV-unprocessed.smi

> <i_m_source_file_index>
280

> <i_lp_mmshare_version>
43012

> <i_f3d_flags>
0

> <s_epik_input>
W0NIM11DKFtDSDNdKShbT0hdKVtDSDJdTjFbQ0gyXVtDSDJdTihbQ0gyXVtDQEhdMVtDSDNdKWMobltjSF1uMiljKGMyMyluW2NIXW4zW0NIMl1DNChbQ0gyXVtPSF0pW0NIMl1PW0NIMl00

> <s_epik_cmdline>
J2VwaWtfcHl0aG9uJywgJy1waCcsICc3LjAnLCAnLXRuJywgJzgnLCAnLW1hJywgJzIwMCcsICctbWV0YWxfYmluZGluZycsICctaW1hZScsICc8aW5maWxlLm1hZT4nLCAnLW9tYWUnLCAnPG91dGZpbGUubWFlPic=

> <r_lp_tautomer_probability>
1

> <r_epik_Ionization_Penalty>
0.00179402

> <r_epik_Ionization_Penalty_Charging>
0.00173996

> <r_epik_Ionization_Penalty_Neutral>
5.40607e-05

> <r_epik_State_Penalty>
-0

> <r_epik_Charging_Adjusted_Penalty>
0.00173996

> <i_epik_Tot_Q>
1

> <i_epik_Tot_abs_Q>
1

> <r_epik_Metal_State_Penalty>
-0

> <b_epik_Metal_Only>
0

> <s_lp_Force_Field>
OPLS_2005

> <r_lp_Energy>
54.8934

> <b_lp_Chiralities_Consistent>
1

> <s_lp_Variant>
AV-unprocessed.smi:280-2

> <Gold.Version>
5.8.1

> <Gold.Id.Protein>
6NUR|6NUR_protein|mol2

> <Gold.PLP.Fitness>
44.8173

> <Gold.PLP.PLP>
-35.1103

> <Gold.PLP.part.hbond>
-4.9558

> <Gold.PLP.part.metal>
0.0000

> <Gold.PLP.part.buried>
0.4243

> <Gold.PLP.part.nonpolar>
-30.4546

> <Gold.PLP.part.repulsive>
0.0597

> <Gold.PLP.ligand.clash>
0.0000

> <Gold.PLP.ligand.torsion>
1.6059

> <Gold.PLP.Chemscore.Hbond>
4.0000

> <Gold.PLP.Chemscore.CHOScore>
0.0000

> <Gold.PLP.Chemscore.Metal>
0.0000

> <Gold.Chemscore.Hbonds>
donor molecule, donor type, donor heavy atom, donor atom, acceptor molecule, acceptor atom, score
      L1  H    17    41       P1  8029  1.00
      L1  H    23    59       P1  7948  2.00
      L1  H    28    58       P1  7948  1.00

> <Gold.PLP.Chemscore.Internal.Correction>
0.9188

> <Gold.Rescore>
     Score         DG    S(hbond)    S(metal)    S(lipo)     H(rot)  DE(clash)    DE(int)     intcor
     13.70     -16.85       2.91        0.00      86.25       3.30       0.16       3.00       ----

> <Gold.Chemscore.Fitness>
13.6988

> <Gold.Chemscore.DG>
-16.8540

> <Gold.Chemscore.ZeroCoef>
-5.4800

> <Gold.Chemscore.Hbond>
2.9128

> <Gold.Chemscore.Metal>
0.0000

> <Gold.Chemscore.Lipo>
86.2450

> <Gold.Chemscore.Internal_Hbond>
0.0000

> <Gold.Chemscore.DEClash>
0.1573

> <Gold.Chemscore.DEInternal>
2.9978

> <Gold.Chemscore.Rot>
3.2991

> <Gold.Chemscore.Internal.Correction>
   9.000000E+99

> <Gold.Chemscore.Hbonds>
donor molecule, donor type, donor heavy atom, donor atom, acceptor molecule, acceptor atom, score
      L1  H    17    41       P1  8029  0.92
      L1  H    23    59       P1  7948  1.00
      L1  H    28    58       P1  7948  0.85

> <Gold.Chemscore.Hbond.Weighted>
-9.7289

> <Gold.Chemscore.Metal.Weighted>
-0.0000

> <Gold.Chemscore.Lipo.Weighted>
-10.0907

> <Gold.Chemscore.Internal_Hbond.Weighted>
0.0000

> <Gold.Chemscore.DEClash.Weighted>
0.1573

> <Gold.Chemscore.DEInternal.Weighted>
2.9978

> <Gold.Chemscore.Rot.Weighted>
8.4456

> <Gold.Chemscore.Internal.Correction.Weighted>
   9.000000E+99

> <Gold.Protein.RotatedTorsions>
[ 6907 6896 6895 6894 ] final  -50.40 input  -60.11 | X-H torsion
[ 7974 7965 7964 7962 ] final  111.93 input  175.53 | X-H torsion
[ 8008 7997 7996 7995 ] final  162.00 input   59.86 | X-H torsion
[ 10167 10162 10161 10158 ] final  132.71 input  -65.29 | X-H torsion
[ 10718 10713 10712 10709 ] final -163.24 input   66.30 | X-H torsion
[ 10763 10752 10751 10750 ] final   96.04 input  -60.55 | X-H torsion
[ 11005 11000 10999 10996 ] final   97.03 input  -57.11 | X-H torsion

> <Gold.Protein.ActiveResidues>
 VAL166  LYS551  ARG553  GLY616  TRP617  ASP618  TYR619  PRO620  LYS621  CYS622 
 ASP623  PHE694  ASN695  SER759  ASP760  ASP761  ALA762  ILE779  LEU786  VAL792 
 PHE793  MET794  SER795  GLU796  ALA797  LYS798  CYS799  TRP800  GLU811  SER814 

> <Gold.Protein.RotatedAtoms>
  150.8711  134.8084  159.7154 H   0  0  0  0  0  0  0  0  0  0  0  0  # atno 6907 bound_to 6896
  152.4715  134.4946  159.9715 H   0  0  0  0  0  0  0  0  0  0  0  0  # atno 6908 bound_to 6896
  151.5034  133.3461  159.2908 H   0  0  0  0  0  0  0  0  0  0  0  0  # atno 6909 bound_to 6896
  145.2360  139.2799  143.4143 H   0  0  0  0  0  0  0  0  0  0  0  0  # atno 7974 bound_to 7965
  156.2063  140.1762  156.7793 H   0  0  0  0  0  0  0  0  0  0  0  0  # atno 8008 bound_to 7997
  154.5659  140.0691  156.8921 H   0  0  0  0  0  0  0  0  0  0  0  0  # atno 8009 bound_to 7997
  155.2761  140.3346  155.4264 H   0  0  0  0  0  0  0  0  0  0  0  0  # atno 8010 bound_to 7997
  139.5328  144.6650  151.4890 H   0  0  0  0  0  0  0  0  0  0  0  0  # atno 10167 bound_to 10162
  156.6219  130.8893  151.2959 H   0  0  0  0  0  0  0  0  0  0  0  0  # atno 10718 bound_to 10713
  153.2602  135.4233  155.0886 H   0  0  0  0  0  0  0  0  0  0  0  0  # atno 10763 bound_to 10752
  154.8417  135.3447  154.6388 H   0  0  0  0  0  0  0  0  0  0  0  0  # atno 10764 bound_to 10752
  153.6809  135.7039  153.5175 H   0  0  0  0  0  0  0  0  0  0  0  0  # atno 10765 bound_to 10752
  139.8778  134.8980  156.4246 H   0  0  0  0  0  0  0  0  0  0  0  0  # atno 11005 bound_to 11000
  146.3341  140.2710  142.8606 LP  0  0  0  0  0  0  0  0  0  0  0  0  # atno 17320 bound_to 7965
  144.9632  140.8296  143.5500 LP  0  0  0  0  0  0  0  0  0  0  0  0  # atno 17321 bound_to 7965
  140.6517  143.8683  150.6792 LP  0  0  0  0  0  0  0  0  0  0  0  0  # atno 17342 bound_to 10162
  140.2050  143.3929  152.1762 LP  0  0  0  0  0  0  0  0  0  0  0  0  # atno 17343 bound_to 10162
  157.7225  130.9578  150.1497 LP  0  0  0  0  0  0  0  0  0  0  0  0  # atno 17370 bound_to 10713
  156.2305  130.3681  149.8450 LP  0  0  0  0  0  0  0  0  0  0  0  0  # atno 17371 bound_to 10713
  140.9109  133.7712  155.9791 LP  0  0  0  0  0  0  0  0  0  0  0  0  # atno 17394 bound_to 11000
  140.8547  134.2912  157.5260 LP  0  0  0  0  0  0  0  0  0  0  0  0  # atno 17395 bound_to 11000

$$$$
