AV-unprocessed.smi:274|AV-procd|sdf|2059|dock4
  -GOLD-   2262021303D 1   1.00000     0.00000
 Structure written by MMmdl.
 50 53  0  0  0  0  0  0  0  0  1 V2000
  152.7490  142.9267  160.3672 C   0  0  0  0  0  0  0  0  0  0  0  0
  152.4920  142.6409  158.8736 C   0  0  0  0  0  0  0  0  0  0  0  0
  152.2562  143.9779  158.1425 C   0  0  0  0  0  0  0  0  0  0  0  0
  151.3406  141.6067  158.6678 C   0  0  1  0  0  0  0  0  0  0  0  0
  149.9636  142.2782  158.4357 C   0  0  0  0  0  0  0  0  0  0  0  0
  149.3480  142.7590  159.3851 O   0  0  0  0  0  0  0  0  0  0  0  0
  149.4436  142.2955  157.1951 N   0  0  0  0  0  0  0  0  0  0  0  0
  150.0336  141.6868  156.0024 C   0  0  0  0  0  0  0  0  0  0  0  0
  151.4882  141.2262  156.2055 C   0  0  0  0  0  0  0  0  0  0  0  0
  151.6761  140.7016  157.5557 N   0  0  0  0  0  0  0  0  0  0  0  0
  151.4310  139.3725  157.6898 C   0  0  0  0  0  0  0  0  0  0  0  0
  151.2573  138.8295  158.9242 N   0  0  0  0  0  0  0  0  0  0  0  0
  151.0016  137.5249  159.0564 C   0  0  0  0  0  0  0  0  0  0  0  0
  150.8811  136.5977  158.1044 N   0  0  0  0  0  0  0  0  0  0  0  0
  151.0591  137.1358  156.8638 C   0  0  0  0  0  0  0  0  0  0  0  0
  151.3298  138.5018  156.5699 C   0  0  0  0  0  0  0  0  0  0  0  0
  151.4458  138.6773  155.1964 N   0  0  0  0  0  0  0  0  0  0  0  0
  151.2491  137.4840  154.7059 C   0  0  0  0  0  0  0  0  0  0  0  0
  151.0214  136.4953  155.6370 N   0  0  0  0  0  0  0  0  0  0  0  0
  150.7807  135.0841  155.3754 C   0  0  0  0  0  0  0  0  0  0  0  0
  149.2899  134.7418  155.1409 C   0  0  1  0  0  0  0  0  0  0  0  0
  148.6588  135.8308  154.4894 O   0  0  0  0  0  0  0  0  0  0  0  0
  149.0979  133.4957  154.2862 C   0  0  0  0  0  0  0  0  0  0  0  0
  147.7596  132.9565  154.7730 C   0  0  0  0  0  0  0  0  0  0  0  0
  147.8191  133.1771  156.1719 O   0  0  0  0  0  0  0  0  0  0  0  0
  148.4934  134.4077  156.4195 C   0  0  0  0  0  0  0  0  0  0  0  0
  151.8534  143.3141  160.8538 H   0  0  0  0  0  0  0  0  0  0  0  0
  153.5409  143.6651  160.4961 H   0  0  0  0  0  0  0  0  0  0  0  0
  153.0620  142.0331  160.9078 H   0  0  0  0  0  0  0  0  0  0  0  0
  153.4126  142.2220  158.4662 H   0  0  0  0  0  0  0  0  0  0  0  0
  151.3002  144.4201  158.4243 H   0  0  0  0  0  0  0  0  0  0  0  0
  152.2674  143.8598  157.0594 H   0  0  0  0  0  0  0  0  0  0  0  0
  153.0375  144.6998  158.3823 H   0  0  0  0  0  0  0  0  0  0  0  0
  151.2666  141.0349  159.5947 H   0  0  0  0  0  0  0  0  0  0  0  0
  148.5430  142.7366  157.0770 H   0  0  0  0  0  0  0  0  0  0  0  0
  149.4163  140.8249  155.7471 H   0  0  0  0  0  0  0  0  0  0  0  0
  149.9657  142.3794  155.1634 H   0  0  0  0  0  0  0  0  0  0  0  0
  151.7610  140.5045  155.4351 H   0  0  0  0  0  0  0  0  0  0  0  0
  152.1631  142.0706  156.0671 H   0  0  0  0  0  0  0  0  0  0  0  0
  150.8750  137.1739  160.0699 H   0  0  0  0  0  0  0  0  0  0  0  0
  151.2684  137.2929  153.6430 H   0  0  0  0  0  0  0  0  0  0  0  0
  151.3730  134.7911  154.5073 H   0  0  0  0  0  0  0  0  0  0  0  0
  151.1711  134.5110  156.2174 H   0  0  0  0  0  0  0  0  0  0  0  0
  149.0282  135.9178  153.6241 H   0  0  0  0  0  0  0  0  0  0  0  0
  149.1187  133.6913  153.2131 H   0  0  0  0  0  0  0  0  0  0  0  0
  149.8766  132.7636  154.5050 H   0  0  0  0  0  0  0  0  0  0  0  0
  146.9296  133.5225  154.3472 H   0  0  0  0  0  0  0  0  0  0  0  0
  147.6165  131.9020  154.5372 H   0  0  0  0  0  0  0  0  0  0  0  0
  149.1417  134.2632  157.2830 H   0  0  0  0  0  0  0  0  0  0  0  0
  147.7748  135.1874  156.6770 H   0  0  0  0  0  0  0  0  0  0  0  0
  1  2  1  0  0  0  0
  1 27  1  0  0  0  0
  1 28  1  0  0  0  0
  1 29  1  0  0  0  0
  2  3  1  0  0  0  0
  2  4  1  0  0  0  0
  2 30  1  0  0  0  0
  3 31  1  0  0  0  0
  3 32  1  0  0  0  0
  3 33  1  0  0  0  0
  4 10  1  0  0  0  0
  4  5  1  0  0  0  0
  4 34  1  0  0  0  0
  5  6  2  0  0  0  0
  5  7  1  0  0  0  0
  7  8  1  0  0  0  0
  7 35  1  0  0  0  0
  8  9  1  0  0  0  0
  8 36  1  0  0  0  0
  8 37  1  0  0  0  0
  9 10  1  0  0  0  0
  9 38  1  0  0  0  0
  9 39  1  0  0  0  0
 10 11  1  0  0  0  0
 11 16  1  0  0  0  0
 11 12  2  0  0  0  0
 12 13  1  0  0  0  0
 13 14  2  0  0  0  0
 13 40  1  0  0  0  0
 14 15  1  0  0  0  0
 15 19  1  0  0  0  0
 15 16  2  0  0  0  0
 16 17  1  0  0  0  0
 17 18  2  0  0  0  0
 18 19  1  0  0  0  0
 18 41  1  0  0  0  0
 19 20  1  0  0  0  0
 20 21  1  0  0  0  0
 20 42  1  0  0  0  0
 20 43  1  0  0  0  0
 21 26  1  0  0  0  0
 21 22  1  0  0  0  0
 21 23  1  0  0  0  0
 22 44  1  0  0  0  0
 23 24  1  0  0  0  0
 23 45  1  0  0  0  0
 23 46  1  0  0  0  0
 24 25  1  0  0  0  0
 24 47  1  0  0  0  0
 24 48  1  0  0  0  0
 25 26  1  0  0  0  0
 26 49  1  0  0  0  0
 26 50  1  0  0  0  0
M  END
> <s_m_source_file>
AV-unprocessed.smi

> <i_m_source_file_index>
274

> <i_lp_mmshare_version>
43012

> <i_f3d_flags>
0

> <s_epik_input>
W0NIM11bQ0hdKFtDSDNdKVtDQEBIXTFDKD1PKVtOSF1bQ0gyXVtDSDJdTjFjKG5bY0hdbjIpYyhjMjMpbltjSF1uM1tDSDJdW0NAQF00KFtPSF0pW0NIMl1bQ0gyXU9bQ0gyXTQ=

> <s_epik_cmdline>
J2VwaWtfcHl0aG9uJywgJy1waCcsICc3LjAnLCAnLXRuJywgJzgnLCAnLW1hJywgJzIwMCcsICctbWV0YWxfYmluZGluZycsICctaW1hZScsICc8aW5maWxlLm1hZT4nLCAnLW9tYWUnLCAnPG91dGZpbGUubWFlPic=

> <r_lp_tautomer_probability>
1

> <r_epik_Ionization_Penalty>
0.000690079

> <r_epik_Ionization_Penalty_Charging>
0

> <r_epik_Ionization_Penalty_Neutral>
0.000690079

> <r_epik_State_Penalty>
0.000321372

> <r_epik_Charging_Adjusted_Penalty>
0.000321372

> <i_epik_Tot_Q>
0

> <i_epik_Tot_abs_Q>
0

> <r_epik_Metal_State_Penalty>
-0

> <b_epik_Metal_Only>
0

> <s_lp_Force_Field>
OPLS_2005

> <r_lp_Energy>
42.7916

> <b_lp_Chiralities_Consistent>
1

> <s_lp_Variant>
AV-unprocessed.smi:274-2

> <Gold.Version>
5.8.1

> <Gold.Id.Protein>
6NUR|6NUR_protein|mol2

> <Gold.PLP.Fitness>
43.2279

> <Gold.PLP.PLP>
-40.3860

> <Gold.PLP.part.hbond>
-3.4920

> <Gold.PLP.part.metal>
0.0000

> <Gold.PLP.part.buried>
-6.7172

> <Gold.PLP.part.nonpolar>
-30.5959

> <Gold.PLP.part.repulsive>
0.1596

> <Gold.PLP.ligand.clash>
0.3006

> <Gold.PLP.ligand.torsion>
1.9167

> <Gold.PLP.Chemscore.Hbond>
1.2188

> <Gold.PLP.Chemscore.CHOScore>
0.9996

> <Gold.PLP.Chemscore.Metal>
0.0000

> <Gold.Chemscore.Hbonds>
donor molecule, donor type, donor heavy atom, donor atom, acceptor molecule, acceptor atom, score
      L1  H    22    44       P1  7948  1.00
      P1  H  6896  6907       L1    14  0.10
      P1  H  6933  6944       L1     6  0.04
      L1  C    18    41       P1  7949  1.00

> <Gold.PLP.Chemscore.Internal.Correction>
0.3209

> <Gold.Rescore>
     Score         DG    S(hbond)    S(metal)    S(lipo)     H(rot)  DE(clash)    DE(int)     intcor
      9.91     -12.88       1.28        0.00      73.68       2.14       0.03       2.94       ----

> <Gold.Chemscore.Fitness>
9.9148

> <Gold.Chemscore.DG>
-12.8833

> <Gold.Chemscore.ZeroCoef>
-5.4800

> <Gold.Chemscore.Hbond>
1.2782

> <Gold.Chemscore.Metal>
0.0000

> <Gold.Chemscore.Lipo>
73.6778

> <Gold.Chemscore.Internal_Hbond>
0.0000

> <Gold.Chemscore.DEClash>
0.0323

> <Gold.Chemscore.DEInternal>
2.9363

> <Gold.Chemscore.Rot>
2.1431

> <Gold.Chemscore.Internal.Correction>
   9.000000E+99

> <Gold.Chemscore.Hbonds>
donor molecule, donor type, donor heavy atom, donor atom, acceptor molecule, acceptor atom, score
      L1  H     7    35       P1  8028  0.01
      L1  H    22    44       P1  7948  0.91
      P1  H  6896  6907       L1    14  0.01
      P1  H  6933  6944       L1     6  0.06

> <Gold.Chemscore.Hbond.Weighted>
-4.2693

> <Gold.Chemscore.Metal.Weighted>
-0.0000

> <Gold.Chemscore.Lipo.Weighted>
-8.6203

> <Gold.Chemscore.Internal_Hbond.Weighted>
0.0000

> <Gold.Chemscore.DEClash.Weighted>
0.0323

> <Gold.Chemscore.DEInternal.Weighted>
2.9363

> <Gold.Chemscore.Rot.Weighted>
5.4863

> <Gold.Chemscore.Internal.Correction.Weighted>
   9.000000E+99

> <Gold.Protein.RotatedTorsions>
[ 6907 6896 6895 6894 ] final  -46.88 input  -60.11 | X-H torsion
[ 7974 7965 7964 7962 ] final  -71.72 input  175.53 | X-H torsion
[ 8008 7997 7996 7995 ] final   32.93 input   59.86 | X-H torsion
[ 10167 10162 10161 10158 ] final -163.98 input  -65.29 | X-H torsion
[ 10718 10713 10712 10709 ] final   19.09 input   66.30 | X-H torsion
[ 10763 10752 10751 10750 ] final -112.04 input  -60.55 | X-H torsion
[ 11005 11000 10999 10996 ] final -137.62 input  -57.11 | X-H torsion

> <Gold.Protein.ActiveResidues>
 VAL166  LYS551  ARG553  GLY616  TRP617  ASP618  TYR619  PRO620  LYS621  CYS622 
 ASP623  PHE694  ASN695  SER759  ASP760  ASP761  ALA762  ILE779  LEU786  VAL792 
 PHE793  MET794  SER795  GLU796  ALA797  LYS798  CYS799  TRP800  GLU811  SER814 

> <Gold.Protein.RotatedAtoms>
  150.9066  134.8482  159.7396 H   0  0  0  0  0  0  0  0  0  0  0  0  # atno 6907 bound_to 6896
  152.4922  134.4421  159.9557 H   0  0  0  0  0  0  0  0  0  0  0  0  # atno 6908 bound_to 6896
  151.4468  133.3589  159.2825 H   0  0  0  0  0  0  0  0  0  0  0  0  # atno 6909 bound_to 6896
  145.6744  140.9210  143.0865 H   0  0  0  0  0  0  0  0  0  0  0  0  # atno 7974 bound_to 7965
  155.1305  140.3257  155.4475 H   0  0  0  0  0  0  0  0  0  0  0  0  # atno 8008 bound_to 7997
  156.2636  140.2011  156.6373 H   0  0  0  0  0  0  0  0  0  0  0  0  # atno 8009 bound_to 7997
  154.6616  140.0546  157.0055 H   0  0  0  0  0  0  0  0  0  0  0  0  # atno 8010 bound_to 7997
  139.6282  144.0490  152.1993 H   0  0  0  0  0  0  0  0  0  0  0  0  # atno 10167 bound_to 10162
  157.1056  130.6486  149.5884 H   0  0  0  0  0  0  0  0  0  0  0  0  # atno 10718 bound_to 10713
  154.8330  135.4505  154.1133 H   0  0  0  0  0  0  0  0  0  0  0  0  # atno 10763 bound_to 10752
  153.2389  135.6914  153.7812 H   0  0  0  0  0  0  0  0  0  0  0  0  # atno 10764 bound_to 10752
  153.7167  135.3348  155.3234 H   0  0  0  0  0  0  0  0  0  0  0  0  # atno 10765 bound_to 10752
  140.8693  134.2070  157.4660 H   0  0  0  0  0  0  0  0  0  0  0  0  # atno 11005 bound_to 11000
  144.7046  139.8615  143.7434 LP  0  0  0  0  0  0  0  0  0  0  0  0  # atno 17320 bound_to 7965
  146.1017  139.4014  143.0342 LP  0  0  0  0  0  0  0  0  0  0  0  0  # atno 17321 bound_to 7965
  140.0149  144.6196  150.7615 LP  0  0  0  0  0  0  0  0  0  0  0  0  # atno 17342 bound_to 10162
  140.7424  143.2831  151.3541 LP  0  0  0  0  0  0  0  0  0  0  0  0  # atno 17343 bound_to 10162
  155.9863  130.4897  150.7072 LP  0  0  0  0  0  0  0  0  0  0  0  0  # atno 17370 bound_to 10713
  157.4603  131.0882  151.0752 LP  0  0  0  0  0  0  0  0  0  0  0  0  # atno 17371 bound_to 10713
  139.8711  134.9767  156.4930 LP  0  0  0  0  0  0  0  0  0  0  0  0  # atno 17394 bound_to 11000
  140.8591  133.8073  155.9247 LP  0  0  0  0  0  0  0  0  0  0  0  0  # atno 17395 bound_to 11000

$$$$
