AV-unprocessed.smi:1503|AV-procd|sdf|6070|dock1
  -GOLD-   22720 6193D 1   1.00000     0.00000
 Structure written by MMmdl.
 43 44  0  0  0  0  0  0  0  0  2 V2000
  148.1457  133.8368  154.0313 C   0  0  0  0  0  0  0  0  0  0  0  0
  148.9910  133.8984  155.0741 C   0  0  0  0  0  0  0  0  0  0  0  0
  149.7126  135.1345  155.5928 C   0  0  0  0  0  0  0  0  0  0  0  0
  149.4739  136.3449  154.8101 N   0  0  0  0  0  0  0  0  0  0  0  0
  149.4543  137.5937  155.3017 C   0  0  0  0  0  0  0  0  0  0  0  0
  149.6213  137.8505  156.4946 O   0  0  0  0  0  0  0  0  0  0  0  0
  149.2122  138.7121  154.2832 C   0  0  0  0  0  0  0  0  0  0  0  0
  150.4235  139.6469  154.0997 C   0  0  0  0  0  0  0  0  0  0  0  0
  150.9560  140.1653  155.4342 C   0  0  0  0  0  0  0  0  0  0  0  0
  150.3518  141.1574  156.1464 C   0  0  0  0  0  0  0  0  0  0  0  0
  149.0951  141.8679  155.6761 C   0  0  0  0  0  0  0  0  0  0  0  0
  150.8746  141.5858  157.3760 N   0  0  0  0  0  0  0  0  0  0  0  0
  151.9487  141.0362  157.8581 C   0  0  0  0  0  0  0  0  0  0  0  0
  152.4961  141.4297  159.0839 N   0  0  0  0  0  0  0  0  0  0  0  0
  153.5541  140.6514  159.7343 C   0  0  0  0  0  0  0  0  0  0  0  0
  153.5807  140.9006  161.2514 C   0  0  0  0  0  0  0  0  0  0  0  0
  153.7185  142.2918  161.5068 O   0  0  0  0  0  0  0  0  0  0  0  0
  152.6204  143.0237  160.9801 C   0  0  0  0  0  0  0  0  0  0  0  0
  152.5593  142.8444  159.4540 C   0  0  0  0  0  0  0  0  0  0  0  0
  152.6187  140.0166  157.1999 N   0  5  0  0  0  0  0  0  0  0  0  0
  152.1725  139.5548  155.9976 C   0  0  0  0  0  0  0  0  0  0  0  0
  152.7560  138.6614  155.3850 O   0  0  0  0  0  0  0  0  0  0  0  0
  147.8934  134.7073  153.4439 H   0  0  0  0  0  0  0  0  0  0  0  0
  147.6896  132.8990  153.7500 H   0  0  0  0  0  0  0  0  0  0  0  0
  149.1985  132.9870  155.6157 H   0  0  0  0  0  0  0  0  0  0  0  0
  149.4342  135.2956  156.6354 H   0  0  0  0  0  0  0  0  0  0  0  0
  150.7836  134.9325  155.5877 H   0  0  0  0  0  0  0  0  0  0  0  0
  149.3259  136.2252  153.8182 H   0  0  0  0  0  0  0  0  0  0  0  0
  148.9476  138.2525  153.3303 H   0  0  0  0  0  0  0  0  0  0  0  0
  148.3470  139.2975  154.5980 H   0  0  0  0  0  0  0  0  0  0  0  0
  151.2140  139.1237  153.5613 H   0  0  0  0  0  0  0  0  0  0  0  0
  150.1609  140.4941  153.4641 H   0  0  0  0  0  0  0  0  0  0  0  0
  149.2129  142.2237  154.6524 H   0  0  0  0  0  0  0  0  0  0  0  0
  148.8704  142.7304  156.3045 H   0  0  0  0  0  0  0  0  0  0  0  0
  148.2411  141.1915  155.7136 H   0  0  0  0  0  0  0  0  0  0  0  0
  153.4365  139.5821  159.5584 H   0  0  0  0  0  0  0  0  0  0  0  0
  154.5119  140.9341  159.2959 H   0  0  0  0  0  0  0  0  0  0  0  0
  152.6743  140.5177  161.7235 H   0  0  0  0  0  0  0  0  0  0  0  0
  154.4213  140.3732  161.7023 H   0  0  0  0  0  0  0  0  0  0  0  0
  151.6906  142.6947  161.4474 H   0  0  0  0  0  0  0  0  0  0  0  0
  152.7452  144.0778  161.2282 H   0  0  0  0  0  0  0  0  0  0  0  0
  153.4388  143.2915  158.9891 H   0  0  0  0  0  0  0  0  0  0  0  0
  151.6893  143.3794  159.0711 H   0  0  0  0  0  0  0  0  0  0  0  0
  1  2  2  0  0  0  0
  1 23  1  0  0  0  0
  1 24  1  0  0  0  0
  2  3  1  0  0  0  0
  2 25  1  0  0  0  0
  3  4  1  0  0  0  0
  3 26  1  0  0  0  0
  3 27  1  0  0  0  0
  4  5  1  0  0  0  0
  4 28  1  0  0  0  0
  5  6  2  0  0  0  0
  5  7  1  0  0  0  0
  7  8  1  0  0  0  0
  7 29  1  0  0  0  0
  7 30  1  0  0  0  0
  8  9  1  0  0  0  0
  8 31  1  0  0  0  0
  8 32  1  0  0  0  0
  9 21  1  0  0  0  0
  9 10  2  0  0  0  0
 10 11  1  0  0  0  0
 10 12  1  0  0  0  0
 11 33  1  0  0  0  0
 11 34  1  0  0  0  0
 11 35  1  0  0  0  0
 12 13  2  0  0  0  0
 13 14  1  0  0  0  0
 13 20  1  0  0  0  0
 14 19  1  0  0  0  0
 14 15  1  0  0  0  0
 15 16  1  0  0  0  0
 15 36  1  0  0  0  0
 15 37  1  0  0  0  0
 16 17  1  0  0  0  0
 16 38  1  0  0  0  0
 16 39  1  0  0  0  0
 17 18  1  0  0  0  0
 18 19  1  0  0  0  0
 18 40  1  0  0  0  0
 18 41  1  0  0  0  0
 19 42  1  0  0  0  0
 19 43  1  0  0  0  0
 20 21  1  0  0  0  0
 21 22  2  0  0  0  0
M  CHG  1  20  -1
M  END
> <s_m_source_file>
AV-unprocessed.smi

> <i_m_source_file_index>
1503

> <i_lp_mmshare_version>
43012

> <i_f3d_flags>
0

> <s_epik_input>
W0NIMl09W0NIXVtDSDJdW05IXUMoPU8pW0NIMl1bQ0gyXWMxYyhbQ0gzXSluYyhbbkhdYzE9TylOMltDSDJdW0NIMl1PW0NIMl1bQ0gyXTI=

> <s_epik_cmdline>
J2VwaWtfcHl0aG9uJywgJy1waCcsICc3LjAnLCAnLXRuJywgJzgnLCAnLW1hJywgJzIwMCcsICctbWV0YWxfYmluZGluZycsICctaW1hZScsICc8aW5maWxlLm1hZT4nLCAnLW9tYWUnLCAnPG91dGZpbGUubWFlPic=

> <r_lp_tautomer_probability>
1

> <r_epik_Ionization_Penalty>
5.02457

> <r_epik_Ionization_Penalty_Charging>
9.64055e-08

> <r_epik_Ionization_Penalty_Neutral>
5.02457

> <r_epik_State_Penalty>
2.56428

> <r_epik_Charging_Adjusted_Penalty>
2.56428

> <i_epik_Tot_Q>
-1

> <i_epik_Tot_abs_Q>
1

> <r_epik_Metal_State_Penalty>
0.122481

> <b_epik_Metal_Only>
0

> <s_lp_Force_Field>
OPLS_2005

> <r_lp_Energy>
26.3767

> <b_lp_Chiralities_Consistent>
1

> <s_lp_Variant>
AV-unprocessed.smi:1503-3

> <Gold.Version>
5.8.1

> <Gold.Id.Protein>
6NUR|6NUR_protein|mol2

> <Gold.PLP.Fitness>
47.4515

> <Gold.PLP.PLP>
-39.7624

> <Gold.PLP.part.hbond>
-2.5625

> <Gold.PLP.part.metal>
0.0000

> <Gold.PLP.part.buried>
-1.4582

> <Gold.PLP.part.nonpolar>
-34.4495

> <Gold.PLP.part.repulsive>
0.0927

> <Gold.PLP.ligand.clash>
0.0000

> <Gold.PLP.ligand.torsion>
0.8292

> <Gold.PLP.Chemscore.Hbond>
3.0000

> <Gold.PLP.Chemscore.CHOScore>
0.0000

> <Gold.PLP.Chemscore.Metal>
0.0000

> <Gold.Chemscore.Hbonds>
donor molecule, donor type, donor heavy atom, donor atom, acceptor molecule, acceptor atom, score
      L1  H     4    28       P1  7948  1.00
      P1  H  7997  8009       L1    20  1.40

> <Gold.PLP.Chemscore.Internal.Correction>
0.3475

> <Gold.Rescore>
     Score         DG    S(hbond)    S(metal)    S(lipo)     H(rot)  DE(clash)    DE(int)     intcor
     13.14     -16.08       1.63        0.00      85.16       1.87       0.61       2.34       ----

> <Gold.Chemscore.Fitness>
13.1359

> <Gold.Chemscore.DG>
-16.0817

> <Gold.Chemscore.ZeroCoef>
-5.4800

> <Gold.Chemscore.Hbond>
1.6265

> <Gold.Chemscore.Metal>
0.0000

> <Gold.Chemscore.Lipo>
85.1579

> <Gold.Chemscore.Internal_Hbond>
0.0000

> <Gold.Chemscore.DEClash>
0.6055

> <Gold.Chemscore.DEInternal>
2.3403

> <Gold.Chemscore.Rot>
1.8727

> <Gold.Chemscore.Internal.Correction>
   9.000000E+99

> <Gold.Chemscore.Hbonds>
donor molecule, donor type, donor heavy atom, donor atom, acceptor molecule, acceptor atom, score
      L1  H     4    28       P1  7948  0.84
      P1  H  7997  8009       L1    20  0.07

> <Gold.Chemscore.Hbond.Weighted>
-5.4324

> <Gold.Chemscore.Metal.Weighted>
-0.0000

> <Gold.Chemscore.Lipo.Weighted>
-9.9635

> <Gold.Chemscore.Internal_Hbond.Weighted>
0.0000

> <Gold.Chemscore.DEClash.Weighted>
0.6055

> <Gold.Chemscore.DEInternal.Weighted>
2.3403

> <Gold.Chemscore.Rot.Weighted>
4.7942

> <Gold.Chemscore.Internal.Correction.Weighted>
   9.000000E+99

> <Gold.Protein.RotatedTorsions>
[ 6907 6896 6895 6894 ] final  134.40 input  -60.11 | X-H torsion
[ 7974 7965 7964 7962 ] final    8.81 input  175.53 | X-H torsion
[ 8008 7997 7996 7995 ] final  177.97 input   59.86 | X-H torsion
[ 10167 10162 10161 10158 ] final  115.84 input  -65.29 | X-H torsion
[ 10718 10713 10712 10709 ] final  176.39 input   66.30 | X-H torsion
[ 10763 10752 10751 10750 ] final  177.76 input  -60.55 | X-H torsion
[ 11005 11000 10999 10996 ] final  120.29 input  -57.11 | X-H torsion

> <Gold.Protein.ActiveResidues>
 VAL166  LYS551  ARG553  GLY616  TRP617  ASP618  TYR619  PRO620  LYS621  CYS622 
 ASP623  PHE694  ASN695  SER759  ASP760  ASP761  ALA762  ILE779  LEU786  VAL792 
 PHE793  MET794  SER795  GLU796  ALA797  LYS798  CYS799  TRP800  GLU811  SER814 

> <Gold.Protein.RotatedAtoms>
  152.3117  133.5760  159.5685 H   0  0  0  0  0  0  0  0  0  0  0  0  # atno 6907 bound_to 6896
  150.7326  134.0142  159.3688 H   0  0  0  0  0  0  0  0  0  0  0  0  # atno 6908 bound_to 6896
  151.8034  135.0702  160.0454 H   0  0  0  0  0  0  0  0  0  0  0  0  # atno 6909 bound_to 6896
  146.2412  139.9878  142.8429 H   0  0  0  0  0  0  0  0  0  0  0  0  # atno 7974 bound_to 7965
  156.0598  140.1345  156.9955 H   0  0  0  0  0  0  0  0  0  0  0  0  # atno 8008 bound_to 7997
  154.4476  140.0994  156.6570 H   0  0  0  0  0  0  0  0  0  0  0  0  # atno 8009 bound_to 7997
  155.5396  140.3460  155.4446 H   0  0  0  0  0  0  0  0  0  0  0  0  # atno 8010 bound_to 7997
  139.6289  144.7112  151.2475 H   0  0  0  0  0  0  0  0  0  0  0  0  # atno 10167 bound_to 10162
  156.9209  130.9940  151.3004 H   0  0  0  0  0  0  0  0  0  0  0  0  # atno 10718 bound_to 10713
  154.4987  135.2782  155.1438 H   0  0  0  0  0  0  0  0  0  0  0  0  # atno 10763 bound_to 10752
  154.3080  135.6234  153.5457 H   0  0  0  0  0  0  0  0  0  0  0  0  # atno 10764 bound_to 10752
  152.9899  135.5713  154.5425 H   0  0  0  0  0  0  0  0  0  0  0  0  # atno 10765 bound_to 10752
  139.9179  134.9634  156.7784 H   0  0  0  0  0  0  0  0  0  0  0  0  # atno 11005 bound_to 11000
  145.1531  140.9634  143.4421 LP  0  0  0  0  0  0  0  0  0  0  0  0  # atno 17320 bound_to 7965
  145.0186  139.3444  143.6084 LP  0  0  0  0  0  0  0  0  0  0  0  0  # atno 17321 bound_to 7965
  140.7427  143.6517  150.8242 LP  0  0  0  0  0  0  0  0  0  0  0  0  # atno 17342 bound_to 10162
  140.0139  143.5613  152.2828 LP  0  0  0  0  0  0  0  0  0  0  0  0  # atno 17343 bound_to 10162
  157.5908  130.8442  149.8657 LP  0  0  0  0  0  0  0  0  0  0  0  0  # atno 17370 bound_to 10713
  156.0491  130.3721  150.1244 LP  0  0  0  0  0  0  0  0  0  0  0  0  # atno 17371 bound_to 10713
  140.6564  133.9685  155.7781 LP  0  0  0  0  0  0  0  0  0  0  0  0  # atno 17394 bound_to 11000
  141.0673  134.0257  157.3575 LP  0  0  0  0  0  0  0  0  0  0  0  0  # atno 17395 bound_to 11000

$$$$
