AV-unprocessed.smi:496|AV-procd|sdf|2720|dock3
  -GOLD-   2262023163D 1   1.00000     0.00000
 Structure written by MMmdl.
 41 43  0  0  0  0  0  0  0  0  2 V2000
  154.5251  135.4209  158.7169 C   0  0  0  0  0  0  0  0  0  0  0  0
  153.5619  136.1590  159.4468 O   0  0  0  0  0  0  0  0  0  0  0  0
  153.5908  137.5438  159.1402 C   0  0  0  0  0  0  0  0  0  0  0  0
  152.6126  138.2980  160.0539 C   0  0  0  0  0  0  0  0  0  0  0  0
  151.8864  139.3541  159.3430 N   0  0  0  0  0  0  0  0  0  0  0  0
  150.7242  139.3023  158.6206 C   0  0  0  0  0  0  0  0  0  0  0  0
  149.9006  138.0435  158.4043 C   0  0  2  0  0  0  0  0  0  0  0  0
  148.7823  138.2698  157.3763 C   0  0  0  0  0  0  0  0  0  0  0  0
  149.3200  137.5387  159.6505 N   0  5  0  0  0  0  0  0  0  0  0  0
  148.7148  136.3230  159.7714 C   0  0  0  0  0  0  0  0  0  0  0  0
  148.7865  135.3287  159.0407 O   0  0  0  0  0  0  0  0  0  0  0  0
  147.8255  136.2615  160.9535 C   0  0  0  0  0  0  0  0  0  0  0  0
  147.2121  135.2095  161.5855 C   0  0  0  0  0  0  0  0  0  0  0  0
  146.4518  135.7585  162.6548 C   0  0  0  0  0  0  0  0  0  0  0  0
  146.6443  137.1084  162.5959 C   0  0  0  0  0  0  0  0  0  0  0  0
  147.4697  137.4309  161.5633 O   0  0  0  0  0  0  0  0  0  0  0  0
  150.3240  140.4718  158.1096 N   0  0  0  0  0  0  0  0  0  0  0  0
  151.3072  141.3495  158.5141 C   0  0  0  0  0  0  0  0  0  0  0  0
  151.4521  142.7355  158.2782 C   0  0  0  0  0  0  0  0  0  0  0  0
  152.5613  143.4356  158.7956 C   0  0  0  0  0  0  0  0  0  0  0  0
  153.5389  142.7603  159.5541 C   0  0  0  0  0  0  0  0  0  0  0  0
  153.4111  141.3798  159.8011 C   0  0  0  0  0  0  0  0  0  0  0  0
  152.3007  140.6844  159.2833 C   0  0  0  0  0  0  0  0  0  0  0  0
  154.4605  134.3672  158.9876 H   0  0  0  0  0  0  0  0  0  0  0  0
  155.5361  135.7640  158.9403 H   0  0  0  0  0  0  0  0  0  0  0  0
  154.3552  135.5048  157.6429 H   0  0  0  0  0  0  0  0  0  0  0  0
  154.6016  137.9326  159.2705 H   0  0  0  0  0  0  0  0  0  0  0  0
  153.3161  137.7003  158.0962 H   0  0  0  0  0  0  0  0  0  0  0  0
  151.9076  137.6112  160.5228 H   0  0  0  0  0  0  0  0  0  0  0  0
  153.1629  138.7505  160.8785 H   0  0  0  0  0  0  0  0  0  0  0  0
  150.5531  137.2896  157.9643 H   0  0  0  0  0  0  0  0  0  0  0  0
  149.1938  138.6053  156.4239 H   0  0  0  0  0  0  0  0  0  0  0  0
  148.0715  139.0247  157.7148 H   0  0  0  0  0  0  0  0  0  0  0  0
  148.2267  137.3506  157.1884 H   0  0  0  0  0  0  0  0  0  0  0  0
  147.3015  134.1687  161.3104 H   0  0  0  0  0  0  0  0  0  0  0  0
  145.8398  135.2326  163.3724 H   0  0  0  0  0  0  0  0  0  0  0  0
  146.2857  137.9443  163.1782 H   0  0  0  0  0  0  0  0  0  0  0  0
  150.7078  143.2589  157.6969 H   0  0  0  0  0  0  0  0  0  0  0  0
  152.6629  144.4945  158.6086 H   0  0  0  0  0  0  0  0  0  0  0  0
  154.3870  143.3020  159.9462 H   0  0  0  0  0  0  0  0  0  0  0  0
  154.1611  140.8614  160.3793 H   0  0  0  0  0  0  0  0  0  0  0  0
  1  2  1  0  0  0  0
  1 24  1  0  0  0  0
  1 25  1  0  0  0  0
  1 26  1  0  0  0  0
  2  3  1  0  0  0  0
  3  4  1  0  0  0  0
  3 27  1  0  0  0  0
  3 28  1  0  0  0  0
  4  5  1  0  0  0  0
  4 29  1  0  0  0  0
  4 30  1  0  0  0  0
  5 23  1  0  0  0  0
  5  6  1  0  0  0  0
  6  7  1  0  0  0  0
  6 17  2  0  0  0  0
  7  8  1  0  0  0  0
  7  9  1  0  0  0  0
  7 31  1  0  0  0  0
  8 32  1  0  0  0  0
  8 33  1  0  0  0  0
  8 34  1  0  0  0  0
  9 10  1  0  0  0  0
 10 11  2  0  0  0  0
 10 12  1  0  0  0  0
 12 16  1  0  0  0  0
 12 13  2  0  0  0  0
 13 14  1  0  0  0  0
 13 35  1  0  0  0  0
 14 15  2  0  0  0  0
 14 36  1  0  0  0  0
 15 16  1  0  0  0  0
 15 37  1  0  0  0  0
 17 18  1  0  0  0  0
 18 23  2  0  0  0  0
 18 19  1  0  0  0  0
 19 20  2  0  0  0  0
 19 38  1  0  0  0  0
 20 21  1  0  0  0  0
 20 39  1  0  0  0  0
 21 22  2  0  0  0  0
 21 40  1  0  0  0  0
 22 23  1  0  0  0  0
 22 41  1  0  0  0  0
M  CHG  1   9  -1
M  END
> <s_m_source_file>
AV-unprocessed.smi

> <i_m_source_file_index>
496

> <i_lp_mmshare_version>
43012

> <i_f3d_flags>
0

> <s_epik_input>
W2NIXTFbY0hdW2NIXVtjSF1jKGMxMiluKFtDSDJdW0NIMl1PW0NIM10pYyhuMilbQ0BIXShbQ0gzXSlbTkhdQyg9TyljM1tjSF1bY0hdW2NIXW8z

> <s_epik_cmdline>
J2VwaWtfcHl0aG9uJywgJy1waCcsICc3LjAnLCAnLXRuJywgJzgnLCAnLW1hJywgJzIwMCcsICctbWV0YWxfYmluZGluZycsICctaW1hZScsICc8aW5maWxlLm1hZT4nLCAnLW9tYWUnLCAnPG91dGZpbGUubWFlPic=

> <r_epik_Ionization_Penalty>
7.3423

> <r_epik_Ionization_Penalty_Charging>
6.43826

> <r_epik_Ionization_Penalty_Neutral>
0.90404

> <r_epik_State_Penalty>
6.54438

> <r_epik_Charging_Adjusted_Penalty>
12.9826

> <i_epik_Tot_Q>
-1

> <i_epik_Tot_abs_Q>
1

> <r_epik_Metal_State_Penalty>
2.56942

> <b_epik_Metal_Only>
1

> <s_lp_Force_Field>
OPLS_2005

> <r_lp_Energy>
15.948

> <b_lp_Chiralities_Consistent>
1

> <s_lp_Variant>
AV-unprocessed.smi:496-5

> <Gold.Version>
5.8.1

> <Gold.Id.Protein>
6NUR|6NUR_protein|mol2

> <Gold.PLP.Fitness>
53.5916

> <Gold.PLP.PLP>
-44.2346

> <Gold.PLP.part.hbond>
-5.0000

> <Gold.PLP.part.metal>
0.0000

> <Gold.PLP.part.buried>
-6.4070

> <Gold.PLP.part.nonpolar>
-33.9954

> <Gold.PLP.part.repulsive>
0.0000

> <Gold.PLP.ligand.clash>
0.0000

> <Gold.PLP.ligand.torsion>
1.0170

> <Gold.PLP.Chemscore.Hbond>
3.7280

> <Gold.PLP.Chemscore.CHOScore>
0.0000

> <Gold.PLP.Chemscore.Metal>
0.0000

> <Gold.Chemscore.Hbonds>
donor molecule, donor type, donor heavy atom, donor atom, acceptor molecule, acceptor atom, score
      P1  H  6896  6908       L1    11  0.84
      P1  H  6896  6909       L1     2  1.00
      P1  H  6931  6943       L1    16  0.82
      P1  H  6934  6947       L1    16  0.80

> <Gold.PLP.Chemscore.Internal.Correction>
0.2069

> <Gold.Rescore>
     Score         DG    S(hbond)    S(metal)    S(lipo)     H(rot)  DE(clash)    DE(int)     intcor
     22.38     -23.53       3.02        0.00     107.17       1.78       0.10       1.05       ----

> <Gold.Chemscore.Fitness>
22.3826

> <Gold.Chemscore.DG>
-23.5293

> <Gold.Chemscore.ZeroCoef>
-5.4800

> <Gold.Chemscore.Hbond>
3.0156

> <Gold.Chemscore.Metal>
0.0000

> <Gold.Chemscore.Lipo>
107.1683

> <Gold.Chemscore.Internal_Hbond>
0.0000

> <Gold.Chemscore.DEClash>
0.0961

> <Gold.Chemscore.DEInternal>
1.0506

> <Gold.Chemscore.Rot>
1.7819

> <Gold.Chemscore.Internal.Correction>
   9.000000E+99

> <Gold.Chemscore.Hbonds>
donor molecule, donor type, donor heavy atom, donor atom, acceptor molecule, acceptor atom, score
      P1  H  6896  6908       L1    11  0.37
      P1  H  6896  6909       L1     2  0.54
      P1  H  6931  6943       L1    16  0.39
      P1  H  6934  6947       L1    16  0.68

> <Gold.Chemscore.Hbond.Weighted>
-10.0722

> <Gold.Chemscore.Metal.Weighted>
-0.0000

> <Gold.Chemscore.Lipo.Weighted>
-12.5387

> <Gold.Chemscore.Internal_Hbond.Weighted>
0.0000

> <Gold.Chemscore.DEClash.Weighted>
0.0961

> <Gold.Chemscore.DEInternal.Weighted>
1.0506

> <Gold.Chemscore.Rot.Weighted>
4.5617

> <Gold.Chemscore.Internal.Correction.Weighted>
   9.000000E+99

> <Gold.Protein.RotatedTorsions>
[ 6907 6896 6895 6894 ] final  162.23 input  -60.11 | X-H torsion
[ 7974 7965 7964 7962 ] final   18.36 input  175.53 | X-H torsion
[ 8008 7997 7996 7995 ] final  -60.53 input   59.86 | X-H torsion
[ 10167 10162 10161 10158 ] final  149.72 input  -65.29 | X-H torsion
[ 10718 10713 10712 10709 ] final   31.52 input   66.30 | X-H torsion
[ 10763 10752 10751 10750 ] final  -15.35 input  -60.55 | X-H torsion
[ 11005 11000 10999 10996 ] final  -90.95 input  -57.11 | X-H torsion

> <Gold.Protein.ActiveResidues>
 VAL166  LYS551  ARG553  GLY616  TRP617  ASP618  TYR619  PRO620  LYS621  CYS622 
 ASP623  PHE694  ASN695  SER759  ASP760  ASP761  ALA762  ILE779  LEU786  VAL792 
 PHE793  MET794  SER795  GLU796  ALA797  LYS798  CYS799  TRP800  GLU811  SER814 

> <Gold.Protein.RotatedAtoms>
  151.9436  133.3645  159.3973 H   0  0  0  0  0  0  0  0  0  0  0  0  # atno 6907 bound_to 6896
  150.6994  134.4414  159.5303 H   0  0  0  0  0  0  0  0  0  0  0  0  # atno 6908 bound_to 6896
  152.2075  134.8532  160.0552 H   0  0  0  0  0  0  0  0  0  0  0  0  # atno 6909 bound_to 6896
  146.2187  139.8468  142.8630 H   0  0  0  0  0  0  0  0  0  0  0  0  # atno 7974 bound_to 7965
  154.4403  140.1037  156.6288 H   0  0  0  0  0  0  0  0  0  0  0  0  # atno 8008 bound_to 7997
  155.5627  140.3488  155.4476 H   0  0  0  0  0  0  0  0  0  0  0  0  # atno 8009 bound_to 7997
  156.0448  140.1290  157.0105 H   0  0  0  0  0  0  0  0  0  0  0  0  # atno 8010 bound_to 7997
  139.4858  144.5579  151.7284 H   0  0  0  0  0  0  0  0  0  0  0  0  # atno 10167 bound_to 10162
  157.2735  130.7220  149.6517 H   0  0  0  0  0  0  0  0  0  0  0  0  # atno 10718 bound_to 10713
  153.5420  135.7013  153.5632 H   0  0  0  0  0  0  0  0  0  0  0  0  # atno 10763 bound_to 10752
  153.3593  135.3974  155.1706 H   0  0  0  0  0  0  0  0  0  0  0  0  # atno 10764 bound_to 10752
  154.8672  135.3785  154.4925 H   0  0  0  0  0  0  0  0  0  0  0  0  # atno 10765 bound_to 10752
  141.1555  133.7724  156.9810 H   0  0  0  0  0  0  0  0  0  0  0  0  # atno 11005 bound_to 11000
  145.2842  141.0148  143.3700 LP  0  0  0  0  0  0  0  0  0  0  0  0  # atno 17320 bound_to 7965
  144.9126  139.4509  143.6579 LP  0  0  0  0  0  0  0  0  0  0  0  0  # atno 17321 bound_to 7965
  140.5144  144.0975  150.6004 LP  0  0  0  0  0  0  0  0  0  0  0  0  # atno 17342 bound_to 10162
  140.3912  143.2751  152.0058 LP  0  0  0  0  0  0  0  0  0  0  0  0  # atno 17343 bound_to 10162
  155.9663  130.4360  150.5115 LP  0  0  0  0  0  0  0  0  0  0  0  0  # atno 17370 bound_to 10713
  157.3045  131.0651  151.2045 LP  0  0  0  0  0  0  0  0  0  0  0  0  # atno 17371 bound_to 10713
  140.1066  134.9503  157.2002 LP  0  0  0  0  0  0  0  0  0  0  0  0  # atno 17394 bound_to 11000
  140.3249  134.2875  155.7239 LP  0  0  0  0  0  0  0  0  0  0  0  0  # atno 17395 bound_to 11000

$$$$
