AV-unprocessed.smi:2057|AV-procd|sdf|8343|dock5
  -GOLD-   2272011 13D 1   1.00000     0.00000
 Structure written by MMmdl.
 45 47  0  0  0  0  0  0  0  0  2 V2000
  145.9507  143.4224  161.0663 C   0  0  0  0  0  0  0  0  0  0  0  0
  146.2329  142.4378  160.0827 O   0  0  0  0  0  0  0  0  0  0  0  0
  145.7412  142.6330  158.8102 C   0  0  0  0  0  0  0  0  0  0  0  0
  145.0209  143.7795  158.4014 C   0  0  0  0  0  0  0  0  0  0  0  0
  144.5453  143.8899  157.0820 C   0  0  0  0  0  0  0  0  0  0  0  0
  144.7782  142.8602  156.1371 C   0  0  0  0  0  0  0  0  0  0  0  0
  144.3133  142.9067  154.8383 O   0  0  0  0  0  0  0  0  0  0  0  0
  143.5948  144.0562  154.4167 C   0  0  0  0  0  0  0  0  0  0  0  0
  145.5081  141.7147  156.5404 C   0  0  0  0  0  0  0  0  0  0  0  0
  145.7538  140.5666  155.5622 C   0  0  1  0  0  0  0  0  0  0  0  0
  144.5572  139.9435  155.1406 O   0  0  0  0  0  0  0  0  0  0  0  0
  146.5305  141.0137  154.3054 C   0  0  0  0  0  0  0  0  0  0  0  0
  147.7055  140.1697  154.0340 N   0  0  0  0  0  0  0  0  0  0  0  0
  147.8424  139.1065  153.1901 C   0  0  0  0  0  0  0  0  0  0  0  0
  146.7978  138.5361  152.2891 C   0  0  0  0  0  0  0  0  0  0  0  0
  147.3271  137.5835  151.3940 O   0  0  0  0  0  0  0  0  0  0  0  0
  149.1210  138.6529  153.3153 N   0  3  0  0  0  0  0  0  0  0  0  0
  149.8089  139.4296  154.2476 C   0  0  0  0  0  0  0  0  0  0  0  0
  151.1186  139.3476  154.7102 C   0  0  0  0  0  0  0  0  0  0  0  0
  151.5090  140.2972  155.6767 C   0  0  0  0  0  0  0  0  0  0  0  0
  150.6123  141.2795  156.1445 C   0  0  0  0  0  0  0  0  0  0  0  0
  149.2885  141.3552  155.6645 C   0  0  0  0  0  0  0  0  0  0  0  0
  148.9081  140.4104  154.7108 C   0  0  0  0  0  0  0  0  0  0  0  0
  145.9766  141.6131  157.8695 C   0  0  0  0  0  0  0  0  0  0  0  0
  146.4021  143.1249  162.0128 H   0  0  0  0  0  0  0  0  0  0  0  0
  144.8772  143.5247  161.2308 H   0  0  0  0  0  0  0  0  0  0  0  0
  146.3688  144.3920  160.7921 H   0  0  0  0  0  0  0  0  0  0  0  0
  144.8159  144.5905  159.0834 H   0  0  0  0  0  0  0  0  0  0  0  0
  143.9976  144.7821  156.8203 H   0  0  0  0  0  0  0  0  0  0  0  0
  143.2465  143.9049  153.3952 H   0  0  0  0  0  0  0  0  0  0  0  0
  144.2257  144.9460  154.4214 H   0  0  0  0  0  0  0  0  0  0  0  0
  142.7169  144.2290  155.0410 H   0  0  0  0  0  0  0  0  0  0  0  0
  146.3161  139.7828  156.0693 H   0  0  0  0  0  0  0  0  0  0  0  0
  144.5403  139.9318  154.1959 H   0  0  0  0  0  0  0  0  0  0  0  0
  145.8871  140.9419  153.4273 H   0  0  0  0  0  0  0  0  0  0  0  0
  146.8344  142.0584  154.3709 H   0  0  0  0  0  0  0  0  0  0  0  0
  146.0182  138.0665  152.8895 H   0  0  0  0  0  0  0  0  0  0  0  0
  146.3255  139.3371  151.7209 H   0  0  0  0  0  0  0  0  0  0  0  0
  147.6755  136.8607  151.8939 H   0  0  0  0  0  0  0  0  0  0  0  0
  151.8074  138.5957  154.3535 H   0  0  0  0  0  0  0  0  0  0  0  0
  152.5161  140.2721  156.0671 H   0  0  0  0  0  0  0  0  0  0  0  0
  150.9455  141.9895  156.8874 H   0  0  0  0  0  0  0  0  0  0  0  0
  148.6108  142.1089  156.0364 H   0  0  0  0  0  0  0  0  0  0  0  0
  146.5182  140.7333  158.1850 H   0  0  0  0  0  0  0  0  0  0  0  0
  149.4932  137.8676  152.7970 H   0  0  0  0  0  0  0  0  0  0  0  0
  1  2  1  0  0  0  0
  1 25  1  0  0  0  0
  1 26  1  0  0  0  0
  1 27  1  0  0  0  0
  2  3  1  0  0  0  0
  3 24  1  0  0  0  0
  3  4  2  0  0  0  0
  4  5  1  0  0  0  0
  4 28  1  0  0  0  0
  5  6  2  0  0  0  0
  5 29  1  0  0  0  0
  6  7  1  0  0  0  0
  6  9  1  0  0  0  0
  7  8  1  0  0  0  0
  8 30  1  0  0  0  0
  8 31  1  0  0  0  0
  8 32  1  0  0  0  0
  9 10  1  0  0  0  0
  9 24  2  0  0  0  0
 10 11  1  0  0  0  0
 10 12  1  0  0  0  0
 10 33  1  0  0  0  0
 11 34  1  0  0  0  0
 12 13  1  0  0  0  0
 12 35  1  0  0  0  0
 12 36  1  0  0  0  0
 13 23  1  0  0  0  0
 13 14  1  0  0  0  0
 14 15  1  0  0  0  0
 14 17  2  0  0  0  0
 15 16  1  0  0  0  0
 15 37  1  0  0  0  0
 15 38  1  0  0  0  0
 16 39  1  0  0  0  0
 17 18  1  0  0  0  0
 17 45  1  0  0  0  0
 18 23  2  0  0  0  0
 18 19  1  0  0  0  0
 19 20  2  0  0  0  0
 19 40  1  0  0  0  0
 20 21  1  0  0  0  0
 20 41  1  0  0  0  0
 21 22  2  0  0  0  0
 21 42  1  0  0  0  0
 22 23  1  0  0  0  0
 22 43  1  0  0  0  0
 24 44  1  0  0  0  0
M  CHG  1  17   1
M  END
> <s_m_source_file>
AV-unprocessed.smi

> <i_m_source_file_index>
2057

> <i_lp_mmshare_version>
43012

> <i_f3d_flags>
0

> <s_epik_input>
W0NIM11PYzFbY0hdW2NIXWMoT1tDSDNdKWMoW2NIXTEpW0NASF0oW09IXSlbQ0gyXW4oYyhuMilbQ0gyXVtPSF0pYyhjMjMpW2NIXVtjSF1bY0hdW2NIXTM=

> <s_epik_cmdline>
J2VwaWtfcHl0aG9uJywgJy1waCcsICc3LjAnLCAnLXRuJywgJzgnLCAnLW1hJywgJzIwMCcsICctbWV0YWxfYmluZGluZycsICctaW1hZScsICc8aW5maWxlLm1hZT4nLCAnLW9tYWUnLCAnPG91dGZpbGUubWFlPic=

> <r_lp_tautomer_probability>
1

> <r_epik_Ionization_Penalty>
1.35643

> <r_epik_Ionization_Penalty_Charging>
1.35557

> <r_epik_Ionization_Penalty_Neutral>
0.000857128

> <r_epik_State_Penalty>
1.43401

> <r_epik_Charging_Adjusted_Penalty>
2.78958

> <i_epik_Tot_Q>
1

> <i_epik_Tot_abs_Q>
1

> <r_epik_Metal_State_Penalty>
5.47166

> <b_epik_Metal_Only>
0

> <s_lp_Force_Field>
OPLS_2005

> <r_lp_Energy>
20.8596

> <b_lp_Chiralities_Consistent>
1

> <s_lp_Variant>
AV-unprocessed.smi:2057-4

> <Gold.Version>
5.8.1

> <Gold.Id.Protein>
6NUR|6NUR_protein|mol2

> <Gold.PLP.Fitness>
57.7715

> <Gold.PLP.PLP>
-42.8692

> <Gold.PLP.part.hbond>
-6.7623

> <Gold.PLP.part.metal>
0.0000

> <Gold.PLP.part.buried>
-0.9861

> <Gold.PLP.part.nonpolar>
-35.5559

> <Gold.PLP.part.repulsive>
0.2970

> <Gold.PLP.ligand.clash>
0.0000

> <Gold.PLP.ligand.torsion>
1.1330

> <Gold.PLP.Chemscore.Hbond>
5.6800

> <Gold.PLP.Chemscore.CHOScore>
0.0000

> <Gold.PLP.Chemscore.Metal>
0.0000

> <Gold.Chemscore.Hbonds>
donor molecule, donor type, donor heavy atom, donor atom, acceptor molecule, acceptor atom, score
      L1  H    11    34       P1 10175  0.98
      L1  H    16    39       P1  7948  0.40
      L1  H    17    45       P1  7948  1.76
      P1  H  6934  6946       L1     2  1.00
      P1  H  7954  7966       L1    16  1.00

> <Gold.PLP.Chemscore.Internal.Correction>
0.1284

> <Gold.Rescore>
     Score         DG    S(hbond)    S(metal)    S(lipo)     H(rot)  DE(clash)    DE(int)     intcor
     16.21     -19.04       3.79        0.00      79.00       3.25       0.92       1.91       ----

> <Gold.Chemscore.Fitness>
16.2111

> <Gold.Chemscore.DG>
-19.0375

> <Gold.Chemscore.ZeroCoef>
-5.4800

> <Gold.Chemscore.Hbond>
3.7857

> <Gold.Chemscore.Metal>
0.0000

> <Gold.Chemscore.Lipo>
78.9967

> <Gold.Chemscore.Internal_Hbond>
0.0000

> <Gold.Chemscore.DEClash>
0.9173

> <Gold.Chemscore.DEInternal>
1.9091

> <Gold.Chemscore.Rot>
3.2537

> <Gold.Chemscore.Internal.Correction>
   9.000000E+99

> <Gold.Chemscore.Hbonds>
donor molecule, donor type, donor heavy atom, donor atom, acceptor molecule, acceptor atom, score
      L1  H    11    34       P1 10175  0.90
      L1  H    16    39       P1  7948  0.40
      L1  H    17    45       P1  7948  0.71
      P1  H  6934  6946       L1     2  0.90
      P1  H  7954  7966       L1    16  0.85

> <Gold.Chemscore.Hbond.Weighted>
-12.6444

> <Gold.Chemscore.Metal.Weighted>
-0.0000

> <Gold.Chemscore.Lipo.Weighted>
-9.2426

> <Gold.Chemscore.Internal_Hbond.Weighted>
0.0000

> <Gold.Chemscore.DEClash.Weighted>
0.9173

> <Gold.Chemscore.DEInternal.Weighted>
1.9091

> <Gold.Chemscore.Rot.Weighted>
8.3295

> <Gold.Chemscore.Internal.Correction.Weighted>
   9.000000E+99

> <Gold.Protein.RotatedTorsions>
[ 6907 6896 6895 6894 ] final  -24.71 input  -60.11 | X-H torsion
[ 7974 7965 7964 7962 ] final -124.04 input  175.53 | X-H torsion
[ 8008 7997 7996 7995 ] final   43.57 input   59.86 | X-H torsion
[ 10167 10162 10161 10158 ] final -131.81 input  -65.29 | X-H torsion
[ 10718 10713 10712 10709 ] final   93.28 input   66.30 | X-H torsion
[ 10763 10752 10751 10750 ] final -133.74 input  -60.55 | X-H torsion
[ 11005 11000 10999 10996 ] final   63.72 input  -57.11 | X-H torsion

> <Gold.Protein.ActiveResidues>
 VAL166  LYS551  ARG553  GLY616  TRP617  ASP618  TYR619  PRO620  LYS621  CYS622 
 ASP623  PHE694  ASN695  SER759  ASP760  ASP761  ALA762  ILE779  LEU786  VAL792 
 PHE793  MET794  SER795  GLU796  ALA797  LYS798  CYS799  TRP800  GLU811  SER814 

> <Gold.Protein.RotatedAtoms>
  151.1856  135.0380  159.8810 H   0  0  0  0  0  0  0  0  0  0  0  0  # atno 6907 bound_to 6896
  152.5442  134.1014  159.8329 H   0  0  0  0  0  0  0  0  0  0  0  0  # atno 6908 bound_to 6896
  151.1136  133.5108  159.2637 H   0  0  0  0  0  0  0  0  0  0  0  0  # atno 6909 bound_to 6896
  145.0123  140.7916  143.4431 H   0  0  0  0  0  0  0  0  0  0  0  0  # atno 7974 bound_to 7965
  155.3050  140.3387  155.4246 H   0  0  0  0  0  0  0  0  0  0  0  0  # atno 8008 bound_to 7997
  156.1983  140.1723  156.7991 H   0  0  0  0  0  0  0  0  0  0  0  0  # atno 8009 bound_to 7997
  154.5527  140.0702  156.8677 H   0  0  0  0  0  0  0  0  0  0  0  0  # atno 8010 bound_to 7997
  139.9151  143.6448  152.2566 H   0  0  0  0  0  0  0  0  0  0  0  0  # atno 10167 bound_to 10162
  157.6955  131.0472  150.4009 H   0  0  0  0  0  0  0  0  0  0  0  0  # atno 10718 bound_to 10713
  154.8729  135.3756  154.4622 H   0  0  0  0  0  0  0  0  0  0  0  0  # atno 10763 bound_to 10752
  153.5289  135.7028  153.5698 H   0  0  0  0  0  0  0  0  0  0  0  0  # atno 10764 bound_to 10752
  153.3912  135.3972  155.1889 H   0  0  0  0  0  0  0  0  0  0  0  0  # atno 10765 bound_to 10752
  140.0006  134.6448  155.9937 H   0  0  0  0  0  0  0  0  0  0  0  0  # atno 11005 bound_to 11000
  145.2006  139.2254  143.5195 LP  0  0  0  0  0  0  0  0  0  0  0  0  # atno 17320 bound_to 7965
  146.3472  140.1823  142.8589 LP  0  0  0  0  0  0  0  0  0  0  0  0  # atno 17321 bound_to 7965
  139.6909  144.7647  151.1440 LP  0  0  0  0  0  0  0  0  0  0  0  0  # atno 17342 bound_to 10162
  140.7676  143.5590  150.9120 LP  0  0  0  0  0  0  0  0  0  0  0  0  # atno 17343 bound_to 10162
  156.4403  130.3990  149.6702 LP  0  0  0  0  0  0  0  0  0  0  0  0  # atno 17370 bound_to 10713
  156.3887  130.7616  151.2615 LP  0  0  0  0  0  0  0  0  0  0  0  0  # atno 17371 bound_to 10713
  141.1639  133.6537  156.4411 LP  0  0  0  0  0  0  0  0  0  0  0  0  # atno 17394 bound_to 11000
  140.4735  134.6731  157.5140 LP  0  0  0  0  0  0  0  0  0  0  0  0  # atno 17395 bound_to 11000

$$$$
