AV-unprocessed.smi:226|AV-procd|sdf|1726|dock7
  -GOLD-   2262020213D 1   1.00000     0.00000
 Structure written by MMmdl.
 54 58  0  0  0  0  0  0  0  0  1 V2000
  145.6603  138.1898  161.2928 O   0  0  0  0  0  0  0  0  0  0  0  0
  145.8892  137.0408  161.6705 C   0  0  0  0  0  0  0  0  0  0  0  0
  144.9195  136.1947  162.0554 N   0  0  0  0  0  0  0  0  0  0  0  0
  143.5229  136.4802  162.0834 C   0  0  0  0  0  0  0  0  0  0  0  0
  142.6252  135.5119  162.8226 C   0  0  0  0  0  0  0  0  0  0  0  0
  142.6052  135.5508  161.3193 C   0  0  0  0  0  0  0  0  0  0  0  0
  147.3473  136.5321  161.6919 C   0  0  1  0  0  0  0  0  0  0  0  0
  147.7197  135.9158  163.0516 C   0  0  0  0  0  0  0  0  0  0  0  0
  147.3996  134.4307  162.8900 C   0  0  0  0  0  0  0  0  0  0  0  0
  147.7492  134.1551  161.4271 C   0  0  0  0  0  0  0  0  0  0  0  0
  147.6142  135.4381  160.7505 N   0  0  0  0  0  0  0  0  0  0  0  0
  147.8493  135.6187  159.4214 C   0  0  0  0  0  0  0  0  0  0  0  0
  148.9073  134.9737  158.8621 N   0  0  0  0  0  0  0  0  0  0  0  0
  149.1911  135.1217  157.5662 C   0  0  0  0  0  0  0  0  0  0  0  0
  148.5601  135.8625  156.6557 N   0  0  0  0  0  0  0  0  0  0  0  0
  147.4979  136.5190  157.2028 C   0  0  0  0  0  0  0  0  0  0  0  0
  147.0694  136.4497  158.5611 C   0  0  0  0  0  0  0  0  0  0  0  0
  145.9405  137.2455  158.7286 N   0  0  0  0  0  0  0  0  0  0  0  0
  145.7146  137.7469  157.5459 C   0  0  0  0  0  0  0  0  0  0  0  0
  146.6225  137.3898  156.5767 N   0  0  0  0  0  0  0  0  0  0  0  0
  146.5921  137.7662  155.1931 C   0  0  0  0  0  0  0  0  0  0  0  0
  145.3431  138.4001  154.5736 C   0  0  0  0  0  0  0  0  0  0  0  0
  145.5938  137.6391  153.2532 C   0  0  0  0  0  0  0  0  0  0  0  0
  144.3590  136.9487  152.6540 C   0  0  0  0  0  0  0  0  0  0  0  0
  143.3755  137.8898  152.2740 O   0  0  0  0  0  0  0  0  0  0  0  0
  146.2773  138.4195  152.1082 C   0  0  0  0  0  0  0  0  0  0  0  0
  146.9752  137.5887  151.2032 O   0  0  0  0  0  0  0  0  0  0  0  0
  146.5040  136.7094  154.0870 C   0  0  0  0  0  0  0  0  0  0  0  0
  145.1982  135.2688  162.3460 H   0  0  0  0  0  0  0  0  0  0  0  0
  143.2256  137.5274  162.1179 H   0  0  0  0  0  0  0  0  0  0  0  0
  143.0890  134.6492  163.2976 H   0  0  0  0  0  0  0  0  0  0  0  0
  141.7660  135.9255  163.3470 H   0  0  0  0  0  0  0  0  0  0  0  0
  141.7335  135.9910  160.8392 H   0  0  0  0  0  0  0  0  0  0  0  0
  143.0571  134.7156  160.7872 H   0  0  0  0  0  0  0  0  0  0  0  0
  148.0052  137.3805  161.4975 H   0  0  0  0  0  0  0  0  0  0  0  0
  148.7890  136.0409  163.2280 H   0  0  0  0  0  0  0  0  0  0  0  0
  147.1981  136.3650  163.8979 H   0  0  0  0  0  0  0  0  0  0  0  0
  147.9501  133.7962  163.5850 H   0  0  0  0  0  0  0  0  0  0  0  0
  146.3341  134.2654  163.0548 H   0  0  0  0  0  0  0  0  0  0  0  0
  148.7788  133.8059  161.3383 H   0  0  0  0  0  0  0  0  0  0  0  0
  147.0853  133.4004  161.0048 H   0  0  0  0  0  0  0  0  0  0  0  0
  150.0482  134.5699  157.2092 H   0  0  0  0  0  0  0  0  0  0  0  0
  144.8781  138.4023  157.3508 H   0  0  0  0  0  0  0  0  0  0  0  0
  147.4610  138.4082  155.0438 H   0  0  0  0  0  0  0  0  0  0  0  0
  144.4275  138.0845  155.0768 H   0  0  0  0  0  0  0  0  0  0  0  0
  145.3863  139.4866  154.4912 H   0  0  0  0  0  0  0  0  0  0  0  0
  144.6259  136.3458  151.7854 H   0  0  0  0  0  0  0  0  0  0  0  0
  143.9046  136.2675  153.3741 H   0  0  0  0  0  0  0  0  0  0  0  0
  143.3829  137.9673  151.3319 H   0  0  0  0  0  0  0  0  0  0  0  0
  145.5430  138.9871  151.5358 H   0  0  0  0  0  0  0  0  0  0  0  0
  146.9922  139.1429  152.5013 H   0  0  0  0  0  0  0  0  0  0  0  0
  147.4878  136.9688  151.6991 H   0  0  0  0  0  0  0  0  0  0  0  0
  147.4602  136.4654  153.6229 H   0  0  0  0  0  0  0  0  0  0  0  0
  145.9932  135.8039  154.4189 H   0  0  0  0  0  0  0  0  0  0  0  0
  1  2  2  0  0  0  0
  2  3  1  0  0  0  0
  2  7  1  0  0  0  0
  3  4  1  0  0  0  0
  3 29  1  0  0  0  0
  4  6  1  0  0  0  0
  4  5  1  0  0  0  0
  4 30  1  0  0  0  0
  5  6  1  0  0  0  0
  5 31  1  0  0  0  0
  5 32  1  0  0  0  0
  6 33  1  0  0  0  0
  6 34  1  0  0  0  0
  7 11  1  0  0  0  0
  7  8  1  0  0  0  0
  7 35  1  0  0  0  0
  8  9  1  0  0  0  0
  8 36  1  0  0  0  0
  8 37  1  0  0  0  0
  9 10  1  0  0  0  0
  9 38  1  0  0  0  0
  9 39  1  0  0  0  0
 10 11  1  0  0  0  0
 10 40  1  0  0  0  0
 10 41  1  0  0  0  0
 11 12  1  0  0  0  0
 12 17  1  0  0  0  0
 12 13  2  0  0  0  0
 13 14  1  0  0  0  0
 14 15  2  0  0  0  0
 14 42  1  0  0  0  0
 15 16  1  0  0  0  0
 16 20  1  0  0  0  0
 16 17  2  0  0  0  0
 17 18  1  0  0  0  0
 18 19  2  0  0  0  0
 19 20  1  0  0  0  0
 19 43  1  0  0  0  0
 20 21  1  0  0  0  0
 21 28  1  0  0  0  0
 21 22  1  0  0  0  0
 21 44  1  0  0  0  0
 22 23  1  0  0  0  0
 22 45  1  0  0  0  0
 22 46  1  0  0  0  0
 23 24  1  0  0  0  0
 23 26  1  0  0  0  0
 23 28  1  0  0  0  0
 24 25  1  0  0  0  0
 24 47  1  0  0  0  0
 24 48  1  0  0  0  0
 25 49  1  0  0  0  0
 26 27  1  0  0  0  0
 26 50  1  0  0  0  0
 26 51  1  0  0  0  0
 27 52  1  0  0  0  0
 28 53  1  0  0  0  0
 28 54  1  0  0  0  0
M  END
> <s_m_source_file>
AV-unprocessed.smi

> <i_m_source_file_index>
226

> <i_lp_mmshare_version>
43012

> <i_f3d_flags>
0

> <s_epik_input>
W0NIMl0xW0NIMl1bQ0hdMVtOSF1DKD1PKVtDQEBIXTJbQ0gyXVtDSDJdW0NIMl1OMmMobltjSF1uMyljKGMzNCluW2NIXW40W0NIXShbQ0gyXTUpW0NIMl1DNShbQ0gyXVtPSF0pW0NIMl1bT0hd

> <s_epik_cmdline>
J2VwaWtfcHl0aG9uJywgJy1waCcsICc3LjAnLCAnLXRuJywgJzgnLCAnLW1hJywgJzIwMCcsICctbWV0YWxfYmluZGluZycsICctaW1hZScsICc8aW5maWxlLm1hZT4nLCAnLW9tYWUnLCAnPG91dGZpbGUubWFlPic=

> <r_lp_tautomer_probability>
1

> <r_epik_Ionization_Penalty>
0.000818715

> <r_epik_Ionization_Penalty_Charging>
0

> <r_epik_Ionization_Penalty_Neutral>
0.000818715

> <r_epik_State_Penalty>
0.000426447

> <r_epik_Charging_Adjusted_Penalty>
0.000426447

> <i_epik_Tot_Q>
0

> <i_epik_Tot_abs_Q>
0

> <r_epik_Metal_State_Penalty>
-0

> <b_epik_Metal_Only>
0

> <s_lp_Force_Field>
OPLS_2005

> <r_lp_Energy>
62.928

> <b_lp_Chiralities_Consistent>
1

> <s_lp_Variant>
AV-unprocessed.smi:226-2

> <Gold.Version>
5.8.1

> <Gold.Id.Protein>
6NUR|6NUR_protein|mol2

> <Gold.PLP.Fitness>
48.7170

> <Gold.PLP.PLP>
-37.8630

> <Gold.PLP.part.hbond>
-5.7422

> <Gold.PLP.part.metal>
0.0000

> <Gold.PLP.part.buried>
-6.0760

> <Gold.PLP.part.nonpolar>
-27.4510

> <Gold.PLP.part.repulsive>
0.0371

> <Gold.PLP.ligand.clash>
0.0000

> <Gold.PLP.ligand.torsion>
1.4067

> <Gold.PLP.Chemscore.Hbond>
4.3660

> <Gold.PLP.Chemscore.CHOScore>
0.0000

> <Gold.PLP.Chemscore.Metal>
0.0000

> <Gold.Chemscore.Hbonds>
donor molecule, donor type, donor heavy atom, donor atom, acceptor molecule, acceptor atom, score
      L1  H    25    49       P1 10171  1.00
      L1  H    27    52       P1  7948  0.88
      P1  H  6896  6907       L1    13  0.85
      P1  H  6934  6947       L1     1  0.70
      P1  H  7954  7966       L1    27  0.85

> <Gold.PLP.Chemscore.Internal.Correction>
0.5695

> <Gold.Rescore>
     Score         DG    S(hbond)    S(metal)    S(lipo)     H(rot)  DE(clash)    DE(int)     intcor
     11.34     -15.60       3.28        0.00      69.86       3.52       0.02       4.23       ----

> <Gold.Chemscore.Fitness>
11.3409

> <Gold.Chemscore.DG>
-15.5957

> <Gold.Chemscore.ZeroCoef>
-5.4800

> <Gold.Chemscore.Hbond>
3.2828

> <Gold.Chemscore.Metal>
0.0000

> <Gold.Chemscore.Lipo>
69.8597

> <Gold.Chemscore.Internal_Hbond>
0.0000

> <Gold.Chemscore.DEClash>
0.0239

> <Gold.Chemscore.DEInternal>
4.2310

> <Gold.Chemscore.Rot>
3.5244

> <Gold.Chemscore.Internal.Correction>
   9.000000E+99

> <Gold.Chemscore.Hbonds>
donor molecule, donor type, donor heavy atom, donor atom, acceptor molecule, acceptor atom, score
      L1  H    25    49       P1 10171  0.78
      L1  H    27    52       P1  7948  0.86
      P1  H  6896  6907       L1    13  0.14
      P1  H  6934  6947       L1     1  0.59
      P1  H  7954  7966       L1    27  0.15

> <Gold.Chemscore.Hbond.Weighted>
-10.9647

> <Gold.Chemscore.Metal.Weighted>
-0.0000

> <Gold.Chemscore.Lipo.Weighted>
-8.1736

> <Gold.Chemscore.Internal_Hbond.Weighted>
0.0000

> <Gold.Chemscore.DEClash.Weighted>
0.0239

> <Gold.Chemscore.DEInternal.Weighted>
4.2310

> <Gold.Chemscore.Rot.Weighted>
9.0225

> <Gold.Chemscore.Internal.Correction.Weighted>
   9.000000E+99

> <Gold.Protein.RotatedTorsions>
[ 6907 6896 6895 6894 ] final  -96.16 input  -60.11 | X-H torsion
[ 7974 7965 7964 7962 ] final  150.51 input  175.53 | X-H torsion
[ 8008 7997 7996 7995 ] final  -62.14 input   59.86 | X-H torsion
[ 10167 10162 10161 10158 ] final   -4.74 input  -65.29 | X-H torsion
[ 10718 10713 10712 10709 ] final  -11.35 input   66.30 | X-H torsion
[ 10763 10752 10751 10750 ] final  156.21 input  -60.55 | X-H torsion
[ 11005 11000 10999 10996 ] final   -0.65 input  -57.11 | X-H torsion

> <Gold.Protein.ActiveResidues>
 VAL166  LYS551  ARG553  GLY616  TRP617  ASP618  TYR619  PRO620  LYS621  CYS622 
 ASP623  PHE694  ASN695  SER759  ASP760  ASP761  ALA762  ILE779  LEU786  VAL792 
 PHE793  MET794  SER795  GLU796  ALA797  LYS798  CYS799  TRP800  GLU811  SER814 

> <Gold.Protein.RotatedAtoms>
  150.6981  134.1545  159.4152 H   0  0  0  0  0  0  0  0  0  0  0  0  # atno 6907 bound_to 6896
  151.9527  135.0159  160.0552 H   0  0  0  0  0  0  0  0  0  0  0  0  # atno 6908 bound_to 6896
  152.1996  133.4796  159.5088 H   0  0  0  0  0  0  0  0  0  0  0  0  # atno 6909 bound_to 6896
  144.8359  139.6418  143.6038 H   0  0  0  0  0  0  0  0  0  0  0  0  # atno 7974 bound_to 7965
  154.4484  140.1002  156.6541 H   0  0  0  0  0  0  0  0  0  0  0  0  # atno 8008 bound_to 7997
  155.5366  140.3482  155.4419 H   0  0  0  0  0  0  0  0  0  0  0  0  # atno 8009 bound_to 7997
  156.0627  140.1330  156.9911 H   0  0  0  0  0  0  0  0  0  0  0  0  # atno 8010 bound_to 7997
  140.6938  143.6388  150.8454 H   0  0  0  0  0  0  0  0  0  0  0  0  # atno 10167 bound_to 10162
  156.6603  130.4980  149.6033 H   0  0  0  0  0  0  0  0  0  0  0  0  # atno 10718 bound_to 10713
  154.1807  135.2799  155.3053 H   0  0  0  0  0  0  0  0  0  0  0  0  # atno 10763 bound_to 10752
  154.6005  135.5531  153.7372 H   0  0  0  0  0  0  0  0  0  0  0  0  # atno 10764 bound_to 10752
  153.0139  135.6390  154.1946 H   0  0  0  0  0  0  0  0  0  0  0  0  # atno 10765 bound_to 10752
  140.6386  133.9510  155.8314 H   0  0  0  0  0  0  0  0  0  0  0  0  # atno 11005 bound_to 11000
  146.2658  139.6515  142.9331 LP  0  0  0  0  0  0  0  0  0  0  0  0  # atno 17320 bound_to 7965
  145.4796  141.0437  143.2653 LP  0  0  0  0  0  0  0  0  0  0  0  0  # atno 17321 bound_to 7965
  140.0104  143.5649  152.2841 LP  0  0  0  0  0  0  0  0  0  0  0  0  # atno 17342 bound_to 10162
  139.6370  144.7651  151.2417 LP  0  0  0  0  0  0  0  0  0  0  0  0  # atno 17343 bound_to 10162
  156.2016  130.6623  151.1174 LP  0  0  0  0  0  0  0  0  0  0  0  0  # atno 17370 bound_to 10713
  157.7112  131.0733  150.6494 LP  0  0  0  0  0  0  0  0  0  0  0  0  # atno 17371 bound_to 10713
  141.0623  134.0328  157.3641 LP  0  0  0  0  0  0  0  0  0  0  0  0  # atno 17394 bound_to 11000
  139.9088  135.0186  156.7605 LP  0  0  0  0  0  0  0  0  0  0  0  0  # atno 17395 bound_to 11000

$$$$
