AV-unprocessed.smi:3157|AV-procd|sdf|12039|dock3
  -GOLD-   2272017463D 1   1.00000     0.00000
 Structure written by MMmdl.
 40 41  0  0  0  0  0  0  0  0  2 V2000
  147.6248  141.9643  156.6244 C   0  0  0  0  0  0  0  0  0  0  0  0
  148.9395  141.2047  156.3476 C   0  0  2  0  0  0  0  0  0  0  0  0
  150.0626  142.1621  156.2249 N   0  3  0  0  0  0  0  0  0  0  0  0
  151.1733  141.9619  157.1794 C   0  0  0  0  0  0  0  0  0  0  0  0
  151.1670  143.0457  158.2691 C   0  0  0  0  0  0  0  0  0  0  0  0
  151.7480  144.3818  157.8026 C   0  0  0  0  0  0  0  0  0  0  0  0
  152.0662  145.1313  159.0978 C   0  0  0  0  0  0  0  0  0  0  0  0
  152.3873  144.0501  160.1398 C   0  0  0  0  0  0  0  0  0  0  0  0
  152.0199  142.7047  159.4978 C   0  0  0  0  0  0  0  0  0  0  0  0
  148.8688  140.3177  155.0754 C   0  0  1  0  0  0  0  0  0  0  0  0
  148.6690  141.1455  153.7909 C   0  0  0  0  0  0  0  0  0  0  0  0
  150.0350  139.4542  154.9359 N   0  0  0  0  0  0  0  0  0  0  0  0
  150.0703  138.0805  154.8117 C   0  0  0  0  0  0  0  0  0  0  0  0
  151.3814  137.7126  154.7135 C   0  0  0  0  0  0  0  0  0  0  0  0
  152.0853  138.9467  154.7838 C   0  0  0  0  0  0  0  0  0  0  0  0
  151.2781  139.9865  154.9173 N   0  0  0  0  0  0  0  0  0  0  0  0
  146.7930  141.2831  156.8035 H   0  0  0  0  0  0  0  0  0  0  0  0
  147.3541  142.6027  155.7828 H   0  0  0  0  0  0  0  0  0  0  0  0
  147.6997  142.5972  157.5083 H   0  0  0  0  0  0  0  0  0  0  0  0
  149.1402  140.5517  157.1989 H   0  0  0  0  0  0  0  0  0  0  0  0
  150.4488  142.0624  155.2969 H   0  0  0  0  0  0  0  0  0  0  0  0
  151.1121  140.9736  157.6353 H   0  0  0  0  0  0  0  0  0  0  0  0
  152.1149  142.0009  156.6301 H   0  0  0  0  0  0  0  0  0  0  0  0
  150.1408  143.2236  158.5954 H   0  0  0  0  0  0  0  0  0  0  0  0
  152.6691  144.2151  157.2415 H   0  0  0  0  0  0  0  0  0  0  0  0
  151.0636  144.9357  157.1592 H   0  0  0  0  0  0  0  0  0  0  0  0
  152.8836  145.8415  158.9701 H   0  0  0  0  0  0  0  0  0  0  0  0
  151.1898  145.6961  159.4184 H   0  0  0  0  0  0  0  0  0  0  0  0
  153.4421  144.0673  160.4169 H   0  0  0  0  0  0  0  0  0  0  0  0
  151.8103  144.2197  161.0496 H   0  0  0  0  0  0  0  0  0  0  0  0
  151.4994  142.0452  160.1931 H   0  0  0  0  0  0  0  0  0  0  0  0
  152.9339  142.1954  159.1886 H   0  0  0  0  0  0  0  0  0  0  0  0
  148.0064  139.6565  155.1766 H   0  0  0  0  0  0  0  0  0  0  0  0
  147.7359  141.7084  153.8156 H   0  0  0  0  0  0  0  0  0  0  0  0
  148.6330  140.5001  152.9125 H   0  0  0  0  0  0  0  0  0  0  0  0
  149.4811  141.8584  153.6435 H   0  0  0  0  0  0  0  0  0  0  0  0
  149.1698  137.4841  154.8056 H   0  0  0  0  0  0  0  0  0  0  0  0
  151.7778  136.7137  154.6065 H   0  0  0  0  0  0  0  0  0  0  0  0
  153.1512  139.1165  154.7432 H   0  0  0  0  0  0  0  0  0  0  0  0
  149.7025  143.1007  156.3217 H   0  0  0  0  0  0  0  0  0  0  0  0
  1  2  1  0  0  0  0
  1 17  1  0  0  0  0
  1 18  1  0  0  0  0
  1 19  1  0  0  0  0
  2  3  1  0  0  0  0
  2 10  1  0  0  0  0
  2 20  1  0  0  0  0
  3  4  1  0  0  0  0
  3 21  1  0  0  0  0
  3 40  1  0  0  0  0
  4  5  1  0  0  0  0
  4 22  1  0  0  0  0
  4 23  1  0  0  0  0
  5  9  1  0  0  0  0
  5  6  1  0  0  0  0
  5 24  1  0  0  0  0
  6  7  1  0  0  0  0
  6 25  1  0  0  0  0
  6 26  1  0  0  0  0
  7  8  1  0  0  0  0
  7 27  1  0  0  0  0
  7 28  1  0  0  0  0
  8  9  1  0  0  0  0
  8 29  1  0  0  0  0
  8 30  1  0  0  0  0
  9 31  1  0  0  0  0
  9 32  1  0  0  0  0
 10 11  1  0  0  0  0
 10 12  1  0  0  0  0
 10 33  1  0  0  0  0
 11 34  1  0  0  0  0
 11 35  1  0  0  0  0
 11 36  1  0  0  0  0
 12 16  1  0  0  0  0
 12 13  1  0  0  0  0
 13 14  2  0  0  0  0
 13 37  1  0  0  0  0
 14 15  1  0  0  0  0
 14 38  1  0  0  0  0
 15 16  2  0  0  0  0
 15 39  1  0  0  0  0
M  CHG  1   3   1
M  END
> <s_m_source_file>
AV-unprocessed.smi

> <i_m_source_file_index>
3157

> <i_lp_mmshare_version>
43012

> <i_f3d_flags>
0

> <s_epik_input>
bjFbY0hdW2NIXVtjSF1uMVtDQEBIXShbQ0gzXSlbQ0BIXShbQ0gzXSlbTkhdW0NIMl1bQ0hdMltDSDJdW0NIMl1bQ0gyXVtDSDJdMg==

> <s_epik_cmdline>
J2VwaWtfcHl0aG9uJywgJy1waCcsICc3LjAnLCAnLXRuJywgJzgnLCAnLW1hJywgJzIwMCcsICctbWV0YWxfYmluZGluZycsICctaW1hZScsICc8aW5maWxlLm1hZT4nLCAnLW9tYWUnLCAnPG91dGZpbGUubWFlPic=

> <r_lp_tautomer_probability>
1

> <r_epik_Ionization_Penalty>
0.00132192

> <r_epik_Ionization_Penalty_Charging>
0.0013111

> <r_epik_Ionization_Penalty_Neutral>
1.08112e-05

> <r_epik_State_Penalty>
-0

> <r_epik_Charging_Adjusted_Penalty>
0.0013111

> <i_epik_Tot_Q>
1

> <i_epik_Tot_abs_Q>
1

> <r_epik_Metal_State_Penalty>
-0

> <b_epik_Metal_Only>
0

> <s_lp_Force_Field>
OPLS_2005

> <r_lp_Energy>
31.1874

> <b_lp_Chiralities_Consistent>
1

> <s_lp_Variant>
AV-unprocessed.smi:3157-3

> <Gold.Version>
5.8.1

> <Gold.Id.Protein>
6NUR|6NUR_protein|mol2

> <Gold.PLP.Fitness>
46.0757

> <Gold.PLP.PLP>
-39.6959

> <Gold.PLP.part.hbond>
-2.0000

> <Gold.PLP.part.metal>
0.0000

> <Gold.PLP.part.buried>
-2.4369

> <Gold.PLP.part.nonpolar>
-34.4118

> <Gold.PLP.part.repulsive>
0.1508

> <Gold.PLP.ligand.clash>
0.0000

> <Gold.PLP.ligand.torsion>
1.3552

> <Gold.PLP.Chemscore.Hbond>
3.0000

> <Gold.PLP.Chemscore.CHOScore>
0.0000

> <Gold.PLP.Chemscore.Metal>
0.0000

> <Gold.Chemscore.Hbonds>
donor molecule, donor type, donor heavy atom, donor atom, acceptor molecule, acceptor atom, score
      L1  H     3    40       P1  8028  2.00
      P1  H  7989  7998       L1    16  1.00

> <Gold.PLP.Chemscore.Internal.Correction>
0.0901

> <Gold.Rescore>
     Score         DG    S(hbond)    S(metal)    S(lipo)     H(rot)  DE(clash)    DE(int)     intcor
     17.78     -20.21       1.84        0.00     106.38       1.50       0.04       2.39       ----

> <Gold.Chemscore.Fitness>
17.7844

> <Gold.Chemscore.DG>
-20.2143

> <Gold.Chemscore.ZeroCoef>
-5.4800

> <Gold.Chemscore.Hbond>
1.8384

> <Gold.Chemscore.Metal>
0.0000

> <Gold.Chemscore.Lipo>
106.3766

> <Gold.Chemscore.Internal_Hbond>
0.0000

> <Gold.Chemscore.DEClash>
0.0370

> <Gold.Chemscore.DEInternal>
2.3929

> <Gold.Chemscore.Rot>
1.5047

> <Gold.Chemscore.Internal.Correction>
   9.000000E+99

> <Gold.Chemscore.Hbonds>
donor molecule, donor type, donor heavy atom, donor atom, acceptor molecule, acceptor atom, score
      L1  H     3    40       P1  8028  0.97
      P1  H  7989  7998       L1    16  0.26

> <Gold.Chemscore.Hbond.Weighted>
-6.1402

> <Gold.Chemscore.Metal.Weighted>
-0.0000

> <Gold.Chemscore.Lipo.Weighted>
-12.4461

> <Gold.Chemscore.Internal_Hbond.Weighted>
0.0000

> <Gold.Chemscore.DEClash.Weighted>
0.0370

> <Gold.Chemscore.DEInternal.Weighted>
2.3929

> <Gold.Chemscore.Rot.Weighted>
3.8520

> <Gold.Chemscore.Internal.Correction.Weighted>
   9.000000E+99

> <Gold.Protein.RotatedTorsions>
[ 6907 6896 6895 6894 ] final  163.87 input  -60.11 | X-H torsion
[ 7974 7965 7964 7962 ] final -166.07 input  175.53 | X-H torsion
[ 8008 7997 7996 7995 ] final   11.35 input   59.86 | X-H torsion
[ 10167 10162 10161 10158 ] final  100.70 input  -65.29 | X-H torsion
[ 10718 10713 10712 10709 ] final   56.56 input   66.30 | X-H torsion
[ 10763 10752 10751 10750 ] final -133.00 input  -60.55 | X-H torsion
[ 11005 11000 10999 10996 ] final   21.93 input  -57.11 | X-H torsion

> <Gold.Protein.ActiveResidues>
 VAL166  LYS551  ARG553  GLY616  TRP617  ASP618  TYR619  PRO620  LYS621  CYS622 
 ASP623  PHE694  ASN695  SER759  ASP760  ASP761  ALA762  ILE779  LEU786  VAL792 
 PHE793  MET794  SER795  GLU796  ALA797  LYS798  CYS799  TRP800  GLU811  SER814 

> <Gold.Protein.RotatedAtoms>
  151.9185  133.3579  159.3888 H   0  0  0  0  0  0  0  0  0  0  0  0  # atno 6907 bound_to 6896
  150.7042  134.4659  159.5412 H   0  0  0  0  0  0  0  0  0  0  0  0  # atno 6908 bound_to 6896
  152.2278  134.8351  160.0528 H   0  0  0  0  0  0  0  0  0  0  0  0  # atno 6909 bound_to 6896
  144.7254  140.2721  143.6249 H   0  0  0  0  0  0  0  0  0  0  0  0  # atno 7974 bound_to 7965
  154.8057  140.2859  155.5889 H   0  0  0  0  0  0  0  0  0  0  0  0  # atno 8008 bound_to 7997
  156.2982  140.2578  156.2864 H   0  0  0  0  0  0  0  0  0  0  0  0  # atno 8009 bound_to 7997
  154.9506  140.0379  157.2131 H   0  0  0  0  0  0  0  0  0  0  0  0  # atno 8010 bound_to 7997
  139.7503  144.6986  151.0442 H   0  0  0  0  0  0  0  0  0  0  0  0  # atno 10167 bound_to 10162
  157.5441  130.8718  149.8865 H   0  0  0  0  0  0  0  0  0  0  0  0  # atno 10718 bound_to 10713
  154.8737  135.3780  154.4501 H   0  0  0  0  0  0  0  0  0  0  0  0  # atno 10763 bound_to 10752
  153.5178  135.7029  153.5752 H   0  0  0  0  0  0  0  0  0  0  0  0  # atno 10764 bound_to 10752
  153.4013  135.3947  155.1955 H   0  0  0  0  0  0  0  0  0  0  0  0  # atno 10765 bound_to 10752
  140.3862  134.1868  155.7663 H   0  0  0  0  0  0  0  0  0  0  0  0  # atno 11005 bound_to 11000
  145.8033  139.1973  143.2035 LP  0  0  0  0  0  0  0  0  0  0  0  0  # atno 17320 bound_to 7965
  146.0658  140.7922  142.9712 LP  0  0  0  0  0  0  0  0  0  0  0  0  # atno 17321 bound_to 7965
  140.7797  143.4817  151.0010 LP  0  0  0  0  0  0  0  0  0  0  0  0  # atno 17342 bound_to 10162
  139.8504  143.7445  152.3178 LP  0  0  0  0  0  0  0  0  0  0  0  0  # atno 17343 bound_to 10162
  156.0521  130.3715  150.1177 LP  0  0  0  0  0  0  0  0  0  0  0  0  # atno 17370 bound_to 10713
  156.9355  130.9727  151.3525 LP  0  0  0  0  0  0  0  0  0  0  0  0  # atno 17371 bound_to 10713
  141.1907  133.8212  157.0909 LP  0  0  0  0  0  0  0  0  0  0  0  0  # atno 17394 bound_to 11000
  140.0441  134.9839  157.1017 LP  0  0  0  0  0  0  0  0  0  0  0  0  # atno 17395 bound_to 11000

$$$$
