AV-unprocessed.smi:3335|AV-procd|sdf|12842|dock5
  -GOLD-   2272019223D 1   1.00000     0.00000
 Structure written by MMmdl.
 47 48  0  0  0  0  0  0  0  0  2 V2000
  151.1488  142.5528  157.1266 C   0  0  0  0  0  0  0  0  0  0  0  0
  150.6627  141.5229  156.1479 C   0  0  0  0  0  0  0  0  0  0  0  0
  149.5668  141.6235  155.2451 C   0  0  0  0  0  0  0  0  0  0  0  0
  149.3994  140.5312  154.5182 N   0  0  0  0  0  0  0  0  0  0  0  0
  150.3857  139.6989  154.9200 N   0  0  0  0  0  0  0  0  0  0  0  0
  150.5127  138.3672  154.3375 C   0  0  1  0  0  0  0  0  0  0  0  0
  151.9967  137.9551  154.3227 C   0  0  0  0  0  0  0  0  0  0  0  0
  149.5971  137.3351  155.0510 C   0  0  2  0  0  0  0  0  0  0  0  0
  149.7721  137.3566  156.5815 C   0  0  0  0  0  0  0  0  0  0  0  0
  149.8787  135.9718  154.5378 N   0  3  0  0  0  0  0  0  0  0  0  0
  149.3334  134.8433  155.3293 C   0  0  1  0  0  0  0  0  0  0  0  0
  147.8831  135.1348  155.7598 C   0  0  0  0  0  0  0  0  0  0  0  0
  149.3820  133.5433  154.5035 C   0  0  0  0  0  0  0  0  0  0  0  0
  148.6884  133.4592  153.4882 O   0  0  0  0  0  0  0  0  0  0  0  0
  150.1616  132.5191  154.9165 N   0  0  0  0  0  0  0  0  0  0  0  0
  151.0185  132.5982  156.0991 C   0  0  0  0  0  0  0  0  0  0  0  0
  151.9482  131.3879  156.0222 C   0  0  0  0  0  0  0  0  0  0  0  0
  151.1591  130.3673  155.2165 C   0  0  0  0  0  0  0  0  0  0  0  0
  150.3013  131.2114  154.2724 C   0  0  0  0  0  0  0  0  0  0  0  0
  151.1554  140.2709  155.9115 C   0  0  0  0  0  0  0  0  0  0  0  0
  150.3440  143.2119  157.4531 H   0  0  0  0  0  0  0  0  0  0  0  0
  151.9253  143.1832  156.6932 H   0  0  0  0  0  0  0  0  0  0  0  0
  151.5688  142.0935  158.0217 H   0  0  0  0  0  0  0  0  0  0  0  0
  148.8902  142.4526  155.0989 H   0  0  0  0  0  0  0  0  0  0  0  0
  150.1844  138.4472  153.2998 H   0  0  0  0  0  0  0  0  0  0  0  0
  152.1590  137.0471  153.7429 H   0  0  0  0  0  0  0  0  0  0  0  0
  152.3728  137.7807  155.3314 H   0  0  0  0  0  0  0  0  0  0  0  0
  152.6128  138.7333  153.8708 H   0  0  0  0  0  0  0  0  0  0  0  0
  148.5616  137.5903  154.8256 H   0  0  0  0  0  0  0  0  0  0  0  0
  149.4826  138.3174  157.0059 H   0  0  0  0  0  0  0  0  0  0  0  0
  150.8075  137.1652  156.8647 H   0  0  0  0  0  0  0  0  0  0  0  0
  149.1535  136.6032  157.0686 H   0  0  0  0  0  0  0  0  0  0  0  0
  149.4917  135.8952  153.6077 H   0  0  0  0  0  0  0  0  0  0  0  0
  149.9561  134.7316  156.2144 H   0  0  0  0  0  0  0  0  0  0  0  0
  147.4520  134.2981  156.3097 H   0  0  0  0  0  0  0  0  0  0  0  0
  147.2431  135.3264  154.8973 H   0  0  0  0  0  0  0  0  0  0  0  0
  147.8226  136.0063  156.4116 H   0  0  0  0  0  0  0  0  0  0  0  0
  151.5870  133.5289  156.1385 H   0  0  0  0  0  0  0  0  0  0  0  0
  150.3939  132.5447  156.9921 H   0  0  0  0  0  0  0  0  0  0  0  0
  152.8565  131.6571  155.4810 H   0  0  0  0  0  0  0  0  0  0  0  0
  152.2422  131.0170  157.0047 H   0  0  0  0  0  0  0  0  0  0  0  0
  151.7986  129.6592  154.6881 H   0  0  0  0  0  0  0  0  0  0  0  0
  150.5132  129.7974  155.8861 H   0  0  0  0  0  0  0  0  0  0  0  0
  149.3402  130.7252  154.1028 H   0  0  0  0  0  0  0  0  0  0  0  0
  150.8015  131.3310  153.3108 H   0  0  0  0  0  0  0  0  0  0  0  0
  151.9844  139.7457  156.3630 H   0  0  0  0  0  0  0  0  0  0  0  0
  150.8808  135.8648  154.4706 H   0  0  0  0  0  0  0  0  0  0  0  0
  1  2  1  0  0  0  0
  1 21  1  0  0  0  0
  1 22  1  0  0  0  0
  1 23  1  0  0  0  0
  2 20  2  0  0  0  0
  2  3  1  0  0  0  0
  3  4  2  0  0  0  0
  3 24  1  0  0  0  0
  4  5  1  0  0  0  0
  5  6  1  0  0  0  0
  5 20  1  0  0  0  0
  6  7  1  0  0  0  0
  6  8  1  0  0  0  0
  6 25  1  0  0  0  0
  7 26  1  0  0  0  0
  7 27  1  0  0  0  0
  7 28  1  0  0  0  0
  8  9  1  0  0  0  0
  8 10  1  0  0  0  0
  8 29  1  0  0  0  0
  9 30  1  0  0  0  0
  9 31  1  0  0  0  0
  9 32  1  0  0  0  0
 10 11  1  0  0  0  0
 10 33  1  0  0  0  0
 10 47  1  0  0  0  0
 11 12  1  0  0  0  0
 11 13  1  0  0  0  0
 11 34  1  0  0  0  0
 12 35  1  0  0  0  0
 12 36  1  0  0  0  0
 12 37  1  0  0  0  0
 13 14  2  0  0  0  0
 13 15  1  0  0  0  0
 15 19  1  0  0  0  0
 15 16  1  0  0  0  0
 16 17  1  0  0  0  0
 16 38  1  0  0  0  0
 16 39  1  0  0  0  0
 17 18  1  0  0  0  0
 17 40  1  0  0  0  0
 17 41  1  0  0  0  0
 18 19  1  0  0  0  0
 18 42  1  0  0  0  0
 18 43  1  0  0  0  0
 19 44  1  0  0  0  0
 19 45  1  0  0  0  0
 20 46  1  0  0  0  0
M  CHG  1  10   1
M  END
> <s_m_source_file>
AV-unprocessed.smi

> <i_m_source_file_index>
3335

> <i_lp_mmshare_version>
43012

> <i_f3d_flags>
0

> <s_epik_input>
W0NIM11jMVtjSF1ubihbY0hdMSlbQ0BIXShbQ0gzXSlbQ0BIXShbQ0gzXSlbTkhdW0NASF0oW0NIM10pQyg9TylOMltDSDJdW0NIMl1bQ0gyXVtDSDJdMg==

> <s_epik_cmdline>
J2VwaWtfcHl0aG9uJywgJy1waCcsICc3LjAnLCAnLXRuJywgJzgnLCAnLW1hJywgJzIwMCcsICctbWV0YWxfYmluZGluZycsICctaW1hZScsICc8aW5maWxlLm1hZT4nLCAnLW9tYWUnLCAnPG91dGZpbGUubWFlPic=

> <r_lp_tautomer_probability>
1

> <r_epik_Ionization_Penalty>
0.14175

> <r_epik_Ionization_Penalty_Charging>
0.141731

> <r_epik_Ionization_Penalty_Neutral>
1.91261e-05

> <r_epik_State_Penalty>
0.131043

> <r_epik_Charging_Adjusted_Penalty>
0.272773

> <i_epik_Tot_Q>
1

> <i_epik_Tot_abs_Q>
1

> <r_epik_Metal_State_Penalty>
0.131408

> <b_epik_Metal_Only>
0

> <s_lp_Force_Field>
OPLS_2005

> <r_lp_Energy>
36.2431

> <b_lp_Chiralities_Consistent>
1

> <s_lp_Variant>
AV-unprocessed.smi:3335-6

> <Gold.Version>
5.8.1

> <Gold.Id.Protein>
6NUR|6NUR_protein|mol2

> <Gold.PLP.Fitness>
42.9234

> <Gold.PLP.PLP>
-35.9678

> <Gold.PLP.part.hbond>
-1.3818

> <Gold.PLP.part.metal>
0.0000

> <Gold.PLP.part.buried>
-4.3106

> <Gold.PLP.part.nonpolar>
-31.5514

> <Gold.PLP.part.repulsive>
0.3583

> <Gold.PLP.ligand.clash>
0.0000

> <Gold.PLP.ligand.torsion>
1.1038

> <Gold.PLP.Chemscore.Hbond>
2.0000

> <Gold.PLP.Chemscore.CHOScore>
1.0000

> <Gold.PLP.Chemscore.Metal>
0.0000

> <Gold.Chemscore.Hbonds>
donor molecule, donor type, donor heavy atom, donor atom, acceptor molecule, acceptor atom, score
      L1  H    10    33       P1  7948  2.00
      L1  C     3    24       P1  8028  1.00

> <Gold.PLP.Chemscore.Internal.Correction>
0.1632

> <Gold.Rescore>
     Score         DG    S(hbond)    S(metal)    S(lipo)     H(rot)  DE(clash)    DE(int)     intcor
     12.35     -13.44       0.94        0.00      78.06       1.68       0.05       1.04       ----

> <Gold.Chemscore.Fitness>
12.3518

> <Gold.Chemscore.DG>
-13.4428

> <Gold.Chemscore.ZeroCoef>
-5.4800

> <Gold.Chemscore.Hbond>
0.9356

> <Gold.Chemscore.Metal>
0.0000

> <Gold.Chemscore.Lipo>
78.0618

> <Gold.Chemscore.Internal_Hbond>
0.0000

> <Gold.Chemscore.DEClash>
0.0510

> <Gold.Chemscore.DEInternal>
1.0400

> <Gold.Chemscore.Rot>
1.6778

> <Gold.Chemscore.Internal.Correction>
   9.000000E+99

> <Gold.Chemscore.Hbonds>
donor molecule, donor type, donor heavy atom, donor atom, acceptor molecule, acceptor atom, score
      L1  H    10    33       P1  7948  0.40

> <Gold.Chemscore.Hbond.Weighted>
-3.1248

> <Gold.Chemscore.Metal.Weighted>
-0.0000

> <Gold.Chemscore.Lipo.Weighted>
-9.1332

> <Gold.Chemscore.Internal_Hbond.Weighted>
0.0000

> <Gold.Chemscore.DEClash.Weighted>
0.0510

> <Gold.Chemscore.DEInternal.Weighted>
1.0400

> <Gold.Chemscore.Rot.Weighted>
4.2952

> <Gold.Chemscore.Internal.Correction.Weighted>
   9.000000E+99

> <Gold.Protein.RotatedTorsions>
[ 6907 6896 6895 6894 ] final -155.41 input  -60.11 | X-H torsion
[ 7974 7965 7964 7962 ] final   44.81 input  175.53 | X-H torsion
[ 8008 7997 7996 7995 ] final  -34.45 input   59.86 | X-H torsion
[ 10167 10162 10161 10158 ] final -158.72 input  -65.29 | X-H torsion
[ 10718 10713 10712 10709 ] final  128.17 input   66.30 | X-H torsion
[ 10763 10752 10751 10750 ] final  100.15 input  -60.55 | X-H torsion
[ 11005 11000 10999 10996 ] final   50.04 input  -57.11 | X-H torsion

> <Gold.Protein.ActiveResidues>
 VAL166  LYS551  ARG553  GLY616  TRP617  ASP618  TYR619  PRO620  LYS621  CYS622 
 ASP623  PHE694  ASN695  SER759  ASP760  ASP761  ALA762  ILE779  LEU786  VAL792 
 PHE793  MET794  SER795  GLU796  ALA797  LYS798  CYS799  TRP800  GLU811  SER814 

> <Gold.Protein.RotatedAtoms>
  151.2721  133.4250  159.2621 H   0  0  0  0  0  0  0  0  0  0  0  0  # atno 6907 bound_to 6896
  151.0436  134.9624  159.8185 H   0  0  0  0  0  0  0  0  0  0  0  0  # atno 6908 bound_to 6896
  152.5370  134.2678  159.9012 H   0  0  0  0  0  0  0  0  0  0  0  0  # atno 6909 bound_to 6896
  146.0535  139.5033  142.9703 H   0  0  0  0  0  0  0  0  0  0  0  0  # atno 7974 bound_to 7965
  154.4120  140.1683  156.2052 H   0  0  0  0  0  0  0  0  0  0  0  0  # atno 8008 bound_to 7997
  155.9490  140.3402  155.6368 H   0  0  0  0  0  0  0  0  0  0  0  0  # atno 8009 bound_to 7997
  155.6893  140.0732  157.2445 H   0  0  0  0  0  0  0  0  0  0  0  0  # atno 8010 bound_to 7997
  139.6670  143.9811  152.2261 H   0  0  0  0  0  0  0  0  0  0  0  0  # atno 10167 bound_to 10162
  157.5269  131.1098  150.9070 H   0  0  0  0  0  0  0  0  0  0  0  0  # atno 10718 bound_to 10713
  153.3104  135.4088  155.1331 H   0  0  0  0  0  0  0  0  0  0  0  0  # atno 10763 bound_to 10752
  154.8574  135.3563  154.5731 H   0  0  0  0  0  0  0  0  0  0  0  0  # atno 10764 bound_to 10752
  153.6160  135.7066  153.5387 H   0  0  0  0  0  0  0  0  0  0  0  0  # atno 10765 bound_to 10752
  140.1051  134.5029  155.8727 H   0  0  0  0  0  0  0  0  0  0  0  0  # atno 11005 bound_to 11000
  145.6683  141.0223  143.1671 LP  0  0  0  0  0  0  0  0  0  0  0  0  # atno 17320 bound_to 7965
  144.7135  139.8281  143.7406 LP  0  0  0  0  0  0  0  0  0  0  0  0  # atno 17321 bound_to 7965
  139.9565  144.6586  150.8121 LP  0  0  0  0  0  0  0  0  0  0  0  0  # atno 17342 bound_to 10162
  140.7603  143.3149  151.2757 LP  0  0  0  0  0  0  0  0  0  0  0  0  # atno 17343 bound_to 10162
  156.9663  130.5474  149.5288 LP  0  0  0  0  0  0  0  0  0  0  0  0  # atno 17370 bound_to 10713
  156.0393  130.5477  150.8732 LP  0  0  0  0  0  0  0  0  0  0  0  0  # atno 17371 bound_to 10713
  141.2116  133.6709  156.6596 LP  0  0  0  0  0  0  0  0  0  0  0  0  # atno 17394 bound_to 11000
  140.3166  134.8042  157.4219 LP  0  0  0  0  0  0  0  0  0  0  0  0  # atno 17395 bound_to 11000

$$$$
