AV-unprocessed.smi:2095|AV-procd|sdf|8555|dock10
  -GOLD-   2272011283D 1   1.00000     0.00000
 Structure written by MMmdl.
 42 43  0  0  0  0  0  0  0  0  2 V2000
  152.7895  144.9385  158.1207 C   0  0  0  0  0  0  0  0  0  0  0  0
  151.8731  144.4598  159.2605 C   0  0  1  0  0  0  0  0  0  0  0  0
  150.4248  144.2118  158.7957 C   0  0  0  0  0  0  0  0  0  0  0  0
  150.3118  142.9181  157.9750 C   0  0  0  0  0  0  0  0  0  0  0  0
  150.9038  141.7267  158.7435 C   0  0  0  0  0  0  0  0  0  0  0  0
  152.3169  141.9990  159.1223 N   0  3  2  0  0  0  0  0  0  0  0  0
  153.0812  140.8262  159.6393 C   0  0  2  0  0  0  0  0  0  0  0  0
  154.4526  141.2745  160.1824 C   0  0  0  0  0  0  0  0  0  0  0  0
  153.1701  139.6593  158.6219 C   0  0  0  0  0  0  0  0  0  0  0  0
  153.9627  138.5480  159.1390 N   0  0  0  0  0  0  0  0  0  0  0  0
  153.5068  137.3046  159.3627 C   0  0  0  0  0  0  0  0  0  0  0  0
  152.3290  136.9769  159.2233 O   0  0  0  0  0  0  0  0  0  0  0  0
  154.5463  136.2620  159.7735 C   0  0  0  0  0  0  0  0  0  0  0  0
  154.8626  135.3911  158.6567 N   0  0  0  0  0  0  0  0  0  0  0  0
  155.6317  135.5853  157.5834 C   0  0  0  0  0  0  0  0  0  0  0  0
  155.6234  134.5338  156.7790 N   0  0  0  0  0  0  0  0  0  0  0  0
  154.7854  133.6451  157.4312 N   0  0  0  0  0  0  0  0  0  0  0  0
  154.3304  134.1483  158.5457 N   0  0  0  0  0  0  0  0  0  0  0  0
  152.4352  143.2126  159.9745 C   0  0  0  0  0  0  0  0  0  0  0  0
  152.9031  144.1831  157.3431 H   0  0  0  0  0  0  0  0  0  0  0  0
  153.7856  145.1770  158.4945 H   0  0  0  0  0  0  0  0  0  0  0  0
  152.3927  145.8395  157.6520 H   0  0  0  0  0  0  0  0  0  0  0  0
  151.8448  145.2695  159.9909 H   0  0  0  0  0  0  0  0  0  0  0  0
  149.7768  144.1349  159.6699 H   0  0  0  0  0  0  0  0  0  0  0  0
  150.0564  145.0604  158.2182 H   0  0  0  0  0  0  0  0  0  0  0  0
  149.2663  142.7227  157.7353 H   0  0  0  0  0  0  0  0  0  0  0  0
  150.8264  143.0340  157.0206 H   0  0  0  0  0  0  0  0  0  0  0  0
  150.3057  141.5376  159.6356 H   0  0  0  0  0  0  0  0  0  0  0  0
  150.8384  140.8351  158.1209 H   0  0  0  0  0  0  0  0  0  0  0  0
  152.5335  140.4582  160.5083 H   0  0  0  0  0  0  0  0  0  0  0  0
  154.9257  140.4860  160.7684 H   0  0  0  0  0  0  0  0  0  0  0  0
  154.3516  142.1391  160.8391 H   0  0  0  0  0  0  0  0  0  0  0  0
  155.1417  141.5409  159.3812 H   0  0  0  0  0  0  0  0  0  0  0  0
  152.1754  139.2711  158.4043 H   0  0  0  0  0  0  0  0  0  0  0  0
  153.5781  139.9997  157.6693 H   0  0  0  0  0  0  0  0  0  0  0  0
  154.9454  138.7240  159.2921 H   0  0  0  0  0  0  0  0  0  0  0  0
  155.4589  136.7538  160.1128 H   0  0  0  0  0  0  0  0  0  0  0  0
  154.1731  135.6601  160.6035 H   0  0  0  0  0  0  0  0  0  0  0  0
  156.1830  136.4931  157.3874 H   0  0  0  0  0  0  0  0  0  0  0  0
  153.4779  143.3868  160.2427 H   0  0  0  0  0  0  0  0  0  0  0  0
  151.8956  143.0529  160.9089 H   0  0  0  0  0  0  0  0  0  0  0  0
  152.7831  142.2446  158.2605 H   0  0  0  0  0  0  0  0  0  0  0  0
  1  2  1  0  0  0  0
  1 20  1  0  0  0  0
  1 21  1  0  0  0  0
  1 22  1  0  0  0  0
  2 19  1  0  0  0  0
  2  3  1  0  0  0  0
  2 23  1  0  0  0  0
  3  4  1  0  0  0  0
  3 24  1  0  0  0  0
  3 25  1  0  0  0  0
  4  5  1  0  0  0  0
  4 26  1  0  0  0  0
  4 27  1  0  0  0  0
  5  6  1  0  0  0  0
  5 28  1  0  0  0  0
  5 29  1  0  0  0  0
  6  7  1  0  0  0  0
  6 19  1  0  0  0  0
  6 42  1  0  0  0  0
  7  8  1  0  0  0  0
  7  9  1  0  0  0  0
  7 30  1  0  0  0  0
  8 31  1  0  0  0  0
  8 32  1  0  0  0  0
  8 33  1  0  0  0  0
  9 10  1  0  0  0  0
  9 34  1  0  0  0  0
  9 35  1  0  0  0  0
 10 11  1  0  0  0  0
 10 36  1  0  0  0  0
 11 12  2  0  0  0  0
 11 13  1  0  0  0  0
 13 14  1  0  0  0  0
 13 37  1  0  0  0  0
 13 38  1  0  0  0  0
 14 18  1  0  0  0  0
 14 15  1  0  0  0  0
 15 16  2  0  0  0  0
 15 39  1  0  0  0  0
 16 17  1  0  0  0  0
 17 18  2  0  0  0  0
 19 40  1  0  0  0  0
 19 41  1  0  0  0  0
M  CHG  1   6   1
M  END
> <s_m_source_file>
AV-unprocessed.smi

> <i_m_source_file_index>
2095

> <i_lp_mmshare_version>
43012

> <i_f3d_flags>
0

> <s_epik_input>
W0NIM11bQ0BASF0xW0NIMl1bQ0gyXVtDSDJdTihbQ0gyXTEpW0NASF0oW0NIM10pW0NIMl1bTkhdQyg9TylbQ0gyXW4yW2NIXW5ubjI=

> <s_epik_cmdline>
J2VwaWtfcHl0aG9uJywgJy1waCcsICc3LjAnLCAnLXRuJywgJzgnLCAnLW1hJywgJzIwMCcsICctbWV0YWxfYmluZGluZycsICctaW1hZScsICc8aW5maWxlLm1hZT4nLCAnLW9tYWUnLCAnPG91dGZpbGUubWFlPic=

> <r_lp_tautomer_probability>
1

> <r_epik_Ionization_Penalty>
0.00268321

> <r_epik_Ionization_Penalty_Charging>
0.00267875

> <r_epik_Ionization_Penalty_Neutral>
4.46125e-06

> <r_epik_State_Penalty>
0.00186642

> <r_epik_Charging_Adjusted_Penalty>
0.00454517

> <i_epik_Tot_Q>
1

> <i_epik_Tot_abs_Q>
1

> <r_epik_Metal_State_Penalty>
-0

> <b_epik_Metal_Only>
0

> <s_lp_Force_Field>
OPLS_2005

> <r_lp_Energy>
25.1095

> <b_lp_Chiralities_Consistent>
1

> <s_lp_Variant>
AV-unprocessed.smi:2095-2

> <Gold.Version>
5.8.1

> <Gold.Id.Protein>
6NUR|6NUR_protein|mol2

> <Gold.PLP.Fitness>
39.5193

> <Gold.PLP.PLP>
-31.9242

> <Gold.PLP.part.hbond>
-3.0000

> <Gold.PLP.part.metal>
0.0000

> <Gold.PLP.part.buried>
-3.5272

> <Gold.PLP.part.nonpolar>
-24.8930

> <Gold.PLP.part.repulsive>
0.1608

> <Gold.PLP.ligand.clash>
0.0000

> <Gold.PLP.ligand.torsion>
0.6026

> <Gold.PLP.Chemscore.Hbond>
2.8935

> <Gold.PLP.Chemscore.CHOScore>
0.0000

> <Gold.PLP.Chemscore.Metal>
0.0000

> <Gold.Chemscore.Hbonds>
donor molecule, donor type, donor heavy atom, donor atom, acceptor molecule, acceptor atom, score
      P1  H  6896  6907       L1    12  0.80
      P1  H  6896  6908       L1    18  0.66
      P1  H 10752 10763       L1    16  0.96

> <Gold.PLP.Chemscore.Internal.Correction>
0.1198

> <Gold.Rescore>
     Score         DG    S(hbond)    S(metal)    S(lipo)     H(rot)  DE(clash)    DE(int)     intcor
     15.51     -16.21       2.07        0.00      90.56       2.64       0.07       0.63       ----

> <Gold.Chemscore.Fitness>
15.5106

> <Gold.Chemscore.DG>
-16.2089

> <Gold.Chemscore.ZeroCoef>
-5.4800

> <Gold.Chemscore.Hbond>
2.0663

> <Gold.Chemscore.Metal>
0.0000

> <Gold.Chemscore.Lipo>
90.5627

> <Gold.Chemscore.Internal_Hbond>
0.0000

> <Gold.Chemscore.DEClash>
0.0677

> <Gold.Chemscore.DEInternal>
0.6306

> <Gold.Chemscore.Rot>
2.6439

> <Gold.Chemscore.Internal.Correction>
   9.000000E+99

> <Gold.Chemscore.Hbonds>
donor molecule, donor type, donor heavy atom, donor atom, acceptor molecule, acceptor atom, score
      P1  H  6896  6907       L1    12  0.74
      P1  H  6896  6908       L1    18  0.59
      P1  H 10752 10763       L1    16  0.13

> <Gold.Chemscore.Hbond.Weighted>
-6.9015

> <Gold.Chemscore.Metal.Weighted>
-0.0000

> <Gold.Chemscore.Lipo.Weighted>
-10.5958

> <Gold.Chemscore.Internal_Hbond.Weighted>
0.0000

> <Gold.Chemscore.DEClash.Weighted>
0.0677

> <Gold.Chemscore.DEInternal.Weighted>
0.6306

> <Gold.Chemscore.Rot.Weighted>
6.7685

> <Gold.Chemscore.Internal.Correction.Weighted>
   9.000000E+99

> <Gold.Protein.RotatedTorsions>
[ 6907 6896 6895 6894 ] final   -2.03 input  -60.11 | X-H torsion
[ 7974 7965 7964 7962 ] final   57.54 input  175.53 | X-H torsion
[ 8008 7997 7996 7995 ] final  -75.99 input   59.86 | X-H torsion
[ 10167 10162 10161 10158 ] final -116.68 input  -65.29 | X-H torsion
[ 10718 10713 10712 10709 ] final   73.76 input   66.30 | X-H torsion
[ 10763 10752 10751 10750 ] final  176.67 input  -60.55 | X-H torsion
[ 11005 11000 10999 10996 ] final  -10.22 input  -57.11 | X-H torsion

> <Gold.Protein.ActiveResidues>
 VAL166  LYS551  ARG553  GLY616  TRP617  ASP618  TYR619  PRO620  LYS621  CYS622 
 ASP623  PHE694  ASN695  SER759  ASP760  ASP761  ALA762  ILE779  LEU786  VAL792 
 PHE793  MET794  SER795  GLU796  ALA797  LYS798  CYS799  TRP800  GLU811  SER814 

> <Gold.Protein.RotatedAtoms>
  151.5365  135.1068  159.9915 H   0  0  0  0  0  0  0  0  0  0  0  0  # atno 6907 bound_to 6896
  152.4555  133.7709  159.6809 H   0  0  0  0  0  0  0  0  0  0  0  0  # atno 6908 bound_to 6896
  150.8497  133.7741  159.3055 H   0  0  0  0  0  0  0  0  0  0  0  0  # atno 6909 bound_to 6896
  145.9280  139.3783  143.0438 H   0  0  0  0  0  0  0  0  0  0  0  0  # atno 7974 bound_to 7965
  154.5466  140.0734  156.8598 H   0  0  0  0  0  0  0  0  0  0  0  0  # atno 8008 bound_to 7997
  155.3076  140.3388  155.4227 H   0  0  0  0  0  0  0  0  0  0  0  0  # atno 8009 bound_to 7997
  156.1923  140.1691  156.8053 H   0  0  0  0  0  0  0  0  0  0  0  0  # atno 8010 bound_to 7997
  140.0766  143.4827  152.1950 H   0  0  0  0  0  0  0  0  0  0  0  0  # atno 10167 bound_to 10162
  157.6562  130.9644  150.1114 H   0  0  0  0  0  0  0  0  0  0  0  0  # atno 10718 bound_to 10713
  154.4842  135.2776  155.1547 H   0  0  0  0  0  0  0  0  0  0  0  0  # atno 10763 bound_to 10752
  154.3244  135.6203  153.5526 H   0  0  0  0  0  0  0  0  0  0  0  0  # atno 10764 bound_to 10752
  152.9879  135.5750  154.5250 H   0  0  0  0  0  0  0  0  0  0  0  0  # atno 10765 bound_to 10752
  140.7424  133.8659  155.8978 H   0  0  0  0  0  0  0  0  0  0  0  0  # atno 11005 bound_to 11000
  145.8464  140.9553  143.0772 LP  0  0  0  0  0  0  0  0  0  0  0  0  # atno 17320 bound_to 7965
  144.6761  140.0350  143.7482 LP  0  0  0  0  0  0  0  0  0  0  0  0  # atno 17321 bound_to 7965
  139.5804  144.7508  151.3654 LP  0  0  0  0  0  0  0  0  0  0  0  0  # atno 17342 bound_to 10162
  140.7099  143.7418  150.7548 LP  0  0  0  0  0  0  0  0  0  0  0  0  # atno 17343 bound_to 10162
  156.2010  130.3660  149.8788 LP  0  0  0  0  0  0  0  0  0  0  0  0  # atno 17370 bound_to 10713
  156.6692  130.8813  151.3559 LP  0  0  0  0  0  0  0  0  0  0  0  0  # atno 17371 bound_to 10713
  140.9825  134.1387  157.4482 LP  0  0  0  0  0  0  0  0  0  0  0  0  # atno 17394 bound_to 11000
  139.8803  135.0015  156.6071 LP  0  0  0  0  0  0  0  0  0  0  0  0  # atno 17395 bound_to 11000

$$$$
