AV-unprocessed.smi:500|AV-procd|sdf|2739|dock8
  -GOLD-   2262023193D 1   1.00000     0.00000
 Structure written by MMmdl.
 44 46  0  0  0  0  0  0  0  0  2 V2000
  154.0097  138.7629  162.1989 C   0  0  0  0  0  0  0  0  0  0  0  0
  154.8681  140.0130  162.4347 C   0  0  0  0  0  0  0  0  0  0  0  0
  154.3862  141.1034  161.6665 O   0  0  0  0  0  0  0  0  0  0  0  0
  154.3714  140.8712  160.2676 C   0  0  0  0  0  0  0  0  0  0  0  0
  152.9624  140.4405  159.8366 C   0  0  0  0  0  0  0  0  0  0  0  0
  152.3415  141.4234  158.9430 N   0  0  0  0  0  0  0  0  0  0  0  0
  151.8675  141.3069  157.6623 C   0  0  0  0  0  0  0  0  0  0  0  0
  151.8838  140.0201  156.8514 C   0  0  1  0  0  0  0  0  0  0  0  0
  151.1298  138.9019  157.5846 C   0  0  0  0  0  0  0  0  0  0  0  0
  151.3008  140.1826  155.5154 N   0  5  0  0  0  0  0  0  0  0  0  0
  150.3302  139.3788  154.9967 C   0  0  0  0  0  0  0  0  0  0  0  0
  150.2634  138.1466  154.9536 O   0  0  0  0  0  0  0  0  0  0  0  0
  149.1973  140.1589  154.4493 C   0  0  0  0  0  0  0  0  0  0  0  0
  148.0303  139.7764  153.8378 C   0  0  0  0  0  0  0  0  0  0  0  0
  147.3069  140.9668  153.5509 C   0  0  0  0  0  0  0  0  0  0  0  0
  148.0767  141.9936  154.0154 C   0  0  0  0  0  0  0  0  0  0  0  0
  149.2248  141.5193  154.5702 O   0  0  0  0  0  0  0  0  0  0  0  0
  151.3349  142.4263  157.1570 N   0  0  0  0  0  0  0  0  0  0  0  0
  151.5018  143.3471  158.1684 C   0  0  0  0  0  0  0  0  0  0  0  0
  151.1536  144.7153  158.2308 C   0  0  0  0  0  0  0  0  0  0  0  0
  151.4244  145.4685  159.3917 C   0  0  0  0  0  0  0  0  0  0  0  0
  152.0450  144.8644  160.5040 C   0  0  0  0  0  0  0  0  0  0  0  0
  152.3982  143.5019  160.4607 C   0  0  0  0  0  0  0  0  0  0  0  0
  152.1265  142.7542  159.2984 C   0  0  0  0  0  0  0  0  0  0  0  0
  154.3332  137.9451  162.8427 H   0  0  0  0  0  0  0  0  0  0  0  0
  154.0712  138.4152  161.1681 H   0  0  0  0  0  0  0  0  0  0  0  0
  152.9614  138.9658  162.4199 H   0  0  0  0  0  0  0  0  0  0  0  0
  154.7986  140.2941  163.4856 H   0  0  0  0  0  0  0  0  0  0  0  0
  155.9222  139.8187  162.2314 H   0  0  0  0  0  0  0  0  0  0  0  0
  154.6643  141.7829  159.7460 H   0  0  0  0  0  0  0  0  0  0  0  0
  155.0884  140.0979  159.9904 H   0  0  0  0  0  0  0  0  0  0  0  0
  152.9799  139.4515  159.3803 H   0  0  0  0  0  0  0  0  0  0  0  0
  152.3296  140.3396  160.7187 H   0  0  0  0  0  0  0  0  0  0  0  0
  152.9209  139.6939  156.7714 H   0  0  0  0  0  0  0  0  0  0  0  0
  151.5659  138.7192  158.5669 H   0  0  0  0  0  0  0  0  0  0  0  0
  151.1713  137.9655  157.0275 H   0  0  0  0  0  0  0  0  0  0  0  0
  150.0795  139.1574  157.7306 H   0  0  0  0  0  0  0  0  0  0  0  0
  147.7338  138.7601  153.6235 H   0  0  0  0  0  0  0  0  0  0  0  0
  146.3447  141.0591  153.0696 H   0  0  0  0  0  0  0  0  0  0  0  0
  147.9643  143.0675  154.0359 H   0  0  0  0  0  0  0  0  0  0  0  0
  150.6777  145.1849  157.3826 H   0  0  0  0  0  0  0  0  0  0  0  0
  151.1544  146.5136  159.4285 H   0  0  0  0  0  0  0  0  0  0  0  0
  152.2491  145.4471  161.3901 H   0  0  0  0  0  0  0  0  0  0  0  0
  152.8737  143.0371  161.3114 H   0  0  0  0  0  0  0  0  0  0  0  0
  1  2  1  0  0  0  0
  1 25  1  0  0  0  0
  1 26  1  0  0  0  0
  1 27  1  0  0  0  0
  2  3  1  0  0  0  0
  2 28  1  0  0  0  0
  2 29  1  0  0  0  0
  3  4  1  0  0  0  0
  4  5  1  0  0  0  0
  4 30  1  0  0  0  0
  4 31  1  0  0  0  0
  5  6  1  0  0  0  0
  5 32  1  0  0  0  0
  5 33  1  0  0  0  0
  6 24  1  0  0  0  0
  6  7  1  0  0  0  0
  7  8  1  0  0  0  0
  7 18  2  0  0  0  0
  8  9  1  0  0  0  0
  8 10  1  0  0  0  0
  8 34  1  0  0  0  0
  9 35  1  0  0  0  0
  9 36  1  0  0  0  0
  9 37  1  0  0  0  0
 10 11  1  0  0  0  0
 11 12  2  0  0  0  0
 11 13  1  0  0  0  0
 13 17  1  0  0  0  0
 13 14  2  0  0  0  0
 14 15  1  0  0  0  0
 14 38  1  0  0  0  0
 15 16  2  0  0  0  0
 15 39  1  0  0  0  0
 16 17  1  0  0  0  0
 16 40  1  0  0  0  0
 18 19  1  0  0  0  0
 19 24  2  0  0  0  0
 19 20  1  0  0  0  0
 20 21  2  0  0  0  0
 20 41  1  0  0  0  0
 21 22  1  0  0  0  0
 21 42  1  0  0  0  0
 22 23  2  0  0  0  0
 22 43  1  0  0  0  0
 23 24  1  0  0  0  0
 23 44  1  0  0  0  0
M  CHG  1  10  -1
M  END
> <s_m_source_file>
AV-unprocessed.smi

> <i_m_source_file_index>
500

> <i_lp_mmshare_version>
43012

> <i_f3d_flags>
0

> <s_epik_input>
W0NIM11bQ0gyXU9bQ0gyXVtDSDJdbihjKGMxMilbY0hdW2NIXVtjSF1bY0hdMiljKG4xKVtDQEhdKFtDSDNdKVtOSF1DKD1PKWMzW2NIXVtjSF1bY0hdbzM=

> <s_epik_cmdline>
J2VwaWtfcHl0aG9uJywgJy1waCcsICc3LjAnLCAnLXRuJywgJzgnLCAnLW1hJywgJzIwMCcsICctbWV0YWxfYmluZGluZycsICctaW1hZScsICc8aW5maWxlLm1hZT4nLCAnLW9tYWUnLCAnPG91dGZpbGUubWFlPic=

> <r_epik_Ionization_Penalty>
7.31223

> <r_epik_Ionization_Penalty_Charging>
6.43826

> <r_epik_Ionization_Penalty_Neutral>
0.873973

> <r_epik_State_Penalty>
6.5378

> <r_epik_Charging_Adjusted_Penalty>
12.9761

> <i_epik_Tot_Q>
-1

> <i_epik_Tot_abs_Q>
1

> <r_epik_Metal_State_Penalty>
2.55818

> <b_epik_Metal_Only>
1

> <s_lp_Force_Field>
OPLS_2005

> <r_lp_Energy>
16.2081

> <b_lp_Chiralities_Consistent>
1

> <s_lp_Variant>
AV-unprocessed.smi:500-6

> <Gold.Version>
5.8.1

> <Gold.Id.Protein>
6NUR|6NUR_protein|mol2

> <Gold.PLP.Fitness>
53.6007

> <Gold.PLP.PLP>
-51.4432

> <Gold.PLP.part.hbond>
-2.2680

> <Gold.PLP.part.metal>
0.0000

> <Gold.PLP.part.buried>
-5.6444

> <Gold.PLP.part.nonpolar>
-43.6412

> <Gold.PLP.part.repulsive>
0.4183

> <Gold.PLP.ligand.clash>
0.0000

> <Gold.PLP.ligand.torsion>
1.1241

> <Gold.PLP.Chemscore.Hbond>
0.4000

> <Gold.PLP.Chemscore.CHOScore>
1.0000

> <Gold.PLP.Chemscore.Metal>
0.0000

> <Gold.Chemscore.Hbonds>
donor molecule, donor type, donor heavy atom, donor atom, acceptor molecule, acceptor atom, score
      P1  H  7989  7998       L1    10  0.24
      L1  C    16    40       P1  8028  1.00

> <Gold.PLP.Chemscore.Internal.Correction>
0.2057

> <Gold.Rescore>
     Score         DG    S(hbond)    S(metal)    S(lipo)     H(rot)  DE(clash)    DE(int)     intcor
     15.41     -18.13       0.37        0.00     137.69       1.84       0.26       2.46       ----

> <Gold.Chemscore.Fitness>
15.4090

> <Gold.Chemscore.DG>
-18.1291

> <Gold.Chemscore.ZeroCoef>
-5.4800

> <Gold.Chemscore.Hbond>
0.3729

> <Gold.Chemscore.Metal>
0.0000

> <Gold.Chemscore.Lipo>
137.6884

> <Gold.Chemscore.Internal_Hbond>
0.0000

> <Gold.Chemscore.DEClash>
0.2645

> <Gold.Chemscore.DEInternal>
2.4556

> <Gold.Chemscore.Rot>
1.8382

> <Gold.Chemscore.Internal.Correction>
   9.000000E+99

> <Gold.Chemscore.Hbond.Weighted>
-1.2454

> <Gold.Chemscore.Metal.Weighted>
-0.0000

> <Gold.Chemscore.Lipo.Weighted>
-16.1095

> <Gold.Chemscore.Internal_Hbond.Weighted>
0.0000

> <Gold.Chemscore.DEClash.Weighted>
0.2645

> <Gold.Chemscore.DEInternal.Weighted>
2.4556

> <Gold.Chemscore.Rot.Weighted>
4.7059

> <Gold.Chemscore.Internal.Correction.Weighted>
   9.000000E+99

> <Gold.Protein.RotatedTorsions>
[ 6907 6896 6895 6894 ] final    6.05 input  -60.11 | X-H torsion
[ 7974 7965 7964 7962 ] final  -99.67 input  175.53 | X-H torsion
[ 8008 7997 7996 7995 ] final  -90.32 input   59.86 | X-H torsion
[ 10167 10162 10161 10158 ] final  156.85 input  -65.29 | X-H torsion
[ 10718 10713 10712 10709 ] final -174.61 input   66.30 | X-H torsion
[ 10763 10752 10751 10750 ] final  107.53 input  -60.55 | X-H torsion
[ 11005 11000 10999 10996 ] final  -65.83 input  -57.11 | X-H torsion

> <Gold.Protein.ActiveResidues>
 VAL166  LYS551  ARG553  GLY616  TRP617  ASP618  TYR619  PRO620  LYS621  CYS622 
 ASP623  PHE694  ASN695  SER759  ASP760  ASP761  ALA762  ILE779  LEU786  VAL792 
 PHE793  MET794  SER795  GLU796  ALA797  LYS798  CYS799  TRP800  GLU811  SER814 

> <Gold.Protein.RotatedAtoms>
  151.6674  135.0981  160.0191 H   0  0  0  0  0  0  0  0  0  0  0  0  # atno 6907 bound_to 6896
  152.3912  133.6677  159.6247 H   0  0  0  0  0  0  0  0  0  0  0  0  # atno 6908 bound_to 6896
  150.7827  133.8868  159.3343 H   0  0  0  0  0  0  0  0  0  0  0  0  # atno 6909 bound_to 6896
  145.3046  140.9385  143.2804 H   0  0  0  0  0  0  0  0  0  0  0  0  # atno 7974 bound_to 7965
  154.6972  140.0532  157.0422 H   0  0  0  0  0  0  0  0  0  0  0  0  # atno 8008 bound_to 7997
  155.0735  140.3202  155.4604 H   0  0  0  0  0  0  0  0  0  0  0  0  # atno 8009 bound_to 7997
  156.2748  140.2077  156.5863 H   0  0  0  0  0  0  0  0  0  0  0  0  # atno 8010 bound_to 7997
  139.4822  144.4971  151.8223 H   0  0  0  0  0  0  0  0  0  0  0  0  # atno 10167 bound_to 10162
  156.7877  130.9506  151.3120 H   0  0  0  0  0  0  0  0  0  0  0  0  # atno 10718 bound_to 10713
  153.4080  135.3841  155.2032 H   0  0  0  0  0  0  0  0  0  0  0  0  # atno 10763 bound_to 10752
  154.8735  135.3787  154.4536 H   0  0  0  0  0  0  0  0  0  0  0  0  # atno 10764 bound_to 10752
  153.5041  135.7088  153.5878 H   0  0  0  0  0  0  0  0  0  0  0  0  # atno 10765 bound_to 10752
  141.1465  133.6688  156.6046 H   0  0  0  0  0  0  0  0  0  0  0  0  # atno 11005 bound_to 11000
  144.9066  139.4582  143.6607 LP  0  0  0  0  0  0  0  0  0  0  0  0  # atno 17320 bound_to 7965
  146.3140  139.7850  142.8998 LP  0  0  0  0  0  0  0  0  0  0  0  0  # atno 17321 bound_to 7965
  140.4461  144.1920  150.5894 LP  0  0  0  0  0  0  0  0  0  0  0  0  # atno 17342 bound_to 10162
  140.4633  143.2440  151.9189 LP  0  0  0  0  0  0  0  0  0  0  0  0  # atno 17343 bound_to 10162
  157.6616  130.8971  149.9842 LP  0  0  0  0  0  0  0  0  0  0  0  0  # atno 17370 bound_to 10713
  156.1179  130.3647  149.9937 LP  0  0  0  0  0  0  0  0  0  0  0  0  # atno 17371 bound_to 10713
  140.3662  134.7645  157.4567 LP  0  0  0  0  0  0  0  0  0  0  0  0  # atno 17394 bound_to 11000
  140.0746  134.5815  155.8605 LP  0  0  0  0  0  0  0  0  0  0  0  0  # atno 17395 bound_to 11000

$$$$
