AV-unprocessed.smi:557|AV-procd|sdf|2921|dock8
  -GOLD-   2262023413D 1   1.00000     0.00000
 Structure written by MMmdl.
 47 49  0  0  0  0  0  0  0  0  2 V2000
  147.1939  136.3852  162.5989 C   0  0  0  0  0  0  0  0  0  0  0  0
  147.6443  136.1532  161.2431 N   0  0  0  0  0  0  0  0  0  0  0  0
  147.7351  134.9601  160.5595 C   0  0  0  0  0  0  0  0  0  0  0  0
  148.2125  135.2385  159.3098 C   0  0  0  0  0  0  0  0  0  0  0  0
  148.4955  134.2876  158.1808 C   0  0  0  0  0  0  0  0  0  0  0  0
  147.6824  134.6441  156.9295 C   0  0  0  0  0  0  0  0  0  0  0  0
  147.7869  133.5847  155.9301 N   0  0  0  0  0  0  0  0  0  0  0  0
  146.7811  132.8727  155.3952 C   0  0  0  0  0  0  0  0  0  0  0  0
  145.6087  133.0630  155.7117 O   0  0  0  0  0  0  0  0  0  0  0  0
  147.1664  131.9548  154.4917 N   0  0  0  0  0  0  0  0  0  0  0  0
  146.2754  131.0343  153.7878 C   0  0  1  0  0  0  0  0  0  0  0  0
  145.6847  131.6303  152.4959 C   0  0  0  0  0  0  0  0  0  0  0  0
  145.7068  130.4718  151.4933 C   0  0  0  0  0  0  0  0  0  0  0  0
  146.9164  129.7349  151.8765 N   0  3  2  0  0  0  0  0  0  0  0  0
  147.1555  128.4036  151.2844 C   0  0  0  0  0  0  0  0  0  0  0  0
  148.5711  127.9397  151.6911 C   0  0  0  0  0  0  0  0  0  0  0  0
  148.7981  128.0140  153.2189 C   0  0  0  0  0  0  0  0  0  0  0  0
  148.3983  129.3898  153.7959 C   0  0  0  0  0  0  0  0  0  0  0  0
  146.9631  129.7204  153.3488 C   0  0  1  0  0  0  0  0  0  0  0  0
  148.3812  136.6526  159.3281 C   0  0  0  0  0  0  0  0  0  0  0  0
  148.0426  137.1960  160.4861 N   0  0  0  0  0  0  0  0  0  0  0  0
  146.9442  135.4379  163.0775 H   0  0  0  0  0  0  0  0  0  0  0  0
  146.3087  137.0218  162.5895 H   0  0  0  0  0  0  0  0  0  0  0  0
  147.9820  136.8744  163.1720 H   0  0  0  0  0  0  0  0  0  0  0  0
  147.4568  134.0205  161.0137 H   0  0  0  0  0  0  0  0  0  0  0  0
  149.5584  134.2967  157.9363 H   0  0  0  0  0  0  0  0  0  0  0  0
  148.2688  133.2629  158.4785 H   0  0  0  0  0  0  0  0  0  0  0  0
  146.6352  134.7967  157.1958 H   0  0  0  0  0  0  0  0  0  0  0  0
  148.0515  135.5785  156.5031 H   0  0  0  0  0  0  0  0  0  0  0  0
  148.7096  133.4222  155.5527 H   0  0  0  0  0  0  0  0  0  0  0  0
  148.1524  131.8832  154.2869 H   0  0  0  0  0  0  0  0  0  0  0  0
  145.4392  130.7767  154.4414 H   0  0  0  0  0  0  0  0  0  0  0  0
  144.6840  132.0392  152.6397 H   0  0  0  0  0  0  0  0  0  0  0  0
  146.3203  132.4367  152.1261 H   0  0  0  0  0  0  0  0  0  0  0  0
  144.8299  129.8348  151.6205 H   0  0  0  0  0  0  0  0  0  0  0  0
  145.7444  130.8108  150.4577 H   0  0  0  0  0  0  0  0  0  0  0  0
  146.3985  127.6966  151.6279 H   0  0  0  0  0  0  0  0  0  0  0  0
  147.0759  128.4627  150.1985 H   0  0  0  0  0  0  0  0  0  0  0  0
  148.7487  126.9243  151.3356 H   0  0  0  0  0  0  0  0  0  0  0  0
  149.3087  128.5703  151.1929 H   0  0  0  0  0  0  0  0  0  0  0  0
  148.2089  127.2356  153.7056 H   0  0  0  0  0  0  0  0  0  0  0  0
  149.8412  127.7986  153.4528 H   0  0  0  0  0  0  0  0  0  0  0  0
  148.4653  129.3676  154.8840 H   0  0  0  0  0  0  0  0  0  0  0  0
  149.0916  130.1574  153.4489 H   0  0  0  0  0  0  0  0  0  0  0  0
  146.3147  128.9100  153.6897 H   0  0  0  0  0  0  0  0  0  0  0  0
  148.7394  137.2962  158.5380 H   0  0  0  0  0  0  0  0  0  0  0  0
  147.6858  130.3186  151.5814 H   0  0  0  0  0  0  0  0  0  0  0  0
  1  2  1  0  0  0  0
  1 22  1  0  0  0  0
  1 23  1  0  0  0  0
  1 24  1  0  0  0  0
  2 21  1  0  0  0  0
  2  3  1  0  0  0  0
  3  4  2  0  0  0  0
  3 25  1  0  0  0  0
  4  5  1  0  0  0  0
  4 20  1  0  0  0  0
  5  6  1  0  0  0  0
  5 26  1  0  0  0  0
  5 27  1  0  0  0  0
  6  7  1  0  0  0  0
  6 28  1  0  0  0  0
  6 29  1  0  0  0  0
  7  8  1  0  0  0  0
  7 30  1  0  0  0  0
  8  9  2  0  0  0  0
  8 10  1  0  0  0  0
 10 11  1  0  0  0  0
 10 31  1  0  0  0  0
 11 19  1  0  0  0  0
 11 12  1  0  0  0  0
 11 32  1  0  0  0  0
 12 13  1  0  0  0  0
 12 33  1  0  0  0  0
 12 34  1  0  0  0  0
 13 14  1  0  0  0  0
 13 35  1  0  0  0  0
 13 36  1  0  0  0  0
 14 19  1  0  0  0  0
 14 15  1  0  0  0  0
 14 47  1  0  0  0  0
 15 16  1  0  0  0  0
 15 37  1  0  0  0  0
 15 38  1  0  0  0  0
 16 17  1  0  0  0  0
 16 39  1  0  0  0  0
 16 40  1  0  0  0  0
 17 18  1  0  0  0  0
 17 41  1  0  0  0  0
 17 42  1  0  0  0  0
 18 19  1  0  0  0  0
 18 43  1  0  0  0  0
 18 44  1  0  0  0  0
 19 45  1  0  0  0  0
 20 21  2  0  0  0  0
 20 46  1  0  0  0  0
M  CHG  1  14   1
M  END
> <s_m_source_file>
AV-unprocessed.smi

> <i_m_source_file_index>
557

> <i_lp_mmshare_version>
43012

> <i_f3d_flags>
0

> <s_epik_input>
W0NIM11uMVtjSF1jKFtjSF1uMSlbQ0gyXVtDSDJdW05IXUMoPU8pW05IXVtDQEhdKFtDSDJdW0NIMl0yKVtDQEhdKE4yMylbQ0gyXVtDSDJdW0NIMl1bQ0gyXTM=

> <s_epik_cmdline>
J2VwaWtfcHl0aG9uJywgJy1waCcsICc3LjAnLCAnLXRuJywgJzgnLCAnLW1hJywgJzIwMCcsICctbWV0YWxfYmluZGluZycsICctaW1hZScsICc8aW5maWxlLm1hZT4nLCAnLW9tYWUnLCAnPG91dGZpbGUubWFlPic=

> <r_lp_tautomer_probability>
1

> <r_epik_Ionization_Penalty>
0.000956547

> <r_epik_Ionization_Penalty_Charging>
0.000435796

> <r_epik_Ionization_Penalty_Neutral>
0.000520752

> <r_epik_State_Penalty>
-0

> <r_epik_Charging_Adjusted_Penalty>
0.000435796

> <i_epik_Tot_Q>
1

> <i_epik_Tot_abs_Q>
1

> <r_epik_Metal_State_Penalty>
-0

> <b_epik_Metal_Only>
0

> <s_lp_Force_Field>
OPLS_2005

> <r_lp_Energy>
46.7552

> <b_lp_Chiralities_Consistent>
1

> <s_lp_Variant>
AV-unprocessed.smi:557-8

> <Gold.Version>
5.8.1

> <Gold.Id.Protein>
6NUR|6NUR_protein|mol2

> <Gold.PLP.Fitness>
39.9671

> <Gold.PLP.PLP>
-33.3210

> <Gold.PLP.part.hbond>
-3.0000

> <Gold.PLP.part.metal>
0.0000

> <Gold.PLP.part.buried>
-4.1824

> <Gold.PLP.part.nonpolar>
-25.8519

> <Gold.PLP.part.repulsive>
0.1436

> <Gold.PLP.ligand.clash>
0.0000

> <Gold.PLP.ligand.torsion>
0.3935

> <Gold.PLP.Chemscore.Hbond>
2.4730

> <Gold.PLP.Chemscore.CHOScore>
0.0000

> <Gold.PLP.Chemscore.Metal>
0.0000

> <Gold.Chemscore.Hbonds>
donor molecule, donor type, donor heavy atom, donor atom, acceptor molecule, acceptor atom, score
      L1  H    14    47       P1 10747  1.00
      P1  H  6931  6943       L1    21  0.75
      P1  H  6934  6947       L1    21  0.68

> <Gold.PLP.Chemscore.Internal.Correction>
0.0141

> <Gold.Rescore>
     Score         DG    S(hbond)    S(metal)    S(lipo)     H(rot)  DE(clash)    DE(int)     intcor
     17.99     -18.41       2.39        0.00      77.42       1.60       0.02       0.40       ----

> <Gold.Chemscore.Fitness>
17.9923

> <Gold.Chemscore.DG>
-18.4126

> <Gold.Chemscore.ZeroCoef>
-5.4800

> <Gold.Chemscore.Hbond>
2.3878

> <Gold.Chemscore.Metal>
0.0000

> <Gold.Chemscore.Lipo>
77.4171

> <Gold.Chemscore.Internal_Hbond>
0.0000

> <Gold.Chemscore.DEClash>
0.0195

> <Gold.Chemscore.DEInternal>
0.4007

> <Gold.Chemscore.Rot>
1.6018

> <Gold.Chemscore.Internal.Correction>
   9.000000E+99

> <Gold.Chemscore.Hbonds>
donor molecule, donor type, donor heavy atom, donor atom, acceptor molecule, acceptor atom, score
      L1  H    14    47       P1 10747  0.95
      P1  H  6931  6943       L1    21  0.18
      P1  H  6934  6947       L1    21  0.62

> <Gold.Chemscore.Hbond.Weighted>
-7.9754

> <Gold.Chemscore.Metal.Weighted>
-0.0000

> <Gold.Chemscore.Lipo.Weighted>
-9.0578

> <Gold.Chemscore.Internal_Hbond.Weighted>
0.0000

> <Gold.Chemscore.DEClash.Weighted>
0.0195

> <Gold.Chemscore.DEInternal.Weighted>
0.4007

> <Gold.Chemscore.Rot.Weighted>
4.1006

> <Gold.Chemscore.Internal.Correction.Weighted>
   9.000000E+99

> <Gold.Protein.RotatedTorsions>
[ 6907 6896 6895 6894 ] final  -38.43 input  -60.11 | X-H torsion
[ 7974 7965 7964 7962 ] final  -35.53 input  175.53 | X-H torsion
[ 8008 7997 7996 7995 ] final   40.09 input   59.86 | X-H torsion
[ 10167 10162 10161 10158 ] final  133.03 input  -65.29 | X-H torsion
[ 10718 10713 10712 10709 ] final   84.70 input   66.30 | X-H torsion
[ 10763 10752 10751 10750 ] final -164.22 input  -60.55 | X-H torsion
[ 11005 11000 10999 10996 ] final   76.49 input  -57.11 | X-H torsion

> <Gold.Protein.ActiveResidues>
 VAL166  LYS551  ARG553  GLY616  TRP617  ASP618  TYR619  PRO620  LYS621  CYS622 
 ASP623  PHE694  ASN695  SER759  ASP760  ASP761  ALA762  ILE779  LEU786  VAL792 
 PHE793  MET794  SER795  GLU796  ALA797  LYS798  CYS799  TRP800  GLU811  SER814 

> <Gold.Protein.RotatedAtoms>
  151.0025  134.9333  159.7961 H   0  0  0  0  0  0  0  0  0  0  0  0  # atno 6907 bound_to 6896
  152.5281  134.3135  159.9132 H   0  0  0  0  0  0  0  0  0  0  0  0  # atno 6908 bound_to 6896
  151.3141  133.4026  159.2683 H   0  0  0  0  0  0  0  0  0  0  0  0  # atno 6909 bound_to 6896
  146.0738  140.6170  142.8940 H   0  0  0  0  0  0  0  0  0  0  0  0  # atno 7974 bound_to 7965
  155.2474  140.3350  155.4286 H   0  0  0  0  0  0  0  0  0  0  0  0  # atno 8008 bound_to 7997
  156.2230  140.1817  156.7475 H   0  0  0  0  0  0  0  0  0  0  0  0  # atno 8009 bound_to 7997
  154.5855  140.0646  156.9150 H   0  0  0  0  0  0  0  0  0  0  0  0  # atno 8010 bound_to 7997
  139.5314  144.6635  151.4936 H   0  0  0  0  0  0  0  0  0  0  0  0  # atno 10167 bound_to 10162
  157.6902  131.0144  150.2712 H   0  0  0  0  0  0  0  0  0  0  0  0  # atno 10718 bound_to 10713
  154.7049  135.2995  154.9285 H   0  0  0  0  0  0  0  0  0  0  0  0  # atno 10763 bound_to 10752
  154.0205  135.6683  153.4776 H   0  0  0  0  0  0  0  0  0  0  0  0  # atno 10764 bound_to 10752
  153.0710  135.5061  154.8214 H   0  0  0  0  0  0  0  0  0  0  0  0  # atno 10765 bound_to 10752
  139.9296  134.7605  156.1402 H   0  0  0  0  0  0  0  0  0  0  0  0  # atno 11005 bound_to 11000
  144.7249  140.4491  143.6981 LP  0  0  0  0  0  0  0  0  0  0  0  0  # atno 17320 bound_to 7965
  145.6343  139.1540  143.2952 LP  0  0  0  0  0  0  0  0  0  0  0  0  # atno 17321 bound_to 7965
  140.6495  143.8726  150.6771 LP  0  0  0  0  0  0  0  0  0  0  0  0  # atno 17342 bound_to 10162
  140.2086  143.3901  152.1736 LP  0  0  0  0  0  0  0  0  0  0  0  0  # atno 17343 bound_to 10162
  156.3275  130.3795  149.7520 LP  0  0  0  0  0  0  0  0  0  0  0  0  # atno 17370 bound_to 10713
  156.5071  130.8155  151.3155 LP  0  0  0  0  0  0  0  0  0  0  0  0  # atno 17371 bound_to 10713
  141.0876  133.6728  156.2470 LP  0  0  0  0  0  0  0  0  0  0  0  0  # atno 17394 bound_to 11000
  140.6239  134.5333  157.5551 LP  0  0  0  0  0  0  0  0  0  0  0  0  # atno 17395 bound_to 11000

$$$$
