AV-unprocessed.smi:2007|AV-procd|sdf|8134|dock5
  -GOLD-   2272010363D 1   1.00000     0.00000
 Structure written by MMmdl.
 36 37  0  0  0  0  0  0  0  0  1 V2000
  147.0306  141.5892  153.8061 C   0  0  0  0  0  0  0  0  0  0  0  0
  147.3485  140.0917  153.7011 C   0  0  1  0  0  0  0  0  0  0  0  0
  147.7122  139.5026  155.0818 C   0  0  0  0  0  0  0  0  0  0  0  0
  149.1408  139.4587  155.3972 N   0  0  0  0  0  0  0  0  0  0  0  0
  149.9169  138.7244  154.3999 C   0  0  0  0  0  0  0  0  0  0  0  0
  151.4154  138.7001  154.7474 C   0  0  0  0  0  0  0  0  0  0  0  0
  151.8968  140.0334  154.8831 O   0  0  0  0  0  0  0  0  0  0  0  0
  151.1926  140.7728  155.8754 C   0  0  0  0  0  0  0  0  0  0  0  0
  149.6938  140.8018  155.5291 C   0  0  0  0  0  0  0  0  0  0  0  0
  146.1880  139.3986  153.1435 N   0  0  0  0  0  0  0  0  0  0  0  0
  145.9642  138.0767  153.1924 C   0  0  0  0  0  0  0  0  0  0  0  0
  146.7416  137.2706  153.7045 O   0  0  0  0  0  0  0  0  0  0  0  0
  144.7904  137.7633  152.6166 N   0  0  0  0  0  0  0  0  0  0  0  0
  144.1903  136.4834  152.4869 C   0  0  0  0  0  0  0  0  0  0  0  0
  144.4201  135.6404  151.4732 N   0  0  0  0  0  0  0  0  0  0  0  0
  143.6973  134.4521  151.6051 C   0  0  0  0  0  0  0  0  0  0  0  0
  142.9163  134.4069  152.7331 C   0  0  0  0  0  0  0  0  0  0  0  0
  143.0582  135.8639  153.6801 S   0  0  0  0  0  0  0  0  0  0  0  0
  147.8832  142.1437  154.1990 H   0  0  0  0  0  0  0  0  0  0  0  0
  146.1825  141.7715  154.4669 H   0  0  0  0  0  0  0  0  0  0  0  0
  146.7887  142.0087  152.8289 H   0  0  0  0  0  0  0  0  0  0  0  0
  148.2005  140.0017  153.0267 H   0  0  0  0  0  0  0  0  0  0  0  0
  147.1894  140.0596  155.8608 H   0  0  0  0  0  0  0  0  0  0  0  0
  147.3105  138.4891  155.1250 H   0  0  0  0  0  0  0  0  0  0  0  0
  149.5638  137.6975  154.3203 H   0  0  0  0  0  0  0  0  0  0  0  0
  149.7811  139.1780  153.4171 H   0  0  0  0  0  0  0  0  0  0  0  0
  151.5866  138.1473  155.6724 H   0  0  0  0  0  0  0  0  0  0  0  0
  151.9787  138.1950  153.9628 H   0  0  0  0  0  0  0  0  0  0  0  0
  151.3535  140.3234  156.8567 H   0  0  0  0  0  0  0  0  0  0  0  0
  151.5925  141.7858  155.9164 H   0  0  0  0  0  0  0  0  0  0  0  0
  149.5485  141.3549  154.5998 H   0  0  0  0  0  0  0  0  0  0  0  0
  149.1572  141.3490  156.3049 H   0  0  0  0  0  0  0  0  0  0  0  0
  145.4894  139.9779  152.7017 H   0  0  0  0  0  0  0  0  0  0  0  0
  144.2588  138.5316  152.2347 H   0  0  0  0  0  0  0  0  0  0  0  0
  143.7989  133.6892  150.8476 H   0  0  0  0  0  0  0  0  0  0  0  0
  142.2691  133.6078  153.0628 H   0  0  0  0  0  0  0  0  0  0  0  0
  1  2  1  0  0  0  0
  1 19  1  0  0  0  0
  1 20  1  0  0  0  0
  1 21  1  0  0  0  0
  2  3  1  0  0  0  0
  2 10  1  0  0  0  0
  2 22  1  0  0  0  0
  3  4  1  0  0  0  0
  3 23  1  0  0  0  0
  3 24  1  0  0  0  0
  4  9  1  0  0  0  0
  4  5  1  0  0  0  0
  5  6  1  0  0  0  0
  5 25  1  0  0  0  0
  5 26  1  0  0  0  0
  6  7  1  0  0  0  0
  6 27  1  0  0  0  0
  6 28  1  0  0  0  0
  7  8  1  0  0  0  0
  8  9  1  0  0  0  0
  8 29  1  0  0  0  0
  8 30  1  0  0  0  0
  9 31  1  0  0  0  0
  9 32  1  0  0  0  0
 10 11  1  0  0  0  0
 10 33  1  0  0  0  0
 11 12  2  0  0  0  0
 11 13  1  0  0  0  0
 13 14  1  0  0  0  0
 13 34  1  0  0  0  0
 14 18  1  0  0  0  0
 14 15  2  0  0  0  0
 15 16  1  0  0  0  0
 16 17  2  0  0  0  0
 16 35  1  0  0  0  0
 17 18  1  0  0  0  0
 17 36  1  0  0  0  0
M  END
> <s_m_source_file>
AV-unprocessed.smi

> <i_m_source_file_index>
2007

> <i_lp_mmshare_version>
43012

> <i_f3d_flags>
0

> <s_epik_input>
W0NIMl0xW0NIMl1PW0NIMl1bQ0gyXU4xW0NIMl1bQ0BASF0oW0NIM10pW05IXUMoPU8pW05IXWMybltjSF1bY0hdczI=

> <s_epik_cmdline>
J2VwaWtfcHl0aG9uJywgJy1waCcsICc3LjAnLCAnLXRuJywgJzgnLCAnLW1hJywgJzIwMCcsICctbWV0YWxfYmluZGluZycsICctaW1hZScsICc8aW5maWxlLm1hZT4nLCAnLW9tYWUnLCAnPG91dGZpbGUubWFlPic=

> <r_lp_tautomer_probability>
0.999

> <r_epik_Ionization_Penalty>
0.219197

> <r_epik_Ionization_Penalty_Charging>
0

> <r_epik_Ionization_Penalty_Neutral>
0.219197

> <r_epik_State_Penalty>
0.209349

> <r_epik_Charging_Adjusted_Penalty>
0.209349

> <i_epik_Tot_Q>
0

> <i_epik_Tot_abs_Q>
0

> <r_epik_Metal_State_Penalty>
0.254604

> <b_epik_Metal_Only>
0

> <s_lp_Force_Field>
OPLS_2005

> <r_lp_Energy>
23.7512

> <b_lp_Chiralities_Consistent>
1

> <s_lp_Variant>
AV-unprocessed.smi:2007-2

> <Gold.Version>
5.8.1

> <Gold.Id.Protein>
6NUR|6NUR_protein|mol2

> <Gold.PLP.Fitness>
37.2412

> <Gold.PLP.PLP>
-28.6445

> <Gold.PLP.part.hbond>
-3.7181

> <Gold.PLP.part.metal>
0.0000

> <Gold.PLP.part.buried>
-5.9406

> <Gold.PLP.part.nonpolar>
-21.0402

> <Gold.PLP.part.repulsive>
0.9435

> <Gold.PLP.ligand.clash>
0.0000

> <Gold.PLP.ligand.torsion>
1.4649

> <Gold.PLP.Chemscore.Hbond>
2.8400

> <Gold.PLP.Chemscore.CHOScore>
0.9976

> <Gold.PLP.Chemscore.Metal>
0.0000

> <Gold.Chemscore.Hbonds>
donor molecule, donor type, donor heavy atom, donor atom, acceptor molecule, acceptor atom, score
      L1  H    10    33       P1 10175  1.00
      L1  H    13    34       P1 10175  0.94
      P1  H  7989  7998       L1     7  0.90
      L1  C    17    36       P1 10957  0.99

> <Gold.PLP.Chemscore.Internal.Correction>
0.0137

> <Gold.Rescore>
     Score         DG    S(hbond)    S(metal)    S(lipo)     H(rot)  DE(clash)    DE(int)     intcor
     13.31     -16.14       2.43        0.00      56.37       1.58       0.02       2.82       ----

> <Gold.Chemscore.Fitness>
13.3052

> <Gold.Chemscore.DG>
-16.1408

> <Gold.Chemscore.ZeroCoef>
-5.4800

> <Gold.Chemscore.Hbond>
2.4301

> <Gold.Chemscore.Metal>
0.0000

> <Gold.Chemscore.Lipo>
56.3715

> <Gold.Chemscore.Internal_Hbond>
0.0000

> <Gold.Chemscore.DEClash>
0.0154

> <Gold.Chemscore.DEInternal>
2.8202

> <Gold.Chemscore.Rot>
1.5825

> <Gold.Chemscore.Internal.Correction>
   9.000000E+99

> <Gold.Chemscore.Hbonds>
donor molecule, donor type, donor heavy atom, donor atom, acceptor molecule, acceptor atom, score
      L1  H    10    33       P1 10175  0.94
      L1  H    13    34       P1 10175  0.88
      P1  H  7989  7998       L1     7  0.34

> <Gold.Chemscore.Hbond.Weighted>
-8.1166

> <Gold.Chemscore.Metal.Weighted>
-0.0000

> <Gold.Chemscore.Lipo.Weighted>
-6.5955

> <Gold.Chemscore.Internal_Hbond.Weighted>
0.0000

> <Gold.Chemscore.DEClash.Weighted>
0.0154

> <Gold.Chemscore.DEInternal.Weighted>
2.8202

> <Gold.Chemscore.Rot.Weighted>
4.0512

> <Gold.Chemscore.Internal.Correction.Weighted>
   9.000000E+99

> <Gold.Protein.RotatedTorsions>
[ 6907 6896 6895 6894 ] final   11.37 input  -60.11 | X-H torsion
[ 7974 7965 7964 7962 ] final   16.37 input  175.53 | X-H torsion
[ 8008 7997 7996 7995 ] final  160.19 input   59.86 | X-H torsion
[ 10167 10162 10161 10158 ] final  -82.78 input  -65.29 | X-H torsion
[ 10718 10713 10712 10709 ] final -116.56 input   66.30 | X-H torsion
[ 10763 10752 10751 10750 ] final    0.19 input  -60.55 | X-H torsion
[ 11005 11000 10999 10996 ] final -172.26 input  -57.11 | X-H torsion

> <Gold.Protein.ActiveResidues>
 VAL166  LYS551  ARG553  GLY616  TRP617  ASP618  TYR619  PRO620  LYS621  CYS622 
 ASP623  PHE694  ASN695  SER759  ASP760  ASP761  ALA762  ILE779  LEU786  VAL792 
 PHE793  MET794  SER795  GLU796  ALA797  LYS798  CYS799  TRP800  GLU811  SER814 

> <Gold.Protein.RotatedAtoms>
  151.7532  135.0828  160.0333 H   0  0  0  0  0  0  0  0  0  0  0  0  # atno 6907 bound_to 6896
  152.3403  133.6055  159.5880 H   0  0  0  0  0  0  0  0  0  0  0  0  # atno 6908 bound_to 6896
  150.7475  133.9648  159.3569 H   0  0  0  0  0  0  0  0  0  0  0  0  # atno 6909 bound_to 6896
  146.2251  139.8757  142.8579 H   0  0  0  0  0  0  0  0  0  0  0  0  # atno 7974 bound_to 7965
  156.2189  140.1811  156.7524 H   0  0  0  0  0  0  0  0  0  0  0  0  # atno 8008 bound_to 7997
  154.5834  140.0662  156.9166 H   0  0  0  0  0  0  0  0  0  0  0  0  # atno 8009 bound_to 7997
  155.2462  140.3325  155.4289 H   0  0  0  0  0  0  0  0  0  0  0  0  # atno 8010 bound_to 7997
  140.4288  143.2556  151.8788 H   0  0  0  0  0  0  0  0  0  0  0  0  # atno 10167 bound_to 10162
  156.0972  130.6142  150.9051 H   0  0  0  0  0  0  0  0  0  0  0  0  # atno 10718 bound_to 10713
  153.3238  135.6971  153.7007 H   0  0  0  0  0  0  0  0  0  0  0  0  # atno 10763 bound_to 10752
  153.5837  135.3493  155.2885 H   0  0  0  0  0  0  0  0  0  0  0  0  # atno 10764 bound_to 10752
  154.8603  135.4301  154.2409 H   0  0  0  0  0  0  0  0  0  0  0  0  # atno 10765 bound_to 10752
  140.4989  134.5912  157.4981 H   0  0  0  0  0  0  0  0  0  0  0  0  # atno 11005 bound_to 11000
  145.2563  141.0061  143.3852 LP  0  0  0  0  0  0  0  0  0  0  0  0  # atno 17320 bound_to 7965
  144.9334  139.4272  143.6484 LP  0  0  0  0  0  0  0  0  0  0  0  0  # atno 17321 bound_to 7965
  139.4784  144.5357  151.8601 LP  0  0  0  0  0  0  0  0  0  0  0  0  # atno 17342 bound_to 10162
  140.4451  144.1933  150.5893 LP  0  0  0  0  0  0  0  0  0  0  0  0  # atno 17343 bound_to 10162
  157.6135  131.0935  150.8752 LP  0  0  0  0  0  0  0  0  0  0  0  0  # atno 17370 bound_to 10713
  156.8887  130.5205  149.5287 LP  0  0  0  0  0  0  0  0  0  0  0  0  # atno 17371 bound_to 10713
  139.9725  134.7270  156.0014 LP  0  0  0  0  0  0  0  0  0  0  0  0  # atno 17394 bound_to 11000
  141.1446  133.6558  156.3828 LP  0  0  0  0  0  0  0  0  0  0  0  0  # atno 17395 bound_to 11000

$$$$
