AV-unprocessed.smi:2228|AV-procd|sdf|9025|dock7
  -GOLD-   2272012233D 1   1.00000     0.00000
 Structure written by MMmdl.
 40 41  0  0  0  0  0  0  0  0  1 V2000
  146.2774  142.4612  154.7721 C   0  0  0  0  0  0  0  0  0  0  0  0
  146.7171  141.3201  155.4920 O   0  0  0  0  0  0  0  0  0  0  0  0
  147.4658  140.4051  154.7014 C   0  0  2  0  0  0  0  0  0  0  0  0
  147.9317  139.2142  155.5360 C   0  0  0  0  0  0  0  0  0  0  0  0
  149.0545  138.5983  154.7021 C   0  0  0  0  0  0  0  0  0  0  0  0
  149.7150  139.7722  153.9641 C   0  0  0  0  0  0  0  0  0  0  0  0
  148.7666  140.9794  154.1071 C   0  0  2  0  0  0  0  0  0  0  0  0
  149.3583  141.9796  154.9974 N   0  0  0  0  0  0  0  0  0  0  0  0
  150.0665  141.7249  156.1070 C   0  0  0  0  0  0  0  0  0  0  0  0
  150.2956  140.5895  156.5250 O   0  0  0  0  0  0  0  0  0  0  0  0
  150.4828  142.8648  156.6858 N   0  0  0  0  0  0  0  0  0  0  0  0
  151.2869  143.0178  157.8463 C   0  0  0  0  0  0  0  0  0  0  0  0
  151.1909  144.2772  158.4795 C   0  0  0  0  0  0  0  0  0  0  0  0
  151.9527  144.5325  159.6374 C   0  0  0  0  0  0  0  0  0  0  0  0
  151.8628  145.8750  160.3321 C   0  0  0  0  0  0  0  0  0  0  0  0
  152.7937  143.5170  160.1315 C   0  0  0  0  0  0  0  0  0  0  0  0
  152.8325  142.2910  159.4392 C   0  0  0  0  0  0  0  0  0  0  0  0
  153.7151  141.1559  159.9139 C   0  0  0  0  0  0  0  0  0  0  0  0
  152.1009  142.0472  158.3309 N   0  0  0  0  0  0  0  0  0  0  0  0
  145.7241  143.1215  155.4396 H   0  0  0  0  0  0  0  0  0  0  0  0
  145.6137  142.1788  153.9539 H   0  0  0  0  0  0  0  0  0  0  0  0
  147.1139  143.0268  154.3612 H   0  0  0  0  0  0  0  0  0  0  0  0
  146.8415  140.0168  153.8938 H   0  0  0  0  0  0  0  0  0  0  0  0
  148.3306  139.5615  156.4903 H   0  0  0  0  0  0  0  0  0  0  0  0
  147.1277  138.5086  155.7470 H   0  0  0  0  0  0  0  0  0  0  0  0
  149.7634  138.0402  155.3141 H   0  0  0  0  0  0  0  0  0  0  0  0
  148.6297  137.9040  153.9760 H   0  0  0  0  0  0  0  0  0  0  0  0
  150.7015  139.9843  154.3797 H   0  0  0  0  0  0  0  0  0  0  0  0
  149.8648  139.5188  152.9140 H   0  0  0  0  0  0  0  0  0  0  0  0
  148.5607  141.4117  153.1266 H   0  0  0  0  0  0  0  0  0  0  0  0
  149.2286  142.9451  154.7330 H   0  0  0  0  0  0  0  0  0  0  0  0
  150.2016  143.7238  156.2370 H   0  0  0  0  0  0  0  0  0  0  0  0
  150.5394  145.0427  158.0829 H   0  0  0  0  0  0  0  0  0  0  0  0
  152.5798  145.9470  161.1505 H   0  0  0  0  0  0  0  0  0  0  0  0
  150.8624  146.0222  160.7395 H   0  0  0  0  0  0  0  0  0  0  0  0
  152.0699  146.6807  159.6271 H   0  0  0  0  0  0  0  0  0  0  0  0
  153.3930  143.6731  161.0167 H   0  0  0  0  0  0  0  0  0  0  0  0
  154.3965  141.4870  160.6982 H   0  0  0  0  0  0  0  0  0  0  0  0
  154.3123  140.7656  159.0892 H   0  0  0  0  0  0  0  0  0  0  0  0
  153.1048  140.3443  160.3108 H   0  0  0  0  0  0  0  0  0  0  0  0
  1  2  1  0  0  0  0
  1 20  1  0  0  0  0
  1 21  1  0  0  0  0
  1 22  1  0  0  0  0
  2  3  1  0  0  0  0
  3  7  1  0  0  0  0
  3  4  1  0  0  0  0
  3 23  1  0  0  0  0
  4  5  1  0  0  0  0
  4 24  1  0  0  0  0
  4 25  1  0  0  0  0
  5  6  1  0  0  0  0
  5 26  1  0  0  0  0
  5 27  1  0  0  0  0
  6  7  1  0  0  0  0
  6 28  1  0  0  0  0
  6 29  1  0  0  0  0
  7  8  1  0  0  0  0
  7 30  1  0  0  0  0
  8  9  1  0  0  0  0
  8 31  1  0  0  0  0
  9 10  2  0  0  0  0
  9 11  1  0  0  0  0
 11 12  1  0  0  0  0
 11 32  1  0  0  0  0
 12 19  1  0  0  0  0
 12 13  2  0  0  0  0
 13 14  1  0  0  0  0
 13 33  1  0  0  0  0
 14 15  1  0  0  0  0
 14 16  2  0  0  0  0
 15 34  1  0  0  0  0
 15 35  1  0  0  0  0
 15 36  1  0  0  0  0
 16 17  1  0  0  0  0
 16 37  1  0  0  0  0
 17 18  1  0  0  0  0
 17 19  2  0  0  0  0
 18 38  1  0  0  0  0
 18 39  1  0  0  0  0
 18 40  1  0  0  0  0
M  END
> <s_m_source_file>
AV-unprocessed.smi

> <i_m_source_file_index>
2228

> <i_lp_mmshare_version>
43012

> <i_f3d_flags>
0

> <s_epik_input>
W0NIM11PW0NAQEhdMVtDSDJdW0NIMl1bQ0gyXVtDQEhdMVtOSF1DKD1PKVtOSF1jMltjSF1jKFtDSDNdKVtjSF1jKG4yKVtDSDNd

> <s_epik_cmdline>
J2VwaWtfcHl0aG9uJywgJy1waCcsICc3LjAnLCAnLXRuJywgJzgnLCAnLW1hJywgJzIwMCcsICctbWV0YWxfYmluZGluZycsICctaW1hZScsICc8aW5maWxlLm1hZT4nLCAnLW9tYWUnLCAnPG91dGZpbGUubWFlPic=

> <r_lp_tautomer_probability>
1

> <r_epik_Ionization_Penalty>
0.000275391

> <r_epik_Ionization_Penalty_Charging>
0

> <r_epik_Ionization_Penalty_Neutral>
0.000275391

> <r_epik_State_Penalty>
-0

> <r_epik_Charging_Adjusted_Penalty>
0

> <i_epik_Tot_Q>
0

> <i_epik_Tot_abs_Q>
0

> <r_epik_Metal_State_Penalty>
-0

> <b_epik_Metal_Only>
0

> <s_lp_Force_Field>
OPLS_2005

> <r_lp_Energy>
22.5383

> <b_lp_Chiralities_Consistent>
1

> <s_lp_Variant>
AV-unprocessed.smi:2228-3

> <Gold.Version>
5.8.1

> <Gold.Id.Protein>
6NUR|6NUR_protein|mol2

> <Gold.PLP.Fitness>
43.7875

> <Gold.PLP.PLP>
-39.5067

> <Gold.PLP.part.hbond>
-2.0000

> <Gold.PLP.part.metal>
0.0000

> <Gold.PLP.part.buried>
-1.8872

> <Gold.PLP.part.nonpolar>
-36.2450

> <Gold.PLP.part.repulsive>
0.3844

> <Gold.PLP.ligand.clash>
0.0000

> <Gold.PLP.ligand.torsion>
0.3755

> <Gold.PLP.Chemscore.Hbond>
1.6734

> <Gold.PLP.Chemscore.CHOScore>
0.0000

> <Gold.PLP.Chemscore.Metal>
0.0000

> <Gold.Chemscore.Hbonds>
donor molecule, donor type, donor heavy atom, donor atom, acceptor molecule, acceptor atom, score
      L1  H     8    31       P1  8028  0.77
      L1  H    11    32       P1  8028  0.96

> <Gold.PLP.Chemscore.Internal.Correction>
0.0116

> <Gold.Rescore>
     Score         DG    S(hbond)    S(metal)    S(lipo)     H(rot)  DE(clash)    DE(int)     intcor
     15.11     -19.64       1.74        0.00      97.87       1.21       0.28       4.26       ----

> <Gold.Chemscore.Fitness>
15.1056

> <Gold.Chemscore.DG>
-19.6416

> <Gold.Chemscore.ZeroCoef>
-5.4800

> <Gold.Chemscore.Hbond>
1.7405

> <Gold.Chemscore.Metal>
0.0000

> <Gold.Chemscore.Lipo>
97.8714

> <Gold.Chemscore.Internal_Hbond>
0.0000

> <Gold.Chemscore.DEClash>
0.2769

> <Gold.Chemscore.DEInternal>
4.2591

> <Gold.Chemscore.Rot>
1.2119

> <Gold.Chemscore.Internal.Correction>
   9.000000E+99

> <Gold.Chemscore.Hbonds>
donor molecule, donor type, donor heavy atom, donor atom, acceptor molecule, acceptor atom, score
      L1  H     8    31       P1  8028  0.73
      L1  H    11    32       P1  8028  0.92

> <Gold.Chemscore.Hbond.Weighted>
-5.8132

> <Gold.Chemscore.Metal.Weighted>
-0.0000

> <Gold.Chemscore.Lipo.Weighted>
-11.4510

> <Gold.Chemscore.Internal_Hbond.Weighted>
0.0000

> <Gold.Chemscore.DEClash.Weighted>
0.2769

> <Gold.Chemscore.DEInternal.Weighted>
4.2591

> <Gold.Chemscore.Rot.Weighted>
3.1026

> <Gold.Chemscore.Internal.Correction.Weighted>
   9.000000E+99

> <Gold.Protein.RotatedTorsions>
[ 6907 6896 6895 6894 ] final  103.84 input  -60.11 | X-H torsion
[ 7974 7965 7964 7962 ] final -139.60 input  175.53 | X-H torsion
[ 8008 7997 7996 7995 ] final   22.00 input   59.86 | X-H torsion
[ 10167 10162 10161 10158 ] final   -7.65 input  -65.29 | X-H torsion
[ 10718 10713 10712 10709 ] final  -97.46 input   66.30 | X-H torsion
[ 10763 10752 10751 10750 ] final  151.86 input  -60.55 | X-H torsion
[ 11005 11000 10999 10996 ] final -123.72 input  -57.11 | X-H torsion

> <Gold.Protein.ActiveResidues>
 VAL166  LYS551  ARG553  GLY616  TRP617  ASP618  TYR619  PRO620  LYS621  CYS622 
 ASP623  PHE694  ASN695  SER759  ASP760  ASP761  ALA762  ILE779  LEU786  VAL792 
 PHE793  MET794  SER795  GLU796  ALA797  LYS798  CYS799  TRP800  GLU811  SER814 

> <Gold.Protein.RotatedAtoms>
  152.5283  133.9765  159.7786 H   0  0  0  0  0  0  0  0  0  0  0  0  # atno 6907 bound_to 6896
  151.0027  133.6033  159.2700 H   0  0  0  0  0  0  0  0  0  0  0  0  # atno 6908 bound_to 6896
  151.3136  135.0807  159.9334 H   0  0  0  0  0  0  0  0  0  0  0  0  # atno 6909 bound_to 6896
  144.8663  140.6299  143.5295 H   0  0  0  0  0  0  0  0  0  0  0  0  # atno 7974 bound_to 7965
  154.9591  140.3075  155.5039 H   0  0  0  0  0  0  0  0  0  0  0  0  # atno 8008 bound_to 7997
  156.2979  140.2304  156.4614 H   0  0  0  0  0  0  0  0  0  0  0  0  # atno 8009 bound_to 7997
  154.7982  140.0435  157.1241 H   0  0  0  0  0  0  0  0  0  0  0  0  # atno 8010 bound_to 7997
  140.7035  143.6057  150.8754 H   0  0  0  0  0  0  0  0  0  0  0  0  # atno 10167 bound_to 10162
  156.0084  130.5195  150.6377 H   0  0  0  0  0  0  0  0  0  0  0  0  # atno 10718 bound_to 10713
  154.1106  135.2839  155.3231 H   0  0  0  0  0  0  0  0  0  0  0  0  # atno 10763 bound_to 10752
  154.6492  135.5375  153.7885 H   0  0  0  0  0  0  0  0  0  0  0  0  # atno 10764 bound_to 10752
  153.0347  135.6506  154.1264 H   0  0  0  0  0  0  0  0  0  0  0  0  # atno 10765 bound_to 10752
  140.9897  134.0557  157.3669 H   0  0  0  0  0  0  0  0  0  0  0  0  # atno 11005 bound_to 11000
  145.4214  139.1563  143.4072 LP  0  0  0  0  0  0  0  0  0  0  0  0  # atno 17320 bound_to 7965
  146.2898  140.4325  142.8744 LP  0  0  0  0  0  0  0  0  0  0  0  0  # atno 17321 bound_to 7965
  139.9780  143.5982  152.2952 LP  0  0  0  0  0  0  0  0  0  0  0  0  # atno 17342 bound_to 10162
  139.6593  144.7662  151.1994 LP  0  0  0  0  0  0  0  0  0  0  0  0  # atno 17343 bound_to 10162
  157.4163  131.0830  151.1173 LP  0  0  0  0  0  0  0  0  0  0  0  0  # atno 17370 bound_to 10713
  157.1789  130.6300  149.5665 LP  0  0  0  0  0  0  0  0  0  0  0  0  # atno 17371 bound_to 10713
  139.8986  135.0155  156.7158 LP  0  0  0  0  0  0  0  0  0  0  0  0  # atno 17394 bound_to 11000
  140.7059  133.9265  155.8054 LP  0  0  0  0  0  0  0  0  0  0  0  0  # atno 17395 bound_to 11000

$$$$
