AV-unprocessed.smi:2905|AV-procd|sdf|11161|dock3
  -GOLD-   2272016 43D 1   1.00000     0.00000
 Structure written by MMmdl.
 39 40  0  0  0  0  0  0  0  0  1 V2000
  145.9105  131.8741  149.3464 C   0  0  0  0  0  0  0  0  0  0  0  0
  145.3013  132.0980  150.7524 C   0  0  0  0  0  0  0  0  0  0  0  0
  143.8740  131.5137  150.7322 C   0  0  0  0  0  0  0  0  0  0  0  0
  146.1837  131.3327  151.7598 C   0  0  0  0  0  0  0  0  0  0  0  0
  145.2493  133.5892  151.1310 C   0  0  0  0  0  0  0  0  0  0  0  0
  144.4170  134.3886  150.4509 N   0  0  0  0  0  0  0  0  0  0  0  0
  144.3809  135.6943  150.7923 C   0  0  0  0  0  0  0  0  0  0  0  0
  145.1885  136.2117  151.8332 C   0  0  0  0  0  0  0  0  0  0  0  0
  145.2330  137.5726  152.2371 N   0  0  0  0  0  0  0  0  0  0  0  0
  145.9711  138.1374  153.2122 C   0  0  0  0  0  0  0  0  0  0  0  0
  146.8139  137.5459  153.8832 O   0  0  0  0  0  0  0  0  0  0  0  0
  145.7408  139.4515  153.3851 N   0  0  0  0  0  0  0  0  0  0  0  0
  146.3666  140.3586  154.3490 C   0  0  0  0  0  0  0  0  0  0  0  0
  145.3567  140.9474  155.3673 C   0  0  0  0  0  0  0  0  0  0  0  0
  145.7068  142.4100  155.4093 C   0  0  0  0  0  0  0  0  0  0  0  0
  146.6061  142.7433  154.4858 C   0  0  0  0  0  0  0  0  0  0  0  0
  147.0309  141.5681  153.6479 C   0  0  0  0  0  0  0  0  0  0  0  0
  146.0332  135.2831  152.4732 C   0  0  0  0  0  0  0  0  0  0  0  0
  146.0582  133.9795  152.1244 N   0  0  0  0  0  0  0  0  0  0  0  0
  145.9428  130.8140  149.0924 H   0  0  0  0  0  0  0  0  0  0  0  0
  146.9330  132.2493  149.2856 H   0  0  0  0  0  0  0  0  0  0  0  0
  145.3272  132.3718  148.5704 H   0  0  0  0  0  0  0  0  0  0  0  0
  143.2403  132.0447  150.0211 H   0  0  0  0  0  0  0  0  0  0  0  0
  143.3967  131.5807  151.7105 H   0  0  0  0  0  0  0  0  0  0  0  0
  143.8786  130.4608  150.4480 H   0  0  0  0  0  0  0  0  0  0  0  0
  146.2597  130.2761  151.5004 H   0  0  0  0  0  0  0  0  0  0  0  0
  145.7813  131.3870  152.7717 H   0  0  0  0  0  0  0  0  0  0  0  0
  147.1953  131.7394  151.7867 H   0  0  0  0  0  0  0  0  0  0  0  0
  143.7169  136.3091  150.2052 H   0  0  0  0  0  0  0  0  0  0  0  0
  144.6478  138.2016  151.7069 H   0  0  0  0  0  0  0  0  0  0  0  0
  145.0804  139.8773  152.7509 H   0  0  0  0  0  0  0  0  0  0  0  0
  147.1492  139.8297  154.8962 H   0  0  0  0  0  0  0  0  0  0  0  0
  144.3216  140.8363  155.0413 H   0  0  0  0  0  0  0  0  0  0  0  0
  145.4621  140.4917  156.3522 H   0  0  0  0  0  0  0  0  0  0  0  0
  145.2472  143.0942  156.1071 H   0  0  0  0  0  0  0  0  0  0  0  0
  146.9890  143.7393  154.3187 H   0  0  0  0  0  0  0  0  0  0  0  0
  148.1173  141.4771  153.6252 H   0  0  0  0  0  0  0  0  0  0  0  0
  146.6725  141.7091  152.6273 H   0  0  0  0  0  0  0  0  0  0  0  0
  146.6945  135.5854  153.2721 H   0  0  0  0  0  0  0  0  0  0  0  0
  1  2  1  0  0  0  0
  1 20  1  0  0  0  0
  1 21  1  0  0  0  0
  1 22  1  0  0  0  0
  2  3  1  0  0  0  0
  2  4  1  0  0  0  0
  2  5  1  0  0  0  0
  3 23  1  0  0  0  0
  3 24  1  0  0  0  0
  3 25  1  0  0  0  0
  4 26  1  0  0  0  0
  4 27  1  0  0  0  0
  4 28  1  0  0  0  0
  5 19  1  0  0  0  0
  5  6  2  0  0  0  0
  6  7  1  0  0  0  0
  7  8  2  0  0  0  0
  7 29  1  0  0  0  0
  8  9  1  0  0  0  0
  8 18  1  0  0  0  0
  9 10  1  0  0  0  0
  9 30  1  0  0  0  0
 10 11  2  0  0  0  0
 10 12  1  0  0  0  0
 12 13  1  0  0  0  0
 12 31  1  0  0  0  0
 13 17  1  0  0  0  0
 13 14  1  0  0  0  0
 13 32  1  0  0  0  0
 14 15  1  0  0  0  0
 14 33  1  0  0  0  0
 14 34  1  0  0  0  0
 15 16  2  0  0  0  0
 15 35  1  0  0  0  0
 16 17  1  0  0  0  0
 16 36  1  0  0  0  0
 17 37  1  0  0  0  0
 17 38  1  0  0  0  0
 18 19  2  0  0  0  0
 18 39  1  0  0  0  0
M  END
> <s_m_source_file>
AV-unprocessed.smi

> <i_m_source_file_index>
2905

> <i_lp_mmshare_version>
43012

> <i_f3d_flags>
0

> <s_epik_input>
W0NIM11DKFtDSDNdKShbQ0gzXSljMW5bY0hdYyhbY0hdbjEpW05IXUMoPU8pW05IXVtDSF0yW0NIMl1bQ0hdPVtDSF1bQ0gyXTI=

> <s_epik_cmdline>
J2VwaWtfcHl0aG9uJywgJy1waCcsICc3LjAnLCAnLXRuJywgJzgnLCAnLW1hJywgJzIwMCcsICctbWV0YWxfYmluZGluZycsICctaW1hZScsICc8aW5maWxlLm1hZT4nLCAnLW9tYWUnLCAnPG91dGZpbGUubWFlPic=

> <r_lp_tautomer_probability>
1

> <r_epik_Ionization_Penalty>
2.65275e-05

> <r_epik_Ionization_Penalty_Charging>
0

> <r_epik_Ionization_Penalty_Neutral>
2.65275e-05

> <r_epik_State_Penalty>
-0

> <r_epik_Charging_Adjusted_Penalty>
0

> <i_epik_Tot_Q>
0

> <i_epik_Tot_abs_Q>
0

> <r_epik_Metal_State_Penalty>
-0

> <b_epik_Metal_Only>
0

> <s_lp_Force_Field>
OPLS_2005

> <r_lp_Energy>
27.7511

> <b_lp_Chiralities_Consistent>
1

> <s_lp_Variant>
AV-unprocessed.smi:2905-1

> <Gold.Version>
5.8.1

> <Gold.Id.Protein>
6NUR|6NUR_protein|mol2

> <Gold.PLP.Fitness>
39.1719

> <Gold.PLP.PLP>
-30.2258

> <Gold.PLP.part.hbond>
-2.0317

> <Gold.PLP.part.metal>
0.0000

> <Gold.PLP.part.buried>
-2.5984

> <Gold.PLP.part.nonpolar>
-27.0325

> <Gold.PLP.part.repulsive>
0.4795

> <Gold.PLP.ligand.clash>
0.0000

> <Gold.PLP.ligand.torsion>
0.1928

> <Gold.PLP.Chemscore.Hbond>
1.8356

> <Gold.PLP.Chemscore.CHOScore>
1.2729

> <Gold.PLP.Chemscore.Metal>
0.0000

> <Gold.Chemscore.Hbonds>
donor molecule, donor type, donor heavy atom, donor atom, acceptor molecule, acceptor atom, score
      L1  H     9    30       P1 10171  0.79
      L1  H    12    31       P1 10175  1.00
      L1  C     7    29       P1 10171  0.98
      L1  C    18    39       P1  7948  0.20

> <Gold.PLP.Chemscore.Internal.Correction>
0.0063

> <Gold.Rescore>
     Score         DG    S(hbond)    S(metal)    S(lipo)     H(rot)  DE(clash)    DE(int)     intcor
     16.13     -17.71       1.75        0.00      80.08       1.17       0.12       1.47       ----

> <Gold.Chemscore.Fitness>
16.1284

> <Gold.Chemscore.DG>
-17.7124

> <Gold.Chemscore.ZeroCoef>
-5.4800

> <Gold.Chemscore.Hbond>
1.7540

> <Gold.Chemscore.Metal>
0.0000

> <Gold.Chemscore.Lipo>
80.0754

> <Gold.Chemscore.Internal_Hbond>
0.0000

> <Gold.Chemscore.DEClash>
0.1161

> <Gold.Chemscore.DEInternal>
1.4678

> <Gold.Chemscore.Rot>
1.1699

> <Gold.Chemscore.Internal.Correction>
   9.000000E+99

> <Gold.Chemscore.Hbonds>
donor molecule, donor type, donor heavy atom, donor atom, acceptor molecule, acceptor atom, score
      L1  H     9    30       P1 10171  0.75
      L1  H    12    31       P1 10175  0.90

> <Gold.Chemscore.Hbond.Weighted>
-5.8584

> <Gold.Chemscore.Metal.Weighted>
-0.0000

> <Gold.Chemscore.Lipo.Weighted>
-9.3688

> <Gold.Chemscore.Internal_Hbond.Weighted>
0.0000

> <Gold.Chemscore.DEClash.Weighted>
0.1161

> <Gold.Chemscore.DEInternal.Weighted>
1.4678

> <Gold.Chemscore.Rot.Weighted>
2.9949

> <Gold.Chemscore.Internal.Correction.Weighted>
   9.000000E+99

> <Gold.Protein.RotatedTorsions>
[ 6907 6896 6895 6894 ] final  -84.51 input  -60.11 | X-H torsion
[ 7974 7965 7964 7962 ] final   87.05 input  175.53 | X-H torsion
[ 8008 7997 7996 7995 ] final  112.30 input   59.86 | X-H torsion
[ 10167 10162 10161 10158 ] final  -62.11 input  -65.29 | X-H torsion
[ 10718 10713 10712 10709 ] final   46.44 input   66.30 | X-H torsion
[ 10763 10752 10751 10750 ] final  159.35 input  -60.55 | X-H torsion
[ 11005 11000 10999 10996 ] final  167.76 input  -57.11 | X-H torsion

> <Gold.Protein.ActiveResidues>
 VAL166  LYS551  ARG553  GLY616  TRP617  ASP618  TYR619  PRO620  LYS621  CYS622 
 ASP623  PHE694  ASN695  SER759  ASP760  ASP761  ALA762  ILE779  LEU786  VAL792 
 PHE793  MET794  SER795  GLU796  ALA797  LYS798  CYS799  TRP800  GLU811  SER814 

> <Gold.Protein.RotatedAtoms>
  150.6876  134.3347  159.4841 H   0  0  0  0  0  0  0  0  0  0  0  0  # atno 6907 bound_to 6896
  152.1207  134.9205  160.0572 H   0  0  0  0  0  0  0  0  0  0  0  0  # atno 6908 bound_to 6896
  152.0412  133.3943  159.4374 H   0  0  0  0  0  0  0  0  0  0  0  0  # atno 6909 bound_to 6896
  145.5641  139.2307  143.2443 H   0  0  0  0  0  0  0  0  0  0  0  0  # atno 7974 bound_to 7965
  156.2183  140.3002  155.9891 H   0  0  0  0  0  0  0  0  0  0  0  0  # atno 8008 bound_to 7997
  155.2549  140.0427  157.3008 H   0  0  0  0  0  0  0  0  0  0  0  0  # atno 8009 bound_to 7997
  154.5801  140.2372  155.8075 H   0  0  0  0  0  0  0  0  0  0  0  0  # atno 8010 bound_to 7997
  140.5961  143.2351  151.6033 H   0  0  0  0  0  0  0  0  0  0  0  0  # atno 10167 bound_to 10162
  157.4482  130.8122  149.7761 H   0  0  0  0  0  0  0  0  0  0  0  0  # atno 10718 bound_to 10713
  154.2304  135.2778  155.2892 H   0  0  0  0  0  0  0  0  0  0  0  0  # atno 10763 bound_to 10752
  154.5628  135.5642  153.7026 H   0  0  0  0  0  0  0  0  0  0  0  0  # atno 10764 bound_to 10752
  153.0021  135.6302  154.2446 H   0  0  0  0  0  0  0  0  0  0  0  0  # atno 10765 bound_to 10752
  140.2802  134.7756  157.3751 H   0  0  0  0  0  0  0  0  0  0  0  0  # atno 11005 bound_to 11000
  146.1831  140.6466  142.9180 LP  0  0  0  0  0  0  0  0  0  0  0  0  # atno 17320 bound_to 7965
  144.7469  140.5091  143.6829 LP  0  0  0  0  0  0  0  0  0  0  0  0  # atno 17321 bound_to 7965
  139.5259  144.3061  152.1032 LP  0  0  0  0  0  0  0  0  0  0  0  0  # atno 17342 bound_to 10162
  140.2234  144.4443  150.6332 LP  0  0  0  0  0  0  0  0  0  0  0  0  # atno 17343 bound_to 10162
  155.9976  130.3899  150.2734 LP  0  0  0  0  0  0  0  0  0  0  0  0  # atno 17370 bound_to 10713
  157.0904  131.0168  151.3124 LP  0  0  0  0  0  0  0  0  0  0  0  0  # atno 17371 bound_to 10713
  140.1290  134.5119  155.8120 LP  0  0  0  0  0  0  0  0  0  0  0  0  # atno 17394 bound_to 11000
  141.2164  133.6783  156.7005 LP  0  0  0  0  0  0  0  0  0  0  0  0  # atno 17395 bound_to 11000

$$$$
