AV-unprocessed.smi:3092|AV-procd|sdf|11785|dock7
  -GOLD-   2272017163D 1   1.00000     0.00000
 Structure written by MMmdl.
 26 27  0  0  0  0  0  0  0  0  3 V2000
  153.0096  142.3052  159.7526 C   0  0  0  0  0  0  0  0  0  0  0  0
  152.1499  143.3511  159.1944 N   0  0  0  0  0  0  0  0  0  0  0  0
  152.2159  144.6906  159.4812 C   0  0  0  0  0  0  0  0  0  0  0  0
  151.2331  145.2994  158.7469 C   0  0  0  0  0  0  0  0  0  0  0  0
  150.6082  144.3075  158.0418 N   0  3  0  0  0  0  0  0  0  0  0  0
  151.1642  143.1182  158.3091 C   0  0  0  0  0  0  0  0  0  0  0  0
  150.7348  141.8028  157.7199 C   0  0  1  0  0  0  0  0  0  0  0  0
  149.2971  141.3862  158.0211 C   0  0  0  0  0  0  0  0  0  0  0  0
  149.0062  140.3256  156.9493 C   0  0  0  0  0  0  0  0  0  0  0  0
  149.9629  140.5623  155.8460 N   0  3  0  0  0  0  0  0  0  0  0  0
  150.7754  141.7423  156.1931 C   0  0  0  0  0  0  0  0  0  0  0  0
  153.7220  142.7501  160.4482 H   0  0  0  0  0  0  0  0  0  0  0  0
  153.5543  141.8157  158.9447 H   0  0  0  0  0  0  0  0  0  0  0  0
  152.3959  141.5770  160.2840 H   0  0  0  0  0  0  0  0  0  0  0  0
  152.9391  145.1028  160.1707 H   0  0  0  0  0  0  0  0  0  0  0  0
  150.9390  146.3366  158.6758 H   0  0  0  0  0  0  0  0  0  0  0  0
  151.4031  141.0351  158.1103 H   0  0  0  0  0  0  0  0  0  0  0  0
  149.1632  141.0178  159.0387 H   0  0  0  0  0  0  0  0  0  0  0  0
  148.6213  142.2312  157.8804 H   0  0  0  0  0  0  0  0  0  0  0  0
  149.1722  139.3220  157.3425 H   0  0  0  0  0  0  0  0  0  0  0  0
  147.9765  140.3809  156.5949 H   0  0  0  0  0  0  0  0  0  0  0  0
  150.5674  139.7563  155.7700 H   0  0  0  0  0  0  0  0  0  0  0  0
  150.2986  142.6218  155.7579 H   0  0  0  0  0  0  0  0  0  0  0  0
  151.7882  141.6733  155.7953 H   0  0  0  0  0  0  0  0  0  0  0  0
  149.4801  140.7062  154.9700 H   0  0  0  0  0  0  0  0  0  0  0  0
  149.8317  144.4527  157.4087 H   0  0  0  0  0  0  0  0  0  0  0  0
  1  2  1  0  0  0  0
  1 12  1  0  0  0  0
  1 13  1  0  0  0  0
  1 14  1  0  0  0  0
  2  6  1  0  0  0  0
  2  3  1  0  0  0  0
  3  4  2  0  0  0  0
  3 15  1  0  0  0  0
  4  5  1  0  0  0  0
  4 16  1  0  0  0  0
  5  6  2  0  0  0  0
  5 26  1  0  0  0  0
  6  7  1  0  0  0  0
  7 11  1  0  0  0  0
  7  8  1  0  0  0  0
  7 17  1  0  0  0  0
  8  9  1  0  0  0  0
  8 18  1  0  0  0  0
  8 19  1  0  0  0  0
  9 10  1  0  0  0  0
  9 20  1  0  0  0  0
  9 21  1  0  0  0  0
 10 11  1  0  0  0  0
 10 22  1  0  0  0  0
 10 25  1  0  0  0  0
 11 23  1  0  0  0  0
 11 24  1  0  0  0  0
M  CHG  1   5   1
M  CHG  1  10   1
M  END
> <s_m_source_file>
AV-unprocessed.smi

> <i_m_source_file_index>
3092

> <i_lp_mmshare_version>
43012

> <i_f3d_flags>
0

> <s_epik_input>
W0NIM11uMVtjSF1bY0hdbmMxW0NAQEhdMltDSDJdW0NIMl1bTkhdW0NIMl0y

> <s_epik_cmdline>
J2VwaWtfcHl0aG9uJywgJy1waCcsICc3LjAnLCAnLXRuJywgJzgnLCAnLW1hJywgJzIwMCcsICctbWV0YWxfYmluZGluZycsICctaW1hZScsICc8aW5maWxlLm1hZT4nLCAnLW9tYWUnLCAnPG91dGZpbGUubWFlPic=

> <r_lp_tautomer_probability>
1

> <r_epik_Ionization_Penalty>
0.803493

> <r_epik_Ionization_Penalty_Charging>
0.000689375

> <r_epik_Ionization_Penalty_Neutral>
0.802804

> <r_epik_State_Penalty>
0.834355

> <r_epik_Charging_Adjusted_Penalty>
0.835044

> <i_epik_Tot_Q>
2

> <i_epik_Tot_abs_Q>
2

> <r_epik_Metal_State_Penalty>
4.76097

> <b_epik_Metal_Only>
0

> <s_lp_Force_Field>
OPLS_2005

> <r_lp_Energy>
35.9538

> <b_lp_Chiralities_Consistent>
1

> <s_lp_Variant>
AV-unprocessed.smi:3092-4

> <Gold.Version>
5.8.1

> <Gold.Id.Protein>
6NUR|6NUR_protein|mol2

> <Gold.PLP.Fitness>
32.6109

> <Gold.PLP.PLP>
-26.6236

> <Gold.PLP.part.hbond>
-1.2539

> <Gold.PLP.part.metal>
0.0000

> <Gold.PLP.part.buried>
-3.8119

> <Gold.PLP.part.nonpolar>
-21.0784

> <Gold.PLP.part.repulsive>
0.1474

> <Gold.PLP.ligand.clash>
0.0000

> <Gold.PLP.ligand.torsion>
0.0076

> <Gold.PLP.Chemscore.Hbond>
2.0000

> <Gold.PLP.Chemscore.CHOScore>
0.0000

> <Gold.PLP.Chemscore.Metal>
0.0000

> <Gold.Chemscore.Hbonds>
donor molecule, donor type, donor heavy atom, donor atom, acceptor molecule, acceptor atom, score
      L1  H     5    26       P1  8028  1.90

> <Gold.PLP.Chemscore.Internal.Correction>
0.0025

> <Gold.Rescore>
     Score         DG    S(hbond)    S(metal)    S(lipo)     H(rot)  DE(clash)    DE(int)     intcor
     12.32     -12.33       0.91        0.00      54.34       1.00       0.01       0.00       ----

> <Gold.Chemscore.Fitness>
12.3228

> <Gold.Chemscore.DG>
-12.3330

> <Gold.Chemscore.ZeroCoef>
-5.4800

> <Gold.Chemscore.Hbond>
0.9149

> <Gold.Chemscore.Metal>
0.0000

> <Gold.Chemscore.Lipo>
54.3352

> <Gold.Chemscore.Internal_Hbond>
0.0000

> <Gold.Chemscore.DEClash>
0.0089

> <Gold.Chemscore.DEInternal>
0.0014

> <Gold.Chemscore.Rot>
1.0000

> <Gold.Chemscore.Internal.Correction>
   9.000000E+99

> <Gold.Chemscore.Hbonds>
donor molecule, donor type, donor heavy atom, donor atom, acceptor molecule, acceptor atom, score
      L1  H     5    26       P1  8028  0.21

> <Gold.Chemscore.Hbond.Weighted>
-3.0558

> <Gold.Chemscore.Metal.Weighted>
-0.0000

> <Gold.Chemscore.Lipo.Weighted>
-6.3572

> <Gold.Chemscore.Internal_Hbond.Weighted>
0.0000

> <Gold.Chemscore.DEClash.Weighted>
0.0089

> <Gold.Chemscore.DEInternal.Weighted>
0.0014

> <Gold.Chemscore.Rot.Weighted>
2.5600

> <Gold.Chemscore.Internal.Correction.Weighted>
   9.000000E+99

> <Gold.Protein.RotatedTorsions>
[ 6907 6896 6895 6894 ] final -121.40 input  -60.11 | X-H torsion
[ 7974 7965 7964 7962 ] final -139.99 input  175.53 | X-H torsion
[ 8008 7997 7996 7995 ] final   44.40 input   59.86 | X-H torsion
[ 10167 10162 10161 10158 ] final  113.13 input  -65.29 | X-H torsion
[ 10718 10713 10712 10709 ] final  141.34 input   66.30 | X-H torsion
[ 10763 10752 10751 10750 ] final   52.04 input  -60.55 | X-H torsion
[ 11005 11000 10999 10996 ] final    0.32 input  -57.11 | X-H torsion

> <Gold.Protein.ActiveResidues>
 VAL166  LYS551  ARG553  GLY616  TRP617  ASP618  TYR619  PRO620  LYS621  CYS622 
 ASP623  PHE694  ASN695  SER759  ASP760  ASP761  ALA762  ILE779  LEU786  VAL792 
 PHE793  MET794  SER795  GLU796  ALA797  LYS798  CYS799  TRP800  GLU811  SER814 

> <Gold.Protein.RotatedAtoms>
  150.8480  133.7831  159.3035 H   0  0  0  0  0  0  0  0  0  0  0  0  # atno 6907 bound_to 6896
  151.5512  135.1066  159.9959 H   0  0  0  0  0  0  0  0  0  0  0  0  # atno 6908 bound_to 6896
  152.4529  133.7623  159.6809 H   0  0  0  0  0  0  0  0  0  0  0  0  # atno 6909 bound_to 6896
  144.8632  140.6253  143.5314 H   0  0  0  0  0  0  0  0  0  0  0  0  # atno 7974 bound_to 7965
  155.3186  140.3395  155.4242 H   0  0  0  0  0  0  0  0  0  0  0  0  # atno 8008 bound_to 7997
  156.1920  140.1701  156.8110 H   0  0  0  0  0  0  0  0  0  0  0  0  # atno 8009 bound_to 7997
  154.5453  140.0716  156.8562 H   0  0  0  0  0  0  0  0  0  0  0  0  # atno 8010 bound_to 7997
  139.6484  144.7127  151.2097 H   0  0  0  0  0  0  0  0  0  0  0  0  # atno 10167 bound_to 10162
  157.3931  131.1007  151.0627 H   0  0  0  0  0  0  0  0  0  0  0  0  # atno 10718 bound_to 10713
  152.9787  135.5826  154.4514 H   0  0  0  0  0  0  0  0  0  0  0  0  # atno 10763 bound_to 10752
  154.4102  135.2770  155.2043 H   0  0  0  0  0  0  0  0  0  0  0  0  # atno 10764 bound_to 10752
  154.3836  135.6141  153.5858 H   0  0  0  0  0  0  0  0  0  0  0  0  # atno 10765 bound_to 10752
  140.6278  133.9602  155.8258 H   0  0  0  0  0  0  0  0  0  0  0  0  # atno 11005 bound_to 11000
  145.4271  139.1555  143.4042 LP  0  0  0  0  0  0  0  0  0  0  0  0  # atno 17320 bound_to 7965
  146.2876  140.4385  142.8752 LP  0  0  0  0  0  0  0  0  0  0  0  0  # atno 17321 bound_to 7965
  140.7526  143.6192  150.8530 LP  0  0  0  0  0  0  0  0  0  0  0  0  # atno 17342 bound_to 10162
  139.9837  143.5922  152.2934 LP  0  0  0  0  0  0  0  0  0  0  0  0  # atno 17343 bound_to 10162
  157.1653  130.6243  149.5623 LP  0  0  0  0  0  0  0  0  0  0  0  0  # atno 17370 bound_to 10713
  155.9803  130.4803  150.6766 LP  0  0  0  0  0  0  0  0  0  0  0  0  # atno 17371 bound_to 10713
  141.0697  134.0224  157.3544 LP  0  0  0  0  0  0  0  0  0  0  0  0  # atno 17394 bound_to 11000
  139.9128  135.0192  156.7760 LP  0  0  0  0  0  0  0  0  0  0  0  0  # atno 17395 bound_to 11000

$$$$
