AV-unprocessed.smi:2448|AV-procd|sdf|9660|dock8
  -GOLD-   2272013293D 1   1.00000     0.00000
 Structure written by MMmdl.
 38 39  0  0  0  0  0  0  0  0  2 V2000
  149.9558  142.3003  155.2620 O   0  0  0  0  0  0  0  0  0  0  0  0
  149.2344  141.3704  156.0509 C   0  0  2  0  0  0  0  0  0  0  0  0
  149.8648  141.3427  157.4587 C   0  0  0  0  0  0  0  0  0  0  0  0
  151.1412  140.6234  157.4705 N   0  0  0  0  0  0  0  0  0  0  0  0
  151.8248  140.5038  158.7671 C   0  0  2  0  0  0  0  0  0  0  0  0
  152.8931  141.6222  158.8255 C   0  0  0  0  0  0  0  0  0  0  0  0
  152.7030  142.6310  159.9455 C   0  0  0  0  0  0  0  0  0  0  0  0
  152.1122  143.8886  159.6878 C   0  0  0  0  0  0  0  0  0  0  0  0
  151.9491  144.8033  160.7481 C   0  0  0  0  0  0  0  0  0  0  0  0
  152.3536  144.4692  161.9930 N   0  3  0  0  0  0  0  0  0  0  0  0
  152.9181  143.2768  162.2838 C   0  0  0  0  0  0  0  0  0  0  0  0
  153.1067  142.3219  161.2636 C   0  0  0  0  0  0  0  0  0  0  0  0
  152.4226  139.0860  158.9930 C   0  0  0  0  0  0  0  0  0  0  0  0
  151.4695  138.1866  159.2291 F   0  0  0  0  0  0  0  0  0  0  0  0
  153.1207  138.7038  157.9234 F   0  0  0  0  0  0  0  0  0  0  0  0
  153.2284  139.0687  160.0537 F   0  0  0  0  0  0  0  0  0  0  0  0
  149.3380  140.0029  155.3558 C   0  0  0  0  0  0  0  0  0  0  0  0
  148.4307  140.0329  154.1215 C   0  0  0  0  0  0  0  0  0  0  0  0
  146.9999  141.0671  154.5208 S   0  0  0  0  0  0  0  0  0  0  0  0
  147.7352  141.7213  156.0437 C   0  0  0  0  0  0  0  0  0  0  0  0
  149.7516  143.1716  155.5649 H   0  0  0  0  0  0  0  0  0  0  0  0
  150.0222  142.3657  157.8022 H   0  0  0  0  0  0  0  0  0  0  0  0
  149.1532  140.8866  158.1451 H   0  0  0  0  0  0  0  0  0  0  0  0
  151.0059  139.6992  157.0732 H   0  0  0  0  0  0  0  0  0  0  0  0
  151.0997  140.6969  159.5587 H   0  0  0  0  0  0  0  0  0  0  0  0
  153.8877  141.1804  158.9025 H   0  0  0  0  0  0  0  0  0  0  0  0
  152.8879  142.1813  157.8884 H   0  0  0  0  0  0  0  0  0  0  0  0
  151.7910  144.1539  158.6909 H   0  0  0  0  0  0  0  0  0  0  0  0
  151.5107  145.7845  160.6385 H   0  0  0  0  0  0  0  0  0  0  0  0
  153.1992  143.1238  163.3157 H   0  0  0  0  0  0  0  0  0  0  0  0
  153.5565  141.3664  161.4917 H   0  0  0  0  0  0  0  0  0  0  0  0
  150.3654  139.7458  155.0950 H   0  0  0  0  0  0  0  0  0  0  0  0
  148.9806  139.2253  156.0323 H   0  0  0  0  0  0  0  0  0  0  0  0
  148.9553  140.4887  153.2813 H   0  0  0  0  0  0  0  0  0  0  0  0
  148.1197  139.0340  153.8156 H   0  0  0  0  0  0  0  0  0  0  0  0
  147.2349  141.2315  156.8799 H   0  0  0  0  0  0  0  0  0  0  0  0
  147.5514  142.7920  156.1377 H   0  0  0  0  0  0  0  0  0  0  0  0
  152.2262  145.1462  162.7459 H   0  0  0  0  0  0  0  0  0  0  0  0
  1  2  1  0  0  0  0
  1 21  1  0  0  0  0
  2 20  1  0  0  0  0
  2  3  1  0  0  0  0
  2 17  1  0  0  0  0
  3  4  1  0  0  0  0
  3 22  1  0  0  0  0
  3 23  1  0  0  0  0
  4  5  1  0  0  0  0
  4 24  1  0  0  0  0
  5  6  1  0  0  0  0
  5 13  1  0  0  0  0
  5 25  1  0  0  0  0
  6  7  1  0  0  0  0
  6 26  1  0  0  0  0
  6 27  1  0  0  0  0
  7 12  1  0  0  0  0
  7  8  2  0  0  0  0
  8  9  1  0  0  0  0
  8 28  1  0  0  0  0
  9 10  2  0  0  0  0
  9 29  1  0  0  0  0
 10 11  1  0  0  0  0
 10 38  1  0  0  0  0
 11 12  2  0  0  0  0
 11 30  1  0  0  0  0
 12 31  1  0  0  0  0
 13 14  1  0  0  0  0
 13 15  1  0  0  0  0
 13 16  1  0  0  0  0
 17 18  1  0  0  0  0
 17 32  1  0  0  0  0
 17 33  1  0  0  0  0
 18 19  1  0  0  0  0
 18 34  1  0  0  0  0
 18 35  1  0  0  0  0
 19 20  1  0  0  0  0
 20 36  1  0  0  0  0
 20 37  1  0  0  0  0
M  CHG  1  10   1
M  END
> <s_m_source_file>
AV-unprocessed.smi

> <i_m_source_file_index>
2448

> <i_lp_mmshare_version>
43012

> <i_f3d_flags>
0

> <s_epik_input>
W0NIMl0xU1tDSDJdW0NIMl1bQ0BAXTEoW09IXSlbQ0gyXVtOSF1bQ0BASF0oQyhGKShGKUYpW0NIMl1jMltjSF1bY0hdbltjSF1bY0hdMg==

> <s_epik_cmdline>
J2VwaWtfcHl0aG9uJywgJy1waCcsICc3LjAnLCAnLXRuJywgJzgnLCAnLW1hJywgJzIwMCcsICctbWV0YWxfYmluZGluZycsICctaW1hZScsICc8aW5maWxlLm1hZT4nLCAnLW9tYWUnLCAnPG91dGZpbGUubWFlPic=

> <r_epik_Ionization_Penalty>
1.11129

> <r_epik_Ionization_Penalty_Charging>
1.08366

> <r_epik_Ionization_Penalty_Neutral>
0.0276276

> <r_epik_State_Penalty>
1.93785

> <r_epik_Charging_Adjusted_Penalty>
3.02151

> <i_epik_Tot_Q>
1

> <i_epik_Tot_abs_Q>
1

> <r_epik_Metal_State_Penalty>
5.97911

> <b_epik_Metal_Only>
0

> <s_lp_Force_Field>
OPLS_2005

> <r_lp_Energy>
38.3653

> <b_lp_Chiralities_Consistent>
1

> <s_lp_Variant>
AV-unprocessed.smi:2448-10

> <Gold.Version>
5.8.1

> <Gold.Id.Protein>
6NUR|6NUR_protein|mol2

> <Gold.PLP.Fitness>
40.0384

> <Gold.PLP.PLP>
-40.6176

> <Gold.PLP.part.hbond>
-2.3967

> <Gold.PLP.part.metal>
0.0000

> <Gold.PLP.part.buried>
-3.0980

> <Gold.PLP.part.nonpolar>
-34.1438

> <Gold.PLP.part.repulsive>
0.0491

> <Gold.PLP.ligand.clash>
0.0000

> <Gold.PLP.ligand.torsion>
2.0045

> <Gold.PLP.Chemscore.Hbond>
1.0000

> <Gold.PLP.Chemscore.CHOScore>
0.0000

> <Gold.PLP.Chemscore.Metal>
0.0000

> <Gold.Chemscore.Hbonds>
donor molecule, donor type, donor heavy atom, donor atom, acceptor molecule, acceptor atom, score
      L1  H     1    21       P1  8028  1.00

> <Gold.PLP.Chemscore.Internal.Correction>
0.4297

> <Gold.Rescore>
     Score         DG    S(hbond)    S(metal)    S(lipo)     H(rot)  DE(clash)    DE(int)     intcor
     12.45     -15.14       0.99        0.00     107.26       2.42       0.77       1.92       ----

> <Gold.Chemscore.Fitness>
12.4470

> <Gold.Chemscore.DG>
-15.1357

> <Gold.Chemscore.ZeroCoef>
-5.4800

> <Gold.Chemscore.Hbond>
0.9920

> <Gold.Chemscore.Metal>
0.0000

> <Gold.Chemscore.Lipo>
107.2620

> <Gold.Chemscore.Internal_Hbond>
0.0000

> <Gold.Chemscore.DEClash>
0.7700

> <Gold.Chemscore.DEInternal>
1.9187

> <Gold.Chemscore.Rot>
2.4247

> <Gold.Chemscore.Internal.Correction>
   9.000000E+99

> <Gold.Chemscore.Hbonds>
donor molecule, donor type, donor heavy atom, donor atom, acceptor molecule, acceptor atom, score
      L1  H     1    21       P1  8028  0.99

> <Gold.Chemscore.Hbond.Weighted>
-3.3133

> <Gold.Chemscore.Metal.Weighted>
-0.0000

> <Gold.Chemscore.Lipo.Weighted>
-12.5497

> <Gold.Chemscore.Internal_Hbond.Weighted>
0.0000

> <Gold.Chemscore.DEClash.Weighted>
0.7700

> <Gold.Chemscore.DEInternal.Weighted>
1.9187

> <Gold.Chemscore.Rot.Weighted>
6.2072

> <Gold.Chemscore.Internal.Correction.Weighted>
   9.000000E+99

> <Gold.Protein.RotatedTorsions>
[ 6907 6896 6895 6894 ] final  -90.92 input  -60.11 | X-H torsion
[ 7974 7965 7964 7962 ] final  125.24 input  175.53 | X-H torsion
[ 8008 7997 7996 7995 ] final   23.48 input   59.86 | X-H torsion
[ 10167 10162 10161 10158 ] final  -84.32 input  -65.29 | X-H torsion
[ 10718 10713 10712 10709 ] final   60.60 input   66.30 | X-H torsion
[ 10763 10752 10751 10750 ] final   -8.18 input  -60.55 | X-H torsion
[ 11005 11000 10999 10996 ] final   17.71 input  -57.11 | X-H torsion

> <Gold.Protein.ActiveResidues>
 VAL166  LYS551  ARG553  GLY616  TRP617  ASP618  TYR619  PRO620  LYS621  CYS622 
 ASP623  PHE694  ASN695  SER759  ASP760  ASP761  ALA762  ILE779  LEU786  VAL792 
 PHE793  MET794  SER795  GLU796  ALA797  LYS798  CYS799  TRP800  GLU811  SER814 

> <Gold.Protein.RotatedAtoms>
  150.6886  134.2358  159.4452 H   0  0  0  0  0  0  0  0  0  0  0  0  # atno 6907 bound_to 6896
  152.0305  134.9768  160.0581 H   0  0  0  0  0  0  0  0  0  0  0  0  # atno 6908 bound_to 6896
  152.1309  133.4372  159.4757 H   0  0  0  0  0  0  0  0  0  0  0  0  # atno 6909 bound_to 6896
  145.0752  139.3699  143.4937 H   0  0  0  0  0  0  0  0  0  0  0  0  # atno 7974 bound_to 7965
  154.9816  140.3103  155.4944 H   0  0  0  0  0  0  0  0  0  0  0  0  # atno 8008 bound_to 7997
  156.2952  140.2265  156.4855 H   0  0  0  0  0  0  0  0  0  0  0  0  # atno 8009 bound_to 7997
  154.7784  140.0447  157.1096 H   0  0  0  0  0  0  0  0  0  0  0  0  # atno 8010 bound_to 7997
  140.4144  143.2610  151.8975 H   0  0  0  0  0  0  0  0  0  0  0  0  # atno 10167 bound_to 10162
  157.5765  130.8948  149.9356 H   0  0  0  0  0  0  0  0  0  0  0  0  # atno 10718 bound_to 10713
  153.4369  135.7013  153.6194 H   0  0  0  0  0  0  0  0  0  0  0  0  # atno 10763 bound_to 10752
  153.4585  135.3741  155.2325 H   0  0  0  0  0  0  0  0  0  0  0  0  # atno 10764 bound_to 10752
  154.8727  135.4014  154.3761 H   0  0  0  0  0  0  0  0  0  0  0  0  # atno 10765 bound_to 10752
  140.4329  134.1401  155.7682 H   0  0  0  0  0  0  0  0  0  0  0  0  # atno 11005 bound_to 11000
  146.3530  140.0516  142.8635 LP  0  0  0  0  0  0  0  0  0  0  0  0  # atno 17320 bound_to 7965
  145.1244  140.9481  143.4581 LP  0  0  0  0  0  0  0  0  0  0  0  0  # atno 17321 bound_to 7965
  139.4782  144.5504  151.8395 LP  0  0  0  0  0  0  0  0  0  0  0  0  # atno 17342 bound_to 10162
  140.4603  144.1731  150.5905 LP  0  0  0  0  0  0  0  0  0  0  0  0  # atno 17343 bound_to 10162
  156.0810  130.3673  150.0581 LP  0  0  0  0  0  0  0  0  0  0  0  0  # atno 17370 bound_to 10713
  156.8726  130.9529  151.3608 LP  0  0  0  0  0  0  0  0  0  0  0  0  # atno 17371 bound_to 10713
  141.1738  133.8556  157.1488 LP  0  0  0  0  0  0  0  0  0  0  0  0  # atno 17394 bound_to 11000
  140.0122  134.9983  157.0418 LP  0  0  0  0  0  0  0  0  0  0  0  0  # atno 17395 bound_to 11000

$$$$
