AV-unprocessed.smi:1463|AV-procd|sdf|5934|dock8
  -GOLD-   22720 6 13D 1   1.00000     0.00000
 Structure written by MMmdl.
 46 47  0  0  0  0  0  0  0  0  1 V2000
  152.6695  142.2721  160.3213 C   0  0  0  0  0  0  0  0  0  0  0  0
  152.3928  141.0465  159.6678 O   0  0  0  0  0  0  0  0  0  0  0  0
  151.2867  141.1368  158.7849 C   0  0  0  0  0  0  0  0  0  0  0  0
  151.5458  142.2691  157.7879 C   0  0  0  0  0  0  0  0  0  0  0  0
  150.9058  141.9272  156.5644 O   0  0  0  0  0  0  0  0  0  0  0  0
  151.1392  140.6840  156.0105 C   0  0  0  0  0  0  0  0  0  0  0  0
  152.2202  139.9836  156.4376 N   0  0  0  0  0  0  0  0  0  0  0  0
  152.4402  138.7589  155.9159 C   0  0  0  0  0  0  0  0  0  0  0  0
  151.5996  138.1675  154.9545 C   0  0  0  0  0  0  0  0  0  0  0  0
  150.4792  138.8934  154.5093 C   0  0  0  0  0  0  0  0  0  0  0  0
  150.2466  140.1848  155.0282 C   0  0  0  0  0  0  0  0  0  0  0  0
  149.0394  140.9627  154.5825 C   0  0  0  0  0  0  0  0  0  0  0  0
  149.1400  141.6765  153.5840 O   0  0  0  0  0  0  0  0  0  0  0  0
  147.8854  140.8341  155.2855 N   0  0  0  0  0  0  0  0  0  0  0  0
  147.7622  140.2993  156.6501 C   0  0  0  0  0  0  0  0  0  0  0  0
  147.4432  141.4543  157.6165 C   0  0  0  0  0  0  0  0  0  0  0  0
  146.1706  142.2194  157.1936 C   0  0  0  0  0  0  0  0  0  0  0  0
  145.9135  143.4220  158.1300 C   0  0  0  0  0  0  0  0  0  0  0  0
  146.0817  143.1040  159.6207 C   0  0  0  0  0  0  0  0  0  0  0  0
  146.9420  143.8597  160.3074 N   0  0  0  0  0  0  0  0  0  0  0  0
  145.4522  142.1879  160.1463 O   0  0  0  0  0  0  0  0  0  0  0  0
  146.2589  142.6231  155.7025 C   0  0  0  0  0  0  0  0  0  0  0  0
  146.6212  141.4161  154.8201 C   0  0  0  0  0  0  0  0  0  0  0  0
  153.5243  142.1473  160.9860 H   0  0  0  0  0  0  0  0  0  0  0  0
  151.8199  142.5997  160.9217 H   0  0  0  0  0  0  0  0  0  0  0  0
  152.9144  143.0551  159.6026 H   0  0  0  0  0  0  0  0  0  0  0  0
  151.1730  140.1931  158.2497 H   0  0  0  0  0  0  0  0  0  0  0  0
  150.3613  141.3187  159.3340 H   0  0  0  0  0  0  0  0  0  0  0  0
  151.1685  143.2117  158.1882 H   0  0  0  0  0  0  0  0  0  0  0  0
  152.6186  142.3757  157.6210 H   0  0  0  0  0  0  0  0  0  0  0  0
  153.3096  138.2321  156.2803 H   0  0  0  0  0  0  0  0  0  0  0  0
  151.8084  137.1804  154.5692 H   0  0  0  0  0  0  0  0  0  0  0  0
  149.8140  138.4641  153.7739 H   0  0  0  0  0  0  0  0  0  0  0  0
  146.9654  139.5544  156.6740 H   0  0  0  0  0  0  0  0  0  0  0  0
  148.6557  139.7905  157.0061 H   0  0  0  0  0  0  0  0  0  0  0  0
  147.3241  141.0629  158.6273 H   0  0  0  0  0  0  0  0  0  0  0  0
  148.2918  142.1395  157.6495 H   0  0  0  0  0  0  0  0  0  0  0  0
  145.3368  141.5227  157.2964 H   0  0  0  0  0  0  0  0  0  0  0  0
  146.6099  144.2264  157.8904 H   0  0  0  0  0  0  0  0  0  0  0  0
  144.9135  143.8196  157.9497 H   0  0  0  0  0  0  0  0  0  0  0  0
  147.0883  143.6915  161.2922 H   0  0  0  0  0  0  0  0  0  0  0  0
  147.4436  144.5994  159.8375 H   0  0  0  0  0  0  0  0  0  0  0  0
  145.3126  143.0442  155.3629 H   0  0  0  0  0  0  0  0  0  0  0  0
  147.0092  143.4045  155.5736 H   0  0  0  0  0  0  0  0  0  0  0  0
  146.6589  141.7179  153.7724 H   0  0  0  0  0  0  0  0  0  0  0  0
  145.8365  140.6603  154.8796 H   0  0  0  0  0  0  0  0  0  0  0  0
  1  2  1  0  0  0  0
  1 24  1  0  0  0  0
  1 25  1  0  0  0  0
  1 26  1  0  0  0  0
  2  3  1  0  0  0  0
  3  4  1  0  0  0  0
  3 27  1  0  0  0  0
  3 28  1  0  0  0  0
  4  5  1  0  0  0  0
  4 29  1  0  0  0  0
  4 30  1  0  0  0  0
  5  6  1  0  0  0  0
  6 11  1  0  0  0  0
  6  7  2  0  0  0  0
  7  8  1  0  0  0  0
  8  9  2  0  0  0  0
  8 31  1  0  0  0  0
  9 10  1  0  0  0  0
  9 32  1  0  0  0  0
 10 11  2  0  0  0  0
 10 33  1  0  0  0  0
 11 12  1  0  0  0  0
 12 13  2  0  0  0  0
 12 14  1  0  0  0  0
 14 23  1  0  0  0  0
 14 15  1  0  0  0  0
 15 16  1  0  0  0  0
 15 34  1  0  0  0  0
 15 35  1  0  0  0  0
 16 17  1  0  0  0  0
 16 36  1  0  0  0  0
 16 37  1  0  0  0  0
 17 18  1  0  0  0  0
 17 22  1  0  0  0  0
 17 38  1  0  0  0  0
 18 19  1  0  0  0  0
 18 39  1  0  0  0  0
 18 40  1  0  0  0  0
 19 20  1  0  0  0  0
 19 21  2  0  0  0  0
 20 41  1  0  0  0  0
 20 42  1  0  0  0  0
 22 23  1  0  0  0  0
 22 43  1  0  0  0  0
 22 44  1  0  0  0  0
 23 45  1  0  0  0  0
 23 46  1  0  0  0  0
M  END
> <s_m_source_file>
AV-unprocessed.smi

> <i_m_source_file_index>
1463

> <i_lp_mmshare_version>
43012

> <i_f3d_flags>
0

> <s_epik_input>
W0NIM11PW0NIMl1bQ0gyXU9jMW5bY0hdW2NIXVtjSF1jMUMoPU8pTjJbQ0gyXVtDSDJdW0NIXShbQ0gyXVtDSDJdMilbQ0gyXUMoPU8pW05IMl0=

> <s_epik_cmdline>
J2VwaWtfcHl0aG9uJywgJy1waCcsICc3LjAnLCAnLXRuJywgJzgnLCAnLW1hJywgJzIwMCcsICctbWV0YWxfYmluZGluZycsICctaW1hZScsICc8aW5maWxlLm1hZT4nLCAnLW9tYWUnLCAnPG91dGZpbGUubWFlPic=

> <r_lp_tautomer_probability>
1

> <r_epik_Ionization_Penalty>
2.54873e-06

> <r_epik_Ionization_Penalty_Charging>
0

> <r_epik_Ionization_Penalty_Neutral>
2.54873e-06

> <r_epik_State_Penalty>
-0

> <r_epik_Charging_Adjusted_Penalty>
0

> <i_epik_Tot_Q>
0

> <i_epik_Tot_abs_Q>
0

> <r_epik_Metal_State_Penalty>
-0

> <b_epik_Metal_Only>
0

> <s_lp_Force_Field>
OPLS_2005

> <r_lp_Energy>
26.7295

> <b_lp_Chiralities_Consistent>
1

> <s_lp_Variant>
AV-unprocessed.smi:1463-1

> <Gold.Version>
5.8.1

> <Gold.Id.Protein>
6NUR|6NUR_protein|mol2

> <Gold.PLP.Fitness>
39.8134

> <Gold.PLP.PLP>
-36.1890

> <Gold.PLP.part.hbond>
-3.6303

> <Gold.PLP.part.metal>
0.0000

> <Gold.PLP.part.buried>
-4.1659

> <Gold.PLP.part.nonpolar>
-29.1761

> <Gold.PLP.part.repulsive>
1.8268

> <Gold.PLP.ligand.clash>
0.0000

> <Gold.PLP.ligand.torsion>
2.1426

> <Gold.PLP.Chemscore.Hbond>
2.0648

> <Gold.PLP.Chemscore.CHOScore>
0.0000

> <Gold.PLP.Chemscore.Metal>
0.0000

> <Gold.Chemscore.Hbonds>
donor molecule, donor type, donor heavy atom, donor atom, acceptor molecule, acceptor atom, score
      P1  H  6934  6946       L1    21  0.96
      P1  H  7997  8010       L1     7  0.19
      P1  H  8011  8017       L1    13  0.72

> <Gold.PLP.Chemscore.Internal.Correction>
1.7151

> <Gold.Rescore>
     Score         DG    S(hbond)    S(metal)    S(lipo)     H(rot)  DE(clash)    DE(int)     intcor
     12.56     -16.31       2.89        0.00      65.97       2.55       1.31       2.43       ----

> <Gold.Chemscore.Fitness>
12.5629

> <Gold.Chemscore.DG>
-16.3086

> <Gold.Chemscore.ZeroCoef>
-5.4800

> <Gold.Chemscore.Hbond>
2.8885

> <Gold.Chemscore.Metal>
0.0000

> <Gold.Chemscore.Lipo>
65.9667

> <Gold.Chemscore.Internal_Hbond>
0.0000

> <Gold.Chemscore.DEClash>
1.3134

> <Gold.Chemscore.DEInternal>
2.4323

> <Gold.Chemscore.Rot>
2.5536

> <Gold.Chemscore.Internal.Correction>
   9.000000E+99

> <Gold.Chemscore.Hbonds>
donor molecule, donor type, donor heavy atom, donor atom, acceptor molecule, acceptor atom, score
      P1  H  6934  6946       L1    21  0.41
      P1  H  8011  8017       L1    13  0.71

> <Gold.Chemscore.Hbond.Weighted>
-9.6477

> <Gold.Chemscore.Metal.Weighted>
-0.0000

> <Gold.Chemscore.Lipo.Weighted>
-7.7181

> <Gold.Chemscore.Internal_Hbond.Weighted>
0.0000

> <Gold.Chemscore.DEClash.Weighted>
1.3134

> <Gold.Chemscore.DEInternal.Weighted>
2.4323

> <Gold.Chemscore.Rot.Weighted>
6.5373

> <Gold.Chemscore.Internal.Correction.Weighted>
   9.000000E+99

> <Gold.Protein.RotatedTorsions>
[ 6907 6896 6895 6894 ] final    8.47 input  -60.11 | X-H torsion
[ 7974 7965 7964 7962 ] final -154.84 input  175.53 | X-H torsion
[ 8008 7997 7996 7995 ] final   65.88 input   59.86 | X-H torsion
[ 10167 10162 10161 10158 ] final   15.67 input  -65.29 | X-H torsion
[ 10718 10713 10712 10709 ] final  -28.53 input   66.30 | X-H torsion
[ 10763 10752 10751 10750 ] final  -61.84 input  -60.55 | X-H torsion
[ 11005 11000 10999 10996 ] final  -60.42 input  -57.11 | X-H torsion

> <Gold.Protein.ActiveResidues>
 VAL166  LYS551  ARG553  GLY616  TRP617  ASP618  TYR619  PRO620  LYS621  CYS622 
 ASP623  PHE694  ASN695  SER759  ASP760  ASP761  ALA762  ILE779  LEU786  VAL792 
 PHE793  MET794  SER795  GLU796  ALA797  LYS798  CYS799  TRP800  GLU811  SER814 

> <Gold.Protein.RotatedAtoms>
  151.7066  135.0920  160.0260 H   0  0  0  0  0  0  0  0  0  0  0  0  # atno 6907 bound_to 6896
  152.3688  133.6387  159.6079 H   0  0  0  0  0  0  0  0  0  0  0  0  # atno 6908 bound_to 6896
  150.7657  133.9221  159.3442 H   0  0  0  0  0  0  0  0  0  0  0  0  # atno 6909 bound_to 6896
  144.7669  140.4333  143.5935 H   0  0  0  0  0  0  0  0  0  0  0  0  # atno 7974 bound_to 7965
  155.6686  140.3497  155.4810 H   0  0  0  0  0  0  0  0  0  0  0  0  # atno 8008 bound_to 7997
  155.9707  140.1155  157.0837 H   0  0  0  0  0  0  0  0  0  0  0  0  # atno 8009 bound_to 7997
  154.4165  140.1157  156.5289 H   0  0  0  0  0  0  0  0  0  0  0  0  # atno 8010 bound_to 7997
  140.5851  143.8905  150.6823 H   0  0  0  0  0  0  0  0  0  0  0  0  # atno 10167 bound_to 10162
  156.4241  130.4432  149.7163 H   0  0  0  0  0  0  0  0  0  0  0  0  # atno 10718 bound_to 10713
  154.2908  135.6254  153.5384 H   0  0  0  0  0  0  0  0  0  0  0  0  # atno 10763 bound_to 10752
  152.9853  135.5655  154.5392 H   0  0  0  0  0  0  0  0  0  0  0  0  # atno 10764 bound_to 10752
  154.5003  135.2871  155.1402 H   0  0  0  0  0  0  0  0  0  0  0  0  # atno 10765 bound_to 10752
  141.1286  133.6622  156.5221 H   0  0  0  0  0  0  0  0  0  0  0  0  # atno 11005 bound_to 11000
  145.6441  139.1554  143.2899 LP  0  0  0  0  0  0  0  0  0  0  0  0  # atno 17320 bound_to 7965
  146.1785  140.6536  142.9200 LP  0  0  0  0  0  0  0  0  0  0  0  0  # atno 17321 bound_to 7965
  140.2414  143.3661  152.1483 LP  0  0  0  0  0  0  0  0  0  0  0  0  # atno 17342 bound_to 10162
  139.5193  144.7017  151.5473 LP  0  0  0  0  0  0  0  0  0  0  0  0  # atno 17343 bound_to 10162
  156.4092  130.7713  151.2726 LP  0  0  0  0  0  0  0  0  0  0  0  0  # atno 17370 bound_to 10713
  157.7508  131.0216  150.3758 LP  0  0  0  0  0  0  0  0  0  0  0  0  # atno 17371 bound_to 10713
  140.4284  134.7124  157.4928 LP  0  0  0  0  0  0  0  0  0  0  0  0  # atno 17394 bound_to 11000
  140.0311  134.6405  155.9105 LP  0  0  0  0  0  0  0  0  0  0  0  0  # atno 17395 bound_to 11000

$$$$
