AV-unprocessed.smi:3|AV-procd|sdf|32|dock10
  -GOLD-   2262015143D 1   1.00000     0.00000
 Structure written by MMmdl.
 33 35  0  0  0  0  0  0  0  0  1 V2000
  152.5729  139.7988  158.1877 C   0  0  0  0  0  0  0  0  0  0  0  0
  151.7609  140.8987  157.6878 N   0  0  0  0  0  0  0  0  0  0  0  0
  150.7755  140.6340  156.6428 C   0  0  0  0  0  0  0  0  0  0  0  0
  151.0440  139.3148  155.9214 C   0  0  1  0  0  0  0  0  0  0  0  0
  150.4092  139.0482  154.5479 C   0  0  0  0  0  0  0  0  0  0  0  0
  151.7113  138.3813  154.0959 C   0  0  2  0  0  0  0  0  0  0  0  0
  151.7409  136.9705  154.0901 O   0  0  0  0  0  0  0  0  0  0  0  0
  152.4111  139.0862  155.2623 C   0  0  0  0  0  0  0  0  0  0  0  0
  151.6084  142.0749  158.4518 C   0  0  0  0  0  0  0  0  0  0  0  0
  150.8237  143.0514  157.9301 N   0  0  0  0  0  0  0  0  0  0  0  0
  150.6636  144.1895  158.6508 C   0  0  0  0  0  0  0  0  0  0  0  0
  151.1921  144.4897  159.8618 N   0  0  0  0  0  0  0  0  0  0  0  0
  151.9767  143.5174  160.4133 C   0  0  0  0  0  0  0  0  0  0  0  0
  152.5951  143.5437  161.5893 N   0  0  0  0  0  0  0  0  0  0  0  0
  153.2206  142.3616  161.7116 C   0  0  0  0  0  0  0  0  0  0  0  0
  153.0221  141.4886  160.5750 C   0  0  0  0  0  0  0  0  0  0  0  0
  152.2026  142.2980  159.7272 C   0  0  0  0  0  0  0  0  0  0  0  0
  150.8391  138.4626  156.5721 H   0  0  0  0  0  0  0  0  0  0  0  0
  152.0529  138.7505  153.1285 H   0  0  0  0  0  0  0  0  0  0  0  0
  153.3958  140.1605  158.8048 H   0  0  0  0  0  0  0  0  0  0  0  0
  153.0063  139.2459  157.3539 H   0  0  0  0  0  0  0  0  0  0  0  0
  151.9680  139.1044  158.7704 H   0  0  0  0  0  0  0  0  0  0  0  0
  149.7645  140.6493  157.0504 H   0  0  0  0  0  0  0  0  0  0  0  0
  150.8112  141.4568  155.9283 H   0  0  0  0  0  0  0  0  0  0  0  0
  149.5406  138.3895  154.5809 H   0  0  0  0  0  0  0  0  0  0  0  0
  150.1932  139.9623  153.9926 H   0  0  0  0  0  0  0  0  0  0  0  0
  151.3917  136.6899  153.2580 H   0  0  0  0  0  0  0  0  0  0  0  0
  152.8979  140.0138  154.9571 H   0  0  0  0  0  0  0  0  0  0  0  0
  153.0858  138.4549  155.8414 H   0  0  0  0  0  0  0  0  0  0  0  0
  150.0365  144.9475  158.2056 H   0  0  0  0  0  0  0  0  0  0  0  0
  153.8005  142.1230  162.5946 H   0  0  0  0  0  0  0  0  0  0  0  0
  153.4010  140.4862  160.4269 H   0  0  0  0  0  0  0  0  0  0  0  0
  150.9835  145.3809  160.2886 H   0  0  0  0  0  0  0  0  0  0  0  0
  1  2  1  0  0  0  0
  1 20  1  0  0  0  0
  1 21  1  0  0  0  0
  1 22  1  0  0  0  0
  2  3  1  0  0  0  0
  2  9  1  0  0  0  0
  3  4  1  0  0  0  0
  3 23  1  0  0  0  0
  3 24  1  0  0  0  0
  4 18  1  0  0  0  0
  4  8  1  0  0  0  0
  4  5  1  0  0  0  0
  5  6  1  0  0  0  0
  5 25  1  0  0  0  0
  5 26  1  0  0  0  0
  6 19  1  0  0  0  0
  6  7  1  0  0  0  0
  6  8  1  0  0  0  0
  7 27  1  0  0  0  0
  8 28  1  0  0  0  0
  8 29  1  0  0  0  0
  9 17  2  0  0  0  0
  9 10  1  0  0  0  0
 10 11  2  0  0  0  0
 11 12  1  0  0  0  0
 11 30  1  0  0  0  0
 12 13  1  0  0  0  0
 12 33  1  0  0  0  0
 13 17  1  0  0  0  0
 13 14  2  0  0  0  0
 14 15  1  0  0  0  0
 15 16  2  0  0  0  0
 15 31  1  0  0  0  0
 16 17  1  0  0  0  0
 16 32  1  0  0  0  0
M  END
> <s_m_source_file>
AV-unprocessed.smi

> <i_m_source_file_index>
3

> <i_lp_mmshare_version>
43012

> <i_f3d_flags>
0

> <s_epik_input>
W25IXTFbY0hdW2NIXWMoYzEyKWMobltjSF1uMilOKFtDSDNdKVtDSDJdW0NASF0zW0NIMl1bQ0BASF0oW09IXSlbQ0gyXTM=

> <s_epik_cmdline>
J2VwaWtfcHl0aG9uJywgJy1waCcsICc3LjAnLCAnLXRuJywgJzgnLCAnLW1hJywgJzIwMCcsICctbWV0YWxfYmluZGluZycsICctaW1hZScsICc8aW5maWxlLm1hZT4nLCAnLW9tYWUnLCAnPG91dGZpbGUubWFlPic=

> <r_lp_tautomer_probability>
1.75997e-05

> <r_epik_Ionization_Penalty>
5.52529

> <r_epik_Ionization_Penalty_Charging>
0

> <r_epik_Ionization_Penalty_Neutral>
5.52529

> <r_epik_State_Penalty>
8.99615

> <r_epik_Charging_Adjusted_Penalty>
8.99615

> <i_epik_Tot_Q>
0

> <i_epik_Tot_abs_Q>
0

> <r_epik_Metal_State_Penalty>
6.01519

> <b_epik_Metal_Only>
1

> <s_lp_Force_Field>
OPLS_2005

> <r_lp_Energy>
26.4435

> <b_lp_Chiralities_Consistent>
1

> <s_lp_Variant>
AV-unprocessed.smi:3-6

> <Gold.Version>
5.8.1

> <Gold.Id.Protein>
6NUR|6NUR_protein|mol2

> <Gold.PLP.Fitness>
45.5533

> <Gold.PLP.PLP>
-37.1945

> <Gold.PLP.part.hbond>
-2.0000

> <Gold.PLP.part.metal>
0.0000

> <Gold.PLP.part.buried>
-6.5415

> <Gold.PLP.part.nonpolar>
-29.9681

> <Gold.PLP.part.repulsive>
0.3741

> <Gold.PLP.ligand.clash>
1.3557

> <Gold.PLP.ligand.torsion>
0.2885

> <Gold.PLP.Chemscore.Hbond>
1.9000

> <Gold.PLP.Chemscore.CHOScore>
1.0199

> <Gold.PLP.Chemscore.Metal>
0.0000

> <Gold.Chemscore.Hbonds>
donor molecule, donor type, donor heavy atom, donor atom, acceptor molecule, acceptor atom, score
      L1  H     7    27       P1  7949  1.00
      P1  H 10752 10764       L1     7  0.90
      L1  C    11    30       P1  8028  0.14
      L1  C    11    30       P1  8029  0.88

> <Gold.PLP.Chemscore.Internal.Correction>
1.5319

> <Gold.Rescore>
     Score         DG    S(hbond)    S(metal)    S(lipo)     H(rot)  DE(clash)    DE(int)     intcor
     12.67     -14.45       1.70        0.00      68.22       1.84       0.36       1.42       ----

> <Gold.Chemscore.Fitness>
12.6711

> <Gold.Chemscore.DG>
-14.4453

> <Gold.Chemscore.ZeroCoef>
-5.4800

> <Gold.Chemscore.Hbond>
1.7047

> <Gold.Chemscore.Metal>
0.0000

> <Gold.Chemscore.Lipo>
68.2158

> <Gold.Chemscore.Internal_Hbond>
0.0000

> <Gold.Chemscore.DEClash>
0.3559

> <Gold.Chemscore.DEInternal>
1.4183

> <Gold.Chemscore.Rot>
1.8396

> <Gold.Chemscore.Internal.Correction>
   9.000000E+99

> <Gold.Chemscore.Hbonds>
donor molecule, donor type, donor heavy atom, donor atom, acceptor molecule, acceptor atom, score
      L1  H     7    27       P1  7949  0.78
      P1  H 10752 10764       L1     7  0.18

> <Gold.Chemscore.Hbond.Weighted>
-5.6935

> <Gold.Chemscore.Metal.Weighted>
-0.0000

> <Gold.Chemscore.Lipo.Weighted>
-7.9813

> <Gold.Chemscore.Internal_Hbond.Weighted>
0.0000

> <Gold.Chemscore.DEClash.Weighted>
0.3559

> <Gold.Chemscore.DEInternal.Weighted>
1.4183

> <Gold.Chemscore.Rot.Weighted>
4.7095

> <Gold.Chemscore.Internal.Correction.Weighted>
   9.000000E+99

> <Gold.Protein.RotatedTorsions>
[ 6907 6896 6895 6894 ] final  103.20 input  -60.11 | X-H torsion
[ 7974 7965 7964 7962 ] final   90.50 input  175.53 | X-H torsion
[ 8008 7997 7996 7995 ] final -108.11 input   59.86 | X-H torsion
[ 10167 10162 10161 10158 ] final  -30.30 input  -65.29 | X-H torsion
[ 10718 10713 10712 10709 ] final  -71.26 input   66.30 | X-H torsion
[ 10763 10752 10751 10750 ] final  -76.58 input  -60.55 | X-H torsion
[ 11005 11000 10999 10996 ] final  -90.76 input  -57.11 | X-H torsion

> <Gold.Protein.ActiveResidues>
 VAL166  LYS551  ARG553  GLY616  TRP617  ASP618  TYR619  PRO620  LYS621  CYS622 
 ASP623  PHE694  ASN695  SER759  ASP760  ASP761  ALA762  ILE779  LEU786  VAL792 
 PHE793  MET794  SER795  GLU796  ALA797  LYS798  CYS799  TRP800  GLU811  SER814 

> <Gold.Protein.RotatedAtoms>
  152.5302  133.9861  159.7828 H   0  0  0  0  0  0  0  0  0  0  0  0  # atno 6907 bound_to 6896
  151.0106  133.5961  159.2690 H   0  0  0  0  0  0  0  0  0  0  0  0  # atno 6908 bound_to 6896
  151.3037  135.0782  159.9301 H   0  0  0  0  0  0  0  0  0  0  0  0  # atno 6909 bound_to 6896
  145.5182  139.2278  143.2686 H   0  0  0  0  0  0  0  0  0  0  0  0  # atno 7974 bound_to 7965
  154.9393  140.0403  157.2088 H   0  0  0  0  0  0  0  0  0  0  0  0  # atno 8008 bound_to 7997
  154.8084  140.2864  155.5849 H   0  0  0  0  0  0  0  0  0  0  0  0  # atno 8009 bound_to 7997
  156.2969  140.2541  156.2967 H   0  0  0  0  0  0  0  0  0  0  0  0  # atno 8010 bound_to 7997
  140.7251  143.3859  151.1516 H   0  0  0  0  0  0  0  0  0  0  0  0  # atno 10167 bound_to 10162
  156.0371  130.4348  150.2417 H   0  0  0  0  0  0  0  0  0  0  0  0  # atno 10718 bound_to 10713
  154.5017  135.5793  153.6536 H   0  0  0  0  0  0  0  0  0  0  0  0  # atno 10763 bound_to 10752
  152.9880  135.6137  154.2994 H   0  0  0  0  0  0  0  0  0  0  0  0  # atno 10764 bound_to 10752
  154.2902  135.2849  155.2637 H   0  0  0  0  0  0  0  0  0  0  0  0  # atno 10765 bound_to 10752
  141.1559  133.7713  156.9784 H   0  0  0  0  0  0  0  0  0  0  0  0  # atno 11005 bound_to 11000
  146.2123  140.5992  142.9054 LP  0  0  0  0  0  0  0  0  0  0  0  0  # atno 17320 bound_to 7965
  144.7690  140.5596  143.6683 LP  0  0  0  0  0  0  0  0  0  0  0  0  # atno 17321 bound_to 7965
  139.7456  143.8857  152.3062 LP  0  0  0  0  0  0  0  0  0  0  0  0  # atno 17342 bound_to 10162
  139.8693  144.7076  150.9006 LP  0  0  0  0  0  0  0  0  0  0  0  0  # atno 17343 bound_to 10162
  157.0515  131.0064  151.3252 LP  0  0  0  0  0  0  0  0  0  0  0  0  # atno 17370 bound_to 10713
  157.5137  130.7954  149.7732 LP  0  0  0  0  0  0  0  0  0  0  0  0  # atno 17371 bound_to 10713
  140.1082  134.9493  157.2026 LP  0  0  0  0  0  0  0  0  0  0  0  0  # atno 17394 bound_to 11000
  140.3228  134.2897  155.7243 LP  0  0  0  0  0  0  0  0  0  0  0  0  # atno 17395 bound_to 11000

$$$$
