AV-unprocessed.smi:2926|AV-procd|sdf|11227|dock5
  -GOLD-   2272016113D 1   1.00000     0.00000
 Structure written by MMmdl.
 32 32  0  0  0  0  0  0  0  0  1 V2000
  151.3929  137.6058  154.1791 C   0  0  0  0  0  0  0  0  0  0  0  0
  151.6366  139.0718  154.5772 C   0  0  0  0  0  0  0  0  0  0  0  0
  153.0205  139.2416  155.2325 C   0  0  0  0  0  0  0  0  0  0  0  0
  150.4648  139.6389  155.4233 C   0  0  2  0  0  0  0  0  0  0  0  0
  149.2572  140.1248  154.5923 C   0  0  0  0  0  0  0  0  0  0  0  0
  149.6773  140.9400  153.5191 O   0  0  0  0  0  0  0  0  0  0  0  0
  150.9515  140.7286  156.2794 N   0  0  0  0  0  0  0  0  0  0  0  0
  150.7150  140.6447  157.9883 S   0  0  0  0  0  0  0  0  0  0  0  0
  149.2678  140.5426  158.2317 O   0  0  0  0  0  0  0  0  0  0  0  0
  151.6264  139.6219  158.5248 O   0  0  0  0  0  0  0  0  0  0  0  0
  151.3014  142.2986  158.5484 C   0  0  0  0  0  0  0  0  0  0  0  0
  152.4058  142.1255  159.5513 C   0  0  0  0  0  0  0  0  0  0  0  0
  152.4960  142.6586  160.8670 C   0  0  0  0  0  0  0  0  0  0  0  0
  153.6940  142.1865  161.3203 C   0  0  0  0  0  0  0  0  0  0  0  0
  154.2977  141.4309  160.3686 O   0  0  0  0  0  0  0  0  0  0  0  0
  153.4684  141.3994  159.2418 N   0  0  0  0  0  0  0  0  0  0  0  0
  150.1148  138.8354  156.0728 H   0  0  0  0  0  0  0  0  0  0  0  0
  151.3846  136.9486  155.0493 H   0  0  0  0  0  0  0  0  0  0  0  0
  152.1713  137.2484  153.5044 H   0  0  0  0  0  0  0  0  0  0  0  0
  150.4380  137.4900  153.6658 H   0  0  0  0  0  0  0  0  0  0  0  0
  151.6629  139.6327  153.6425 H   0  0  0  0  0  0  0  0  0  0  0  0
  153.0875  138.7069  156.1801 H   0  0  0  0  0  0  0  0  0  0  0  0
  153.2525  140.2893  155.4211 H   0  0  0  0  0  0  0  0  0  0  0  0
  153.8062  138.8539  154.5835 H   0  0  0  0  0  0  0  0  0  0  0  0
  148.7187  139.2782  154.1661 H   0  0  0  0  0  0  0  0  0  0  0  0
  148.5426  140.6733  155.2055 H   0  0  0  0  0  0  0  0  0  0  0  0
  149.6555  140.4265  152.7258 H   0  0  0  0  0  0  0  0  0  0  0  0
  150.6632  141.6359  155.9138 H   0  0  0  0  0  0  0  0  0  0  0  0
  151.6365  142.8590  157.6748 H   0  0  0  0  0  0  0  0  0  0  0  0
  150.4587  142.8340  158.9849 H   0  0  0  0  0  0  0  0  0  0  0  0
  151.7913  143.2834  161.3953 H   0  0  0  0  0  0  0  0  0  0  0  0
  154.2303  142.2953  162.2513 H   0  0  0  0  0  0  0  0  0  0  0  0
  1  2  1  0  0  0  0
  1 18  1  0  0  0  0
  1 19  1  0  0  0  0
  1 20  1  0  0  0  0
  2  3  1  0  0  0  0
  2  4  1  0  0  0  0
  2 21  1  0  0  0  0
  3 22  1  0  0  0  0
  3 23  1  0  0  0  0
  3 24  1  0  0  0  0
  4 17  1  0  0  0  0
  4  5  1  0  0  0  0
  4  7  1  0  0  0  0
  5  6  1  0  0  0  0
  5 25  1  0  0  0  0
  5 26  1  0  0  0  0
  6 27  1  0  0  0  0
  7  8  1  0  0  0  0
  7 28  1  0  0  0  0
  8  9  2  0  0  0  0
  8 10  2  0  0  0  0
  8 11  1  0  0  0  0
 11 12  1  0  0  0  0
 11 29  1  0  0  0  0
 11 30  1  0  0  0  0
 12 16  2  0  0  0  0
 12 13  1  0  0  0  0
 13 14  2  0  0  0  0
 13 31  1  0  0  0  0
 14 15  1  0  0  0  0
 14 32  1  0  0  0  0
 15 16  1  0  0  0  0
M  END
> <s_m_source_file>
AV-unprocessed.smi

> <i_m_source_file_index>
2926

> <i_lp_mmshare_version>
43012

> <i_f3d_flags>
0

> <s_epik_input>
W0NIM11bQ0hdKFtDSDNdKVtDQEBIXShbQ0gyXVtPSF0pW05IXVMoPU8pKD1PKVtDSDJdYzFbY0hdW2NIXW9uMQ==

> <s_epik_cmdline>
J2VwaWtfcHl0aG9uJywgJy1waCcsICc3LjAnLCAnLXRuJywgJzgnLCAnLW1hJywgJzIwMCcsICctbWV0YWxfYmluZGluZycsICctaW1hZScsICc8aW5maWxlLm1hZT4nLCAnLW9tYWUnLCAnPG91dGZpbGUubWFlPic=

> <r_lp_tautomer_probability>
1

> <r_epik_Ionization_Penalty>
0.000193122

> <r_epik_Ionization_Penalty_Charging>
0

> <r_epik_Ionization_Penalty_Neutral>
0.000193122

> <r_epik_State_Penalty>
-0

> <r_epik_Charging_Adjusted_Penalty>
0

> <i_epik_Tot_Q>
0

> <i_epik_Tot_abs_Q>
0

> <r_epik_Metal_State_Penalty>
0.130256

> <b_epik_Metal_Only>
0

> <s_lp_Force_Field>
OPLS_2005

> <r_lp_Energy>
0.568984

> <b_lp_Chiralities_Consistent>
1

> <s_lp_Variant>
AV-unprocessed.smi:2926-2

> <Gold.Version>
5.8.1

> <Gold.Id.Protein>
6NUR|6NUR_protein|mol2

> <Gold.PLP.Fitness>
34.1485

> <Gold.PLP.PLP>
-31.4350

> <Gold.PLP.part.hbond>
-2.3240

> <Gold.PLP.part.metal>
0.0000

> <Gold.PLP.part.buried>
-3.0083

> <Gold.PLP.part.nonpolar>
-25.0552

> <Gold.PLP.part.repulsive>
0.0130

> <Gold.PLP.ligand.clash>
0.0000

> <Gold.PLP.ligand.torsion>
1.6403

> <Gold.PLP.Chemscore.Hbond>
1.9252

> <Gold.PLP.Chemscore.CHOScore>
0.0000

> <Gold.PLP.Chemscore.Metal>
0.0000

> <Gold.Chemscore.Hbonds>
donor molecule, donor type, donor heavy atom, donor atom, acceptor molecule, acceptor atom, score
      L1  H     6    27       P1  7957  1.00
      P1  H  7989  7998       L1     6  0.13
      P1  H  8011  8017       L1     6  0.20

> <Gold.PLP.Chemscore.Internal.Correction>
0.2185

> <Gold.Rescore>
     Score         DG    S(hbond)    S(metal)    S(lipo)     H(rot)  DE(clash)    DE(int)     intcor
      7.49     -10.14       1.00        0.00      75.81       2.96       0.05       2.60       ----

> <Gold.Chemscore.Fitness>
7.4872

> <Gold.Chemscore.DG>
-10.1368

> <Gold.Chemscore.ZeroCoef>
-5.4800

> <Gold.Chemscore.Hbond>
1.0045

> <Gold.Chemscore.Metal>
0.0000

> <Gold.Chemscore.Lipo>
75.8140

> <Gold.Chemscore.Internal_Hbond>
0.0000

> <Gold.Chemscore.DEClash>
0.0480

> <Gold.Chemscore.DEInternal>
2.6016

> <Gold.Chemscore.Rot>
2.9564

> <Gold.Chemscore.Internal.Correction>
   9.000000E+99

> <Gold.Chemscore.Hbonds>
donor molecule, donor type, donor heavy atom, donor atom, acceptor molecule, acceptor atom, score
      L1  H     6    27       P1  7957  0.98

> <Gold.Chemscore.Hbond.Weighted>
-3.3550

> <Gold.Chemscore.Metal.Weighted>
-0.0000

> <Gold.Chemscore.Lipo.Weighted>
-8.8702

> <Gold.Chemscore.Internal_Hbond.Weighted>
0.0000

> <Gold.Chemscore.DEClash.Weighted>
0.0480

> <Gold.Chemscore.DEInternal.Weighted>
2.6016

> <Gold.Chemscore.Rot.Weighted>
7.5685

> <Gold.Chemscore.Internal.Correction.Weighted>
   9.000000E+99

> <Gold.Protein.RotatedTorsions>
[ 6907 6896 6895 6894 ] final   94.73 input  -60.11 | X-H torsion
[ 7974 7965 7964 7962 ] final  149.76 input  175.53 | X-H torsion
[ 8008 7997 7996 7995 ] final  -16.33 input   59.86 | X-H torsion
[ 10167 10162 10161 10158 ] final  -13.80 input  -65.29 | X-H torsion
[ 10718 10713 10712 10709 ] final  -39.27 input   66.30 | X-H torsion
[ 10763 10752 10751 10750 ] final  -21.72 input  -60.55 | X-H torsion
[ 11005 11000 10999 10996 ] final    9.28 input  -57.11 | X-H torsion

> <Gold.Protein.ActiveResidues>
 VAL166  LYS551  ARG553  GLY616  TRP617  ASP618  TYR619  PRO620  LYS621  CYS622 
 ASP623  PHE694  ASN695  SER759  ASP760  ASP761  ALA762  ILE779  LEU786  VAL792 
 PHE793  MET794  SER795  GLU796  ALA797  LYS798  CYS799  TRP800  GLU811  SER814 

> <Gold.Protein.RotatedAtoms>
  152.5448  134.1149  159.8374 H   0  0  0  0  0  0  0  0  0  0  0  0  # atno 6907 bound_to 6896
  151.1212  133.5096  159.2609 H   0  0  0  0  0  0  0  0  0  0  0  0  # atno 6908 bound_to 6896
  151.1777  135.0356  159.8833 H   0  0  0  0  0  0  0  0  0  0  0  0  # atno 6909 bound_to 6896
  144.8414  139.6322  143.6015 H   0  0  0  0  0  0  0  0  0  0  0  0  # atno 7974 bound_to 7965
  154.5061  140.2172  155.9248 H   0  0  0  0  0  0  0  0  0  0  0  0  # atno 8008 bound_to 7997
  156.1495  140.3164  155.8592 H   0  0  0  0  0  0  0  0  0  0  0  0  # atno 8009 bound_to 7997
  155.3965  140.0481  157.3029 H   0  0  0  0  0  0  0  0  0  0  0  0  # atno 8010 bound_to 7997
  140.7189  143.5388  150.9433 H   0  0  0  0  0  0  0  0  0  0  0  0  # atno 10167 bound_to 10162
  156.2943  130.4232  149.8206 H   0  0  0  0  0  0  0  0  0  0  0  0  # atno 10718 bound_to 10713
  153.6406  135.6985  153.5243 H   0  0  0  0  0  0  0  0  0  0  0  0  # atno 10763 bound_to 10752
  153.2785  135.4193  155.1055 H   0  0  0  0  0  0  0  0  0  0  0  0  # atno 10764 bound_to 10752
  154.8500  135.3596  154.5950 H   0  0  0  0  0  0  0  0  0  0  0  0  # atno 10765 bound_to 10752
  140.5275  134.0499  155.7863 H   0  0  0  0  0  0  0  0  0  0  0  0  # atno 11005 bound_to 11000
  146.2706  139.6625  142.9299 LP  0  0  0  0  0  0  0  0  0  0  0  0  # atno 17320 bound_to 7965
  145.4687  141.0435  143.2711 LP  0  0  0  0  0  0  0  0  0  0  0  0  # atno 17321 bound_to 7965
  139.9110  143.6720  152.3115 LP  0  0  0  0  0  0  0  0  0  0  0  0  # atno 17342 bound_to 10162
  139.7103  144.7621  151.1123 LP  0  0  0  0  0  0  0  0  0  0  0  0  # atno 17343 bound_to 10162
  156.5608  130.8382  151.3328 LP  0  0  0  0  0  0  0  0  0  0  0  0  # atno 17370 bound_to 10713
  157.7351  130.9757  150.2064 LP  0  0  0  0  0  0  0  0  0  0  0  0  # atno 17371 bound_to 10713
  141.1300  133.9318  157.2556 LP  0  0  0  0  0  0  0  0  0  0  0  0  # atno 17394 bound_to 11000
  139.9572  135.0163  156.9161 LP  0  0  0  0  0  0  0  0  0  0  0  0  # atno 17395 bound_to 11000

$$$$
