AV-unprocessed.smi:2701|AV-procd|sdf|10428|dock1
  -GOLD-   2272014463D 1   1.00000     0.00000
 Structure written by MMmdl.
 31 32  0  0  0  0  0  0  0  0  2 V2000
  145.2879  136.4666  158.5956 C   0  0  0  0  0  0  0  0  0  0  0  0
  146.2071  136.5749  159.8292 C   0  0  1  0  0  0  0  0  0  0  0  0
  147.6553  136.9499  159.4284 C   0  0  0  0  0  0  0  0  0  0  0  0
  148.5828  136.2029  159.7436 O   0  0  0  0  0  0  0  0  0  0  0  0
  147.7159  138.1133  158.7355 N   0  5  0  0  0  0  0  0  0  0  0  0
  149.0768  138.6811  158.0601 S   0  0  0  0  0  0  0  0  0  0  0  0
  148.9292  140.0680  157.5909 O   0  0  0  0  0  0  0  0  0  0  0  0
  150.2486  138.3854  158.8990 O   0  0  0  0  0  0  0  0  0  0  0  0
  149.2529  137.6388  156.5370 C   0  0  0  0  0  0  0  0  0  0  0  0
  150.2730  138.2228  155.5989 C   0  0  0  0  0  0  0  0  0  0  0  0
  151.2709  137.5418  154.8480 C   0  0  0  0  0  0  0  0  0  0  0  0
  151.9023  138.5452  154.1716 C   0  0  0  0  0  0  0  0  0  0  0  0
  151.3377  139.7438  154.4636 O   0  0  0  0  0  0  0  0  0  0  0  0
  150.2939  139.5272  155.3702 N   0  0  0  0  0  0  0  0  0  0  0  0
  145.6302  137.5050  160.9169 C   0  0  0  0  0  0  0  0  0  0  0  0
  146.0408  136.8231  162.2031 C   0  0  0  0  0  0  0  0  0  0  0  0
  145.8725  135.3592  161.8236 C   0  0  0  0  0  0  0  0  0  0  0  0
  146.2386  135.2830  160.4488 O   0  0  0  0  0  0  0  0  0  0  0  0
  145.0908  137.4435  158.1524 H   0  0  0  0  0  0  0  0  0  0  0  0
  144.3250  136.0308  158.8635 H   0  0  0  0  0  0  0  0  0  0  0  0
  145.7289  135.8328  157.8251 H   0  0  0  0  0  0  0  0  0  0  0  0
  149.5089  136.6195  156.8218 H   0  0  0  0  0  0  0  0  0  0  0  0
  148.2750  137.5976  156.0579 H   0  0  0  0  0  0  0  0  0  0  0  0
  151.4900  136.4856  154.8167 H   0  0  0  0  0  0  0  0  0  0  0  0
  152.7271  138.5663  153.4749 H   0  0  0  0  0  0  0  0  0  0  0  0
  145.9832  138.5352  160.8641 H   0  0  0  0  0  0  0  0  0  0  0  0
  144.5417  137.5356  160.8515 H   0  0  0  0  0  0  0  0  0  0  0  0
  147.0851  137.0380  162.4329 H   0  0  0  0  0  0  0  0  0  0  0  0
  145.4315  137.1160  163.0583 H   0  0  0  0  0  0  0  0  0  0  0  0
  146.4798  134.6933  162.4368 H   0  0  0  0  0  0  0  0  0  0  0  0
  144.8290  135.0579  161.9240 H   0  0  0  0  0  0  0  0  0  0  0  0
  1  2  1  0  0  0  0
  1 19  1  0  0  0  0
  1 20  1  0  0  0  0
  1 21  1  0  0  0  0
  2 18  1  0  0  0  0
  2  3  1  0  0  0  0
  2 15  1  0  0  0  0
  3  4  2  0  0  0  0
  3  5  1  0  0  0  0
  5  6  1  0  0  0  0
  6  7  2  0  0  0  0
  6  8  2  0  0  0  0
  6  9  1  0  0  0  0
  9 10  1  0  0  0  0
  9 22  1  0  0  0  0
  9 23  1  0  0  0  0
 10 14  2  0  0  0  0
 10 11  1  0  0  0  0
 11 12  2  0  0  0  0
 11 24  1  0  0  0  0
 12 13  1  0  0  0  0
 12 25  1  0  0  0  0
 13 14  1  0  0  0  0
 15 16  1  0  0  0  0
 15 26  1  0  0  0  0
 15 27  1  0  0  0  0
 16 17  1  0  0  0  0
 16 28  1  0  0  0  0
 16 29  1  0  0  0  0
 17 18  1  0  0  0  0
 17 30  1  0  0  0  0
 17 31  1  0  0  0  0
M  CHG  1   5  -1
M  END
> <s_m_source_file>
AV-unprocessed.smi

> <i_m_source_file_index>
2701

> <i_lp_mmshare_version>
43012

> <i_f3d_flags>
0

> <s_epik_input>
TzFbQ0gyXVtDSDJdW0NIMl1bQ0BAXTEoW0NIM10pQyg9TylbTkhdUyg9TykoPU8pW0NIMl1jMltjSF1bY0hdb24y

> <s_epik_cmdline>
J2VwaWtfcHl0aG9uJywgJy1waCcsICc3LjAnLCAnLXRuJywgJzgnLCAnLW1hJywgJzIwMCcsICctbWV0YWxfYmluZGluZycsICctaW1hZScsICc8aW5maWxlLm1hZT4nLCAnLW9tYWUnLCAnPG91dGZpbGUubWFlPic=

> <r_lp_tautomer_probability>
1

> <r_epik_Ionization_Penalty>
0.000279175

> <r_epik_Ionization_Penalty_Charging>
0.000279174

> <r_epik_Ionization_Penalty_Neutral>
1.67252e-10

> <r_epik_State_Penalty>
-0

> <r_epik_Charging_Adjusted_Penalty>
0.000279174

> <i_epik_Tot_Q>
-1

> <i_epik_Tot_abs_Q>
1

> <r_epik_Metal_State_Penalty>
-0

> <b_epik_Metal_Only>
0

> <s_lp_Force_Field>
OPLS_2005

> <r_lp_Energy>
15.6344

> <b_lp_Chiralities_Consistent>
1

> <s_lp_Variant>
AV-unprocessed.smi:2701-1

> <Gold.Version>
5.8.1

> <Gold.Id.Protein>
6NUR|6NUR_protein|mol2

> <Gold.PLP.Fitness>
35.5413

> <Gold.PLP.PLP>
-26.6513

> <Gold.PLP.part.hbond>
-4.4605

> <Gold.PLP.part.metal>
0.0000

> <Gold.PLP.part.buried>
-2.7215

> <Gold.PLP.part.nonpolar>
-19.9474

> <Gold.PLP.part.repulsive>
0.0444

> <Gold.PLP.ligand.clash>
0.0000

> <Gold.PLP.ligand.torsion>
1.1198

> <Gold.PLP.Chemscore.Hbond>
2.3608

> <Gold.PLP.Chemscore.CHOScore>
0.9856

> <Gold.PLP.Chemscore.Metal>
0.0000

> <Gold.Chemscore.Hbonds>
donor molecule, donor type, donor heavy atom, donor atom, acceptor molecule, acceptor atom, score
      P1  H  6934  6947       L1     5  0.01
      P1  H  7989  7998       L1    13  0.94

> <Gold.PLP.Chemscore.Internal.Correction>
1.0903

> <Gold.Rescore>
     Score         DG    S(hbond)    S(metal)    S(lipo)     H(rot)  DE(clash)    DE(int)     intcor
      9.45     -12.96       1.46        0.00      56.48       1.56       0.01       3.49       ----

> <Gold.Chemscore.Fitness>
9.4520

> <Gold.Chemscore.DG>
-12.9591

> <Gold.Chemscore.ZeroCoef>
-5.4800

> <Gold.Chemscore.Hbond>
1.4559

> <Gold.Chemscore.Metal>
0.0000

> <Gold.Chemscore.Lipo>
56.4761

> <Gold.Chemscore.Internal_Hbond>
0.0000

> <Gold.Chemscore.DEClash>
0.0144

> <Gold.Chemscore.DEInternal>
3.4927

> <Gold.Chemscore.Rot>
1.5591

> <Gold.Chemscore.Internal.Correction>
   9.000000E+99

> <Gold.Chemscore.Hbonds>
donor molecule, donor type, donor heavy atom, donor atom, acceptor molecule, acceptor atom, score
      P1  H  7989  7998       L1    13  0.82

> <Gold.Chemscore.Hbond.Weighted>
-4.8628

> <Gold.Chemscore.Metal.Weighted>
-0.0000

> <Gold.Chemscore.Lipo.Weighted>
-6.6077

> <Gold.Chemscore.Internal_Hbond.Weighted>
0.0000

> <Gold.Chemscore.DEClash.Weighted>
0.0144

> <Gold.Chemscore.DEInternal.Weighted>
3.4927

> <Gold.Chemscore.Rot.Weighted>
3.9914

> <Gold.Chemscore.Internal.Correction.Weighted>
   9.000000E+99

> <Gold.Protein.RotatedTorsions>
[ 6907 6896 6895 6894 ] final -166.05 input  -60.11 | X-H torsion
[ 7974 7965 7964 7962 ] final -114.67 input  175.53 | X-H torsion
[ 8008 7997 7996 7995 ] final -110.09 input   59.86 | X-H torsion
[ 10167 10162 10161 10158 ] final  -48.44 input  -65.29 | X-H torsion
[ 10718 10713 10712 10709 ] final  167.34 input   66.30 | X-H torsion
[ 10763 10752 10751 10750 ] final  -82.05 input  -60.55 | X-H torsion
[ 11005 11000 10999 10996 ] final  155.66 input  -57.11 | X-H torsion

> <Gold.Protein.ActiveResidues>
 VAL166  LYS551  ARG553  GLY616  TRP617  ASP618  TYR619  PRO620  LYS621  CYS622 
 ASP623  PHE694  ASN695  SER759  ASP760  ASP761  ALA762  ILE779  LEU786  VAL792 
 PHE793  MET794  SER795  GLU796  ALA797  LYS798  CYS799  TRP800  GLU811  SER814 

> <Gold.Protein.RotatedAtoms>
  151.4374  133.3653  159.2776 H   0  0  0  0  0  0  0  0  0  0  0  0  # atno 6907 bound_to 6896
  150.9182  134.8601  159.7482 H   0  0  0  0  0  0  0  0  0  0  0  0  # atno 6908 bound_to 6896
  152.4968  134.4309  159.9564 H   0  0  0  0  0  0  0  0  0  0  0  0  # atno 6909 bound_to 6896
  145.1175  140.8649  143.3834 H   0  0  0  0  0  0  0  0  0  0  0  0  # atno 7974 bound_to 7965
  154.9693  140.0398  157.2227 H   0  0  0  0  0  0  0  0  0  0  0  0  # atno 8008 bound_to 7997
  154.7816  140.2820  155.6037 H   0  0  0  0  0  0  0  0  0  0  0  0  # atno 8009 bound_to 7997
  156.2937  140.2590  156.2643 H   0  0  0  0  0  0  0  0  0  0  0  0  # atno 8010 bound_to 7997
  140.6731  143.2740  151.4071 H   0  0  0  0  0  0  0  0  0  0  0  0  # atno 10167 bound_to 10162
  157.0530  131.0318  151.2674 H   0  0  0  0  0  0  0  0  0  0  0  0  # atno 10718 bound_to 10713
  154.5711  135.5605  153.7096 H   0  0  0  0  0  0  0  0  0  0  0  0  # atno 10763 bound_to 10752
  153.0049  135.6297  154.2113 H   0  0  0  0  0  0  0  0  0  0  0  0  # atno 10764 bound_to 10752
  154.2053  135.2876  155.2957 H   0  0  0  0  0  0  0  0  0  0  0  0  # atno 10765 bound_to 10752
  140.1602  134.8615  157.2564 H   0  0  0  0  0  0  0  0  0  0  0  0  # atno 11005 bound_to 11000
  145.0778  139.2982  143.5799 LP  0  0  0  0  0  0  0  0  0  0  0  0  # atno 17320 bound_to 7965
  146.3523  140.0274  142.8653 LP  0  0  0  0  0  0  0  0  0  0  0  0  # atno 17321 bound_to 7965
  139.6009  144.1298  152.2196 LP  0  0  0  0  0  0  0  0  0  0  0  0  # atno 17342 bound_to 10162
  140.0682  144.5801  150.7211 LP  0  0  0  0  0  0  0  0  0  0  0  0  # atno 17343 bound_to 10162
  157.5015  130.7883  149.7610 LP  0  0  0  0  0  0  0  0  0  0  0  0  # atno 17370 bound_to 10713
  156.0002  130.3885  150.2637 LP  0  0  0  0  0  0  0  0  0  0  0  0  # atno 17371 bound_to 10713
  140.2499  134.3695  155.7446 LP  0  0  0  0  0  0  0  0  0  0  0  0  # atno 17394 bound_to 11000
  141.2208  133.7311  156.8919 LP  0  0  0  0  0  0  0  0  0  0  0  0  # atno 17395 bound_to 11000

$$$$
