AV-unprocessed.smi:1065|AV-procd|sdf|4666|dock8
  -GOLD-   22720 3173D 1   1.00000     0.00000
 Structure written by MMmdl.
 39 40  0  0  0  0  0  0  0  0  1 V2000
  150.4899  144.8922  159.8030 C   0  0  0  0  0  0  0  0  0  0  0  0
  151.9457  144.8405  159.3187 C   0  0  0  0  0  0  0  0  0  0  0  0
  152.4149  143.4379  158.8804 C   0  0  2  0  0  0  0  0  0  0  0  0
  151.4429  142.8324  157.8484 C   0  0  0  0  0  0  0  0  0  0  0  0
  151.8913  141.4362  157.3866 C   0  0  0  0  0  0  0  0  0  0  0  0
  152.0579  140.4688  158.5780 C   0  0  1  0  0  0  0  0  0  0  0  0
  152.5245  139.0666  158.1418 C   0  0  0  0  0  0  0  0  0  0  0  0
  151.8816  138.6510  156.9025 N   0  0  0  0  0  0  0  0  0  0  0  0
  152.5125  138.5102  155.7280 C   0  0  0  0  0  0  0  0  0  0  0  0
  153.7198  138.6967  155.5795 O   0  0  0  0  0  0  0  0  0  0  0  0
  151.6482  138.1024  154.5352 C   0  0  0  0  0  0  0  0  0  0  0  0
  150.5116  138.9924  154.3935 N   0  0  0  0  0  0  0  0  0  0  0  0
  149.2390  138.7452  154.0766 C   0  0  0  0  0  0  0  0  0  0  0  0
  148.5200  139.8569  154.0401 N   0  0  0  0  0  0  0  0  0  0  0  0
  149.4423  140.8395  154.3599 N   0  0  0  0  0  0  0  0  0  0  0  0
  150.6261  140.3327  154.5705 N   0  0  0  0  0  0  0  0  0  0  0  0
  153.0280  141.0727  159.6110 C   0  0  0  0  0  0  0  0  0  0  0  0
  152.5798  142.4695  160.0707 C   0  0  0  0  0  0  0  0  0  0  0  0
  150.2437  145.8869  160.1750 H   0  0  0  0  0  0  0  0  0  0  0  0
  150.3182  144.1842  160.6142 H   0  0  0  0  0  0  0  0  0  0  0  0
  149.7889  144.6635  159.0008 H   0  0  0  0  0  0  0  0  0  0  0  0
  152.0842  145.5511  158.5029 H   0  0  0  0  0  0  0  0  0  0  0  0
  152.5827  145.1892  160.1325 H   0  0  0  0  0  0  0  0  0  0  0  0
  153.3854  143.5472  158.3939 H   0  0  0  0  0  0  0  0  0  0  0  0
  150.4425  142.7672  158.2785 H   0  0  0  0  0  0  0  0  0  0  0  0
  151.3617  143.4892  156.9817 H   0  0  0  0  0  0  0  0  0  0  0  0
  151.1610  141.0467  156.6769 H   0  0  0  0  0  0  0  0  0  0  0  0
  152.8336  141.5178  156.8430 H   0  0  0  0  0  0  0  0  0  0  0  0
  151.0855  140.3596  159.0610 H   0  0  0  0  0  0  0  0  0  0  0  0
  153.6078  139.0560  158.0089 H   0  0  0  0  0  0  0  0  0  0  0  0
  152.2913  138.3381  158.9199 H   0  0  0  0  0  0  0  0  0  0  0  0
  150.8864  138.4810  156.9355 H   0  0  0  0  0  0  0  0  0  0  0  0
  152.2367  138.1362  153.6173 H   0  0  0  0  0  0  0  0  0  0  0  0
  151.2961  137.0767  154.6558 H   0  0  0  0  0  0  0  0  0  0  0  0
  148.8450  137.7608  153.8710 H   0  0  0  0  0  0  0  0  0  0  0  0
  153.1065  140.4147  160.4772 H   0  0  0  0  0  0  0  0  0  0  0  0
  154.0293  141.1369  159.1829 H   0  0  0  0  0  0  0  0  0  0  0  0
  153.3122  142.8568  160.7785 H   0  0  0  0  0  0  0  0  0  0  0  0
  151.6378  142.3886  160.6148 H   0  0  0  0  0  0  0  0  0  0  0  0
  1  2  1  0  0  0  0
  1 19  1  0  0  0  0
  1 20  1  0  0  0  0
  1 21  1  0  0  0  0
  2  3  1  0  0  0  0
  2 22  1  0  0  0  0
  2 23  1  0  0  0  0
  3 18  1  0  0  0  0
  3  4  1  0  0  0  0
  3 24  1  0  0  0  0
  4  5  1  0  0  0  0
  4 25  1  0  0  0  0
  4 26  1  0  0  0  0
  5  6  1  0  0  0  0
  5 27  1  0  0  0  0
  5 28  1  0  0  0  0
  6  7  1  0  0  0  0
  6 17  1  0  0  0  0
  6 29  1  0  0  0  0
  7  8  1  0  0  0  0
  7 30  1  0  0  0  0
  7 31  1  0  0  0  0
  8  9  1  0  0  0  0
  8 32  1  0  0  0  0
  9 10  2  0  0  0  0
  9 11  1  0  0  0  0
 11 12  1  0  0  0  0
 11 33  1  0  0  0  0
 11 34  1  0  0  0  0
 12 16  1  0  0  0  0
 12 13  1  0  0  0  0
 13 14  2  0  0  0  0
 13 35  1  0  0  0  0
 14 15  1  0  0  0  0
 15 16  2  0  0  0  0
 17 18  1  0  0  0  0
 17 36  1  0  0  0  0
 17 37  1  0  0  0  0
 18 38  1  0  0  0  0
 18 39  1  0  0  0  0
M  END
> <s_m_source_file>
AV-unprocessed.smi

> <i_m_source_file_index>
1065

> <i_lp_mmshare_version>
43012

> <i_f3d_flags>
0

> <s_epik_input>
W0NIM11bQ0gyXVtDQEBIXTFbQ0gyXVtDSDJdW0NASF0oW0NIMl1bQ0gyXTEpW0NIMl1bTkhdQyg9TylbQ0gyXW4yW2NIXW5ubjI=

> <s_epik_cmdline>
J2VwaWtfcHl0aG9uJywgJy1waCcsICc3LjAnLCAnLXRuJywgJzgnLCAnLW1hJywgJzIwMCcsICctbWV0YWxfYmluZGluZycsICctaW1hZScsICc8aW5maWxlLm1hZT4nLCAnLW9tYWUnLCAnPG91dGZpbGUubWFlPic=

> <r_lp_tautomer_probability>
1

> <r_epik_Ionization_Penalty>
4.54759e-07

> <r_epik_Ionization_Penalty_Charging>
0

> <r_epik_Ionization_Penalty_Neutral>
4.54759e-07

> <r_epik_State_Penalty>
-0

> <r_epik_Charging_Adjusted_Penalty>
0

> <i_epik_Tot_Q>
0

> <i_epik_Tot_abs_Q>
0

> <r_epik_Metal_State_Penalty>
-0

> <b_epik_Metal_Only>
0

> <s_lp_Force_Field>
OPLS_2005

> <r_lp_Energy>
13.9446

> <b_lp_Chiralities_Consistent>
1

> <s_lp_Variant>
AV-unprocessed.smi:1065-1

> <Gold.Version>
5.8.1

> <Gold.Id.Protein>
6NUR|6NUR_protein|mol2

> <Gold.PLP.Fitness>
46.9362

> <Gold.PLP.PLP>
-39.6991

> <Gold.PLP.part.hbond>
-2.7357

> <Gold.PLP.part.metal>
0.0000

> <Gold.PLP.part.buried>
-6.8565

> <Gold.PLP.part.nonpolar>
-31.1197

> <Gold.PLP.part.repulsive>
0.5528

> <Gold.PLP.ligand.clash>
0.0000

> <Gold.PLP.ligand.torsion>
0.5783

> <Gold.PLP.Chemscore.Hbond>
1.8000

> <Gold.PLP.Chemscore.CHOScore>
0.9943

> <Gold.PLP.Chemscore.Metal>
0.0000

> <Gold.Chemscore.Hbonds>
donor molecule, donor type, donor heavy atom, donor atom, acceptor molecule, acceptor atom, score
      P1  H  7989  7998       L1    16  1.00
      P1  H  7997  8010       L1    10  0.78
      L1  C    13    35       P1  7948  1.00

> <Gold.PLP.Chemscore.Internal.Correction>
0.0109

> <Gold.Rescore>
     Score         DG    S(hbond)    S(metal)    S(lipo)     H(rot)  DE(clash)    DE(int)     intcor
     15.26     -16.47       1.83        0.00      95.36       2.45       1.00       0.21       ----

> <Gold.Chemscore.Fitness>
15.2613

> <Gold.Chemscore.DG>
-16.4749

> <Gold.Chemscore.ZeroCoef>
-5.4800

> <Gold.Chemscore.Hbond>
1.8303

> <Gold.Chemscore.Metal>
0.0000

> <Gold.Chemscore.Lipo>
95.3557

> <Gold.Chemscore.Internal_Hbond>
0.0000

> <Gold.Chemscore.DEClash>
1.0021

> <Gold.Chemscore.DEInternal>
0.2114

> <Gold.Chemscore.Rot>
2.4512

> <Gold.Chemscore.Internal.Correction>
   9.000000E+99

> <Gold.Chemscore.Hbonds>
donor molecule, donor type, donor heavy atom, donor atom, acceptor molecule, acceptor atom, score
      P1  H  7989  7998       L1    16  0.44
      P1  H  7997  8010       L1    10  0.76

> <Gold.Chemscore.Hbond.Weighted>
-6.1133

> <Gold.Chemscore.Metal.Weighted>
-0.0000

> <Gold.Chemscore.Lipo.Weighted>
-11.1566

> <Gold.Chemscore.Internal_Hbond.Weighted>
0.0000

> <Gold.Chemscore.DEClash.Weighted>
1.0021

> <Gold.Chemscore.DEInternal.Weighted>
0.2114

> <Gold.Chemscore.Rot.Weighted>
6.2750

> <Gold.Chemscore.Internal.Correction.Weighted>
   9.000000E+99

> <Gold.Protein.RotatedTorsions>
[ 6907 6896 6895 6894 ] final  108.39 input  -60.11 | X-H torsion
[ 7974 7965 7964 7962 ] final  -19.87 input  175.53 | X-H torsion
[ 8008 7997 7996 7995 ] final   94.88 input   59.86 | X-H torsion
[ 10167 10162 10161 10158 ] final  -64.76 input  -65.29 | X-H torsion
[ 10718 10713 10712 10709 ] final  -38.49 input   66.30 | X-H torsion
[ 10763 10752 10751 10750 ] final  154.93 input  -60.55 | X-H torsion
[ 11005 11000 10999 10996 ] final  -72.91 input  -57.11 | X-H torsion

> <Gold.Protein.ActiveResidues>
 VAL166  LYS551  ARG553  GLY616  TRP617  ASP618  TYR619  PRO620  LYS621  CYS622 
 ASP623  PHE694  ASN695  SER759  ASP760  ASP761  ALA762  ILE779  LEU786  VAL792 
 PHE793  MET794  SER795  GLU796  ALA797  LYS798  CYS799  TRP800  GLU811  SER814 

> <Gold.Protein.RotatedAtoms>
  152.5114  133.9096  159.7481 H   0  0  0  0  0  0  0  0  0  0  0  0  # atno 6907 bound_to 6896
  150.9493  133.6559  159.2782 H   0  0  0  0  0  0  0  0  0  0  0  0  # atno 6908 bound_to 6896
  151.3843  135.0950  159.9559 H   0  0  0  0  0  0  0  0  0  0  0  0  # atno 6909 bound_to 6896
  146.1818  140.4123  142.8491 H   0  0  0  0  0  0  0  0  0  0  0  0  # atno 7974 bound_to 7965
  156.0628  140.3294  155.7482 H   0  0  0  0  0  0  0  0  0  0  0  0  # atno 8008 bound_to 7997
  155.5428  140.0603  157.2884 H   0  0  0  0  0  0  0  0  0  0  0  0  # atno 8009 bound_to 7997
  154.4490  140.1908  156.0596 H   0  0  0  0  0  0  0  0  0  0  0  0  # atno 8010 bound_to 7997
  140.5778  143.2324  151.6405 H   0  0  0  0  0  0  0  0  0  0  0  0  # atno 10167 bound_to 10162
  156.3032  130.4243  149.8122 H   0  0  0  0  0  0  0  0  0  0  0  0  # atno 10718 bound_to 10713
  154.1603  135.2810  155.3110 H   0  0  0  0  0  0  0  0  0  0  0  0  # atno 10763 bound_to 10752
  154.6152  135.5485  153.7519 H   0  0  0  0  0  0  0  0  0  0  0  0  # atno 10764 bound_to 10752
  153.0194  135.6425  154.1745 H   0  0  0  0  0  0  0  0  0  0  0  0  # atno 10765 bound_to 10752
  141.1615  133.6861  156.7131 H   0  0  0  0  0  0  0  0  0  0  0  0  # atno 11005 bound_to 11000
  144.8329  140.6735  143.6279 LP  0  0  0  0  0  0  0  0  0  0  0  0  # atno 17320 bound_to 7965
  145.4053  139.1590  143.4155 LP  0  0  0  0  0  0  0  0  0  0  0  0  # atno 17321 bound_to 7965
  139.5152  144.3385  152.0762 LP  0  0  0  0  0  0  0  0  0  0  0  0  # atno 17342 bound_to 10162
  140.2530  144.4148  150.6214 LP  0  0  0  0  0  0  0  0  0  0  0  0  # atno 17343 bound_to 10162
  156.5493  130.8334  151.3294 LP  0  0  0  0  0  0  0  0  0  0  0  0  # atno 17370 bound_to 10713
  157.7373  130.9793  150.2186 LP  0  0  0  0  0  0  0  0  0  0  0  0  # atno 17371 bound_to 10713
  140.2872  134.8269  157.3985 LP  0  0  0  0  0  0  0  0  0  0  0  0  # atno 17394 bound_to 11000
  140.1379  134.5010  155.8054 LP  0  0  0  0  0  0  0  0  0  0  0  0  # atno 17395 bound_to 11000

$$$$
