AV-unprocessed.smi:1691|AV-procd|sdf|6777|dock10
  -GOLD-   22720 7533D 1   1.00000     0.00000
 Structure written by MMmdl.
 43 44  0  0  0  0  0  0  0  0  1 V2000
  144.8998  139.9053  155.5114 C   0  0  0  0  0  0  0  0  0  0  0  0
  146.3647  140.3746  155.4094 C   0  0  0  0  0  0  0  0  0  0  0  0
  146.4485  141.8219  154.8948 C   0  0  0  0  0  0  0  0  0  0  0  0
  147.3590  139.4227  154.6708 C   0  0  1  0  0  0  0  0  0  0  0  0
  147.1469  139.3655  153.1309 C   0  0  0  0  0  0  0  0  0  0  0  0
  147.1010  138.0013  152.6139 N   0  0  0  0  0  0  0  0  0  0  0  0
  145.9805  137.3380  152.2964 C   0  0  0  0  0  0  0  0  0  0  0  0
  144.8509  137.8133  152.4167 O   0  0  0  0  0  0  0  0  0  0  0  0
  146.2560  136.1072  151.8349 N   0  0  0  0  0  0  0  0  0  0  0  0
  145.3320  135.1269  151.3926 C   0  0  0  0  0  0  0  0  0  0  0  0
  145.5018  133.7247  151.5510 C   0  0  0  0  0  0  0  0  0  0  0  0
  144.4797  133.0529  151.0405 N   0  0  0  0  0  0  0  0  0  0  0  0
  143.6591  134.0129  150.5574 N   0  0  0  0  0  0  0  0  0  0  0  0
  144.1370  135.2904  150.7496 C   0  0  0  0  0  0  0  0  0  0  0  0
  148.7679  139.5415  155.0952 N   0  0  0  0  0  0  0  0  0  0  0  0
  149.3029  140.9019  155.1323 C   0  0  0  0  0  0  0  0  0  0  0  0
  150.7431  140.9316  155.6736 C   0  0  0  0  0  0  0  0  0  0  0  0
  151.5698  140.0757  154.8917 O   0  0  0  0  0  0  0  0  0  0  0  0
  151.1048  138.7301  154.8746 C   0  0  0  0  0  0  0  0  0  0  0  0
  149.6701  138.6898  154.3223 C   0  0  0  0  0  0  0  0  0  0  0  0
  142.7855  133.7830  150.1051 H   0  0  0  0  0  0  0  0  0  0  0  0
  144.3641  139.9942  154.5692 H   0  0  0  0  0  0  0  0  0  0  0  0
  144.3589  140.5221  156.2295 H   0  0  0  0  0  0  0  0  0  0  0  0
  144.8164  138.8761  155.8576 H   0  0  0  0  0  0  0  0  0  0  0  0
  146.7164  140.4210  156.4407 H   0  0  0  0  0  0  0  0  0  0  0  0
  146.0585  141.9095  153.8801 H   0  0  0  0  0  0  0  0  0  0  0  0
  147.4789  142.1783  154.8884 H   0  0  0  0  0  0  0  0  0  0  0  0
  145.8719  142.4970  155.5276 H   0  0  0  0  0  0  0  0  0  0  0  0
  147.0455  138.4399  155.0255 H   0  0  0  0  0  0  0  0  0  0  0  0
  146.2145  139.8546  152.8509 H   0  0  0  0  0  0  0  0  0  0  0  0
  147.9339  139.9064  152.6051 H   0  0  0  0  0  0  0  0  0  0  0  0
  147.9863  137.5341  152.4829 H   0  0  0  0  0  0  0  0  0  0  0  0
  147.2296  135.8442  151.7918 H   0  0  0  0  0  0  0  0  0  0  0  0
  146.3158  133.1834  152.0102 H   0  0  0  0  0  0  0  0  0  0  0  0
  143.5971  136.1655  150.4199 H   0  0  0  0  0  0  0  0  0  0  0  0
  149.2940  141.3369  154.1326 H   0  0  0  0  0  0  0  0  0  0  0  0
  148.6917  141.5418  155.7600 H   0  0  0  0  0  0  0  0  0  0  0  0
  151.1417  141.9454  155.6341 H   0  0  0  0  0  0  0  0  0  0  0  0
  150.7688  140.6178  156.7183 H   0  0  0  0  0  0  0  0  0  0  0  0
  151.7682  138.1310  154.2508 H   0  0  0  0  0  0  0  0  0  0  0  0
  151.1437  138.3106  155.8812 H   0  0  0  0  0  0  0  0  0  0  0  0
  149.3127  137.6597  154.3334 H   0  0  0  0  0  0  0  0  0  0  0  0
  149.6886  139.0044  153.2789 H   0  0  0  0  0  0  0  0  0  0  0  0
  1  2  1  0  0  0  0
  1 22  1  0  0  0  0
  1 23  1  0  0  0  0
  1 24  1  0  0  0  0
  2  3  1  0  0  0  0
  2  4  1  0  0  0  0
  2 25  1  0  0  0  0
  3 26  1  0  0  0  0
  3 27  1  0  0  0  0
  3 28  1  0  0  0  0
  4  5  1  0  0  0  0
  4 15  1  0  0  0  0
  4 29  1  0  0  0  0
  5  6  1  0  0  0  0
  5 30  1  0  0  0  0
  5 31  1  0  0  0  0
  6  7  1  0  0  0  0
  6 32  1  0  0  0  0
  7  8  2  0  0  0  0
  7  9  1  0  0  0  0
  9 10  1  0  0  0  0
  9 33  1  0  0  0  0
 10 14  2  0  0  0  0
 10 11  1  0  0  0  0
 11 12  2  0  0  0  0
 11 34  1  0  0  0  0
 12 13  1  0  0  0  0
 13 21  1  0  0  0  0
 13 14  1  0  0  0  0
 14 35  1  0  0  0  0
 15 20  1  0  0  0  0
 15 16  1  0  0  0  0
 16 17  1  0  0  0  0
 16 36  1  0  0  0  0
 16 37  1  0  0  0  0
 17 18  1  0  0  0  0
 17 38  1  0  0  0  0
 17 39  1  0  0  0  0
 18 19  1  0  0  0  0
 19 20  1  0  0  0  0
 19 40  1  0  0  0  0
 19 41  1  0  0  0  0
 20 42  1  0  0  0  0
 20 43  1  0  0  0  0
M  END
> <s_m_source_file>
AV-unprocessed.smi

> <i_m_source_file_index>
1691

> <i_lp_mmshare_version>
43012

> <i_f3d_flags>
0

> <s_epik_input>
W0NIMl0xW0NIMl1PW0NIMl1bQ0gyXU4xW0NASF0oW0NIXShbQ0gzXSlbQ0gzXSlbQ0gyXVtOSF1DKD1PKVtOSF1jMltjSF1uW25IXVtjSF0y

> <s_epik_cmdline>
J2VwaWtfcHl0aG9uJywgJy1waCcsICc3LjAnLCAnLXRuJywgJzgnLCAnLW1hJywgJzIwMCcsICctbWV0YWxfYmluZGluZycsICctaW1hZScsICc8aW5maWxlLm1hZT4nLCAnLW9tYWUnLCAnPG91dGZpbGUubWFlPic=

> <r_lp_tautomer_probability>
0.5

> <r_epik_Ionization_Penalty>
0.462189

> <r_epik_Ionization_Penalty_Charging>
0

> <r_epik_Ionization_Penalty_Neutral>
0.462189

> <r_epik_State_Penalty>
0.465733

> <r_epik_Charging_Adjusted_Penalty>
0.465733

> <i_epik_Tot_Q>
0

> <i_epik_Tot_abs_Q>
0

> <r_epik_Metal_State_Penalty>
0.465732

> <b_epik_Metal_Only>
0

> <s_lp_Force_Field>
OPLS_2005

> <r_lp_Energy>
41.1245

> <b_lp_Chiralities_Consistent>
1

> <s_lp_Variant>
AV-unprocessed.smi:1691-4

> <Gold.Version>
5.8.1

> <Gold.Id.Protein>
6NUR|6NUR_protein|mol2

> <Gold.PLP.Fitness>
40.9531

> <Gold.PLP.PLP>
-28.6178

> <Gold.PLP.part.hbond>
-3.8423

> <Gold.PLP.part.metal>
0.0000

> <Gold.PLP.part.buried>
-5.4767

> <Gold.PLP.part.nonpolar>
-22.4390

> <Gold.PLP.part.repulsive>
3.2002

> <Gold.PLP.ligand.clash>
0.0000

> <Gold.PLP.ligand.torsion>
1.4251

> <Gold.PLP.Chemscore.Hbond>
3.9280

> <Gold.PLP.Chemscore.CHOScore>
1.0000

> <Gold.PLP.Chemscore.Metal>
0.0000

> <Gold.Chemscore.Hbonds>
donor molecule, donor type, donor heavy atom, donor atom, acceptor molecule, acceptor atom, score
      L1  H     6    32       P1  7948  1.00
      L1  H     9    33       P1  7948  1.00
      L1  H    13    21       P1 10186  0.93
      P1  H  7989  7998       L1    18  1.00
      L1  C    14    35       P1 10171  1.00

> <Gold.PLP.Chemscore.Internal.Correction>
0.4014

> <Gold.Rescore>
     Score         DG    S(hbond)    S(metal)    S(lipo)     H(rot)  DE(clash)    DE(int)     intcor
     17.37     -19.57       3.55        0.00      58.16       1.79       0.47       1.72       ----

> <Gold.Chemscore.Fitness>
17.3722

> <Gold.Chemscore.DG>
-19.5670

> <Gold.Chemscore.ZeroCoef>
-5.4800

> <Gold.Chemscore.Hbond>
3.5516

> <Gold.Chemscore.Metal>
0.0000

> <Gold.Chemscore.Lipo>
58.1645

> <Gold.Chemscore.Internal_Hbond>
0.0000

> <Gold.Chemscore.DEClash>
0.4741

> <Gold.Chemscore.DEInternal>
1.7207

> <Gold.Chemscore.Rot>
1.7893

> <Gold.Chemscore.Internal.Correction>
   9.000000E+99

> <Gold.Chemscore.Hbonds>
donor molecule, donor type, donor heavy atom, donor atom, acceptor molecule, acceptor atom, score
      L1  H     6    32       P1  7948  0.96
      L1  H     9    33       P1  7948  0.97
      L1  H    13    21       P1 10186  0.88
      P1  H  7989  7998       L1    18  0.32

> <Gold.Chemscore.Hbond.Weighted>
-11.8623

> <Gold.Chemscore.Metal.Weighted>
-0.0000

> <Gold.Chemscore.Lipo.Weighted>
-6.8052

> <Gold.Chemscore.Internal_Hbond.Weighted>
0.0000

> <Gold.Chemscore.DEClash.Weighted>
0.4741

> <Gold.Chemscore.DEInternal.Weighted>
1.7207

> <Gold.Chemscore.Rot.Weighted>
4.5805

> <Gold.Chemscore.Internal.Correction.Weighted>
   9.000000E+99

> <Gold.Protein.RotatedTorsions>
[ 6907 6896 6895 6894 ] final   82.68 input  -60.11 | X-H torsion
[ 7974 7965 7964 7962 ] final   47.30 input  175.53 | X-H torsion
[ 8008 7997 7996 7995 ] final  176.15 input   59.86 | X-H torsion
[ 10167 10162 10161 10158 ] final   87.12 input  -65.29 | X-H torsion
[ 10718 10713 10712 10709 ] final  -72.38 input   66.30 | X-H torsion
[ 10763 10752 10751 10750 ] final  114.63 input  -60.55 | X-H torsion
[ 11005 11000 10999 10996 ] final   43.09 input  -57.11 | X-H torsion

> <Gold.Protein.ActiveResidues>
 VAL166  LYS551  ARG553  GLY616  TRP617  ASP618  TYR619  PRO620  LYS621  CYS622 
 ASP623  PHE694  ASN695  SER759  ASP760  ASP761  ALA762  ILE779  LEU786  VAL792 
 PHE793  MET794  SER795  GLU796  ALA797  LYS798  CYS799  TRP800  GLU811  SER814 

> <Gold.Protein.RotatedAtoms>
  152.5306  134.3013  159.9079 H   0  0  0  0  0  0  0  0  0  0  0  0  # atno 6907 bound_to 6896
  151.2963  133.4136  159.2644 H   0  0  0  0  0  0  0  0  0  0  0  0  # atno 6908 bound_to 6896
  151.0157  134.9447  159.8089 H   0  0  0  0  0  0  0  0  0  0  0  0  # atno 6909 bound_to 6896
  146.0311  139.4764  142.9837 H   0  0  0  0  0  0  0  0  0  0  0  0  # atno 7974 bound_to 7965
  156.0796  140.1391  156.9729 H   0  0  0  0  0  0  0  0  0  0  0  0  # atno 8008 bound_to 7997
  154.4577  140.0955  156.6854 H   0  0  0  0  0  0  0  0  0  0  0  0  # atno 8009 bound_to 7997
  155.5098  140.3453  155.4388 H   0  0  0  0  0  0  0  0  0  0  0  0  # atno 8010 bound_to 7997
  139.8805  144.6442  150.8848 H   0  0  0  0  0  0  0  0  0  0  0  0  # atno 10167 bound_to 10162
  156.0323  130.4371  150.2585 H   0  0  0  0  0  0  0  0  0  0  0  0  # atno 10718 bound_to 10713
  153.5102  135.3619  155.2583 H   0  0  0  0  0  0  0  0  0  0  0  0  # atno 10763 bound_to 10752
  154.8742  135.4021  154.3377 H   0  0  0  0  0  0  0  0  0  0  0  0  # atno 10764 bound_to 10752
  153.4029  135.7075  153.6480 H   0  0  0  0  0  0  0  0  0  0  0  0  # atno 10765 bound_to 10752
  140.1677  134.4261  155.8276 H   0  0  0  0  0  0  0  0  0  0  0  0  # atno 11005 bound_to 11000
  145.7039  141.0127  143.1489 LP  0  0  0  0  0  0  0  0  0  0  0  0  # atno 17320 bound_to 7965
  144.7031  139.8677  143.7438 LP  0  0  0  0  0  0  0  0  0  0  0  0  # atno 17321 bound_to 7965
  140.7745  143.3589  151.1866 LP  0  0  0  0  0  0  0  0  0  0  0  0  # atno 17342 bound_to 10162
  139.7200  143.9239  152.2981 LP  0  0  0  0  0  0  0  0  0  0  0  0  # atno 17343 bound_to 10162
  157.0686  131.0110  151.3198 LP  0  0  0  0  0  0  0  0  0  0  0  0  # atno 17370 bound_to 10713
  157.5016  130.7883  149.7611 LP  0  0  0  0  0  0  0  0  0  0  0  0  # atno 17371 bound_to 10713
  141.2215  133.6942  156.7708 LP  0  0  0  0  0  0  0  0  0  0  0  0  # atno 17394 bound_to 11000
  140.2414  134.8611  157.3577 LP  0  0  0  0  0  0  0  0  0  0  0  0  # atno 17395 bound_to 11000

$$$$
