AV-unprocessed.smi:157|AV-procd|sdf|1298|dock5
  -GOLD-   2262018583D 1   1.00000     0.00000
 Structure written by MMmdl.
 35 37  0  0  0  0  0  0  0  0  1 V2000
  150.3065  137.7446  154.0155 O   0  0  0  0  0  0  0  0  0  0  0  0
  149.4045  138.4949  154.8015 C   0  0  0  0  0  0  0  0  0  0  0  0
  149.4201  139.9814  154.3879 C   0  0  2  0  0  0  0  0  0  0  0  0
  150.6818  140.5214  154.7854 O   0  0  0  0  0  0  0  0  0  0  0  0
  150.5285  141.4071  155.8566 C   0  0  2  0  0  0  0  0  0  0  0  0
  151.4971  141.0367  156.9365 N   0  0  0  0  0  0  0  0  0  0  0  0
  152.2107  139.9053  157.0154 C   0  0  0  0  0  0  0  0  0  0  0  0
  152.9854  139.8175  158.0831 N   0  0  0  0  0  0  0  0  0  0  0  0
  152.7528  141.0101  158.7656 C   0  0  0  0  0  0  0  0  0  0  0  0
  151.8320  141.7812  158.0708 C   0  0  0  0  0  0  0  0  0  0  0  0
  151.2197  143.0064  158.2535 N   0  0  0  0  0  0  0  0  0  0  0  0
  151.7624  143.8398  159.0841 C   0  0  0  0  0  0  0  0  0  0  0  0
  152.8508  143.6809  159.9300 N   0  0  0  0  0  0  0  0  0  0  0  0
  153.0180  142.5352  160.8079 C   0  0  0  0  0  0  0  0  0  0  0  0
  153.4456  141.2581  160.0744 C   0  0  2  0  0  0  0  0  0  0  0  0
  154.8310  141.3172  159.8033 O   0  0  0  0  0  0  0  0  0  0  0  0
  149.0956  141.2632  156.3611 C   0  0  0  0  0  0  0  0  0  0  0  0
  148.3857  140.8862  155.0805 C   0  0  2  0  0  0  0  0  0  0  0  0
  147.1378  140.2741  155.3360 O   0  0  0  0  0  0  0  0  0  0  0  0
  149.3357  140.0581  153.3030 H   0  0  0  0  0  0  0  0  0  0  0  0
  150.7903  142.4189  155.5447 H   0  0  0  0  0  0  0  0  0  0  0  0
  153.2910  140.4093  160.7413 H   0  0  0  0  0  0  0  0  0  0  0  0
  148.2256  141.7817  154.4780 H   0  0  0  0  0  0  0  0  0  0  0  0
  149.8122  137.1284  153.4964 H   0  0  0  0  0  0  0  0  0  0  0  0
  148.4038  138.0678  154.7350 H   0  0  0  0  0  0  0  0  0  0  0  0
  149.7224  138.3979  155.8399 H   0  0  0  0  0  0  0  0  0  0  0  0
  152.1591  139.1214  156.2746 H   0  0  0  0  0  0  0  0  0  0  0  0
  151.3280  144.8362  159.1755 H   0  0  0  0  0  0  0  0  0  0  0  0
  153.2803  144.5066  160.3218 H   0  0  0  0  0  0  0  0  0  0  0  0
  153.7203  142.7783  161.6058 H   0  0  0  0  0  0  0  0  0  0  0  0
  152.0571  142.3568  161.2928 H   0  0  0  0  0  0  0  0  0  0  0  0
  155.1332  142.1902  160.0036 H   0  0  0  0  0  0  0  0  0  0  0  0
  149.0389  140.4583  157.0962 H   0  0  0  0  0  0  0  0  0  0  0  0
  148.7385  142.1891  156.8132 H   0  0  0  0  0  0  0  0  0  0  0  0
  146.5302  140.9397  155.6210 H   0  0  0  0  0  0  0  0  0  0  0  0
  1  2  1  0  0  0  0
  1 24  1  0  0  0  0
  2  3  1  0  0  0  0
  2 25  1  0  0  0  0
  2 26  1  0  0  0  0
  3 20  1  0  0  0  0
  3 18  1  0  0  0  0
  3  4  1  0  0  0  0
  4  5  1  0  0  0  0
  5 21  1  0  0  0  0
  5  6  1  0  0  0  0
  5 17  1  0  0  0  0
  6 10  1  0  0  0  0
  6  7  1  0  0  0  0
  7  8  2  0  0  0  0
  7 27  1  0  0  0  0
  8  9  1  0  0  0  0
  9 15  1  0  0  0  0
  9 10  2  0  0  0  0
 10 11  1  0  0  0  0
 11 12  2  0  0  0  0
 12 13  1  0  0  0  0
 12 28  1  0  0  0  0
 13 14  1  0  0  0  0
 13 29  1  0  0  0  0
 14 15  1  0  0  0  0
 14 30  1  0  0  0  0
 14 31  1  0  0  0  0
 15 22  1  0  0  0  0
 15 16  1  0  0  0  0
 16 32  1  0  0  0  0
 17 18  1  0  0  0  0
 17 33  1  0  0  0  0
 17 34  1  0  0  0  0
 18 23  1  0  0  0  0
 18 19  1  0  0  0  0
 19 35  1  0  0  0  0
M  END
> <s_m_source_file>
AV-unprocessed.smi

> <i_m_source_file_index>
157

> <i_lp_mmshare_version>
43012

> <i_f3d_flags>
0

> <s_epik_input>
W09IXVtDSDJdW0NASF0xT1tDQEhdKFtDSDJdW0NAQEhdMVtPSF0pbihbY0hdbjIpYyhjMjMpTj1bQ0hdW05IXVtDSDJdW0NASF0zW09IXQ==

> <s_epik_cmdline>
J2VwaWtfcHl0aG9uJywgJy1waCcsICc3LjAnLCAnLXRuJywgJzgnLCAnLW1hJywgJzIwMCcsICctbWV0YWxfYmluZGluZycsICctaW1hZScsICc8aW5maWxlLm1hZT4nLCAnLW9tYWUnLCAnPG91dGZpbGUubWFlPic=

> <r_lp_tautomer_probability>
1

> <r_epik_Ionization_Penalty>
0.0357149

> <r_epik_Ionization_Penalty_Charging>
0.0355056

> <r_epik_Ionization_Penalty_Neutral>
0.000209255

> <r_epik_State_Penalty>
0.0296046

> <r_epik_Charging_Adjusted_Penalty>
0.0651102

> <i_epik_Tot_Q>
0

> <i_epik_Tot_abs_Q>
0

> <r_epik_Metal_State_Penalty>
3.03559e-05

> <b_epik_Metal_Only>
0

> <s_epik_Chemistry_Notes>
This compound has an imine and may undergo hydrolysis. This compound contains an acetal/aminal-like group ( X-CH(R)-Y where X, Y are N, S, or O) that may be acid/base labile, releasing an aldehyde.

> <s_lp_Force_Field>
OPLS_2005

> <r_lp_Energy>
46.5194

> <b_lp_Chiralities_Consistent>
1

> <s_lp_Variant>
AV-unprocessed.smi:157-8

> <Gold.Version>
5.8.1

> <Gold.Id.Protein>
6NUR|6NUR_protein|mol2

> <Gold.PLP.Fitness>
41.2749

> <Gold.PLP.PLP>
-33.4110

> <Gold.PLP.part.hbond>
-3.4980

> <Gold.PLP.part.metal>
0.0000

> <Gold.PLP.part.buried>
-4.2455

> <Gold.PLP.part.nonpolar>
-24.9887

> <Gold.PLP.part.repulsive>
0.1893

> <Gold.PLP.ligand.clash>
0.0000

> <Gold.PLP.ligand.torsion>
0.3387

> <Gold.PLP.Chemscore.Hbond>
2.8432

> <Gold.PLP.Chemscore.CHOScore>
0.0000

> <Gold.PLP.Chemscore.Metal>
0.0000

> <Gold.Chemscore.Hbonds>
donor molecule, donor type, donor heavy atom, donor atom, acceptor molecule, acceptor atom, score
      L1  H     1    24       P1  7948  1.00
      P1  H  7989  7998       L1     4  1.00
      P1  H  7997  8008       L1     8  0.84

> <Gold.PLP.Chemscore.Internal.Correction>
0.0117

> <Gold.Rescore>
     Score         DG    S(hbond)    S(metal)    S(lipo)     H(rot)  DE(clash)    DE(int)     intcor
      8.31      -8.58       1.97        0.00      49.81       3.64       0.16       0.11       ----

> <Gold.Chemscore.Fitness>
8.3132

> <Gold.Chemscore.DG>
-8.5822

> <Gold.Chemscore.ZeroCoef>
-5.4800

> <Gold.Chemscore.Hbond>
1.9710

> <Gold.Chemscore.Metal>
0.0000

> <Gold.Chemscore.Lipo>
49.8088

> <Gold.Chemscore.Internal_Hbond>
0.0000

> <Gold.Chemscore.DEClash>
0.1580

> <Gold.Chemscore.DEInternal>
0.1109

> <Gold.Chemscore.Rot>
3.6362

> <Gold.Chemscore.Internal.Correction>
   9.000000E+99

> <Gold.Chemscore.Hbonds>
donor molecule, donor type, donor heavy atom, donor atom, acceptor molecule, acceptor atom, score
      L1  H     1    24       P1  7948  0.52
      P1  H  7989  7998       L1     4  0.78
      P1  H  7997  8008       L1     8  0.07

> <Gold.Chemscore.Hbond.Weighted>
-6.5833

> <Gold.Chemscore.Metal.Weighted>
-0.0000

> <Gold.Chemscore.Lipo.Weighted>
-5.8276

> <Gold.Chemscore.Internal_Hbond.Weighted>
0.0000

> <Gold.Chemscore.DEClash.Weighted>
0.1580

> <Gold.Chemscore.DEInternal.Weighted>
0.1109

> <Gold.Chemscore.Rot.Weighted>
9.3087

> <Gold.Chemscore.Internal.Correction.Weighted>
   9.000000E+99

> <Gold.Protein.RotatedTorsions>
[ 6907 6896 6895 6894 ] final   17.34 input  -60.11 | X-H torsion
[ 7974 7965 7964 7962 ] final   36.81 input  175.53 | X-H torsion
[ 8008 7997 7996 7995 ] final  -96.65 input   59.86 | X-H torsion
[ 10167 10162 10161 10158 ] final  136.85 input  -65.29 | X-H torsion
[ 10718 10713 10712 10709 ] final  125.21 input   66.30 | X-H torsion
[ 10763 10752 10751 10750 ] final  -82.36 input  -60.55 | X-H torsion
[ 11005 11000 10999 10996 ] final -157.60 input  -57.11 | X-H torsion

> <Gold.Protein.ActiveResidues>
 VAL166  LYS551  ARG553  GLY616  TRP617  ASP618  TYR619  PRO620  LYS621  CYS622 
 ASP623  PHE694  ASN695  SER759  ASP760  ASP761  ALA762  ILE779  LEU786  VAL792 
 PHE793  MET794  SER795  GLU796  ALA797  LYS798  CYS799  TRP800  GLU811  SER814 

> <Gold.Protein.RotatedAtoms>
  151.8480  135.0567  160.0455 H   0  0  0  0  0  0  0  0  0  0  0  0  # atno 6907 bound_to 6896
  152.2758  133.5420  159.5475 H   0  0  0  0  0  0  0  0  0  0  0  0  # atno 6908 bound_to 6896
  150.7169  134.0550  159.3853 H   0  0  0  0  0  0  0  0  0  0  0  0  # atno 6909 bound_to 6896
  146.1184  139.5971  142.9306 H   0  0  0  0  0  0  0  0  0  0  0  0  # atno 7974 bound_to 7965
  154.7772  140.0469  157.1098 H   0  0  0  0  0  0  0  0  0  0  0  0  # atno 8008 bound_to 7997
  154.9748  140.3094  155.4952 H   0  0  0  0  0  0  0  0  0  0  0  0  # atno 8009 bound_to 7997
  156.2931  140.2246  156.4843 H   0  0  0  0  0  0  0  0  0  0  0  0  # atno 8010 bound_to 7997
  139.5165  144.6442  151.5486 H   0  0  0  0  0  0  0  0  0  0  0  0  # atno 10167 bound_to 10162
  157.5522  131.1093  150.8682 H   0  0  0  0  0  0  0  0  0  0  0  0  # atno 10718 bound_to 10713
  154.5748  135.5594  153.7129 H   0  0  0  0  0  0  0  0  0  0  0  0  # atno 10763 bound_to 10752
  153.0061  135.6306  154.2064 H   0  0  0  0  0  0  0  0  0  0  0  0  # atno 10764 bound_to 10752
  154.2004  135.2878  155.2972 H   0  0  0  0  0  0  0  0  0  0  0  0  # atno 10765 bound_to 10752
  140.6628  134.4331  157.5234 H   0  0  0  0  0  0  0  0  0  0  0  0  # atno 11005 bound_to 11000
  145.5518  141.0412  143.2274 LP  0  0  0  0  0  0  0  0  0  0  0  0  # atno 17320 bound_to 7965
  144.7574  139.7041  143.7248 LP  0  0  0  0  0  0  0  0  0  0  0  0  # atno 17321 bound_to 7965
  140.6220  143.9240  150.6534 LP  0  0  0  0  0  0  0  0  0  0  0  0  # atno 17342 bound_to 10162
  140.2516  143.3589  152.1400 LP  0  0  0  0  0  0  0  0  0  0  0  0  # atno 17343 bound_to 10162
  156.9204  130.5313  149.5279 LP  0  0  0  0  0  0  0  0  0  0  0  0  # atno 17370 bound_to 10713
  156.0587  130.5643  150.9146 LP  0  0  0  0  0  0  0  0  0  0  0  0  # atno 17371 bound_to 10713
  139.9007  134.8563  156.1908 LP  0  0  0  0  0  0  0  0  0  0  0  0  # atno 17394 bound_to 11000
  141.0452  133.6917  156.1670 LP  0  0  0  0  0  0  0  0  0  0  0  0  # atno 17395 bound_to 11000

$$$$
