AV-unprocessed.smi:1575|AV-procd|sdf|6339|dock8
  -GOLD-   22720 6553D 1   1.00000     0.00000
 Structure written by MMmdl.
 41 41  0  0  0  0  0  0  0  0  1 V2000
  149.3838  133.3214  153.8730 C   0  0  0  0  0  0  0  0  0  0  0  0
  148.4015  134.3937  153.8414 N   0  0  0  0  0  0  0  0  0  0  0  0
  147.1343  134.2687  154.2613 C   0  0  0  0  0  0  0  0  0  0  0  0
  146.6826  133.2228  154.7311 O   0  0  0  0  0  0  0  0  0  0  0  0
  146.2529  135.5243  154.1468 C   0  0  2  0  0  0  0  0  0  0  0  0
  145.1416  135.2316  153.1106 C   0  0  0  0  0  0  0  0  0  0  0  0
  145.6041  135.2266  151.6349 C   0  0  0  0  0  0  0  0  0  0  0  0
  144.4288  135.3297  150.6481 C   0  0  0  0  0  0  0  0  0  0  0  0
  146.4443  133.9758  151.3366 C   0  0  0  0  0  0  0  0  0  0  0  0
  147.0527  136.6524  153.6702 N   0  0  0  0  0  0  0  0  0  0  0  0
  147.2247  137.8130  154.3209 C   0  0  0  0  0  0  0  0  0  0  0  0
  146.7158  138.0542  155.4165 O   0  0  0  0  0  0  0  0  0  0  0  0
  148.1292  138.8447  153.6335 C   0  0  0  0  0  0  0  0  0  0  0  0
  149.4284  138.9978  154.3033 N   0  0  0  0  0  0  0  0  0  0  0  0
  150.3409  137.9524  154.3115 C   0  0  0  0  0  0  0  0  0  0  0  0
  151.5509  138.0241  154.9154 C   0  0  0  0  0  0  0  0  0  0  0  0
  151.9611  139.2422  155.6057 C   0  0  0  0  0  0  0  0  0  0  0  0
  153.0357  139.4048  156.1792 O   0  0  0  0  0  0  0  0  0  0  0  0
  151.0145  140.2700  155.5778 N   0  0  0  0  0  0  0  0  0  0  0  0
  149.7648  140.2018  154.9599 C   0  0  0  0  0  0  0  0  0  0  0  0
  149.0019  141.1664  154.9994 O   0  0  0  0  0  0  0  0  0  0  0  0
  151.2537  141.1325  156.0448 H   0  0  0  0  0  0  0  0  0  0  0  0
  150.3414  133.6831  153.4988 H   0  0  0  0  0  0  0  0  0  0  0  0
  149.0659  132.4869  153.2467 H   0  0  0  0  0  0  0  0  0  0  0  0
  149.5307  132.9578  154.8908 H   0  0  0  0  0  0  0  0  0  0  0  0
  148.7004  135.2846  153.4722 H   0  0  0  0  0  0  0  0  0  0  0  0
  145.8155  135.7496  155.1208 H   0  0  0  0  0  0  0  0  0  0  0  0
  144.6891  134.2641  153.3368 H   0  0  0  0  0  0  0  0  0  0  0  0
  144.3400  135.9642  153.2201 H   0  0  0  0  0  0  0  0  0  0  0  0
  146.2526  136.0876  151.4690 H   0  0  0  0  0  0  0  0  0  0  0  0
  143.7120  134.5220  150.7989 H   0  0  0  0  0  0  0  0  0  0  0  0
  144.7787  135.2736  149.6169 H   0  0  0  0  0  0  0  0  0  0  0  0
  143.8967  136.2750  150.7519 H   0  0  0  0  0  0  0  0  0  0  0  0
  145.8593  133.0645  151.4663 H   0  0  0  0  0  0  0  0  0  0  0  0
  147.3084  133.9139  151.9986 H   0  0  0  0  0  0  0  0  0  0  0  0
  146.8183  133.9884  150.3124 H   0  0  0  0  0  0  0  0  0  0  0  0
  147.5195  136.5334  152.7830 H   0  0  0  0  0  0  0  0  0  0  0  0
  148.2702  138.5319  152.5981 H   0  0  0  0  0  0  0  0  0  0  0  0
  147.6214  139.8099  153.5755 H   0  0  0  0  0  0  0  0  0  0  0  0
  150.0779  137.0287  153.8157 H   0  0  0  0  0  0  0  0  0  0  0  0
  152.2185  137.1750  154.8882 H   0  0  0  0  0  0  0  0  0  0  0  0
  1  2  1  0  0  0  0
  1 23  1  0  0  0  0
  1 24  1  0  0  0  0
  1 25  1  0  0  0  0
  2  3  1  0  0  0  0
  2 26  1  0  0  0  0
  3  4  2  0  0  0  0
  3  5  1  0  0  0  0
  5  6  1  0  0  0  0
  5 10  1  0  0  0  0
  5 27  1  0  0  0  0
  6  7  1  0  0  0  0
  6 28  1  0  0  0  0
  6 29  1  0  0  0  0
  7  8  1  0  0  0  0
  7  9  1  0  0  0  0
  7 30  1  0  0  0  0
  8 31  1  0  0  0  0
  8 32  1  0  0  0  0
  8 33  1  0  0  0  0
  9 34  1  0  0  0  0
  9 35  1  0  0  0  0
  9 36  1  0  0  0  0
 10 11  1  0  0  0  0
 10 37  1  0  0  0  0
 11 12  2  0  0  0  0
 11 13  1  0  0  0  0
 13 14  1  0  0  0  0
 13 38  1  0  0  0  0
 13 39  1  0  0  0  0
 14 20  1  0  0  0  0
 14 15  1  0  0  0  0
 15 16  2  0  0  0  0
 15 40  1  0  0  0  0
 16 17  1  0  0  0  0
 16 41  1  0  0  0  0
 17 18  2  0  0  0  0
 17 19  1  0  0  0  0
 19 22  1  0  0  0  0
 19 20  1  0  0  0  0
 20 21  2  0  0  0  0
M  END
> <s_m_source_file>
AV-unprocessed.smi

> <i_m_source_file_index>
1575

> <i_lp_mmshare_version>
43012

> <i_f3d_flags>
0

> <s_epik_input>
W0NIM11bTkhdQyg9TylbQ0BIXShbQ0gyXVtDSF0oW0NIM10pW0NIM10pW05IXUMoPU8pW0NIMl1uMVtjSF1bY0hdYyg9TylbbkhdYzE9Tw==

> <s_epik_cmdline>
J2VwaWtfcHl0aG9uJywgJy1waCcsICc3LjAnLCAnLXRuJywgJzgnLCAnLW1hJywgJzIwMCcsICctbWV0YWxfYmluZGluZycsICctaW1hZScsICc8aW5maWxlLm1hZT4nLCAnLW9tYWUnLCAnPG91dGZpbGUubWFlPic=

> <r_lp_tautomer_probability>
0.999537

> <r_epik_Ionization_Penalty>
0.00357166

> <r_epik_Ionization_Penalty_Charging>
0.00357161

> <r_epik_Ionization_Penalty_Neutral>
5.44484e-08

> <r_epik_State_Penalty>
0.00253761

> <r_epik_Charging_Adjusted_Penalty>
0.00610921

> <i_epik_Tot_Q>
0

> <i_epik_Tot_abs_Q>
0

> <r_epik_Metal_State_Penalty>
0.368734

> <b_epik_Metal_Only>
0

> <s_lp_Force_Field>
OPLS_2005

> <r_lp_Energy>
6.26633

> <b_lp_Chiralities_Consistent>
1

> <s_lp_Variant>
AV-unprocessed.smi:1575-1

> <Gold.Version>
5.8.1

> <Gold.Id.Protein>
6NUR|6NUR_protein|mol2

> <Gold.PLP.Fitness>
41.3200

> <Gold.PLP.PLP>
-30.2938

> <Gold.PLP.part.hbond>
-2.7243

> <Gold.PLP.part.metal>
0.0000

> <Gold.PLP.part.buried>
-3.9775

> <Gold.PLP.part.nonpolar>
-24.8640

> <Gold.PLP.part.repulsive>
0.3951

> <Gold.PLP.ligand.clash>
0.0000

> <Gold.PLP.ligand.torsion>
0.4314

> <Gold.PLP.Chemscore.Hbond>
2.8313

> <Gold.PLP.Chemscore.CHOScore>
1.0785

> <Gold.PLP.Chemscore.Metal>
0.0000

> <Gold.Chemscore.Hbonds>
donor molecule, donor type, donor heavy atom, donor atom, acceptor molecule, acceptor atom, score
      L1  H     2    26       P1  7948  0.83
      L1  H    10    37       P1  7948  1.00
      P1  H  7997  8010       L1    18  0.93
      L1  C    15    40       P1  7948  1.00
      L1  C    15    40       P1  7949  0.05

> <Gold.PLP.Chemscore.Internal.Correction>
0.1596

> <Gold.Rescore>
     Score         DG    S(hbond)    S(metal)    S(lipo)     H(rot)  DE(clash)    DE(int)     intcor
     12.13     -12.78       2.66        0.00      47.95       2.81       0.05       0.60       ----

> <Gold.Chemscore.Fitness>
12.1271

> <Gold.Chemscore.DG>
-12.7776

> <Gold.Chemscore.ZeroCoef>
-5.4800

> <Gold.Chemscore.Hbond>
2.6570

> <Gold.Chemscore.Metal>
0.0000

> <Gold.Chemscore.Lipo>
47.9457

> <Gold.Chemscore.Internal_Hbond>
0.0000

> <Gold.Chemscore.DEClash>
0.0456

> <Gold.Chemscore.DEInternal>
0.6049

> <Gold.Chemscore.Rot>
2.8072

> <Gold.Chemscore.Internal.Correction>
   9.000000E+99

> <Gold.Chemscore.Hbonds>
donor molecule, donor type, donor heavy atom, donor atom, acceptor molecule, acceptor atom, score
      L1  H     2    26       P1  7948  0.71
      L1  H    10    37       P1  7948  0.95
      P1  H  7997  8010       L1    18  0.89

> <Gold.Chemscore.Hbond.Weighted>
-8.8744

> <Gold.Chemscore.Metal.Weighted>
-0.0000

> <Gold.Chemscore.Lipo.Weighted>
-5.6096

> <Gold.Chemscore.Internal_Hbond.Weighted>
0.0000

> <Gold.Chemscore.DEClash.Weighted>
0.0456

> <Gold.Chemscore.DEInternal.Weighted>
0.6049

> <Gold.Chemscore.Rot.Weighted>
7.1864

> <Gold.Chemscore.Internal.Correction.Weighted>
   9.000000E+99

> <Gold.Protein.RotatedTorsions>
[ 6907 6896 6895 6894 ] final  133.72 input  -60.11 | X-H torsion
[ 7974 7965 7964 7962 ] final   93.72 input  175.53 | X-H torsion
[ 8008 7997 7996 7995 ] final  100.02 input   59.86 | X-H torsion
[ 10167 10162 10161 10158 ] final  -75.70 input  -65.29 | X-H torsion
[ 10718 10713 10712 10709 ] final  -79.14 input   66.30 | X-H torsion
[ 10763 10752 10751 10750 ] final  -16.05 input  -60.55 | X-H torsion
[ 11005 11000 10999 10996 ] final -161.35 input  -57.11 | X-H torsion

> <Gold.Protein.ActiveResidues>
 VAL166  LYS551  ARG553  GLY616  TRP617  ASP618  TYR619  PRO620  LYS621  CYS622 
 ASP623  PHE694  ASN695  SER759  ASP760  ASP761  ALA762  ILE779  LEU786  VAL792 
 PHE793  MET794  SER795  GLU796  ALA797  LYS798  CYS799  TRP800  GLU811  SER814 

> <Gold.Protein.RotatedAtoms>
  152.3189  133.5832  159.5730 H   0  0  0  0  0  0  0  0  0  0  0  0  # atno 6907 bound_to 6896
  150.7361  134.0041  159.3656 H   0  0  0  0  0  0  0  0  0  0  0  0  # atno 6908 bound_to 6896
  151.7927  135.0732  160.0440 H   0  0  0  0  0  0  0  0  0  0  0  0  # atno 6909 bound_to 6896
  145.4751  139.2280  143.2913 H   0  0  0  0  0  0  0  0  0  0  0  0  # atno 7974 bound_to 7965
  156.1162  140.3220  155.8143 H   0  0  0  0  0  0  0  0  0  0  0  0  # atno 8008 bound_to 7997
  155.4585  140.0537  157.3010 H   0  0  0  0  0  0  0  0  0  0  0  0  # atno 8009 bound_to 7997
  154.4795  140.2046  155.9812 H   0  0  0  0  0  0  0  0  0  0  0  0  # atno 8010 bound_to 7997
  140.4920  143.2378  151.7892 H   0  0  0  0  0  0  0  0  0  0  0  0  # atno 10167 bound_to 10162
  156.0100  130.4537  150.3603 H   0  0  0  0  0  0  0  0  0  0  0  0  # atno 10718 bound_to 10713
  153.5526  135.7011  153.5584 H   0  0  0  0  0  0  0  0  0  0  0  0  # atno 10763 bound_to 10752
  153.3501  135.3997  155.1639 H   0  0  0  0  0  0  0  0  0  0  0  0  # atno 10764 bound_to 10752
  154.8659  135.3763  154.5039 H   0  0  0  0  0  0  0  0  0  0  0  0  # atno 10765 bound_to 10752
  140.6214  134.4747  157.5224 H   0  0  0  0  0  0  0  0  0  0  0  0  # atno 11005 bound_to 11000
  146.2374  140.5533  142.8949 LP  0  0  0  0  0  0  0  0  0  0  0  0  # atno 17320 bound_to 7965
  144.7922  140.6054  143.6534 LP  0  0  0  0  0  0  0  0  0  0  0  0  # atno 17321 bound_to 7965
  139.4853  144.4637  151.9510 LP  0  0  0  0  0  0  0  0  0  0  0  0  # atno 17342 bound_to 10162
  140.3724  144.2839  150.5918 LP  0  0  0  0  0  0  0  0  0  0  0  0  # atno 17343 bound_to 10162
  157.1692  131.0364  151.2804 LP  0  0  0  0  0  0  0  0  0  0  0  0  # atno 17370 bound_to 10713
  157.4244  130.7455  149.6939 LP  0  0  0  0  0  0  0  0  0  0  0  0  # atno 17371 bound_to 10713
  139.9152  134.8261  156.1391 LP  0  0  0  0  0  0  0  0  0  0  0  0  # atno 17394 bound_to 11000
  141.0740  133.6784  156.2198 LP  0  0  0  0  0  0  0  0  0  0  0  0  # atno 17395 bound_to 11000

$$$$
