AV-unprocessed.smi:2201|AV-procd|sdf|8928|dock4
  -GOLD-   2272012143D 1   1.00000     0.00000
 Structure written by MMmdl.
 30 30  0  0  0  0  0  0  0  0  2 V2000
  146.2374  134.4016  159.1886 C   0  0  0  0  0  0  0  0  0  0  0  0
  147.1293  134.9389  160.3324 C   0  0  0  0  0  0  0  0  0  0  0  0
  146.2291  135.7287  161.3106 C   0  0  0  0  0  0  0  0  0  0  0  0
  147.7575  133.7291  161.0613 C   0  0  0  0  0  0  0  0  0  0  0  0
  148.2443  135.8591  159.7600 C   0  0  0  0  0  0  0  0  0  0  0  0
  148.2978  137.0433  160.1016 O   0  0  0  0  0  0  0  0  0  0  0  0
  149.0720  135.2115  158.9003 N   0  5  0  0  0  0  0  0  0  0  0  0
  149.1875  135.6438  157.6355 C   0  0  0  0  0  0  0  0  0  0  0  0
  150.2768  136.2683  157.1748 N   0  0  0  0  0  0  0  0  0  0  0  0
  150.1834  136.6394  155.8301 C   0  0  0  0  0  0  0  0  0  0  0  0
  151.3203  137.3635  155.1648 C   0  0  0  0  0  0  0  0  0  0  0  0
  150.8304  138.5883  154.3836 C   0  0  0  0  0  0  0  0  0  0  0  0
  150.0293  138.3782  153.3344 N   0  0  0  0  0  0  0  0  0  0  0  0
  151.1915  139.7169  154.7112 O   0  0  0  0  0  0  0  0  0  0  0  0
  148.9980  136.2637  155.2519 C   0  0  0  0  0  0  0  0  0  0  0  0
  147.9591  135.4476  156.3844 S   0  0  0  0  0  0  0  0  0  0  0  0
  145.4496  133.7533  159.5732 H   0  0  0  0  0  0  0  0  0  0  0  0
  146.8123  133.8159  158.4698 H   0  0  0  0  0  0  0  0  0  0  0  0
  145.7496  135.2116  158.6442 H   0  0  0  0  0  0  0  0  0  0  0  0
  145.8251  136.6276  160.8429 H   0  0  0  0  0  0  0  0  0  0  0  0
  146.7687  136.0377  162.2068 H   0  0  0  0  0  0  0  0  0  0  0  0
  145.3836  135.1253  161.6418 H   0  0  0  0  0  0  0  0  0  0  0  0
  146.9910  133.0282  161.3930 H   0  0  0  0  0  0  0  0  0  0  0  0
  148.3181  134.0294  161.9473 H   0  0  0  0  0  0  0  0  0  0  0  0
  148.4395  133.1817  160.4094 H   0  0  0  0  0  0  0  0  0  0  0  0
  152.0530  137.6809  155.9081 H   0  0  0  0  0  0  0  0  0  0  0  0
  151.8482  136.7019  154.4774 H   0  0  0  0  0  0  0  0  0  0  0  0
  149.7114  139.1598  152.7796 H   0  0  0  0  0  0  0  0  0  0  0  0
  149.7690  137.4356  153.0836 H   0  0  0  0  0  0  0  0  0  0  0  0
  148.6727  136.4187  154.2344 H   0  0  0  0  0  0  0  0  0  0  0  0
  1  2  1  0  0  0  0
  1 17  1  0  0  0  0
  1 18  1  0  0  0  0
  1 19  1  0  0  0  0
  2  3  1  0  0  0  0
  2  4  1  0  0  0  0
  2  5  1  0  0  0  0
  3 20  1  0  0  0  0
  3 21  1  0  0  0  0
  3 22  1  0  0  0  0
  4 23  1  0  0  0  0
  4 24  1  0  0  0  0
  4 25  1  0  0  0  0
  5  6  2  0  0  0  0
  5  7  1  0  0  0  0
  7  8  1  0  0  0  0
  8 16  1  0  0  0  0
  8  9  2  0  0  0  0
  9 10  1  0  0  0  0
 10 11  1  0  0  0  0
 10 15  2  0  0  0  0
 11 12  1  0  0  0  0
 11 26  1  0  0  0  0
 11 27  1  0  0  0  0
 12 13  1  0  0  0  0
 12 14  2  0  0  0  0
 13 28  1  0  0  0  0
 13 29  1  0  0  0  0
 15 16  1  0  0  0  0
 15 30  1  0  0  0  0
M  CHG  1   7  -1
M  END
> <s_m_source_file>
AV-unprocessed.smi

> <i_m_source_file_index>
2201

> <i_lp_mmshare_version>
43012

> <i_f3d_flags>
0

> <s_epik_input>
W0NIM11DKFtDSDNdKShbQ0gzXSlDKD1PKVtOSF1jMW5jKFtjSF1zMSlbQ0gyXUMoPU8pW05IMl0=

> <s_epik_cmdline>
J2VwaWtfcHl0aG9uJywgJy1waCcsICc3LjAnLCAnLXRuJywgJzgnLCAnLW1hJywgJzIwMCcsICctbWV0YWxfYmluZGluZycsICctaW1hZScsICc8aW5maWxlLm1hZT4nLCAnLW9tYWUnLCAnPG91dGZpbGUubWFlPic=

> <r_lp_tautomer_probability>
1

> <r_epik_Ionization_Penalty>
5.6718

> <r_epik_Ionization_Penalty_Charging>
5.12968

> <r_epik_Ionization_Penalty_Neutral>
0.54212

> <r_epik_State_Penalty>
5.12958

> <r_epik_Charging_Adjusted_Penalty>
10.2593

> <i_epik_Tot_Q>
-1

> <i_epik_Tot_abs_Q>
1

> <r_epik_Metal_State_Penalty>
1.2135

> <b_epik_Metal_Only>
1

> <s_lp_Force_Field>
OPLS_2005

> <r_lp_Energy>
3.19374

> <b_lp_Chiralities_Consistent>
1

> <s_lp_Variant>
AV-unprocessed.smi:2201-2

> <Gold.Version>
5.8.1

> <Gold.Id.Protein>
6NUR|6NUR_protein|mol2

> <Gold.PLP.Fitness>
39.4141

> <Gold.PLP.PLP>
-21.7922

> <Gold.PLP.part.hbond>
-6.2355

> <Gold.PLP.part.metal>
0.0000

> <Gold.PLP.part.buried>
-3.6768

> <Gold.PLP.part.nonpolar>
-11.8426

> <Gold.PLP.part.repulsive>
0.1608

> <Gold.PLP.ligand.clash>
0.0000

> <Gold.PLP.ligand.torsion>
1.3862

> <Gold.PLP.Chemscore.Hbond>
5.7828

> <Gold.PLP.Chemscore.CHOScore>
1.0000

> <Gold.PLP.Chemscore.Metal>
0.0000

> <Gold.Chemscore.Hbonds>
donor molecule, donor type, donor heavy atom, donor atom, acceptor molecule, acceptor atom, score
      L1  H    13    28       P1  7957  0.98
      L1  H    13    29       P1  7948  0.99
      P1  H  6896  6907       L1     7  2.00
      P1  H  6931  6943       L1     6  0.25
      P1  H  6934  6947       L1     6  0.04
      P1  H  7989  7998       L1    14  1.00
      L1  C    15    30       P1  7948  1.00

> <Gold.PLP.Chemscore.Internal.Correction>
0.0457

> <Gold.Rescore>
     Score         DG    S(hbond)    S(metal)    S(lipo)     H(rot)  DE(clash)    DE(int)     intcor
     18.45     -19.84       4.47        0.00      36.28       1.88       0.09       1.30       ----

> <Gold.Chemscore.Fitness>
18.4526

> <Gold.Chemscore.DG>
-19.8411

> <Gold.Chemscore.ZeroCoef>
-5.4800

> <Gold.Chemscore.Hbond>
4.4699

> <Gold.Chemscore.Metal>
0.0000

> <Gold.Chemscore.Lipo>
36.2800

> <Gold.Chemscore.Internal_Hbond>
0.0000

> <Gold.Chemscore.DEClash>
0.0884

> <Gold.Chemscore.DEInternal>
1.3001

> <Gold.Chemscore.Rot>
1.8802

> <Gold.Chemscore.Internal.Correction>
   9.000000E+99

> <Gold.Chemscore.Hbonds>
donor molecule, donor type, donor heavy atom, donor atom, acceptor molecule, acceptor atom, score
      L1  H    13    28       P1  7957  0.90
      L1  H    13    29       P1  7948  0.47
      P1  H  6896  6907       L1     7  0.80
      P1  H  6931  6943       L1     6  0.25
      P1  H  6934  6947       L1     6  0.06
      P1  H  7989  7998       L1    14  0.98

> <Gold.Chemscore.Hbond.Weighted>
-14.9296

> <Gold.Chemscore.Metal.Weighted>
-0.0000

> <Gold.Chemscore.Lipo.Weighted>
-4.2448

> <Gold.Chemscore.Internal_Hbond.Weighted>
0.0000

> <Gold.Chemscore.DEClash.Weighted>
0.0884

> <Gold.Chemscore.DEInternal.Weighted>
1.3001

> <Gold.Chemscore.Rot.Weighted>
4.8132

> <Gold.Chemscore.Internal.Correction.Weighted>
   9.000000E+99

> <Gold.Protein.RotatedTorsions>
[ 6907 6896 6895 6894 ] final  -76.64 input  -60.11 | X-H torsion
[ 7974 7965 7964 7962 ] final   63.16 input  175.53 | X-H torsion
[ 8008 7997 7996 7995 ] final   69.17 input   59.86 | X-H torsion
[ 10167 10162 10161 10158 ] final   47.06 input  -65.29 | X-H torsion
[ 10718 10713 10712 10709 ] final  -40.91 input   66.30 | X-H torsion
[ 10763 10752 10751 10750 ] final -179.79 input  -60.55 | X-H torsion
[ 11005 11000 10999 10996 ] final   60.94 input  -57.11 | X-H torsion

> <Gold.Protein.ActiveResidues>
 VAL166  LYS551  ARG553  GLY616  TRP617  ASP618  TYR619  PRO620  LYS621  CYS622 
 ASP623  PHE694  ASN695  SER759  ASP760  ASP761  ALA762  ILE779  LEU786  VAL792 
 PHE793  MET794  SER795  GLU796  ALA797  LYS798  CYS799  TRP800  GLU811  SER814 

> <Gold.Protein.RotatedAtoms>
  150.7021  134.4541  159.5349 H   0  0  0  0  0  0  0  0  0  0  0  0  # atno 6907 bound_to 6896
  152.2228  134.8394  160.0493 H   0  0  0  0  0  0  0  0  0  0  0  0  # atno 6908 bound_to 6896
  151.9238  133.3557  159.3943 H   0  0  0  0  0  0  0  0  0  0  0  0  # atno 6909 bound_to 6896
  145.8651  139.3340  143.0796 H   0  0  0  0  0  0  0  0  0  0  0  0  # atno 7974 bound_to 7965
  155.7196  140.3493  155.5010 H   0  0  0  0  0  0  0  0  0  0  0  0  # atno 8008 bound_to 7997
  155.9282  140.1079  157.1175 H   0  0  0  0  0  0  0  0  0  0  0  0  # atno 8009 bound_to 7997
  154.4081  140.1236  156.4754 H   0  0  0  0  0  0  0  0  0  0  0  0  # atno 8010 bound_to 7997
  140.3076  144.2860  150.6206 H   0  0  0  0  0  0  0  0  0  0  0  0  # atno 10167 bound_to 10162
  156.2762  130.4212  149.8385 H   0  0  0  0  0  0  0  0  0  0  0  0  # atno 10718 bound_to 10713
  154.5306  135.2799  155.1183 H   0  0  0  0  0  0  0  0  0  0  0  0  # atno 10763 bound_to 10752
  154.2705  135.6304  153.5312 H   0  0  0  0  0  0  0  0  0  0  0  0  # atno 10764 bound_to 10752
  152.9956  135.5627  154.5819 H   0  0  0  0  0  0  0  0  0  0  0  0  # atno 10765 bound_to 10752
  140.0196  134.6172  155.9659 H   0  0  0  0  0  0  0  0  0  0  0  0  # atno 11005 bound_to 11000
  145.9203  140.9120  143.0408 LP  0  0  0  0  0  0  0  0  0  0  0  0  # atno 17320 bound_to 7965
  144.6726  140.1279  143.7445 LP  0  0  0  0  0  0  0  0  0  0  0  0  # atno 17321 bound_to 7965
  140.5597  143.2194  151.7787 LP  0  0  0  0  0  0  0  0  0  0  0  0  # atno 17342 bound_to 10162
  139.4901  144.4366  151.9812 LP  0  0  0  0  0  0  0  0  0  0  0  0  # atno 17343 bound_to 10162
  156.5849  130.8481  151.3393 LP  0  0  0  0  0  0  0  0  0  0  0  0  # atno 17370 bound_to 10713
  157.7300  130.9679  150.1812 LP  0  0  0  0  0  0  0  0  0  0  0  0  # atno 17371 bound_to 10713
  141.1765  133.6541  156.4850 LP  0  0  0  0  0  0  0  0  0  0  0  0  # atno 17394 bound_to 11000
  140.4410  134.7015  157.4991 LP  0  0  0  0  0  0  0  0  0  0  0  0  # atno 17395 bound_to 11000

$$$$
