AV-unprocessed.smi:3278|AV-procd|sdf|12545|dock2
  -GOLD-   2272018463D 1   1.00000     0.00000
 Structure written by MMmdl.
 38 39  0  0  0  0  0  0  0  0  1 V2000
  150.6552  135.3486  154.6696 C   0  0  0  0  0  0  0  0  0  0  0  0
  150.8066  136.7656  154.9219 N   0  0  0  0  0  0  0  0  0  0  0  0
  149.9242  137.7867  154.6442 C   0  0  0  0  0  0  0  0  0  0  0  0
  150.4984  138.9560  155.0617 C   0  0  0  0  0  0  0  0  0  0  0  0
  149.9579  140.3687  154.9842 C   0  0  2  0  0  0  0  0  0  0  0  0
  148.5543  140.4230  155.6106 C   0  0  0  0  0  0  0  0  0  0  0  0
  149.7936  140.8066  153.6482 O   0  0  0  0  0  0  0  0  0  0  0  0
  150.8897  141.3795  155.6898 C   0  0  0  0  0  0  0  0  0  0  0  0
  150.9863  141.1296  157.1310 N   0  0  0  0  0  0  0  0  0  0  0  0
  151.8119  142.0756  157.8867 C   0  0  2  0  0  0  0  0  0  0  0  0
  151.9090  141.6915  159.3818 C   0  0  0  0  0  0  0  0  0  0  0  0
  152.8072  142.6456  160.1866 C   0  0  0  0  0  0  0  0  0  0  0  0
  152.3026  144.0941  160.1621 C   0  0  0  0  0  0  0  0  0  0  0  0
  152.2955  144.7502  158.4736 S   0  0  0  0  0  0  0  0  0  0  0  0
  151.2377  143.4927  157.7072 C   0  0  0  0  0  0  0  0  0  0  0  0
  151.7514  138.5288  155.5917 C   0  0  0  0  0  0  0  0  0  0  0  0
  151.9324  137.2212  155.5068 N   0  0  0  0  0  0  0  0  0  0  0  0
  149.8078  135.1765  154.0054 H   0  0  0  0  0  0  0  0  0  0  0  0
  150.4815  134.8249  155.6099 H   0  0  0  0  0  0  0  0  0  0  0  0
  151.5573  134.9551  154.2001 H   0  0  0  0  0  0  0  0  0  0  0  0
  148.9694  137.6004  154.1746 H   0  0  0  0  0  0  0  0  0  0  0  0
  148.5767  140.1306  156.6609 H   0  0  0  0  0  0  0  0  0  0  0  0
  147.8645  139.7508  155.0982 H   0  0  0  0  0  0  0  0  0  0  0  0
  148.1330  141.4279  155.5614 H   0  0  0  0  0  0  0  0  0  0  0  0
  149.3865  140.1123  153.1533 H   0  0  0  0  0  0  0  0  0  0  0  0
  151.8745  141.3571  155.2235 H   0  0  0  0  0  0  0  0  0  0  0  0
  150.4967  142.3845  155.5314 H   0  0  0  0  0  0  0  0  0  0  0  0
  150.0529  141.0988  157.5295 H   0  0  0  0  0  0  0  0  0  0  0  0
  152.8179  142.0716  157.4643 H   0  0  0  0  0  0  0  0  0  0  0  0
  150.9119  141.6679  159.8238 H   0  0  0  0  0  0  0  0  0  0  0  0
  152.3153  140.6866  159.4918 H   0  0  0  0  0  0  0  0  0  0  0  0
  152.8586  142.3022  161.2202 H   0  0  0  0  0  0  0  0  0  0  0  0
  153.8268  142.6051  159.8016 H   0  0  0  0  0  0  0  0  0  0  0  0
  151.2946  144.1547  160.5736 H   0  0  0  0  0  0  0  0  0  0  0  0
  152.9400  144.7267  160.7804 H   0  0  0  0  0  0  0  0  0  0  0  0
  151.1431  143.7330  156.6474 H   0  0  0  0  0  0  0  0  0  0  0  0
  150.2380  143.5599  158.1388 H   0  0  0  0  0  0  0  0  0  0  0  0
  152.5325  139.1311  156.0316 H   0  0  0  0  0  0  0  0  0  0  0  0
  1  2  1  0  0  0  0
  1 18  1  0  0  0  0
  1 19  1  0  0  0  0
  1 20  1  0  0  0  0
  2 17  1  0  0  0  0
  2  3  1  0  0  0  0
  3  4  2  0  0  0  0
  3 21  1  0  0  0  0
  4  5  1  0  0  0  0
  4 16  1  0  0  0  0
  5  6  1  0  0  0  0
  5  7  1  0  0  0  0
  5  8  1  0  0  0  0
  6 22  1  0  0  0  0
  6 23  1  0  0  0  0
  6 24  1  0  0  0  0
  7 25  1  0  0  0  0
  8  9  1  0  0  0  0
  8 26  1  0  0  0  0
  8 27  1  0  0  0  0
  9 10  1  0  0  0  0
  9 28  1  0  0  0  0
 10 15  1  0  0  0  0
 10 11  1  0  0  0  0
 10 29  1  0  0  0  0
 11 12  1  0  0  0  0
 11 30  1  0  0  0  0
 11 31  1  0  0  0  0
 12 13  1  0  0  0  0
 12 32  1  0  0  0  0
 12 33  1  0  0  0  0
 13 14  1  0  0  0  0
 13 34  1  0  0  0  0
 13 35  1  0  0  0  0
 14 15  1  0  0  0  0
 15 36  1  0  0  0  0
 15 37  1  0  0  0  0
 16 17  2  0  0  0  0
 16 38  1  0  0  0  0
M  END
> <s_m_source_file>
AV-unprocessed.smi

> <i_m_source_file_index>
3278

> <i_lp_mmshare_version>
43012

> <i_f3d_flags>
0

> <s_epik_input>
W0NIM11uMVtjSF1jKFtjSF1uMSlbQ0BAXShbQ0gzXSkoW09IXSlbQ0gyXVtOSF1bQ0BASF0yW0NIMl1bQ0gyXVtDSDJdU1tDSDJdMg==

> <s_epik_cmdline>
J2VwaWtfcHl0aG9uJywgJy1waCcsICc3LjAnLCAnLXRuJywgJzgnLCAnLW1hJywgJzIwMCcsICctbWV0YWxfYmluZGluZycsICctaW1hZScsICc8aW5maWxlLm1hZT4nLCAnLW9tYWUnLCAnPG91dGZpbGUubWFlPic=

> <r_lp_tautomer_probability>
1

> <r_epik_Ionization_Penalty>
2.06123

> <r_epik_Ionization_Penalty_Charging>
0

> <r_epik_Ionization_Penalty_Neutral>
2.06123

> <r_epik_State_Penalty>
2.1944

> <r_epik_Charging_Adjusted_Penalty>
2.1944

> <i_epik_Tot_Q>
0

> <i_epik_Tot_abs_Q>
0

> <r_epik_Metal_State_Penalty>
2.19434

> <b_epik_Metal_Only>
0

> <s_lp_Force_Field>
OPLS_2005

> <r_lp_Energy>
11.3172

> <b_lp_Chiralities_Consistent>
1

> <s_lp_Variant>
AV-unprocessed.smi:3278-6

> <Gold.Version>
5.8.1

> <Gold.Id.Protein>
6NUR|6NUR_protein|mol2

> <Gold.PLP.Fitness>
44.2449

> <Gold.PLP.PLP>
-36.9209

> <Gold.PLP.part.hbond>
-3.8356

> <Gold.PLP.part.metal>
0.0000

> <Gold.PLP.part.buried>
-2.3589

> <Gold.PLP.part.nonpolar>
-29.5444

> <Gold.PLP.part.repulsive>
0.0495

> <Gold.PLP.ligand.clash>
0.0000

> <Gold.PLP.ligand.torsion>
0.1248

> <Gold.PLP.Chemscore.Hbond>
2.1189

> <Gold.PLP.Chemscore.CHOScore>
0.3922

> <Gold.PLP.Chemscore.Metal>
0.0000

> <Gold.Chemscore.Hbonds>
donor molecule, donor type, donor heavy atom, donor atom, acceptor molecule, acceptor atom, score
      L1  H     7    25       P1  7957  0.40
      P1  H  7989  7998       L1     7  0.21
      P1  H  8011  8017       L1     7  0.89
      P1  H 10752 10765       L1    17  0.46
      L1  C     3    21       P1  7948  0.48

> <Gold.PLP.Chemscore.Internal.Correction>
0.0405

> <Gold.Rescore>
     Score         DG    S(hbond)    S(metal)    S(lipo)     H(rot)  DE(clash)    DE(int)     intcor
     15.56     -16.02       0.70        0.00     112.32       1.93       0.40       0.06       ----

> <Gold.Chemscore.Fitness>
15.5583

> <Gold.Chemscore.DG>
-16.0162

> <Gold.Chemscore.ZeroCoef>
-5.4800

> <Gold.Chemscore.Hbond>
0.7014

> <Gold.Chemscore.Metal>
0.0000

> <Gold.Chemscore.Lipo>
112.3233

> <Gold.Chemscore.Internal_Hbond>
0.0000

> <Gold.Chemscore.DEClash>
0.3961

> <Gold.Chemscore.DEInternal>
0.0618

> <Gold.Chemscore.Rot>
1.9329

> <Gold.Chemscore.Internal.Correction>
   9.000000E+99

> <Gold.Chemscore.Hbonds>
donor molecule, donor type, donor heavy atom, donor atom, acceptor molecule, acceptor atom, score
      L1  H     7    25       P1  7957  0.38
      P1  H  7989  7998       L1     7  0.01
      P1  H  8011  8017       L1     7  0.38
      P1  H 10752 10765       L1    17  0.03

> <Gold.Chemscore.Hbond.Weighted>
-2.3426

> <Gold.Chemscore.Metal.Weighted>
-0.0000

> <Gold.Chemscore.Lipo.Weighted>
-13.1418

> <Gold.Chemscore.Internal_Hbond.Weighted>
0.0000

> <Gold.Chemscore.DEClash.Weighted>
0.3961

> <Gold.Chemscore.DEInternal.Weighted>
0.0618

> <Gold.Chemscore.Rot.Weighted>
4.9483

> <Gold.Chemscore.Internal.Correction.Weighted>
   9.000000E+99

> <Gold.Protein.RotatedTorsions>
[ 6907 6896 6895 6894 ] final -127.65 input  -60.11 | X-H torsion
[ 7974 7965 7964 7962 ] final   34.21 input  175.53 | X-H torsion
[ 8008 7997 7996 7995 ] final   72.42 input   59.86 | X-H torsion
[ 10167 10162 10161 10158 ] final -113.17 input  -65.29 | X-H torsion
[ 10718 10713 10712 10709 ] final   80.14 input   66.30 | X-H torsion
[ 10763 10752 10751 10750 ] final -162.73 input  -60.55 | X-H torsion
[ 11005 11000 10999 10996 ] final   24.87 input  -57.11 | X-H torsion

> <Gold.Protein.ActiveResidues>
 VAL166  LYS551  ARG553  GLY616  TRP617  ASP618  TYR619  PRO620  LYS621  CYS622 
 ASP623  PHE694  ASN695  SER759  ASP760  ASP761  ALA762  ILE779  LEU786  VAL792 
 PHE793  MET794  SER795  GLU796  ALA797  LYS798  CYS799  TRP800  GLU811  SER814 

> <Gold.Protein.RotatedAtoms>
  150.9096  133.7015  159.2857 H   0  0  0  0  0  0  0  0  0  0  0  0  # atno 6907 bound_to 6896
  151.4506  135.1028  159.9706 H   0  0  0  0  0  0  0  0  0  0  0  0  # atno 6908 bound_to 6896
  152.4922  133.8482  159.7243 H   0  0  0  0  0  0  0  0  0  0  0  0  # atno 6909 bound_to 6896
  146.1368  139.6298  142.9190 H   0  0  0  0  0  0  0  0  0  0  0  0  # atno 7974 bound_to 7965
  155.7685  140.3485  155.5235 H   0  0  0  0  0  0  0  0  0  0  0  0  # atno 8008 bound_to 7997
  155.8845  140.1007  157.1483 H   0  0  0  0  0  0  0  0  0  0  0  0  # atno 8009 bound_to 7997
  154.4027  140.1316  156.4225 H   0  0  0  0  0  0  0  0  0  0  0  0  # atno 8010 bound_to 7997
  140.1147  143.4496  152.1730 H   0  0  0  0  0  0  0  0  0  0  0  0  # atno 10167 bound_to 10162
  157.6797  130.9946  150.2035 H   0  0  0  0  0  0  0  0  0  0  0  0  # atno 10718 bound_to 10713
  154.7188  135.3021  154.9081 H   0  0  0  0  0  0  0  0  0  0  0  0  # atno 10763 bound_to 10752
  153.9960  135.6713  153.4760 H   0  0  0  0  0  0  0  0  0  0  0  0  # atno 10764 bound_to 10752
  153.0816  135.5006  154.8430 H   0  0  0  0  0  0  0  0  0  0  0  0  # atno 10765 bound_to 10752
  140.3540  134.2197  155.7677 H   0  0  0  0  0  0  0  0  0  0  0  0  # atno 11005 bound_to 11000
  145.5137  141.0434  143.2473 LP  0  0  0  0  0  0  0  0  0  0  0  0  # atno 17320 bound_to 7965
  144.7749  139.6653  143.7179 LP  0  0  0  0  0  0  0  0  0  0  0  0  # atno 17321 bound_to 7965
  139.5600  144.7399  151.4182 LP  0  0  0  0  0  0  0  0  0  0  0  0  # atno 17342 bound_to 10162
  140.6906  143.7871  150.7249 LP  0  0  0  0  0  0  0  0  0  0  0  0  # atno 17343 bound_to 10162
  156.2721  130.3723  149.8021 LP  0  0  0  0  0  0  0  0  0  0  0  0  # atno 17370 bound_to 10713
  156.5735  130.8435  151.3363 LP  0  0  0  0  0  0  0  0  0  0  0  0  # atno 17371 bound_to 10713
  141.2004  133.7989  157.0493 LP  0  0  0  0  0  0  0  0  0  0  0  0  # atno 17394 bound_to 11000
  140.0680  134.9718  157.1418 LP  0  0  0  0  0  0  0  0  0  0  0  0  # atno 17395 bound_to 11000

$$$$
