AV-unprocessed.smi:3350|AV-procd|sdf|12942|dock8
  -GOLD-   2272019373D 1   1.00000     0.00000
 Structure written by MMmdl.
 41 42  0  0  0  0  0  0  0  0  1 V2000
  150.8751  135.9206  156.1046 C   0  0  0  0  0  0  0  0  0  0  0  0
  149.8826  136.8967  155.4589 C   0  0  1  0  0  0  0  0  0  0  0  0
  150.6133  138.0756  154.7831 C   0  0  0  0  0  0  0  0  0  0  0  0
  149.7432  139.2154  154.5513 N   0  0  0  0  0  0  0  0  0  0  0  0
  148.5367  139.2506  153.8844 C   0  0  0  0  0  0  0  0  0  0  0  0
  148.0930  140.5414  153.9154 C   0  0  0  0  0  0  0  0  0  0  0  0
  149.1092  141.2309  154.6343 C   0  0  0  0  0  0  0  0  0  0  0  0
  150.0941  140.4343  155.0163 N   0  0  0  0  0  0  0  0  0  0  0  0
  149.0622  136.1684  154.4920 N   0  0  0  0  0  0  0  0  0  0  0  0
  148.0407  135.3529  154.7916 C   0  0  0  0  0  0  0  0  0  0  0  0
  147.6650  135.1065  155.9379 O   0  0  0  0  0  0  0  0  0  0  0  0
  147.4751  134.8453  153.6875 N   0  0  0  0  0  0  0  0  0  0  0  0
  146.3365  133.9306  153.6599 C   0  0  1  0  0  0  0  0  0  0  0  0
  145.2017  134.5439  154.4946 C   0  0  0  0  0  0  0  0  0  0  0  0
  145.9118  133.6634  152.2008 C   0  0  2  0  0  0  0  0  0  0  0  0
  145.4322  134.9000  151.4375 C   0  0  0  0  0  0  0  0  0  0  0  0
  144.5003  134.3357  150.3752 C   0  0  0  0  0  0  0  0  0  0  0  0
  144.2561  132.8924  150.8221 C   0  0  0  0  0  0  0  0  0  0  0  0
  144.7644  132.8288  152.1463 O   0  0  0  0  0  0  0  0  0  0  0  0
  151.4809  136.4204  156.8609 H   0  0  0  0  0  0  0  0  0  0  0  0
  151.5532  135.4948  155.3642 H   0  0  0  0  0  0  0  0  0  0  0  0
  150.3542  135.0963  156.5931 H   0  0  0  0  0  0  0  0  0  0  0  0
  149.2531  137.2905  156.2592 H   0  0  0  0  0  0  0  0  0  0  0  0
  151.4382  138.4122  155.4122 H   0  0  0  0  0  0  0  0  0  0  0  0
  151.0552  137.7611  153.8360 H   0  0  0  0  0  0  0  0  0  0  0  0
  148.1024  138.3651  153.4441 H   0  0  0  0  0  0  0  0  0  0  0  0
  147.1822  140.9339  153.4882 H   0  0  0  0  0  0  0  0  0  0  0  0
  149.1593  142.2789  154.8899 H   0  0  0  0  0  0  0  0  0  0  0  0
  149.2839  136.3070  153.5171 H   0  0  0  0  0  0  0  0  0  0  0  0
  147.8612  135.1122  152.7939 H   0  0  0  0  0  0  0  0  0  0  0  0
  146.6144  132.9834  154.1260 H   0  0  0  0  0  0  0  0  0  0  0  0
  144.3476  133.8697  154.5613 H   0  0  0  0  0  0  0  0  0  0  0  0
  144.8521  135.4819  154.0621 H   0  0  0  0  0  0  0  0  0  0  0  0
  145.5323  134.7494  155.5133 H   0  0  0  0  0  0  0  0  0  0  0  0
  146.7223  133.1807  151.6506 H   0  0  0  0  0  0  0  0  0  0  0  0
  144.8687  135.5574  152.1012 H   0  0  0  0  0  0  0  0  0  0  0  0
  146.2549  135.4764  151.0135 H   0  0  0  0  0  0  0  0  0  0  0  0
  143.5716  134.9057  150.3342 H   0  0  0  0  0  0  0  0  0  0  0  0
  144.9543  134.3621  149.3841 H   0  0  0  0  0  0  0  0  0  0  0  0
  143.2022  132.6151  150.7894 H   0  0  0  0  0  0  0  0  0  0  0  0
  144.8115  132.1962  150.1918 H   0  0  0  0  0  0  0  0  0  0  0  0
  1  2  1  0  0  0  0
  1 20  1  0  0  0  0
  1 21  1  0  0  0  0
  1 22  1  0  0  0  0
  2  3  1  0  0  0  0
  2  9  1  0  0  0  0
  2 23  1  0  0  0  0
  3  4  1  0  0  0  0
  3 24  1  0  0  0  0
  3 25  1  0  0  0  0
  4  8  1  0  0  0  0
  4  5  1  0  0  0  0
  5  6  2  0  0  0  0
  5 26  1  0  0  0  0
  6  7  1  0  0  0  0
  6 27  1  0  0  0  0
  7  8  2  0  0  0  0
  7 28  1  0  0  0  0
  9 10  1  0  0  0  0
  9 29  1  0  0  0  0
 10 11  2  0  0  0  0
 10 12  1  0  0  0  0
 12 13  1  0  0  0  0
 12 30  1  0  0  0  0
 13 14  1  0  0  0  0
 13 15  1  0  0  0  0
 13 31  1  0  0  0  0
 14 32  1  0  0  0  0
 14 33  1  0  0  0  0
 14 34  1  0  0  0  0
 15 19  1  0  0  0  0
 15 16  1  0  0  0  0
 15 35  1  0  0  0  0
 16 17  1  0  0  0  0
 16 36  1  0  0  0  0
 16 37  1  0  0  0  0
 17 18  1  0  0  0  0
 17 38  1  0  0  0  0
 17 39  1  0  0  0  0
 18 19  1  0  0  0  0
 18 40  1  0  0  0  0
 18 41  1  0  0  0  0
M  END
> <s_m_source_file>
AV-unprocessed.smi

> <i_m_source_file_index>
3350

> <i_lp_mmshare_version>
43012

> <i_f3d_flags>
0

> <s_epik_input>
bjFbY0hdW2NIXVtjSF1uMVtDSDJdW0NAQEhdKFtDSDNdKVtOSF1DKD1PKVtOSF1bQ0BIXShbQ0gzXSlbQ0BASF0yW0NIMl1bQ0gyXVtDSDJdTzI=

> <s_epik_cmdline>
J2VwaWtfcHl0aG9uJywgJy1waCcsICc3LjAnLCAnLXRuJywgJzgnLCAnLW1hJywgJzIwMCcsICctbWV0YWxfYmluZGluZycsICctaW1hZScsICc8aW5maWxlLm1hZT4nLCAnLW9tYWUnLCAnPG91dGZpbGUubWFlPic=

> <r_lp_tautomer_probability>
1

> <r_epik_Ionization_Penalty>
6.42349e-05

> <r_epik_Ionization_Penalty_Charging>
0

> <r_epik_Ionization_Penalty_Neutral>
6.42349e-05

> <r_epik_State_Penalty>
-0

> <r_epik_Charging_Adjusted_Penalty>
0

> <i_epik_Tot_Q>
0

> <i_epik_Tot_abs_Q>
0

> <r_epik_Metal_State_Penalty>
-0

> <b_epik_Metal_Only>
0

> <s_lp_Force_Field>
OPLS_2005

> <r_lp_Energy>
15.8996

> <b_lp_Chiralities_Consistent>
1

> <s_lp_Variant>
AV-unprocessed.smi:3350-4

> <Gold.Version>
5.8.1

> <Gold.Id.Protein>
6NUR|6NUR_protein|mol2

> <Gold.PLP.Fitness>
39.8620

> <Gold.PLP.PLP>
-27.9505

> <Gold.PLP.part.hbond>
-2.9770

> <Gold.PLP.part.metal>
0.0000

> <Gold.PLP.part.buried>
-0.4924

> <Gold.PLP.part.nonpolar>
-24.6032

> <Gold.PLP.part.repulsive>
0.2440

> <Gold.PLP.ligand.clash>
0.0000

> <Gold.PLP.ligand.torsion>
0.4838

> <Gold.PLP.Chemscore.Hbond>
2.9200

> <Gold.PLP.Chemscore.CHOScore>
1.3491

> <Gold.PLP.Chemscore.Metal>
0.0000

> <Gold.Chemscore.Hbonds>
donor molecule, donor type, donor heavy atom, donor atom, acceptor molecule, acceptor atom, score
      L1  H     9    29       P1  7948  1.00
      L1  H    12    30       P1  7948  0.98
      P1  H  7989  7998       L1     8  0.49
      L1  C     5    26       P1  7948  0.39
      L1  C     7    28       P1  8028  0.92

> <Gold.PLP.Chemscore.Internal.Correction>
0.0718

> <Gold.Rescore>
     Score         DG    S(hbond)    S(metal)    S(lipo)     H(rot)  DE(clash)    DE(int)     intcor
     12.94     -14.31       1.90        0.00      61.06       1.82       0.01       1.37       ----

> <Gold.Chemscore.Fitness>
12.9397

> <Gold.Chemscore.DG>
-14.3149

> <Gold.Chemscore.ZeroCoef>
-5.4800

> <Gold.Chemscore.Hbond>
1.9010

> <Gold.Chemscore.Metal>
0.0000

> <Gold.Chemscore.Lipo>
61.0595

> <Gold.Chemscore.Internal_Hbond>
0.0000

> <Gold.Chemscore.DEClash>
0.0069

> <Gold.Chemscore.DEInternal>
1.3683

> <Gold.Chemscore.Rot>
1.8197

> <Gold.Chemscore.Internal.Correction>
   9.000000E+99

> <Gold.Chemscore.Hbonds>
donor molecule, donor type, donor heavy atom, donor atom, acceptor molecule, acceptor atom, score
      L1  H     9    29       P1  7948  0.86
      L1  H    12    30       P1  7948  0.92
      P1  H  7989  7998       L1     8  0.02

> <Gold.Chemscore.Hbond.Weighted>
-6.3493

> <Gold.Chemscore.Metal.Weighted>
-0.0000

> <Gold.Chemscore.Lipo.Weighted>
-7.1440

> <Gold.Chemscore.Internal_Hbond.Weighted>
0.0000

> <Gold.Chemscore.DEClash.Weighted>
0.0069

> <Gold.Chemscore.DEInternal.Weighted>
1.3683

> <Gold.Chemscore.Rot.Weighted>
4.6583

> <Gold.Chemscore.Internal.Correction.Weighted>
   9.000000E+99

> <Gold.Protein.RotatedTorsions>
[ 6907 6896 6895 6894 ] final   39.86 input  -60.11 | X-H torsion
[ 7974 7965 7964 7962 ] final  116.63 input  175.53 | X-H torsion
[ 8008 7997 7996 7995 ] final  160.75 input   59.86 | X-H torsion
[ 10167 10162 10161 10158 ] final   -2.55 input  -65.29 | X-H torsion
[ 10718 10713 10712 10709 ] final   94.03 input   66.30 | X-H torsion
[ 10763 10752 10751 10750 ] final -118.66 input  -60.55 | X-H torsion
[ 11005 11000 10999 10996 ] final    6.78 input  -57.11 | X-H torsion

> <Gold.Protein.ActiveResidues>
 VAL166  LYS551  ARG553  GLY616  TRP617  ASP618  TYR619  PRO620  LYS621  CYS622 
 ASP623  PHE694  ASN695  SER759  ASP760  ASP761  ALA762  ILE779  LEU786  VAL792 
 PHE793  MET794  SER795  GLU796  ALA797  LYS798  CYS799  TRP800  GLU811  SER814 

> <Gold.Protein.RotatedAtoms>
  152.1751  134.8801  160.0530 H   0  0  0  0  0  0  0  0  0  0  0  0  # atno 6907 bound_to 6896
  151.9747  133.3732  159.4092 H   0  0  0  0  0  0  0  0  0  0  0  0  # atno 6908 bound_to 6896
  150.6908  134.4026  159.5169 H   0  0  0  0  0  0  0  0  0  0  0  0  # atno 6909 bound_to 6896
  145.1773  139.3069  143.4436 H   0  0  0  0  0  0  0  0  0  0  0  0  # atno 7974 bound_to 7965
  156.2151  140.1796  156.7608 H   0  0  0  0  0  0  0  0  0  0  0  0  # atno 8008 bound_to 7997
  154.5779  140.0671  156.9090 H   0  0  0  0  0  0  0  0  0  0  0  0  # atno 8009 bound_to 7997
  155.2555  140.3332  155.4280 H   0  0  0  0  0  0  0  0  0  0  0  0  # atno 8010 bound_to 7997
  140.6855  143.6644  150.8239 H   0  0  0  0  0  0  0  0  0  0  0  0  # atno 10167 bound_to 10162
  157.6951  131.0498  150.4124 H   0  0  0  0  0  0  0  0  0  0  0  0  # atno 10718 bound_to 10713
  154.8594  135.4266  154.2175 H   0  0  0  0  0  0  0  0  0  0  0  0  # atno 10763 bound_to 10752
  153.3187  135.6980  153.7056 H   0  0  0  0  0  0  0  0  0  0  0  0  # atno 10764 bound_to 10752
  153.6119  135.3518  155.2955 H   0  0  0  0  0  0  0  0  0  0  0  0  # atno 10765 bound_to 10752
  140.5556  134.0241  155.7953 H   0  0  0  0  0  0  0  0  0  0  0  0  # atno 11005 bound_to 11000
  146.3459  140.1940  142.8589 LP  0  0  0  0  0  0  0  0  0  0  0  0  # atno 17320 bound_to 7965
  145.0172  140.8763  143.5188 LP  0  0  0  0  0  0  0  0  0  0  0  0  # atno 17321 bound_to 7965
  140.0350  143.5404  152.2743 LP  0  0  0  0  0  0  0  0  0  0  0  0  # atno 17342 bound_to 10162
  139.6211  144.7629  151.2739 LP  0  0  0  0  0  0  0  0  0  0  0  0  # atno 17343 bound_to 10162
  156.4507  130.4011  149.6638 LP  0  0  0  0  0  0  0  0  0  0  0  0  # atno 17370 bound_to 10713
  156.3788  130.7568  151.2559 LP  0  0  0  0  0  0  0  0  0  0  0  0  # atno 17371 bound_to 10713
  141.1145  133.9562  157.2848 LP  0  0  0  0  0  0  0  0  0  0  0  0  # atno 17394 bound_to 11000
  139.9433  135.0188  156.8776 LP  0  0  0  0  0  0  0  0  0  0  0  0  # atno 17395 bound_to 11000

$$$$
