AV-unprocessed.smi:117|AV-procd|sdf|1129|dock8
  -GOLD-   2262018253D 1   1.00000     0.00000
 Structure written by MMmdl.
 53 55  0  0  0  0  0  0  0  0  1 V2000
  152.6049  144.5367  159.4863 C   0  0  0  0  0  0  0  0  0  0  0  0
  152.7799  143.0356  159.6464 C   0  0  0  0  0  0  0  0  0  0  0  0
  153.7022  142.5673  160.6041 C   0  0  0  0  0  0  0  0  0  0  0  0
  153.9170  141.1898  160.7711 C   0  0  0  0  0  0  0  0  0  0  0  0
  153.2082  140.2678  159.9828 C   0  0  0  0  0  0  0  0  0  0  0  0
  152.2612  140.7147  159.0298 C   0  0  0  0  0  0  0  0  0  0  0  0
  151.5502  139.8086  158.1903 N   0  0  0  0  0  0  0  0  0  0  0  0
  151.3869  138.4787  158.3202 C   0  0  0  0  0  0  0  0  0  0  0  0
  151.8498  137.8033  159.2404 O   0  0  0  0  0  0  0  0  0  0  0  0
  150.5417  137.8239  157.2185 C   0  0  0  0  0  0  0  0  0  0  0  0
  149.2623  137.2967  157.6890 N   0  0  0  0  0  0  0  0  0  0  0  0
  148.9671  135.9969  157.8470 C   0  0  0  0  0  0  0  0  0  0  0  0
  149.7692  135.0912  157.6163 O   0  0  0  0  0  0  0  0  0  0  0  0
  147.5520  135.6888  158.3593 C   0  0  0  0  0  0  0  0  0  0  0  0
  147.5388  134.9615  159.6475 N   0  0  0  0  0  0  0  0  0  0  0  0
  147.7402  135.7011  160.8394 C   0  0  0  0  0  0  0  0  0  0  0  0
  147.9347  136.9172  160.8112 O   0  0  0  0  0  0  0  0  0  0  0  0
  147.6909  134.9289  162.0755 C   0  0  0  0  0  0  0  0  0  0  0  0
  147.8610  135.5487  163.2557 F   0  0  0  0  0  0  0  0  0  0  0  0
  147.4743  133.5979  162.0542 C   0  0  0  0  0  0  0  0  0  0  0  0
  147.2984  132.8849  160.8849 N   0  0  0  0  0  0  0  0  0  0  0  0
  147.0071  131.4039  160.9611 C   0  0  2  0  0  0  0  0  0  0  0  0
  147.8248  130.5610  159.9642 C   0  0  0  0  0  0  0  0  0  0  0  0
  146.7499  129.8645  159.1459 C   0  0  0  0  0  0  0  0  0  0  0  0
  145.5305  129.9328  160.0587 C   0  0  0  0  0  0  0  0  0  0  0  0
  145.6565  131.2020  160.6803 O   0  0  0  0  0  0  0  0  0  0  0  0
  147.2970  133.5664  159.6455 C   0  0  0  0  0  0  0  0  0  0  0  0
  147.0837  132.9657  158.5912 O   0  0  0  0  0  0  0  0  0  0  0  0
  152.0487  142.1091  158.8556 C   0  0  0  0  0  0  0  0  0  0  0  0
  151.0447  142.5979  157.8137 C   0  0  0  0  0  0  0  0  0  0  0  0
  153.3268  145.0886  160.0891 H   0  0  0  0  0  0  0  0  0  0  0  0
  151.6069  144.8407  159.8026 H   0  0  0  0  0  0  0  0  0  0  0  0
  152.7496  144.8319  158.4467 H   0  0  0  0  0  0  0  0  0  0  0  0
  154.2601  143.2654  161.2113 H   0  0  0  0  0  0  0  0  0  0  0  0
  154.6354  140.8387  161.4972 H   0  0  0  0  0  0  0  0  0  0  0  0
  153.4227  139.2190  160.1168 H   0  0  0  0  0  0  0  0  0  0  0  0
  151.0366  140.2386  157.4350 H   0  0  0  0  0  0  0  0  0  0  0  0
  150.3786  138.5401  156.4112 H   0  0  0  0  0  0  0  0  0  0  0  0
  151.1093  136.9970  156.7912 H   0  0  0  0  0  0  0  0  0  0  0  0
  148.5426  137.9729  157.8974 H   0  0  0  0  0  0  0  0  0  0  0  0
  147.0048  136.6299  158.4275 H   0  0  0  0  0  0  0  0  0  0  0  0
  147.0106  135.1248  157.5978 H   0  0  0  0  0  0  0  0  0  0  0  0
  147.4418  133.0740  162.9983 H   0  0  0  0  0  0  0  0  0  0  0  0
  147.2056  131.1107  161.9932 H   0  0  0  0  0  0  0  0  0  0  0  0
  148.4988  131.1658  159.3569 H   0  0  0  0  0  0  0  0  0  0  0  0
  148.4193  129.8395  160.5257 H   0  0  0  0  0  0  0  0  0  0  0  0
  146.5578  130.4192  158.2272 H   0  0  0  0  0  0  0  0  0  0  0  0
  147.0177  128.8439  158.8724 H   0  0  0  0  0  0  0  0  0  0  0  0
  144.5905  129.8433  159.5141 H   0  0  0  0  0  0  0  0  0  0  0  0
  145.5675  129.1497  160.8177 H   0  0  0  0  0  0  0  0  0  0  0  0
  150.1479  141.9779  157.8094 H   0  0  0  0  0  0  0  0  0  0  0  0
  151.4913  142.5589  156.8200 H   0  0  0  0  0  0  0  0  0  0  0  0
  150.7076  143.6173  157.9926 H   0  0  0  0  0  0  0  0  0  0  0  0
  1  2  1  0  0  0  0
  1 31  1  0  0  0  0
  1 32  1  0  0  0  0
  1 33  1  0  0  0  0
  2 29  1  0  0  0  0
  2  3  2  0  0  0  0
  3  4  1  0  0  0  0
  3 34  1  0  0  0  0
  4  5  2  0  0  0  0
  4 35  1  0  0  0  0
  5  6  1  0  0  0  0
  5 36  1  0  0  0  0
  6  7  1  0  0  0  0
  6 29  2  0  0  0  0
  7  8  1  0  0  0  0
  7 37  1  0  0  0  0
  8  9  2  0  0  0  0
  8 10  1  0  0  0  0
 10 11  1  0  0  0  0
 10 38  1  0  0  0  0
 10 39  1  0  0  0  0
 11 12  1  0  0  0  0
 11 40  1  0  0  0  0
 12 13  2  0  0  0  0
 12 14  1  0  0  0  0
 14 15  1  0  0  0  0
 14 41  1  0  0  0  0
 14 42  1  0  0  0  0
 15 27  1  0  0  0  0
 15 16  1  0  0  0  0
 16 17  2  0  0  0  0
 16 18  1  0  0  0  0
 18 19  1  0  0  0  0
 18 20  2  0  0  0  0
 20 21  1  0  0  0  0
 20 43  1  0  0  0  0
 21 22  1  0  0  0  0
 21 27  1  0  0  0  0
 22 26  1  0  0  0  0
 22 23  1  0  0  0  0
 22 44  1  0  0  0  0
 23 24  1  0  0  0  0
 23 45  1  0  0  0  0
 23 46  1  0  0  0  0
 24 25  1  0  0  0  0
 24 47  1  0  0  0  0
 24 48  1  0  0  0  0
 25 26  1  0  0  0  0
 25 49  1  0  0  0  0
 25 50  1  0  0  0  0
 27 28  2  0  0  0  0
 29 30  1  0  0  0  0
 30 51  1  0  0  0  0
 30 52  1  0  0  0  0
 30 53  1  0  0  0  0
M  END
> <s_m_source_file>
AV-unprocessed.smi

> <i_m_source_file_index>
117

> <i_lp_mmshare_version>
43012

> <i_f3d_flags>
0

> <s_epik_input>
W0NIM11jMVtjSF1bY0hdW2NIXWMoYzFbQ0gzXSlbTkhdQyg9TylbQ0gyXVtOSF1DKD1PKVtDSDJdbjJjKD1PKWMoRilbY0hdbihjMj1PKVtDQEBIXTNbQ0gyXVtDSDJdW0NIMl1PMw==

> <s_epik_cmdline>
J2VwaWtfcHl0aG9uJywgJy1waCcsICc3LjAnLCAnLXRuJywgJzgnLCAnLW1hJywgJzIwMCcsICctbWV0YWxfYmluZGluZycsICctaW1hZScsICc8aW5maWxlLm1hZT4nLCAnLW9tYWUnLCAnPG91dGZpbGUubWFlPic=

> <r_lp_tautomer_probability>
1

> <r_epik_Ionization_Penalty>
1.58439e-06

> <r_epik_Ionization_Penalty_Charging>
4.14583e-09

> <r_epik_Ionization_Penalty_Neutral>
1.58025e-06

> <r_epik_State_Penalty>
-0

> <r_epik_Charging_Adjusted_Penalty>
4.14583e-09

> <i_epik_Tot_Q>
0

> <i_epik_Tot_abs_Q>
0

> <r_epik_Metal_State_Penalty>
-0

> <b_epik_Metal_Only>
0

> <s_epik_Chemistry_Notes>
This compound contains an acetal/aminal-like group ( X-CH(R)-Y where X, Y are N, S, or O) that may be acid/base labile, releasing an aldehyde.

> <s_lp_Force_Field>
OPLS_2005

> <r_lp_Energy>
28.8349

> <b_lp_Chiralities_Consistent>
1

> <s_lp_Variant>
AV-unprocessed.smi:117-1

> <Gold.Version>
5.8.1

> <Gold.Id.Protein>
6NUR|6NUR_protein|mol2

> <Gold.PLP.Fitness>
60.7725

> <Gold.PLP.PLP>
-54.6098

> <Gold.PLP.part.hbond>
-3.0000

> <Gold.PLP.part.metal>
0.0000

> <Gold.PLP.part.buried>
-7.0009

> <Gold.PLP.part.nonpolar>
-45.7237

> <Gold.PLP.part.repulsive>
0.1912

> <Gold.PLP.ligand.clash>
0.0000

> <Gold.PLP.ligand.torsion>
0.7340

> <Gold.PLP.Chemscore.Hbond>
2.5280

> <Gold.PLP.Chemscore.CHOScore>
0.0000

> <Gold.PLP.Chemscore.Metal>
0.0000

> <Gold.Chemscore.Hbonds>
donor molecule, donor type, donor heavy atom, donor atom, acceptor molecule, acceptor atom, score
      P1  H  6896  6909       L1    13  0.64
      P1  H  6931  6943       L1    17  0.95
      P1  H  6934  6947       L1    17  0.41

> <Gold.PLP.Chemscore.Internal.Correction>
0.0469

> <Gold.Rescore>
     Score         DG    S(hbond)    S(metal)    S(lipo)     H(rot)  DE(clash)    DE(int)     intcor
     17.60     -21.49       2.55        0.00     114.85       2.32       0.02       3.87       ----

> <Gold.Chemscore.Fitness>
17.6007

> <Gold.Chemscore.DG>
-21.4887

> <Gold.Chemscore.ZeroCoef>
-5.4800

> <Gold.Chemscore.Hbond>
2.5455

> <Gold.Chemscore.Metal>
0.0000

> <Gold.Chemscore.Lipo>
114.8477

> <Gold.Chemscore.Internal_Hbond>
0.0000

> <Gold.Chemscore.DEClash>
0.0198

> <Gold.Chemscore.DEInternal>
3.8682

> <Gold.Chemscore.Rot>
2.3166

> <Gold.Chemscore.Internal.Correction>
   9.000000E+99

> <Gold.Chemscore.Hbonds>
donor molecule, donor type, donor heavy atom, donor atom, acceptor molecule, acceptor atom, score
      P1  H  6896  6909       L1    13  0.53
      P1  H  6931  6943       L1    17  0.85
      P1  H  6934  6947       L1    17  0.41

> <Gold.Chemscore.Hbond.Weighted>
-8.5021

> <Gold.Chemscore.Metal.Weighted>
-0.0000

> <Gold.Chemscore.Lipo.Weighted>
-13.4372

> <Gold.Chemscore.Internal_Hbond.Weighted>
0.0000

> <Gold.Chemscore.DEClash.Weighted>
0.0198

> <Gold.Chemscore.DEInternal.Weighted>
3.8682

> <Gold.Chemscore.Rot.Weighted>
5.9306

> <Gold.Chemscore.Internal.Correction.Weighted>
   9.000000E+99

> <Gold.Protein.RotatedTorsions>
[ 6907 6896 6895 6894 ] final   29.75 input  -60.11 | X-H torsion
[ 7974 7965 7964 7962 ] final   39.69 input  175.53 | X-H torsion
[ 8008 7997 7996 7995 ] final   -4.20 input   59.86 | X-H torsion
[ 10167 10162 10161 10158 ] final   17.22 input  -65.29 | X-H torsion
[ 10718 10713 10712 10709 ] final  -21.76 input   66.30 | X-H torsion
[ 10763 10752 10751 10750 ] final  -36.59 input  -60.55 | X-H torsion
[ 11005 11000 10999 10996 ] final -110.31 input  -57.11 | X-H torsion

> <Gold.Protein.ActiveResidues>
 VAL166  LYS551  ARG553  GLY616  TRP617  ASP618  TYR619  PRO620  LYS621  CYS622 
 ASP623  PHE694  ASN695  SER759  ASP760  ASP761  ALA762  ILE779  LEU786  VAL792 
 PHE793  MET794  SER795  GLU796  ALA797  LYS798  CYS799  TRP800  GLU811  SER814 

> <Gold.Protein.RotatedAtoms>
  152.0360  134.9740  160.0573 H   0  0  0  0  0  0  0  0  0  0  0  0  # atno 6907 bound_to 6896
  152.1197  133.4342  159.4678 H   0  0  0  0  0  0  0  0  0  0  0  0  # atno 6908 bound_to 6896
  150.6848  134.2468  159.4538 H   0  0  0  0  0  0  0  0  0  0  0  0  # atno 6909 bound_to 6896
  146.0964  139.5621  142.9442 H   0  0  0  0  0  0  0  0  0  0  0  0  # atno 7974 bound_to 7965
  154.6168  140.2490  155.7599 H   0  0  0  0  0  0  0  0  0  0  0  0  # atno 8008 bound_to 7997
  156.2403  140.2935  156.0376 H   0  0  0  0  0  0  0  0  0  0  0  0  # atno 8009 bound_to 7997
  155.1962  140.0393  157.2899 H   0  0  0  0  0  0  0  0  0  0  0  0  # atno 8010 bound_to 7997
  140.5742  143.9104  150.6736 H   0  0  0  0  0  0  0  0  0  0  0  0  # atno 10167 bound_to 10162
  156.5137  130.4616  149.6634 H   0  0  0  0  0  0  0  0  0  0  0  0  # atno 10718 bound_to 10713
  153.8823  135.6820  153.4766 H   0  0  0  0  0  0  0  0  0  0  0  0  # atno 10763 bound_to 10752
  153.1227  135.4733  154.9219 H   0  0  0  0  0  0  0  0  0  0  0  0  # atno 10764 bound_to 10752
  154.7663  135.3225  154.8232 H   0  0  0  0  0  0  0  0  0  0  0  0  # atno 10765 bound_to 10752
  141.0799  133.9238  157.2311 H   0  0  0  0  0  0  0  0  0  0  0  0  # atno 11005 bound_to 11000
  145.5940  141.0365  143.2055 LP  0  0  0  0  0  0  0  0  0  0  0  0  # atno 17320 bound_to 7965
  144.7399  139.7480  143.7315 LP  0  0  0  0  0  0  0  0  0  0  0  0  # atno 17321 bound_to 7965
  140.2587  143.3539  152.1342 LP  0  0  0  0  0  0  0  0  0  0  0  0  # atno 17342 bound_to 10162
  139.5133  144.6931  151.5705 LP  0  0  0  0  0  0  0  0  0  0  0  0  # atno 17343 bound_to 10162
  156.3216  130.7283  151.2196 LP  0  0  0  0  0  0  0  0  0  0  0  0  # atno 17370 bound_to 10713
  157.7447  131.0454  150.4842 LP  0  0  0  0  0  0  0  0  0  0  0  0  # atno 17371 bound_to 10713
  139.9612  135.0153  156.9266 LP  0  0  0  0  0  0  0  0  0  0  0  0  # atno 17394 bound_to 11000
  140.5492  134.0644  155.7364 LP  0  0  0  0  0  0  0  0  0  0  0  0  # atno 17395 bound_to 11000

$$$$
