AV-unprocessed.smi:623|AV-procd|sdf|3092|dock3
  -GOLD-   22720 0 13D 1   1.00000     0.00000
 Structure written by MMmdl.
 45 47  0  0  0  0  0  0  0  0  1 V2000
  144.5996  135.8212  162.3067 C   0  0  0  0  0  0  0  0  0  0  0  0
  145.9245  136.1049  161.5441 C   0  0  0  0  0  0  0  0  0  0  0  0
  145.5983  137.2895  160.5913 C   0  0  0  0  0  0  0  0  0  0  0  0
  147.1436  136.3447  162.4570 C   0  0  1  0  0  0  0  0  0  0  0  0
  147.3069  135.0003  163.2019 C   0  0  0  0  0  0  0  0  0  0  0  0
  146.9105  133.9694  162.1244 C   0  0  0  0  0  0  0  0  0  0  0  0
  146.5969  134.8621  160.8955 C   0  0  1  0  0  0  0  0  0  0  0  0
  145.7645  134.1266  159.8256 C   0  0  0  0  0  0  0  0  0  0  0  0
  147.9872  135.3780  160.4130 C   0  0  1  0  0  0  0  0  0  0  0  0
  147.9540  135.8904  159.0481 N   0  0  0  0  0  0  0  0  0  0  0  0
  148.9671  136.4684  158.3849 C   0  0  0  0  0  0  0  0  0  0  0  0
  150.0871  136.6163  158.8720 O   0  0  0  0  0  0  0  0  0  0  0  0
  148.6858  136.9746  156.9592 C   0  0  0  0  0  0  0  0  0  0  0  0
  149.8040  137.7189  156.3533 N   0  0  0  0  0  0  0  0  0  0  0  0
  150.2415  137.3978  155.0758 C   0  0  0  0  0  0  0  0  0  0  0  0
  151.2921  138.0027  154.4728 C   0  0  0  0  0  0  0  0  0  0  0  0
  152.0345  139.0526  155.1618 C   0  0  0  0  0  0  0  0  0  0  0  0
  152.9999  139.6576  154.7012 O   0  0  0  0  0  0  0  0  0  0  0  0
  151.5642  139.3480  156.4440 N   0  0  0  0  0  0  0  0  0  0  0  0
  150.4831  138.7277  157.0719 C   0  0  0  0  0  0  0  0  0  0  0  0
  150.1616  139.0538  158.2137 O   0  0  0  0  0  0  0  0  0  0  0  0
  148.3282  136.4543  161.4699 C   0  0  0  0  0  0  0  0  0  0  0  0
  152.0489  140.0679  156.9602 H   0  0  0  0  0  0  0  0  0  0  0  0
  144.2849  136.7006  162.8694 H   0  0  0  0  0  0  0  0  0  0  0  0
  144.6412  135.0009  163.0197 H   0  0  0  0  0  0  0  0  0  0  0  0
  143.7958  135.5834  161.6093 H   0  0  0  0  0  0  0  0  0  0  0  0
  146.4408  137.6792  160.0272 H   0  0  0  0  0  0  0  0  0  0  0  0
  145.2025  138.1349  161.1549 H   0  0  0  0  0  0  0  0  0  0  0  0
  144.8370  137.0067  159.8638 H   0  0  0  0  0  0  0  0  0  0  0  0
  147.0578  137.2023  163.1252 H   0  0  0  0  0  0  0  0  0  0  0  0
  148.3251  134.8477  163.5619 H   0  0  0  0  0  0  0  0  0  0  0  0
  146.6488  134.9399  164.0690 H   0  0  0  0  0  0  0  0  0  0  0  0
  147.7080  133.2507  161.9314 H   0  0  0  0  0  0  0  0  0  0  0  0
  146.0431  133.3884  162.4384 H   0  0  0  0  0  0  0  0  0  0  0  0
  146.3251  133.2934  159.4011 H   0  0  0  0  0  0  0  0  0  0  0  0
  145.4817  134.7863  159.0051 H   0  0  0  0  0  0  0  0  0  0  0  0
  144.8450  133.7220  160.2485 H   0  0  0  0  0  0  0  0  0  0  0  0
  148.7235  134.5725  160.4379 H   0  0  0  0  0  0  0  0  0  0  0  0
  147.0720  135.8078  158.5635 H   0  0  0  0  0  0  0  0  0  0  0  0
  148.4396  136.1127  156.3371 H   0  0  0  0  0  0  0  0  0  0  0  0
  147.7787  137.5814  156.9751 H   0  0  0  0  0  0  0  0  0  0  0  0
  149.7260  136.6189  154.5319 H   0  0  0  0  0  0  0  0  0  0  0  0
  151.5872  137.7059  153.4767 H   0  0  0  0  0  0  0  0  0  0  0  0
  148.3947  137.4537  161.0392 H   0  0  0  0  0  0  0  0  0  0  0  0
  149.2864  136.2590  161.9527 H   0  0  0  0  0  0  0  0  0  0  0  0
  1  2  1  0  0  0  0
  1 24  1  0  0  0  0
  1 25  1  0  0  0  0
  1 26  1  0  0  0  0
  2  7  1  0  0  0  0
  2  3  1  0  0  0  0
  2  4  1  0  0  0  0
  3 27  1  0  0  0  0
  3 28  1  0  0  0  0
  3 29  1  0  0  0  0
  4 22  1  0  0  0  0
  4  5  1  0  0  0  0
  4 30  1  0  0  0  0
  5  6  1  0  0  0  0
  5 31  1  0  0  0  0
  5 32  1  0  0  0  0
  6  7  1  0  0  0  0
  6 33  1  0  0  0  0
  6 34  1  0  0  0  0
  7  8  1  0  0  0  0
  7  9  1  0  0  0  0
  8 35  1  0  0  0  0
  8 36  1  0  0  0  0
  8 37  1  0  0  0  0
  9 10  1  0  0  0  0
  9 22  1  0  0  0  0
  9 38  1  0  0  0  0
 10 11  1  0  0  0  0
 10 39  1  0  0  0  0
 11 12  2  0  0  0  0
 11 13  1  0  0  0  0
 13 14  1  0  0  0  0
 13 40  1  0  0  0  0
 13 41  1  0  0  0  0
 14 20  1  0  0  0  0
 14 15  1  0  0  0  0
 15 16  2  0  0  0  0
 15 42  1  0  0  0  0
 16 17  1  0  0  0  0
 16 43  1  0  0  0  0
 17 18  2  0  0  0  0
 17 19  1  0  0  0  0
 19 23  1  0  0  0  0
 19 20  1  0  0  0  0
 20 21  2  0  0  0  0
 22 44  1  0  0  0  0
 22 45  1  0  0  0  0
M  END
> <s_m_source_file>
AV-unprocessed.smi

> <i_m_source_file_index>
623

> <i_lp_mmshare_version>
43012

> <i_f3d_flags>
0

> <s_epik_input>
W0NIM11bQ0BdMTJDKFtDSDNdKShbQ0gzXSlbQ0BIXShbQ0gyXVtDSDJdMSlbQ0gyXVtDQEBIXTJbTkhdQyg9TylbQ0gyXW4zW2NIXVtjSF1jKD1PKVtuSF1jMz1P

> <s_epik_cmdline>
J2VwaWtfcHl0aG9uJywgJy1waCcsICc3LjAnLCAnLXRuJywgJzgnLCAnLW1hJywgJzIwMCcsICctbWV0YWxfYmluZGluZycsICctaW1hZScsICc8aW5maWxlLm1hZT4nLCAnLW9tYWUnLCAnPG91dGZpbGUubWFlPic=

> <r_lp_tautomer_probability>
0.999537

> <r_epik_Ionization_Penalty>
0.00303563

> <r_epik_Ionization_Penalty_Charging>
0.00303561

> <r_epik_Ionization_Penalty_Neutral>
2.03238e-08

> <r_epik_State_Penalty>
0.00213308

> <r_epik_Charging_Adjusted_Penalty>
0.00516869

> <i_epik_Tot_Q>
0

> <i_epik_Tot_abs_Q>
0

> <r_epik_Metal_State_Penalty>
0.361714

> <b_epik_Metal_Only>
0

> <s_lp_Force_Field>
OPLS_2005

> <r_lp_Energy>
54.5125

> <b_lp_Chiralities_Consistent>
1

> <s_lp_Variant>
AV-unprocessed.smi:623-2

> <Gold.Version>
5.8.1

> <Gold.Id.Protein>
6NUR|6NUR_protein|mol2

> <Gold.PLP.Fitness>
39.8389

> <Gold.PLP.PLP>
-31.9710

> <Gold.PLP.part.hbond>
-3.0000

> <Gold.PLP.part.metal>
0.0000

> <Gold.PLP.part.buried>
-3.8477

> <Gold.PLP.part.nonpolar>
-25.3185

> <Gold.PLP.part.repulsive>
0.2004

> <Gold.PLP.ligand.clash>
0.0000

> <Gold.PLP.ligand.torsion>
0.1688

> <Gold.PLP.Chemscore.Hbond>
2.1186

> <Gold.PLP.Chemscore.CHOScore>
0.6118

> <Gold.PLP.Chemscore.Metal>
0.0000

> <Gold.Chemscore.Hbonds>
donor molecule, donor type, donor heavy atom, donor atom, acceptor molecule, acceptor atom, score
      P1  H  6896  6908       L1    12  0.91
      P1  H  7989  7998       L1    18  0.15
      P1  H  7997  8010       L1    18  1.00
      L1  C    15    42       P1  7948  0.38

> <Gold.PLP.Chemscore.Internal.Correction>
0.0142

> <Gold.Rescore>
     Score         DG    S(hbond)    S(metal)    S(lipo)     H(rot)  DE(clash)    DE(int)     intcor
     16.30     -16.42       1.98        0.00      73.52       1.66       0.00       0.12       ----

> <Gold.Chemscore.Fitness>
16.3008

> <Gold.Chemscore.DG>
-16.4197

> <Gold.Chemscore.ZeroCoef>
-5.4800

> <Gold.Chemscore.Hbond>
1.9758

> <Gold.Chemscore.Metal>
0.0000

> <Gold.Chemscore.Lipo>
73.5223

> <Gold.Chemscore.Internal_Hbond>
0.0000

> <Gold.Chemscore.DEClash>
0.0015

> <Gold.Chemscore.DEInternal>
0.1174

> <Gold.Chemscore.Rot>
1.6647

> <Gold.Chemscore.Internal.Correction>
   9.000000E+99

> <Gold.Chemscore.Hbonds>
donor molecule, donor type, donor heavy atom, donor atom, acceptor molecule, acceptor atom, score
      P1  H  6896  6908       L1    12  0.78
      P1  H  7989  7998       L1    18  0.01
      P1  H  7997  8010       L1    18  0.96

> <Gold.Chemscore.Hbond.Weighted>
-6.5993

> <Gold.Chemscore.Metal.Weighted>
-0.0000

> <Gold.Chemscore.Lipo.Weighted>
-8.6021

> <Gold.Chemscore.Internal_Hbond.Weighted>
0.0000

> <Gold.Chemscore.DEClash.Weighted>
0.0015

> <Gold.Chemscore.DEInternal.Weighted>
0.1174

> <Gold.Chemscore.Rot.Weighted>
4.2617

> <Gold.Chemscore.Internal.Correction.Weighted>
   9.000000E+99

> <Gold.Protein.RotatedTorsions>
[ 6907 6896 6895 6894 ] final -167.18 input  -60.11 | X-H torsion
[ 7974 7965 7964 7962 ] final  138.82 input  175.53 | X-H torsion
[ 8008 7997 7996 7995 ] final  125.07 input   59.86 | X-H torsion
[ 10167 10162 10161 10158 ] final -132.85 input  -65.29 | X-H torsion
[ 10718 10713 10712 10709 ] final   62.58 input   66.30 | X-H torsion
[ 10763 10752 10751 10750 ] final -163.78 input  -60.55 | X-H torsion
[ 11005 11000 10999 10996 ] final  -74.93 input  -57.11 | X-H torsion

> <Gold.Protein.ActiveResidues>
 VAL166  LYS551  ARG553  GLY616  TRP617  ASP618  TYR619  PRO620  LYS621  CYS622 
 ASP623  PHE694  ASN695  SER759  ASP760  ASP761  ALA762  ILE779  LEU786  VAL792 
 PHE793  MET794  SER795  GLU796  ALA797  LYS798  CYS799  TRP800  GLU811  SER814 

> <Gold.Protein.RotatedAtoms>
  151.4554  133.3606  159.2801 H   0  0  0  0  0  0  0  0  0  0  0  0  # atno 6907 bound_to 6896
  150.9062  134.8478  159.7404 H   0  0  0  0  0  0  0  0  0  0  0  0  # atno 6908 bound_to 6896
  152.4907  134.4480  159.9617 H   0  0  0  0  0  0  0  0  0  0  0  0  # atno 6909 bound_to 6896
  144.9336  139.5017  143.5606 H   0  0  0  0  0  0  0  0  0  0  0  0  # atno 7974 bound_to 7965
  156.2822  140.2725  156.1890 H   0  0  0  0  0  0  0  0  0  0  0  0  # atno 8008 bound_to 7997
  155.0477  140.0386  157.2550 H   0  0  0  0  0  0  0  0  0  0  0  0  # atno 8009 bound_to 7997
  154.7221  140.2690  155.6537 H   0  0  0  0  0  0  0  0  0  0  0  0  # atno 8010 bound_to 7997
  139.9043  143.6569  152.2588 H   0  0  0  0  0  0  0  0  0  0  0  0  # atno 10167 bound_to 10162
  157.5911  130.9058  149.9606 H   0  0  0  0  0  0  0  0  0  0  0  0  # atno 10718 bound_to 10713
  154.7090  135.3002  154.9226 H   0  0  0  0  0  0  0  0  0  0  0  0  # atno 10763 bound_to 10752
  154.0133  135.6692  153.4771 H   0  0  0  0  0  0  0  0  0  0  0  0  # atno 10764 bound_to 10752
  153.0740  135.5045  154.8278 H   0  0  0  0  0  0  0  0  0  0  0  0  # atno 10765 bound_to 10752
  141.1640  133.6928  156.7439 H   0  0  0  0  0  0  0  0  0  0  0  0  # atno 11005 bound_to 11000
  146.3257  139.8304  142.8909 LP  0  0  0  0  0  0  0  0  0  0  0  0  # atno 17320 bound_to 7965
  145.3102  141.0218  143.3559 LP  0  0  0  0  0  0  0  0  0  0  0  0  # atno 17321 bound_to 7965
  139.6997  144.7636  151.1294 LP  0  0  0  0  0  0  0  0  0  0  0  0  # atno 17342 bound_to 10162
  140.7700  143.5474  150.9243 LP  0  0  0  0  0  0  0  0  0  0  0  0  # atno 17343 bound_to 10162
  156.0966  130.3659  150.0295 LP  0  0  0  0  0  0  0  0  0  0  0  0  # atno 17370 bound_to 10713
  156.8418  130.9428  151.3631 LP  0  0  0  0  0  0  0  0  0  0  0  0  # atno 17371 bound_to 10713
  140.2654  134.8434  157.3797 LP  0  0  0  0  0  0  0  0  0  0  0  0  # atno 17394 bound_to 11000
  140.1572  134.4775  155.7920 LP  0  0  0  0  0  0  0  0  0  0  0  0  # atno 17395 bound_to 11000

$$$$
