AV-unprocessed.smi:933|AV-procd|sdf|4204|dock3
  -GOLD-   22720 2113D 1   1.00000     0.00000
 Structure written by MMmdl.
 42 43  0  0  0  0  0  0  0  0  1 V2000
  152.6934  138.1053  158.5911 C   0  0  0  0  0  0  0  0  0  0  0  0
  151.5372  137.2566  158.0525 C   0  0  0  0  0  0  0  0  0  0  0  0
  151.0893  137.6898  156.6967 C   0  0  0  0  0  0  0  0  0  0  0  0
  150.7179  138.9398  156.4082 N   0  0  0  0  0  0  0  0  0  0  0  0
  150.3611  139.1005  155.0657 C   0  0  0  0  0  0  0  0  0  0  0  0
  149.8965  140.4372  154.5723 C   0  0  0  0  0  0  0  0  0  0  0  0
  148.9312  141.1117  155.5565 C   0  0  0  0  0  0  0  0  0  0  0  0
  149.5548  142.2781  156.1762 N   0  0  0  0  0  0  0  0  0  0  0  0
  150.6461  142.2929  156.9604 C   0  0  0  0  0  0  0  0  0  0  0  0
  151.2573  141.2642  157.2433 O   0  0  0  0  0  0  0  0  0  0  0  0
  151.0018  143.5133  157.3961 N   0  0  0  0  0  0  0  0  0  0  0  0
  152.1195  143.8004  158.2908 C   0  0  1  0  0  0  0  0  0  0  0  0
  152.1455  145.2997  158.6418 C   0  0  0  0  0  0  0  0  0  0  0  0
  151.6858  145.3988  160.0955 C   0  0  0  0  0  0  0  0  0  0  0  0
  152.1813  144.1015  160.7248 C   0  0  0  0  0  0  0  0  0  0  0  0
  151.9715  143.0454  159.6335 C   0  0  2  0  0  0  0  0  0  0  0  0
  152.9085  141.8374  159.7730 C   0  0  0  0  0  0  0  0  0  0  0  0
  150.4883  137.9483  154.3306 C   0  0  0  0  0  0  0  0  0  0  0  0
  151.0587  136.6185  155.3009 S   0  0  0  0  0  0  0  0  0  0  0  0
  152.9980  137.7634  159.5805 H   0  0  0  0  0  0  0  0  0  0  0  0
  152.4060  139.1537  158.6749 H   0  0  0  0  0  0  0  0  0  0  0  0
  153.5626  138.0470  157.9356 H   0  0  0  0  0  0  0  0  0  0  0  0
  151.8370  136.2094  158.0023 H   0  0  0  0  0  0  0  0  0  0  0  0
  150.6898  137.3061  158.7372 H   0  0  0  0  0  0  0  0  0  0  0  0
  150.7561  141.0868  154.4014 H   0  0  0  0  0  0  0  0  0  0  0  0
  149.4079  140.3260  153.6033 H   0  0  0  0  0  0  0  0  0  0  0  0
  148.0229  141.4202  155.0364 H   0  0  0  0  0  0  0  0  0  0  0  0
  148.6388  140.3998  156.3304 H   0  0  0  0  0  0  0  0  0  0  0  0
  149.1326  143.1713  155.9671 H   0  0  0  0  0  0  0  0  0  0  0  0
  150.4407  144.3003  157.1045 H   0  0  0  0  0  0  0  0  0  0  0  0
  153.0608  143.5456  157.7997 H   0  0  0  0  0  0  0  0  0  0  0  0
  153.1700  145.6666  158.5670 H   0  0  0  0  0  0  0  0  0  0  0  0
  151.5380  145.9139  157.9754 H   0  0  0  0  0  0  0  0  0  0  0  0
  152.0713  146.2858  160.5988 H   0  0  0  0  0  0  0  0  0  0  0  0
  150.5963  145.4364  160.1366 H   0  0  0  0  0  0  0  0  0  0  0  0
  153.2424  144.1963  160.9608 H   0  0  0  0  0  0  0  0  0  0  0  0
  151.6565  143.8581  161.6492 H   0  0  0  0  0  0  0  0  0  0  0  0
  150.9438  142.6895  159.7284 H   0  0  0  0  0  0  0  0  0  0  0  0
  153.9550  142.1346  159.6998 H   0  0  0  0  0  0  0  0  0  0  0  0
  152.7159  141.1008  158.9928 H   0  0  0  0  0  0  0  0  0  0  0  0
  152.7680  141.3443  160.7350 H   0  0  0  0  0  0  0  0  0  0  0  0
  150.2828  137.8015  153.2807 H   0  0  0  0  0  0  0  0  0  0  0  0
  1  2  1  0  0  0  0
  1 20  1  0  0  0  0
  1 21  1  0  0  0  0
  1 22  1  0  0  0  0
  2  3  1  0  0  0  0
  2 23  1  0  0  0  0
  2 24  1  0  0  0  0
  3 19  1  0  0  0  0
  3  4  2  0  0  0  0
  4  5  1  0  0  0  0
  5  6  1  0  0  0  0
  5 18  2  0  0  0  0
  6  7  1  0  0  0  0
  6 25  1  0  0  0  0
  6 26  1  0  0  0  0
  7  8  1  0  0  0  0
  7 27  1  0  0  0  0
  7 28  1  0  0  0  0
  8  9  1  0  0  0  0
  8 29  1  0  0  0  0
  9 10  2  0  0  0  0
  9 11  1  0  0  0  0
 11 12  1  0  0  0  0
 11 30  1  0  0  0  0
 12 16  1  0  0  0  0
 12 13  1  0  0  0  0
 12 31  1  0  0  0  0
 13 14  1  0  0  0  0
 13 32  1  0  0  0  0
 13 33  1  0  0  0  0
 14 15  1  0  0  0  0
 14 34  1  0  0  0  0
 14 35  1  0  0  0  0
 15 16  1  0  0  0  0
 15 36  1  0  0  0  0
 15 37  1  0  0  0  0
 16 17  1  0  0  0  0
 16 38  1  0  0  0  0
 17 39  1  0  0  0  0
 17 40  1  0  0  0  0
 17 41  1  0  0  0  0
 18 19  1  0  0  0  0
 18 42  1  0  0  0  0
M  END
> <s_m_source_file>
AV-unprocessed.smi

> <i_m_source_file_index>
933

> <i_lp_mmshare_version>
43012

> <i_f3d_flags>
0

> <s_epik_input>
W0NIM11bQ0gyXWMxbmMoW2NIXXMxKVtDSDJdW0NIMl1bTkhdQyg9TylbTkhdW0NAQEhdMltDSDJdW0NIMl1bQ0gyXVtDQEhdMltDSDNd

> <s_epik_cmdline>
J2VwaWtfcHl0aG9uJywgJy1waCcsICc3LjAnLCAnLXRuJywgJzgnLCAnLW1hJywgJzIwMCcsICctbWV0YWxfYmluZGluZycsICctaW1hZScsICc8aW5maWxlLm1hZT4nLCAnLW9tYWUnLCAnPG91dGZpbGUubWFlPic=

> <r_epik_Ionization_Penalty>
0.00203408

> <r_epik_Ionization_Penalty_Charging>
0

> <r_epik_Ionization_Penalty_Neutral>
0.00203408

> <r_epik_State_Penalty>
0.0013452

> <r_epik_Charging_Adjusted_Penalty>
0.0013452

> <i_epik_Tot_Q>
0

> <i_epik_Tot_abs_Q>
0

> <r_epik_Metal_State_Penalty>
-0

> <b_epik_Metal_Only>
0

> <s_lp_Force_Field>
OPLS_2005

> <r_lp_Energy>
18.1851

> <b_lp_Chiralities_Consistent>
1

> <s_lp_Variant>
AV-unprocessed.smi:933-4

> <Gold.Version>
5.8.1

> <Gold.Id.Protein>
6NUR|6NUR_protein|mol2

> <Gold.PLP.Fitness>
48.2158

> <Gold.PLP.PLP>
-41.2813

> <Gold.PLP.part.hbond>
-2.0000

> <Gold.PLP.part.metal>
0.0000

> <Gold.PLP.part.buried>
-4.8827

> <Gold.PLP.part.nonpolar>
-34.9548

> <Gold.PLP.part.repulsive>
0.1158

> <Gold.PLP.ligand.clash>
0.0000

> <Gold.PLP.ligand.torsion>
0.6191

> <Gold.PLP.Chemscore.Hbond>
1.5980

> <Gold.PLP.Chemscore.CHOScore>
1.1070

> <Gold.PLP.Chemscore.Metal>
0.0000

> <Gold.Chemscore.Hbonds>
donor molecule, donor type, donor heavy atom, donor atom, acceptor molecule, acceptor atom, score
      L1  H     8    29       P1  8028  1.00
      L1  H    11    30       P1  8028  0.57
      L1  C    18    42       P1  7948  0.89
      L1  C    18    42       P1  7949  0.19

> <Gold.PLP.Chemscore.Internal.Correction>
0.0577

> <Gold.Rescore>
     Score         DG    S(hbond)    S(metal)    S(lipo)     H(rot)  DE(clash)    DE(int)     intcor
     18.42     -21.12       1.79        0.00     116.35       1.55       0.51       2.19       ----

> <Gold.Chemscore.Fitness>
18.4179

> <Gold.Chemscore.DG>
-21.1239

> <Gold.Chemscore.ZeroCoef>
-5.4800

> <Gold.Chemscore.Hbond>
1.7949

> <Gold.Chemscore.Metal>
0.0000

> <Gold.Chemscore.Lipo>
116.3451

> <Gold.Chemscore.Internal_Hbond>
0.0000

> <Gold.Chemscore.DEClash>
0.5145

> <Gold.Chemscore.DEInternal>
2.1914

> <Gold.Chemscore.Rot>
1.5482

> <Gold.Chemscore.Internal.Correction>
   9.000000E+99

> <Gold.Chemscore.Hbonds>
donor molecule, donor type, donor heavy atom, donor atom, acceptor molecule, acceptor atom, score
      L1  H     8    29       P1  8028  0.98
      L1  H    11    30       P1  8028  0.50

> <Gold.Chemscore.Hbond.Weighted>
-5.9950

> <Gold.Chemscore.Metal.Weighted>
-0.0000

> <Gold.Chemscore.Lipo.Weighted>
-13.6124

> <Gold.Chemscore.Internal_Hbond.Weighted>
0.0000

> <Gold.Chemscore.DEClash.Weighted>
0.5145

> <Gold.Chemscore.DEInternal.Weighted>
2.1914

> <Gold.Chemscore.Rot.Weighted>
3.9635

> <Gold.Chemscore.Internal.Correction.Weighted>
   9.000000E+99

> <Gold.Protein.RotatedTorsions>
[ 6907 6896 6895 6894 ] final   93.48 input  -60.11 | X-H torsion
[ 7974 7965 7964 7962 ] final  152.79 input  175.53 | X-H torsion
[ 8008 7997 7996 7995 ] final   54.84 input   59.86 | X-H torsion
[ 10167 10162 10161 10158 ] final -159.28 input  -65.29 | X-H torsion
[ 10718 10713 10712 10709 ] final -173.84 input   66.30 | X-H torsion
[ 10763 10752 10751 10750 ] final -119.29 input  -60.55 | X-H torsion
[ 11005 11000 10999 10996 ] final    1.93 input  -57.11 | X-H torsion

> <Gold.Protein.ActiveResidues>
 VAL166  LYS551  ARG553  GLY616  TRP617  ASP618  TYR619  PRO620  LYS621  CYS622 
 ASP623  PHE694  ASN695  SER759  ASP760  ASP761  ALA762  ILE779  LEU786  VAL792 
 PHE793  MET794  SER795  GLU796  ALA797  LYS798  CYS799  TRP800  GLU811  SER814 

> <Gold.Protein.RotatedAtoms>
  152.5452  134.1341  159.8451 H   0  0  0  0  0  0  0  0  0  0  0  0  # atno 6907 bound_to 6896
  151.1383  133.4981  159.2605 H   0  0  0  0  0  0  0  0  0  0  0  0  # atno 6908 bound_to 6896
  151.1600  135.0279  159.8761 H   0  0  0  0  0  0  0  0  0  0  0  0  # atno 6909 bound_to 6896
  144.8198  139.6714  143.6105 H   0  0  0  0  0  0  0  0  0  0  0  0  # atno 7974 bound_to 7965
  155.4912  140.3471  155.4355 H   0  0  0  0  0  0  0  0  0  0  0  0  # atno 8008 bound_to 7997
  156.0975  140.1427  156.9539 H   0  0  0  0  0  0  0  0  0  0  0  0  # atno 8009 bound_to 7997
  154.4673  140.0913  156.7031 H   0  0  0  0  0  0  0  0  0  0  0  0  # atno 8010 bound_to 7997
  139.6627  143.9884  152.2235 H   0  0  0  0  0  0  0  0  0  0  0  0  # atno 10167 bound_to 10162
  156.7762  130.9467  151.3120 H   0  0  0  0  0  0  0  0  0  0  0  0  # atno 10718 bound_to 10713
  154.8613  135.4243  154.2275 H   0  0  0  0  0  0  0  0  0  0  0  0  # atno 10763 bound_to 10752
  153.3267  135.6985  153.6989 H   0  0  0  0  0  0  0  0  0  0  0  0  # atno 10764 bound_to 10752
  153.6022  135.3535  155.2923 H   0  0  0  0  0  0  0  0  0  0  0  0  # atno 10765 bound_to 10752
  140.6100  133.9757  155.8172 H   0  0  0  0  0  0  0  0  0  0  0  0  # atno 11005 bound_to 11000
  146.2503  139.6186  142.9431 LP  0  0  0  0  0  0  0  0  0  0  0  0  # atno 17320 bound_to 7965
  145.5130  141.0435  143.2477 LP  0  0  0  0  0  0  0  0  0  0  0  0  # atno 17321 bound_to 7965
  139.9628  144.6546  150.8063 LP  0  0  0  0  0  0  0  0  0  0  0  0  # atno 17342 bound_to 10162
  140.7586  143.3112  151.2841 LP  0  0  0  0  0  0  0  0  0  0  0  0  # atno 17343 bound_to 10162
  157.6668  130.9014  149.9949 LP  0  0  0  0  0  0  0  0  0  0  0  0  # atno 17370 bound_to 10713
  156.1246  130.3645  149.9830 LP  0  0  0  0  0  0  0  0  0  0  0  0  # atno 17371 bound_to 10713
  141.0815  134.0055  157.3379 LP  0  0  0  0  0  0  0  0  0  0  0  0  # atno 17394 bound_to 11000
  139.9196  135.0199  156.8015 LP  0  0  0  0  0  0  0  0  0  0  0  0  # atno 17395 bound_to 11000

$$$$
