AV-unprocessed.smi:3253|AV-procd|sdf|12446|dock6
  -GOLD-   2272018343D 1   1.00000     0.00000
 Structure written by MMmdl.
 37 38  0  0  0  0  0  0  0  0  2 V2000
  148.5268  141.2088  157.3856 C   0  0  0  0  0  0  0  0  0  0  0  0
  149.7746  141.1817  156.4930 C   0  0  1  0  0  0  0  0  0  0  0  0
  149.4775  141.7713  155.0964 C   0  0  0  0  0  0  0  0  0  0  0  0
  148.4113  141.0576  154.3851 N   0  0  0  0  0  0  0  0  0  0  0  0
  148.3829  139.7300  154.0420 C   0  0  0  0  0  0  0  0  0  0  0  0
  147.1844  139.5148  153.4120 C   0  0  0  0  0  0  0  0  0  0  0  0
  146.5364  140.7208  153.3894 N   0  3  0  0  0  0  0  0  0  0  0  0
  147.2862  141.6588  153.9772 C   0  0  0  0  0  0  0  0  0  0  0  0
  150.8482  141.9198  157.1575 N   0  0  0  0  0  0  0  0  0  0  0  0
  151.3430  141.6536  158.3770 C   0  0  0  0  0  0  0  0  0  0  0  0
  150.9227  140.7437  159.0932 O   0  0  0  0  0  0  0  0  0  0  0  0
  152.5084  142.5346  158.8513 C   0  0  2  0  0  0  0  0  0  0  0  0
  153.7278  141.6761  159.2445 C   0  0  0  0  0  0  0  0  0  0  0  0
  153.8308  141.8518  160.7503 C   0  0  0  0  0  0  0  0  0  0  0  0
  154.6284  141.2216  161.4425 O   0  0  0  0  0  0  0  0  0  0  0  0
  152.9464  142.7523  161.1878 N   0  0  0  0  0  0  0  0  0  0  0  0
  152.7561  143.1570  162.5740 C   0  0  0  0  0  0  0  0  0  0  0  0
  152.1617  143.3464  160.1190 C   0  0  0  0  0  0  0  0  0  0  0  0
  147.7117  140.6393  156.9380 H   0  0  0  0  0  0  0  0  0  0  0  0
  148.1720  142.2280  157.5441 H   0  0  0  0  0  0  0  0  0  0  0  0
  148.7330  140.7715  158.3633 H   0  0  0  0  0  0  0  0  0  0  0  0
  150.0638  140.1352  156.3805 H   0  0  0  0  0  0  0  0  0  0  0  0
  149.1689  142.8143  155.1816 H   0  0  0  0  0  0  0  0  0  0  0  0
  150.3714  141.7572  154.4709 H   0  0  0  0  0  0  0  0  0  0  0  0
  149.1914  139.0522  154.2746 H   0  0  0  0  0  0  0  0  0  0  0  0
  146.7548  138.6179  152.9900 H   0  0  0  0  0  0  0  0  0  0  0  0
  147.0280  142.6945  154.1081 H   0  0  0  0  0  0  0  0  0  0  0  0
  151.2531  142.6897  156.6445 H   0  0  0  0  0  0  0  0  0  0  0  0
  152.7849  143.2201  158.0482 H   0  0  0  0  0  0  0  0  0  0  0  0
  153.6231  140.6198  158.9906 H   0  0  0  0  0  0  0  0  0  0  0  0
  154.6384  142.0468  158.7727 H   0  0  0  0  0  0  0  0  0  0  0  0
  153.7087  143.4196  163.0355 H   0  0  0  0  0  0  0  0  0  0  0  0
  152.3073  142.3453  163.1476 H   0  0  0  0  0  0  0  0  0  0  0  0
  152.0991  144.0246  162.6421 H   0  0  0  0  0  0  0  0  0  0  0  0
  152.4481  144.3922  159.9996 H   0  0  0  0  0  0  0  0  0  0  0  0
  151.0988  143.3232  160.3666 H   0  0  0  0  0  0  0  0  0  0  0  0
  145.6202  140.8817  152.9903 H   0  0  0  0  0  0  0  0  0  0  0  0
  1  2  1  0  0  0  0
  1 19  1  0  0  0  0
  1 20  1  0  0  0  0
  1 21  1  0  0  0  0
  2  3  1  0  0  0  0
  2  9  1  0  0  0  0
  2 22  1  0  0  0  0
  3  4  1  0  0  0  0
  3 23  1  0  0  0  0
  3 24  1  0  0  0  0
  4  8  1  0  0  0  0
  4  5  1  0  0  0  0
  5  6  2  0  0  0  0
  5 25  1  0  0  0  0
  6  7  1  0  0  0  0
  6 26  1  0  0  0  0
  7  8  2  0  0  0  0
  7 37  1  0  0  0  0
  8 27  1  0  0  0  0
  9 10  1  0  0  0  0
  9 28  1  0  0  0  0
 10 11  2  0  0  0  0
 10 12  1  0  0  0  0
 12 18  1  0  0  0  0
 12 13  1  0  0  0  0
 12 29  1  0  0  0  0
 13 14  1  0  0  0  0
 13 30  1  0  0  0  0
 13 31  1  0  0  0  0
 14 15  2  0  0  0  0
 14 16  1  0  0  0  0
 16 17  1  0  0  0  0
 16 18  1  0  0  0  0
 17 32  1  0  0  0  0
 17 33  1  0  0  0  0
 17 34  1  0  0  0  0
 18 35  1  0  0  0  0
 18 36  1  0  0  0  0
M  CHG  1   7   1
M  END
> <s_m_source_file>
AV-unprocessed.smi

> <i_m_source_file_index>
3253

> <i_lp_mmshare_version>
43012

> <i_f3d_flags>
0

> <s_epik_input>
W2NIXTFuW2NIXVtjSF1uMVtDSDJdW0NAQEhdKFtDSDNdKVtOSF1DKD1PKVtDQEBIXTJbQ0gyXUMoPU8pTihbQ0gzXSlbQ0gyXTI=

> <s_epik_cmdline>
J2VwaWtfcHl0aG9uJywgJy1waCcsICc3LjAnLCAnLXRuJywgJzgnLCAnLW1hJywgJzIwMCcsICctbWV0YWxfYmluZGluZycsICctaW1hZScsICc8aW5maWxlLm1hZT4nLCAnLW9tYWUnLCAnPG91dGZpbGUubWFlPic=

> <r_lp_tautomer_probability>
1

> <r_epik_Ionization_Penalty>
0.251561

> <r_epik_Ionization_Penalty_Charging>
0

> <r_epik_Ionization_Penalty_Neutral>
0.251561

> <r_epik_State_Penalty>
0.242926

> <r_epik_Charging_Adjusted_Penalty>
0.242926

> <i_epik_Tot_Q>
1

> <i_epik_Tot_abs_Q>
1

> <r_epik_Metal_State_Penalty>
0.533885

> <b_epik_Metal_Only>
0

> <s_lp_Force_Field>
OPLS_2005

> <r_lp_Energy>
13.6979

> <b_lp_Chiralities_Consistent>
1

> <s_lp_Variant>
AV-unprocessed.smi:3253-2

> <Gold.Version>
5.8.1

> <Gold.Id.Protein>
6NUR|6NUR_protein|mol2

> <Gold.PLP.Fitness>
45.3407

> <Gold.PLP.PLP>
-39.4006

> <Gold.PLP.part.hbond>
-2.3183

> <Gold.PLP.part.metal>
0.0000

> <Gold.PLP.part.buried>
-4.2656

> <Gold.PLP.part.nonpolar>
-34.0119

> <Gold.PLP.part.repulsive>
0.0637

> <Gold.PLP.ligand.clash>
0.0000

> <Gold.PLP.ligand.torsion>
0.0399

> <Gold.PLP.Chemscore.Hbond>
2.0000

> <Gold.PLP.Chemscore.CHOScore>
0.0000

> <Gold.PLP.Chemscore.Metal>
0.0000

> <Gold.Chemscore.Hbonds>
donor molecule, donor type, donor heavy atom, donor atom, acceptor molecule, acceptor atom, score
      L1  H     7    37       P1 10175  1.98

> <Gold.PLP.Chemscore.Internal.Correction>
0.0199

> <Gold.Rescore>
     Score         DG    S(hbond)    S(metal)    S(lipo)     H(rot)  DE(clash)    DE(int)     intcor
      9.47     -11.80       0.94        0.00      71.65       2.03       0.99       1.34       ----

> <Gold.Chemscore.Fitness>
9.4720

> <Gold.Chemscore.DG>
-11.7988

> <Gold.Chemscore.ZeroCoef>
-5.4800

> <Gold.Chemscore.Hbond>
0.9411

> <Gold.Chemscore.Metal>
0.0000

> <Gold.Chemscore.Lipo>
71.6471

> <Gold.Chemscore.Internal_Hbond>
0.0000

> <Gold.Chemscore.DEClash>
0.9863

> <Gold.Chemscore.DEInternal>
1.3404

> <Gold.Chemscore.Rot>
2.0341

> <Gold.Chemscore.Internal.Correction>
   9.000000E+99

> <Gold.Chemscore.Hbonds>
donor molecule, donor type, donor heavy atom, donor atom, acceptor molecule, acceptor atom, score
      L1  H     7    37       P1 10175  0.41

> <Gold.Chemscore.Hbond.Weighted>
-3.1433

> <Gold.Chemscore.Metal.Weighted>
-0.0000

> <Gold.Chemscore.Lipo.Weighted>
-8.3827

> <Gold.Chemscore.Internal_Hbond.Weighted>
0.0000

> <Gold.Chemscore.DEClash.Weighted>
0.9863

> <Gold.Chemscore.DEInternal.Weighted>
1.3404

> <Gold.Chemscore.Rot.Weighted>
5.2072

> <Gold.Chemscore.Internal.Correction.Weighted>
   9.000000E+99

> <Gold.Protein.RotatedTorsions>
[ 6907 6896 6895 6894 ] final  102.18 input  -60.11 | X-H torsion
[ 7974 7965 7964 7962 ] final   89.31 input  175.53 | X-H torsion
[ 8008 7997 7996 7995 ] final -107.49 input   59.86 | X-H torsion
[ 10167 10162 10161 10158 ] final  -76.06 input  -65.29 | X-H torsion
[ 10718 10713 10712 10709 ] final -175.31 input   66.30 | X-H torsion
[ 10763 10752 10751 10750 ] final -171.79 input  -60.55 | X-H torsion
[ 11005 11000 10999 10996 ] final    6.75 input  -57.11 | X-H torsion

> <Gold.Protein.ActiveResidues>
 VAL166  LYS551  ARG553  GLY616  TRP617  ASP618  TYR619  PRO620  LYS621  CYS622 
 ASP623  PHE694  ASN695  SER759  ASP760  ASP761  ALA762  ILE779  LEU786  VAL792 
 PHE793  MET794  SER795  GLU796  ALA797  LYS798  CYS799  TRP800  GLU811  SER814 

> <Gold.Protein.RotatedAtoms>
  152.5330  134.0014  159.7896 H   0  0  0  0  0  0  0  0  0  0  0  0  # atno 6907 bound_to 6896
  151.0232  133.5849  159.2676 H   0  0  0  0  0  0  0  0  0  0  0  0  # atno 6908 bound_to 6896
  151.2881  135.0741  159.9248 H   0  0  0  0  0  0  0  0  0  0  0  0  # atno 6909 bound_to 6896
  145.5340  139.2285  143.2603 H   0  0  0  0  0  0  0  0  0  0  0  0  # atno 7974 bound_to 7965
  154.9301  140.0405  157.2044 H   0  0  0  0  0  0  0  0  0  0  0  0  # atno 8008 bound_to 7997
  154.8169  140.2877  155.5792 H   0  0  0  0  0  0  0  0  0  0  0  0  # atno 8009 bound_to 7997
  156.2976  140.2526  156.3068 H   0  0  0  0  0  0  0  0  0  0  0  0  # atno 8010 bound_to 7997
  140.4889  143.2384  151.7938 H   0  0  0  0  0  0  0  0  0  0  0  0  # atno 10167 bound_to 10162
  156.7980  130.9542  151.3119 H   0  0  0  0  0  0  0  0  0  0  0  0  # atno 10718 bound_to 10713
  154.6266  135.2881  155.0265 H   0  0  0  0  0  0  0  0  0  0  0  0  # atno 10763 bound_to 10752
  154.1440  135.6514  153.4952 H   0  0  0  0  0  0  0  0  0  0  0  0  # atno 10764 bound_to 10752
  153.0260  135.5340  154.7077 H   0  0  0  0  0  0  0  0  0  0  0  0  # atno 10765 bound_to 10752
  140.5560  134.0238  155.7954 H   0  0  0  0  0  0  0  0  0  0  0  0  # atno 11005 bound_to 11000
  146.2025  140.6158  142.9096 LP  0  0  0  0  0  0  0  0  0  0  0  0  # atno 17320 bound_to 7965
  144.7611  140.5424  143.6735 LP  0  0  0  0  0  0  0  0  0  0  0  0  # atno 17321 bound_to 7965
  139.4847  144.4675  151.9466 LP  0  0  0  0  0  0  0  0  0  0  0  0  # atno 17342 bound_to 10162
  140.3761  144.2795  150.5914 LP  0  0  0  0  0  0  0  0  0  0  0  0  # atno 17343 bound_to 10162
  157.6568  130.8931  149.9745 LP  0  0  0  0  0  0  0  0  0  0  0  0  # atno 17370 bound_to 10713
  156.1118  130.3649  150.0036 LP  0  0  0  0  0  0  0  0  0  0  0  0  # atno 17371 bound_to 10713
  141.1143  133.9565  157.2851 LP  0  0  0  0  0  0  0  0  0  0  0  0  # atno 17394 bound_to 11000
  139.9431  135.0188  156.8771 LP  0  0  0  0  0  0  0  0  0  0  0  0  # atno 17395 bound_to 11000

$$$$
