AV-unprocessed.smi:2482|AV-procd|sdf|9779|dock3
  -GOLD-   2272013423D 1   1.00000     0.00000
 Structure written by MMmdl.
 34 35  0  0  0  0  0  0  0  0  1 V2000
  152.2131  144.4035  161.1369 C   0  0  0  0  0  0  0  0  0  0  0  0
  152.4930  143.0726  160.4641 C   0  0  0  0  0  0  0  0  0  0  0  0
  153.3566  142.2601  161.1116 N   0  0  0  0  0  0  0  0  0  0  0  0
  153.6333  141.0605  160.5613 C   0  0  0  0  0  0  0  0  0  0  0  0
  153.0744  140.6171  159.3477 C   0  0  0  0  0  0  0  0  0  0  0  0
  152.1825  141.4728  158.6577 C   0  0  0  0  0  0  0  0  0  0  0  0
  151.5448  141.1180  157.4369 N   0  0  0  0  0  0  0  0  0  0  0  0
  151.9034  140.1885  156.5315 C   0  0  0  0  0  0  0  0  0  0  0  0
  152.8890  139.4583  156.6379 O   0  0  0  0  0  0  0  0  0  0  0  0
  150.9880  140.0711  155.3040 C   0  0  2  0  0  0  0  0  0  0  0  0
  149.8957  141.1642  155.2601 C   0  0  0  0  0  0  0  0  0  0  0  0
  149.0004  140.9906  154.1231 N   0  0  0  0  0  0  0  0  0  0  0  0
  147.9728  142.0199  154.0881 C   0  0  0  0  0  0  0  0  0  0  0  0
  148.4220  139.6543  154.1536 C   0  0  0  0  0  0  0  0  0  0  0  0
  149.5090  138.5676  154.1954 C   0  0  0  0  0  0  0  0  0  0  0  0
  150.3595  138.7879  155.3163 O   0  0  0  0  0  0  0  0  0  0  0  0
  151.8759  142.7255  159.2394 C   0  0  0  0  0  0  0  0  0  0  0  0
  150.7727  143.8149  158.4665 Cl  0  0  0  0  0  0  0  0  0  0  0  0
  152.4975  145.2269  160.4813 H   0  0  0  0  0  0  0  0  0  0  0  0
  152.7713  144.5076  162.0685 H   0  0  0  0  0  0  0  0  0  0  0  0
  151.1516  144.4962  161.3679 H   0  0  0  0  0  0  0  0  0  0  0  0
  154.3168  140.4291  161.1096 H   0  0  0  0  0  0  0  0  0  0  0  0
  153.3286  139.6343  158.9825 H   0  0  0  0  0  0  0  0  0  0  0  0
  150.7614  141.6996  157.1754 H   0  0  0  0  0  0  0  0  0  0  0  0
  151.6179  140.1474  154.4158 H   0  0  0  0  0  0  0  0  0  0  0  0
  149.3205  141.1441  156.1875 H   0  0  0  0  0  0  0  0  0  0  0  0
  150.3634  142.1482  155.2047 H   0  0  0  0  0  0  0  0  0  0  0  0
  147.3318  141.8961  153.2147 H   0  0  0  0  0  0  0  0  0  0  0  0
  148.4217  143.0120  154.0321 H   0  0  0  0  0  0  0  0  0  0  0  0
  147.3449  141.9807  154.9791 H   0  0  0  0  0  0  0  0  0  0  0  0
  147.7754  139.5506  155.0262 H   0  0  0  0  0  0  0  0  0  0  0  0
  147.7910  139.5037  153.2771 H   0  0  0  0  0  0  0  0  0  0  0  0
  149.0557  137.5799  154.2802 H   0  0  0  0  0  0  0  0  0  0  0  0
  150.0979  138.5733  153.2770 H   0  0  0  0  0  0  0  0  0  0  0  0
  1  2  1  0  0  0  0
  1 19  1  0  0  0  0
  1 20  1  0  0  0  0
  1 21  1  0  0  0  0
  2 17  1  0  0  0  0
  2  3  2  0  0  0  0
  3  4  1  0  0  0  0
  4  5  2  0  0  0  0
  4 22  1  0  0  0  0
  5  6  1  0  0  0  0
  5 23  1  0  0  0  0
  6  7  1  0  0  0  0
  6 17  2  0  0  0  0
  7  8  1  0  0  0  0
  7 24  1  0  0  0  0
  8  9  2  0  0  0  0
  8 10  1  0  0  0  0
 10 16  1  0  0  0  0
 10 11  1  0  0  0  0
 10 25  1  0  0  0  0
 11 12  1  0  0  0  0
 11 26  1  0  0  0  0
 11 27  1  0  0  0  0
 12 13  1  0  0  0  0
 12 14  1  0  0  0  0
 13 28  1  0  0  0  0
 13 29  1  0  0  0  0
 13 30  1  0  0  0  0
 14 15  1  0  0  0  0
 14 31  1  0  0  0  0
 14 32  1  0  0  0  0
 15 16  1  0  0  0  0
 15 33  1  0  0  0  0
 15 34  1  0  0  0  0
 17 18  1  0  0  0  0
M  END
> <s_m_source_file>
AV-unprocessed.smi

> <i_m_source_file_index>
2482

> <i_lp_mmshare_version>
43012

> <i_f3d_flags>
0

> <s_epik_input>
W0NIM11jMW5bY0hdW2NIXWMoYzFDbClbTkhdQyg9TylbQ0BASF0yW0NIMl1OKFtDSDNdKVtDSDJdW0NIMl1PMg==

> <s_epik_cmdline>
J2VwaWtfcHl0aG9uJywgJy1waCcsICc3LjAnLCAnLXRuJywgJzgnLCAnLW1hJywgJzIwMCcsICctbWV0YWxfYmluZGluZycsICctaW1hZScsICc8aW5maWxlLm1hZT4nLCAnLW9tYWUnLCAnPG91dGZpbGUubWFlPic=

> <r_epik_Ionization_Penalty>
0.52656

> <r_epik_Ionization_Penalty_Charging>
0

> <r_epik_Ionization_Penalty_Neutral>
0.52656

> <r_epik_State_Penalty>
0.534659

> <r_epik_Charging_Adjusted_Penalty>
0.534659

> <i_epik_Tot_Q>
0

> <i_epik_Tot_abs_Q>
0

> <r_epik_Metal_State_Penalty>
0.54077

> <b_epik_Metal_Only>
0

> <s_lp_Force_Field>
OPLS_2005

> <r_lp_Energy>
25.1239

> <b_lp_Chiralities_Consistent>
1

> <s_lp_Variant>
AV-unprocessed.smi:2482-5

> <Gold.Version>
5.8.1

> <Gold.Id.Protein>
6NUR|6NUR_protein|mol2

> <Gold.PLP.Fitness>
38.9448

> <Gold.PLP.PLP>
-36.9297

> <Gold.PLP.part.hbond>
-1.1019

> <Gold.PLP.part.metal>
0.0000

> <Gold.PLP.part.buried>
-2.8273

> <Gold.PLP.part.nonpolar>
-31.8128

> <Gold.PLP.part.repulsive>
0.2950

> <Gold.PLP.ligand.clash>
0.6765

> <Gold.PLP.ligand.torsion>
0.1553

> <Gold.PLP.Chemscore.Hbond>
1.0000

> <Gold.PLP.Chemscore.CHOScore>
0.0000

> <Gold.PLP.Chemscore.Metal>
0.0000

> <Gold.Chemscore.Hbonds>
donor molecule, donor type, donor heavy atom, donor atom, acceptor molecule, acceptor atom, score
      P1  H  7997  8010       L1     9  1.00

> <Gold.PLP.Chemscore.Internal.Correction>
0.0022

> <Gold.Rescore>
     Score         DG    S(hbond)    S(metal)    S(lipo)     H(rot)  DE(clash)    DE(int)     intcor
     17.10     -18.55       0.98        0.00     105.64       1.00       0.14       1.30       ----

> <Gold.Chemscore.Fitness>
17.1010

> <Gold.Chemscore.DG>
-18.5458

> <Gold.Chemscore.ZeroCoef>
-5.4800

> <Gold.Chemscore.Hbond>
0.9779

> <Gold.Chemscore.Metal>
0.0000

> <Gold.Chemscore.Lipo>
105.6370

> <Gold.Chemscore.Internal_Hbond>
0.0000

> <Gold.Chemscore.DEClash>
0.1423

> <Gold.Chemscore.DEInternal>
1.3025

> <Gold.Chemscore.Rot>
1.0000

> <Gold.Chemscore.Internal.Correction>
   9.000000E+99

> <Gold.Chemscore.Hbonds>
donor molecule, donor type, donor heavy atom, donor atom, acceptor molecule, acceptor atom, score
      P1  H  7997  8010       L1     9  0.97

> <Gold.Chemscore.Hbond.Weighted>
-3.2662

> <Gold.Chemscore.Metal.Weighted>
-0.0000

> <Gold.Chemscore.Lipo.Weighted>
-12.3595

> <Gold.Chemscore.Internal_Hbond.Weighted>
0.0000

> <Gold.Chemscore.DEClash.Weighted>
0.1423

> <Gold.Chemscore.DEInternal.Weighted>
1.3025

> <Gold.Chemscore.Rot.Weighted>
2.5600

> <Gold.Chemscore.Internal.Correction.Weighted>
   9.000000E+99

> <Gold.Protein.RotatedTorsions>
[ 6907 6896 6895 6894 ] final -128.44 input  -60.11 | X-H torsion
[ 7974 7965 7964 7962 ] final -134.49 input  175.53 | X-H torsion
[ 8008 7997 7996 7995 ] final   51.21 input   59.86 | X-H torsion
[ 10167 10162 10161 10158 ] final   15.33 input  -65.29 | X-H torsion
[ 10718 10713 10712 10709 ] final  -54.58 input   66.30 | X-H torsion
[ 10763 10752 10751 10750 ] final  171.67 input  -60.55 | X-H torsion
[ 11005 11000 10999 10996 ] final  131.42 input  -57.11 | X-H torsion

> <Gold.Protein.ActiveResidues>
 VAL166  LYS551  ARG553  GLY616  TRP617  ASP618  TYR619  PRO620  LYS621  CYS622 
 ASP623  PHE694  ASN695  SER759  ASP760  ASP761  ALA762  ILE779  LEU786  VAL792 
 PHE793  MET794  SER795  GLU796  ALA797  LYS798  CYS799  TRP800  GLU811  SER814 

> <Gold.Protein.RotatedAtoms>
  150.9180  133.6916  159.2838 H   0  0  0  0  0  0  0  0  0  0  0  0  # atno 6907 bound_to 6896
  151.4380  135.1016  159.9671 H   0  0  0  0  0  0  0  0  0  0  0  0  # atno 6908 bound_to 6896
  152.4964  133.8594  159.7297 H   0  0  0  0  0  0  0  0  0  0  0  0  # atno 6909 bound_to 6896
  144.9098  140.6880  143.5032 H   0  0  0  0  0  0  0  0  0  0  0  0  # atno 7974 bound_to 7965
  155.4315  140.3451  155.4280 H   0  0  0  0  0  0  0  0  0  0  0  0  # atno 8008 bound_to 7997
  156.1333  140.1520  156.9062 H   0  0  0  0  0  0  0  0  0  0  0  0  # atno 8009 bound_to 7997
  154.4912  140.0840  156.7578 H   0  0  0  0  0  0  0  0  0  0  0  0  # atno 8010 bound_to 7997
  140.5874  143.8862  150.6843 H   0  0  0  0  0  0  0  0  0  0  0  0  # atno 10167 bound_to 10162
  156.1439  130.4153  150.0057 H   0  0  0  0  0  0  0  0  0  0  0  0  # atno 10718 bound_to 10713
  154.4152  135.2757  155.2011 H   0  0  0  0  0  0  0  0  0  0  0  0  # atno 10763 bound_to 10752
  154.3980  135.6051  153.5884 H   0  0  0  0  0  0  0  0  0  0  0  0  # atno 10764 bound_to 10752
  152.9832  135.5919  154.4439 H   0  0  0  0  0  0  0  0  0  0  0  0  # atno 10765 bound_to 10752
  139.9729  134.9572  156.9435 H   0  0  0  0  0  0  0  0  0  0  0  0  # atno 11005 bound_to 11000
  145.3474  139.1715  143.4453 LP  0  0  0  0  0  0  0  0  0  0  0  0  # atno 17320 bound_to 7965
  146.3152  140.3522  142.8657 LP  0  0  0  0  0  0  0  0  0  0  0  0  # atno 17321 bound_to 7965
  140.2377  143.3687  152.1513 LP  0  0  0  0  0  0  0  0  0  0  0  0  # atno 17342 bound_to 10162
  139.5206  144.7035  151.5423 LP  0  0  0  0  0  0  0  0  0  0  0  0  # atno 17343 bound_to 10162
  156.7934  130.9264  151.3646 LP  0  0  0  0  0  0  0  0  0  0  0  0  # atno 17370 bound_to 10713
  157.6599  130.8957  149.9809 LP  0  0  0  0  0  0  0  0  0  0  0  0  # atno 17371 bound_to 10713
  140.5255  134.0865  155.7302 LP  0  0  0  0  0  0  0  0  0  0  0  0  # atno 17394 bound_to 11000
  141.1408  133.9142  157.2331 LP  0  0  0  0  0  0  0  0  0  0  0  0  # atno 17395 bound_to 11000

$$$$
