AV-unprocessed.smi:1406|AV-procd|sdf|5722|dock5
  -GOLD-   22720 5353D 1   1.00000     0.00000
 Structure written by MMmdl.
 41 43  0  0  0  0  0  0  0  0  2 V2000
  150.1786  130.4127  154.1868 C   0  0  0  0  0  0  0  0  0  0  0  0
  149.6161  131.8437  154.0677 C   0  0  1  0  0  0  0  0  0  0  0  0
  148.0829  131.8807  153.9652 C   0  0  0  0  0  0  0  0  0  0  0  0
  147.4020  132.4259  154.8346 O   0  0  0  0  0  0  0  0  0  0  0  0
  147.5498  131.3171  152.8695 N   0  0  0  0  0  0  0  0  0  0  0  0
  146.1340  131.3591  152.5184 C   0  0  2  0  0  0  0  0  0  0  0  0
  145.8319  130.7644  151.1491 C   0  0  0  0  0  0  0  0  0  0  0  0
  144.4549  131.3486  150.8168 C   0  0  0  0  0  0  0  0  0  0  0  0
  144.3473  132.6367  151.5453 N   0  3  2  0  0  0  0  0  0  0  0  0
  144.0490  133.8027  150.6709 C   0  0  0  0  0  0  0  0  0  0  0  0
  144.3361  135.1241  151.3991 C   0  0  0  0  0  0  0  0  0  0  0  0
  145.8228  135.2454  151.7837 C   0  0  0  0  0  0  0  0  0  0  0  0
  146.5155  133.8746  151.8992 C   0  0  0  0  0  0  0  0  0  0  0  0
  145.5475  132.7812  152.4177 C   0  0  2  0  0  0  0  0  0  0  0  0
  150.0610  132.6981  155.1627 N   0  0  0  0  0  0  0  0  0  0  0  0
  150.8869  132.4331  156.1770 C   0  0  0  0  0  0  0  0  0  0  0  0
  151.1241  133.4724  156.9646 N   0  0  0  0  0  0  0  0  0  0  0  0
  150.3620  134.4149  156.3348 C   0  0  0  0  0  0  0  0  0  0  0  0
  149.7143  134.0072  155.2436 N   0  0  0  0  0  0  0  0  0  0  0  0
  149.8857  129.8024  153.3316 H   0  0  0  0  0  0  0  0  0  0  0  0
  149.8288  129.9082  155.0885 H   0  0  0  0  0  0  0  0  0  0  0  0
  151.2684  130.4259  154.2190 H   0  0  0  0  0  0  0  0  0  0  0  0
  150.0102  132.2716  153.1444 H   0  0  0  0  0  0  0  0  0  0  0  0
  148.1749  130.8817  152.2067 H   0  0  0  0  0  0  0  0  0  0  0  0
  145.5653  130.7933  153.2596 H   0  0  0  0  0  0  0  0  0  0  0  0
  146.5648  131.1068  150.4168 H   0  0  0  0  0  0  0  0  0  0  0  0
  145.8384  129.6739  151.1477 H   0  0  0  0  0  0  0  0  0  0  0  0
  144.3106  131.4490  149.7402 H   0  0  0  0  0  0  0  0  0  0  0  0
  143.6703  130.6885  151.1882 H   0  0  0  0  0  0  0  0  0  0  0  0
  144.6523  133.7566  149.7625 H   0  0  0  0  0  0  0  0  0  0  0  0
  143.0051  133.7544  150.3593 H   0  0  0  0  0  0  0  0  0  0  0  0
  144.0408  135.9736  150.7825 H   0  0  0  0  0  0  0  0  0  0  0  0
  143.7213  135.1736  152.2990 H   0  0  0  0  0  0  0  0  0  0  0  0
  146.3537  135.8483  151.0461 H   0  0  0  0  0  0  0  0  0  0  0  0
  145.9020  135.7845  152.7285 H   0  0  0  0  0  0  0  0  0  0  0  0
  146.9016  133.5812  150.9221 H   0  0  0  0  0  0  0  0  0  0  0  0
  147.3846  133.9757  152.5490 H   0  0  0  0  0  0  0  0  0  0  0  0
  145.2071  133.0898  153.4073 H   0  0  0  0  0  0  0  0  0  0  0  0
  151.3323  131.4621  156.3367 H   0  0  0  0  0  0  0  0  0  0  0  0
  150.2897  135.4340  156.6852 H   0  0  0  0  0  0  0  0  0  0  0  0
  143.5626  132.5406  152.1744 H   0  0  0  0  0  0  0  0  0  0  0  0
  1  2  1  0  0  0  0
  1 20  1  0  0  0  0
  1 21  1  0  0  0  0
  1 22  1  0  0  0  0
  2  3  1  0  0  0  0
  2 15  1  0  0  0  0
  2 23  1  0  0  0  0
  3  4  2  0  0  0  0
  3  5  1  0  0  0  0
  5  6  1  0  0  0  0
  5 24  1  0  0  0  0
  6 14  1  0  0  0  0
  6  7  1  0  0  0  0
  6 25  1  0  0  0  0
  7  8  1  0  0  0  0
  7 26  1  0  0  0  0
  7 27  1  0  0  0  0
  8  9  1  0  0  0  0
  8 28  1  0  0  0  0
  8 29  1  0  0  0  0
  9 14  1  0  0  0  0
  9 10  1  0  0  0  0
  9 41  1  0  0  0  0
 10 11  1  0  0  0  0
 10 30  1  0  0  0  0
 10 31  1  0  0  0  0
 11 12  1  0  0  0  0
 11 32  1  0  0  0  0
 11 33  1  0  0  0  0
 12 13  1  0  0  0  0
 12 34  1  0  0  0  0
 12 35  1  0  0  0  0
 13 14  1  0  0  0  0
 13 36  1  0  0  0  0
 13 37  1  0  0  0  0
 14 38  1  0  0  0  0
 15 19  1  0  0  0  0
 15 16  1  0  0  0  0
 16 17  2  0  0  0  0
 16 39  1  0  0  0  0
 17 18  1  0  0  0  0
 18 19  2  0  0  0  0
 18 40  1  0  0  0  0
M  CHG  1   9   1
M  END
> <s_m_source_file>
AV-unprocessed.smi

> <i_m_source_file_index>
1406

> <i_lp_mmshare_version>
43012

> <i_f3d_flags>
0

> <s_epik_input>
bjFbY0hdbltjSF1uMVtDQEhdKFtDSDNdKUMoPU8pW05IXVtDQEhdKFtDSDJdW0NIMl0yKVtDQEBIXShOMjMpW0NIMl1bQ0gyXVtDSDJdW0NIMl0z

> <s_epik_cmdline>
J2VwaWtfcHl0aG9uJywgJy1waCcsICc3LjAnLCAnLXRuJywgJzgnLCAnLW1hJywgJzIwMCcsICctbWV0YWxfYmluZGluZycsICctaW1hZScsICc8aW5maWxlLm1hZT4nLCAnLW9tYWUnLCAnPG91dGZpbGUubWFlPic=

> <r_lp_tautomer_probability>
1

> <r_epik_Ionization_Penalty>
0.00197066

> <r_epik_Ionization_Penalty_Charging>
0.00196223

> <r_epik_Ionization_Penalty_Neutral>
8.43107e-06

> <r_epik_State_Penalty>
0.00133866

> <r_epik_Charging_Adjusted_Penalty>
0.00330089

> <i_epik_Tot_Q>
1

> <i_epik_Tot_abs_Q>
1

> <r_epik_Metal_State_Penalty>
-0

> <b_epik_Metal_Only>
0

> <s_lp_Force_Field>
OPLS_2005

> <r_lp_Energy>
45.0436

> <b_lp_Chiralities_Consistent>
1

> <s_lp_Variant>
AV-unprocessed.smi:1406-14

> <Gold.Version>
5.8.1

> <Gold.Id.Protein>
6NUR|6NUR_protein|mol2

> <Gold.PLP.Fitness>
35.5093

> <Gold.PLP.PLP>
-29.9716

> <Gold.PLP.part.hbond>
-2.0000

> <Gold.PLP.part.metal>
0.0000

> <Gold.PLP.part.buried>
-4.5510

> <Gold.PLP.part.nonpolar>
-23.3033

> <Gold.PLP.part.repulsive>
0.0618

> <Gold.PLP.ligand.clash>
0.0000

> <Gold.PLP.ligand.torsion>
0.1860

> <Gold.PLP.Chemscore.Hbond>
1.9357

> <Gold.PLP.Chemscore.CHOScore>
0.0000

> <Gold.PLP.Chemscore.Metal>
0.0000

> <Gold.Chemscore.Hbonds>
donor molecule, donor type, donor heavy atom, donor atom, acceptor molecule, acceptor atom, score
      L1  H     5    24       P1 10747  0.87
      P1  H  6896  6909       L1    17  0.35

> <Gold.PLP.Chemscore.Internal.Correction>
0.1025

> <Gold.Rescore>
     Score         DG    S(hbond)    S(metal)    S(lipo)     H(rot)  DE(clash)    DE(int)     intcor
     13.07     -14.26       1.93        0.00      61.25       1.89       0.47       0.72       ----

> <Gold.Chemscore.Fitness>
13.0678

> <Gold.Chemscore.DG>
-14.2576

> <Gold.Chemscore.ZeroCoef>
-5.4800

> <Gold.Chemscore.Hbond>
1.9283

> <Gold.Chemscore.Metal>
0.0000

> <Gold.Chemscore.Lipo>
61.2522

> <Gold.Chemscore.Internal_Hbond>
0.0000

> <Gold.Chemscore.DEClash>
0.4660

> <Gold.Chemscore.DEInternal>
0.7238

> <Gold.Chemscore.Rot>
1.8865

> <Gold.Chemscore.Internal.Correction>
   9.000000E+99

> <Gold.Chemscore.Hbonds>
donor molecule, donor type, donor heavy atom, donor atom, acceptor molecule, acceptor atom, score
      L1  H     5    24       P1 10747  0.80
      P1  H  6896  6909       L1    17  0.34

> <Gold.Chemscore.Hbond.Weighted>
-6.4407

> <Gold.Chemscore.Metal.Weighted>
-0.0000

> <Gold.Chemscore.Lipo.Weighted>
-7.1665

> <Gold.Chemscore.Internal_Hbond.Weighted>
0.0000

> <Gold.Chemscore.DEClash.Weighted>
0.4660

> <Gold.Chemscore.DEInternal.Weighted>
0.7238

> <Gold.Chemscore.Rot.Weighted>
4.8295

> <Gold.Chemscore.Internal.Correction.Weighted>
   9.000000E+99

> <Gold.Protein.RotatedTorsions>
[ 6907 6896 6895 6894 ] final  -30.99 input  -60.11 | X-H torsion
[ 7974 7965 7964 7962 ] final  100.73 input  175.53 | X-H torsion
[ 8008 7997 7996 7995 ] final   21.70 input   59.86 | X-H torsion
[ 10167 10162 10161 10158 ] final -156.99 input  -65.29 | X-H torsion
[ 10718 10713 10712 10709 ] final  -10.19 input   66.30 | X-H torsion
[ 10763 10752 10751 10750 ] final  -69.40 input  -60.55 | X-H torsion
[ 11005 11000 10999 10996 ] final  -82.52 input  -57.11 | X-H torsion

> <Gold.Protein.ActiveResidues>
 VAL166  LYS551  ARG553  GLY616  TRP617  ASP618  TYR619  PRO620  LYS621  CYS622 
 ASP623  PHE694  ASN695  SER759  ASP760  ASP761  ALA762  ILE779  LEU786  VAL792 
 PHE793  MET794  SER795  GLU796  ALA797  LYS798  CYS799  TRP800  GLU811  SER814 

> <Gold.Protein.RotatedAtoms>
  151.0981  134.9956  159.8435 H   0  0  0  0  0  0  0  0  0  0  0  0  # atno 6907 bound_to 6896
  152.5435  134.1983  159.8712 H   0  0  0  0  0  0  0  0  0  0  0  0  # atno 6908 bound_to 6896
  151.2024  133.4559  159.2630 H   0  0  0  0  0  0  0  0  0  0  0  0  # atno 6909 bound_to 6896
  145.3818  139.2378  143.3399 H   0  0  0  0  0  0  0  0  0  0  0  0  # atno 7974 bound_to 7965
  154.9546  140.3070  155.5059 H   0  0  0  0  0  0  0  0  0  0  0  0  # atno 8008 bound_to 7997
  156.2983  140.2312  156.4565 H   0  0  0  0  0  0  0  0  0  0  0  0  # atno 8009 bound_to 7997
  154.8022  140.0433  157.1270 H   0  0  0  0  0  0  0  0  0  0  0  0  # atno 8010 bound_to 7997
  139.6806  143.9588  152.2334 H   0  0  0  0  0  0  0  0  0  0  0  0  # atno 10167 bound_to 10162
  156.6771  130.5026  149.5982 H   0  0  0  0  0  0  0  0  0  0  0  0  # atno 10718 bound_to 10713
  154.4028  135.6027  153.5907 H   0  0  0  0  0  0  0  0  0  0  0  0  # atno 10763 bound_to 10752
  152.9788  135.5910  154.4164 H   0  0  0  0  0  0  0  0  0  0  0  0  # atno 10764 bound_to 10752
  154.3965  135.2842  155.2101 H   0  0  0  0  0  0  0  0  0  0  0  0  # atno 10765 bound_to 10752
  141.1662  133.7248  156.8584 H   0  0  0  0  0  0  0  0  0  0  0  0  # atno 11005 bound_to 11000
  146.2839  140.4486  142.8766 LP  0  0  0  0  0  0  0  0  0  0  0  0  # atno 17320 bound_to 7965
  144.8502  140.6990  143.6173 LP  0  0  0  0  0  0  0  0  0  0  0  0  # atno 17321 bound_to 7965
  139.9377  144.6701  150.8298 LP  0  0  0  0  0  0  0  0  0  0  0  0  # atno 17342 bound_to 10162
  140.7651  143.3265  151.2503 LP  0  0  0  0  0  0  0  0  0  0  0  0  # atno 17343 bound_to 10162
  156.1895  130.6550  151.1045 LP  0  0  0  0  0  0  0  0  0  0  0  0  # atno 17370 bound_to 10713
  157.7057  131.0757  150.6676 LP  0  0  0  0  0  0  0  0  0  0  0  0  # atno 17371 bound_to 10713
  140.1866  134.8995  157.3011 LP  0  0  0  0  0  0  0  0  0  0  0  0  # atno 17394 bound_to 11000
  140.2336  134.3879  155.7511 LP  0  0  0  0  0  0  0  0  0  0  0  0  # atno 17395 bound_to 11000

$$$$
