AV-unprocessed.smi:2313|AV-procd|sdf|9264|dock9
  -GOLD-   2272012493D 1   1.00000     0.00000
 Structure written by MMmdl.
 37 38  0  0  0  0  0  0  0  0  1 V2000
  154.0734  142.7281  163.1312 C   0  0  0  0  0  0  0  0  0  0  0  0
  153.4039  142.8715  161.7772 C   0  0  0  0  0  0  0  0  0  0  0  0
  152.4136  143.9064  161.5632 C   0  0  0  0  0  0  0  0  0  0  0  0
  151.8369  144.0243  160.3578 C   0  0  0  0  0  0  0  0  0  0  0  0
  152.1629  143.1689  159.2909 N   0  0  0  0  0  0  0  0  0  0  0  0
  151.4604  143.3890  158.0157 C   0  0  0  0  0  0  0  0  0  0  0  0
  150.7928  142.1196  157.4686 C   0  0  0  0  0  0  0  0  0  0  0  0
  150.8927  141.0513  158.0721 O   0  0  0  0  0  0  0  0  0  0  0  0
  150.0908  142.2728  156.3329 N   0  0  0  0  0  0  0  0  0  0  0  0
  149.3477  141.2581  155.5737 C   0  0  1  0  0  0  0  0  0  0  0  0
  150.3972  140.2579  155.0617 C   0  0  0  0  0  0  0  0  0  0  0  0
  148.4032  140.5141  156.4308 C   0  0  0  0  0  0  0  0  0  0  0  0
  147.6651  139.9302  157.1046 N   0  0  0  0  0  0  0  0  0  0  0  0
  148.5603  141.7909  154.3744 C   0  0  0  0  0  0  0  0  0  0  0  0
  147.0960  142.1564  154.4677 C   0  0  0  0  0  0  0  0  0  0  0  0
  147.5302  140.9885  153.6102 C   0  0  0  0  0  0  0  0  0  0  0  0
  153.0803  142.1642  159.4227 C   0  0  0  0  0  0  0  0  0  0  0  0
  153.3539  141.4115  158.4856 O   0  0  0  0  0  0  0  0  0  0  0  0
  153.7116  142.0475  160.7470 C   0  0  0  0  0  0  0  0  0  0  0  0
  154.6786  141.0058  160.8811 C   0  0  0  0  0  0  0  0  0  0  0  0
  155.4727  140.1728  161.0067 N   0  0  0  0  0  0  0  0  0  0  0  0
  153.6756  143.4488  163.8461 H   0  0  0  0  0  0  0  0  0  0  0  0
  155.1473  142.8955  163.0441 H   0  0  0  0  0  0  0  0  0  0  0  0
  153.9110  141.7281  163.5345 H   0  0  0  0  0  0  0  0  0  0  0  0
  152.1361  144.5766  162.3638 H   0  0  0  0  0  0  0  0  0  0  0  0
  151.0870  144.7703  160.1379 H   0  0  0  0  0  0  0  0  0  0  0  0
  150.6899  144.1523  158.1306 H   0  0  0  0  0  0  0  0  0  0  0  0
  152.1503  143.7909  157.2710 H   0  0  0  0  0  0  0  0  0  0  0  0
  150.0761  143.2015  155.9376 H   0  0  0  0  0  0  0  0  0  0  0  0
  149.9302  139.4413  154.5096 H   0  0  0  0  0  0  0  0  0  0  0  0
  150.9573  139.8142  155.8860 H   0  0  0  0  0  0  0  0  0  0  0  0
  151.1137  140.7381  154.3942 H   0  0  0  0  0  0  0  0  0  0  0  0
  149.1592  142.4525  153.7505 H   0  0  0  0  0  0  0  0  0  0  0  0
  146.5644  141.9294  155.3895 H   0  0  0  0  0  0  0  0  0  0  0  0
  146.7738  143.0623  153.9584 H   0  0  0  0  0  0  0  0  0  0  0  0
  147.4964  141.1212  152.5309 H   0  0  0  0  0  0  0  0  0  0  0  0
  147.2653  139.9940  153.9578 H   0  0  0  0  0  0  0  0  0  0  0  0
  1  2  1  0  0  0  0
  1 22  1  0  0  0  0
  1 23  1  0  0  0  0
  1 24  1  0  0  0  0
  2 19  2  0  0  0  0
  2  3  1  0  0  0  0
  3  4  2  0  0  0  0
  3 25  1  0  0  0  0
  4  5  1  0  0  0  0
  4 26  1  0  0  0  0
  5  6  1  0  0  0  0
  5 17  1  0  0  0  0
  6  7  1  0  0  0  0
  6 27  1  0  0  0  0
  6 28  1  0  0  0  0
  7  8  2  0  0  0  0
  7  9  1  0  0  0  0
  9 10  1  0  0  0  0
  9 29  1  0  0  0  0
 10 11  1  0  0  0  0
 10 12  1  0  0  0  0
 10 14  1  0  0  0  0
 11 30  1  0  0  0  0
 11 31  1  0  0  0  0
 11 32  1  0  0  0  0
 12 13  3  0  0  0  0
 14 16  1  0  0  0  0
 14 15  1  0  0  0  0
 14 33  1  0  0  0  0
 15 16  1  0  0  0  0
 15 34  1  0  0  0  0
 15 35  1  0  0  0  0
 16 36  1  0  0  0  0
 16 37  1  0  0  0  0
 17 18  2  0  0  0  0
 17 19  1  0  0  0  0
 19 20  1  0  0  0  0
 20 21  3  0  0  0  0
M  END
> <s_m_source_file>
AV-unprocessed.smi

> <i_m_source_file_index>
2313

> <i_lp_mmshare_version>
43012

> <i_f3d_flags>
0

> <s_epik_input>
W0NIM11jMVtjSF1bY0hdbihjKD1PKWMxQyNOKVtDSDJdQyg9TylbTkhdW0NAQF0oW0NIM10pKEMjTilbQ0hdMltDSDJdW0NIMl0y

> <s_epik_cmdline>
J2VwaWtfcHl0aG9uJywgJy1waCcsICc3LjAnLCAnLXRuJywgJzgnLCAnLW1hJywgJzIwMCcsICctbWV0YWxfYmluZGluZycsICctaW1hZScsICc8aW5maWxlLm1hZT4nLCAnLW9tYWUnLCAnPG91dGZpbGUubWFlPic=

> <r_lp_tautomer_probability>
1

> <r_epik_Ionization_Penalty>
4.65501e-07

> <r_epik_Ionization_Penalty_Charging>
2.39086e-10

> <r_epik_Ionization_Penalty_Neutral>
4.65262e-07

> <r_epik_State_Penalty>
-0

> <r_epik_Charging_Adjusted_Penalty>
2.39086e-10

> <i_epik_Tot_Q>
0

> <i_epik_Tot_abs_Q>
0

> <r_epik_Metal_State_Penalty>
-0

> <b_epik_Metal_Only>
0

> <s_lp_Force_Field>
OPLS_2005

> <r_lp_Energy>
24.9024

> <b_lp_Chiralities_Consistent>
1

> <s_lp_Variant>
AV-unprocessed.smi:2313-1

> <Gold.Version>
5.8.1

> <Gold.Id.Protein>
6NUR|6NUR_protein|mol2

> <Gold.PLP.Fitness>
52.0129

> <Gold.PLP.PLP>
-50.3011

> <Gold.PLP.part.hbond>
-1.0867

> <Gold.PLP.part.metal>
0.0000

> <Gold.PLP.part.buried>
-4.3941

> <Gold.PLP.part.nonpolar>
-43.9324

> <Gold.PLP.part.repulsive>
0.0849

> <Gold.PLP.ligand.clash>
0.0000

> <Gold.PLP.ligand.torsion>
0.8970

> <Gold.PLP.Chemscore.Hbond>
0.6708

> <Gold.PLP.Chemscore.CHOScore>
0.0000

> <Gold.PLP.Chemscore.Metal>
0.0000

> <Gold.Chemscore.Hbonds>
donor molecule, donor type, donor heavy atom, donor atom, acceptor molecule, acceptor atom, score
      L1  H     9    29       P1  8028  0.85
      P1  H  7997  8008       L1    18  0.09

> <Gold.PLP.Chemscore.Internal.Correction>
1.4934

> <Gold.Rescore>
     Score         DG    S(hbond)    S(metal)    S(lipo)     H(rot)  DE(clash)    DE(int)     intcor
      9.99     -15.81       0.94        0.00     100.61       1.80       0.03       5.79       ----

> <Gold.Chemscore.Fitness>
9.9907

> <Gold.Chemscore.DG>
-15.8090

> <Gold.Chemscore.ZeroCoef>
-5.4800

> <Gold.Chemscore.Hbond>
0.9443

> <Gold.Chemscore.Metal>
0.0000

> <Gold.Chemscore.Lipo>
100.6116

> <Gold.Chemscore.Internal_Hbond>
0.0000

> <Gold.Chemscore.DEClash>
0.0290

> <Gold.Chemscore.DEInternal>
5.7893

> <Gold.Chemscore.Rot>
1.7955

> <Gold.Chemscore.Internal.Correction>
   9.000000E+99

> <Gold.Chemscore.Hbonds>
donor molecule, donor type, donor heavy atom, donor atom, acceptor molecule, acceptor atom, score
      L1  H     9    29       P1  8028  0.82
      P1  H  7997  8008       L1    18  0.09

> <Gold.Chemscore.Hbond.Weighted>
-3.1540

> <Gold.Chemscore.Metal.Weighted>
-0.0000

> <Gold.Chemscore.Lipo.Weighted>
-11.7716

> <Gold.Chemscore.Internal_Hbond.Weighted>
0.0000

> <Gold.Chemscore.DEClash.Weighted>
0.0290

> <Gold.Chemscore.DEInternal.Weighted>
5.7893

> <Gold.Chemscore.Rot.Weighted>
4.5965

> <Gold.Chemscore.Internal.Correction.Weighted>
   9.000000E+99

> <Gold.Protein.RotatedTorsions>
[ 6907 6896 6895 6894 ] final -168.63 input  -60.11 | X-H torsion
[ 7974 7965 7964 7962 ] final  -62.14 input  175.53 | X-H torsion
[ 8008 7997 7996 7995 ] final  -93.73 input   59.86 | X-H torsion
[ 10167 10162 10161 10158 ] final  128.64 input  -65.29 | X-H torsion
[ 10718 10713 10712 10709 ] final   95.17 input   66.30 | X-H torsion
[ 10763 10752 10751 10750 ] final  -54.81 input  -60.55 | X-H torsion
[ 11005 11000 10999 10996 ] final  100.92 input  -57.11 | X-H torsion

> <Gold.Protein.ActiveResidues>
 VAL166  LYS551  ARG553  GLY616  TRP617  ASP618  TYR619  PRO620  LYS621  CYS622 
 ASP623  PHE694  ASN695  SER759  ASP760  ASP761  ALA762  ILE779  LEU786  VAL792 
 PHE793  MET794  SER795  GLU796  ALA797  LYS798  CYS799  TRP800  GLU811  SER814 

> <Gold.Protein.RotatedAtoms>
  151.4787  133.3551  159.2834 H   0  0  0  0  0  0  0  0  0  0  0  0  # atno 6907 bound_to 6896
  150.8912  134.8318  159.7305 H   0  0  0  0  0  0  0  0  0  0  0  0  # atno 6908 bound_to 6896
  152.4824  134.4696  159.9683 H   0  0  0  0  0  0  0  0  0  0  0  0  # atno 6909 bound_to 6896
  145.7949  140.8688  143.0261 H   0  0  0  0  0  0  0  0  0  0  0  0  # atno 7974 bound_to 7965
  154.7393  140.0496  157.0797 H   0  0  0  0  0  0  0  0  0  0  0  0  # atno 8008 bound_to 7997
  155.0199  140.3146  155.4778 H   0  0  0  0  0  0  0  0  0  0  0  0  # atno 8009 bound_to 7997
  156.2860  140.2169  156.5316 H   0  0  0  0  0  0  0  0  0  0  0  0  # atno 8010 bound_to 7997
  139.5517  144.6818  151.4303 H   0  0  0  0  0  0  0  0  0  0  0  0  # atno 10167 bound_to 10162
  157.6941  131.0537  150.4298 H   0  0  0  0  0  0  0  0  0  0  0  0  # atno 10718 bound_to 10713
  154.1809  135.6443  153.5034 H   0  0  0  0  0  0  0  0  0  0  0  0  # atno 10763 bound_to 10752
  153.0059  135.5405  154.6515 H   0  0  0  0  0  0  0  0  0  0  0  0  # atno 10764 bound_to 10752
  154.5879  135.2931  155.0638 H   0  0  0  0  0  0  0  0  0  0  0  0  # atno 10765 bound_to 10752
  139.8772  134.9161  156.4828 H   0  0  0  0  0  0  0  0  0  0  0  0  # atno 11005 bound_to 11000
  144.6776  140.0177  143.7484 LP  0  0  0  0  0  0  0  0  0  0  0  0  # atno 17320 bound_to 7965
  145.9938  139.3036  143.0969 LP  0  0  0  0  0  0  0  0  0  0  0  0  # atno 17321 bound_to 7965
  140.6781  143.8144  150.7085 LP  0  0  0  0  0  0  0  0  0  0  0  0  # atno 17342 bound_to 10162
  140.1589  143.4293  152.2081 LP  0  0  0  0  0  0  0  0  0  0  0  0  # atno 17343 bound_to 10162
  156.4666  130.4043  149.6543 LP  0  0  0  0  0  0  0  0  0  0  0  0  # atno 17370 bound_to 10713
  156.3639  130.7496  151.2471 LP  0  0  0  0  0  0  0  0  0  0  0  0  # atno 17371 bound_to 10713
  140.8714  133.7985  155.9369 LP  0  0  0  0  0  0  0  0  0  0  0  0  # atno 17394 bound_to 11000
  140.8948  134.2451  157.5074 LP  0  0  0  0  0  0  0  0  0  0  0  0  # atno 17395 bound_to 11000

$$$$
