AV-unprocessed.smi:1978|AV-procd|sdf|8012|dock2
  -GOLD-   2272010203D 1   1.00000     0.00000
 Structure written by MMmdl.
 44 45  0  0  0  0  0  0  0  0  3 V2000
  153.1376  143.4852  159.2835 C   0  0  0  0  0  0  0  0  0  0  0  0
  152.2497  142.7847  158.3133 C   0  0  0  0  0  0  0  0  0  0  0  0
  151.3207  143.2278  157.4147 C   0  0  0  0  0  0  0  0  0  0  0  0
  150.8477  142.0263  156.8228 C   0  0  0  0  0  0  0  0  0  0  0  0
  149.8477  142.0609  155.8152 N   0  0  0  0  0  0  0  0  0  0  0  0
  149.6356  141.1947  154.8074 C   0  0  0  0  0  0  0  0  0  0  0  0
  150.3614  140.2022  154.6731 O   0  0  0  0  0  0  0  0  0  0  0  0
  148.5800  141.5602  154.0299 N   0  5  0  0  0  0  0  0  0  0  0  0
  147.7287  140.6271  153.2921 C   0  0  0  0  0  0  0  0  0  0  0  0
  146.8464  139.8021  154.2691 C   0  0  2  0  0  0  0  0  0  0  0  0
  147.6439  139.0064  155.3344 C   0  0  0  0  0  0  0  0  0  0  0  0
  145.8700  138.9459  153.5094 N   0  3  1  0  0  0  0  0  0  0  0  0
  146.4889  138.1504  152.4003 C   0  0  0  0  0  0  0  0  0  0  0  0
  145.4299  137.5093  151.4962 C   0  0  0  0  0  0  0  0  0  0  0  0
  144.5245  136.5944  152.3193 C   0  0  0  0  0  0  0  0  0  0  0  0
  143.8965  137.3987  153.4597 C   0  0  0  0  0  0  0  0  0  0  0  0
  144.9529  138.0983  154.3473 C   0  0  2  0  0  0  0  0  0  0  0  0
  144.1996  138.8859  155.4423 C   0  0  0  0  0  0  0  0  0  0  0  0
  151.4398  140.9474  157.3137 N   0  0  0  0  0  0  0  0  0  0  0  0
  152.3409  141.4280  158.2711 O   0  0  0  0  0  0  0  0  0  0  0  0
  152.8567  144.5339  159.3818 H   0  0  0  0  0  0  0  0  0  0  0  0
  154.1764  143.4419  158.9563 H   0  0  0  0  0  0  0  0  0  0  0  0
  153.0731  143.0248  160.2695 H   0  0  0  0  0  0  0  0  0  0  0  0
  151.0258  144.2474  157.2159 H   0  0  0  0  0  0  0  0  0  0  0  0
  149.2060  142.8378  155.8657 H   0  0  0  0  0  0  0  0  0  0  0  0
  147.0686  141.1545  152.6015 H   0  0  0  0  0  0  0  0  0  0  0  0
  148.3157  139.9467  152.6749 H   0  0  0  0  0  0  0  0  0  0  0  0
  146.2955  140.5559  154.8225 H   0  0  0  0  0  0  0  0  0  0  0  0
  148.2185  139.6657  155.9873 H   0  0  0  0  0  0  0  0  0  0  0  0
  148.3473  138.2959  154.8970 H   0  0  0  0  0  0  0  0  0  0  0  0
  146.9693  138.4452  155.9814 H   0  0  0  0  0  0  0  0  0  0  0  0
  147.1322  138.7776  151.7830 H   0  0  0  0  0  0  0  0  0  0  0  0
  147.1224  137.3647  152.8142 H   0  0  0  0  0  0  0  0  0  0  0  0
  144.8377  138.2845  151.0079 H   0  0  0  0  0  0  0  0  0  0  0  0
  145.9130  136.9381  150.7030 H   0  0  0  0  0  0  0  0  0  0  0  0
  143.7477  136.1620  151.6879 H   0  0  0  0  0  0  0  0  0  0  0  0
  145.1011  135.7616  152.7242 H   0  0  0  0  0  0  0  0  0  0  0  0
  143.2196  138.1445  153.0400 H   0  0  0  0  0  0  0  0  0  0  0  0
  143.2796  136.7335  154.0652 H   0  0  0  0  0  0  0  0  0  0  0  0
  145.5550  137.3296  154.8340 H   0  0  0  0  0  0  0  0  0  0  0  0
  143.3944  138.2872  155.8689 H   0  0  0  0  0  0  0  0  0  0  0  0
  143.7522  139.7967  155.0426 H   0  0  0  0  0  0  0  0  0  0  0  0
  144.8388  139.1557  156.2819 H   0  0  0  0  0  0  0  0  0  0  0  0
  145.2594  139.6132  153.0594 H   0  0  0  0  0  0  0  0  0  0  0  0
  1  2  1  0  0  0  0
  1 21  1  0  0  0  0
  1 22  1  0  0  0  0
  1 23  1  0  0  0  0
  2 20  1  0  0  0  0
  2  3  2  0  0  0  0
  3  4  1  0  0  0  0
  3 24  1  0  0  0  0
  4  5  1  0  0  0  0
  4 19  2  0  0  0  0
  5  6  1  0  0  0  0
  5 25  1  0  0  0  0
  6  7  2  0  0  0  0
  6  8  1  0  0  0  0
  8  9  1  0  0  0  0
  9 10  1  0  0  0  0
  9 26  1  0  0  0  0
  9 27  1  0  0  0  0
 10 11  1  0  0  0  0
 10 12  1  0  0  0  0
 10 28  1  0  0  0  0
 11 29  1  0  0  0  0
 11 30  1  0  0  0  0
 11 31  1  0  0  0  0
 12 17  1  0  0  0  0
 12 13  1  0  0  0  0
 12 44  1  0  0  0  0
 13 14  1  0  0  0  0
 13 32  1  0  0  0  0
 13 33  1  0  0  0  0
 14 15  1  0  0  0  0
 14 34  1  0  0  0  0
 14 35  1  0  0  0  0
 15 16  1  0  0  0  0
 15 36  1  0  0  0  0
 15 37  1  0  0  0  0
 16 17  1  0  0  0  0
 16 38  1  0  0  0  0
 16 39  1  0  0  0  0
 17 18  1  0  0  0  0
 17 40  1  0  0  0  0
 18 41  1  0  0  0  0
 18 42  1  0  0  0  0
 18 43  1  0  0  0  0
 19 20  1  0  0  0  0
M  CHG  1   8  -1
M  CHG  1  12   1
M  END
> <s_m_source_file>
AV-unprocessed.smi

> <i_m_source_file_index>
1978

> <i_lp_mmshare_version>
43012

> <i_f3d_flags>
0

> <s_epik_input>
W0NIM11jMVtjSF1jKG5vMSlbTkhdQyg9TylbTkhdW0NIMl1bQ0BIXShbQ0gzXSlOMltDSDJdW0NIMl1bQ0gyXVtDSDJdW0NASF0yW0NIM10=

> <s_epik_cmdline>
J2VwaWtfcHl0aG9uJywgJy1waCcsICc3LjAnLCAnLXRuJywgJzgnLCAnLW1hJywgJzIwMCcsICctbWV0YWxfYmluZGluZycsICctaW1hZScsICc8aW5maWxlLm1hZT4nLCAnLW9tYWUnLCAnPG91dGZpbGUubWFlPic=

> <r_epik_Ionization_Penalty>
6.7666

> <r_epik_Ionization_Penalty_Charging>
6.7666

> <r_epik_Ionization_Penalty_Neutral>
5.77131e-06

> <r_epik_State_Penalty>
6.79217

> <r_epik_Charging_Adjusted_Penalty>
13.5588

> <i_epik_Tot_Q>
0

> <i_epik_Tot_abs_Q>
2

> <r_epik_Metal_State_Penalty>
2.72569

> <b_epik_Metal_Only>
1

> <s_lp_Force_Field>
OPLS_2005

> <r_lp_Energy>
22.8368

> <b_lp_Chiralities_Consistent>
1

> <s_lp_Variant>
AV-unprocessed.smi:1978-21

> <Gold.Version>
5.8.1

> <Gold.Id.Protein>
6NUR|6NUR_protein|mol2

> <Gold.PLP.Fitness>
39.7218

> <Gold.PLP.PLP>
-27.8897

> <Gold.PLP.part.hbond>
-4.0000

> <Gold.PLP.part.metal>
0.0000

> <Gold.PLP.part.buried>
4.2076

> <Gold.PLP.part.nonpolar>
-27.8464

> <Gold.PLP.part.repulsive>
0.3851

> <Gold.PLP.ligand.clash>
0.0000

> <Gold.PLP.ligand.torsion>
0.5589

> <Gold.PLP.Chemscore.Hbond>
4.2407

> <Gold.PLP.Chemscore.CHOScore>
0.0000

> <Gold.PLP.Chemscore.Metal>
0.0000

> <Gold.Chemscore.Hbonds>
donor molecule, donor type, donor heavy atom, donor atom, acceptor molecule, acceptor atom, score
      L1  H     5    25       P1  8028  0.98
      L1  H    12    44       P1 10175  2.00
      P1  H  7989  7998       L1     7  1.00
      P1  H  8011  8017       L1     8  0.24

> <Gold.PLP.Chemscore.Internal.Correction>
0.2279

> <Gold.Rescore>
     Score         DG    S(hbond)    S(metal)    S(lipo)     H(rot)  DE(clash)    DE(int)     intcor
     14.64     -18.19       2.51        0.00      70.32       1.52       1.80       1.75       ----

> <Gold.Chemscore.Fitness>
14.6428

> <Gold.Chemscore.DG>
-18.1939

> <Gold.Chemscore.ZeroCoef>
-5.4800

> <Gold.Chemscore.Hbond>
2.5076

> <Gold.Chemscore.Metal>
0.0000

> <Gold.Chemscore.Lipo>
70.3193

> <Gold.Chemscore.Internal_Hbond>
0.0000

> <Gold.Chemscore.DEClash>
1.8047

> <Gold.Chemscore.DEInternal>
1.7465

> <Gold.Chemscore.Rot>
1.5190

> <Gold.Chemscore.Internal.Correction>
   9.000000E+99

> <Gold.Chemscore.Hbonds>
donor molecule, donor type, donor heavy atom, donor atom, acceptor molecule, acceptor atom, score
      L1  H     5    25       P1  8028  0.93
      L1  H    12    44       P1 10175  1.00
      P1  H  7989  7998       L1     7  0.25
      P1  H  8011  8017       L1     8  0.01

> <Gold.Chemscore.Hbond.Weighted>
-8.3752

> <Gold.Chemscore.Metal.Weighted>
-0.0000

> <Gold.Chemscore.Lipo.Weighted>
-8.2274

> <Gold.Chemscore.Internal_Hbond.Weighted>
0.0000

> <Gold.Chemscore.DEClash.Weighted>
1.8047

> <Gold.Chemscore.DEInternal.Weighted>
1.7465

> <Gold.Chemscore.Rot.Weighted>
3.8886

> <Gold.Chemscore.Internal.Correction.Weighted>
   9.000000E+99

> <Gold.Protein.RotatedTorsions>
[ 6907 6896 6895 6894 ] final  -85.45 input  -60.11 | X-H torsion
[ 7974 7965 7964 7962 ] final   86.71 input  175.53 | X-H torsion
[ 8008 7997 7996 7995 ] final  145.07 input   59.86 | X-H torsion
[ 10167 10162 10161 10158 ] final  -87.69 input  -65.29 | X-H torsion
[ 10718 10713 10712 10709 ] final -138.22 input   66.30 | X-H torsion
[ 10763 10752 10751 10750 ] final    5.22 input  -60.55 | X-H torsion
[ 11005 11000 10999 10996 ] final  -53.15 input  -57.11 | X-H torsion

> <Gold.Protein.ActiveResidues>
 VAL166  LYS551  ARG553  GLY616  TRP617  ASP618  TYR619  PRO620  LYS621  CYS622 
 ASP623  PHE694  ASN695  SER759  ASP760  ASP761  ALA762  ILE779  LEU786  VAL792 
 PHE793  MET794  SER795  GLU796  ALA797  LYS798  CYS799  TRP800  GLU811  SER814 

> <Gold.Protein.RotatedAtoms>
  150.6870  134.3202  159.4783 H   0  0  0  0  0  0  0  0  0  0  0  0  # atno 6907 bound_to 6896
  152.1078  134.9293  160.0577 H   0  0  0  0  0  0  0  0  0  0  0  0  # atno 6908 bound_to 6896
  152.0547  133.4000  159.4429 H   0  0  0  0  0  0  0  0  0  0  0  0  # atno 6909 bound_to 6896
  145.5686  139.2311  143.2419 H   0  0  0  0  0  0  0  0  0  0  0  0  # atno 7974 bound_to 7965
  156.2892  140.2219  156.5156 H   0  0  0  0  0  0  0  0  0  0  0  0  # atno 8008 bound_to 7997
  154.7572  140.0476  157.0965 H   0  0  0  0  0  0  0  0  0  0  0  0  # atno 8009 bound_to 7997
  155.0036  140.3104  155.4861 H   0  0  0  0  0  0  0  0  0  0  0  0  # atno 8010 bound_to 7997
  140.3820  143.2744  151.9372 H   0  0  0  0  0  0  0  0  0  0  0  0  # atno 10167 bound_to 10162
  156.2969  130.7406  151.1447 H   0  0  0  0  0  0  0  0  0  0  0  0  # atno 10718 bound_to 10713
  153.2619  135.6924  153.7569 H   0  0  0  0  0  0  0  0  0  0  0  0  # atno 10763 bound_to 10752
  153.6625  135.3358  155.3132 H   0  0  0  0  0  0  0  0  0  0  0  0  # atno 10764 bound_to 10752
  154.8433  135.4480  154.1613 H   0  0  0  0  0  0  0  0  0  0  0  0  # atno 10765 bound_to 10752
  141.0961  133.6624  156.4130 H   0  0  0  0  0  0  0  0  0  0  0  0  # atno 11005 bound_to 11000
  146.1800  140.6512  142.9193 LP  0  0  0  0  0  0  0  0  0  0  0  0  # atno 17320 bound_to 7965
  144.7448  140.5040  143.6843 LP  0  0  0  0  0  0  0  0  0  0  0  0  # atno 17321 bound_to 7965
  139.4795  144.5810  151.7933 LP  0  0  0  0  0  0  0  0  0  0  0  0  # atno 17342 bound_to 10162
  140.4928  144.1285  150.5954 LP  0  0  0  0  0  0  0  0  0  0  0  0  # atno 17343 bound_to 10162
  157.7357  131.0569  150.5452 LP  0  0  0  0  0  0  0  0  0  0  0  0  # atno 17370 bound_to 10713
  156.5575  130.4247  149.6078 LP  0  0  0  0  0  0  0  0  0  0  0  0  # atno 17371 bound_to 10713
  140.5136  134.6372  157.5293 LP  0  0  0  0  0  0  0  0  0  0  0  0  # atno 17394 bound_to 11000
  139.9799  134.7155  155.9880 LP  0  0  0  0  0  0  0  0  0  0  0  0  # atno 17395 bound_to 11000

$$$$
