AV-unprocessed.smi:454|AV-procd|sdf|2612|dock2
  -GOLD-   2262023 13D 1   1.00000     0.00000
 Structure written by MMmdl.
 43 44  0  0  0  0  0  0  0  0  1 V2000
  147.7129  136.8620  163.3391 C   0  0  0  0  0  0  0  0  0  0  0  0
  147.7196  137.1961  161.9623 O   0  0  0  0  0  0  0  0  0  0  0  0
  146.8775  136.3520  161.1945 C   0  0  0  0  0  0  0  0  0  0  0  0
  147.6823  135.1387  160.7175 C   0  0  0  0  0  0  0  0  0  0  0  0
  148.0246  135.2460  159.3063 N   0  0  0  0  0  0  0  0  0  0  0  0
  148.8424  136.2873  158.8481 C   0  0  0  0  0  0  0  0  0  0  0  0
  148.4557  136.9863  157.6840 C   0  0  0  0  0  0  0  0  0  0  0  0
  149.2756  138.0302  157.2130 C   0  0  0  0  0  0  0  0  0  0  0  0
  150.4547  138.3251  157.9231 C   0  0  0  0  0  0  0  0  0  0  0  0
  151.5420  139.6333  157.3742 S   0  0  0  0  0  0  0  0  0  0  0  0
  152.9309  139.2111  157.6155 O   0  0  0  0  0  0  0  0  0  0  0  0
  151.1242  140.0457  156.0252 O   0  0  0  0  0  0  0  0  0  0  0  0
  151.1840  140.9398  158.4661 N   0  0  0  0  0  0  0  0  0  0  0  0
  150.3622  142.0709  157.9990 C   0  0  0  0  0  0  0  0  0  0  0  0
  151.2334  143.2870  157.6289 C   0  0  0  0  0  0  0  0  0  0  0  0
  152.0878  143.6661  158.7508 N   0  0  0  0  0  0  0  0  0  0  0  0
  152.8801  144.8308  158.3827 C   0  0  0  0  0  0  0  0  0  0  0  0
  152.9809  142.5566  159.0747 C   0  0  0  0  0  0  0  0  0  0  0  0
  152.1709  141.3147  159.4949 C   0  0  0  0  0  0  0  0  0  0  0  0
  150.7573  137.5843  159.0821 C   0  0  0  0  0  0  0  0  0  0  0  0
  149.9738  136.5817  159.5341 N   0  0  0  0  0  0  0  0  0  0  0  0
  148.3698  137.5401  163.8837 H   0  0  0  0  0  0  0  0  0  0  0  0
  148.0718  135.8444  163.4999 H   0  0  0  0  0  0  0  0  0  0  0  0
  146.7114  136.9513  163.7619 H   0  0  0  0  0  0  0  0  0  0  0  0
  146.0452  136.0131  161.8133 H   0  0  0  0  0  0  0  0  0  0  0  0
  146.4542  136.8916  160.3455 H   0  0  0  0  0  0  0  0  0  0  0  0
  148.5887  135.0306  161.3144 H   0  0  0  0  0  0  0  0  0  0  0  0
  147.0901  134.2345  160.8623 H   0  0  0  0  0  0  0  0  0  0  0  0
  147.5211  134.6759  158.6421 H   0  0  0  0  0  0  0  0  0  0  0  0
  147.5479  136.7292  157.1580 H   0  0  0  0  0  0  0  0  0  0  0  0
  149.0081  138.5792  156.3223 H   0  0  0  0  0  0  0  0  0  0  0  0
  149.7487  141.7710  157.1499 H   0  0  0  0  0  0  0  0  0  0  0  0
  149.6708  142.3465  158.7963 H   0  0  0  0  0  0  0  0  0  0  0  0
  151.8433  143.0696  156.7522 H   0  0  0  0  0  0  0  0  0  0  0  0
  150.5888  144.1262  157.3642 H   0  0  0  0  0  0  0  0  0  0  0  0
  153.5203  145.1352  159.2115 H   0  0  0  0  0  0  0  0  0  0  0  0
  152.2321  145.6730  158.1378 H   0  0  0  0  0  0  0  0  0  0  0  0
  153.5142  144.6253  157.5187 H   0  0  0  0  0  0  0  0  0  0  0  0
  153.6175  142.3293  158.2197 H   0  0  0  0  0  0  0  0  0  0  0  0
  153.6425  142.8494  159.8908 H   0  0  0  0  0  0  0  0  0  0  0  0
  151.6384  141.5234  160.4234 H   0  0  0  0  0  0  0  0  0  0  0  0
  152.8387  140.4796  159.7042 H   0  0  0  0  0  0  0  0  0  0  0  0
  151.6521  137.7851  159.6524 H   0  0  0  0  0  0  0  0  0  0  0  0
  1  2  1  0  0  0  0
  1 22  1  0  0  0  0
  1 23  1  0  0  0  0
  1 24  1  0  0  0  0
  2  3  1  0  0  0  0
  3  4  1  0  0  0  0
  3 25  1  0  0  0  0
  3 26  1  0  0  0  0
  4  5  1  0  0  0  0
  4 27  1  0  0  0  0
  4 28  1  0  0  0  0
  5  6  1  0  0  0  0
  5 29  1  0  0  0  0
  6 21  1  0  0  0  0
  6  7  2  0  0  0  0
  7  8  1  0  0  0  0
  7 30  1  0  0  0  0
  8  9  2  0  0  0  0
  8 31  1  0  0  0  0
  9 10  1  0  0  0  0
  9 20  1  0  0  0  0
 10 11  2  0  0  0  0
 10 12  2  0  0  0  0
 10 13  1  0  0  0  0
 13 19  1  0  0  0  0
 13 14  1  0  0  0  0
 14 15  1  0  0  0  0
 14 32  1  0  0  0  0
 14 33  1  0  0  0  0
 15 16  1  0  0  0  0
 15 34  1  0  0  0  0
 15 35  1  0  0  0  0
 16 17  1  0  0  0  0
 16 18  1  0  0  0  0
 17 36  1  0  0  0  0
 17 37  1  0  0  0  0
 17 38  1  0  0  0  0
 18 19  1  0  0  0  0
 18 39  1  0  0  0  0
 18 40  1  0  0  0  0
 19 41  1  0  0  0  0
 19 42  1  0  0  0  0
 20 21  2  0  0  0  0
 20 43  1  0  0  0  0
M  END
> <s_m_source_file>
AV-unprocessed.smi

> <i_m_source_file_index>
454

> <i_lp_mmshare_version>
43012

> <i_f3d_flags>
0

> <s_epik_input>
W0NIM11PW0NIMl1bQ0gyXVtOSF1jMVtjSF1bY0hdYyhbY0hdbjEpUyg9TykoPU8pTjJbQ0gyXVtDSDJdTihbQ0gzXSlbQ0gyXVtDSDJdMg==

> <s_epik_cmdline>
J2VwaWtfcHl0aG9uJywgJy1waCcsICc3LjAnLCAnLXRuJywgJzgnLCAnLW1hJywgJzIwMCcsICctbWV0YWxfYmluZGluZycsICctaW1hZScsICc8aW5maWxlLm1hZT4nLCAnLW9tYWUnLCAnPG91dGZpbGUubWFlPic=

> <r_lp_tautomer_probability>
1

> <r_epik_Ionization_Penalty>
0.0786276

> <r_epik_Ionization_Penalty_Charging>
0

> <r_epik_Ionization_Penalty_Neutral>
0.0786276

> <r_epik_State_Penalty>
0.0691961

> <r_epik_Charging_Adjusted_Penalty>
0.0691961

> <i_epik_Tot_Q>
0

> <i_epik_Tot_abs_Q>
0

> <r_epik_Metal_State_Penalty>
0.0691754

> <b_epik_Metal_Only>
0

> <s_lp_Force_Field>
OPLS_2005

> <r_lp_Energy>
0.101834

> <b_lp_Chiralities_Consistent>
1

> <s_lp_Variant>
AV-unprocessed.smi:454-1

> <Gold.Version>
5.8.1

> <Gold.Id.Protein>
6NUR|6NUR_protein|mol2

> <Gold.PLP.Fitness>
44.1792

> <Gold.PLP.PLP>
-35.6747

> <Gold.PLP.part.hbond>
-4.0000

> <Gold.PLP.part.metal>
0.0000

> <Gold.PLP.part.buried>
-5.1408

> <Gold.PLP.part.nonpolar>
-26.1986

> <Gold.PLP.part.repulsive>
0.1035

> <Gold.PLP.ligand.clash>
0.0000

> <Gold.PLP.ligand.torsion>
2.9311

> <Gold.PLP.Chemscore.Hbond>
3.4144

> <Gold.PLP.Chemscore.CHOScore>
0.0000

> <Gold.PLP.Chemscore.Metal>
0.0000

> <Gold.Chemscore.Hbonds>
donor molecule, donor type, donor heavy atom, donor atom, acceptor molecule, acceptor atom, score
      P1  H  6896  6908       L1    21  1.00
      P1  H  6931  6943       L1     2  1.00
      P1  H  6934  6947       L1     2  0.35
      P1  H  7997  8008       L1    11  1.00

> <Gold.PLP.Chemscore.Internal.Correction>
4.1235

> <Gold.Rescore>
     Score         DG    S(hbond)    S(metal)    S(lipo)     H(rot)  DE(clash)    DE(int)     intcor
     17.61     -20.64       2.70        0.00      83.09       1.40       0.04       2.99       ----

> <Gold.Chemscore.Fitness>
17.6107

> <Gold.Chemscore.DG>
-20.6358

> <Gold.Chemscore.ZeroCoef>
-5.4800

> <Gold.Chemscore.Hbond>
2.6980

> <Gold.Chemscore.Metal>
0.0000

> <Gold.Chemscore.Lipo>
83.0861

> <Gold.Chemscore.Internal_Hbond>
0.0000

> <Gold.Chemscore.DEClash>
0.0376

> <Gold.Chemscore.DEInternal>
2.9874

> <Gold.Chemscore.Rot>
1.3970

> <Gold.Chemscore.Internal.Correction>
   9.000000E+99

> <Gold.Chemscore.Hbonds>
donor molecule, donor type, donor heavy atom, donor atom, acceptor molecule, acceptor atom, score
      P1  H  6896  6908       L1    21  0.36
      P1  H  6931  6943       L1     2  0.24
      P1  H  6934  6947       L1     2  0.05
      P1  H  7997  8008       L1    11  0.99

> <Gold.Chemscore.Hbond.Weighted>
-9.0112

> <Gold.Chemscore.Metal.Weighted>
-0.0000

> <Gold.Chemscore.Lipo.Weighted>
-9.7211

> <Gold.Chemscore.Internal_Hbond.Weighted>
0.0000

> <Gold.Chemscore.DEClash.Weighted>
0.0376

> <Gold.Chemscore.DEInternal.Weighted>
2.9874

> <Gold.Chemscore.Rot.Weighted>
3.5764

> <Gold.Chemscore.Internal.Correction.Weighted>
   9.000000E+99

> <Gold.Protein.RotatedTorsions>
[ 6907 6896 6895 6894 ] final -171.09 input  -60.11 | X-H torsion
[ 7974 7965 7964 7962 ] final  136.29 input  175.53 | X-H torsion
[ 8008 7997 7996 7995 ] final  -67.33 input   59.86 | X-H torsion
[ 10167 10162 10161 10158 ] final  154.43 input  -65.29 | X-H torsion
[ 10718 10713 10712 10709 ] final   42.41 input   66.30 | X-H torsion
[ 10763 10752 10751 10750 ] final  -20.63 input  -60.55 | X-H torsion
[ 11005 11000 10999 10996 ] final -118.95 input  -57.11 | X-H torsion

> <Gold.Protein.ActiveResidues>
 VAL166  LYS551  ARG553  GLY616  TRP617  ASP618  TYR619  PRO620  LYS621  CYS622 
 ASP623  PHE694  ASN695  SER759  ASP760  ASP761  ALA762  ILE779  LEU786  VAL792 
 PHE793  MET794  SER795  GLU796  ALA797  LYS798  CYS799  TRP800  GLU811  SER814 

> <Gold.Protein.RotatedAtoms>
  151.5183  133.3471  159.2896 H   0  0  0  0  0  0  0  0  0  0  0  0  # atno 6907 bound_to 6896
  150.8668  134.8036  159.7136 H   0  0  0  0  0  0  0  0  0  0  0  0  # atno 6908 bound_to 6896
  152.4670  134.5061  159.9791 H   0  0  0  0  0  0  0  0  0  0  0  0  # atno 6909 bound_to 6896
  144.9579  139.4743  143.5494 H   0  0  0  0  0  0  0  0  0  0  0  0  # atno 7974 bound_to 7965
  154.4793  140.0895  156.7338 H   0  0  0  0  0  0  0  0  0  0  0  0  # atno 8008 bound_to 7997
  155.4513  140.3457  155.4283 H   0  0  0  0  0  0  0  0  0  0  0  0  # atno 8009 bound_to 7997
  156.1166  140.1462  156.9253 H   0  0  0  0  0  0  0  0  0  0  0  0  # atno 8010 bound_to 7997
  139.4823  144.5187  151.7911 H   0  0  0  0  0  0  0  0  0  0  0  0  # atno 10167 bound_to 10162
  157.4045  130.7879  149.7377 H   0  0  0  0  0  0  0  0  0  0  0  0  # atno 10718 bound_to 10713
  153.6234  135.6992  153.5302 H   0  0  0  0  0  0  0  0  0  0  0  0  # atno 10763 bound_to 10752
  153.2918  135.4154  155.1173 H   0  0  0  0  0  0  0  0  0  0  0  0  # atno 10764 bound_to 10752
  154.8538  135.3627  154.5776 H   0  0  0  0  0  0  0  0  0  0  0  0  # atno 10765 bound_to 10752
  141.0250  134.0067  157.3227 H   0  0  0  0  0  0  0  0  0  0  0  0  # atno 11005 bound_to 11000
  146.3343  139.8709  142.8840 LP  0  0  0  0  0  0  0  0  0  0  0  0  # atno 17320 bound_to 7965
  145.2744  141.0119  143.3753 LP  0  0  0  0  0  0  0  0  0  0  0  0  # atno 17321 bound_to 7965
  140.4698  144.1603  150.5916 LP  0  0  0  0  0  0  0  0  0  0  0  0  # atno 17342 bound_to 10162
  140.4394  143.2533  151.9492 LP  0  0  0  0  0  0  0  0  0  0  0  0  # atno 17343 bound_to 10162
  155.9832  130.4002  150.3374 LP  0  0  0  0  0  0  0  0  0  0  0  0  # atno 17370 bound_to 10713
  157.1505  131.0319  151.2887 LP  0  0  0  0  0  0  0  0  0  0  0  0  # atno 17371 bound_to 10713
  139.9170  135.0197  156.7920 LP  0  0  0  0  0  0  0  0  0  0  0  0  # atno 17394 bound_to 11000
  140.6507  133.9734  155.7753 LP  0  0  0  0  0  0  0  0  0  0  0  0  # atno 17395 bound_to 11000

$$$$
