AV-unprocessed.smi:1011|AV-procd|sdf|4421|dock8
  -GOLD-   22720 2373D 1   1.00000     0.00000
 Structure written by MMmdl.
 44 46  0  0  0  0  0  0  0  0  2 V2000
  150.0164  141.9342  157.5621 C   0  0  0  0  0  0  0  0  0  0  0  0
  149.9747  141.0782  156.3292 C   0  0  0  0  0  0  0  0  0  0  0  0
  151.0693  140.6453  155.5278 C   0  0  0  0  0  0  0  0  0  0  0  0
  150.6923  139.8998  154.5018 N   0  0  0  0  0  0  0  0  0  0  0  0
  149.3489  139.8276  154.6129 N   0  0  0  0  0  0  0  0  0  0  0  0
  148.5839  139.0820  153.6323 C   0  0  0  0  0  0  0  0  0  0  0  0
  147.4452  139.9239  153.0388 C   0  0  0  0  0  0  0  0  0  0  0  0
  146.5548  139.0661  152.2740 N   0  0  0  0  0  0  0  0  0  0  0  0
  145.8621  138.1540  153.1692 C   0  0  0  0  0  0  0  0  0  0  0  0
  145.4918  136.8756  152.4897 C   0  0  0  0  0  0  0  0  0  0  0  0
  146.3654  136.0236  151.8817 N   0  3  0  0  0  0  0  0  0  0  0  0
  145.6766  134.9259  151.3661 C   0  0  0  0  0  0  0  0  0  0  0  0
  146.1307  133.8089  150.6719 C   0  0  0  0  0  0  0  0  0  0  0  0
  145.1587  132.8606  150.2901 C   0  0  0  0  0  0  0  0  0  0  0  0
  145.6479  131.4485  149.4286 Cl  0  0  0  0  0  0  0  0  0  0  0  0
  143.7954  133.0448  150.6012 C   0  0  0  0  0  0  0  0  0  0  0  0
  143.3464  134.1823  151.3043 C   0  0  0  0  0  0  0  0  0  0  0  0
  144.3146  135.1147  151.6758 C   0  0  0  0  0  0  0  0  0  0  0  0
  144.2457  136.3314  152.3639 N   0  0  0  0  0  0  0  0  0  0  0  0
  142.9366  136.8115  152.8350 C   0  0  0  0  0  0  0  0  0  0  0  0
  142.2412  135.8080  153.7697 C   0  0  0  0  0  0  0  0  0  0  0  0
  140.8374  135.9515  153.7050 O   0  0  0  0  0  0  0  0  0  0  0  0
  148.8892  140.5301  155.7065 C   0  0  0  0  0  0  0  0  0  0  0  0
  150.9551  142.4829  157.6422 H   0  0  0  0  0  0  0  0  0  0  0  0
  149.9140  141.3378  158.4686 H   0  0  0  0  0  0  0  0  0  0  0  0
  149.2134  142.6714  157.5685 H   0  0  0  0  0  0  0  0  0  0  0  0
  152.1212  140.8518  155.6598 H   0  0  0  0  0  0  0  0  0  0  0  0
  149.2622  138.7483  152.8456 H   0  0  0  0  0  0  0  0  0  0  0  0
  148.1888  138.1853  154.1125 H   0  0  0  0  0  0  0  0  0  0  0  0
  146.8862  140.4150  153.8366 H   0  0  0  0  0  0  0  0  0  0  0  0
  147.8516  140.7039  152.3932 H   0  0  0  0  0  0  0  0  0  0  0  0
  145.8745  139.6525  151.8115 H   0  0  0  0  0  0  0  0  0  0  0  0
  146.5051  137.9110  154.0163 H   0  0  0  0  0  0  0  0  0  0  0  0
  144.9736  138.6402  153.5712 H   0  0  0  0  0  0  0  0  0  0  0  0
  147.1750  133.6673  150.4349 H   0  0  0  0  0  0  0  0  0  0  0  0
  143.0773  132.2982  150.2947 H   0  0  0  0  0  0  0  0  0  0  0  0
  142.3000  134.3105  151.5374 H   0  0  0  0  0  0  0  0  0  0  0  0
  143.0874  137.7633  153.3442 H   0  0  0  0  0  0  0  0  0  0  0  0
  142.3105  137.0312  151.9698 H   0  0  0  0  0  0  0  0  0  0  0  0
  142.5048  134.7874  153.4909 H   0  0  0  0  0  0  0  0  0  0  0  0
  142.5647  135.9536  154.8006 H   0  0  0  0  0  0  0  0  0  0  0  0
  140.4509  135.4509  154.4075 H   0  0  0  0  0  0  0  0  0  0  0  0
  147.8376  140.5834  155.9484 H   0  0  0  0  0  0  0  0  0  0  0  0
  147.3624  136.1886  151.8273 H   0  0  0  0  0  0  0  0  0  0  0  0
  1  2  1  0  0  0  0
  1 24  1  0  0  0  0
  1 25  1  0  0  0  0
  1 26  1  0  0  0  0
  2 23  2  0  0  0  0
  2  3  1  0  0  0  0
  3  4  2  0  0  0  0
  3 27  1  0  0  0  0
  4  5  1  0  0  0  0
  5  6  1  0  0  0  0
  5 23  1  0  0  0  0
  6  7  1  0  0  0  0
  6 28  1  0  0  0  0
  6 29  1  0  0  0  0
  7  8  1  0  0  0  0
  7 30  1  0  0  0  0
  7 31  1  0  0  0  0
  8  9  1  0  0  0  0
  8 32  1  0  0  0  0
  9 10  1  0  0  0  0
  9 33  1  0  0  0  0
  9 34  1  0  0  0  0
 10 19  1  0  0  0  0
 10 11  2  0  0  0  0
 11 12  1  0  0  0  0
 11 44  1  0  0  0  0
 12 18  2  0  0  0  0
 12 13  1  0  0  0  0
 13 14  2  0  0  0  0
 13 35  1  0  0  0  0
 14 15  1  0  0  0  0
 14 16  1  0  0  0  0
 16 17  2  0  0  0  0
 16 36  1  0  0  0  0
 17 18  1  0  0  0  0
 17 37  1  0  0  0  0
 18 19  1  0  0  0  0
 19 20  1  0  0  0  0
 20 21  1  0  0  0  0
 20 38  1  0  0  0  0
 20 39  1  0  0  0  0
 21 22  1  0  0  0  0
 21 40  1  0  0  0  0
 21 41  1  0  0  0  0
 22 42  1  0  0  0  0
 23 43  1  0  0  0  0
M  CHG  1  11   1
M  END
> <s_m_source_file>
AV-unprocessed.smi

> <i_m_source_file_index>
1011

> <i_lp_mmshare_version>
43012

> <i_f3d_flags>
0

> <s_epik_input>
W0NIM11jMVtjSF1ubihbY0hdMSlbQ0gyXVtDSDJdW05IXVtDSDJdYyhuMiluKFtDSDJdW0NIMl1bT0hdKWMoYzIzKVtjSF1bY0hdYyhDbClbY0hdMw==

> <s_epik_cmdline>
J2VwaWtfcHl0aG9uJywgJy1waCcsICc3LjAnLCAnLXRuJywgJzgnLCAnLW1hJywgJzIwMCcsICctbWV0YWxfYmluZGluZycsICctaW1hZScsICc8aW5maWxlLm1hZT4nLCAnLW9tYWUnLCAnPG91dGZpbGUubWFlPic=

> <r_epik_Ionization_Penalty>
1.62414

> <r_epik_Ionization_Penalty_Charging>
1.50824

> <r_epik_Ionization_Penalty_Neutral>
0.115896

> <r_epik_State_Penalty>
2.25317

> <r_epik_Charging_Adjusted_Penalty>
3.76141

> <i_epik_Tot_Q>
1

> <i_epik_Tot_abs_Q>
1

> <r_epik_Metal_State_Penalty>
2.26539

> <b_epik_Metal_Only>
0

> <s_lp_Force_Field>
OPLS_2005

> <r_lp_Energy>
12.3838

> <b_lp_Chiralities_Consistent>
1

> <s_lp_Variant>
AV-unprocessed.smi:1011-3

> <Gold.Version>
5.8.1

> <Gold.Id.Protein>
6NUR|6NUR_protein|mol2

> <Gold.PLP.Fitness>
54.8056

> <Gold.PLP.PLP>
-40.8655

> <Gold.PLP.part.hbond>
-4.0000

> <Gold.PLP.part.metal>
0.0000

> <Gold.PLP.part.buried>
-5.1677

> <Gold.PLP.part.nonpolar>
-31.7864

> <Gold.PLP.part.repulsive>
0.1298

> <Gold.PLP.ligand.clash>
0.0000

> <Gold.PLP.ligand.torsion>
0.4518

> <Gold.PLP.Chemscore.Hbond>
4.9280

> <Gold.PLP.Chemscore.CHOScore>
0.0000

> <Gold.PLP.Chemscore.Metal>
0.0000

> <Gold.Chemscore.Hbonds>
donor molecule, donor type, donor heavy atom, donor atom, acceptor molecule, acceptor atom, score
      L1  H     8    32       P1 10175  0.02
      L1  H    11    44       P1  7948  2.00
      P1  H  7989  7998       L1     4  0.45

> <Gold.PLP.Chemscore.Internal.Correction>
0.0596

> <Gold.Rescore>
     Score         DG    S(hbond)    S(metal)    S(lipo)     H(rot)  DE(clash)    DE(int)     intcor
     19.50     -20.10       3.51        0.00      88.97       2.93       0.05       0.56       ----

> <Gold.Chemscore.Fitness>
19.5007

> <Gold.Chemscore.DG>
-20.1028

> <Gold.Chemscore.ZeroCoef>
-5.4800

> <Gold.Chemscore.Hbond>
3.5101

> <Gold.Chemscore.Metal>
0.0000

> <Gold.Chemscore.Lipo>
88.9746

> <Gold.Chemscore.Internal_Hbond>
0.0000

> <Gold.Chemscore.DEClash>
0.0459

> <Gold.Chemscore.DEInternal>
0.5563

> <Gold.Chemscore.Rot>
2.9340

> <Gold.Chemscore.Internal.Correction>
   9.000000E+99

> <Gold.Chemscore.Hbonds>
donor molecule, donor type, donor heavy atom, donor atom, acceptor molecule, acceptor atom, score
      L1  H     8    32       P1 10175  0.04
      L1  H    11    44       P1  7948  0.97
      P1  H  7989  7998       L1     4  0.02

> <Gold.Chemscore.Hbond.Weighted>
-11.7238

> <Gold.Chemscore.Metal.Weighted>
-0.0000

> <Gold.Chemscore.Lipo.Weighted>
-10.4100

> <Gold.Chemscore.Internal_Hbond.Weighted>
0.0000

> <Gold.Chemscore.DEClash.Weighted>
0.0459

> <Gold.Chemscore.DEInternal.Weighted>
0.5563

> <Gold.Chemscore.Rot.Weighted>
7.5111

> <Gold.Chemscore.Internal.Correction.Weighted>
   9.000000E+99

> <Gold.Protein.RotatedTorsions>
[ 6907 6896 6895 6894 ] final   94.57 input  -60.11 | X-H torsion
[ 7974 7965 7964 7962 ] final   84.83 input  175.53 | X-H torsion
[ 8008 7997 7996 7995 ] final -132.06 input   59.86 | X-H torsion
[ 10167 10162 10161 10158 ] final -111.37 input  -65.29 | X-H torsion
[ 10718 10713 10712 10709 ] final -109.92 input   66.30 | X-H torsion
[ 10763 10752 10751 10750 ] final   60.25 input  -60.55 | X-H torsion
[ 11005 11000 10999 10996 ] final -157.91 input  -57.11 | X-H torsion

> <Gold.Protein.ActiveResidues>
 VAL166  LYS551  ARG553  GLY616  TRP617  ASP618  TYR619  PRO620  LYS621  CYS622 
 ASP623  PHE694  ASN695  SER759  ASP760  ASP761  ALA762  ILE779  LEU786  VAL792 
 PHE793  MET794  SER795  GLU796  ALA797  LYS798  CYS799  TRP800  GLU811  SER814 

> <Gold.Protein.RotatedAtoms>
  152.5449  134.1173  159.8383 H   0  0  0  0  0  0  0  0  0  0  0  0  # atno 6907 bound_to 6896
  151.1233  133.5081  159.2609 H   0  0  0  0  0  0  0  0  0  0  0  0  # atno 6908 bound_to 6896
  151.1755  135.0347  159.8824 H   0  0  0  0  0  0  0  0  0  0  0  0  # atno 6909 bound_to 6896
  145.5936  139.2341  143.2285 H   0  0  0  0  0  0  0  0  0  0  0  0  # atno 7974 bound_to 7965
  155.3227  140.0463  157.3040 H   0  0  0  0  0  0  0  0  0  0  0  0  # atno 8008 bound_to 7997
  154.5371  140.2276  155.8670 H   0  0  0  0  0  0  0  0  0  0  0  0  # atno 8009 bound_to 7997
  156.1845  140.3066  155.9219 H   0  0  0  0  0  0  0  0  0  0  0  0  # atno 8010 bound_to 7997
  140.1343  143.4334  152.1606 H   0  0  0  0  0  0  0  0  0  0  0  0  # atno 10167 bound_to 10162
  156.0562  130.5788  150.8166 H   0  0  0  0  0  0  0  0  0  0  0  0  # atno 10718 bound_to 10713
  152.9916  135.5543  154.5843 H   0  0  0  0  0  0  0  0  0  0  0  0  # atno 10763 bound_to 10752
  154.5218  135.2808  155.1258 H   0  0  0  0  0  0  0  0  0  0  0  0  # atno 10764 bound_to 10752
  154.2608  135.6381  153.5327 H   0  0  0  0  0  0  0  0  0  0  0  0  # atno 10765 bound_to 10752
  140.6595  134.4365  157.5234 H   0  0  0  0  0  0  0  0  0  0  0  0  # atno 11005 bound_to 11000
  146.1629  140.6762  142.9269 LP  0  0  0  0  0  0  0  0  0  0  0  0  # atno 17320 bound_to 7965
  144.7340  140.4756  143.6917 LP  0  0  0  0  0  0  0  0  0  0  0  0  # atno 17321 bound_to 7965
  139.5504  144.7333  151.4453 LP  0  0  0  0  0  0  0  0  0  0  0  0  # atno 17342 bound_to 10162
  140.6798  143.8107  150.7107 LP  0  0  0  0  0  0  0  0  0  0  0  0  # atno 17343 bound_to 10162
  157.5534  131.0944  150.9662 LP  0  0  0  0  0  0  0  0  0  0  0  0  # atno 17370 bound_to 10713
  156.9917  130.5566  149.5304 LP  0  0  0  0  0  0  0  0  0  0  0  0  # atno 17371 bound_to 10713
  139.9018  134.8539  156.1865 LP  0  0  0  0  0  0  0  0  0  0  0  0  # atno 17394 bound_to 11000
  141.0476  133.6905  156.1712 LP  0  0  0  0  0  0  0  0  0  0  0  0  # atno 17395 bound_to 11000

$$$$
