AV-unprocessed.smi:1893|AV-procd|sdf|7676|dock2
  -GOLD-   22720 9413D 1   1.00000     0.00000
 Structure written by MMmdl.
 43 44  0  0  0  0  0  0  0  0  2 V2000
  145.3821  134.5867  154.5068 C   0  0  0  0  0  0  0  0  0  0  0  0
  146.6199  134.7664  153.6009 C   0  0  1  0  0  0  0  0  0  0  0  0
  147.0064  133.4634  152.8699 C   0  0  0  0  0  0  0  0  0  0  0  0
  146.0233  133.1225  151.7403 C   0  0  0  0  0  0  0  0  0  0  0  0
  145.8914  134.3119  150.7817 C   0  0  0  0  0  0  0  0  0  0  0  0
  145.5095  135.5963  151.5359 C   0  0  0  0  0  0  0  0  0  0  0  0
  146.4826  135.8887  152.6243 N   0  3  1  0  0  0  0  0  0  0  0  0
  146.2855  137.2149  153.2650 C   0  0  0  0  0  0  0  0  0  0  0  0
  146.6506  138.3790  152.3248 C   0  0  0  0  0  0  0  0  0  0  0  0
  147.8115  139.1146  152.8110 N   0  0  0  0  0  0  0  0  0  0  0  0
  148.0524  139.4054  154.1001 C   0  0  0  0  0  0  0  0  0  0  0  0
  147.2776  139.0980  155.0069 O   0  0  0  0  0  0  0  0  0  0  0  0
  149.3581  140.1637  154.3999 C   0  0  1  0  0  0  0  0  0  0  0  0
  149.2859  141.0038  155.6911 C   0  0  0  0  0  0  0  0  0  0  0  0
  150.4948  139.2503  154.4181 N   0  0  0  0  0  0  0  0  0  0  0  0
  150.5405  137.9304  154.2247 C   0  0  0  0  0  0  0  0  0  0  0  0
  151.7530  137.4095  154.3494 N   0  0  0  0  0  0  0  0  0  0  0  0
  152.4585  138.5415  154.6448 C   0  0  0  0  0  0  0  0  0  0  0  0
  151.7522  139.6700  154.7058 N   0  0  0  0  0  0  0  0  0  0  0  0
  145.5384  133.7710  155.2130 H   0  0  0  0  0  0  0  0  0  0  0  0
  144.4813  134.3535  153.9402 H   0  0  0  0  0  0  0  0  0  0  0  0
  145.1795  135.4801  155.0972 H   0  0  0  0  0  0  0  0  0  0  0  0
  147.4569  135.0144  154.2553 H   0  0  0  0  0  0  0  0  0  0  0  0
  148.0066  133.5731  152.4479 H   0  0  0  0  0  0  0  0  0  0  0  0
  147.0674  132.6352  153.5768 H   0  0  0  0  0  0  0  0  0  0  0  0
  146.3661  132.2405  151.1986 H   0  0  0  0  0  0  0  0  0  0  0  0
  145.0473  132.8692  152.1549 H   0  0  0  0  0  0  0  0  0  0  0  0
  146.8355  134.4641  150.2567 H   0  0  0  0  0  0  0  0  0  0  0  0
  145.1457  134.0925  150.0171 H   0  0  0  0  0  0  0  0  0  0  0  0
  145.4825  136.4197  150.8234 H   0  0  0  0  0  0  0  0  0  0  0  0
  144.5020  135.5117  151.9446 H   0  0  0  0  0  0  0  0  0  0  0  0
  145.2562  137.3112  153.6136 H   0  0  0  0  0  0  0  0  0  0  0  0
  146.9195  137.2776  154.1507 H   0  0  0  0  0  0  0  0  0  0  0  0
  146.8386  138.0110  151.3147 H   0  0  0  0  0  0  0  0  0  0  0  0
  145.8291  139.0899  152.2469 H   0  0  0  0  0  0  0  0  0  0  0  0
  148.4944  139.4005  152.1240 H   0  0  0  0  0  0  0  0  0  0  0  0
  149.5156  140.8558  153.5712 H   0  0  0  0  0  0  0  0  0  0  0  0
  148.4781  141.7350  155.6426 H   0  0  0  0  0  0  0  0  0  0  0  0
  150.2135  141.5552  155.8479 H   0  0  0  0  0  0  0  0  0  0  0  0
  149.1187  140.3830  156.5723 H   0  0  0  0  0  0  0  0  0  0  0  0
  149.6682  137.3374  153.9918 H   0  0  0  0  0  0  0  0  0  0  0  0
  153.5232  138.5327  154.8256 H   0  0  0  0  0  0  0  0  0  0  0  0
  147.3848  135.9461  152.1736 H   0  0  0  0  0  0  0  0  0  0  0  0
  1  2  1  0  0  0  0
  1 20  1  0  0  0  0
  1 21  1  0  0  0  0
  1 22  1  0  0  0  0
  2  7  1  0  0  0  0
  2  3  1  0  0  0  0
  2 23  1  0  0  0  0
  3  4  1  0  0  0  0
  3 24  1  0  0  0  0
  3 25  1  0  0  0  0
  4  5  1  0  0  0  0
  4 26  1  0  0  0  0
  4 27  1  0  0  0  0
  5  6  1  0  0  0  0
  5 28  1  0  0  0  0
  5 29  1  0  0  0  0
  6  7  1  0  0  0  0
  6 30  1  0  0  0  0
  6 31  1  0  0  0  0
  7  8  1  0  0  0  0
  7 43  1  0  0  0  0
  8  9  1  0  0  0  0
  8 32  1  0  0  0  0
  8 33  1  0  0  0  0
  9 10  1  0  0  0  0
  9 34  1  0  0  0  0
  9 35  1  0  0  0  0
 10 11  1  0  0  0  0
 10 36  1  0  0  0  0
 11 12  2  0  0  0  0
 11 13  1  0  0  0  0
 13 14  1  0  0  0  0
 13 15  1  0  0  0  0
 13 37  1  0  0  0  0
 14 38  1  0  0  0  0
 14 39  1  0  0  0  0
 14 40  1  0  0  0  0
 15 19  1  0  0  0  0
 15 16  1  0  0  0  0
 16 17  2  0  0  0  0
 16 41  1  0  0  0  0
 17 18  1  0  0  0  0
 18 19  2  0  0  0  0
 18 42  1  0  0  0  0
M  CHG  1   7   1
M  END
> <s_m_source_file>
AV-unprocessed.smi

> <i_m_source_file_index>
1893

> <i_lp_mmshare_version>
43012

> <i_f3d_flags>
0

> <s_epik_input>
W0NIM11bQ0BASF0xW0NIMl1bQ0gyXVtDSDJdW0NIMl1OMVtDSDJdW0NIMl1bTkhdQyg9TylbQ0BIXShbQ0gzXSluMltjSF1uW2NIXW4y

> <s_epik_cmdline>
J2VwaWtfcHl0aG9uJywgJy1waCcsICc3LjAnLCAnLXRuJywgJzgnLCAnLW1hJywgJzIwMCcsICctbWV0YWxfYmluZGluZycsICctaW1hZScsICc8aW5maWxlLm1hZT4nLCAnLW9tYWUnLCAnPG91dGZpbGUubWFlPic=

> <r_lp_tautomer_probability>
1

> <r_epik_Ionization_Penalty>
0.00266409

> <r_epik_Ionization_Penalty_Charging>
0.00265606

> <r_epik_Ionization_Penalty_Neutral>
8.02794e-06

> <r_epik_State_Penalty>
0.00184955

> <r_epik_Charging_Adjusted_Penalty>
0.00450561

> <i_epik_Tot_Q>
1

> <i_epik_Tot_abs_Q>
1

> <r_epik_Metal_State_Penalty>
-0

> <b_epik_Metal_Only>
0

> <s_lp_Force_Field>
OPLS_2005

> <r_lp_Energy>
24.9679

> <b_lp_Chiralities_Consistent>
1

> <s_lp_Variant>
AV-unprocessed.smi:1893-6

> <Gold.Version>
5.8.1

> <Gold.Id.Protein>
6NUR|6NUR_protein|mol2

> <Gold.PLP.Fitness>
47.0826

> <Gold.PLP.PLP>
-33.4164

> <Gold.PLP.part.hbond>
-4.2878

> <Gold.PLP.part.metal>
0.0000

> <Gold.PLP.part.buried>
-3.6762

> <Gold.PLP.part.nonpolar>
-26.1791

> <Gold.PLP.part.repulsive>
0.3663

> <Gold.PLP.ligand.clash>
0.0000

> <Gold.PLP.ligand.torsion>
1.3367

> <Gold.PLP.Chemscore.Hbond>
4.4288

> <Gold.PLP.Chemscore.CHOScore>
0.9605

> <Gold.PLP.Chemscore.Metal>
0.0000

> <Gold.Chemscore.Hbonds>
donor molecule, donor type, donor heavy atom, donor atom, acceptor molecule, acceptor atom, score
      L1  H     7    43       P1  7948  2.00
      L1  H    10    36       P1  7957  1.00
      P1  H  7989  7998       L1    19  0.55
      P1  H 10752 10764       L1    17  0.80
      L1  C    16    41       P1  7948  1.00

> <Gold.PLP.Chemscore.Internal.Correction>
0.1719

> <Gold.Rescore>
     Score         DG    S(hbond)    S(metal)    S(lipo)     H(rot)  DE(clash)    DE(int)     intcor
     11.37     -14.18       2.81        0.00      49.76       2.54       0.01       2.80       ----

> <Gold.Chemscore.Fitness>
11.3693

> <Gold.Chemscore.DG>
-14.1773

> <Gold.Chemscore.ZeroCoef>
-5.4800

> <Gold.Chemscore.Hbond>
2.8061

> <Gold.Chemscore.Metal>
0.0000

> <Gold.Chemscore.Lipo>
49.7576

> <Gold.Chemscore.Internal_Hbond>
0.0000

> <Gold.Chemscore.DEClash>
0.0071

> <Gold.Chemscore.DEInternal>
2.8008

> <Gold.Chemscore.Rot>
2.5377

> <Gold.Chemscore.Internal.Correction>
   9.000000E+99

> <Gold.Chemscore.Hbonds>
donor molecule, donor type, donor heavy atom, donor atom, acceptor molecule, acceptor atom, score
      L1  H     7    43       P1  7948  0.99
      L1  H    10    36       P1  7957  0.98
      P1  H  7989  7998       L1    19  0.03
      P1  H 10752 10764       L1    17  0.64

> <Gold.Chemscore.Hbond.Weighted>
-9.3722

> <Gold.Chemscore.Metal.Weighted>
-0.0000

> <Gold.Chemscore.Lipo.Weighted>
-5.8216

> <Gold.Chemscore.Internal_Hbond.Weighted>
0.0000

> <Gold.Chemscore.DEClash.Weighted>
0.0071

> <Gold.Chemscore.DEInternal.Weighted>
2.8008

> <Gold.Chemscore.Rot.Weighted>
6.4966

> <Gold.Chemscore.Internal.Correction.Weighted>
   9.000000E+99

> <Gold.Protein.RotatedTorsions>
[ 6907 6896 6895 6894 ] final -151.81 input  -60.11 | X-H torsion
[ 7974 7965 7964 7962 ] final  -55.45 input  175.53 | X-H torsion
[ 8008 7997 7996 7995 ] final -174.90 input   59.86 | X-H torsion
[ 10167 10162 10161 10158 ] final  -50.56 input  -65.29 | X-H torsion
[ 10718 10713 10712 10709 ] final   25.89 input   66.30 | X-H torsion
[ 10763 10752 10751 10750 ] final  -77.11 input  -60.55 | X-H torsion
[ 11005 11000 10999 10996 ] final   69.34 input  -57.11 | X-H torsion

> <Gold.Protein.ActiveResidues>
 VAL166  LYS551  ARG553  GLY616  TRP617  ASP618  TYR619  PRO620  LYS621  CYS622 
 ASP623  PHE694  ASN695  SER759  ASP760  ASP761  ALA762  ILE779  LEU786  VAL792 
 PHE793  MET794  SER795  GLU796  ALA797  LYS798  CYS799  TRP800  GLU811  SER814 

> <Gold.Protein.RotatedAtoms>
  151.2186  133.4515  159.2599 H   0  0  0  0  0  0  0  0  0  0  0  0  # atno 6907 bound_to 6896
  151.0907  134.9914  159.8411 H   0  0  0  0  0  0  0  0  0  0  0  0  # atno 6908 bound_to 6896
  152.5434  134.2119  159.8806 H   0  0  0  0  0  0  0  0  0  0  0  0  # atno 6909 bound_to 6896
  145.8740  140.8195  142.9874 H   0  0  0  0  0  0  0  0  0  0  0  0  # atno 7974 bound_to 7965
  155.9759  140.1172  157.0770 H   0  0  0  0  0  0  0  0  0  0  0  0  # atno 8008 bound_to 7997
  154.4169  140.1154  156.5437 H   0  0  0  0  0  0  0  0  0  0  0  0  # atno 8009 bound_to 7997
  155.6535  140.3473  155.4759 H   0  0  0  0  0  0  0  0  0  0  0  0  # atno 8010 bound_to 7997
  140.6632  143.2653  151.4376 H   0  0  0  0  0  0  0  0  0  0  0  0  # atno 10167 bound_to 10162
  157.1994  130.6883  149.6182 H   0  0  0  0  0  0  0  0  0  0  0  0  # atno 10718 bound_to 10713
  154.5087  135.5775  153.6587 H   0  0  0  0  0  0  0  0  0  0  0  0  # atno 10763 bound_to 10752
  152.9892  135.6153  154.2908 H   0  0  0  0  0  0  0  0  0  0  0  0  # atno 10764 bound_to 10752
  154.2821  135.2850  155.2672 H   0  0  0  0  0  0  0  0  0  0  0  0  # atno 10765 bound_to 10752
  139.9659  134.6982  156.0547 H   0  0  0  0  0  0  0  0  0  0  0  0  # atno 11005 bound_to 11000
  144.6726  140.1282  143.7445 LP  0  0  0  0  0  0  0  0  0  0  0  0  # atno 17320 bound_to 7965
  145.9103  139.2483  143.1441 LP  0  0  0  0  0  0  0  0  0  0  0  0  # atno 17321 bound_to 7965
  139.5872  144.1579  152.2043 LP  0  0  0  0  0  0  0  0  0  0  0  0  # atno 17342 bound_to 10162
  140.0922  144.5611  150.7046 LP  0  0  0  0  0  0  0  0  0  0  0  0  # atno 17343 bound_to 10162
  155.9702  130.4588  150.6012 LP  0  0  0  0  0  0  0  0  0  0  0  0  # atno 17370 bound_to 10713
  157.3782  131.0776  151.1499 LP  0  0  0  0  0  0  0  0  0  0  0  0  # atno 17371 bound_to 10713
  141.1339  133.6580  156.3538 LP  0  0  0  0  0  0  0  0  0  0  0  0  # atno 17394 bound_to 11000
  140.5398  134.6132  157.5376 LP  0  0  0  0  0  0  0  0  0  0  0  0  # atno 17395 bound_to 11000

$$$$
