AV-unprocessed.smi:1099|AV-procd|sdf|4758|dock8
  -GOLD-   22720 3293D 1   1.00000     0.00000
 Structure written by MMmdl.
 41 43  0  0  0  0  0  0  0  0  1 V2000
  152.6733  143.2055  161.9503 C   0  0  0  0  0  0  0  0  0  0  0  0
  153.0473  142.0602  161.0051 C   0  0  0  0  0  0  0  0  0  0  0  0
  152.2999  142.1088  159.7145 C   0  0  0  0  0  0  0  0  0  0  0  0
  151.6427  141.0647  159.2033 N   0  0  0  0  0  0  0  0  0  0  0  0
  151.0275  141.3600  157.9822 C   0  0  0  0  0  0  0  0  0  0  0  0
  150.2330  140.3054  157.2669 C   0  0  0  0  0  0  0  0  0  0  0  0
  150.2645  138.9246  157.9507 C   0  0  0  0  0  0  0  0  0  0  0  0
  149.6205  137.8804  157.1561 N   0  0  0  0  0  0  0  0  0  0  0  0
  149.2730  136.6632  157.6050 C   0  0  0  0  0  0  0  0  0  0  0  0
  149.4753  136.2923  158.7617 O   0  0  0  0  0  0  0  0  0  0  0  0
  148.6009  135.7283  156.5842 C   0  0  1  0  0  0  0  0  0  0  0  0
  148.6996  136.2389  155.1258 C   0  0  0  0  0  0  0  0  0  0  0  0
  149.3633  135.0635  154.3818 C   0  0  2  0  0  0  0  0  0  0  0  0
  148.3742  133.8853  154.3034 C   0  0  0  0  0  0  0  0  0  0  0  0
  148.3443  133.3705  155.7559 C   0  0  0  0  0  0  0  0  0  0  0  0
  149.2937  134.3459  156.4781 C   0  0  1  0  0  0  0  0  0  0  0  0
  150.3660  134.5596  155.4100 C   0  0  0  0  0  0  0  0  0  0  0  0
  151.2073  142.6623  157.5874 C   0  0  0  0  0  0  0  0  0  0  0  0
  152.1528  143.5653  158.7382 S   0  0  0  0  0  0  0  0  0  0  0  0
  153.2494  143.1510  162.8742 H   0  0  0  0  0  0  0  0  0  0  0  0
  151.6173  143.1605  162.2152 H   0  0  0  0  0  0  0  0  0  0  0  0
  152.8664  144.1757  161.4916 H   0  0  0  0  0  0  0  0  0  0  0  0
  154.1158  142.0919  160.7902 H   0  0  0  0  0  0  0  0  0  0  0  0
  152.8549  141.1013  161.4877 H   0  0  0  0  0  0  0  0  0  0  0  0
  149.1961  140.6284  157.1698 H   0  0  0  0  0  0  0  0  0  0  0  0
  150.6001  140.1989  156.2451 H   0  0  0  0  0  0  0  0  0  0  0  0
  151.2967  138.6505  158.1747 H   0  0  0  0  0  0  0  0  0  0  0  0
  149.7564  138.9834  158.9133 H   0  0  0  0  0  0  0  0  0  0  0  0
  149.4257  138.0996  156.1898 H   0  0  0  0  0  0  0  0  0  0  0  0
  147.5539  135.6013  156.8656 H   0  0  0  0  0  0  0  0  0  0  0  0
  147.7190  136.4734  154.7116 H   0  0  0  0  0  0  0  0  0  0  0  0
  149.3126  137.1380  155.0413 H   0  0  0  0  0  0  0  0  0  0  0  0
  149.7903  135.3417  153.4180 H   0  0  0  0  0  0  0  0  0  0  0  0
  147.3900  134.1949  153.9496 H   0  0  0  0  0  0  0  0  0  0  0  0
  148.7436  133.1108  153.6300 H   0  0  0  0  0  0  0  0  0  0  0  0
  147.3395  133.3712  156.1800 H   0  0  0  0  0  0  0  0  0  0  0  0
  148.7262  132.3500  155.8075 H   0  0  0  0  0  0  0  0  0  0  0  0
  149.6691  133.9606  157.4273 H   0  0  0  0  0  0  0  0  0  0  0  0
  150.8658  133.6371  155.1093 H   0  0  0  0  0  0  0  0  0  0  0  0
  151.1239  135.2978  155.6727 H   0  0  0  0  0  0  0  0  0  0  0  0
  150.8265  143.1479  156.7012 H   0  0  0  0  0  0  0  0  0  0  0  0
  1  2  1  0  0  0  0
  1 20  1  0  0  0  0
  1 21  1  0  0  0  0
  1 22  1  0  0  0  0
  2  3  1  0  0  0  0
  2 23  1  0  0  0  0
  2 24  1  0  0  0  0
  3 19  1  0  0  0  0
  3  4  2  0  0  0  0
  4  5  1  0  0  0  0
  5  6  1  0  0  0  0
  5 18  2  0  0  0  0
  6  7  1  0  0  0  0
  6 25  1  0  0  0  0
  6 26  1  0  0  0  0
  7  8  1  0  0  0  0
  7 27  1  0  0  0  0
  7 28  1  0  0  0  0
  8  9  1  0  0  0  0
  8 29  1  0  0  0  0
  9 10  2  0  0  0  0
  9 11  1  0  0  0  0
 11 16  1  0  0  0  0
 11 12  1  0  0  0  0
 11 30  1  0  0  0  0
 12 13  1  0  0  0  0
 12 31  1  0  0  0  0
 12 32  1  0  0  0  0
 13 17  1  0  0  0  0
 13 14  1  0  0  0  0
 13 33  1  0  0  0  0
 14 15  1  0  0  0  0
 14 34  1  0  0  0  0
 14 35  1  0  0  0  0
 15 16  1  0  0  0  0
 15 36  1  0  0  0  0
 15 37  1  0  0  0  0
 16 17  1  0  0  0  0
 16 38  1  0  0  0  0
 17 39  1  0  0  0  0
 17 40  1  0  0  0  0
 18 19  1  0  0  0  0
 18 41  1  0  0  0  0
M  END
> <s_m_source_file>
AV-unprocessed.smi

> <i_m_source_file_index>
1099

> <i_lp_mmshare_version>
43012

> <i_f3d_flags>
0

> <s_epik_input>
W0NIM11bQ0gyXWMxbmMoW2NIXXMxKVtDSDJdW0NIMl1bTkhdQyg9TylbQ0BIXShbQ0gyXVtDQEBIXTIzKVtDQEBIXShbQ0gyXTMpW0NIMl1bQ0gyXTI=

> <s_epik_cmdline>
J2VwaWtfcHl0aG9uJywgJy1waCcsICc3LjAnLCAnLXRuJywgJzgnLCAnLW1hJywgJzIwMCcsICctbWV0YWxfYmluZGluZycsICctaW1hZScsICc8aW5maWxlLm1hZT4nLCAnLW9tYWUnLCAnPG91dGZpbGUubWFlPic=

> <r_epik_Ionization_Penalty>
0.00110131

> <r_epik_Ionization_Penalty_Charging>
0

> <r_epik_Ionization_Penalty_Neutral>
0.00110131

> <r_epik_State_Penalty>
0.00072257

> <r_epik_Charging_Adjusted_Penalty>
0.00072257

> <i_epik_Tot_Q>
0

> <i_epik_Tot_abs_Q>
0

> <r_epik_Metal_State_Penalty>
-0

> <b_epik_Metal_Only>
0

> <s_lp_Force_Field>
OPLS_2005

> <r_lp_Energy>
38.7505

> <b_lp_Chiralities_Consistent>
1

> <s_lp_Variant>
AV-unprocessed.smi:1099-4

> <Gold.Version>
5.8.1

> <Gold.Id.Protein>
6NUR|6NUR_protein|mol2

> <Gold.PLP.Fitness>
38.3850

> <Gold.PLP.PLP>
-33.1083

> <Gold.PLP.part.hbond>
-1.0000

> <Gold.PLP.part.metal>
0.0000

> <Gold.PLP.part.buried>
-4.0239

> <Gold.PLP.part.nonpolar>
-27.6717

> <Gold.PLP.part.repulsive>
0.0138

> <Gold.PLP.ligand.clash>
0.0000

> <Gold.PLP.ligand.torsion>
0.3819

> <Gold.PLP.Chemscore.Hbond>
1.0000

> <Gold.PLP.Chemscore.CHOScore>
0.9949

> <Gold.PLP.Chemscore.Metal>
0.0000

> <Gold.Chemscore.Hbonds>
donor molecule, donor type, donor heavy atom, donor atom, acceptor molecule, acceptor atom, score
      P1  H  6896  6907       L1    10  0.50
      L1  C    18    41       P1  8028  0.58

> <Gold.PLP.Chemscore.Internal.Correction>
0.0557

> <Gold.Rescore>
     Score         DG    S(hbond)    S(metal)    S(lipo)     H(rot)  DE(clash)    DE(int)     intcor
     16.61     -17.09       1.00        0.00     101.71       1.42       0.07       0.41       ----

> <Gold.Chemscore.Fitness>
16.6058

> <Gold.Chemscore.DG>
-17.0864

> <Gold.Chemscore.ZeroCoef>
-5.4800

> <Gold.Chemscore.Hbond>
0.9976

> <Gold.Chemscore.Metal>
0.0000

> <Gold.Chemscore.Lipo>
101.7147

> <Gold.Chemscore.Internal_Hbond>
0.0000

> <Gold.Chemscore.DEClash>
0.0738

> <Gold.Chemscore.DEInternal>
0.4068

> <Gold.Chemscore.Rot>
1.4165

> <Gold.Chemscore.Internal.Correction>
   9.000000E+99

> <Gold.Chemscore.Hbonds>
donor molecule, donor type, donor heavy atom, donor atom, acceptor molecule, acceptor atom, score
      P1  H  6896  6907       L1    10  0.51

> <Gold.Chemscore.Hbond.Weighted>
-3.3320

> <Gold.Chemscore.Metal.Weighted>
-0.0000

> <Gold.Chemscore.Lipo.Weighted>
-11.9006

> <Gold.Chemscore.Internal_Hbond.Weighted>
0.0000

> <Gold.Chemscore.DEClash.Weighted>
0.0738

> <Gold.Chemscore.DEInternal.Weighted>
0.4068

> <Gold.Chemscore.Rot.Weighted>
3.6262

> <Gold.Chemscore.Internal.Correction.Weighted>
   9.000000E+99

> <Gold.Protein.RotatedTorsions>
[ 6907 6896 6895 6894 ] final  -37.69 input  -60.11 | X-H torsion
[ 7974 7965 7964 7962 ] final   95.60 input  175.53 | X-H torsion
[ 8008 7997 7996 7995 ] final   69.34 input   59.86 | X-H torsion
[ 10167 10162 10161 10158 ] final -169.52 input  -65.29 | X-H torsion
[ 10718 10713 10712 10709 ] final -150.49 input   66.30 | X-H torsion
[ 10763 10752 10751 10750 ] final -132.53 input  -60.55 | X-H torsion
[ 11005 11000 10999 10996 ] final  -88.57 input  -57.11 | X-H torsion

> <Gold.Protein.ActiveResidues>
 VAL166  LYS551  ARG553  GLY616  TRP617  ASP618  TYR619  PRO620  LYS621  CYS622 
 ASP623  PHE694  ASN695  SER759  ASP760  ASP761  ALA762  ILE779  LEU786  VAL792 
 PHE793  MET794  SER795  GLU796  ALA797  LYS798  CYS799  TRP800  GLU811  SER814 

> <Gold.Protein.RotatedAtoms>
  151.0116  134.9401  159.8010 H   0  0  0  0  0  0  0  0  0  0  0  0  # atno 6907 bound_to 6896
  152.5304  134.3020  159.9092 H   0  0  0  0  0  0  0  0  0  0  0  0  # atno 6908 bound_to 6896
  151.3026  133.4073  159.2675 H   0  0  0  0  0  0  0  0  0  0  0  0  # atno 6909 bound_to 6896
  145.4501  139.2294  143.3045 H   0  0  0  0  0  0  0  0  0  0  0  0  # atno 7974 bound_to 7965
  155.7221  140.3493  155.5021 H   0  0  0  0  0  0  0  0  0  0  0  0  # atno 8008 bound_to 7997
  155.9260  140.1075  157.1191 H   0  0  0  0  0  0  0  0  0  0  0  0  # atno 8009 bound_to 7997
  154.4077  140.1240  156.4728 H   0  0  0  0  0  0  0  0  0  0  0  0  # atno 8010 bound_to 7997
  139.5917  144.1198  152.1642 H   0  0  0  0  0  0  0  0  0  0  0  0  # atno 10167 bound_to 10162
  156.4468  130.8148  151.2379 H   0  0  0  0  0  0  0  0  0  0  0  0  # atno 10718 bound_to 10713
  154.8742  135.3795  154.4425 H   0  0  0  0  0  0  0  0  0  0  0  0  # atno 10763 bound_to 10752
  153.5108  135.7029  153.5787 H   0  0  0  0  0  0  0  0  0  0  0  0  # atno 10764 bound_to 10752
  153.4077  135.3932  155.1996 H   0  0  0  0  0  0  0  0  0  0  0  0  # atno 10765 bound_to 10752
  141.1599  133.7577  156.9470 H   0  0  0  0  0  0  0  0  0  0  0  0  # atno 11005 bound_to 11000
  146.2509  140.5259  142.8894 LP  0  0  0  0  0  0  0  0  0  0  0  0  # atno 17320 bound_to 7965
  144.8067  140.6312  143.6442 LP  0  0  0  0  0  0  0  0  0  0  0  0  # atno 17321 bound_to 7965
  140.0774  144.5729  150.7147 LP  0  0  0  0  0  0  0  0  0  0  0  0  # atno 17342 bound_to 10162
  140.7179  143.2561  151.4375 LP  0  0  0  0  0  0  0  0  0  0  0  0  # atno 17343 bound_to 10162
  157.7504  131.0151  150.3489 LP  0  0  0  0  0  0  0  0  0  0  0  0  # atno 17370 bound_to 10713
  156.3859  130.3889  149.7066 LP  0  0  0  0  0  0  0  0  0  0  0  0  # atno 17371 bound_to 10713
  140.1283  134.9372  157.2301 LP  0  0  0  0  0  0  0  0  0  0  0  0  # atno 17394 bound_to 11000
  140.2985  134.3159  155.7296 LP  0  0  0  0  0  0  0  0  0  0  0  0  # atno 17395 bound_to 11000

$$$$
