AV-unprocessed.smi:2104|AV-procd|sdf|8583|dock8
  -GOLD-   2272011313D 1   1.00000     0.00000
 Structure written by MMmdl.
 43 44  0  0  0  0  0  0  0  0  1 V2000
  151.5085  139.9209  158.3604 C   0  0  0  0  0  0  0  0  0  0  0  0
  151.2204  139.8456  156.9000 C   0  0  0  0  0  0  0  0  0  0  0  0
  150.0710  139.6506  156.1872 C   0  0  0  0  0  0  0  0  0  0  0  0
  150.5189  139.6935  154.8400 C   0  0  0  0  0  0  0  0  0  0  0  0
  149.6089  139.5270  153.7650 N   0  0  0  0  0  0  0  0  0  0  0  0
  148.3933  138.9556  153.8018 C   0  0  0  0  0  0  0  0  0  0  0  0
  147.8794  138.4461  154.7980 O   0  0  0  0  0  0  0  0  0  0  0  0
  147.7951  139.0098  152.6026 N   0  0  0  0  0  0  0  0  0  0  0  0
  146.4522  138.5200  152.3089 C   0  0  0  0  0  0  0  0  0  0  0  0
  146.3268  137.0170  152.5969 C   0  0  0  0  0  0  0  0  0  0  0  0
  145.0200  136.5863  152.2491 O   0  0  0  0  0  0  0  0  0  0  0  0
  144.8742  135.1800  152.1119 C   0  0  2  0  0  0  0  0  0  0  0  0
  145.6556  134.7130  150.8654 C   0  0  0  0  0  0  0  0  0  0  0  0
  145.4157  133.2248  150.5724 C   0  0  0  0  0  0  0  0  0  0  0  0
  143.9173  132.9304  150.4171 C   0  0  0  0  0  0  0  0  0  0  0  0
  143.1369  133.3813  151.6610 C   0  0  0  0  0  0  0  0  0  0  0  0
  143.3658  134.8747  151.9695 C   0  0  1  0  0  0  0  0  0  0  0  0
  142.5799  135.2964  153.2219 C   0  0  0  0  0  0  0  0  0  0  0  0
  151.8240  139.8952  154.7397 N   0  0  0  0  0  0  0  0  0  0  0  0
  152.2801  139.9939  156.0596 O   0  0  0  0  0  0  0  0  0  0  0  0
  150.5944  139.8131  158.9443 H   0  0  0  0  0  0  0  0  0  0  0  0
  151.9619  140.8787  158.6156 H   0  0  0  0  0  0  0  0  0  0  0  0
  152.1964  139.1299  158.6596 H   0  0  0  0  0  0  0  0  0  0  0  0
  149.0725  139.5018  156.5708 H   0  0  0  0  0  0  0  0  0  0  0  0
  149.9099  139.8960  152.8753 H   0  0  0  0  0  0  0  0  0  0  0  0
  148.2956  139.4426  151.8405 H   0  0  0  0  0  0  0  0  0  0  0  0
  145.7584  139.0685  152.9461 H   0  0  0  0  0  0  0  0  0  0  0  0
  146.1678  138.7428  151.2793 H   0  0  0  0  0  0  0  0  0  0  0  0
  147.0917  136.4659  152.0488 H   0  0  0  0  0  0  0  0  0  0  0  0
  146.4906  136.8294  153.6588 H   0  0  0  0  0  0  0  0  0  0  0  0
  145.2519  134.6693  153.0002 H   0  0  0  0  0  0  0  0  0  0  0  0
  145.3505  135.3057  150.0019 H   0  0  0  0  0  0  0  0  0  0  0  0
  146.7235  134.8872  150.9933 H   0  0  0  0  0  0  0  0  0  0  0  0
  145.9483  132.9333  149.6666 H   0  0  0  0  0  0  0  0  0  0  0  0
  145.8264  132.6206  151.3823 H   0  0  0  0  0  0  0  0  0  0  0  0
  143.5318  133.4445  149.5358 H   0  0  0  0  0  0  0  0  0  0  0  0
  143.7626  131.8646  150.2467 H   0  0  0  0  0  0  0  0  0  0  0  0
  142.0736  133.1906  151.5113 H   0  0  0  0  0  0  0  0  0  0  0  0
  143.4409  132.7771  152.5170 H   0  0  0  0  0  0  0  0  0  0  0  0
  142.9817  135.4524  151.1271 H   0  0  0  0  0  0  0  0  0  0  0  0
  142.9280  134.7625  154.1065 H   0  0  0  0  0  0  0  0  0  0  0  0
  141.5158  135.0900  153.1056 H   0  0  0  0  0  0  0  0  0  0  0  0
  142.6849  136.3643  153.4156 H   0  0  0  0  0  0  0  0  0  0  0  0
  1  2  1  0  0  0  0
  1 21  1  0  0  0  0
  1 22  1  0  0  0  0
  1 23  1  0  0  0  0
  2 20  1  0  0  0  0
  2  3  2  0  0  0  0
  3  4  1  0  0  0  0
  3 24  1  0  0  0  0
  4  5  1  0  0  0  0
  4 19  2  0  0  0  0
  5  6  1  0  0  0  0
  5 25  1  0  0  0  0
  6  7  2  0  0  0  0
  6  8  1  0  0  0  0
  8  9  1  0  0  0  0
  8 26  1  0  0  0  0
  9 10  1  0  0  0  0
  9 27  1  0  0  0  0
  9 28  1  0  0  0  0
 10 11  1  0  0  0  0
 10 29  1  0  0  0  0
 10 30  1  0  0  0  0
 11 12  1  0  0  0  0
 12 17  1  0  0  0  0
 12 13  1  0  0  0  0
 12 31  1  0  0  0  0
 13 14  1  0  0  0  0
 13 32  1  0  0  0  0
 13 33  1  0  0  0  0
 14 15  1  0  0  0  0
 14 34  1  0  0  0  0
 14 35  1  0  0  0  0
 15 16  1  0  0  0  0
 15 36  1  0  0  0  0
 15 37  1  0  0  0  0
 16 17  1  0  0  0  0
 16 38  1  0  0  0  0
 16 39  1  0  0  0  0
 17 18  1  0  0  0  0
 17 40  1  0  0  0  0
 18 41  1  0  0  0  0
 18 42  1  0  0  0  0
 18 43  1  0  0  0  0
 19 20  1  0  0  0  0
M  END
> <s_m_source_file>
AV-unprocessed.smi

> <i_m_source_file_index>
2104

> <i_lp_mmshare_version>
43012

> <i_f3d_flags>
0

> <s_epik_input>
W0NIM11jMVtjSF1jKG5vMSlbTkhdQyg9TylbTkhdW0NIMl1bQ0gyXU9bQ0BASF0yW0NIMl1bQ0gyXVtDSDJdW0NIMl1bQ0BIXTJbQ0gzXQ==

> <s_epik_cmdline>
J2VwaWtfcHl0aG9uJywgJy1waCcsICc3LjAnLCAnLXRuJywgJzgnLCAnLW1hJywgJzIwMCcsICctbWV0YWxfYmluZGluZycsICctaW1hZScsICc8aW5maWxlLm1hZT4nLCAnLW9tYWUnLCAnPG91dGZpbGUubWFlPic=

> <r_lp_tautomer_probability>
1

> <r_epik_Ionization_Penalty>
2.94418e-05

> <r_epik_Ionization_Penalty_Charging>
0

> <r_epik_Ionization_Penalty_Neutral>
2.94418e-05

> <r_epik_State_Penalty>
-0

> <r_epik_Charging_Adjusted_Penalty>
0

> <i_epik_Tot_Q>
0

> <i_epik_Tot_abs_Q>
0

> <r_epik_Metal_State_Penalty>
0.0104148

> <b_epik_Metal_Only>
0

> <s_lp_Force_Field>
OPLS_2005

> <r_lp_Energy>
8.87971

> <b_lp_Chiralities_Consistent>
1

> <s_lp_Variant>
AV-unprocessed.smi:2104-1

> <Gold.Version>
5.8.1

> <Gold.Id.Protein>
6NUR|6NUR_protein|mol2

> <Gold.PLP.Fitness>
43.0526

> <Gold.PLP.PLP>
-32.4364

> <Gold.PLP.part.hbond>
-4.8634

> <Gold.PLP.part.metal>
0.0000

> <Gold.PLP.part.buried>
-1.4580

> <Gold.PLP.part.nonpolar>
-25.9849

> <Gold.PLP.part.repulsive>
0.5261

> <Gold.PLP.ligand.clash>
0.0000

> <Gold.PLP.ligand.torsion>
0.2021

> <Gold.PLP.Chemscore.Hbond>
3.6640

> <Gold.PLP.Chemscore.CHOScore>
0.0000

> <Gold.PLP.Chemscore.Metal>
0.0000

> <Gold.Chemscore.Hbonds>
donor molecule, donor type, donor heavy atom, donor atom, acceptor molecule, acceptor atom, score
      L1  H     5    25       P1  7957  0.96
      L1  H     8    26       P1  7957  1.00
      P1  H  7989  7998       L1    19  0.64
      P1  H  7997  8009       L1    20  0.89

> <Gold.PLP.Chemscore.Internal.Correction>
0.0284

> <Gold.Rescore>
     Score         DG    S(hbond)    S(metal)    S(lipo)     H(rot)  DE(clash)    DE(int)     intcor
     16.65     -18.67       3.01        0.00      65.16       1.75       0.48       1.54       ----

> <Gold.Chemscore.Fitness>
16.6478

> <Gold.Chemscore.DG>
-18.6708

> <Gold.Chemscore.ZeroCoef>
-5.4800

> <Gold.Chemscore.Hbond>
3.0098

> <Gold.Chemscore.Metal>
0.0000

> <Gold.Chemscore.Lipo>
65.1626

> <Gold.Chemscore.Internal_Hbond>
0.0000

> <Gold.Chemscore.DEClash>
0.4794

> <Gold.Chemscore.DEInternal>
1.5436

> <Gold.Chemscore.Rot>
1.7524

> <Gold.Chemscore.Internal.Correction>
   9.000000E+99

> <Gold.Chemscore.Hbonds>
donor molecule, donor type, donor heavy atom, donor atom, acceptor molecule, acceptor atom, score
      L1  H     5    25       P1  7957  0.92
      L1  H     8    26       P1  7957  0.95
      P1  H  7989  7998       L1    19  0.05
      P1  H  7997  8009       L1    20  0.77

> <Gold.Chemscore.Hbond.Weighted>
-10.0529

> <Gold.Chemscore.Metal.Weighted>
-0.0000

> <Gold.Chemscore.Lipo.Weighted>
-7.6240

> <Gold.Chemscore.Internal_Hbond.Weighted>
0.0000

> <Gold.Chemscore.DEClash.Weighted>
0.4794

> <Gold.Chemscore.DEInternal.Weighted>
1.5436

> <Gold.Chemscore.Rot.Weighted>
4.4861

> <Gold.Chemscore.Internal.Correction.Weighted>
   9.000000E+99

> <Gold.Protein.RotatedTorsions>
[ 6907 6896 6895 6894 ] final  -81.21 input  -60.11 | X-H torsion
[ 7974 7965 7964 7962 ] final -176.64 input  175.53 | X-H torsion
[ 8008 7997 7996 7995 ] final -156.06 input   59.86 | X-H torsion
[ 10167 10162 10161 10158 ] final  105.14 input  -65.29 | X-H torsion
[ 10718 10713 10712 10709 ] final -137.89 input   66.30 | X-H torsion
[ 10763 10752 10751 10750 ] final  -54.88 input  -60.55 | X-H torsion
[ 11005 11000 10999 10996 ] final -159.37 input  -57.11 | X-H torsion

> <Gold.Protein.ActiveResidues>
 VAL166  LYS551  ARG553  GLY616  TRP617  ASP618  TYR619  PRO620  LYS621  CYS622 
 ASP623  PHE694  ASN695  SER759  ASP760  ASP761  ALA762  ILE779  LEU786  VAL792 
 PHE793  MET794  SER795  GLU796  ALA797  LYS798  CYS799  TRP800  GLU811  SER814 

> <Gold.Protein.RotatedAtoms>
  150.6916  134.3852  159.5051 H   0  0  0  0  0  0  0  0  0  0  0  0  # atno 6907 bound_to 6896
  152.1648  134.8880  160.0548 H   0  0  0  0  0  0  0  0  0  0  0  0  # atno 6908 bound_to 6896
  151.9928  133.3762  159.4188 H   0  0  0  0  0  0  0  0  0  0  0  0  # atno 6909 bound_to 6896
  144.7127  140.1139  143.6409 H   0  0  0  0  0  0  0  0  0  0  0  0  # atno 7974 bound_to 7965
  155.7114  140.0779  157.2369 H   0  0  0  0  0  0  0  0  0  0  0  0  # atno 8008 bound_to 7997
  154.4058  140.1629  156.2354 H   0  0  0  0  0  0  0  0  0  0  0  0  # atno 8009 bound_to 7997
  155.9279  140.3393  155.6228 H   0  0  0  0  0  0  0  0  0  0  0  0  # atno 8010 bound_to 7997
  139.7117  144.7076  151.1016 H   0  0  0  0  0  0  0  0  0  0  0  0  # atno 10167 bound_to 10162
  156.2932  130.7387  151.1418 H   0  0  0  0  0  0  0  0  0  0  0  0  # atno 10718 bound_to 10713
  154.1819  135.6442  153.5036 H   0  0  0  0  0  0  0  0  0  0  0  0  # atno 10763 bound_to 10752
  153.0057  135.5408  154.6505 H   0  0  0  0  0  0  0  0  0  0  0  0  # atno 10764 bound_to 10752
  154.5871  135.2930  155.0646 H   0  0  0  0  0  0  0  0  0  0  0  0  # atno 10765 bound_to 10752
  140.6433  134.4528  157.5234 H   0  0  0  0  0  0  0  0  0  0  0  0  # atno 11005 bound_to 11000
  145.9430  139.2682  143.1257 LP  0  0  0  0  0  0  0  0  0  0  0  0  # atno 17320 bound_to 7965
  145.9403  140.8984  143.0311 LP  0  0  0  0  0  0  0  0  0  0  0  0  # atno 17321 bound_to 7965
  140.7735  143.5284  150.9453 LP  0  0  0  0  0  0  0  0  0  0  0  0  # atno 17342 bound_to 10162
  139.8969  143.6884  152.3137 LP  0  0  0  0  0  0  0  0  0  0  0  0  # atno 17343 bound_to 10162
  157.7348  131.0578  150.5504 LP  0  0  0  0  0  0  0  0  0  0  0  0  # atno 17370 bound_to 10713
  156.5623  130.4258  149.6057 LP  0  0  0  0  0  0  0  0  0  0  0  0  # atno 17371 bound_to 10713
  139.9072  134.8423  156.1661 LP  0  0  0  0  0  0  0  0  0  0  0  0  # atno 17394 bound_to 11000
  141.0591  133.6850  156.1917 LP  0  0  0  0  0  0  0  0  0  0  0  0  # atno 17395 bound_to 11000

$$$$
