AV-unprocessed.smi:1786|AV-procd|sdf|7205|dock10
  -GOLD-   22720 8443D 1   1.00000     0.00000
 Structure written by MMmdl.
 44 45  0  0  0  0  0  0  0  0  2 V2000
  145.2593  140.0199  155.7891 C   0  0  0  0  0  0  0  0  0  0  0  0
  146.1554  139.5390  154.6308 C   0  0  1  0  0  0  0  0  0  0  0  0
  145.5221  138.2837  153.9915 C   0  0  0  0  0  0  0  0  0  0  0  0
  146.3529  137.7545  152.8185 C   0  0  0  0  0  0  0  0  0  0  0  0
  146.5541  138.8711  151.7922 C   0  0  0  0  0  0  0  0  0  0  0  0
  147.1986  140.0978  152.4530 C   0  0  0  0  0  0  0  0  0  0  0  0
  146.3934  140.6003  153.6002 N   0  3  2  0  0  0  0  0  0  0  0  0
  146.9635  141.8628  154.1453 C   0  0  0  0  0  0  0  0  0  0  0  0
  148.4890  141.7641  154.3398 C   0  0  0  0  0  0  0  0  0  0  0  0
  148.8351  141.5720  155.7429 N   0  0  0  0  0  0  0  0  0  0  0  0
  150.0256  141.1370  156.1832 C   0  0  0  0  0  0  0  0  0  0  0  0
  150.9446  140.8148  155.4291 O   0  0  0  0  0  0  0  0  0  0  0  0
  150.1978  141.0419  157.7049 C   0  0  0  0  0  0  0  0  0  0  0  0
  151.1510  142.0351  158.2269 N   0  0  0  0  0  0  0  0  0  0  0  0
  150.9396  143.3821  157.8708 C   0  0  0  0  0  0  0  0  0  0  0  0
  151.7469  144.3648  158.3006 C   0  0  0  0  0  0  0  0  0  0  0  0
  152.8606  144.0120  159.1491 C   0  0  0  0  0  0  0  0  0  0  0  0
  153.0700  142.7270  159.4982 C   0  0  0  0  0  0  0  0  0  0  0  0
  152.1863  141.6507  159.0363 C   0  0  0  0  0  0  0  0  0  0  0  0
  152.3636  140.4753  159.3594 O   0  0  0  0  0  0  0  0  0  0  0  0
  145.0645  139.2085  156.4910 H   0  0  0  0  0  0  0  0  0  0  0  0
  144.2942  140.3733  155.4246 H   0  0  0  0  0  0  0  0  0  0  0  0
  145.7190  140.8231  156.3646 H   0  0  0  0  0  0  0  0  0  0  0  0
  147.1239  139.2569  155.0476 H   0  0  0  0  0  0  0  0  0  0  0  0
  145.4146  137.4975  154.7400 H   0  0  0  0  0  0  0  0  0  0  0  0
  144.5143  138.5151  153.6438 H   0  0  0  0  0  0  0  0  0  0  0  0
  147.3195  137.3985  153.1773 H   0  0  0  0  0  0  0  0  0  0  0  0
  145.8548  136.9013  152.3572 H   0  0  0  0  0  0  0  0  0  0  0  0
  147.1808  138.5159  150.9734 H   0  0  0  0  0  0  0  0  0  0  0  0
  145.5954  139.1487  151.3519 H   0  0  0  0  0  0  0  0  0  0  0  0
  148.2052  139.8520  152.7959 H   0  0  0  0  0  0  0  0  0  0  0  0
  147.3011  140.8856  151.7053 H   0  0  0  0  0  0  0  0  0  0  0  0
  146.6936  142.7053  153.5072 H   0  0  0  0  0  0  0  0  0  0  0  0
  146.5208  142.0929  155.1159 H   0  0  0  0  0  0  0  0  0  0  0  0
  148.8789  140.9161  153.7759 H   0  0  0  0  0  0  0  0  0  0  0  0
  149.0020  142.6470  153.9586 H   0  0  0  0  0  0  0  0  0  0  0  0
  148.1292  141.8038  156.4274 H   0  0  0  0  0  0  0  0  0  0  0  0
  149.2309  141.1582  158.1988 H   0  0  0  0  0  0  0  0  0  0  0  0
  150.5228  140.0290  157.9465 H   0  0  0  0  0  0  0  0  0  0  0  0
  150.0819  143.5635  157.2392 H   0  0  0  0  0  0  0  0  0  0  0  0
  151.5662  145.3925  158.0217 H   0  0  0  0  0  0  0  0  0  0  0  0
  153.5291  144.7817  159.5059 H   0  0  0  0  0  0  0  0  0  0  0  0
  153.9086  142.4819  160.1334 H   0  0  0  0  0  0  0  0  0  0  0  0
  145.4898  140.8403  153.2182 H   0  0  0  0  0  0  0  0  0  0  0  0
  1  2  1  0  0  0  0
  1 21  1  0  0  0  0
  1 22  1  0  0  0  0
  1 23  1  0  0  0  0
  2  7  1  0  0  0  0
  2  3  1  0  0  0  0
  2 24  1  0  0  0  0
  3  4  1  0  0  0  0
  3 25  1  0  0  0  0
  3 26  1  0  0  0  0
  4  5  1  0  0  0  0
  4 27  1  0  0  0  0
  4 28  1  0  0  0  0
  5  6  1  0  0  0  0
  5 29  1  0  0  0  0
  5 30  1  0  0  0  0
  6  7  1  0  0  0  0
  6 31  1  0  0  0  0
  6 32  1  0  0  0  0
  7  8  1  0  0  0  0
  7 44  1  0  0  0  0
  8  9  1  0  0  0  0
  8 33  1  0  0  0  0
  8 34  1  0  0  0  0
  9 10  1  0  0  0  0
  9 35  1  0  0  0  0
  9 36  1  0  0  0  0
 10 11  1  0  0  0  0
 10 37  1  0  0  0  0
 11 12  2  0  0  0  0
 11 13  1  0  0  0  0
 13 14  1  0  0  0  0
 13 38  1  0  0  0  0
 13 39  1  0  0  0  0
 14 19  1  0  0  0  0
 14 15  1  0  0  0  0
 15 16  2  0  0  0  0
 15 40  1  0  0  0  0
 16 17  1  0  0  0  0
 16 41  1  0  0  0  0
 17 18  2  0  0  0  0
 17 42  1  0  0  0  0
 18 19  1  0  0  0  0
 18 43  1  0  0  0  0
 19 20  2  0  0  0  0
M  CHG  1   7   1
M  END
> <s_m_source_file>
AV-unprocessed.smi

> <i_m_source_file_index>
1786

> <i_lp_mmshare_version>
43012

> <i_f3d_flags>
0

> <s_epik_input>
W0NIM11bQ0BASF0xW0NIMl1bQ0gyXVtDSDJdW0NIMl1OMVtDSDJdW0NIMl1bTkhdQyg9TylbQ0gyXW4yW2NIXVtjSF1bY0hdW2NIXWMyPU8=

> <s_epik_cmdline>
J2VwaWtfcHl0aG9uJywgJy1waCcsICc3LjAnLCAnLXRuJywgJzgnLCAnLW1hJywgJzIwMCcsICctbWV0YWxfYmluZGluZycsICctaW1hZScsICc8aW5maWxlLm1hZT4nLCAnLW9tYWUnLCAnPG91dGZpbGUubWFlPic=

> <r_lp_tautomer_probability>
1

> <r_epik_Ionization_Penalty>
0.00237247

> <r_epik_Ionization_Penalty_Charging>
0.00237238

> <r_epik_Ionization_Penalty_Neutral>
8.2065e-08

> <r_epik_State_Penalty>
0.00163922

> <r_epik_Charging_Adjusted_Penalty>
0.0040116

> <i_epik_Tot_Q>
1

> <i_epik_Tot_abs_Q>
1

> <r_epik_Metal_State_Penalty>
-0

> <b_epik_Metal_Only>
0

> <s_lp_Force_Field>
OPLS_2005

> <r_lp_Energy>
27.3139

> <b_lp_Chiralities_Consistent>
1

> <s_lp_Variant>
AV-unprocessed.smi:1786-4

> <Gold.Version>
5.8.1

> <Gold.Id.Protein>
6NUR|6NUR_protein|mol2

> <Gold.PLP.Fitness>
49.5611

> <Gold.PLP.PLP>
-39.3508

> <Gold.PLP.part.hbond>
-2.5345

> <Gold.PLP.part.metal>
0.0000

> <Gold.PLP.part.buried>
-0.3617

> <Gold.PLP.part.nonpolar>
-37.1082

> <Gold.PLP.part.repulsive>
0.1431

> <Gold.PLP.ligand.clash>
0.0000

> <Gold.PLP.ligand.torsion>
0.7042

> <Gold.PLP.Chemscore.Hbond>
2.8640

> <Gold.PLP.Chemscore.CHOScore>
1.0000

> <Gold.PLP.Chemscore.Metal>
0.0000

> <Gold.Chemscore.Hbonds>
donor molecule, donor type, donor heavy atom, donor atom, acceptor molecule, acceptor atom, score
      L1  H     7    44       P1 10175  2.00
      P1  H  7989  7998       L1    12  0.76
      L1  C    15    40       P1  8028  1.00

> <Gold.PLP.Chemscore.Internal.Correction>
0.0266

> <Gold.Rescore>
     Score         DG    S(hbond)    S(metal)    S(lipo)     H(rot)  DE(clash)    DE(int)     intcor
     15.59     -17.55       1.59        0.00      98.48       1.86       1.22       0.74       ----

> <Gold.Chemscore.Fitness>
15.5933

> <Gold.Chemscore.DG>
-17.5533

> <Gold.Chemscore.ZeroCoef>
-5.4800

> <Gold.Chemscore.Hbond>
1.5894

> <Gold.Chemscore.Metal>
0.0000

> <Gold.Chemscore.Lipo>
98.4843

> <Gold.Chemscore.Internal_Hbond>
0.0000

> <Gold.Chemscore.DEClash>
1.2171

> <Gold.Chemscore.DEInternal>
0.7429

> <Gold.Chemscore.Rot>
1.8586

> <Gold.Chemscore.Internal.Correction>
   9.000000E+99

> <Gold.Chemscore.Hbonds>
donor molecule, donor type, donor heavy atom, donor atom, acceptor molecule, acceptor atom, score
      L1  H     7    44       P1 10175  0.63
      P1  H  7989  7998       L1    12  0.73

> <Gold.Chemscore.Hbond.Weighted>
-5.3087

> <Gold.Chemscore.Metal.Weighted>
-0.0000

> <Gold.Chemscore.Lipo.Weighted>
-11.5227

> <Gold.Chemscore.Internal_Hbond.Weighted>
0.0000

> <Gold.Chemscore.DEClash.Weighted>
1.2171

> <Gold.Chemscore.DEInternal.Weighted>
0.7429

> <Gold.Chemscore.Rot.Weighted>
4.7581

> <Gold.Chemscore.Internal.Correction.Weighted>
   9.000000E+99

> <Gold.Protein.RotatedTorsions>
[ 6907 6896 6895 6894 ] final  155.13 input  -60.11 | X-H torsion
[ 7974 7965 7964 7962 ] final  162.24 input  175.53 | X-H torsion
[ 8008 7997 7996 7995 ] final  117.50 input   59.86 | X-H torsion
[ 10167 10162 10161 10158 ] final  -13.27 input  -65.29 | X-H torsion
[ 10718 10713 10712 10709 ] final   71.06 input   66.30 | X-H torsion
[ 10763 10752 10751 10750 ] final  115.47 input  -60.55 | X-H torsion
[ 11005 11000 10999 10996 ] final  100.07 input  -57.11 | X-H torsion

> <Gold.Protein.ActiveResidues>
 VAL166  LYS551  ARG553  GLY616  TRP617  ASP618  TYR619  PRO620  LYS621  CYS622 
 ASP623  PHE694  ASN695  SER759  ASP760  ASP761  ALA762  ILE779  LEU786  VAL792 
 PHE793  MET794  SER795  GLU796  ALA797  LYS798  CYS799  TRP800  GLU811  SER814 

> <Gold.Protein.RotatedAtoms>
  152.0485  133.4008  159.4366 H   0  0  0  0  0  0  0  0  0  0  0  0  # atno 6907 bound_to 6896
  150.6871  134.3334  159.4846 H   0  0  0  0  0  0  0  0  0  0  0  0  # atno 6908 bound_to 6896
  152.1141  134.9252  160.0616 H   0  0  0  0  0  0  0  0  0  0  0  0  # atno 6909 bound_to 6896
  144.7646  139.8011  143.6320 H   0  0  0  0  0  0  0  0  0  0  0  0  # atno 7974 bound_to 7965
  156.2497  140.2895  156.0688 H   0  0  0  0  0  0  0  0  0  0  0  0  # atno 8008 bound_to 7997
  155.1694  140.0401  157.2877 H   0  0  0  0  0  0  0  0  0  0  0  0  # atno 8009 bound_to 7997
  154.6336  140.2505  155.7411 H   0  0  0  0  0  0  0  0  0  0  0  0  # atno 8010 bound_to 7997
  140.7178  143.5444  150.9372 H   0  0  0  0  0  0  0  0  0  0  0  0  # atno 10167 bound_to 10162
  157.6432  130.9509  150.0737 H   0  0  0  0  0  0  0  0  0  0  0  0  # atno 10718 bound_to 10713
  153.5227  135.3594  155.2639 H   0  0  0  0  0  0  0  0  0  0  0  0  # atno 10763 bound_to 10752
  154.8734  135.4049  154.3242 H   0  0  0  0  0  0  0  0  0  0  0  0  # atno 10764 bound_to 10752
  153.3915  135.7072  153.6558 H   0  0  0  0  0  0  0  0  0  0  0  0  # atno 10765 bound_to 10752
  139.8771  134.9124  156.4701 H   0  0  0  0  0  0  0  0  0  0  0  0  # atno 11005 bound_to 11000
  146.1742  139.4905  142.9908 LP  0  0  0  0  0  0  0  0  0  0  0  0  # atno 17320 bound_to 7965
  145.6510  141.0263  143.1760 LP  0  0  0  0  0  0  0  0  0  0  0  0  # atno 17321 bound_to 7965
  139.9167  143.6654  152.3105 LP  0  0  0  0  0  0  0  0  0  0  0  0  # atno 17342 bound_to 10162
  139.7057  144.7628  151.1197 LP  0  0  0  0  0  0  0  0  0  0  0  0  # atno 17343 bound_to 10162
  156.1733  130.3647  149.9134 LP  0  0  0  0  0  0  0  0  0  0  0  0  # atno 17370 bound_to 10713
  156.7104  130.8968  151.3609 LP  0  0  0  0  0  0  0  0  0  0  0  0  # atno 17371 bound_to 10713
  140.8802  133.7923  155.9458 LP  0  0  0  0  0  0  0  0  0  0  0  0  # atno 17394 bound_to 11000
  140.8862  134.2551  157.5118 LP  0  0  0  0  0  0  0  0  0  0  0  0  # atno 17395 bound_to 11000

$$$$
