AV-unprocessed.smi:287|AV-procd|sdf|2191|dock5
  -GOLD-   2262021583D 1   1.00000     0.00000
 Structure written by MMmdl.
 55 58  0  0  0  0  0  0  0  0  1 V2000
  144.0928  144.4823  154.9752 C   0  0  0  0  0  0  0  0  0  0  0  0
  145.0298  143.3289  154.8616 C   0  0  0  0  0  0  0  0  0  0  0  0
  145.7282  142.7775  153.8272 C   0  0  0  0  0  0  0  0  0  0  0  0
  146.4584  141.6677  154.3490 C   0  0  0  0  0  0  0  0  0  0  0  0
  147.3897  140.7520  153.5661 C   0  0  1  0  0  0  0  0  0  0  0  0
  146.6270  140.1234  152.3887 C   0  0  0  0  0  0  0  0  0  0  0  0
  148.4765  141.4464  152.9847 O   0  0  0  0  0  0  0  0  0  0  0  0
  148.0175  139.6446  154.4433 C   0  0  0  0  0  0  0  0  0  0  0  0
  149.2765  139.1390  153.9057 N   0  0  0  0  0  0  0  0  0  0  0  0
  150.4164  139.2642  154.6164 C   0  0  0  0  0  0  0  0  0  0  0  0
  151.5025  138.4964  154.3392 N   0  0  0  0  0  0  0  0  0  0  0  0
  152.6212  138.6406  155.0557 C   0  0  0  0  0  0  0  0  0  0  0  0
  152.8603  139.4748  156.0695 N   0  0  0  0  0  0  0  0  0  0  0  0
  151.7715  140.2483  156.3523 C   0  0  0  0  0  0  0  0  0  0  0  0
  150.5214  140.2026  155.6751 C   0  0  0  0  0  0  0  0  0  0  0  0
  149.6507  141.1323  156.2286 N   0  0  0  0  0  0  0  0  0  0  0  0
  150.3514  141.6957  157.1757 C   0  0  0  0  0  0  0  0  0  0  0  0
  151.6383  141.2268  157.3178 N   0  0  0  0  0  0  0  0  0  0  0  0
  152.6688  141.6835  158.3019 C   0  0  1  0  0  0  0  0  0  0  0  0
  152.2138  142.8238  158.9529 O   0  0  0  0  0  0  0  0  0  0  0  0
  152.8145  142.8990  160.2416 C   0  0  1  0  0  0  0  0  0  0  0  0
  151.7725  143.4056  161.2563 C   0  0  0  0  0  0  0  0  0  0  0  0
  151.7653  142.6339  162.4397 O   0  0  0  0  0  0  0  0  0  0  0  0
  153.4358  141.5179  160.5428 C   0  0  2  0  0  0  0  0  0  0  0  0
  154.8470  141.6265  160.5311 O   0  0  0  0  0  0  0  0  0  0  0  0
  152.9756  140.6399  159.3849 C   0  0  1  0  0  0  0  0  0  0  0  0
  151.8528  139.8592  159.7514 O   0  0  0  0  0  0  0  0  0  0  0  0
  146.1502  141.6453  155.6878 C   0  0  0  0  0  0  0  0  0  0  0  0
  146.5666  140.7802  156.8311 C   0  0  0  0  0  0  0  0  0  0  0  0
  145.2805  142.6445  156.0055 O   0  0  0  0  0  0  0  0  0  0  0  0
  153.5452  141.9365  157.7031 H   0  0  0  0  0  0  0  0  0  0  0  0
  153.5996  143.6535  160.1680 H   0  0  0  0  0  0  0  0  0  0  0  0
  153.1400  141.1154  161.5127 H   0  0  0  0  0  0  0  0  0  0  0  0
  153.7519  139.9612  159.0287 H   0  0  0  0  0  0  0  0  0  0  0  0
  143.9264  144.9462  154.0028 H   0  0  0  0  0  0  0  0  0  0  0  0
  144.4933  145.2410  155.6477 H   0  0  0  0  0  0  0  0  0  0  0  0
  143.1272  144.1589  155.3646 H   0  0  0  0  0  0  0  0  0  0  0  0
  145.7136  143.1280  152.8057 H   0  0  0  0  0  0  0  0  0  0  0  0
  145.7809  139.5310  152.7386 H   0  0  0  0  0  0  0  0  0  0  0  0
  147.2681  139.4639  151.8025 H   0  0  0  0  0  0  0  0  0  0  0  0
  146.2354  140.8880  151.7163 H   0  0  0  0  0  0  0  0  0  0  0  0
  148.7816  140.9535  152.2384 H   0  0  0  0  0  0  0  0  0  0  0  0
  148.2309  140.0584  155.4300 H   0  0  0  0  0  0  0  0  0  0  0  0
  147.3136  138.8246  154.5947 H   0  0  0  0  0  0  0  0  0  0  0  0
  149.2279  138.6996  152.9974 H   0  0  0  0  0  0  0  0  0  0  0  0
  153.4424  137.9976  154.7763 H   0  0  0  0  0  0  0  0  0  0  0  0
  149.9463  142.4793  157.7994 H   0  0  0  0  0  0  0  0  0  0  0  0
  152.0000  144.4352  161.5329 H   0  0  0  0  0  0  0  0  0  0  0  0
  150.7756  143.4063  160.8151 H   0  0  0  0  0  0  0  0  0  0  0  0
  151.7887  143.2186  163.1815 H   0  0  0  0  0  0  0  0  0  0  0  0
  155.1647  141.3361  159.6900 H   0  0  0  0  0  0  0  0  0  0  0  0
  151.5300  139.4186  158.9804 H   0  0  0  0  0  0  0  0  0  0  0  0
  147.6529  140.7095  156.8855 H   0  0  0  0  0  0  0  0  0  0  0  0
  146.1662  139.7727  156.7172 H   0  0  0  0  0  0  0  0  0  0  0  0
  146.2086  141.1797  157.7803 H   0  0  0  0  0  0  0  0  0  0  0  0
  1  2  1  0  0  0  0
  1 35  1  0  0  0  0
  1 36  1  0  0  0  0
  1 37  1  0  0  0  0
  2 30  1  0  0  0  0
  2  3  2  0  0  0  0
  3  4  1  0  0  0  0
  3 38  1  0  0  0  0
  4  5  1  0  0  0  0
  4 28  2  0  0  0  0
  5  6  1  0  0  0  0
  5  7  1  0  0  0  0
  5  8  1  0  0  0  0
  6 39  1  0  0  0  0
  6 40  1  0  0  0  0
  6 41  1  0  0  0  0
  7 42  1  0  0  0  0
  8  9  1  0  0  0  0
  8 43  1  0  0  0  0
  8 44  1  0  0  0  0
  9 10  1  0  0  0  0
  9 45  1  0  0  0  0
 10 15  1  0  0  0  0
 10 11  2  0  0  0  0
 11 12  1  0  0  0  0
 12 13  2  0  0  0  0
 12 46  1  0  0  0  0
 13 14  1  0  0  0  0
 14 18  1  0  0  0  0
 14 15  2  0  0  0  0
 15 16  1  0  0  0  0
 16 17  2  0  0  0  0
 17 18  1  0  0  0  0
 17 47  1  0  0  0  0
 18 19  1  0  0  0  0
 19 31  1  0  0  0  0
 19 26  1  0  0  0  0
 19 20  1  0  0  0  0
 20 21  1  0  0  0  0
 21 32  1  0  0  0  0
 21 22  1  0  0  0  0
 21 24  1  0  0  0  0
 22 23  1  0  0  0  0
 22 48  1  0  0  0  0
 22 49  1  0  0  0  0
 23 50  1  0  0  0  0
 24 33  1  0  0  0  0
 24 25  1  0  0  0  0
 24 26  1  0  0  0  0
 25 51  1  0  0  0  0
 26 34  1  0  0  0  0
 26 27  1  0  0  0  0
 27 52  1  0  0  0  0
 28 29  1  0  0  0  0
 28 30  1  0  0  0  0
 29 53  1  0  0  0  0
 29 54  1  0  0  0  0
 29 55  1  0  0  0  0
M  END
> <s_m_source_file>
AV-unprocessed.smi

> <i_m_source_file_index>
287

> <i_lp_mmshare_version>
43012

> <i_f3d_flags>
0

> <s_epik_input>
W0NIM11jMVtjSF1jKGMobzEpW0NIM10pW0NAQF0oW0NIM10pKFtPSF0pW0NIMl1bTkhdYyhuW2NIXW4yKWMoYzIzKW5bY0hdbjNbQ0BASF00T1tDQEhdKFtDSDJdW09IXSlbQ0BASF0oW09IXSlbQ0BIXTRbT0hd

> <s_epik_cmdline>
J2VwaWtfcHl0aG9uJywgJy1waCcsICc3LjAnLCAnLXRuJywgJzgnLCAnLW1hJywgJzIwMCcsICctbWV0YWxfYmluZGluZycsICctaW1hZScsICc8aW5maWxlLm1hZT4nLCAnLW9tYWUnLCAnPG91dGZpbGUubWFlPic=

> <r_lp_tautomer_probability>
1

> <r_epik_Ionization_Penalty>
0.000992612

> <r_epik_Ionization_Penalty_Charging>
0

> <r_epik_Ionization_Penalty_Neutral>
0.000992612

> <r_epik_State_Penalty>
-0

> <r_epik_Charging_Adjusted_Penalty>
0

> <i_epik_Tot_Q>
0

> <i_epik_Tot_abs_Q>
0

> <r_epik_Metal_State_Penalty>
-0

> <b_epik_Metal_Only>
0

> <s_epik_Chemistry_Notes>
This compound contains an acetal/aminal-like group ( X-CH(R)-Y where X, Y are N, S, or O) that may be acid/base labile, releasing an aldehyde.

> <s_lp_Force_Field>
OPLS_2005

> <r_lp_Energy>
44.0492

> <b_lp_Chiralities_Consistent>
1

> <s_lp_Variant>
AV-unprocessed.smi:287-15

> <Gold.Version>
5.8.1

> <Gold.Id.Protein>
6NUR|6NUR_protein|mol2

> <Gold.PLP.Fitness>
54.0802

> <Gold.PLP.PLP>
-47.8007

> <Gold.PLP.part.hbond>
-7.0936

> <Gold.PLP.part.metal>
0.0000

> <Gold.PLP.part.buried>
-0.3560

> <Gold.PLP.part.nonpolar>
-40.0932

> <Gold.PLP.part.repulsive>
0.4460

> <Gold.PLP.ligand.clash>
0.0000

> <Gold.PLP.ligand.torsion>
1.3498

> <Gold.PLP.Chemscore.Hbond>
2.9663

> <Gold.PLP.Chemscore.CHOScore>
0.0000

> <Gold.PLP.Chemscore.Metal>
0.0000

> <Gold.Chemscore.Hbonds>
donor molecule, donor type, donor heavy atom, donor atom, acceptor molecule, acceptor atom, score
      L1  H     7    42       P1  7957  1.00
      L1  H     9    45       P1  7957  0.13
      P1  H  6933  6945       L1    23  1.00
      P1  H  7997  8008       L1    13  1.00

> <Gold.PLP.Chemscore.Internal.Correction>
0.0802

> <Gold.Rescore>
     Score         DG    S(hbond)    S(metal)    S(lipo)     H(rot)  DE(clash)    DE(int)     intcor
      2.79     -10.89       2.31        0.00      95.53       5.27       4.67       3.43       ----

> <Gold.Chemscore.Fitness>
2.7918

> <Gold.Chemscore.DG>
-10.8880

> <Gold.Chemscore.ZeroCoef>
-5.4800

> <Gold.Chemscore.Hbond>
2.3100

> <Gold.Chemscore.Metal>
0.0000

> <Gold.Chemscore.Lipo>
95.5274

> <Gold.Chemscore.Internal_Hbond>
0.0000

> <Gold.Chemscore.DEClash>
4.6691

> <Gold.Chemscore.DEInternal>
3.4271

> <Gold.Chemscore.Rot>
5.2672

> <Gold.Chemscore.Internal.Correction>
   9.000000E+99

> <Gold.Chemscore.Hbonds>
donor molecule, donor type, donor heavy atom, donor atom, acceptor molecule, acceptor atom, score
      L1  H     7    42       P1  7957  0.99
      L1  H     9    45       P1  7957  0.12
      P1  H  6933  6945       L1    23  0.20
      P1  H  7997  8008       L1    13  0.92

> <Gold.Chemscore.Hbond.Weighted>
-7.7152

> <Gold.Chemscore.Metal.Weighted>
-0.0000

> <Gold.Chemscore.Lipo.Weighted>
-11.1767

> <Gold.Chemscore.Internal_Hbond.Weighted>
0.0000

> <Gold.Chemscore.DEClash.Weighted>
4.6691

> <Gold.Chemscore.DEInternal.Weighted>
3.4271

> <Gold.Chemscore.Rot.Weighted>
13.4839

> <Gold.Chemscore.Internal.Correction.Weighted>
   9.000000E+99

> <Gold.Protein.RotatedTorsions>
[ 6907 6896 6895 6894 ] final   74.77 input  -60.11 | X-H torsion
[ 7974 7965 7964 7962 ] final -162.60 input  175.53 | X-H torsion
[ 8008 7997 7996 7995 ] final  -32.33 input   59.86 | X-H torsion
[ 10167 10162 10161 10158 ] final  -29.90 input  -65.29 | X-H torsion
[ 10718 10713 10712 10709 ] final -117.61 input   66.30 | X-H torsion
[ 10763 10752 10751 10750 ] final   81.24 input  -60.55 | X-H torsion
[ 11005 11000 10999 10996 ] final  -83.72 input  -57.11 | X-H torsion

> <Gold.Protein.ActiveResidues>
 VAL166  LYS551  ARG553  GLY616  TRP617  ASP618  TYR619  PRO620  LYS621  CYS622 
 ASP623  PHE694  ASN695  SER759  ASP760  ASP761  ALA762  ILE779  LEU786  VAL792 
 PHE793  MET794  SER795  GLU796  ALA797  LYS798  CYS799  TRP800  GLU811  SER814 

> <Gold.Protein.RotatedAtoms>
  152.4993  134.4221  159.9483 H   0  0  0  0  0  0  0  0  0  0  0  0  # atno 6907 bound_to 6896
  151.4194  133.3696  159.2762 H   0  0  0  0  0  0  0  0  0  0  0  0  # atno 6908 bound_to 6896
  150.9233  134.8673  159.7563 H   0  0  0  0  0  0  0  0  0  0  0  0  # atno 6909 bound_to 6896
  144.7352  140.3228  143.6167 H   0  0  0  0  0  0  0  0  0  0  0  0  # atno 7974 bound_to 7965
  154.4183  140.1740  156.1710 H   0  0  0  0  0  0  0  0  0  0  0  0  # atno 8008 bound_to 7997
  155.9760  140.3381  155.6595 H   0  0  0  0  0  0  0  0  0  0  0  0  # atno 8009 bound_to 7997
  155.6563  140.0696  157.2560 H   0  0  0  0  0  0  0  0  0  0  0  0  # atno 8010 bound_to 7997
  140.7255  143.3891  151.1461 H   0  0  0  0  0  0  0  0  0  0  0  0  # atno 10167 bound_to 10162
  156.1046  130.6200  150.9186 H   0  0  0  0  0  0  0  0  0  0  0  0  # atno 10718 bound_to 10713
  153.1100  135.4773  154.9018 H   0  0  0  0  0  0  0  0  0  0  0  0  # atno 10763 bound_to 10752
  154.7470  135.3096  154.8628 H   0  0  0  0  0  0  0  0  0  0  0  0  # atno 10764 bound_to 10752
  153.9220  135.6854  153.4801 H   0  0  0  0  0  0  0  0  0  0  0  0  # atno 10765 bound_to 10752
  141.1656  133.7308  156.8761 H   0  0  0  0  0  0  0  0  0  0  0  0  # atno 11005 bound_to 11000
  145.7551  139.1806  143.2299 LP  0  0  0  0  0  0  0  0  0  0  0  0  # atno 17320 bound_to 7965
  146.1031  140.7520  142.9540 LP  0  0  0  0  0  0  0  0  0  0  0  0  # atno 17321 bound_to 7965
  139.7493  143.8803  152.3072 LP  0  0  0  0  0  0  0  0  0  0  0  0  # atno 17342 bound_to 10162
  139.8651  144.7097  150.9053 LP  0  0  0  0  0  0  0  0  0  0  0  0  # atno 17343 bound_to 10162
  157.6221  131.0929  150.8602 LP  0  0  0  0  0  0  0  0  0  0  0  0  # atno 17370 bound_to 10713
  156.8724  130.5150  149.5296 LP  0  0  0  0  0  0  0  0  0  0  0  0  # atno 17371 bound_to 10713
  140.1747  134.9075  157.2876 LP  0  0  0  0  0  0  0  0  0  0  0  0  # atno 17394 bound_to 11000
  140.2462  134.3737  155.7460 LP  0  0  0  0  0  0  0  0  0  0  0  0  # atno 17395 bound_to 11000

$$$$
