AV-unprocessed.smi:1252|AV-procd|sdf|5264|dock5
  -GOLD-   22720 4373D 1   1.00000     0.00000
 Structure written by MMmdl.
 43 44  0  0  0  0  0  0  0  0  1 V2000
  147.3287  132.7428  152.8708 C   0  0  0  0  0  0  0  0  0  0  0  0
  146.5761  133.8018  152.0458 C   0  0  2  0  0  0  0  0  0  0  0  0
  145.9512  134.8910  152.9298 C   0  0  0  0  0  0  0  0  0  0  0  0
  144.8453  134.7195  153.4445 O   0  0  0  0  0  0  0  0  0  0  0  0
  146.6771  136.0076  153.0964 N   0  0  0  0  0  0  0  0  0  0  0  0
  146.3000  137.1639  153.9085 C   0  0  0  0  0  0  0  0  0  0  0  0
  147.4540  138.1984  154.0722 C   0  0  0  0  0  0  0  0  0  0  0  0
  147.4217  139.1160  152.8262 C   0  0  0  0  0  0  0  0  0  0  0  0
  147.0914  139.0821  155.2928 C   0  0  0  0  0  0  0  0  0  0  0  0
  148.7710  137.5291  154.2697 N   0  0  0  0  0  0  0  0  0  0  0  0
  149.9028  138.4408  154.4753 C   0  0  0  0  0  0  0  0  0  0  0  0
  151.2438  137.6909  154.5468 C   0  0  0  0  0  0  0  0  0  0  0  0
  151.1939  136.7183  155.5835 O   0  0  0  0  0  0  0  0  0  0  0  0
  150.1456  135.7761  155.3922 C   0  0  0  0  0  0  0  0  0  0  0  0
  148.7948  136.5090  155.3247 C   0  0  0  0  0  0  0  0  0  0  0  0
  145.5612  133.1828  151.2046 N   0  0  0  0  0  0  0  0  0  0  0  0
  145.6384  132.1722  150.3332 C   0  0  0  0  0  0  0  0  0  0  0  0
  144.4913  131.8937  149.7300 N   0  0  0  0  0  0  0  0  0  0  0  0
  143.6939  132.8384  150.3111 C   0  0  0  0  0  0  0  0  0  0  0  0
  144.2857  133.6386  151.1980 N   0  0  0  0  0  0  0  0  0  0  0  0
  148.0823  133.2033  153.5110 H   0  0  0  0  0  0  0  0  0  0  0  0
  147.8415  132.0365  152.2174 H   0  0  0  0  0  0  0  0  0  0  0  0
  146.6543  132.1706  153.5092 H   0  0  0  0  0  0  0  0  0  0  0  0
  147.3060  134.2849  151.3928 H   0  0  0  0  0  0  0  0  0  0  0  0
  147.5757  136.0551  152.6383 H   0  0  0  0  0  0  0  0  0  0  0  0
  145.4312  137.6245  153.4392 H   0  0  0  0  0  0  0  0  0  0  0  0
  145.9373  136.8393  154.8857 H   0  0  0  0  0  0  0  0  0  0  0  0
  146.4482  139.5965  152.7204 H   0  0  0  0  0  0  0  0  0  0  0  0
  147.6007  138.5641  151.9037 H   0  0  0  0  0  0  0  0  0  0  0  0
  148.1604  139.9151  152.8832 H   0  0  0  0  0  0  0  0  0  0  0  0
  146.0571  139.4250  155.2456 H   0  0  0  0  0  0  0  0  0  0  0  0
  147.7054  139.9809  155.3492 H   0  0  0  0  0  0  0  0  0  0  0  0
  147.2129  138.5421  156.2324 H   0  0  0  0  0  0  0  0  0  0  0  0
  149.9718  139.1657  153.6663 H   0  0  0  0  0  0  0  0  0  0  0  0
  149.7684  139.0068  155.3972 H   0  0  0  0  0  0  0  0  0  0  0  0
  151.4679  137.2080  153.5942 H   0  0  0  0  0  0  0  0  0  0  0  0
  152.0565  138.3879  154.7517 H   0  0  0  0  0  0  0  0  0  0  0  0
  150.3211  135.2054  154.4790 H   0  0  0  0  0  0  0  0  0  0  0  0
  150.1496  135.0657  156.2190 H   0  0  0  0  0  0  0  0  0  0  0  0
  148.5942  136.9641  156.2945 H   0  0  0  0  0  0  0  0  0  0  0  0
  148.0221  135.7605  155.1598 H   0  0  0  0  0  0  0  0  0  0  0  0
  146.5526  131.6314  150.1355 H   0  0  0  0  0  0  0  0  0  0  0  0
  142.6457  132.9411  150.0714 H   0  0  0  0  0  0  0  0  0  0  0  0
  1  2  1  0  0  0  0
  1 21  1  0  0  0  0
  1 22  1  0  0  0  0
  1 23  1  0  0  0  0
  2  3  1  0  0  0  0
  2 16  1  0  0  0  0
  2 24  1  0  0  0  0
  3  4  2  0  0  0  0
  3  5  1  0  0  0  0
  5  6  1  0  0  0  0
  5 25  1  0  0  0  0
  6  7  1  0  0  0  0
  6 26  1  0  0  0  0
  6 27  1  0  0  0  0
  7  8  1  0  0  0  0
  7  9  1  0  0  0  0
  7 10  1  0  0  0  0
  8 28  1  0  0  0  0
  8 29  1  0  0  0  0
  8 30  1  0  0  0  0
  9 31  1  0  0  0  0
  9 32  1  0  0  0  0
  9 33  1  0  0  0  0
 10 15  1  0  0  0  0
 10 11  1  0  0  0  0
 11 12  1  0  0  0  0
 11 34  1  0  0  0  0
 11 35  1  0  0  0  0
 12 13  1  0  0  0  0
 12 36  1  0  0  0  0
 12 37  1  0  0  0  0
 13 14  1  0  0  0  0
 14 15  1  0  0  0  0
 14 38  1  0  0  0  0
 14 39  1  0  0  0  0
 15 40  1  0  0  0  0
 15 41  1  0  0  0  0
 16 20  1  0  0  0  0
 16 17  1  0  0  0  0
 17 18  2  0  0  0  0
 17 42  1  0  0  0  0
 18 19  1  0  0  0  0
 19 20  2  0  0  0  0
 19 43  1  0  0  0  0
M  END
> <s_m_source_file>
AV-unprocessed.smi

> <i_m_source_file_index>
1252

> <i_lp_mmshare_version>
43012

> <i_f3d_flags>
0

> <s_epik_input>
bjFbY0hdbltjSF1uMVtDQEhdKFtDSDNdKUMoPU8pW05IXVtDSDJdQyhbQ0gzXSkoW0NIM10pTjJbQ0gyXVtDSDJdT1tDSDJdW0NIMl0y

> <s_epik_cmdline>
J2VwaWtfcHl0aG9uJywgJy1waCcsICc3LjAnLCAnLXRuJywgJzgnLCAnLW1hJywgJzIwMCcsICctbWV0YWxfYmluZGluZycsICctaW1hZScsICc8aW5maWxlLm1hZT4nLCAnLW9tYWUnLCAnPG91dGZpbGUubWFlPic=

> <r_lp_tautomer_probability>
1

> <r_epik_Ionization_Penalty>
0.211373

> <r_epik_Ionization_Penalty_Charging>
0

> <r_epik_Ionization_Penalty_Neutral>
0.211373

> <r_epik_State_Penalty>
0.201459

> <r_epik_Charging_Adjusted_Penalty>
0.201459

> <i_epik_Tot_Q>
0

> <i_epik_Tot_abs_Q>
0

> <r_epik_Metal_State_Penalty>
0.201458

> <b_epik_Metal_Only>
0

> <s_lp_Force_Field>
OPLS_2005

> <r_lp_Energy>
48.0219

> <b_lp_Chiralities_Consistent>
1

> <s_lp_Variant>
AV-unprocessed.smi:1252-1

> <Gold.Version>
5.8.1

> <Gold.Id.Protein>
6NUR|6NUR_protein|mol2

> <Gold.PLP.Fitness>
36.4199

> <Gold.PLP.PLP>
-26.2622

> <Gold.PLP.part.hbond>
-2.8232

> <Gold.PLP.part.metal>
0.0000

> <Gold.PLP.part.buried>
-5.8930

> <Gold.PLP.part.nonpolar>
-22.2677

> <Gold.PLP.part.repulsive>
3.0992

> <Gold.PLP.ligand.clash>
0.0000

> <Gold.PLP.ligand.torsion>
1.1213

> <Gold.PLP.Chemscore.Hbond>
2.0884

> <Gold.PLP.Chemscore.CHOScore>
2.0000

> <Gold.PLP.Chemscore.Metal>
0.0000

> <Gold.Chemscore.Hbonds>
donor molecule, donor type, donor heavy atom, donor atom, acceptor molecule, acceptor atom, score
      L1  H     5    25       P1  7948  1.00
      P1  H 10752 10763       L1    13  0.22
      P1  H 10785 10796       L1    18  0.07
      L1  C    17    42       P1 10747  0.98
      L1  C    19    43       P1 10186  1.00

> <Gold.PLP.Chemscore.Internal.Correction>
0.1351

> <Gold.Rescore>
     Score         DG    S(hbond)    S(metal)    S(lipo)     H(rot)  DE(clash)    DE(int)     intcor
      6.84     -11.09       2.19        0.00      40.54       2.52       1.31       2.94       ----

> <Gold.Chemscore.Fitness>
6.8421

> <Gold.Chemscore.DG>
-11.0877

> <Gold.Chemscore.ZeroCoef>
-5.4800

> <Gold.Chemscore.Hbond>
2.1867

> <Gold.Chemscore.Metal>
0.0000

> <Gold.Chemscore.Lipo>
40.5419

> <Gold.Chemscore.Internal_Hbond>
0.0000

> <Gold.Chemscore.DEClash>
1.3076

> <Gold.Chemscore.DEInternal>
2.9380

> <Gold.Chemscore.Rot>
2.5153

> <Gold.Chemscore.Internal.Correction>
   9.000000E+99

> <Gold.Chemscore.Hbonds>
donor molecule, donor type, donor heavy atom, donor atom, acceptor molecule, acceptor atom, score
      L1  H     5    25       P1  7948  0.98
      P1  H 10752 10763       L1    13  0.01
      P1  H 10785 10796       L1    18  0.07

> <Gold.Chemscore.Hbond.Weighted>
-7.3034

> <Gold.Chemscore.Metal.Weighted>
-0.0000

> <Gold.Chemscore.Lipo.Weighted>
-4.7434

> <Gold.Chemscore.Internal_Hbond.Weighted>
0.0000

> <Gold.Chemscore.DEClash.Weighted>
1.3076

> <Gold.Chemscore.DEInternal.Weighted>
2.9380

> <Gold.Chemscore.Rot.Weighted>
6.4392

> <Gold.Chemscore.Internal.Correction.Weighted>
   9.000000E+99

> <Gold.Protein.RotatedTorsions>
[ 6907 6896 6895 6894 ] final -142.06 input  -60.11 | X-H torsion
[ 7974 7965 7964 7962 ] final  168.93 input  175.53 | X-H torsion
[ 8008 7997 7996 7995 ] final  133.78 input   59.86 | X-H torsion
[ 10167 10162 10161 10158 ] final  124.59 input  -65.29 | X-H torsion
[ 10718 10713 10712 10709 ] final   44.44 input   66.30 | X-H torsion
[ 10763 10752 10751 10750 ] final   83.38 input  -60.55 | X-H torsion
[ 11005 11000 10999 10996 ] final  -83.69 input  -57.11 | X-H torsion

> <Gold.Protein.ActiveResidues>
 VAL166  LYS551  ARG553  GLY616  TRP617  ASP618  TYR619  PRO620  LYS621  CYS622 
 ASP623  PHE694  ASN695  SER759  ASP760  ASP761  ALA762  ILE779  LEU786  VAL792 
 PHE793  MET794  SER795  GLU796  ALA797  LYS798  CYS799  TRP800  GLU811  SER814 

> <Gold.Protein.RotatedAtoms>
  151.0821  133.5382  159.2619 H   0  0  0  0  0  0  0  0  0  0  0  0  # atno 6907 bound_to 6896
  151.2282  135.0543  159.8987 H   0  0  0  0  0  0  0  0  0  0  0  0  # atno 6908 bound_to 6896
  152.5425  134.0613  159.8207 H   0  0  0  0  0  0  0  0  0  0  0  0  # atno 6909 bound_to 6896
  144.7372  139.8979  143.6407 H   0  0  0  0  0  0  0  0  0  0  0  0  # atno 7974 bound_to 7965
  156.2995  140.2512  156.3310 H   0  0  0  0  0  0  0  0  0  0  0  0  # atno 8008 bound_to 7997
  154.9145  140.0402  157.1983 H   0  0  0  0  0  0  0  0  0  0  0  0  # atno 8009 bound_to 7997
  154.8372  140.2885  155.5687 H   0  0  0  0  0  0  0  0  0  0  0  0  # atno 8010 bound_to 7997
  139.5733  144.6950  151.3720 H   0  0  0  0  0  0  0  0  0  0  0  0  # atno 10167 bound_to 10162
  157.4269  130.8002  149.7567 H   0  0  0  0  0  0  0  0  0  0  0  0  # atno 10718 bound_to 10713
  153.1285  135.4693  154.9311 H   0  0  0  0  0  0  0  0  0  0  0  0  # atno 10763 bound_to 10752
  154.7643  135.3140  154.8320 H   0  0  0  0  0  0  0  0  0  0  0  0  # atno 10764 bound_to 10752
  153.8868  135.6889  153.4817 H   0  0  0  0  0  0  0  0  0  0  0  0  # atno 10765 bound_to 10752
  141.1656  133.7307  156.8757 H   0  0  0  0  0  0  0  0  0  0  0  0  # atno 11005 bound_to 11000
  146.1093  139.4096  143.0297 LP  0  0  0  0  0  0  0  0  0  0  0  0  # atno 17320 bound_to 7965
  145.7466  140.9988  143.1273 LP  0  0  0  0  0  0  0  0  0  0  0  0  # atno 17321 bound_to 7965
  140.7017  143.7615  150.7414 LP  0  0  0  0  0  0  0  0  0  0  0  0  # atno 17342 bound_to 10162
  140.1128  143.4683  152.2360 LP  0  0  0  0  0  0  0  0  0  0  0  0  # atno 17343 bound_to 10162
  155.9899  130.3948  150.3050 LP  0  0  0  0  0  0  0  0  0  0  0  0  # atno 17370 bound_to 10713
  157.1203  131.0245  151.3012 LP  0  0  0  0  0  0  0  0  0  0  0  0  # atno 17371 bound_to 10713
  140.1750  134.9073  157.2879 LP  0  0  0  0  0  0  0  0  0  0  0  0  # atno 17394 bound_to 11000
  140.2459  134.3740  155.7461 LP  0  0  0  0  0  0  0  0  0  0  0  0  # atno 17395 bound_to 11000

$$$$
