AV-unprocessed.smi:752|AV-procd|sdf|3595|dock7
  -GOLD-   22720 0583D 1   1.00000     0.00000
 Structure written by MMmdl.
 41 42  0  0  0  0  0  0  0  0  1 V2000
  150.9679  144.9822  159.4587 C   0  0  0  0  0  0  0  0  0  0  0  0
  152.2995  144.4679  158.9020 C   0  0  0  0  0  0  0  0  0  0  0  0
  152.5296  143.0254  159.2056 C   0  0  0  0  0  0  0  0  0  0  0  0
  151.8005  142.0372  158.6814 N   0  0  0  0  0  0  0  0  0  0  0  0
  152.2088  140.7722  159.1203 C   0  0  0  0  0  0  0  0  0  0  0  0
  151.5443  139.5372  158.5814 C   0  0  0  0  0  0  0  0  0  0  0  0
  151.9067  139.3790  157.1045 C   0  0  0  0  0  0  0  0  0  0  0  0
  153.0803  139.4613  156.7436 O   0  0  0  0  0  0  0  0  0  0  0  0
  150.8765  139.2068  156.2615 N   0  0  0  0  0  0  0  0  0  0  0  0
  150.9415  139.2898  154.8070 C   0  0  0  0  0  0  0  0  0  0  0  0
  149.5765  139.7024  154.2167 C   0  0  2  0  0  0  0  0  0  0  0  0
  149.0447  140.9831  154.8883 C   0  0  0  0  0  0  0  0  0  0  0  0
  147.7092  141.4291  154.2722 C   0  0  0  0  0  0  0  0  0  0  0  0
  146.6532  140.3144  154.3541 C   0  0  0  0  0  0  0  0  0  0  0  0
  147.1511  138.9958  153.7343 C   0  0  1  0  0  0  0  0  0  0  0  0
  147.2346  139.1150  152.3274 O   0  0  0  0  0  0  0  0  0  0  0  0
  148.5176  138.5766  154.3071 C   0  0  0  0  0  0  0  0  0  0  0  0
  153.2422  140.8233  160.0230 C   0  0  0  0  0  0  0  0  0  0  0  0
  153.7534  142.4591  160.3356 S   0  0  0  0  0  0  0  0  0  0  0  0
  150.8310  146.0379  159.2238 H   0  0  0  0  0  0  0  0  0  0  0  0
  150.9267  144.8733  160.5429 H   0  0  0  0  0  0  0  0  0  0  0  0
  150.1263  144.4343  159.0337 H   0  0  0  0  0  0  0  0  0  0  0  0
  152.3323  144.6103  157.8212 H   0  0  0  0  0  0  0  0  0  0  0  0
  153.1245  145.0470  159.3176 H   0  0  0  0  0  0  0  0  0  0  0  0
  151.8667  138.6524  159.1314 H   0  0  0  0  0  0  0  0  0  0  0  0
  150.4605  139.5944  158.6905 H   0  0  0  0  0  0  0  0  0  0  0  0
  149.9529  139.1407  156.6649 H   0  0  0  0  0  0  0  0  0  0  0  0
  151.7228  139.9767  154.4778 H   0  0  0  0  0  0  0  0  0  0  0  0
  151.2231  138.3048  154.4340 H   0  0  0  0  0  0  0  0  0  0  0  0
  149.7357  139.9285  153.1610 H   0  0  0  0  0  0  0  0  0  0  0  0
  148.9157  140.8138  155.9581 H   0  0  0  0  0  0  0  0  0  0  0  0
  149.7747  141.7871  154.7891 H   0  0  0  0  0  0  0  0  0  0  0  0
  147.3449  142.3208  154.7828 H   0  0  0  0  0  0  0  0  0  0  0  0
  147.8641  141.7136  153.2307 H   0  0  0  0  0  0  0  0  0  0  0  0
  146.4043  140.1416  155.4018 H   0  0  0  0  0  0  0  0  0  0  0  0
  145.7293  140.6352  153.8716 H   0  0  0  0  0  0  0  0  0  0  0  0
  146.4241  138.2098  153.9407 H   0  0  0  0  0  0  0  0  0  0  0  0
  147.9895  139.6426  152.1164 H   0  0  0  0  0  0  0  0  0  0  0  0
  148.8566  137.6797  153.7890 H   0  0  0  0  0  0  0  0  0  0  0  0
  148.3918  138.2902  155.3521 H   0  0  0  0  0  0  0  0  0  0  0  0
  153.7406  139.9986  160.5109 H   0  0  0  0  0  0  0  0  0  0  0  0
  1  2  1  0  0  0  0
  1 20  1  0  0  0  0
  1 21  1  0  0  0  0
  1 22  1  0  0  0  0
  2  3  1  0  0  0  0
  2 23  1  0  0  0  0
  2 24  1  0  0  0  0
  3 19  1  0  0  0  0
  3  4  2  0  0  0  0
  4  5  1  0  0  0  0
  5  6  1  0  0  0  0
  5 18  2  0  0  0  0
  6  7  1  0  0  0  0
  6 25  1  0  0  0  0
  6 26  1  0  0  0  0
  7  8  2  0  0  0  0
  7  9  1  0  0  0  0
  9 10  1  0  0  0  0
  9 27  1  0  0  0  0
 10 11  1  0  0  0  0
 10 28  1  0  0  0  0
 10 29  1  0  0  0  0
 11 17  1  0  0  0  0
 11 12  1  0  0  0  0
 11 30  1  0  0  0  0
 12 13  1  0  0  0  0
 12 31  1  0  0  0  0
 12 32  1  0  0  0  0
 13 14  1  0  0  0  0
 13 33  1  0  0  0  0
 13 34  1  0  0  0  0
 14 15  1  0  0  0  0
 14 35  1  0  0  0  0
 14 36  1  0  0  0  0
 15 16  1  0  0  0  0
 15 17  1  0  0  0  0
 15 37  1  0  0  0  0
 16 38  1  0  0  0  0
 17 39  1  0  0  0  0
 17 40  1  0  0  0  0
 18 19  1  0  0  0  0
 18 41  1  0  0  0  0
M  END
> <s_m_source_file>
AV-unprocessed.smi

> <i_m_source_file_index>
752

> <i_lp_mmshare_version>
43012

> <i_f3d_flags>
0

> <s_epik_input>
W0NIM11bQ0gyXWMxbmMoW2NIXXMxKVtDSDJdQyg9TylbTkhdW0NIMl1bQ0BASF0yW0NIMl1bQ0gyXVtDSDJdW0NAQEhdKFtPSF0pW0NIMl0y

> <s_epik_cmdline>
J2VwaWtfcHl0aG9uJywgJy1waCcsICc3LjAnLCAnLXRuJywgJzgnLCAnLW1hJywgJzIwMCcsICctbWV0YWxfYmluZGluZycsICctaW1hZScsICc8aW5maWxlLm1hZT4nLCAnLW9tYWUnLCAnPG91dGZpbGUubWFlPic=

> <r_lp_tautomer_probability>
1

> <r_epik_Ionization_Penalty>
5.44903e-05

> <r_epik_Ionization_Penalty_Charging>
0

> <r_epik_Ionization_Penalty_Neutral>
5.44903e-05

> <r_epik_State_Penalty>
-0

> <r_epik_Charging_Adjusted_Penalty>
0

> <i_epik_Tot_Q>
0

> <i_epik_Tot_abs_Q>
0

> <r_epik_Metal_State_Penalty>
-0

> <b_epik_Metal_Only>
0

> <s_lp_Force_Field>
OPLS_2005

> <r_lp_Energy>
4.55991

> <b_lp_Chiralities_Consistent>
1

> <s_lp_Variant>
AV-unprocessed.smi:752-1

> <Gold.Version>
5.8.1

> <Gold.Id.Protein>
6NUR|6NUR_protein|mol2

> <Gold.PLP.Fitness>
48.2432

> <Gold.PLP.PLP>
-43.1525

> <Gold.PLP.part.hbond>
-2.0797

> <Gold.PLP.part.metal>
0.0000

> <Gold.PLP.part.buried>
-2.7018

> <Gold.PLP.part.nonpolar>
-37.2615

> <Gold.PLP.part.repulsive>
0.0576

> <Gold.PLP.ligand.clash>
0.0000

> <Gold.PLP.ligand.torsion>
0.4680

> <Gold.PLP.Chemscore.Hbond>
2.0000

> <Gold.PLP.Chemscore.CHOScore>
0.0000

> <Gold.PLP.Chemscore.Metal>
0.0000

> <Gold.Chemscore.Hbonds>
donor molecule, donor type, donor heavy atom, donor atom, acceptor molecule, acceptor atom, score
      L1  H    16    38       P1  7957  1.00
      P1  H  7997  8010       L1     8  0.81

> <Gold.PLP.Chemscore.Internal.Correction>
0.0267

> <Gold.Rescore>
     Score         DG    S(hbond)    S(metal)    S(lipo)     H(rot)  DE(clash)    DE(int)     intcor
     20.11     -20.86       1.97        0.00     120.77       2.08       0.34       0.41       ----

> <Gold.Chemscore.Fitness>
20.1075

> <Gold.Chemscore.DG>
-20.8579

> <Gold.Chemscore.ZeroCoef>
-5.4800

> <Gold.Chemscore.Hbond>
1.9709

> <Gold.Chemscore.Metal>
0.0000

> <Gold.Chemscore.Lipo>
120.7690

> <Gold.Chemscore.Internal_Hbond>
0.0000

> <Gold.Chemscore.DEClash>
0.3431

> <Gold.Chemscore.DEInternal>
0.4072

> <Gold.Chemscore.Rot>
2.0840

> <Gold.Chemscore.Internal.Correction>
   9.000000E+99

> <Gold.Chemscore.Hbonds>
donor molecule, donor type, donor heavy atom, donor atom, acceptor molecule, acceptor atom, score
      L1  H    16    38       P1  7957  0.97
      P1  H  7997  8010       L1     8  0.80

> <Gold.Chemscore.Hbond.Weighted>
-6.5829

> <Gold.Chemscore.Metal.Weighted>
-0.0000

> <Gold.Chemscore.Lipo.Weighted>
-14.1300

> <Gold.Chemscore.Internal_Hbond.Weighted>
0.0000

> <Gold.Chemscore.DEClash.Weighted>
0.3431

> <Gold.Chemscore.DEInternal.Weighted>
0.4072

> <Gold.Chemscore.Rot.Weighted>
5.3350

> <Gold.Chemscore.Internal.Correction.Weighted>
   9.000000E+99

> <Gold.Protein.RotatedTorsions>
[ 6907 6896 6895 6894 ] final   72.86 input  -60.11 | X-H torsion
[ 7974 7965 7964 7962 ] final  121.11 input  175.53 | X-H torsion
[ 8008 7997 7996 7995 ] final   74.87 input   59.86 | X-H torsion
[ 10167 10162 10161 10158 ] final   23.75 input  -65.29 | X-H torsion
[ 10718 10713 10712 10709 ] final   45.41 input   66.30 | X-H torsion
[ 10763 10752 10751 10750 ] final  160.02 input  -60.55 | X-H torsion
[ 11005 11000 10999 10996 ] final   82.94 input  -57.11 | X-H torsion

> <Gold.Protein.ActiveResidues>
 VAL166  LYS551  ARG553  GLY616  TRP617  ASP618  TYR619  PRO620  LYS621  CYS622 
 ASP623  PHE694  ASN695  SER759  ASP760  ASP761  ALA762  ILE779  LEU786  VAL792 
 PHE793  MET794  SER795  GLU796  ALA797  LYS798  CYS799  TRP800  GLU811  SER814 

> <Gold.Protein.RotatedAtoms>
  152.4891  134.4508  159.9573 H   0  0  0  0  0  0  0  0  0  0  0  0  # atno 6907 bound_to 6896
  151.4498  133.3614  159.2801 H   0  0  0  0  0  0  0  0  0  0  0  0  # atno 6908 bound_to 6896
  150.9029  134.8467  159.7433 H   0  0  0  0  0  0  0  0  0  0  0  0  # atno 6909 bound_to 6896
  145.1232  139.3375  143.4703 H   0  0  0  0  0  0  0  0  0  0  0  0  # atno 7974 bound_to 7965
  155.8046  140.3475  155.5422 H   0  0  0  0  0  0  0  0  0  0  0  0  # atno 8008 bound_to 7997
  155.8503  140.0955  157.1699 H   0  0  0  0  0  0  0  0  0  0  0  0  # atno 8009 bound_to 7997
  154.4007  140.1378  156.3823 H   0  0  0  0  0  0  0  0  0  0  0  0  # atno 8010 bound_to 7997
  140.5244  143.9949  150.6433 H   0  0  0  0  0  0  0  0  0  0  0  0  # atno 10167 bound_to 10162
  157.4372  130.8060  149.7660 H   0  0  0  0  0  0  0  0  0  0  0  0  # atno 10718 bound_to 10713
  154.2408  135.2775  155.2854 H   0  0  0  0  0  0  0  0  0  0  0  0  # atno 10763 bound_to 10752
  154.5546  135.5665  153.6956 H   0  0  0  0  0  0  0  0  0  0  0  0  # atno 10764 bound_to 10752
  153.0000  135.6283  154.2553 H   0  0  0  0  0  0  0  0  0  0  0  0  # atno 10765 bound_to 10752
  139.9047  134.8109  156.2243 H   0  0  0  0  0  0  0  0  0  0  0  0  # atno 11005 bound_to 11000
  146.3519  140.1200  142.8600 LP  0  0  0  0  0  0  0  0  0  0  0  0  # atno 17320 bound_to 7965
  145.0717  140.9160  143.4878 LP  0  0  0  0  0  0  0  0  0  0  0  0  # atno 17321 bound_to 7965
  140.3306  143.3080  152.0691 LP  0  0  0  0  0  0  0  0  0  0  0  0  # atno 17342 bound_to 10162
  139.4933  144.6511  151.6672 LP  0  0  0  0  0  0  0  0  0  0  0  0  # atno 17343 bound_to 10162
  155.9935  130.3924  150.2897 LP  0  0  0  0  0  0  0  0  0  0  0  0  # atno 17370 bound_to 10713
  157.1059  131.0208  151.3067 LP  0  0  0  0  0  0  0  0  0  0  0  0  # atno 17371 bound_to 10713
  141.0386  133.6950  156.1557 LP  0  0  0  0  0  0  0  0  0  0  0  0  # atno 17394 bound_to 11000
  140.6990  134.4585  157.5587 LP  0  0  0  0  0  0  0  0  0  0  0  0  # atno 17395 bound_to 11000

$$$$
