AV-unprocessed.smi:763|AV-procd|sdf|3634|dock6
  -GOLD-   22720 1 33D 1   1.00000     0.00000
 Structure written by MMmdl.
 44 45  0  0  0  0  0  0  0  0  1 V2000
  144.2587  143.5505  161.3062 C   0  0  0  0  0  0  0  0  0  0  0  0
  145.4200  144.0709  160.6786 O   0  0  0  0  0  0  0  0  0  0  0  0
  146.4946  144.3291  161.5715 C   0  0  0  0  0  0  0  0  0  0  0  0
  147.6492  145.0717  160.8830 C   0  0  0  0  0  0  0  0  0  0  0  0
  148.3030  144.1702  159.9950 O   0  0  0  0  0  0  0  0  0  0  0  0
  149.6293  144.3947  159.6790 C   0  0  0  0  0  0  0  0  0  0  0  0
  150.3064  145.3519  160.3619 N   0  0  0  0  0  0  0  0  0  0  0  0
  151.6025  145.5653  160.0525 C   0  0  0  0  0  0  0  0  0  0  0  0
  152.2870  144.8433  159.0569 C   0  0  0  0  0  0  0  0  0  0  0  0
  151.5846  143.8519  158.3474 C   0  0  0  0  0  0  0  0  0  0  0  0
  150.2277  143.6194  158.6602 C   0  0  0  0  0  0  0  0  0  0  0  0
  149.4750  142.6516  157.9892 N   0  0  0  0  0  0  0  0  0  0  0  0
  149.9766  141.5859  156.7175 S   0  0  0  0  0  0  0  0  0  0  0  0
  151.1015  142.2638  156.0547 O   0  0  0  0  0  0  0  0  0  0  0  0
  150.1485  140.2694  157.3506 O   0  0  0  0  0  0  0  0  0  0  0  0
  148.5016  141.5691  155.5900 C   0  0  2  0  0  0  0  0  0  0  0  0
  147.2414  141.1699  156.3851 C   0  0  0  0  0  0  0  0  0  0  0  0
  145.9951  141.1110  155.4896 C   0  0  0  0  0  0  0  0  0  0  0  0
  146.2153  140.1648  154.3008 C   0  0  0  0  0  0  0  0  0  0  0  0
  147.4450  140.5878  153.4842 C   0  0  0  0  0  0  0  0  0  0  0  0
  148.7111  140.6536  154.3585 C   0  0  1  0  0  0  0  0  0  0  0  0
  149.7656  141.1325  153.5498 O   0  0  0  0  0  0  0  0  0  0  0  0
  143.5060  143.3307  160.5492 H   0  0  0  0  0  0  0  0  0  0  0  0
  143.8231  144.2627  162.0069 H   0  0  0  0  0  0  0  0  0  0  0  0
  144.4778  142.6242  161.8385 H   0  0  0  0  0  0  0  0  0  0  0  0
  146.1519  144.8638  162.4587 H   0  0  0  0  0  0  0  0  0  0  0  0
  146.8567  143.3602  161.9157 H   0  0  0  0  0  0  0  0  0  0  0  0
  147.2522  145.9182  160.3201 H   0  0  0  0  0  0  0  0  0  0  0  0
  148.3510  145.4552  161.6251 H   0  0  0  0  0  0  0  0  0  0  0  0
  152.1090  146.3348  160.6160 H   0  0  0  0  0  0  0  0  0  0  0  0
  153.3257  145.0457  158.8413 H   0  0  0  0  0  0  0  0  0  0  0  0
  152.0885  143.2865  157.5777 H   0  0  0  0  0  0  0  0  0  0  0  0
  148.5119  142.5775  158.2832 H   0  0  0  0  0  0  0  0  0  0  0  0
  148.3696  142.5956  155.2451 H   0  0  0  0  0  0  0  0  0  0  0  0
  147.3922  140.1953  156.8506 H   0  0  0  0  0  0  0  0  0  0  0  0
  147.0708  141.8758  157.1984 H   0  0  0  0  0  0  0  0  0  0  0  0
  145.1344  140.7816  156.0722 H   0  0  0  0  0  0  0  0  0  0  0  0
  145.7571  142.1110  155.1251 H   0  0  0  0  0  0  0  0  0  0  0  0
  146.3478  139.1442  154.6624 H   0  0  0  0  0  0  0  0  0  0  0  0
  145.3303  140.1563  153.6637 H   0  0  0  0  0  0  0  0  0  0  0  0
  147.5961  139.8905  152.6594 H   0  0  0  0  0  0  0  0  0  0  0  0
  147.2563  141.5630  153.0323 H   0  0  0  0  0  0  0  0  0  0  0  0
  148.9648  139.6450  154.6861 H   0  0  0  0  0  0  0  0  0  0  0  0
  149.5082  141.0578  152.6429 H   0  0  0  0  0  0  0  0  0  0  0  0
  1  2  1  0  0  0  0
  1 23  1  0  0  0  0
  1 24  1  0  0  0  0
  1 25  1  0  0  0  0
  2  3  1  0  0  0  0
  3  4  1  0  0  0  0
  3 26  1  0  0  0  0
  3 27  1  0  0  0  0
  4  5  1  0  0  0  0
  4 28  1  0  0  0  0
  4 29  1  0  0  0  0
  5  6  1  0  0  0  0
  6 11  1  0  0  0  0
  6  7  2  0  0  0  0
  7  8  1  0  0  0  0
  8  9  2  0  0  0  0
  8 30  1  0  0  0  0
  9 10  1  0  0  0  0
  9 31  1  0  0  0  0
 10 11  2  0  0  0  0
 10 32  1  0  0  0  0
 11 12  1  0  0  0  0
 12 13  1  0  0  0  0
 12 33  1  0  0  0  0
 13 14  2  0  0  0  0
 13 15  2  0  0  0  0
 13 16  1  0  0  0  0
 16 21  1  0  0  0  0
 16 17  1  0  0  0  0
 16 34  1  0  0  0  0
 17 18  1  0  0  0  0
 17 35  1  0  0  0  0
 17 36  1  0  0  0  0
 18 19  1  0  0  0  0
 18 37  1  0  0  0  0
 18 38  1  0  0  0  0
 19 20  1  0  0  0  0
 19 39  1  0  0  0  0
 19 40  1  0  0  0  0
 20 21  1  0  0  0  0
 20 41  1  0  0  0  0
 20 42  1  0  0  0  0
 21 22  1  0  0  0  0
 21 43  1  0  0  0  0
 22 44  1  0  0  0  0
M  END
> <s_m_source_file>
AV-unprocessed.smi

> <i_m_source_file_index>
763

> <i_lp_mmshare_version>
43012

> <i_f3d_flags>
0

> <s_epik_input>
W0NIM11PW0NIMl1bQ0gyXU9jMW5bY0hdW2NIXVtjSF1jMVtOSF1TKD1PKSg9TylbQ0BASF0yW0NIMl1bQ0gyXVtDSDJdW0NIMl1bQ0BIXTJbT0hd

> <s_epik_cmdline>
J2VwaWtfcHl0aG9uJywgJy1waCcsICc3LjAnLCAnLXRuJywgJzgnLCAnLW1hJywgJzIwMCcsICctbWV0YWxfYmluZGluZycsICctaW1hZScsICc8aW5maWxlLm1hZT4nLCAnLW9tYWUnLCAnPG91dGZpbGUubWFlPic=

> <r_epik_Ionization_Penalty>
0.124685

> <r_epik_Ionization_Penalty_Charging>
0

> <r_epik_Ionization_Penalty_Neutral>
0.124685

> <r_epik_State_Penalty>
0.114154

> <r_epik_Charging_Adjusted_Penalty>
0.114154

> <i_epik_Tot_Q>
0

> <i_epik_Tot_abs_Q>
0

> <r_epik_Metal_State_Penalty>
0.443785

> <b_epik_Metal_Only>
0

> <s_lp_Force_Field>
OPLS_2005

> <r_lp_Energy>
9.05246

> <b_lp_Chiralities_Consistent>
1

> <s_lp_Variant>
AV-unprocessed.smi:763-1

> <Gold.Version>
5.8.1

> <Gold.Id.Protein>
6NUR|6NUR_protein|mol2

> <Gold.PLP.Fitness>
44.9605

> <Gold.PLP.PLP>
-39.3767

> <Gold.PLP.part.hbond>
-4.5250

> <Gold.PLP.part.metal>
0.0000

> <Gold.PLP.part.buried>
-6.8051

> <Gold.PLP.part.nonpolar>
-30.9225

> <Gold.PLP.part.repulsive>
0.6416

> <Gold.PLP.ligand.clash>
0.0000

> <Gold.PLP.ligand.torsion>
1.0003

> <Gold.PLP.Chemscore.Hbond>
2.0864

> <Gold.PLP.Chemscore.CHOScore>
0.0000

> <Gold.PLP.Chemscore.Metal>
0.0000

> <Gold.Chemscore.Hbonds>
donor molecule, donor type, donor heavy atom, donor atom, acceptor molecule, acceptor atom, score
      L1  H    22    44       P1  7957  0.91
      P1  H  6933  6944       L1     5  0.25
      P1  H  7989  7998       L1    22  0.22

> <Gold.PLP.Chemscore.Internal.Correction>
1.3253

> <Gold.Rescore>
     Score         DG    S(hbond)    S(metal)    S(lipo)     H(rot)  DE(clash)    DE(int)     intcor
     10.96     -13.23       1.12        0.00      86.77       2.41       0.01       2.25       ----

> <Gold.Chemscore.Fitness>
10.9622

> <Gold.Chemscore.DG>
-13.2298

> <Gold.Chemscore.ZeroCoef>
-5.4800

> <Gold.Chemscore.Hbond>
1.1243

> <Gold.Chemscore.Metal>
0.0000

> <Gold.Chemscore.Lipo>
86.7702

> <Gold.Chemscore.Internal_Hbond>
0.0000

> <Gold.Chemscore.DEClash>
0.0149

> <Gold.Chemscore.DEInternal>
2.2527

> <Gold.Chemscore.Rot>
2.4052

> <Gold.Chemscore.Internal.Correction>
   9.000000E+99

> <Gold.Chemscore.Hbonds>
donor molecule, donor type, donor heavy atom, donor atom, acceptor molecule, acceptor atom, score
      L1  H    22    44       P1  7957  0.90
      P1  H  6933  6944       L1     5  0.01
      P1  H  7989  7998       L1    22  0.08

> <Gold.Chemscore.Hbond.Weighted>
-3.7552

> <Gold.Chemscore.Metal.Weighted>
-0.0000

> <Gold.Chemscore.Lipo.Weighted>
-10.1521

> <Gold.Chemscore.Internal_Hbond.Weighted>
0.0000

> <Gold.Chemscore.DEClash.Weighted>
0.0149

> <Gold.Chemscore.DEInternal.Weighted>
2.2527

> <Gold.Chemscore.Rot.Weighted>
6.1574

> <Gold.Chemscore.Internal.Correction.Weighted>
   9.000000E+99

> <Gold.Protein.RotatedTorsions>
[ 6907 6896 6895 6894 ] final -155.13 input  -60.11 | X-H torsion
[ 7974 7965 7964 7962 ] final -140.98 input  175.53 | X-H torsion
[ 8008 7997 7996 7995 ] final   90.69 input   59.86 | X-H torsion
[ 10167 10162 10161 10158 ] final -122.74 input  -65.29 | X-H torsion
[ 10718 10713 10712 10709 ] final   93.88 input   66.30 | X-H torsion
[ 10763 10752 10751 10750 ] final -108.76 input  -60.55 | X-H torsion
[ 11005 11000 10999 10996 ] final   -5.63 input  -57.11 | X-H torsion

> <Gold.Protein.ActiveResidues>
 VAL166  LYS551  ARG553  GLY616  TRP617  ASP618  TYR619  PRO620  LYS621  CYS622 
 ASP623  PHE694  ASN695  SER759  ASP760  ASP761  ALA762  ILE779  LEU786  VAL792 
 PHE793  MET794  SER795  GLU796  ALA797  LYS798  CYS799  TRP800  GLU811  SER814 

> <Gold.Protein.RotatedAtoms>
  151.2679  133.4269  159.2619 H   0  0  0  0  0  0  0  0  0  0  0  0  # atno 6907 bound_to 6896
  151.0471  134.9648  159.8202 H   0  0  0  0  0  0  0  0  0  0  0  0  # atno 6908 bound_to 6896
  152.5376  134.2635  159.8997 H   0  0  0  0  0  0  0  0  0  0  0  0  # atno 6909 bound_to 6896
  144.8555  140.6135  143.5362 H   0  0  0  0  0  0  0  0  0  0  0  0  # atno 7974 bound_to 7965
  156.0150  140.3346  155.6979 H   0  0  0  0  0  0  0  0  0  0  0  0  # atno 8008 bound_to 7997
  155.6104  140.0664  157.2725 H   0  0  0  0  0  0  0  0  0  0  0  0  # atno 8009 bound_to 7997
  154.4295  140.1794  156.1254 H   0  0  0  0  0  0  0  0  0  0  0  0  # atno 8010 bound_to 7997
  140.0110  143.5442  152.2263 H   0  0  0  0  0  0  0  0  0  0  0  0  # atno 10167 bound_to 10162
  157.6952  131.0493  150.4101 H   0  0  0  0  0  0  0  0  0  0  0  0  # atno 10718 bound_to 10713
  154.8154  135.4626  154.0630 H   0  0  0  0  0  0  0  0  0  0  0  0  # atno 10763 bound_to 10752
  153.2027  135.6871  153.8218 H   0  0  0  0  0  0  0  0  0  0  0  0  # atno 10764 bound_to 10752
  153.7697  135.3272  155.3327 H   0  0  0  0  0  0  0  0  0  0  0  0  # atno 10765 bound_to 10752
  140.6933  133.9053  155.8633 H   0  0  0  0  0  0  0  0  0  0  0  0  # atno 11005 bound_to 11000
  145.4415  139.1535  143.3968 LP  0  0  0  0  0  0  0  0  0  0  0  0  # atno 17320 bound_to 7965
  146.2819  140.4536  142.8773 LP  0  0  0  0  0  0  0  0  0  0  0  0  # atno 17321 bound_to 7965
  139.6205  144.7628  151.2751 LP  0  0  0  0  0  0  0  0  0  0  0  0  # atno 17342 bound_to 10162
  140.7381  143.6657  150.8125 LP  0  0  0  0  0  0  0  0  0  0  0  0  # atno 17343 bound_to 10162
  156.4485  130.4006  149.6651 LP  0  0  0  0  0  0  0  0  0  0  0  0  # atno 17370 bound_to 10713
  156.3809  130.7578  151.2571 LP  0  0  0  0  0  0  0  0  0  0  0  0  # atno 17371 bound_to 10713
  141.0224  134.0871  157.4106 LP  0  0  0  0  0  0  0  0  0  0  0  0  # atno 17394 bound_to 11000
  139.8917  135.0120  156.6807 LP  0  0  0  0  0  0  0  0  0  0  0  0  # atno 17395 bound_to 11000

$$$$
