AV-unprocessed.smi:135|AV-procd|sdf|1170|dock10
  -GOLD-   2262018313D 1   1.00000     0.00000
 Structure written by MMmdl.
 51 54  0  0  0  0  0  0  0  0  1 V2000
  151.7479  136.6401  154.9212 O   0  0  0  0  0  0  0  0  0  0  0  0
  151.7400  137.0570  156.0794 C   0  0  0  0  0  0  0  0  0  0  0  0
  152.6387  138.2356  156.4857 C   0  0  0  0  0  0  0  0  0  0  0  0
  151.9056  139.5109  156.6416 N   0  0  0  0  0  0  0  0  0  0  0  0
  151.0175  139.9096  155.6121 C   0  0  0  0  0  0  0  0  0  0  0  0
  150.8479  139.2128  154.6103 O   0  0  0  0  0  0  0  0  0  0  0  0
  150.3385  141.1829  155.8240 C   0  0  0  0  0  0  0  0  0  0  0  0
  149.4679  141.6335  154.9049 F   0  0  0  0  0  0  0  0  0  0  0  0
  150.5678  141.9175  156.9319 C   0  0  0  0  0  0  0  0  0  0  0  0
  151.4497  141.5230  157.9226 N   0  0  0  0  0  0  0  0  0  0  0  0
  151.6956  142.3585  159.1614 C   0  0  1  0  0  0  0  0  0  0  0  0
  152.6941  143.4933  158.8632 C   0  0  0  0  0  0  0  0  0  0  0  0
  151.9710  144.7202  159.3822 C   0  0  0  0  0  0  0  0  0  0  0  0
  150.5133  144.3306  159.1893 C   0  0  0  0  0  0  0  0  0  0  0  0
  150.5019  142.9621  159.5735 O   0  0  0  0  0  0  0  0  0  0  0  0
  152.1388  140.2973  157.7947 C   0  0  0  0  0  0  0  0  0  0  0  0
  152.9288  139.9286  158.6667 O   0  0  0  0  0  0  0  0  0  0  0  0
  151.0039  136.5439  157.0815 N   0  0  0  0  0  0  0  0  0  0  0  0
  150.0524  135.4831  157.0875 C   0  0  0  0  0  0  0  0  0  0  0  0
  149.8339  134.6088  155.9929 C   0  0  0  0  0  0  0  0  0  0  0  0
  148.8775  133.5794  156.0817 C   0  0  0  0  0  0  0  0  0  0  0  0
  148.1291  133.4085  157.2599 C   0  0  0  0  0  0  0  0  0  0  0  0
  148.3326  134.2747  158.3485 C   0  0  0  0  0  0  0  0  0  0  0  0
  149.2798  135.3154  158.2641 C   0  0  0  0  0  0  0  0  0  0  0  0
  149.4480  136.1393  159.3501 O   0  0  0  0  0  0  0  0  0  0  0  0
  148.4090  136.2463  160.2421 C   0  0  0  0  0  0  0  0  0  0  0  0
  147.1368  136.7168  159.8453 C   0  0  0  0  0  0  0  0  0  0  0  0
  146.0928  136.8142  160.7857 C   0  0  0  0  0  0  0  0  0  0  0  0
  146.3125  136.4377  162.1246 C   0  0  0  0  0  0  0  0  0  0  0  0
  147.5763  135.9605  162.5225 C   0  0  0  0  0  0  0  0  0  0  0  0
  148.6201  135.8625  161.5822 C   0  0  0  0  0  0  0  0  0  0  0  0
  153.1616  137.9810  157.4098 H   0  0  0  0  0  0  0  0  0  0  0  0
  153.4380  138.3233  155.7485 H   0  0  0  0  0  0  0  0  0  0  0  0
  150.0298  142.8479  157.0290 H   0  0  0  0  0  0  0  0  0  0  0  0
  152.0304  141.6577  159.9282 H   0  0  0  0  0  0  0  0  0  0  0  0
  153.6490  143.3147  159.3584 H   0  0  0  0  0  0  0  0  0  0  0  0
  152.8620  143.5772  157.7883 H   0  0  0  0  0  0  0  0  0  0  0  0
  152.1828  144.8607  160.4429 H   0  0  0  0  0  0  0  0  0  0  0  0
  152.2432  145.6338  158.8532 H   0  0  0  0  0  0  0  0  0  0  0  0
  149.8321  144.9247  159.7989 H   0  0  0  0  0  0  0  0  0  0  0  0
  150.2197  144.4320  158.1435 H   0  0  0  0  0  0  0  0  0  0  0  0
  151.1440  136.9820  157.9804 H   0  0  0  0  0  0  0  0  0  0  0  0
  150.3784  134.6999  155.0677 H   0  0  0  0  0  0  0  0  0  0  0  0
  148.7196  132.9180  155.2427 H   0  0  0  0  0  0  0  0  0  0  0  0
  147.3985  132.6161  157.3275 H   0  0  0  0  0  0  0  0  0  0  0  0
  147.7552  134.1456  159.2521 H   0  0  0  0  0  0  0  0  0  0  0  0
  146.9561  137.0056  158.8202 H   0  0  0  0  0  0  0  0  0  0  0  0
  145.1230  137.1774  160.4792 H   0  0  0  0  0  0  0  0  0  0  0  0
  145.5112  136.5122  162.8450 H   0  0  0  0  0  0  0  0  0  0  0  0
  147.7447  135.6687  163.5487 H   0  0  0  0  0  0  0  0  0  0  0  0
  149.5879  135.4960  161.8918 H   0  0  0  0  0  0  0  0  0  0  0  0
  1  2  2  0  0  0  0
  2  3  1  0  0  0  0
  2 18  1  0  0  0  0
  3  4  1  0  0  0  0
  3 32  1  0  0  0  0
  3 33  1  0  0  0  0
  4 16  1  0  0  0  0
  4  5  1  0  0  0  0
  5  6  2  0  0  0  0
  5  7  1  0  0  0  0
  7  8  1  0  0  0  0
  7  9  2  0  0  0  0
  9 10  1  0  0  0  0
  9 34  1  0  0  0  0
 10 11  1  0  0  0  0
 10 16  1  0  0  0  0
 11 15  1  0  0  0  0
 11 12  1  0  0  0  0
 11 35  1  0  0  0  0
 12 13  1  0  0  0  0
 12 36  1  0  0  0  0
 12 37  1  0  0  0  0
 13 14  1  0  0  0  0
 13 38  1  0  0  0  0
 13 39  1  0  0  0  0
 14 15  1  0  0  0  0
 14 40  1  0  0  0  0
 14 41  1  0  0  0  0
 16 17  2  0  0  0  0
 18 19  1  0  0  0  0
 18 42  1  0  0  0  0
 19 24  1  0  0  0  0
 19 20  2  0  0  0  0
 20 21  1  0  0  0  0
 20 43  1  0  0  0  0
 21 22  2  0  0  0  0
 21 44  1  0  0  0  0
 22 23  1  0  0  0  0
 22 45  1  0  0  0  0
 23 24  2  0  0  0  0
 23 46  1  0  0  0  0
 24 25  1  0  0  0  0
 25 26  1  0  0  0  0
 26 31  1  0  0  0  0
 26 27  2  0  0  0  0
 27 28  1  0  0  0  0
 27 47  1  0  0  0  0
 28 29  2  0  0  0  0
 28 48  1  0  0  0  0
 29 30  1  0  0  0  0
 29 49  1  0  0  0  0
 30 31  2  0  0  0  0
 30 50  1  0  0  0  0
 31 51  1  0  0  0  0
M  END
> <s_m_source_file>
AV-unprocessed.smi

> <i_m_source_file_index>
135

> <i_lp_mmshare_version>
43012

> <i_f3d_flags>
0

> <s_epik_input>
TzFbQ0gyXVtDSDJdW0NIMl1bQ0BIXTFuKGMyPU8pW2NIXWMoRiljKD1PKW4yW0NIMl1DKD1PKVtOSF1jM1tjSF1bY0hdW2NIXVtjSF1jM09jNFtjSF1bY0hdW2NIXVtjSF1bY0hdNA==

> <s_epik_cmdline>
J2VwaWtfcHl0aG9uJywgJy1waCcsICc3LjAnLCAnLXRuJywgJzgnLCAnLW1hJywgJzIwMCcsICctbWV0YWxfYmluZGluZycsICctaW1hZScsICc8aW5maWxlLm1hZT4nLCAnLW9tYWUnLCAnPG91dGZpbGUubWFlPic=

> <r_lp_tautomer_probability>
1

> <r_epik_Ionization_Penalty>
1.89877e-06

> <r_epik_Ionization_Penalty_Charging>
3.88729e-08

> <r_epik_Ionization_Penalty_Neutral>
1.8599e-06

> <r_epik_State_Penalty>
-0

> <r_epik_Charging_Adjusted_Penalty>
3.88729e-08

> <i_epik_Tot_Q>
0

> <i_epik_Tot_abs_Q>
0

> <r_epik_Metal_State_Penalty>
-0

> <b_epik_Metal_Only>
0

> <s_epik_Chemistry_Notes>
This compound contains an acetal/aminal-like group ( X-CH(R)-Y where X, Y are N, S, or O) that may be acid/base labile, releasing an aldehyde.

> <s_lp_Force_Field>
OPLS_2005

> <r_lp_Energy>
40.6736

> <b_lp_Chiralities_Consistent>
1

> <s_lp_Variant>
AV-unprocessed.smi:135-2

> <Gold.Version>
5.8.1

> <Gold.Id.Protein>
6NUR|6NUR_protein|mol2

> <Gold.PLP.Fitness>
52.9339

> <Gold.PLP.PLP>
-49.1759

> <Gold.PLP.part.hbond>
-3.1824

> <Gold.PLP.part.metal>
0.0000

> <Gold.PLP.part.buried>
-6.4872

> <Gold.PLP.part.nonpolar>
-40.5718

> <Gold.PLP.part.repulsive>
0.3997

> <Gold.PLP.ligand.clash>
0.5561

> <Gold.PLP.ligand.torsion>
1.3086

> <Gold.PLP.Chemscore.Hbond>
1.2787

> <Gold.PLP.Chemscore.CHOScore>
1.0000

> <Gold.PLP.Chemscore.Metal>
0.0000

> <Gold.Chemscore.Hbonds>
donor molecule, donor type, donor heavy atom, donor atom, acceptor molecule, acceptor atom, score
      P1  H  7989  7998       L1     6  0.26
      P1  H  7997  8009       L1    17  0.04
      P1  H 10752 10764       L1     1  0.98
      L1  C     9    34       P1  8028  0.87

> <Gold.PLP.Chemscore.Internal.Correction>
0.0952

> <Gold.Rescore>
     Score         DG    S(hbond)    S(metal)    S(lipo)     H(rot)  DE(clash)    DE(int)     intcor
     11.17     -16.37       0.97        0.00     110.03       2.04       0.07       5.13       ----

> <Gold.Chemscore.Fitness>
11.1678

> <Gold.Chemscore.DG>
-16.3715

> <Gold.Chemscore.ZeroCoef>
-5.4800

> <Gold.Chemscore.Hbond>
0.9684

> <Gold.Chemscore.Metal>
0.0000

> <Gold.Chemscore.Lipo>
110.0318

> <Gold.Chemscore.Internal_Hbond>
0.0000

> <Gold.Chemscore.DEClash>
0.0743

> <Gold.Chemscore.DEInternal>
5.1294

> <Gold.Chemscore.Rot>
2.0377

> <Gold.Chemscore.Internal.Correction>
   9.000000E+99

> <Gold.Chemscore.Hbonds>
donor molecule, donor type, donor heavy atom, donor atom, acceptor molecule, acceptor atom, score
      P1  H  7989  7998       L1     6  0.01
      P1  H 10752 10764       L1     1  0.93

> <Gold.Chemscore.Hbond.Weighted>
-3.2343

> <Gold.Chemscore.Metal.Weighted>
-0.0000

> <Gold.Chemscore.Lipo.Weighted>
-12.8737

> <Gold.Chemscore.Internal_Hbond.Weighted>
0.0000

> <Gold.Chemscore.DEClash.Weighted>
0.0743

> <Gold.Chemscore.DEInternal.Weighted>
5.1294

> <Gold.Chemscore.Rot.Weighted>
5.2165

> <Gold.Chemscore.Internal.Correction.Weighted>
   9.000000E+99

> <Gold.Protein.RotatedTorsions>
[ 6907 6896 6895 6894 ] final  -75.84 input  -60.11 | X-H torsion
[ 7974 7965 7964 7962 ] final  -90.20 input  175.53 | X-H torsion
[ 8008 7997 7996 7995 ] final  162.53 input   59.86 | X-H torsion
[ 10167 10162 10161 10158 ] final  133.08 input  -65.29 | X-H torsion
[ 10718 10713 10712 10709 ] final -172.08 input   66.30 | X-H torsion
[ 10763 10752 10751 10750 ] final  -80.45 input  -60.55 | X-H torsion
[ 11005 11000 10999 10996 ] final   -1.67 input  -57.11 | X-H torsion

> <Gold.Protein.ActiveResidues>
 VAL166  LYS551  ARG553  GLY616  TRP617  ASP618  TYR619  PRO620  LYS621  CYS622 
 ASP623  PHE694  ASN695  SER759  ASP760  ASP761  ALA762  ILE779  LEU786  VAL792 
 PHE793  MET794  SER795  GLU796  ALA797  LYS798  CYS799  TRP800  GLU811  SER814 

> <Gold.Protein.RotatedAtoms>
  150.7046  134.4660  159.5402 H   0  0  0  0  0  0  0  0  0  0  0  0  # atno 6907 bound_to 6896
  152.2326  134.8304  160.0480 H   0  0  0  0  0  0  0  0  0  0  0  0  # atno 6908 bound_to 6896
  151.9115  133.3527  159.3902 H   0  0  0  0  0  0  0  0  0  0  0  0  # atno 6909 bound_to 6896
  145.4296  140.9555  143.2135 H   0  0  0  0  0  0  0  0  0  0  0  0  # atno 7974 bound_to 7965
  156.2024  140.1748  156.7871 H   0  0  0  0  0  0  0  0  0  0  0  0  # atno 8008 bound_to 7997
  154.5610  140.0699  156.8849 H   0  0  0  0  0  0  0  0  0  0  0  0  # atno 8009 bound_to 7997
  155.2849  140.3351  155.4258 H   0  0  0  0  0  0  0  0  0  0  0  0  # atno 8010 bound_to 7997
  139.5312  144.6632  151.4945 H   0  0  0  0  0  0  0  0  0  0  0  0  # atno 10167 bound_to 10162
  156.7504  130.9376  151.3114 H   0  0  0  0  0  0  0  0  0  0  0  0  # atno 10718 bound_to 10713
  154.5514  135.5660  153.6925 H   0  0  0  0  0  0  0  0  0  0  0  0  # atno 10763 bound_to 10752
  152.9991  135.6251  154.2369 H   0  0  0  0  0  0  0  0  0  0  0  0  # atno 10764 bound_to 10752
  154.2304  135.2866  155.2872 H   0  0  0  0  0  0  0  0  0  0  0  0  # atno 10765 bound_to 10752
  140.6499  133.9414  155.8374 H   0  0  0  0  0  0  0  0  0  0  0  0  # atno 11005 bound_to 11000
  144.8192  139.5822  143.6995 LP  0  0  0  0  0  0  0  0  0  0  0  0  # atno 17320 bound_to 7965
  146.2614  139.6419  142.9359 LP  0  0  0  0  0  0  0  0  0  0  0  0  # atno 17321 bound_to 7965
  140.6491  143.8734  150.6767 LP  0  0  0  0  0  0  0  0  0  0  0  0  # atno 17342 bound_to 10162
  140.2093  143.3896  152.1731 LP  0  0  0  0  0  0  0  0  0  0  0  0  # atno 17343 bound_to 10162
  157.6780  130.9112  150.0196 LP  0  0  0  0  0  0  0  0  0  0  0  0  # atno 17370 bound_to 10713
  156.1405  130.3642  149.9589 LP  0  0  0  0  0  0  0  0  0  0  0  0  # atno 17371 bound_to 10713
  141.0545  134.0437  157.3741 LP  0  0  0  0  0  0  0  0  0  0  0  0  # atno 17394 bound_to 11000
  139.9050  135.0176  156.7443 LP  0  0  0  0  0  0  0  0  0  0  0  0  # atno 17395 bound_to 11000

$$$$
