AV-unprocessed.smi:281|AV-procd|sdf|2109|dock5
  -GOLD-   2262021403D 1   1.00000     0.00000
 Structure written by MMmdl.
 55 59  0  0  0  0  0  0  0  0  1 V2000
  147.1083  135.5535  162.1556 C   0  0  0  0  0  0  0  0  0  0  0  0
  147.5605  134.2811  161.4319 C   0  0  2  0  0  0  0  0  0  0  0  0
  147.7327  134.5086  159.9201 C   0  0  0  0  0  0  0  0  0  0  0  0
  148.0519  133.2492  159.2586 N   0  0  0  0  0  0  0  0  0  0  0  0
  148.5419  133.3661  157.9984 C   0  0  0  0  0  0  0  0  0  0  0  0
  149.7569  133.9421  157.7922 N   0  0  0  0  0  0  0  0  0  0  0  0
  150.2517  134.0526  156.5562 C   0  0  0  0  0  0  0  0  0  0  0  0
  149.7070  133.6644  155.4020 N   0  0  0  0  0  0  0  0  0  0  0  0
  148.4823  133.0980  155.5986 C   0  0  0  0  0  0  0  0  0  0  0  0
  147.8330  132.9085  156.8515 C   0  0  0  0  0  0  0  0  0  0  0  0
  146.5975  132.3028  156.6553 N   0  0  0  0  0  0  0  0  0  0  0  0
  146.5262  132.1336  155.3636 C   0  0  0  0  0  0  0  0  0  0  0  0
  147.6085  132.5963  154.6492 N   0  0  0  0  0  0  0  0  0  0  0  0
  147.7863  132.5457  153.2055 C   0  0  0  0  0  0  0  0  0  0  0  0
  146.8000  133.4320  152.3990 C   0  0  1  0  0  0  0  0  0  0  0  0
  147.1028  134.7813  152.6957 O   0  0  0  0  0  0  0  0  0  0  0  0
  146.8517  133.2171  150.8869 C   0  0  0  0  0  0  0  0  0  0  0  0
  145.6746  132.2822  150.5830 C   0  0  0  0  0  0  0  0  0  0  0  0
  144.9880  132.0910  151.8140 O   0  0  0  0  0  0  0  0  0  0  0  0
  145.3225  133.1541  152.6915 C   0  0  0  0  0  0  0  0  0  0  0  0
  147.0658  132.2047  159.5206 C   0  0  0  0  0  0  0  0  0  0  0  0
  146.8668  132.0095  161.0452 C   0  0  2  0  0  0  0  0  0  0  0  0
  148.0575  131.3298  161.7156 C   0  0  0  0  0  0  0  0  0  0  0  0
  147.7801  129.8483  161.4906 C   0  0  0  0  0  0  0  0  0  0  0  0
  146.3638  129.7223  161.4998 O   0  0  0  0  0  0  0  0  0  0  0  0
  145.7533  131.0078  161.4144 C   0  0  2  0  0  0  0  0  0  0  0  0
  144.5231  130.9660  160.4967 C   0  0  0  0  0  0  0  0  0  0  0  0
  146.5763  133.2709  161.6550 O   0  0  0  0  0  0  0  0  0  0  0  0
  147.8348  136.3564  162.0281 H   0  0  0  0  0  0  0  0  0  0  0  0
  146.9962  135.3738  163.2250 H   0  0  0  0  0  0  0  0  0  0  0  0
  146.1493  135.9052  161.7742 H   0  0  0  0  0  0  0  0  0  0  0  0
  148.5121  133.9668  161.8622 H   0  0  0  0  0  0  0  0  0  0  0  0
  146.8109  134.9056  159.4926 H   0  0  0  0  0  0  0  0  0  0  0  0
  148.5056  135.2573  159.7508 H   0  0  0  0  0  0  0  0  0  0  0  0
  151.2229  134.5188  156.4817 H   0  0  0  0  0  0  0  0  0  0  0  0
  145.6709  131.6710  154.8931 H   0  0  0  0  0  0  0  0  0  0  0  0
  148.8147  132.8317  152.9809 H   0  0  0  0  0  0  0  0  0  0  0  0
  147.6886  131.5048  152.8941 H   0  0  0  0  0  0  0  0  0  0  0  0
  147.9334  134.9959  152.2994 H   0  0  0  0  0  0  0  0  0  0  0  0
  146.6950  134.1577  150.3558 H   0  0  0  0  0  0  0  0  0  0  0  0
  147.8072  132.8176  150.5468 H   0  0  0  0  0  0  0  0  0  0  0  0
  145.0025  132.7311  149.8508 H   0  0  0  0  0  0  0  0  0  0  0  0
  146.0068  131.3199  150.1923 H   0  0  0  0  0  0  0  0  0  0  0  0
  145.1258  132.9060  153.7342 H   0  0  0  0  0  0  0  0  0  0  0  0
  144.7037  134.0152  152.4321 H   0  0  0  0  0  0  0  0  0  0  0  0
  146.1284  132.5077  159.0528 H   0  0  0  0  0  0  0  0  0  0  0  0
  147.3707  131.2672  159.0540 H   0  0  0  0  0  0  0  0  0  0  0  0
  149.0262  131.6409  161.3234 H   0  0  0  0  0  0  0  0  0  0  0  0
  148.0494  131.5388  162.7864 H   0  0  0  0  0  0  0  0  0  0  0  0
  148.1539  129.5311  160.5166 H   0  0  0  0  0  0  0  0  0  0  0  0
  148.2417  129.2180  162.2509 H   0  0  0  0  0  0  0  0  0  0  0  0
  145.4147  131.2399  162.4257 H   0  0  0  0  0  0  0  0  0  0  0  0
  144.0634  131.9510  160.4117 H   0  0  0  0  0  0  0  0  0  0  0  0
  143.7714  130.2827  160.8922 H   0  0  0  0  0  0  0  0  0  0  0  0
  144.7798  130.6221  159.4946 H   0  0  0  0  0  0  0  0  0  0  0  0
  1  2  1  0  0  0  0
  1 29  1  0  0  0  0
  1 30  1  0  0  0  0
  1 31  1  0  0  0  0
  2 28  1  0  0  0  0
  2  3  1  0  0  0  0
  2 32  1  0  0  0  0
  3  4  1  0  0  0  0
  3 33  1  0  0  0  0
  3 34  1  0  0  0  0
  4  5  1  0  0  0  0
  4 21  1  0  0  0  0
  5 10  1  0  0  0  0
  5  6  2  0  0  0  0
  6  7  1  0  0  0  0
  7  8  2  0  0  0  0
  7 35  1  0  0  0  0
  8  9  1  0  0  0  0
  9 13  1  0  0  0  0
  9 10  2  0  0  0  0
 10 11  1  0  0  0  0
 11 12  2  0  0  0  0
 12 13  1  0  0  0  0
 12 36  1  0  0  0  0
 13 14  1  0  0  0  0
 14 15  1  0  0  0  0
 14 37  1  0  0  0  0
 14 38  1  0  0  0  0
 15 20  1  0  0  0  0
 15 16  1  0  0  0  0
 15 17  1  0  0  0  0
 16 39  1  0  0  0  0
 17 18  1  0  0  0  0
 17 40  1  0  0  0  0
 17 41  1  0  0  0  0
 18 19  1  0  0  0  0
 18 42  1  0  0  0  0
 18 43  1  0  0  0  0
 19 20  1  0  0  0  0
 20 44  1  0  0  0  0
 20 45  1  0  0  0  0
 21 22  1  0  0  0  0
 21 46  1  0  0  0  0
 21 47  1  0  0  0  0
 22 26  1  0  0  0  0
 22 23  1  0  0  0  0
 22 28  1  0  0  0  0
 23 24  1  0  0  0  0
 23 48  1  0  0  0  0
 23 49  1  0  0  0  0
 24 25  1  0  0  0  0
 24 50  1  0  0  0  0
 24 51  1  0  0  0  0
 25 26  1  0  0  0  0
 26 27  1  0  0  0  0
 26 52  1  0  0  0  0
 27 53  1  0  0  0  0
 27 54  1  0  0  0  0
 27 55  1  0  0  0  0
M  END
> <s_m_source_file>
AV-unprocessed.smi

> <i_m_source_file_index>
281

> <i_lp_mmshare_version>
43012

> <i_f3d_flags>
0

> <s_epik_input>
W0NIM11bQ0BASF0xT1tDSDJdW0NIMl1bQ0BAXTEyW0NIMl1OKFtDSDJdW0NASF0oTzIpW0NIM10pYyhuW2NIXW4zKWMoYzM0KW5bY0hdbjRbQ0gyXVtDQEBdNShbT0hdKVtDSDJdW0NIMl1PW0NIMl01

> <s_epik_cmdline>
J2VwaWtfcHl0aG9uJywgJy1waCcsICc3LjAnLCAnLXRuJywgJzgnLCAnLW1hJywgJzIwMCcsICctbWV0YWxfYmluZGluZycsICctaW1hZScsICc8aW5maWxlLm1hZT4nLCAnLW9tYWUnLCAnPG91dGZpbGUubWFlPic=

> <r_lp_tautomer_probability>
1

> <r_epik_Ionization_Penalty>
0.00571331

> <r_epik_Ionization_Penalty_Charging>
0

> <r_epik_Ionization_Penalty_Neutral>
0.00571331

> <r_epik_State_Penalty>
0.00399586

> <r_epik_Charging_Adjusted_Penalty>
0.00399586

> <i_epik_Tot_Q>
0

> <i_epik_Tot_abs_Q>
0

> <r_epik_Metal_State_Penalty>
-0

> <b_epik_Metal_Only>
0

> <s_lp_Force_Field>
OPLS_2005

> <r_lp_Energy>
56.9386

> <b_lp_Chiralities_Consistent>
1

> <s_lp_Variant>
AV-unprocessed.smi:281-9

> <Gold.Version>
5.8.1

> <Gold.Id.Protein>
6NUR|6NUR_protein|mol2

> <Gold.PLP.Fitness>
38.4545

> <Gold.PLP.PLP>
-33.0588

> <Gold.PLP.part.hbond>
-2.0000

> <Gold.PLP.part.metal>
0.0000

> <Gold.PLP.part.buried>
-6.4731

> <Gold.PLP.part.nonpolar>
-25.0037

> <Gold.PLP.part.repulsive>
0.2334

> <Gold.PLP.ligand.clash>
0.0000

> <Gold.PLP.ligand.torsion>
0.4561

> <Gold.PLP.Chemscore.Hbond>
2.0000

> <Gold.PLP.Chemscore.CHOScore>
0.0000

> <Gold.PLP.Chemscore.Metal>
0.0000

> <Gold.Chemscore.Hbonds>
donor molecule, donor type, donor heavy atom, donor atom, acceptor molecule, acceptor atom, score
      L1  H    16    39       P1  7948  0.94
      P1  H  6896  6908       L1     6  1.00

> <Gold.PLP.Chemscore.Internal.Correction>
0.3078

> <Gold.Rescore>
     Score         DG    S(hbond)    S(metal)    S(lipo)     H(rot)  DE(clash)    DE(int)     intcor
     14.03     -15.74       1.91        0.00      78.85       2.09       0.01       1.70       ----

> <Gold.Chemscore.Fitness>
14.0308

> <Gold.Chemscore.DG>
-15.7396

> <Gold.Chemscore.ZeroCoef>
-5.4800

> <Gold.Chemscore.Hbond>
1.9136

> <Gold.Chemscore.Metal>
0.0000

> <Gold.Chemscore.Lipo>
78.8503

> <Gold.Chemscore.Internal_Hbond>
0.0000

> <Gold.Chemscore.DEClash>
0.0126

> <Gold.Chemscore.DEInternal>
1.6962

> <Gold.Chemscore.Rot>
2.0927

> <Gold.Chemscore.Internal.Correction>
   9.000000E+99

> <Gold.Chemscore.Hbonds>
donor molecule, donor type, donor heavy atom, donor atom, acceptor molecule, acceptor atom, score
      L1  H    16    39       P1  7948  0.74
      P1  H  6896  6908       L1     6  0.78

> <Gold.Chemscore.Hbond.Weighted>
-6.3915

> <Gold.Chemscore.Metal.Weighted>
-0.0000

> <Gold.Chemscore.Lipo.Weighted>
-9.2255

> <Gold.Chemscore.Internal_Hbond.Weighted>
0.0000

> <Gold.Chemscore.DEClash.Weighted>
0.0126

> <Gold.Chemscore.DEInternal.Weighted>
1.6962

> <Gold.Chemscore.Rot.Weighted>
5.3573

> <Gold.Chemscore.Internal.Correction.Weighted>
   9.000000E+99

> <Gold.Protein.RotatedTorsions>
[ 6907 6896 6895 6894 ] final  133.04 input  -60.11 | X-H torsion
[ 7974 7965 7964 7962 ] final   83.71 input  175.53 | X-H torsion
[ 8008 7997 7996 7995 ] final  -88.80 input   59.86 | X-H torsion
[ 10167 10162 10161 10158 ] final  -48.25 input  -65.29 | X-H torsion
[ 10718 10713 10712 10709 ] final   90.05 input   66.30 | X-H torsion
[ 10763 10752 10751 10750 ] final    9.55 input  -60.55 | X-H torsion
[ 11005 11000 10999 10996 ] final   68.64 input  -57.11 | X-H torsion

> <Gold.Protein.ActiveResidues>
 VAL166  LYS551  ARG553  GLY616  TRP617  ASP618  TYR619  PRO620  LYS621  CYS622 
 ASP623  PHE694  ASN695  SER759  ASP760  ASP761  ALA762  ILE779  LEU786  VAL792 
 PHE793  MET794  SER795  GLU796  ALA797  LYS798  CYS799  TRP800  GLU811  SER814 

> <Gold.Protein.RotatedAtoms>
  152.3261  133.5907  159.5777 H   0  0  0  0  0  0  0  0  0  0  0  0  # atno 6907 bound_to 6896
  150.7397  133.9938  159.3624 H   0  0  0  0  0  0  0  0  0  0  0  0  # atno 6908 bound_to 6896
  151.7817  135.0760  160.0426 H   0  0  0  0  0  0  0  0  0  0  0  0  # atno 6909 bound_to 6896
  145.6083  139.2364  143.2207 H   0  0  0  0  0  0  0  0  0  0  0  0  # atno 7974 bound_to 7965
  154.6791  140.0549  157.0247 H   0  0  0  0  0  0  0  0  0  0  0  0  # atno 8008 bound_to 7997
  155.0978  140.3226  155.4537 H   0  0  0  0  0  0  0  0  0  0  0  0  # atno 8009 bound_to 7997
  156.2687  140.2036  156.6104 H   0  0  0  0  0  0  0  0  0  0  0  0  # atno 8010 bound_to 7997
  140.6739  143.2748  151.4044 H   0  0  0  0  0  0  0  0  0  0  0  0  # atno 10167 bound_to 10162
  157.6958  131.0356  150.3519 H   0  0  0  0  0  0  0  0  0  0  0  0  # atno 10718 bound_to 10713
  153.2127  135.6871  153.8094 H   0  0  0  0  0  0  0  0  0  0  0  0  # atno 10763 bound_to 10752
  153.7320  135.3251  155.3289 H   0  0  0  0  0  0  0  0  0  0  0  0  # atno 10764 bound_to 10752
  154.8230  135.4638  154.0942 H   0  0  0  0  0  0  0  0  0  0  0  0  # atno 10765 bound_to 10752
  139.9699  134.6917  156.0468 H   0  0  0  0  0  0  0  0  0  0  0  0  # atno 11005 bound_to 11000
  146.1524  140.6906  142.9316 LP  0  0  0  0  0  0  0  0  0  0  0  0  # atno 17320 bound_to 7965
  144.7280  140.4586  143.6958 LP  0  0  0  0  0  0  0  0  0  0  0  0  # atno 17321 bound_to 7965
  139.6021  144.1273  152.2210 LP  0  0  0  0  0  0  0  0  0  0  0  0  # atno 17342 bound_to 10162
  140.0660  144.5818  150.7227 LP  0  0  0  0  0  0  0  0  0  0  0  0  # atno 17343 bound_to 10162
  156.3966  130.3908  149.6990 LP  0  0  0  0  0  0  0  0  0  0  0  0  # atno 17370 bound_to 10713
  156.4322  130.7820  151.2840 LP  0  0  0  0  0  0  0  0  0  0  0  0  # atno 17371 bound_to 10713
  141.1379  133.6571  156.3646 LP  0  0  0  0  0  0  0  0  0  0  0  0  # atno 17394 bound_to 11000
  140.5315  134.6208  157.5351 LP  0  0  0  0  0  0  0  0  0  0  0  0  # atno 17395 bound_to 11000

$$$$
