AV-unprocessed.smi:1726|AV-procd|sdf|6961|dock4
  -GOLD-   22720 8173D 1   1.00000     0.00000
 Structure written by MMmdl.
 42 43  0  0  0  0  0  0  0  0  3 V2000
  145.1769  135.4984  151.4503 C   0  0  0  0  0  0  0  0  0  0  0  0
  145.7807  135.7529  152.8392 C   0  0  0  0  0  0  0  0  0  0  0  0
  146.6424  136.9617  152.8755 N   0  3  1  0  0  0  0  0  0  0  0  0
  145.9526  138.1562  152.3222 C   0  0  0  0  0  0  0  0  0  0  0  0
  146.9026  139.3626  152.2426 C   0  0  0  0  0  0  0  0  0  0  0  0
  147.5147  139.6741  153.6143 C   0  0  0  0  0  0  0  0  0  0  0  0
  148.2011  138.4209  154.1783 C   0  0  1  0  0  0  0  0  0  0  0  0
  148.7331  138.7008  155.5083 N   0  0  0  0  0  0  0  0  0  0  0  0
  149.8379  139.4171  155.7612 C   0  0  0  0  0  0  0  0  0  0  0  0
  150.5308  139.9181  154.8754 O   0  0  0  0  0  0  0  0  0  0  0  0
  150.0779  139.4789  157.0830 N   0  0  0  0  0  0  0  0  0  0  0  0
  151.1118  140.1399  157.7670 C   0  0  0  0  0  0  0  0  0  0  0  0
  151.0636  141.4375  158.1776 C   0  0  0  0  0  0  0  0  0  0  0  0
  152.1610  142.0679  158.9003 C   0  0  0  0  0  0  0  0  0  0  0  0
  152.1821  143.5363  159.2859 C   0  0  0  0  0  0  0  0  0  0  0  0
  153.1373  144.1700  158.6069 F   0  0  0  0  0  0  0  0  0  0  0  0
  151.0168  144.1225  159.0090 F   0  0  0  0  0  0  0  0  0  0  0  0
  152.4288  143.6844  160.5876 F   0  0  0  0  0  0  0  0  0  0  0  0
  153.2225  141.2060  159.0976 C   0  0  0  0  0  0  0  0  0  0  0  0
  153.3382  139.9055  158.7497 N   0  5  0  0  0  0  0  0  0  0  0  0
  152.3050  139.3254  158.0763 C   0  0  0  0  0  0  0  0  0  0  0  0
  152.3461  138.1461  157.7237 O   0  0  0  0  0  0  0  0  0  0  0  0
  147.2120  137.2368  154.2217 C   0  0  0  0  0  0  0  0  0  0  0  0
  144.4740  134.6658  151.4867 H   0  0  0  0  0  0  0  0  0  0  0  0
  145.9362  135.2450  150.7112 H   0  0  0  0  0  0  0  0  0  0  0  0
  144.6334  136.3724  151.0903 H   0  0  0  0  0  0  0  0  0  0  0  0
  144.9543  135.8816  153.5395 H   0  0  0  0  0  0  0  0  0  0  0  0
  146.3416  134.8819  153.1813 H   0  0  0  0  0  0  0  0  0  0  0  0
  145.5746  137.9350  151.3233 H   0  0  0  0  0  0  0  0  0  0  0  0
  145.0879  138.3982  152.9424 H   0  0  0  0  0  0  0  0  0  0  0  0
  147.6975  139.1560  151.5247 H   0  0  0  0  0  0  0  0  0  0  0  0
  146.3668  140.2350  151.8676 H   0  0  0  0  0  0  0  0  0  0  0  0
  148.2303  140.4925  153.5261 H   0  0  0  0  0  0  0  0  0  0  0  0
  146.7330  140.0132  154.2960 H   0  0  0  0  0  0  0  0  0  0  0  0
  149.0316  138.1628  153.5174 H   0  0  0  0  0  0  0  0  0  0  0  0
  148.2251  138.3214  156.2943 H   0  0  0  0  0  0  0  0  0  0  0  0
  149.4604  138.9485  157.6802 H   0  0  0  0  0  0  0  0  0  0  0  0
  150.1892  142.0413  157.9982 H   0  0  0  0  0  0  0  0  0  0  0  0
  154.1148  141.6256  159.6092 H   0  0  0  0  0  0  0  0  0  0  0  0
  146.4024  137.4442  154.9236 H   0  0  0  0  0  0  0  0  0  0  0  0
  147.7293  136.3524  154.5919 H   0  0  0  0  0  0  0  0  0  0  0  0
  147.4217  136.7758  152.2603 H   0  0  0  0  0  0  0  0  0  0  0  0
  1  2  1  0  0  0  0
  1 24  1  0  0  0  0
  1 25  1  0  0  0  0
  1 26  1  0  0  0  0
  2  3  1  0  0  0  0
  2 27  1  0  0  0  0
  2 28  1  0  0  0  0
  3 23  1  0  0  0  0
  3  4  1  0  0  0  0
  3 42  1  0  0  0  0
  4  5  1  0  0  0  0
  4 29  1  0  0  0  0
  4 30  1  0  0  0  0
  5  6  1  0  0  0  0
  5 31  1  0  0  0  0
  5 32  1  0  0  0  0
  6  7  1  0  0  0  0
  6 33  1  0  0  0  0
  6 34  1  0  0  0  0
  7  8  1  0  0  0  0
  7 23  1  0  0  0  0
  7 35  1  0  0  0  0
  8  9  1  0  0  0  0
  8 36  1  0  0  0  0
  9 10  2  0  0  0  0
  9 11  1  0  0  0  0
 11 12  1  0  0  0  0
 11 37  1  0  0  0  0
 12 21  1  0  0  0  0
 12 13  2  0  0  0  0
 13 14  1  0  0  0  0
 13 38  1  0  0  0  0
 14 15  1  0  0  0  0
 14 19  2  0  0  0  0
 15 16  1  0  0  0  0
 15 17  1  0  0  0  0
 15 18  1  0  0  0  0
 19 20  1  0  0  0  0
 19 39  1  0  0  0  0
 20 21  1  0  0  0  0
 21 22  2  0  0  0  0
 23 40  1  0  0  0  0
 23 41  1  0  0  0  0
M  CHG  1   3   1
M  CHG  1  20  -1
M  END
> <s_m_source_file>
AV-unprocessed.smi

> <i_m_source_file_index>
1726

> <i_lp_mmshare_version>
43012

> <i_f3d_flags>
0

> <s_epik_input>
W0NIM11bQ0gyXU4xW0NIMl1bQ0gyXVtDSDJdW0NASF0oW0NIMl0xKVtOSF1DKD1PKVtOSF1jMltjSF1jKEMoRikoRilGKVtjSF1bbkhdYzI9Tw==

> <s_epik_cmdline>
J2VwaWtfcHl0aG9uJywgJy1waCcsICc3LjAnLCAnLXRuJywgJzgnLCAnLW1hJywgJzIwMCcsICctbWV0YWxfYmluZGluZycsICctaW1hZScsICc8aW5maWxlLm1hZT4nLCAnLW9tYWUnLCAnPG91dGZpbGUubWFlPic=

> <r_lp_tautomer_probability>
1

> <r_epik_Ionization_Penalty>
3.01007

> <r_epik_Ionization_Penalty_Charging>
0.14897

> <r_epik_Ionization_Penalty_Neutral>
2.8611

> <r_epik_State_Penalty>
2.85632

> <r_epik_Charging_Adjusted_Penalty>
3.00529

> <i_epik_Tot_Q>
0

> <i_epik_Tot_abs_Q>
2

> <r_epik_Metal_State_Penalty>
0.443826

> <b_epik_Metal_Only>
1

> <s_lp_Force_Field>
OPLS_2005

> <r_lp_Energy>
27.5117

> <b_lp_Chiralities_Consistent>
1

> <s_lp_Variant>
AV-unprocessed.smi:1726-5

> <Gold.Version>
5.8.1

> <Gold.Id.Protein>
6NUR|6NUR_protein|mol2

> <Gold.PLP.Fitness>
49.0294

> <Gold.PLP.PLP>
-36.1280

> <Gold.PLP.part.hbond>
-3.0000

> <Gold.PLP.part.metal>
0.0000

> <Gold.PLP.part.buried>
-0.9164

> <Gold.PLP.part.nonpolar>
-32.8020

> <Gold.PLP.part.repulsive>
0.1017

> <Gold.PLP.ligand.clash>
0.0000

> <Gold.PLP.ligand.torsion>
1.0617

> <Gold.PLP.Chemscore.Hbond>
4.9840

> <Gold.PLP.Chemscore.CHOScore>
0.0000

> <Gold.PLP.Chemscore.Metal>
0.0000

> <Gold.Chemscore.Hbonds>
donor molecule, donor type, donor heavy atom, donor atom, acceptor molecule, acceptor atom, score
      L1  H     3    42       P1  7948  2.00
      P1  H  7989  7998       L1    10  1.00
      P1  H  7997  8010       L1    20  1.50

> <Gold.PLP.Chemscore.Internal.Correction>
0.0728

> <Gold.Rescore>
     Score         DG    S(hbond)    S(metal)    S(lipo)     H(rot)  DE(clash)    DE(int)     intcor
     17.61     -19.02       2.29        0.00      78.32       1.28       0.44       0.97       ----

> <Gold.Chemscore.Fitness>
17.6121

> <Gold.Chemscore.DG>
-19.0175

> <Gold.Chemscore.ZeroCoef>
-5.4800

> <Gold.Chemscore.Hbond>
2.2905

> <Gold.Chemscore.Metal>
0.0000

> <Gold.Chemscore.Lipo>
78.3166

> <Gold.Chemscore.Internal_Hbond>
0.0000

> <Gold.Chemscore.DEClash>
0.4362

> <Gold.Chemscore.DEInternal>
0.9693

> <Gold.Chemscore.Rot>
1.2796

> <Gold.Chemscore.Internal.Correction>
   9.000000E+99

> <Gold.Chemscore.Hbonds>
donor molecule, donor type, donor heavy atom, donor atom, acceptor molecule, acceptor atom, score
      L1  H     3    42       P1  7948  0.99
      P1  H  7989  7998       L1    10  0.96
      P1  H  7997  8010       L1    20  0.06

> <Gold.Chemscore.Hbond.Weighted>
-7.6503

> <Gold.Chemscore.Metal.Weighted>
-0.0000

> <Gold.Chemscore.Lipo.Weighted>
-9.1630

> <Gold.Chemscore.Internal_Hbond.Weighted>
0.0000

> <Gold.Chemscore.DEClash.Weighted>
0.4362

> <Gold.Chemscore.DEInternal.Weighted>
0.9693

> <Gold.Chemscore.Rot.Weighted>
3.2759

> <Gold.Chemscore.Internal.Correction.Weighted>
   9.000000E+99

> <Gold.Protein.RotatedTorsions>
[ 6907 6896 6895 6894 ] final   33.64 input  -60.11 | X-H torsion
[ 7974 7965 7964 7962 ] final   94.81 input  175.53 | X-H torsion
[ 8008 7997 7996 7995 ] final   17.57 input   59.86 | X-H torsion
[ 10167 10162 10161 10158 ] final   75.91 input  -65.29 | X-H torsion
[ 10718 10713 10712 10709 ] final  -53.67 input   66.30 | X-H torsion
[ 10763 10752 10751 10750 ] final   89.72 input  -60.55 | X-H torsion
[ 11005 11000 10999 10996 ] final  -45.27 input  -57.11 | X-H torsion

> <Gold.Protein.ActiveResidues>
 VAL166  LYS551  ARG553  GLY616  TRP617  ASP618  TYR619  PRO620  LYS621  CYS622 
 ASP623  PHE694  ASN695  SER759  ASP760  ASP761  ALA762  ILE779  LEU786  VAL792 
 PHE793  MET794  SER795  GLU796  ALA797  LYS798  CYS799  TRP800  GLU811  SER814 

> <Gold.Protein.RotatedAtoms>
  152.0913  134.9405  160.0571 H   0  0  0  0  0  0  0  0  0  0  0  0  # atno 6907 bound_to 6896
  152.0655  133.4077  159.4445 H   0  0  0  0  0  0  0  0  0  0  0  0  # atno 6908 bound_to 6896
  150.6837  134.3071  159.4774 H   0  0  0  0  0  0  0  0  0  0  0  0  # atno 6909 bound_to 6896
  145.4605  139.2287  143.2990 H   0  0  0  0  0  0  0  0  0  0  0  0  # atno 7974 bound_to 7965
  154.8933  140.2990  155.5358 H   0  0  0  0  0  0  0  0  0  0  0  0  # atno 8008 bound_to 7997
  156.3020  140.2420  156.3886 H   0  0  0  0  0  0  0  0  0  0  0  0  # atno 8009 bound_to 7997
  154.8596  140.0406  157.1645 H   0  0  0  0  0  0  0  0  0  0  0  0  # atno 8010 bound_to 7997
  139.9979  144.5708  150.7762 H   0  0  0  0  0  0  0  0  0  0  0  0  # atno 10167 bound_to 10162
  156.1515  130.4151  149.9937 H   0  0  0  0  0  0  0  0  0  0  0  0  # atno 10718 bound_to 10713
  153.1900  135.4460  155.0137 H   0  0  0  0  0  0  0  0  0  0  0  0  # atno 10763 bound_to 10752
  154.8084  135.3284  154.7372 H   0  0  0  0  0  0  0  0  0  0  0  0  # atno 10764 bound_to 10752
  153.7827  135.6976  153.4940 H   0  0  0  0  0  0  0  0  0  0  0  0  # atno 10765 bound_to 10752
  141.0504  133.6745  156.2989 H   0  0  0  0  0  0  0  0  0  0  0  0  # atno 11005 bound_to 11000
  146.2453  140.5374  142.8916 LP  0  0  0  0  0  0  0  0  0  0  0  0  # atno 17320 bound_to 7965
  144.8005  140.6205  143.6481 LP  0  0  0  0  0  0  0  0  0  0  0  0  # atno 17321 bound_to 7965
  140.7430  143.2840  151.3517 LP  0  0  0  0  0  0  0  0  0  0  0  0  # atno 17342 bound_to 10162
  139.6293  144.0753  152.2462 LP  0  0  0  0  0  0  0  0  0  0  0  0  # atno 17343 bound_to 10162
  156.7793  130.9215  151.3646 LP  0  0  0  0  0  0  0  0  0  0  0  0  # atno 17370 bound_to 10713
  157.6661  130.9009  149.9935 LP  0  0  0  0  0  0  0  0  0  0  0  0  # atno 17371 bound_to 10713
  140.6066  134.5501  157.5526 LP  0  0  0  0  0  0  0  0  0  0  0  0  # atno 17394 bound_to 11000
  139.9346  134.7899  156.0838 LP  0  0  0  0  0  0  0  0  0  0  0  0  # atno 17395 bound_to 11000

$$$$
