AV-unprocessed.smi:2413|AV-procd|sdf|9536|dock9
  -GOLD-   2272013173D 1   1.00000     0.00000
 Structure written by MMmdl.
 46 47  0  0  0  0  0  0  0  0  2 V2000
  151.9477  144.9668  159.4581 C   0  0  0  0  0  0  0  0  0  0  0  0
  151.9591  143.4436  159.5201 C   0  0  0  0  0  0  0  0  0  0  0  0
  151.8695  142.8702  160.6053 O   0  0  0  0  0  0  0  0  0  0  0  0
  152.0587  142.8018  158.3457 N   0  0  0  0  0  0  0  0  0  0  0  0
  152.0950  141.3520  158.1715 C   0  0  0  0  0  0  0  0  0  0  0  0
  151.8321  140.9285  156.7144 C   0  0  2  0  0  0  0  0  0  0  0  0
  150.3319  140.8704  156.3623 C   0  0  0  0  0  0  0  0  0  0  0  0
  150.1226  140.3329  155.0185 N   0  0  0  0  0  0  0  0  0  0  0  0
  148.8276  140.4515  154.4653 C   0  0  0  0  0  0  0  0  0  0  0  0
  148.4409  139.7211  153.3226 C   0  0  0  0  0  0  0  0  0  0  0  0
  147.1255  139.9010  152.8585 C   0  0  0  0  0  0  0  0  0  0  0  0
  146.2856  140.7572  153.4872 N   0  3  0  0  0  0  0  0  0  0  0  0
  146.7176  141.4720  154.5399 C   0  0  0  0  0  0  0  0  0  0  0  0
  145.7260  142.3523  155.3141 C   0  0  0  0  0  0  0  0  0  0  0  0
  144.4926  141.5324  155.7611 C   0  0  0  0  0  0  0  0  0  0  0  0
  145.2730  143.5221  154.4218 C   0  0  0  0  0  0  0  0  0  0  0  0
  146.3742  142.9029  156.6048 C   0  0  0  0  0  0  0  0  0  0  0  0
  147.9457  141.2957  155.0486 N   0  0  0  0  0  0  0  0  0  0  0  0
  150.8153  139.0682  154.7848 C   0  0  0  0  0  0  0  0  0  0  0  0
  152.2954  139.1855  155.1845 C   0  0  0  0  0  0  0  0  0  0  0  0
  152.3964  139.6332  156.5317 O   0  0  0  0  0  0  0  0  0  0  0  0
  152.7793  145.3333  158.8555 H   0  0  0  0  0  0  0  0  0  0  0  0
  152.0360  145.3958  160.4567 H   0  0  0  0  0  0  0  0  0  0  0  0
  151.0165  145.3207  159.0153 H   0  0  0  0  0  0  0  0  0  0  0  0
  152.1232  143.3604  157.5068 H   0  0  0  0  0  0  0  0  0  0  0  0
  153.0860  141.0118  158.4725 H   0  0  0  0  0  0  0  0  0  0  0  0
  151.3897  140.8607  158.8445 H   0  0  0  0  0  0  0  0  0  0  0  0
  152.3387  141.6303  156.0486 H   0  0  0  0  0  0  0  0  0  0  0  0
  149.8001  140.2493  157.0847 H   0  0  0  0  0  0  0  0  0  0  0  0
  149.9131  141.8753  156.4228 H   0  0  0  0  0  0  0  0  0  0  0  0
  149.1121  139.0510  152.8072 H   0  0  0  0  0  0  0  0  0  0  0  0
  146.7152  139.3834  152.0038 H   0  0  0  0  0  0  0  0  0  0  0  0
  143.8053  142.1394  156.3515 H   0  0  0  0  0  0  0  0  0  0  0  0
  144.7829  140.6778  156.3736 H   0  0  0  0  0  0  0  0  0  0  0  0
  143.9242  141.1512  154.9115 H   0  0  0  0  0  0  0  0  0  0  0  0
  144.7848  143.1626  153.5150 H   0  0  0  0  0  0  0  0  0  0  0  0
  146.1187  144.1395  154.1167 H   0  0  0  0  0  0  0  0  0  0  0  0
  144.5647  144.1680  154.9416 H   0  0  0  0  0  0  0  0  0  0  0  0
  145.6644  143.4962  157.1822 H   0  0  0  0  0  0  0  0  0  0  0  0
  147.2250  143.5506  156.3908 H   0  0  0  0  0  0  0  0  0  0  0  0
  146.7253  142.0960  157.2494 H   0  0  0  0  0  0  0  0  0  0  0  0
  150.3311  138.2875  155.3729 H   0  0  0  0  0  0  0  0  0  0  0  0
  150.7606  138.7616  153.7418 H   0  0  0  0  0  0  0  0  0  0  0  0
  152.7847  138.2155  155.0969 H   0  0  0  0  0  0  0  0  0  0  0  0
  152.8256  139.8698  154.5201 H   0  0  0  0  0  0  0  0  0  0  0  0
  145.3292  140.8630  153.1481 H   0  0  0  0  0  0  0  0  0  0  0  0
  1  2  1  0  0  0  0
  1 22  1  0  0  0  0
  1 23  1  0  0  0  0
  1 24  1  0  0  0  0
  2  3  2  0  0  0  0
  2  4  1  0  0  0  0
  4  5  1  0  0  0  0
  4 25  1  0  0  0  0
  5  6  1  0  0  0  0
  5 26  1  0  0  0  0
  5 27  1  0  0  0  0
  6 21  1  0  0  0  0
  6  7  1  0  0  0  0
  6 28  1  0  0  0  0
  7  8  1  0  0  0  0
  7 29  1  0  0  0  0
  7 30  1  0  0  0  0
  8  9  1  0  0  0  0
  8 19  1  0  0  0  0
  9 18  1  0  0  0  0
  9 10  2  0  0  0  0
 10 11  1  0  0  0  0
 10 31  1  0  0  0  0
 11 12  2  0  0  0  0
 11 32  1  0  0  0  0
 12 13  1  0  0  0  0
 12 46  1  0  0  0  0
 13 14  1  0  0  0  0
 13 18  2  0  0  0  0
 14 15  1  0  0  0  0
 14 16  1  0  0  0  0
 14 17  1  0  0  0  0
 15 33  1  0  0  0  0
 15 34  1  0  0  0  0
 15 35  1  0  0  0  0
 16 36  1  0  0  0  0
 16 37  1  0  0  0  0
 16 38  1  0  0  0  0
 17 39  1  0  0  0  0
 17 40  1  0  0  0  0
 17 41  1  0  0  0  0
 19 20  1  0  0  0  0
 19 42  1  0  0  0  0
 19 43  1  0  0  0  0
 20 21  1  0  0  0  0
 20 44  1  0  0  0  0
 20 45  1  0  0  0  0
M  CHG  1  12   1
M  END
> <s_m_source_file>
AV-unprocessed.smi

> <i_m_source_file_index>
2413

> <i_lp_mmshare_version>
43012

> <i_f3d_flags>
0

> <s_epik_input>
W0NIM11DKD1PKVtOSF1bQ0gyXVtDQEBIXTFbQ0gyXU4oW0NIMl1bQ0gyXU8xKWMyW2NIXVtjSF1uYyhuMilDKFtDSDNdKShbQ0gzXSlbQ0gzXQ==

> <s_epik_cmdline>
J2VwaWtfcHl0aG9uJywgJy1waCcsICc3LjAnLCAnLXRuJywgJzgnLCAnLW1hJywgJzIwMCcsICctbWV0YWxfYmluZGluZycsICctaW1hZScsICc8aW5maWxlLm1hZT4nLCAnLW9tYWUnLCAnPG91dGZpbGUubWFlPic=

> <r_lp_tautomer_probability>
0.999336

> <r_epik_Ionization_Penalty>
2.26127

> <r_epik_Ionization_Penalty_Charging>
2.26127

> <r_epik_Ionization_Penalty_Neutral>
4.08984e-07

> <r_epik_State_Penalty>
2.40914

> <r_epik_Charging_Adjusted_Penalty>
4.67041

> <i_epik_Tot_Q>
1

> <i_epik_Tot_abs_Q>
1

> <r_epik_Metal_State_Penalty>
2.42208

> <b_epik_Metal_Only>
0

> <s_lp_Force_Field>
OPLS_2005

> <r_lp_Energy>
13.7164

> <b_lp_Chiralities_Consistent>
1

> <s_lp_Variant>
AV-unprocessed.smi:2413-3

> <Gold.Version>
5.8.1

> <Gold.Id.Protein>
6NUR|6NUR_protein|mol2

> <Gold.PLP.Fitness>
43.4953

> <Gold.PLP.PLP>
-35.9354

> <Gold.PLP.part.hbond>
-3.0598

> <Gold.PLP.part.metal>
0.0000

> <Gold.PLP.part.buried>
0.0614

> <Gold.PLP.part.nonpolar>
-32.2474

> <Gold.PLP.part.repulsive>
0.2864

> <Gold.PLP.ligand.clash>
0.0000

> <Gold.PLP.ligand.torsion>
0.9665

> <Gold.PLP.Chemscore.Hbond>
3.0000

> <Gold.PLP.Chemscore.CHOScore>
0.0000

> <Gold.PLP.Chemscore.Metal>
0.0000

> <Gold.Chemscore.Hbonds>
donor molecule, donor type, donor heavy atom, donor atom, acceptor molecule, acceptor atom, score
      L1  H    12    46       P1 10175  2.00
      P1  H  7997  8009       L1    21  0.95

> <Gold.PLP.Chemscore.Internal.Correction>
0.4929

> <Gold.Rescore>
     Score         DG    S(hbond)    S(metal)    S(lipo)     H(rot)  DE(clash)    DE(int)     intcor
     11.49     -13.14       1.02        0.00      75.25       1.77       0.78       0.88       ----

> <Gold.Chemscore.Fitness>
11.4872

> <Gold.Chemscore.DG>
-13.1419

> <Gold.Chemscore.ZeroCoef>
-5.4800

> <Gold.Chemscore.Hbond>
1.0162

> <Gold.Chemscore.Metal>
0.0000

> <Gold.Chemscore.Lipo>
75.2478

> <Gold.Chemscore.Internal_Hbond>
0.0000

> <Gold.Chemscore.DEClash>
0.7781

> <Gold.Chemscore.DEInternal>
0.8766

> <Gold.Chemscore.Rot>
1.7719

> <Gold.Chemscore.Internal.Correction>
   9.000000E+99

> <Gold.Chemscore.Hbonds>
donor molecule, donor type, donor heavy atom, donor atom, acceptor molecule, acceptor atom, score
      L1  H    12    46       P1 10175  0.60
      P1  H  7997  8009       L1    21  0.05

> <Gold.Chemscore.Hbond.Weighted>
-3.3940

> <Gold.Chemscore.Metal.Weighted>
-0.0000

> <Gold.Chemscore.Lipo.Weighted>
-8.8040

> <Gold.Chemscore.Internal_Hbond.Weighted>
0.0000

> <Gold.Chemscore.DEClash.Weighted>
0.7781

> <Gold.Chemscore.DEInternal.Weighted>
0.8766

> <Gold.Chemscore.Rot.Weighted>
4.5361

> <Gold.Chemscore.Internal.Correction.Weighted>
   9.000000E+99

> <Gold.Protein.RotatedTorsions>
[ 6907 6896 6895 6894 ] final -159.62 input  -60.11 | X-H torsion
[ 7974 7965 7964 7962 ] final   34.55 input  175.53 | X-H torsion
[ 8008 7997 7996 7995 ] final -176.29 input   59.86 | X-H torsion
[ 10167 10162 10161 10158 ] final  -61.95 input  -65.29 | X-H torsion
[ 10718 10713 10712 10709 ] final    6.53 input   66.30 | X-H torsion
[ 10763 10752 10751 10750 ] final -160.06 input  -60.55 | X-H torsion
[ 11005 11000 10999 10996 ] final  -59.44 input  -57.11 | X-H torsion

> <Gold.Protein.ActiveResidues>
 VAL166  LYS551  ARG553  GLY616  TRP617  ASP618  TYR619  PRO620  LYS621  CYS622 
 ASP623  PHE694  ASN695  SER759  ASP760  ASP761  ALA762  ILE779  LEU786  VAL792 
 PHE793  MET794  SER795  GLU796  ALA797  LYS798  CYS799  TRP800  GLU811  SER814 

> <Gold.Protein.RotatedAtoms>
  151.3364  133.3980  159.2666 H   0  0  0  0  0  0  0  0  0  0  0  0  # atno 6907 bound_to 6896
  150.9913  134.9248  159.7912 H   0  0  0  0  0  0  0  0  0  0  0  0  # atno 6908 bound_to 6896
  152.5248  134.3329  159.9242 H   0  0  0  0  0  0  0  0  0  0  0  0  # atno 6909 bound_to 6896
  146.1345  139.6254  142.9204 H   0  0  0  0  0  0  0  0  0  0  0  0  # atno 7974 bound_to 7965
  155.9930  140.1205  157.0620 H   0  0  0  0  0  0  0  0  0  0  0  0  # atno 8008 bound_to 7997
  154.4218  140.1122  156.5661 H   0  0  0  0  0  0  0  0  0  0  0  0  # atno 8009 bound_to 7997
  155.6316  140.3473  155.4687 H   0  0  0  0  0  0  0  0  0  0  0  0  # atno 8010 bound_to 7997
  140.5972  143.2353  151.6010 H   0  0  0  0  0  0  0  0  0  0  0  0  # atno 10167 bound_to 10162
  156.9236  130.5800  149.5648 H   0  0  0  0  0  0  0  0  0  0  0  0  # atno 10718 bound_to 10713
  154.7423  135.3071  154.8707 H   0  0  0  0  0  0  0  0  0  0  0  0  # atno 10763 bound_to 10752
  153.9518  135.6763  153.4748 H   0  0  0  0  0  0  0  0  0  0  0  0  # atno 10764 bound_to 10752
  153.1021  135.4907  154.8810 H   0  0  0  0  0  0  0  0  0  0  0  0  # atno 10765 bound_to 10752
  141.1248  133.6616  156.5072 H   0  0  0  0  0  0  0  0  0  0  0  0  # atno 11005 bound_to 11000
  145.5187  141.0433  143.2447 LP  0  0  0  0  0  0  0  0  0  0  0  0  # atno 17320 bound_to 7965
  144.7725  139.6703  143.7189 LP  0  0  0  0  0  0  0  0  0  0  0  0  # atno 17321 bound_to 7965
  139.5266  144.3041  152.1048 LP  0  0  0  0  0  0  0  0  0  0  0  0  # atno 17342 bound_to 10162
  140.2215  144.4461  150.6340 LP  0  0  0  0  0  0  0  0  0  0  0  0  # atno 17343 bound_to 10162
  156.0479  130.5553  150.8924 LP  0  0  0  0  0  0  0  0  0  0  0  0  # atno 17370 bound_to 10713
  157.5892  131.0945  150.9146 LP  0  0  0  0  0  0  0  0  0  0  0  0  # atno 17371 bound_to 10713
  140.4398  134.7026  157.4986 LP  0  0  0  0  0  0  0  0  0  0  0  0  # atno 17394 bound_to 11000
  140.0237  134.6509  155.9203 LP  0  0  0  0  0  0  0  0  0  0  0  0  # atno 17395 bound_to 11000

$$$$
