AV-unprocessed.smi:1258|AV-procd|sdf|5288|dock4
  -GOLD-   22720 4403D 1   1.00000     0.00000
 Structure written by MMmdl.
 33 34  0  0  0  0  0  0  0  0  1 V2000
  152.9300  142.4669  161.4401 C   0  0  0  0  0  0  0  0  0  0  0  0
  152.0421  143.1357  160.3810 C   0  0  1  0  0  0  0  0  0  0  0  0
  152.5198  144.5663  160.0672 C   0  0  0  0  0  0  0  0  0  0  0  0
  151.6333  145.2359  159.0054 C   0  0  0  0  0  0  0  0  0  0  0  0
  151.5654  144.3919  157.7235 C   0  0  0  0  0  0  0  0  0  0  0  0
  151.0830  142.9606  158.0209 C   0  0  1  0  0  0  0  0  0  0  0  0
  151.0868  142.1791  156.7884 N   0  0  0  0  0  0  0  0  0  0  0  0
  150.6226  140.9261  156.6607 C   0  0  0  0  0  0  0  0  0  0  0  0
  150.1472  140.2780  157.5927 O   0  0  0  0  0  0  0  0  0  0  0  0
  150.7053  140.3076  155.2655 C   0  0  0  0  0  0  0  0  0  0  0  0
  151.4479  139.0621  155.2940 N   0  0  0  0  0  0  0  0  0  0  0  0
  151.0958  137.8233  154.9436 C   0  0  0  0  0  0  0  0  0  0  0  0
  152.0893  136.9654  155.1189 N   0  0  0  0  0  0  0  0  0  0  0  0
  153.1097  137.7614  155.6123 N   0  0  0  0  0  0  0  0  0  0  0  0
  152.7353  139.0068  155.7179 N   0  0  0  0  0  0  0  0  0  0  0  0
  151.9719  142.2943  159.0916 C   0  0  0  0  0  0  0  0  0  0  0  0
  153.9584  142.3695  161.0913 H   0  0  0  0  0  0  0  0  0  0  0  0
  152.5656  141.4690  161.6849 H   0  0  0  0  0  0  0  0  0  0  0  0
  152.9449  143.0472  162.3632 H   0  0  0  0  0  0  0  0  0  0  0  0
  151.0340  143.2012  160.7930 H   0  0  0  0  0  0  0  0  0  0  0  0
  152.5177  145.1687  160.9763 H   0  0  0  0  0  0  0  0  0  0  0  0
  153.5522  144.5426  159.7155 H   0  0  0  0  0  0  0  0  0  0  0  0
  150.6278  145.3764  159.4039 H   0  0  0  0  0  0  0  0  0  0  0  0
  152.0162  146.2306  158.7752 H   0  0  0  0  0  0  0  0  0  0  0  0
  150.8989  144.8698  157.0044 H   0  0  0  0  0  0  0  0  0  0  0  0
  152.5521  144.3621  157.2585 H   0  0  0  0  0  0  0  0  0  0  0  0
  150.0606  143.0205  158.3991 H   0  0  0  0  0  0  0  0  0  0  0  0
  151.4591  142.6316  155.9657 H   0  0  0  0  0  0  0  0  0  0  0  0
  149.7034  140.1272  154.8723 H   0  0  0  0  0  0  0  0  0  0  0  0
  151.2024  140.9956  154.5805 H   0  0  0  0  0  0  0  0  0  0  0  0
  150.1223  137.5545  154.5608 H   0  0  0  0  0  0  0  0  0  0  0  0
  152.9781  142.1501  158.6947 H   0  0  0  0  0  0  0  0  0  0  0  0
  151.5881  141.3002  159.3253 H   0  0  0  0  0  0  0  0  0  0  0  0
  1  2  1  0  0  0  0
  1 17  1  0  0  0  0
  1 18  1  0  0  0  0
  1 19  1  0  0  0  0
  2 16  1  0  0  0  0
  2  3  1  0  0  0  0
  2 20  1  0  0  0  0
  3  4  1  0  0  0  0
  3 21  1  0  0  0  0
  3 22  1  0  0  0  0
  4  5  1  0  0  0  0
  4 23  1  0  0  0  0
  4 24  1  0  0  0  0
  5  6  1  0  0  0  0
  5 25  1  0  0  0  0
  5 26  1  0  0  0  0
  6  7  1  0  0  0  0
  6 16  1  0  0  0  0
  6 27  1  0  0  0  0
  7  8  1  0  0  0  0
  7 28  1  0  0  0  0
  8  9  2  0  0  0  0
  8 10  1  0  0  0  0
 10 11  1  0  0  0  0
 10 29  1  0  0  0  0
 10 30  1  0  0  0  0
 11 15  1  0  0  0  0
 11 12  1  0  0  0  0
 12 13  2  0  0  0  0
 12 31  1  0  0  0  0
 13 14  1  0  0  0  0
 14 15  2  0  0  0  0
 16 32  1  0  0  0  0
 16 33  1  0  0  0  0
M  END
> <s_m_source_file>
AV-unprocessed.smi

> <i_m_source_file_index>
1258

> <i_lp_mmshare_version>
43012

> <i_f3d_flags>
0

> <s_epik_input>
W0NIM11bQ0BASF0xW0NIMl1bQ0gyXVtDSDJdW0NASF0oW0NIMl0xKVtOSF1DKD1PKVtDSDJdbjJbY0hdbm5uMg==

> <s_epik_cmdline>
J2VwaWtfcHl0aG9uJywgJy1waCcsICc3LjAnLCAnLXRuJywgJzgnLCAnLW1hJywgJzIwMCcsICctbWV0YWxfYmluZGluZycsICctaW1hZScsICc8aW5maWxlLm1hZT4nLCAnLW9tYWUnLCAnPG91dGZpbGUubWFlPic=

> <r_lp_tautomer_probability>
1

> <r_epik_Ionization_Penalty>
5.03816e-07

> <r_epik_Ionization_Penalty_Charging>
0

> <r_epik_Ionization_Penalty_Neutral>
5.03816e-07

> <r_epik_State_Penalty>
-0

> <r_epik_Charging_Adjusted_Penalty>
0

> <i_epik_Tot_Q>
0

> <i_epik_Tot_abs_Q>
0

> <r_epik_Metal_State_Penalty>
-0

> <b_epik_Metal_Only>
0

> <s_lp_Force_Field>
OPLS_2005

> <r_lp_Energy>
10.5543

> <b_lp_Chiralities_Consistent>
1

> <s_lp_Variant>
AV-unprocessed.smi:1258-2

> <Gold.Version>
5.8.1

> <Gold.Id.Protein>
6NUR|6NUR_protein|mol2

> <Gold.PLP.Fitness>
42.5336

> <Gold.PLP.PLP>
-36.9110

> <Gold.PLP.part.hbond>
-3.0000

> <Gold.PLP.part.metal>
0.0000

> <Gold.PLP.part.buried>
-3.9465

> <Gold.PLP.part.nonpolar>
-30.4936

> <Gold.PLP.part.repulsive>
0.1569

> <Gold.PLP.ligand.clash>
0.0000

> <Gold.PLP.ligand.torsion>
0.0352

> <Gold.PLP.Chemscore.Hbond>
1.8960

> <Gold.PLP.Chemscore.CHOScore>
0.0000

> <Gold.PLP.Chemscore.Metal>
0.0000

> <Gold.Chemscore.Hbonds>
donor molecule, donor type, donor heavy atom, donor atom, acceptor molecule, acceptor atom, score
      P1  H  7997  8010       L1    15  1.00
      P1  H 10752 10765       L1    13  0.96

> <Gold.PLP.Chemscore.Internal.Correction>
0.0050

> <Gold.Rescore>
     Score         DG    S(hbond)    S(metal)    S(lipo)     H(rot)  DE(clash)    DE(int)     intcor
     16.04     -16.24       1.61        0.00      88.06       1.92       0.15       0.06       ----

> <Gold.Chemscore.Fitness>
16.0353

> <Gold.Chemscore.DG>
-16.2439

> <Gold.Chemscore.ZeroCoef>
-5.4800

> <Gold.Chemscore.Hbond>
1.6071

> <Gold.Chemscore.Metal>
0.0000

> <Gold.Chemscore.Lipo>
88.0641

> <Gold.Chemscore.Internal_Hbond>
0.0000

> <Gold.Chemscore.DEClash>
0.1501

> <Gold.Chemscore.DEInternal>
0.0584

> <Gold.Chemscore.Rot>
1.9169

> <Gold.Chemscore.Internal.Correction>
   9.000000E+99

> <Gold.Chemscore.Hbonds>
donor molecule, donor type, donor heavy atom, donor atom, acceptor molecule, acceptor atom, score
      P1  H  7997  8010       L1    15  0.61
      P1  H 10752 10765       L1    13  0.24

> <Gold.Chemscore.Hbond.Weighted>
-5.3676

> <Gold.Chemscore.Metal.Weighted>
-0.0000

> <Gold.Chemscore.Lipo.Weighted>
-10.3035

> <Gold.Chemscore.Internal_Hbond.Weighted>
0.0000

> <Gold.Chemscore.DEClash.Weighted>
0.1501

> <Gold.Chemscore.DEInternal.Weighted>
0.0584

> <Gold.Chemscore.Rot.Weighted>
4.9073

> <Gold.Chemscore.Internal.Correction.Weighted>
   9.000000E+99

> <Gold.Protein.RotatedTorsions>
[ 6907 6896 6895 6894 ] final  -76.19 input  -60.11 | X-H torsion
[ 7974 7965 7964 7962 ] final  126.08 input  175.53 | X-H torsion
[ 8008 7997 7996 7995 ] final   83.00 input   59.86 | X-H torsion
[ 10167 10162 10161 10158 ] final   25.79 input  -65.29 | X-H torsion
[ 10718 10713 10712 10709 ] final  102.78 input   66.30 | X-H torsion
[ 10763 10752 10751 10750 ] final -175.68 input  -60.55 | X-H torsion
[ 11005 11000 10999 10996 ] final  -71.52 input  -57.11 | X-H torsion

> <Gold.Protein.ActiveResidues>
 VAL166  LYS551  ARG553  GLY616  TRP617  ASP618  TYR619  PRO620  LYS621  CYS622 
 ASP623  PHE694  ASN695  SER759  ASP760  ASP761  ALA762  ILE779  LEU786  VAL792 
 PHE793  MET794  SER795  GLU796  ALA797  LYS798  CYS799  TRP800  GLU811  SER814 

> <Gold.Protein.RotatedAtoms>
  150.7035  134.4608  159.5379 H   0  0  0  0  0  0  0  0  0  0  0  0  # atno 6907 bound_to 6896
  152.2283  134.8344  160.0486 H   0  0  0  0  0  0  0  0  0  0  0  0  # atno 6908 bound_to 6896
  151.9169  133.3540  159.3920 H   0  0  0  0  0  0  0  0  0  0  0  0  # atno 6909 bound_to 6896
  145.0658  139.3769  143.4983 H   0  0  0  0  0  0  0  0  0  0  0  0  # atno 7974 bound_to 7965
  155.9181  140.3423  155.6151 H   0  0  0  0  0  0  0  0  0  0  0  0  # atno 8008 bound_to 7997
  155.7307  140.0795  157.2309 H   0  0  0  0  0  0  0  0  0  0  0  0  # atno 8009 bound_to 7997
  154.4065  140.1588  156.2492 H   0  0  0  0  0  0  0  0  0  0  0  0  # atno 8010 bound_to 7997
  140.5077  144.0212  150.6359 H   0  0  0  0  0  0  0  0  0  0  0  0  # atno 10167 bound_to 10162
  157.6792  131.0762  150.5456 H   0  0  0  0  0  0  0  0  0  0  0  0  # atno 10718 bound_to 10713
  154.5814  135.2836  155.0728 H   0  0  0  0  0  0  0  0  0  0  0  0  # atno 10763 bound_to 10752
  154.2063  135.6415  153.5105 H   0  0  0  0  0  0  0  0  0  0  0  0  # atno 10764 bound_to 10752
  153.0089  135.5481  154.6470 H   0  0  0  0  0  0  0  0  0  0  0  0  # atno 10765 bound_to 10752
  141.1593  133.6820  156.6919 H   0  0  0  0  0  0  0  0  0  0  0  0  # atno 11005 bound_to 11000
  146.3526  140.0378  142.8645 LP  0  0  0  0  0  0  0  0  0  0  0  0  # atno 17320 bound_to 7965
  145.1353  140.9541  143.4520 LP  0  0  0  0  0  0  0  0  0  0  0  0  # atno 17321 bound_to 7965
  140.3526  143.2954  152.0471 LP  0  0  0  0  0  0  0  0  0  0  0  0  # atno 17342 bound_to 10162
  139.4888  144.6363  151.6969 LP  0  0  0  0  0  0  0  0  0  0  0  0  # atno 17343 bound_to 10162
  156.5761  130.4292  149.5997 LP  0  0  0  0  0  0  0  0  0  0  0  0  # atno 17370 bound_to 10713
  156.2700  130.7011  151.1806 LP  0  0  0  0  0  0  0  0  0  0  0  0  # atno 17371 bound_to 10713
  140.3024  134.8153  157.4109 LP  0  0  0  0  0  0  0  0  0  0  0  0  # atno 17394 bound_to 11000
  140.1250  134.5170  155.8152 LP  0  0  0  0  0  0  0  0  0  0  0  0  # atno 17395 bound_to 11000

$$$$
