AV-unprocessed.smi:3030|AV-procd|sdf|11535|dock6
  -GOLD-   2272016483D 1   1.00000     0.00000
 Structure written by MMmdl.
 52 53  0  0  0  0  0  0  0  0  1 V2000
  145.6775  143.4951  153.8284 C   0  0  0  0  0  0  0  0  0  0  0  0
  145.6176  142.2239  154.6827 C   0  0  0  0  0  0  0  0  0  0  0  0
  146.8031  141.3985  154.5040 N   0  0  0  0  0  0  0  0  0  0  0  0
  148.0783  141.9049  154.7340 C   0  0  0  0  0  0  0  0  0  0  0  0
  149.2095  141.1825  154.6196 C   0  0  0  0  0  0  0  0  0  0  0  0
  149.1234  139.7596  154.2320 C   0  0  0  0  0  0  0  0  0  0  0  0
  150.1370  139.0728  154.1052 O   0  0  0  0  0  0  0  0  0  0  0  0
  147.7592  139.2135  154.0075 C   0  0  0  0  0  0  0  0  0  0  0  0
  147.6788  137.8638  153.6307 N   0  0  0  0  0  0  0  0  0  0  0  0
  146.6525  137.0066  153.7765 C   0  0  0  0  0  0  0  0  0  0  0  0
  145.5870  137.2517  154.3417 O   0  0  0  0  0  0  0  0  0  0  0  0
  146.9443  135.8193  153.2253 N   0  0  0  0  0  0  0  0  0  0  0  0
  146.0838  134.6362  153.2117 C   0  0  2  0  0  0  0  0  0  0  0  0
  146.8645  133.4751  153.8604 C   0  0  0  0  0  0  0  0  0  0  0  0
  146.0767  132.1541  153.8400 C   0  0  2  0  0  0  0  0  0  0  0  0
  146.8729  131.0137  154.4898 C   0  0  0  0  0  0  0  0  0  0  0  0
  145.6731  131.8062  152.3986 C   0  0  0  0  0  0  0  0  0  0  0  0
  144.8624  132.9419  151.7588 C   0  0  0  0  0  0  0  0  0  0  0  0
  145.6349  134.2831  151.7645 C   0  0  1  0  0  0  0  0  0  0  0  0
  144.8689  135.4294  151.0375 C   0  0  0  0  0  0  0  0  0  0  0  0
  145.7697  136.5842  150.5606 C   0  0  0  0  0  0  0  0  0  0  0  0
  143.6926  135.9685  151.8695 C   0  0  0  0  0  0  0  0  0  0  0  0
  146.7036  140.0543  154.1505 C   0  0  0  0  0  0  0  0  0  0  0  0
  144.7824  144.1005  153.9716 H   0  0  0  0  0  0  0  0  0  0  0  0
  145.7508  143.2537  152.7675 H   0  0  0  0  0  0  0  0  0  0  0  0
  146.5396  144.1078  154.0936 H   0  0  0  0  0  0  0  0  0  0  0  0
  145.5147  142.4902  155.7352 H   0  0  0  0  0  0  0  0  0  0  0  0
  144.7293  141.6458  154.4255 H   0  0  0  0  0  0  0  0  0  0  0  0
  148.0993  142.9487  155.0121 H   0  0  0  0  0  0  0  0  0  0  0  0
  150.1795  141.6200  154.8051 H   0  0  0  0  0  0  0  0  0  0  0  0
  148.5207  137.4934  153.2142 H   0  0  0  0  0  0  0  0  0  0  0  0
  147.8463  135.7196  152.7829 H   0  0  0  0  0  0  0  0  0  0  0  0
  145.1968  134.8087  153.8228 H   0  0  0  0  0  0  0  0  0  0  0  0
  147.8140  133.3367  153.3404 H   0  0  0  0  0  0  0  0  0  0  0  0
  147.1148  133.7343  154.8902 H   0  0  0  0  0  0  0  0  0  0  0  0
  145.1652  132.2938  154.4233 H   0  0  0  0  0  0  0  0  0  0  0  0
  147.8056  130.8271  153.9565 H   0  0  0  0  0  0  0  0  0  0  0  0
  146.2999  130.0859  154.4926 H   0  0  0  0  0  0  0  0  0  0  0  0
  147.1224  131.2486  155.5248 H   0  0  0  0  0  0  0  0  0  0  0  0
  146.5633  131.6089  151.7999 H   0  0  0  0  0  0  0  0  0  0  0  0
  145.0847  130.8882  152.3879 H   0  0  0  0  0  0  0  0  0  0  0  0
  144.6029  132.6523  150.7413 H   0  0  0  0  0  0  0  0  0  0  0  0
  143.9214  133.0472  152.2991 H   0  0  0  0  0  0  0  0  0  0  0  0
  146.5503  134.1167  151.1936 H   0  0  0  0  0  0  0  0  0  0  0  0
  144.4096  135.0051  150.1453 H   0  0  0  0  0  0  0  0  0  0  0  0
  146.2213  137.1185  151.3961 H   0  0  0  0  0  0  0  0  0  0  0  0
  145.1942  137.3108  149.9863 H   0  0  0  0  0  0  0  0  0  0  0  0
  146.5730  136.2327  149.9147 H   0  0  0  0  0  0  0  0  0  0  0  0
  144.0314  136.5033  152.7565 H   0  0  0  0  0  0  0  0  0  0  0  0
  143.0351  135.1614  152.1936 H   0  0  0  0  0  0  0  0  0  0  0  0
  143.0898  136.6630  151.2837 H   0  0  0  0  0  0  0  0  0  0  0  0
  145.6845  139.7475  153.9739 H   0  0  0  0  0  0  0  0  0  0  0  0
  1  2  1  0  0  0  0
  1 24  1  0  0  0  0
  1 25  1  0  0  0  0
  1 26  1  0  0  0  0
  2  3  1  0  0  0  0
  2 27  1  0  0  0  0
  2 28  1  0  0  0  0
  3 23  1  0  0  0  0
  3  4  1  0  0  0  0
  4  5  2  0  0  0  0
  4 29  1  0  0  0  0
  5  6  1  0  0  0  0
  5 30  1  0  0  0  0
  6  7  2  0  0  0  0
  6  8  1  0  0  0  0
  8  9  1  0  0  0  0
  8 23  2  0  0  0  0
  9 10  1  0  0  0  0
  9 31  1  0  0  0  0
 10 11  2  0  0  0  0
 10 12  1  0  0  0  0
 12 13  1  0  0  0  0
 12 32  1  0  0  0  0
 13 19  1  0  0  0  0
 13 14  1  0  0  0  0
 13 33  1  0  0  0  0
 14 15  1  0  0  0  0
 14 34  1  0  0  0  0
 14 35  1  0  0  0  0
 15 16  1  0  0  0  0
 15 17  1  0  0  0  0
 15 36  1  0  0  0  0
 16 37  1  0  0  0  0
 16 38  1  0  0  0  0
 16 39  1  0  0  0  0
 17 18  1  0  0  0  0
 17 40  1  0  0  0  0
 17 41  1  0  0  0  0
 18 19  1  0  0  0  0
 18 42  1  0  0  0  0
 18 43  1  0  0  0  0
 19 20  1  0  0  0  0
 19 44  1  0  0  0  0
 20 21  1  0  0  0  0
 20 22  1  0  0  0  0
 20 45  1  0  0  0  0
 21 46  1  0  0  0  0
 21 47  1  0  0  0  0
 21 48  1  0  0  0  0
 22 49  1  0  0  0  0
 22 50  1  0  0  0  0
 22 51  1  0  0  0  0
 23 52  1  0  0  0  0
M  END
> <s_m_source_file>
AV-unprocessed.smi

> <i_m_source_file_index>
3030

> <i_lp_mmshare_version>
43012

> <i_f3d_flags>
0

> <s_epik_input>
W0NIM11bQ0gyXW4xW2NIXVtjSF1jKD1PKWMoW2NIXTEpW05IXUMoPU8pW05IXVtDQEBIXTJbQ0gyXVtDQEBIXShbQ0gzXSlbQ0gyXVtDSDJdW0NASF0yW0NIXShbQ0gzXSlbQ0gzXQ==

> <s_epik_cmdline>
J2VwaWtfcHl0aG9uJywgJy1waCcsICc3LjAnLCAnLXRuJywgJzgnLCAnLW1hJywgJzIwMCcsICctbWV0YWxfYmluZGluZycsICctaW1hZScsICc8aW5maWxlLm1hZT4nLCAnLW9tYWUnLCAnPG91dGZpbGUubWFlPic=

> <r_lp_tautomer_probability>
1

> <r_epik_Ionization_Penalty>
0.00147933

> <r_epik_Ionization_Penalty_Charging>
0.00145753

> <r_epik_Ionization_Penalty_Neutral>
2.17987e-05

> <r_epik_State_Penalty>
0.00097457

> <r_epik_Charging_Adjusted_Penalty>
0.0024321

> <i_epik_Tot_Q>
0

> <i_epik_Tot_abs_Q>
0

> <r_epik_Metal_State_Penalty>
-0

> <b_epik_Metal_Only>
0

> <s_lp_Force_Field>
OPLS_2005

> <r_lp_Energy>
10.2365

> <b_lp_Chiralities_Consistent>
1

> <s_lp_Variant>
AV-unprocessed.smi:3030-3

> <Gold.Version>
5.8.1

> <Gold.Id.Protein>
6NUR|6NUR_protein|mol2

> <Gold.PLP.Fitness>
44.6353

> <Gold.PLP.PLP>
-33.7505

> <Gold.PLP.part.hbond>
-1.8514

> <Gold.PLP.part.metal>
0.0000

> <Gold.PLP.part.buried>
-0.5460

> <Gold.PLP.part.nonpolar>
-33.6711

> <Gold.PLP.part.repulsive>
0.8899

> <Gold.PLP.ligand.clash>
0.0000

> <Gold.PLP.ligand.torsion>
0.4050

> <Gold.PLP.Chemscore.Hbond>
1.8795

> <Gold.PLP.Chemscore.CHOScore>
1.9896

> <Gold.PLP.Chemscore.Metal>
0.0000

> <Gold.Chemscore.Hbonds>
donor molecule, donor type, donor heavy atom, donor atom, acceptor molecule, acceptor atom, score
      L1  H     9    31       P1  7948  0.75
      L1  H    12    32       P1  7948  0.96
      P1  H  7989  7998       L1     7  0.06
      L1  C     4    29       P1  8028  0.96
      L1  C    23    52       P1 10175  0.81

> <Gold.PLP.Chemscore.Internal.Correction>
0.0872

> <Gold.Rescore>
     Score         DG    S(hbond)    S(metal)    S(lipo)     H(rot)  DE(clash)    DE(int)     intcor
     16.12     -17.69       1.69        0.00      83.81       1.27       0.83       0.74       ----

> <Gold.Chemscore.Fitness>
16.1188

> <Gold.Chemscore.DG>
-17.6934

> <Gold.Chemscore.ZeroCoef>
-5.4800

> <Gold.Chemscore.Hbond>
1.6931

> <Gold.Chemscore.Metal>
0.0000

> <Gold.Chemscore.Lipo>
83.8109

> <Gold.Chemscore.Internal_Hbond>
0.0000

> <Gold.Chemscore.DEClash>
0.8334

> <Gold.Chemscore.DEInternal>
0.7411

> <Gold.Chemscore.Rot>
1.2685

> <Gold.Chemscore.Internal.Correction>
   9.000000E+99

> <Gold.Chemscore.Hbonds>
donor molecule, donor type, donor heavy atom, donor atom, acceptor molecule, acceptor atom, score
      L1  H     9    31       P1  7948  0.76
      L1  H    12    32       P1  7948  0.88
      P1  H  7989  7998       L1     7  0.02

> <Gold.Chemscore.Hbond.Weighted>
-5.6550

> <Gold.Chemscore.Metal.Weighted>
-0.0000

> <Gold.Chemscore.Lipo.Weighted>
-9.8059

> <Gold.Chemscore.Internal_Hbond.Weighted>
0.0000

> <Gold.Chemscore.DEClash.Weighted>
0.8334

> <Gold.Chemscore.DEInternal.Weighted>
0.7411

> <Gold.Chemscore.Rot.Weighted>
3.2474

> <Gold.Chemscore.Internal.Correction.Weighted>
   9.000000E+99

> <Gold.Protein.RotatedTorsions>
[ 6907 6896 6895 6894 ] final    8.73 input  -60.11 | X-H torsion
[ 7974 7965 7964 7962 ] final  -49.38 input  175.53 | X-H torsion
[ 8008 7997 7996 7995 ] final   -4.57 input   59.86 | X-H torsion
[ 10167 10162 10161 10158 ] final  164.91 input  -65.29 | X-H torsion
[ 10718 10713 10712 10709 ] final  -14.33 input   66.30 | X-H torsion
[ 10763 10752 10751 10750 ] final  -65.80 input  -60.55 | X-H torsion
[ 11005 11000 10999 10996 ] final  -81.40 input  -57.11 | X-H torsion

> <Gold.Protein.ActiveResidues>
 VAL166  LYS551  ARG553  GLY616  TRP617  ASP618  TYR619  PRO620  LYS621  CYS622 
 ASP623  PHE694  ASN695  SER759  ASP760  ASP761  ALA762  ILE779  LEU786  VAL792 
 PHE793  MET794  SER795  GLU796  ALA797  LYS798  CYS799  TRP800  GLU811  SER814 

> <Gold.Protein.RotatedAtoms>
  151.7107  135.0913  160.0266 H   0  0  0  0  0  0  0  0  0  0  0  0  # atno 6907 bound_to 6896
  152.3663  133.6357  159.6062 H   0  0  0  0  0  0  0  0  0  0  0  0  # atno 6908 bound_to 6896
  150.7640  133.9258  159.3453 H   0  0  0  0  0  0  0  0  0  0  0  0  # atno 6909 bound_to 6896
  145.9412  140.7660  142.9551 H   0  0  0  0  0  0  0  0  0  0  0  0  # atno 7974 bound_to 7965
  154.6129  140.2480  155.7646 H   0  0  0  0  0  0  0  0  0  0  0  0  # atno 8008 bound_to 7997
  156.2381  140.2942  156.0319 H   0  0  0  0  0  0  0  0  0  0  0  0  # atno 8009 bound_to 7997
  155.2022  140.0394  157.2910 H   0  0  0  0  0  0  0  0  0  0  0  0  # atno 8010 bound_to 7997
  139.4897  144.4186  151.9213 H   0  0  0  0  0  0  0  0  0  0  0  0  # atno 10167 bound_to 10162
  156.6175  130.4866  149.6177 H   0  0  0  0  0  0  0  0  0  0  0  0  # atno 10718 bound_to 10713
  154.3503  135.6138  153.5640 H   0  0  0  0  0  0  0  0  0  0  0  0  # atno 10763 bound_to 10752
  152.9798  135.5791  154.4750 H   0  0  0  0  0  0  0  0  0  0  0  0  # atno 10764 bound_to 10752
  154.4470  135.2852  155.1785 H   0  0  0  0  0  0  0  0  0  0  0  0  # atno 10765 bound_to 10752
  141.1666  133.7195  156.8417 H   0  0  0  0  0  0  0  0  0  0  0  0  # atno 11005 bound_to 11000
  144.6779  140.2283  143.7358 LP  0  0  0  0  0  0  0  0  0  0  0  0  # atno 17320 bound_to 7965
  145.8297  139.2080  143.1890 LP  0  0  0  0  0  0  0  0  0  0  0  0  # atno 17321 bound_to 7965
  140.3630  144.2950  150.5930 LP  0  0  0  0  0  0  0  0  0  0  0  0  # atno 17342 bound_to 10162
  140.5386  143.2228  151.8122 LP  0  0  0  0  0  0  0  0  0  0  0  0  # atno 17343 bound_to 10162
  156.2339  130.6811  151.1490 LP  0  0  0  0  0  0  0  0  0  0  0  0  # atno 17370 bound_to 10713
  157.7237  131.0664  150.6026 LP  0  0  0  0  0  0  0  0  0  0  0  0  # atno 17371 bound_to 10713
  140.1979  134.8918  157.3135 LP  0  0  0  0  0  0  0  0  0  0  0  0  # atno 17394 bound_to 11000
  140.2219  134.4013  155.7561 LP  0  0  0  0  0  0  0  0  0  0  0  0  # atno 17395 bound_to 11000

$$$$
