AV-unprocessed.smi:2445|AV-procd|sdf|9635|dock1
  -GOLD-   2272013273D 1   1.00000     0.00000
 Structure written by MMmdl.
 40 41  0  0  0  0  0  0  0  0  1 V2000
  143.4692  145.0639  154.6902 C   0  0  0  0  0  0  0  0  0  0  0  0
  144.5389  144.0383  154.8543 C   0  0  0  0  0  0  0  0  0  0  0  0
  144.9044  143.3811  156.0030 C   0  0  0  0  0  0  0  0  0  0  0  0
  145.9494  142.4720  155.8248 N   0  0  0  0  0  0  0  0  0  0  0  0
  146.3789  142.4287  154.5604 C   0  0  0  0  0  0  0  0  0  0  0  0
  147.5008  141.5532  154.0901 C   0  0  2  0  0  0  0  0  0  0  0  0
  147.0046  140.4034  153.2021 C   0  0  0  0  0  0  0  0  0  0  0  0
  148.4220  141.0747  155.2347 C   0  0  0  0  0  0  0  0  0  0  0  0
  148.9432  142.1721  156.0450 N   0  0  0  0  0  0  0  0  0  0  0  0
  149.6987  142.0292  157.1418 C   0  0  0  0  0  0  0  0  0  0  0  0
  150.0198  140.9415  157.6201 O   0  0  0  0  0  0  0  0  0  0  0  0
  150.0691  143.2155  157.6422 N   0  0  0  0  0  0  0  0  0  0  0  0
  150.9141  143.4213  158.8189 C   0  0  1  0  0  0  0  0  0  0  0  0
  152.1431  144.2551  158.4567 C   0  0  0  0  0  0  0  0  0  0  0  0
  152.1131  145.4200  159.4430 C   0  0  0  0  0  0  0  0  0  0  0  0
  150.7374  145.5599  159.7524 O   0  0  0  0  0  0  0  0  0  0  0  0
  150.2173  144.2499  159.9189 C   0  0  1  0  0  0  0  0  0  0  0  0
  148.6801  144.2752  159.9137 C   0  0  0  0  0  0  0  0  0  0  0  0
  145.5089  143.5297  153.4975 S   0  0  0  0  0  0  0  0  0  0  0  0
  142.9911  145.2892  155.6438 H   0  0  0  0  0  0  0  0  0  0  0  0
  142.7000  144.7122  154.0026 H   0  0  0  0  0  0  0  0  0  0  0  0
  143.8805  145.9915  154.2921 H   0  0  0  0  0  0  0  0  0  0  0  0
  144.4766  143.4985  156.9876 H   0  0  0  0  0  0  0  0  0  0  0  0
  148.1150  142.1807  153.4427 H   0  0  0  0  0  0  0  0  0  0  0  0
  146.4445  140.7821  152.3464 H   0  0  0  0  0  0  0  0  0  0  0  0
  146.3516  139.7284  153.7563 H   0  0  0  0  0  0  0  0  0  0  0  0
  147.8388  139.8167  152.8169 H   0  0  0  0  0  0  0  0  0  0  0  0
  147.8600  140.4226  155.9042 H   0  0  0  0  0  0  0  0  0  0  0  0
  149.2446  140.4755  154.8412 H   0  0  0  0  0  0  0  0  0  0  0  0
  148.7334  143.1081  155.7299 H   0  0  0  0  0  0  0  0  0  0  0  0
  149.7475  144.0481  157.1703 H   0  0  0  0  0  0  0  0  0  0  0  0
  151.2262  142.4656  159.2437 H   0  0  0  0  0  0  0  0  0  0  0  0
  153.0701  143.6854  158.5276 H   0  0  0  0  0  0  0  0  0  0  0  0
  152.0722  144.6394  157.4378 H   0  0  0  0  0  0  0  0  0  0  0  0
  152.6668  145.1749  160.3507 H   0  0  0  0  0  0  0  0  0  0  0  0
  152.5280  146.3374  159.0252 H   0  0  0  0  0  0  0  0  0  0  0  0
  150.5549  143.8864  160.8915 H   0  0  0  0  0  0  0  0  0  0  0  0
  148.2720  143.2681  160.0025 H   0  0  0  0  0  0  0  0  0  0  0  0
  148.2864  144.7221  159.0004 H   0  0  0  0  0  0  0  0  0  0  0  0
  148.3025  144.8606  160.7520 H   0  0  0  0  0  0  0  0  0  0  0  0
  1  2  1  0  0  0  0
  1 20  1  0  0  0  0
  1 21  1  0  0  0  0
  1 22  1  0  0  0  0
  2 19  1  0  0  0  0
  2  3  2  0  0  0  0
  3  4  1  0  0  0  0
  3 23  1  0  0  0  0
  4  5  2  0  0  0  0
  5  6  1  0  0  0  0
  5 19  1  0  0  0  0
  6  7  1  0  0  0  0
  6  8  1  0  0  0  0
  6 24  1  0  0  0  0
  7 25  1  0  0  0  0
  7 26  1  0  0  0  0
  7 27  1  0  0  0  0
  8  9  1  0  0  0  0
  8 28  1  0  0  0  0
  8 29  1  0  0  0  0
  9 10  1  0  0  0  0
  9 30  1  0  0  0  0
 10 11  2  0  0  0  0
 10 12  1  0  0  0  0
 12 13  1  0  0  0  0
 12 31  1  0  0  0  0
 13 17  1  0  0  0  0
 13 14  1  0  0  0  0
 13 32  1  0  0  0  0
 14 15  1  0  0  0  0
 14 33  1  0  0  0  0
 14 34  1  0  0  0  0
 15 16  1  0  0  0  0
 15 35  1  0  0  0  0
 15 36  1  0  0  0  0
 16 17  1  0  0  0  0
 17 18  1  0  0  0  0
 17 37  1  0  0  0  0
 18 38  1  0  0  0  0
 18 39  1  0  0  0  0
 18 40  1  0  0  0  0
M  END
> <s_m_source_file>
AV-unprocessed.smi

> <i_m_source_file_index>
2445

> <i_lp_mmshare_version>
43012

> <i_f3d_flags>
0

> <s_epik_input>
W0NIM11jMVtjSF1uYyhzMSlbQ0BIXShbQ0gzXSlbQ0gyXVtOSF1DKD1PKVtOSF1bQ0BASF0yW0NIMl1bQ0gyXU9bQ0BIXTJbQ0gzXQ==

> <s_epik_cmdline>
J2VwaWtfcHl0aG9uJywgJy1waCcsICc3LjAnLCAnLXRuJywgJzgnLCAnLW1hJywgJzIwMCcsICctbWV0YWxfYmluZGluZycsICctaW1hZScsICc8aW5maWxlLm1hZT4nLCAnLW9tYWUnLCAnPG91dGZpbGUubWFlPic=

> <r_epik_Ionization_Penalty>
0.000649483

> <r_epik_Ionization_Penalty_Charging>
0

> <r_epik_Ionization_Penalty_Neutral>
0.000649483

> <r_epik_State_Penalty>
0.000379895

> <r_epik_Charging_Adjusted_Penalty>
0.000379895

> <i_epik_Tot_Q>
0

> <i_epik_Tot_abs_Q>
0

> <r_epik_Metal_State_Penalty>
-0

> <b_epik_Metal_Only>
0

> <s_lp_Force_Field>
OPLS_2005

> <r_lp_Energy>
6.16207

> <b_lp_Chiralities_Consistent>
1

> <s_lp_Variant>
AV-unprocessed.smi:2445-3

> <Gold.Version>
5.8.1

> <Gold.Id.Protein>
6NUR|6NUR_protein|mol2

> <Gold.PLP.Fitness>
43.9757

> <Gold.PLP.PLP>
-38.8475

> <Gold.PLP.part.hbond>
-3.5748

> <Gold.PLP.part.metal>
0.0000

> <Gold.PLP.part.buried>
-5.2332

> <Gold.PLP.part.nonpolar>
-31.2000

> <Gold.PLP.part.repulsive>
0.5061

> <Gold.PLP.ligand.clash>
0.0000

> <Gold.PLP.ligand.torsion>
0.4167

> <Gold.PLP.Chemscore.Hbond>
1.9440

> <Gold.PLP.Chemscore.CHOScore>
0.0000

> <Gold.PLP.Chemscore.Metal>
0.0000

> <Gold.Chemscore.Hbonds>
donor molecule, donor type, donor heavy atom, donor atom, acceptor molecule, acceptor atom, score
      L1  H     9    30       P1  8028  1.00
      L1  H    12    31       P1  8028  0.94

> <Gold.PLP.Chemscore.Internal.Correction>
0.1296

> <Gold.Rescore>
     Score         DG    S(hbond)    S(metal)    S(lipo)     H(rot)  DE(clash)    DE(int)     intcor
     19.07     -19.55       1.88        0.00     100.01       1.53       0.05       0.44       ----

> <Gold.Chemscore.Fitness>
19.0695

> <Gold.Chemscore.DG>
-19.5514

> <Gold.Chemscore.ZeroCoef>
-5.4800

> <Gold.Chemscore.Hbond>
1.8843

> <Gold.Chemscore.Metal>
0.0000

> <Gold.Chemscore.Lipo>
100.0100

> <Gold.Chemscore.Internal_Hbond>
0.0000

> <Gold.Chemscore.DEClash>
0.0459

> <Gold.Chemscore.DEInternal>
0.4360

> <Gold.Chemscore.Rot>
1.5325

> <Gold.Chemscore.Internal.Correction>
   9.000000E+99

> <Gold.Chemscore.Hbonds>
donor molecule, donor type, donor heavy atom, donor atom, acceptor molecule, acceptor atom, score
      L1  H     9    30       P1  8028  0.98
      L1  H    12    31       P1  8028  0.64

> <Gold.Chemscore.Hbond.Weighted>
-6.2936

> <Gold.Chemscore.Metal.Weighted>
-0.0000

> <Gold.Chemscore.Lipo.Weighted>
-11.7012

> <Gold.Chemscore.Internal_Hbond.Weighted>
0.0000

> <Gold.Chemscore.DEClash.Weighted>
0.0459

> <Gold.Chemscore.DEInternal.Weighted>
0.4360

> <Gold.Chemscore.Rot.Weighted>
3.9233

> <Gold.Chemscore.Internal.Correction.Weighted>
   9.000000E+99

> <Gold.Protein.RotatedTorsions>
[ 6907 6896 6895 6894 ] final  -73.94 input  -60.11 | X-H torsion
[ 7974 7965 7964 7962 ] final  -58.87 input  175.53 | X-H torsion
[ 8008 7997 7996 7995 ] final  -24.21 input   59.86 | X-H torsion
[ 10167 10162 10161 10158 ] final  -61.39 input  -65.29 | X-H torsion
[ 10718 10713 10712 10709 ] final  -57.50 input   66.30 | X-H torsion
[ 10763 10752 10751 10750 ] final   37.82 input  -60.55 | X-H torsion
[ 11005 11000 10999 10996 ] final   32.44 input  -57.11 | X-H torsion

> <Gold.Protein.ActiveResidues>
 VAL166  LYS551  ARG553  GLY616  TRP617  ASP618  TYR619  PRO620  LYS621  CYS622 
 ASP623  PHE694  ASN695  SER759  ASP760  ASP761  ALA762  ILE779  LEU786  VAL792 
 PHE793  MET794  SER795  GLU796  ALA797  LYS798  CYS799  TRP800  GLU811  SER814 

> <Gold.Protein.RotatedAtoms>
  150.7111  134.4942  159.5530 H   0  0  0  0  0  0  0  0  0  0  0  0  # atno 6907 bound_to 6896
  152.2553  134.8087  160.0448 H   0  0  0  0  0  0  0  0  0  0  0  0  # atno 6908 bound_to 6896
  151.8820  133.3462  159.3806 H   0  0  0  0  0  0  0  0  0  0  0  0  # atno 6909 bound_to 6896
  145.8342  140.8459  143.0068 H   0  0  0  0  0  0  0  0  0  0  0  0  # atno 7974 bound_to 7965
  154.4542  140.1960  156.0429 H   0  0  0  0  0  0  0  0  0  0  0  0  # atno 8008 bound_to 7997
  156.0711  140.3284  155.7550 H   0  0  0  0  0  0  0  0  0  0  0  0  # atno 8009 bound_to 7997
  155.5261  140.0574  157.2888 H   0  0  0  0  0  0  0  0  0  0  0  0  # atno 8010 bound_to 7997
  140.6009  143.2361  151.5931 H   0  0  0  0  0  0  0  0  0  0  0  0  # atno 10167 bound_to 10162
  156.1206  130.4166  150.0449 H   0  0  0  0  0  0  0  0  0  0  0  0  # atno 10718 bound_to 10713
  153.0023  135.6267  154.2206 H   0  0  0  0  0  0  0  0  0  0  0  0  # atno 10763 bound_to 10752
  154.1949  135.2807  155.3011 H   0  0  0  0  0  0  0  0  0  0  0  0  # atno 10764 bound_to 10752
  154.5730  135.5671  153.7172 H   0  0  0  0  0  0  0  0  0  0  0  0  # atno 10765 bound_to 10752
  140.2735  134.3055  155.7821 H   0  0  0  0  0  0  0  0  0  0  0  0  # atno 11005 bound_to 11000
  144.6737  140.0717  143.7472 LP  0  0  0  0  0  0  0  0  0  0  0  0  # atno 17320 bound_to 7965
  145.9537  139.2751  143.1197 LP  0  0  0  0  0  0  0  0  0  0  0  0  # atno 17321 bound_to 7965
  139.5290  144.2972  152.1104 LP  0  0  0  0  0  0  0  0  0  0  0  0  # atno 17342 bound_to 10162
  140.2152  144.4522  150.6367 LP  0  0  0  0  0  0  0  0  0  0  0  0  # atno 17343 bound_to 10162
  156.8388  130.9418  151.3633 LP  0  0  0  0  0  0  0  0  0  0  0  0  # atno 17370 bound_to 10713
  157.6389  130.8789  149.9411 LP  0  0  0  0  0  0  0  0  0  0  0  0  # atno 17371 bound_to 10713
  141.2174  133.7481  156.9371 LP  0  0  0  0  0  0  0  0  0  0  0  0  # atno 17394 bound_to 11000
  140.1351  134.9330  157.2390 LP  0  0  0  0  0  0  0  0  0  0  0  0  # atno 17395 bound_to 11000

$$$$
