AV-unprocessed.smi:1916|AV-procd|sdf|7765|dock5
  -GOLD-   22720 9513D 1   1.00000     0.00000
 Structure written by MMmdl.
 45 47  0  0  0  0  0  0  0  0  1 V2000
  151.7220  138.6416  158.8917 O   0  0  0  0  0  0  0  0  0  0  0  0
  150.8967  138.7878  157.9894 C   0  0  0  0  0  0  0  0  0  0  0  0
  149.8994  137.9204  157.7542 N   0  0  0  0  0  0  0  0  0  0  0  0
  149.6206  136.7160  158.5333 C   0  0  0  0  0  0  0  0  0  0  0  0
  148.2588  136.7806  159.2543 C   0  0  0  0  0  0  0  0  0  0  0  0
  148.2324  136.0400  160.5809 C   0  0  0  0  0  0  0  0  0  0  0  0
  148.2923  134.6302  160.6228 C   0  0  0  0  0  0  0  0  0  0  0  0
  148.2237  133.9932  161.8768 C   0  0  0  0  0  0  0  0  0  0  0  0
  148.1040  134.7857  163.0343 C   0  0  0  0  0  0  0  0  0  0  0  0
  148.0605  136.1863  162.8862 C   0  0  0  0  0  0  0  0  0  0  0  0
  148.1256  136.8075  161.6889 N   0  0  0  0  0  0  0  0  0  0  0  0
  150.9629  140.0204  157.0738 C   0  0  1  0  0  0  0  0  0  0  0  0
  149.7383  140.9295  157.2780 C   0  0  0  0  0  0  0  0  0  0  0  0
  150.2973  142.1259  158.0296 C   0  0  0  0  0  0  0  0  0  0  0  0
  149.5757  142.9903  158.5253 O   0  0  0  0  0  0  0  0  0  0  0  0
  151.6344  142.0746  158.1008 N   0  0  0  0  0  0  0  0  0  0  0  0
  152.4685  142.9980  158.8856 C   0  0  0  0  0  0  0  0  0  0  0  0
  152.1576  143.0477  160.4010 C   0  0  0  0  0  0  0  0  0  0  0  0
  152.0713  144.5330  160.7604 C   0  0  0  0  0  0  0  0  0  0  0  0
  151.6103  145.2131  159.4749 C   0  0  0  0  0  0  0  0  0  0  0  0
  152.3261  144.4424  158.3664 C   0  0  0  0  0  0  0  0  0  0  0  0
  152.1727  140.9263  157.3804 C   0  0  0  0  0  0  0  0  0  0  0  0
  149.2707  138.1215  156.9901 H   0  0  0  0  0  0  0  0  0  0  0  0
  149.6257  135.8680  157.8484 H   0  0  0  0  0  0  0  0  0  0  0  0
  150.4203  136.5282  159.2519 H   0  0  0  0  0  0  0  0  0  0  0  0
  147.9813  137.8223  159.4205 H   0  0  0  0  0  0  0  0  0  0  0  0
  147.4852  136.3640  158.6082 H   0  0  0  0  0  0  0  0  0  0  0  0
  148.3719  134.0488  159.7161 H   0  0  0  0  0  0  0  0  0  0  0  0
  148.2569  132.9161  161.9487 H   0  0  0  0  0  0  0  0  0  0  0  0
  148.0458  134.3313  164.0123 H   0  0  0  0  0  0  0  0  0  0  0  0
  147.9699  136.8251  163.7523 H   0  0  0  0  0  0  0  0  0  0  0  0
  151.0123  139.6863  156.0358 H   0  0  0  0  0  0  0  0  0  0  0  0
  149.3298  141.2601  156.3226 H   0  0  0  0  0  0  0  0  0  0  0  0
  148.9332  140.4605  157.8457 H   0  0  0  0  0  0  0  0  0  0  0  0
  153.5125  142.6992  158.7728 H   0  0  0  0  0  0  0  0  0  0  0  0
  151.2113  142.5752  160.6563 H   0  0  0  0  0  0  0  0  0  0  0  0
  152.9252  142.5406  160.9866 H   0  0  0  0  0  0  0  0  0  0  0  0
  151.4016  144.7235  161.5995 H   0  0  0  0  0  0  0  0  0  0  0  0
  153.0605  144.9027  161.0341 H   0  0  0  0  0  0  0  0  0  0  0  0
  150.5312  145.0981  159.3644 H   0  0  0  0  0  0  0  0  0  0  0  0
  151.8364  146.2795  159.4584 H   0  0  0  0  0  0  0  0  0  0  0  0
  153.3178  144.8692  158.2106 H   0  0  0  0  0  0  0  0  0  0  0  0
  151.7946  144.5129  157.4160 H   0  0  0  0  0  0  0  0  0  0  0  0
  152.9446  140.4218  157.9643 H   0  0  0  0  0  0  0  0  0  0  0  0
  152.6287  141.2645  156.4492 H   0  0  0  0  0  0  0  0  0  0  0  0
  1  2  2  0  0  0  0
  2  3  1  0  0  0  0
  2 12  1  0  0  0  0
  3  4  1  0  0  0  0
  3 23  1  0  0  0  0
  4  5  1  0  0  0  0
  4 24  1  0  0  0  0
  4 25  1  0  0  0  0
  5  6  1  0  0  0  0
  5 26  1  0  0  0  0
  5 27  1  0  0  0  0
  6 11  1  0  0  0  0
  6  7  2  0  0  0  0
  7  8  1  0  0  0  0
  7 28  1  0  0  0  0
  8  9  2  0  0  0  0
  8 29  1  0  0  0  0
  9 10  1  0  0  0  0
  9 30  1  0  0  0  0
 10 11  2  0  0  0  0
 10 31  1  0  0  0  0
 12 22  1  0  0  0  0
 12 13  1  0  0  0  0
 12 32  1  0  0  0  0
 13 14  1  0  0  0  0
 13 33  1  0  0  0  0
 13 34  1  0  0  0  0
 14 15  2  0  0  0  0
 14 16  1  0  0  0  0
 16 17  1  0  0  0  0
 16 22  1  0  0  0  0
 17 21  1  0  0  0  0
 17 18  1  0  0  0  0
 17 35  1  0  0  0  0
 18 19  1  0  0  0  0
 18 36  1  0  0  0  0
 18 37  1  0  0  0  0
 19 20  1  0  0  0  0
 19 38  1  0  0  0  0
 19 39  1  0  0  0  0
 20 21  1  0  0  0  0
 20 40  1  0  0  0  0
 20 41  1  0  0  0  0
 21 42  1  0  0  0  0
 21 43  1  0  0  0  0
 22 44  1  0  0  0  0
 22 45  1  0  0  0  0
M  END
> <s_m_source_file>
AV-unprocessed.smi

> <i_m_source_file_index>
1916

> <i_lp_mmshare_version>
43012

> <i_f3d_flags>
0

> <s_epik_input>
W0NIMl0xW0NIMl1bQ0gyXVtDSDJdW0NIXTFOKFtDSDJdMilDKD1PKVtDSDJdW0NASF0yQyg9TylbTkhdW0NIMl1bQ0gyXWMzW2NIXVtjSF1bY0hdW2NIXW4z

> <s_epik_cmdline>
J2VwaWtfcHl0aG9uJywgJy1waCcsICc3LjAnLCAnLXRuJywgJzgnLCAnLW1hJywgJzIwMCcsICctbWV0YWxfYmluZGluZycsICctaW1hZScsICc8aW5maWxlLm1hZT4nLCAnLW9tYWUnLCAnPG91dGZpbGUubWFlPic=

> <r_epik_Ionization_Penalty>
0.0252359

> <r_epik_Ionization_Penalty_Charging>
0

> <r_epik_Ionization_Penalty_Neutral>
0.0252359

> <r_epik_State_Penalty>
0.020532

> <r_epik_Charging_Adjusted_Penalty>
0.020532

> <i_epik_Tot_Q>
0

> <i_epik_Tot_abs_Q>
0

> <r_epik_Metal_State_Penalty>
0.0196901

> <b_epik_Metal_Only>
0

> <s_lp_Force_Field>
OPLS_2005

> <r_lp_Energy>
33.9945

> <b_lp_Chiralities_Consistent>
1

> <s_lp_Variant>
AV-unprocessed.smi:1916-2

> <Gold.Version>
5.8.1

> <Gold.Id.Protein>
6NUR|6NUR_protein|mol2

> <Gold.PLP.Fitness>
55.2971

> <Gold.PLP.PLP>
-50.6264

> <Gold.PLP.part.hbond>
-2.0000

> <Gold.PLP.part.metal>
0.0000

> <Gold.PLP.part.buried>
-6.3180

> <Gold.PLP.part.nonpolar>
-41.5652

> <Gold.PLP.part.repulsive>
0.2542

> <Gold.PLP.ligand.clash>
0.0000

> <Gold.PLP.ligand.torsion>
0.3547

> <Gold.PLP.Chemscore.Hbond>
1.7600

> <Gold.PLP.Chemscore.CHOScore>
0.0000

> <Gold.PLP.Chemscore.Metal>
0.0000

> <Gold.Chemscore.Hbonds>
donor molecule, donor type, donor heavy atom, donor atom, acceptor molecule, acceptor atom, score
      P1  H  6931  6943       L1    11  1.00

> <Gold.PLP.Chemscore.Internal.Correction>
0.1000

> <Gold.Rescore>
     Score         DG    S(hbond)    S(metal)    S(lipo)     H(rot)  DE(clash)    DE(int)     intcor
     17.69     -18.16       0.94        0.00     116.88       1.61       0.00       0.46       ----

> <Gold.Chemscore.Fitness>
17.6920

> <Gold.Chemscore.DG>
-18.1552

> <Gold.Chemscore.ZeroCoef>
-5.4800

> <Gold.Chemscore.Hbond>
0.9355

> <Gold.Chemscore.Metal>
0.0000

> <Gold.Chemscore.Lipo>
116.8794

> <Gold.Chemscore.Internal_Hbond>
0.0000

> <Gold.Chemscore.DEClash>
0.0000

> <Gold.Chemscore.DEInternal>
0.4633

> <Gold.Chemscore.Rot>
1.6110

> <Gold.Chemscore.Internal.Correction>
   9.000000E+99

> <Gold.Chemscore.Hbonds>
donor molecule, donor type, donor heavy atom, donor atom, acceptor molecule, acceptor atom, score
      P1  H  6931  6943       L1    11  0.60

> <Gold.Chemscore.Hbond.Weighted>
-3.1246

> <Gold.Chemscore.Metal.Weighted>
-0.0000

> <Gold.Chemscore.Lipo.Weighted>
-13.6749

> <Gold.Chemscore.Internal_Hbond.Weighted>
0.0000

> <Gold.Chemscore.DEClash.Weighted>
0.0000

> <Gold.Chemscore.DEInternal.Weighted>
0.4633

> <Gold.Chemscore.Rot.Weighted>
4.1243

> <Gold.Chemscore.Internal.Correction.Weighted>
   9.000000E+99

> <Gold.Protein.RotatedTorsions>
[ 6907 6896 6895 6894 ] final -157.65 input  -60.11 | X-H torsion
[ 7974 7965 7964 7962 ] final  -55.32 input  175.53 | X-H torsion
[ 8008 7997 7996 7995 ] final  -38.84 input   59.86 | X-H torsion
[ 10167 10162 10161 10158 ] final  133.29 input  -65.29 | X-H torsion
[ 10718 10713 10712 10709 ] final  -93.56 input   66.30 | X-H torsion
[ 10763 10752 10751 10750 ] final  -97.82 input  -60.55 | X-H torsion
[ 11005 11000 10999 10996 ] final  -74.00 input  -57.11 | X-H torsion

> <Gold.Protein.ActiveResidues>
 VAL166  LYS551  ARG553  GLY616  TRP617  ASP618  TYR619  PRO620  LYS621  CYS622 
 ASP623  PHE694  ASN695  SER759  ASP760  ASP761  ALA762  ILE779  LEU786  VAL792 
 PHE793  MET794  SER795  GLU796  ALA797  LYS798  CYS799  TRP800  GLU811  SER814 

> <Gold.Protein.RotatedAtoms>
  151.3060  133.4101  159.2643 H   0  0  0  0  0  0  0  0  0  0  0  0  # atno 6907 bound_to 6896
  151.0154  134.9429  159.8041 H   0  0  0  0  0  0  0  0  0  0  0  0  # atno 6908 bound_to 6896
  152.5311  134.3024  159.9136 H   0  0  0  0  0  0  0  0  0  0  0  0  # atno 6909 bound_to 6896
  145.8755  140.8184  142.9866 H   0  0  0  0  0  0  0  0  0  0  0  0  # atno 7974 bound_to 7965
  154.4031  140.1567  156.2765 H   0  0  0  0  0  0  0  0  0  0  0  0  # atno 8008 bound_to 7997
  155.8907  140.3439  155.5932 H   0  0  0  0  0  0  0  0  0  0  0  0  # atno 8009 bound_to 7997
  155.7562  140.0811  157.2168 H   0  0  0  0  0  0  0  0  0  0  0  0  # atno 8010 bound_to 7997
  139.5303  144.6622  151.4974 H   0  0  0  0  0  0  0  0  0  0  0  0  # atno 10167 bound_to 10162
  156.0015  130.5032  150.5795 H   0  0  0  0  0  0  0  0  0  0  0  0  # atno 10718 bound_to 10713
  154.7361  135.5032  153.9044 H   0  0  0  0  0  0  0  0  0  0  0  0  # atno 10763 bound_to 10752
  153.0997  135.6682  153.9705 H   0  0  0  0  0  0  0  0  0  0  0  0  # atno 10764 bound_to 10752
  153.9494  135.3059  155.3418 H   0  0  0  0  0  0  0  0  0  0  0  0  # atno 10765 bound_to 10752
  141.1630  133.6897  156.7297 H   0  0  0  0  0  0  0  0  0  0  0  0  # atno 11005 bound_to 11000
  144.6726  140.1304  143.7444 LP  0  0  0  0  0  0  0  0  0  0  0  0  # atno 17320 bound_to 7965
  145.9086  139.2473  143.1451 LP  0  0  0  0  0  0  0  0  0  0  0  0  # atno 17321 bound_to 7965
  140.6477  143.8761  150.6753 LP  0  0  0  0  0  0  0  0  0  0  0  0  # atno 17342 bound_to 10162
  140.2116  143.3879  152.1714 LP  0  0  0  0  0  0  0  0  0  0  0  0  # atno 17343 bound_to 10162
  157.3677  131.0760  151.1584 LP  0  0  0  0  0  0  0  0  0  0  0  0  # atno 17370 bound_to 10713
  157.2348  130.6542  149.5864 LP  0  0  0  0  0  0  0  0  0  0  0  0  # atno 17371 bound_to 10713
  140.2754  134.8359  157.3885 LP  0  0  0  0  0  0  0  0  0  0  0  0  # atno 17394 bound_to 11000
  140.1482  134.4883  155.7980 LP  0  0  0  0  0  0  0  0  0  0  0  0  # atno 17395 bound_to 11000

$$$$
