AV-unprocessed.smi:3284|AV-procd|sdf|12576|dock4
  -GOLD-   2272018493D 1   1.00000     0.00000
 Structure written by MMmdl.
 45 46  0  0  0  0  0  0  0  0  3 V2000
  150.1444  138.6798  154.2886 C   0  0  0  0  0  0  0  0  0  0  0  0
  148.8262  139.3134  154.7010 C   0  0  0  0  0  0  0  0  0  0  0  0
  147.9717  138.6597  155.5126 C   0  0  0  0  0  0  0  0  0  0  0  0
  146.6124  139.1828  155.9425 C   0  0  0  0  0  0  0  0  0  0  0  0
  146.3582  140.6359  155.5083 C   0  0  0  0  0  0  0  0  0  0  0  0
  146.9599  140.9237  154.1218 C   0  0  1  0  0  0  0  0  0  0  0  0
  146.5185  142.2909  153.5719 C   0  0  0  0  0  0  0  0  0  0  0  0
  148.4983  140.6971  154.1239 C   0  0  1  0  0  0  0  0  0  0  0  0
  149.2770  141.8307  154.8418 C   0  0  0  0  0  0  0  0  0  0  0  0
  148.9531  141.9288  156.2785 N   0  3  0  0  0  0  0  0  0  0  0  0
  149.8925  141.2064  157.1602 C   0  0  0  0  0  0  0  0  0  0  0  0
  151.3006  141.8223  157.1281 C   0  0  0  0  0  0  0  0  0  0  0  0
  151.4364  143.0722  157.9477 C   0  0  0  0  0  0  0  0  0  0  0  0
  150.7295  144.1944  157.7648 N   0  3  0  0  0  0  0  0  0  0  0  0
  151.0971  145.1457  158.6771 C   0  0  0  0  0  0  0  0  0  0  0  0
  152.0760  144.5807  159.4515 C   0  0  0  0  0  0  0  0  0  0  0  0
  152.2646  143.3066  158.9805 N   0  0  0  0  0  0  0  0  0  0  0  0
  153.2143  142.3219  159.5026 C   0  0  0  0  0  0  0  0  0  0  0  0
  150.3031  138.7841  153.2152 H   0  0  0  0  0  0  0  0  0  0  0  0
  150.1550  137.6145  154.5219 H   0  0  0  0  0  0  0  0  0  0  0  0
  150.9831  139.1327  154.8145 H   0  0  0  0  0  0  0  0  0  0  0  0
  148.2299  137.6769  155.8795 H   0  0  0  0  0  0  0  0  0  0  0  0
  145.8583  138.5310  155.5002 H   0  0  0  0  0  0  0  0  0  0  0  0
  146.5120  139.0909  157.0242 H   0  0  0  0  0  0  0  0  0  0  0  0
  145.2846  140.8278  155.5066 H   0  0  0  0  0  0  0  0  0  0  0  0
  146.7839  141.3184  156.2441 H   0  0  0  0  0  0  0  0  0  0  0  0
  146.5381  140.1845  153.4381 H   0  0  0  0  0  0  0  0  0  0  0  0
  146.7550  143.1043  154.2578 H   0  0  0  0  0  0  0  0  0  0  0  0
  145.4400  142.3113  153.4129 H   0  0  0  0  0  0  0  0  0  0  0  0
  146.9935  142.5037  152.6137 H   0  0  0  0  0  0  0  0  0  0  0  0
  148.8094  140.6900  153.0782 H   0  0  0  0  0  0  0  0  0  0  0  0
  150.3512  141.6656  154.7715 H   0  0  0  0  0  0  0  0  0  0  0  0
  149.0700  142.7894  154.3656 H   0  0  0  0  0  0  0  0  0  0  0  0
  148.9589  142.9060  156.5345 H   0  0  0  0  0  0  0  0  0  0  0  0
  149.5073  141.2033  158.1807 H   0  0  0  0  0  0  0  0  0  0  0  0
  149.9466  140.1663  156.8367 H   0  0  0  0  0  0  0  0  0  0  0  0
  152.0273  141.1136  157.5268 H   0  0  0  0  0  0  0  0  0  0  0  0
  151.6073  142.0448  156.1063 H   0  0  0  0  0  0  0  0  0  0  0  0
  150.6458  146.1270  158.7071 H   0  0  0  0  0  0  0  0  0  0  0  0
  152.6364  144.9820  160.2840 H   0  0  0  0  0  0  0  0  0  0  0  0
  153.7478  142.7460  160.3540 H   0  0  0  0  0  0  0  0  0  0  0  0
  153.9306  142.0616  158.7242 H   0  0  0  0  0  0  0  0  0  0  0  0
  152.6746  141.4316  159.8268 H   0  0  0  0  0  0  0  0  0  0  0  0
  148.0228  141.5622  156.4202 H   0  0  0  0  0  0  0  0  0  0  0  0
  150.0163  144.3187  157.0568 H   0  0  0  0  0  0  0  0  0  0  0  0
  1  2  1  0  0  0  0
  1 19  1  0  0  0  0
  1 20  1  0  0  0  0
  1 21  1  0  0  0  0
  2  8  1  0  0  0  0
  2  3  2  0  0  0  0
  3  4  1  0  0  0  0
  3 22  1  0  0  0  0
  4  5  1  0  0  0  0
  4 23  1  0  0  0  0
  4 24  1  0  0  0  0
  5  6  1  0  0  0  0
  5 25  1  0  0  0  0
  5 26  1  0  0  0  0
  6  7  1  0  0  0  0
  6  8  1  0  0  0  0
  6 27  1  0  0  0  0
  7 28  1  0  0  0  0
  7 29  1  0  0  0  0
  7 30  1  0  0  0  0
  8  9  1  0  0  0  0
  8 31  1  0  0  0  0
  9 10  1  0  0  0  0
  9 32  1  0  0  0  0
  9 33  1  0  0  0  0
 10 11  1  0  0  0  0
 10 34  1  0  0  0  0
 10 44  1  0  0  0  0
 11 12  1  0  0  0  0
 11 35  1  0  0  0  0
 11 36  1  0  0  0  0
 12 13  1  0  0  0  0
 12 37  1  0  0  0  0
 12 38  1  0  0  0  0
 13 17  1  0  0  0  0
 13 14  2  0  0  0  0
 14 15  1  0  0  0  0
 14 45  1  0  0  0  0
 15 16  2  0  0  0  0
 15 39  1  0  0  0  0
 16 17  1  0  0  0  0
 16 40  1  0  0  0  0
 17 18  1  0  0  0  0
 18 41  1  0  0  0  0
 18 42  1  0  0  0  0
 18 43  1  0  0  0  0
M  CHG  1  10   1
M  CHG  1  14   1
M  END
> <s_m_source_file>
AV-unprocessed.smi

> <i_m_source_file_index>
3284

> <i_lp_mmshare_version>
43012

> <i_f3d_flags>
0

> <s_epik_input>
W0NIM11DMT1bQ0hdW0NIMl1bQ0gyXVtDQEBIXShbQ0gzXSlbQ0BIXTFbQ0gyXVtOSF1bQ0gyXVtDSDJdYzJuW2NIXVtjSF1uMltDSDNd

> <s_epik_cmdline>
J2VwaWtfcHl0aG9uJywgJy1waCcsICc3LjAnLCAnLXRuJywgJzgnLCAnLW1hJywgJzIwMCcsICctbWV0YWxfYmluZGluZycsICctaW1hZScsICc8aW5maWxlLm1hZT4nLCAnLW9tYWUnLCAnPG91dGZpbGUubWFlPic=

> <r_lp_tautomer_probability>
1

> <r_epik_Ionization_Penalty>
0.892846

> <r_epik_Ionization_Penalty_Charging>
0.00275802

> <r_epik_Ionization_Penalty_Neutral>
0.890088

> <r_epik_State_Penalty>
0.485211

> <r_epik_Charging_Adjusted_Penalty>
0.487969

> <i_epik_Tot_Q>
2

> <i_epik_Tot_abs_Q>
2

> <r_epik_Metal_State_Penalty>
4.22898

> <b_epik_Metal_Only>
0

> <s_lp_Force_Field>
OPLS_2005

> <r_lp_Energy>
25.5845

> <b_lp_Chiralities_Consistent>
1

> <s_lp_Variant>
AV-unprocessed.smi:3284-5

> <Gold.Version>
5.8.1

> <Gold.Id.Protein>
6NUR|6NUR_protein|mol2

> <Gold.PLP.Fitness>
48.2052

> <Gold.PLP.PLP>
-37.9293

> <Gold.PLP.part.hbond>
-2.2038

> <Gold.PLP.part.metal>
0.0000

> <Gold.PLP.part.buried>
-3.1032

> <Gold.PLP.part.nonpolar>
-31.6777

> <Gold.PLP.part.repulsive>
0.0910

> <Gold.PLP.ligand.clash>
0.0115

> <Gold.PLP.ligand.torsion>
0.3287

> <Gold.PLP.Chemscore.Hbond>
3.6320

> <Gold.PLP.Chemscore.CHOScore>
0.0000

> <Gold.PLP.Chemscore.Metal>
0.0000

> <Gold.Chemscore.Hbonds>
donor molecule, donor type, donor heavy atom, donor atom, acceptor molecule, acceptor atom, score
      L1  H    10    34       P1  8028  1.60
      L1  H    14    45       P1  8028  2.00

> <Gold.PLP.Chemscore.Internal.Correction>
0.0488

> <Gold.Rescore>
     Score         DG    S(hbond)    S(metal)    S(lipo)     H(rot)  DE(clash)    DE(int)     intcor
     16.38     -18.39       1.81        0.00      95.83       1.70       0.56       1.45       ----

> <Gold.Chemscore.Fitness>
16.3805

> <Gold.Chemscore.DG>
-18.3886

> <Gold.Chemscore.ZeroCoef>
-5.4800

> <Gold.Chemscore.Hbond>
1.8108

> <Gold.Chemscore.Metal>
0.0000

> <Gold.Chemscore.Lipo>
95.8268

> <Gold.Chemscore.Internal_Hbond>
0.0000

> <Gold.Chemscore.DEClash>
0.5628

> <Gold.Chemscore.DEInternal>
1.4453

> <Gold.Chemscore.Rot>
1.6997

> <Gold.Chemscore.Internal.Correction>
   9.000000E+99

> <Gold.Chemscore.Hbonds>
donor molecule, donor type, donor heavy atom, donor atom, acceptor molecule, acceptor atom, score
      L1  H    10    34       P1  8028  0.75
      L1  H    14    45       P1  8028  0.74

> <Gold.Chemscore.Hbond.Weighted>
-6.0481

> <Gold.Chemscore.Metal.Weighted>
-0.0000

> <Gold.Chemscore.Lipo.Weighted>
-11.2117

> <Gold.Chemscore.Internal_Hbond.Weighted>
0.0000

> <Gold.Chemscore.DEClash.Weighted>
0.5628

> <Gold.Chemscore.DEInternal.Weighted>
1.4453

> <Gold.Chemscore.Rot.Weighted>
4.3512

> <Gold.Chemscore.Internal.Correction.Weighted>
   9.000000E+99

> <Gold.Protein.RotatedTorsions>
[ 6907 6896 6895 6894 ] final  170.04 input  -60.11 | X-H torsion
[ 7974 7965 7964 7962 ] final -145.16 input  175.53 | X-H torsion
[ 8008 7997 7996 7995 ] final  175.04 input   59.86 | X-H torsion
[ 10167 10162 10161 10158 ] final  -46.63 input  -65.29 | X-H torsion
[ 10718 10713 10712 10709 ] final  163.30 input   66.30 | X-H torsion
[ 10763 10752 10751 10750 ] final  -13.18 input  -60.55 | X-H torsion
[ 11005 11000 10999 10996 ] final   63.19 input  -57.11 | X-H torsion

> <Gold.Protein.ActiveResidues>
 VAL166  LYS551  ARG553  GLY616  TRP617  ASP618  TYR619  PRO620  LYS621  CYS622 
 ASP623  PHE694  ASN695  SER759  ASP760  ASP761  ALA762  ILE779  LEU786  VAL792 
 PHE793  MET794  SER795  GLU796  ALA797  LYS798  CYS799  TRP800  GLU811  SER814 

> <Gold.Protein.RotatedAtoms>
  151.8223  133.3396  159.3587 H   0  0  0  0  0  0  0  0  0  0  0  0  # atno 6907 bound_to 6896
  150.7290  134.5561  159.5828 H   0  0  0  0  0  0  0  0  0  0  0  0  # atno 6908 bound_to 6896
  152.2996  134.7627  160.0412 H   0  0  0  0  0  0  0  0  0  0  0  0  # atno 6909 bound_to 6896
  144.8247  140.5619  143.5555 H   0  0  0  0  0  0  0  0  0  0  0  0  # atno 7974 bound_to 7965
  156.0912  140.1419  156.9589 H   0  0  0  0  0  0  0  0  0  0  0  0  # atno 8008 bound_to 7997
  154.4643  140.0932  156.7025 H   0  0  0  0  0  0  0  0  0  0  0  0  # atno 8009 bound_to 7997
  155.4916  140.3448  155.4358 H   0  0  0  0  0  0  0  0  0  0  0  0  # atno 8010 bound_to 7997
  140.6809  143.2822  151.3810 H   0  0  0  0  0  0  0  0  0  0  0  0  # atno 10167 bound_to 10162
  157.1105  131.0466  151.2459 H   0  0  0  0  0  0  0  0  0  0  0  0  # atno 10718 bound_to 10713
  153.5095  135.7016  153.5788 H   0  0  0  0  0  0  0  0  0  0  0  0  # atno 10763 bound_to 10752
  153.3884  135.3902  155.1906 H   0  0  0  0  0  0  0  0  0  0  0  0  # atno 10764 bound_to 10752
  154.8704  135.3852  154.4574 H   0  0  0  0  0  0  0  0  0  0  0  0  # atno 10765 bound_to 10752
  140.0041  134.6397  155.9883 H   0  0  0  0  0  0  0  0  0  0  0  0  # atno 11005 bound_to 11000
  145.5027  139.1482  143.3648 LP  0  0  0  0  0  0  0  0  0  0  0  0  # atno 17320 bound_to 7965
  146.2552  140.5167  142.8876 LP  0  0  0  0  0  0  0  0  0  0  0  0  # atno 17321 bound_to 7965
  139.6132  144.1057  152.2319 LP  0  0  0  0  0  0  0  0  0  0  0  0  # atno 17342 bound_to 10162
  140.0477  144.5957  150.7360 LP  0  0  0  0  0  0  0  0  0  0  0  0  # atno 17343 bound_to 10162
  157.4563  130.7627  149.7196 LP  0  0  0  0  0  0  0  0  0  0  0  0  # atno 17370 bound_to 10713
  155.9851  130.3985  150.3275 LP  0  0  0  0  0  0  0  0  0  0  0  0  # atno 17371 bound_to 10713
  141.1664  133.6537  156.4494 LP  0  0  0  0  0  0  0  0  0  0  0  0  # atno 17394 bound_to 11000
  140.4674  134.6785  157.5113 LP  0  0  0  0  0  0  0  0  0  0  0  0  # atno 17395 bound_to 11000

$$$$
