AV-unprocessed.smi:3247|AV-procd|sdf|12412|dock2
  -GOLD-   2272018293D 1   1.00000     0.00000
 Structure written by MMmdl.
 35 36  0  0  0  0  0  0  0  0  1 V2000
  149.3211  141.3081  153.9381 O   0  0  0  0  0  0  0  0  0  0  0  0
  149.2616  141.0751  155.1453 C   0  0  0  0  0  0  0  0  0  0  0  0
  150.5178  141.1741  156.0074 C   0  0  0  0  0  0  0  0  0  0  0  0
  150.2166  141.9347  157.1686 O   0  0  0  0  0  0  0  0  0  0  0  0
  151.3592  142.4996  157.7948 C   0  0  0  0  0  0  0  0  0  0  0  0
  152.0905  141.4436  158.6212 C   0  0  0  0  0  0  0  0  0  0  0  0
  152.9274  142.2476  159.6207 C   0  0  0  0  0  0  0  0  0  0  0  0
  152.2013  143.5903  159.8023 C   0  0  0  0  0  0  0  0  0  0  0  0
  151.0160  143.5767  158.8287 C   0  0  0  0  0  0  0  0  0  0  0  0
  148.1327  140.7155  155.7752 N   0  0  0  0  0  0  0  0  0  0  0  0
  146.8290  140.5575  155.1410 C   0  0  0  0  0  0  0  0  0  0  0  0
  146.0069  139.4363  155.7986 C   0  0  0  0  0  0  0  0  0  0  0  0
  144.8885  139.9732  156.6394 C   0  0  0  0  0  0  0  0  0  0  0  0
  143.6949  140.4862  156.1909 C   0  0  0  0  0  0  0  0  0  0  0  0
  142.6720  141.0089  157.5029 S   0  0  0  0  0  0  0  0  0  0  0  0
  143.9280  140.5026  158.6201 C   0  0  0  0  0  0  0  0  0  0  0  0
  145.0103  139.9903  158.0334 N   0  0  0  0  0  0  0  0  0  0  0  0
  150.8445  140.1693  156.2798 H   0  0  0  0  0  0  0  0  0  0  0  0
  151.3187  141.6420  155.4333 H   0  0  0  0  0  0  0  0  0  0  0  0
  152.0468  142.9018  157.0483 H   0  0  0  0  0  0  0  0  0  0  0  0
  151.3660  140.8343  159.1635 H   0  0  0  0  0  0  0  0  0  0  0  0
  152.6941  140.7735  158.0086 H   0  0  0  0  0  0  0  0  0  0  0  0
  153.0493  141.7148  160.5641 H   0  0  0  0  0  0  0  0  0  0  0  0
  153.9241  142.4227  159.2137 H   0  0  0  0  0  0  0  0  0  0  0  0
  151.8615  143.7303  160.8290 H   0  0  0  0  0  0  0  0  0  0  0  0
  152.8782  144.4130  159.5681 H   0  0  0  0  0  0  0  0  0  0  0  0
  150.8381  144.5530  158.3769 H   0  0  0  0  0  0  0  0  0  0  0  0
  150.1106  143.2920  159.3666 H   0  0  0  0  0  0  0  0  0  0  0  0
  148.1807  140.5475  156.7698 H   0  0  0  0  0  0  0  0  0  0  0  0
  146.2988  141.5064  155.2264 H   0  0  0  0  0  0  0  0  0  0  0  0
  146.9531  140.3653  154.0739 H   0  0  0  0  0  0  0  0  0  0  0  0
  145.6035  138.7767  155.0294 H   0  0  0  0  0  0  0  0  0  0  0  0
  146.6628  138.8142  156.4091 H   0  0  0  0  0  0  0  0  0  0  0  0
  143.3575  140.5894  155.1701 H   0  0  0  0  0  0  0  0  0  0  0  0
  143.8697  140.5821  159.6956 H   0  0  0  0  0  0  0  0  0  0  0  0
  1  2  2  0  0  0  0
  2  3  1  0  0  0  0
  2 10  1  0  0  0  0
  3  4  1  0  0  0  0
  3 18  1  0  0  0  0
  3 19  1  0  0  0  0
  4  5  1  0  0  0  0
  5  9  1  0  0  0  0
  5  6  1  0  0  0  0
  5 20  1  0  0  0  0
  6  7  1  0  0  0  0
  6 21  1  0  0  0  0
  6 22  1  0  0  0  0
  7  8  1  0  0  0  0
  7 23  1  0  0  0  0
  7 24  1  0  0  0  0
  8  9  1  0  0  0  0
  8 25  1  0  0  0  0
  8 26  1  0  0  0  0
  9 27  1  0  0  0  0
  9 28  1  0  0  0  0
 10 11  1  0  0  0  0
 10 29  1  0  0  0  0
 11 12  1  0  0  0  0
 11 30  1  0  0  0  0
 11 31  1  0  0  0  0
 12 13  1  0  0  0  0
 12 32  1  0  0  0  0
 12 33  1  0  0  0  0
 13 17  1  0  0  0  0
 13 14  2  0  0  0  0
 14 15  1  0  0  0  0
 14 34  1  0  0  0  0
 15 16  1  0  0  0  0
 16 17  2  0  0  0  0
 16 35  1  0  0  0  0
M  END
> <s_m_source_file>
AV-unprocessed.smi

> <i_m_source_file_index>
3247

> <i_lp_mmshare_version>
43012

> <i_f3d_flags>
0

> <s_epik_input>
W0NIMl0xW0NIMl1bQ0gyXVtDSDJdW0NIXTFPW0NIMl1DKD1PKVtOSF1bQ0gyXVtDSDJdYzJbY0hdc1tjSF1uMg==

> <s_epik_cmdline>
J2VwaWtfcHl0aG9uJywgJy1waCcsICc3LjAnLCAnLXRuJywgJzgnLCAnLW1hJywgJzIwMCcsICctbWV0YWxfYmluZGluZycsICctaW1hZScsICc8aW5maWxlLm1hZT4nLCAnLW9tYWUnLCAnPG91dGZpbGUubWFlPic=

> <r_lp_tautomer_probability>
1

> <r_epik_Ionization_Penalty>
0.00018119

> <r_epik_Ionization_Penalty_Charging>
0

> <r_epik_Ionization_Penalty_Neutral>
0.00018119

> <r_epik_State_Penalty>
-0

> <r_epik_Charging_Adjusted_Penalty>
0

> <i_epik_Tot_Q>
0

> <i_epik_Tot_abs_Q>
0

> <r_epik_Metal_State_Penalty>
-0

> <b_epik_Metal_Only>
0

> <s_lp_Force_Field>
OPLS_2005

> <r_lp_Energy>
17.1434

> <b_lp_Chiralities_Consistent>
1

> <s_lp_Variant>
AV-unprocessed.smi:3247-1

> <Gold.Version>
5.8.1

> <Gold.Id.Protein>
6NUR|6NUR_protein|mol2

> <Gold.PLP.Fitness>
41.0498

> <Gold.PLP.PLP>
-36.3255

> <Gold.PLP.part.hbond>
-3.0000

> <Gold.PLP.part.metal>
0.0000

> <Gold.PLP.part.buried>
-5.5977

> <Gold.PLP.part.nonpolar>
-31.1642

> <Gold.PLP.part.repulsive>
3.4434

> <Gold.PLP.ligand.clash>
0.0000

> <Gold.PLP.ligand.torsion>
1.0874

> <Gold.PLP.Chemscore.Hbond>
1.2449

> <Gold.PLP.Chemscore.CHOScore>
0.9877

> <Gold.PLP.Chemscore.Metal>
0.0000

> <Gold.Chemscore.Hbonds>
donor molecule, donor type, donor heavy atom, donor atom, acceptor molecule, acceptor atom, score
      P1  H  7989  7998       L1     1  0.05
      P1  H  8011  8017       L1     1  0.80
      L1  C    14    34       P1 10175  0.64

> <Gold.PLP.Chemscore.Internal.Correction>
0.2013

> <Gold.Rescore>
     Score         DG    S(hbond)    S(metal)    S(lipo)     H(rot)  DE(clash)    DE(int)     intcor
     12.97     -15.18       1.09        0.00      90.94       1.78       0.82       1.39       ----

> <Gold.Chemscore.Fitness>
12.9727

> <Gold.Chemscore.DG>
-15.1823

> <Gold.Chemscore.ZeroCoef>
-5.4800

> <Gold.Chemscore.Hbond>
1.0854

> <Gold.Chemscore.Metal>
0.0000

> <Gold.Chemscore.Lipo>
90.9387

> <Gold.Chemscore.Internal_Hbond>
0.0000

> <Gold.Chemscore.DEClash>
0.8190

> <Gold.Chemscore.DEInternal>
1.3906

> <Gold.Chemscore.Rot>
1.7824

> <Gold.Chemscore.Internal.Correction>
   9.000000E+99

> <Gold.Chemscore.Hbonds>
donor molecule, donor type, donor heavy atom, donor atom, acceptor molecule, acceptor atom, score
      P1  H  7989  7998       L1     1  0.02
      P1  H  8011  8017       L1     1  0.76

> <Gold.Chemscore.Hbond.Weighted>
-3.6254

> <Gold.Chemscore.Metal.Weighted>
-0.0000

> <Gold.Chemscore.Lipo.Weighted>
-10.6398

> <Gold.Chemscore.Internal_Hbond.Weighted>
0.0000

> <Gold.Chemscore.DEClash.Weighted>
0.8190

> <Gold.Chemscore.DEInternal.Weighted>
1.3906

> <Gold.Chemscore.Rot.Weighted>
4.5629

> <Gold.Chemscore.Internal.Correction.Weighted>
   9.000000E+99

> <Gold.Protein.RotatedTorsions>
[ 6907 6896 6895 6894 ] final   -4.72 input  -60.11 | X-H torsion
[ 7974 7965 7964 7962 ] final   31.76 input  175.53 | X-H torsion
[ 8008 7997 7996 7995 ] final -105.48 input   59.86 | X-H torsion
[ 10167 10162 10161 10158 ] final   -8.81 input  -65.29 | X-H torsion
[ 10718 10713 10712 10709 ] final    1.55 input   66.30 | X-H torsion
[ 10763 10752 10751 10750 ] final  175.81 input  -60.55 | X-H torsion
[ 11005 11000 10999 10996 ] final  -20.06 input  -57.11 | X-H torsion

> <Gold.Protein.ActiveResidues>
 VAL166  LYS551  ARG553  GLY616  TRP617  ASP618  TYR619  PRO620  LYS621  CYS622 
 ASP623  PHE694  ASN695  SER759  ASP760  ASP761  ALA762  ILE779  LEU786  VAL792 
 PHE793  MET794  SER795  GLU796  ALA797  LYS798  CYS799  TRP800  GLU811  SER814 

> <Gold.Protein.RotatedAtoms>
  151.4931  135.1058  159.9808 H   0  0  0  0  0  0  0  0  0  0  0  0  # atno 6907 bound_to 6896
  152.4733  133.8075  159.6996 H   0  0  0  0  0  0  0  0  0  0  0  0  # atno 6908 bound_to 6896
  150.8755  133.7383  159.2974 H   0  0  0  0  0  0  0  0  0  0  0  0  # atno 6909 bound_to 6896
  146.1529  139.6614  142.9086 H   0  0  0  0  0  0  0  0  0  0  0  0  # atno 7974 bound_to 7965
  154.9004  140.0413  157.1890 H   0  0  0  0  0  0  0  0  0  0  0  0  # atno 8008 bound_to 7997
  154.8449  140.2920  155.5614 H   0  0  0  0  0  0  0  0  0  0  0  0  # atno 8009 bound_to 7997
  156.2994  140.2475  156.3398 H   0  0  0  0  0  0  0  0  0  0  0  0  # atno 8010 bound_to 7997
  140.7070  143.5927  150.8877 H   0  0  0  0  0  0  0  0  0  0  0  0  # atno 10167 bound_to 10162
  156.8498  130.5550  149.5670 H   0  0  0  0  0  0  0  0  0  0  0  0  # atno 10718 bound_to 10713
  154.4726  135.2771  155.1631 H   0  0  0  0  0  0  0  0  0  0  0  0  # atno 10763 bound_to 10752
  154.3374  135.6177  153.5583 H   0  0  0  0  0  0  0  0  0  0  0  0  # atno 10764 bound_to 10752
  152.9866  135.5780  154.5110 H   0  0  0  0  0  0  0  0  0  0  0  0  # atno 10765 bound_to 10752
  140.8428  133.7914  155.9879 H   0  0  0  0  0  0  0  0  0  0  0  0  # atno 11005 bound_to 11000
  145.4778  141.0437  143.2662 LP  0  0  0  0  0  0  0  0  0  0  0  0  # atno 17320 bound_to 7965
  144.7927  139.6296  143.7106 LP  0  0  0  0  0  0  0  0  0  0  0  0  # atno 17321 bound_to 7965
  139.9652  143.6118  152.2990 LP  0  0  0  0  0  0  0  0  0  0  0  0  # atno 17342 bound_to 10162
  139.6685  144.7661  151.1827 LP  0  0  0  0  0  0  0  0  0  0  0  0  # atno 17343 bound_to 10162
  156.0834  130.5839  150.9605 LP  0  0  0  0  0  0  0  0  0  0  0  0  # atno 17370 bound_to 10713
  157.6310  131.0921  150.8442 LP  0  0  0  0  0  0  0  0  0  0  0  0  # atno 17371 bound_to 10713
  140.8876  134.2534  157.5111 LP  0  0  0  0  0  0  0  0  0  0  0  0  # atno 17394 bound_to 11000
  139.8703  134.9646  156.4500 LP  0  0  0  0  0  0  0  0  0  0  0  0  # atno 17395 bound_to 11000

$$$$
