AV-unprocessed.smi:3068|AV-procd|sdf|11706|dock1
  -GOLD-   2272017113D 1   1.00000     0.00000
 Structure written by MMmdl.
 39 41  0  0  0  0  0  0  0  0  1 V2000
  149.8782  135.3108  157.6728 N   0  0  0  0  0  0  0  0  0  0  0  0
  150.4894  136.0644  157.0421 C   0  0  0  0  0  0  0  0  0  0  0  0
  151.2591  137.0132  156.2474 C   0  0  0  0  0  0  0  0  0  0  0  0
  151.0323  137.0123  154.9134 N   0  0  0  0  0  0  0  0  0  0  0  0
  151.7365  137.8885  154.1658 C   0  0  0  0  0  0  0  0  0  0  0  0
  152.6717  138.7677  154.7451 C   0  0  0  0  0  0  0  0  0  0  0  0
  152.9056  138.7740  156.0744 N   0  0  0  0  0  0  0  0  0  0  0  0
  152.2016  137.9014  156.8387 C   0  0  0  0  0  0  0  0  0  0  0  0
  152.4332  137.8959  158.2270 N   0  0  0  0  0  0  0  0  0  0  0  0
  153.4513  138.7423  158.8384 C   0  0  0  0  0  0  0  0  0  0  0  0
  152.8570  140.0059  159.4819 C   0  0  2  0  0  0  0  0  0  0  0  0
  152.1496  140.8926  158.4412 C   0  0  0  0  0  0  0  0  0  0  0  0
  151.6486  142.1275  159.0309 N   0  0  0  0  0  0  0  0  0  0  0  0
  150.9828  142.9621  158.0324 C   0  0  0  0  0  0  0  0  0  0  0  0
  150.4145  144.2565  158.6355 C   0  0  0  0  0  0  0  0  0  0  0  0
  151.5264  145.0499  159.3366 C   0  0  0  0  0  0  0  0  0  0  0  0
  152.2572  144.1526  160.3473 C   0  0  0  0  0  0  0  0  0  0  0  0
  152.7469  142.8522  159.6772 C   0  0  1  0  0  0  0  0  0  0  0  0
  153.4731  141.9530  160.6984 C   0  0  0  0  0  0  0  0  0  0  0  0
  153.9188  140.7589  160.0631 O   0  0  0  0  0  0  0  0  0  0  0  0
  151.5537  137.8885  153.1013 H   0  0  0  0  0  0  0  0  0  0  0  0
  153.2323  139.4663  154.1416 H   0  0  0  0  0  0  0  0  0  0  0  0
  151.7512  137.4645  158.8347 H   0  0  0  0  0  0  0  0  0  0  0  0
  153.9776  138.1572  159.5927 H   0  0  0  0  0  0  0  0  0  0  0  0
  154.1980  139.0121  158.0907 H   0  0  0  0  0  0  0  0  0  0  0  0
  152.1418  139.7278  160.2580 H   0  0  0  0  0  0  0  0  0  0  0  0
  152.8427  141.1248  157.6310 H   0  0  0  0  0  0  0  0  0  0  0  0
  151.3233  140.3378  157.9952 H   0  0  0  0  0  0  0  0  0  0  0  0
  151.6823  143.2115  157.2330 H   0  0  0  0  0  0  0  0  0  0  0  0
  150.1714  142.4001  157.5686 H   0  0  0  0  0  0  0  0  0  0  0  0
  149.9523  144.8635  157.8568 H   0  0  0  0  0  0  0  0  0  0  0  0
  149.6278  144.0134  159.3511 H   0  0  0  0  0  0  0  0  0  0  0  0
  152.2359  145.4189  158.5948 H   0  0  0  0  0  0  0  0  0  0  0  0
  151.1115  145.9256  159.8364 H   0  0  0  0  0  0  0  0  0  0  0  0
  153.0985  144.6950  160.7799 H   0  0  0  0  0  0  0  0  0  0  0  0
  151.5854  143.9124  161.1727 H   0  0  0  0  0  0  0  0  0  0  0  0
  153.4746  143.1285  158.9118 H   0  0  0  0  0  0  0  0  0  0  0  0
  154.3372  142.4705  161.1154 H   0  0  0  0  0  0  0  0  0  0  0  0
  152.8175  141.7017  161.5338 H   0  0  0  0  0  0  0  0  0  0  0  0
  1  2  3  0  0  0  0
  2  3  1  0  0  0  0
  3  8  1  0  0  0  0
  3  4  2  0  0  0  0
  4  5  1  0  0  0  0
  5  6  2  0  0  0  0
  5 21  1  0  0  0  0
  6  7  1  0  0  0  0
  6 22  1  0  0  0  0
  7  8  2  0  0  0  0
  8  9  1  0  0  0  0
  9 10  1  0  0  0  0
  9 23  1  0  0  0  0
 10 11  1  0  0  0  0
 10 24  1  0  0  0  0
 10 25  1  0  0  0  0
 11 20  1  0  0  0  0
 11 12  1  0  0  0  0
 11 26  1  0  0  0  0
 12 13  1  0  0  0  0
 12 27  1  0  0  0  0
 12 28  1  0  0  0  0
 13 18  1  0  0  0  0
 13 14  1  0  0  0  0
 14 15  1  0  0  0  0
 14 29  1  0  0  0  0
 14 30  1  0  0  0  0
 15 16  1  0  0  0  0
 15 31  1  0  0  0  0
 15 32  1  0  0  0  0
 16 17  1  0  0  0  0
 16 33  1  0  0  0  0
 16 34  1  0  0  0  0
 17 18  1  0  0  0  0
 17 35  1  0  0  0  0
 17 36  1  0  0  0  0
 18 19  1  0  0  0  0
 18 37  1  0  0  0  0
 19 20  1  0  0  0  0
 19 38  1  0  0  0  0
 19 39  1  0  0  0  0
M  END
> <s_m_source_file>
AV-unprocessed.smi

> <i_m_source_file_index>
3068

> <i_lp_mmshare_version>
43012

> <i_f3d_flags>
0

> <s_epik_input>
TiNDYzFuW2NIXVtjSF1uYzFbTkhdW0NIMl1bQ0BIXShbQ0gyXTIpT1tDSDJdW0NAQEhdKE4yMylbQ0gyXVtDSDJdW0NIMl1bQ0gyXTM=

> <s_epik_cmdline>
J2VwaWtfcHl0aG9uJywgJy1waCcsICc3LjAnLCAnLXRuJywgJzgnLCAnLW1hJywgJzIwMCcsICctbWV0YWxfYmluZGluZycsICctaW1hZScsICc8aW5maWxlLm1hZT4nLCAnLW9tYWUnLCAnPG91dGZpbGUubWFlPic=

> <r_epik_Ionization_Penalty>
1.22359

> <r_epik_Ionization_Penalty_Charging>
0

> <r_epik_Ionization_Penalty_Neutral>
1.22359

> <r_epik_State_Penalty>
1.29103

> <r_epik_Charging_Adjusted_Penalty>
1.29103

> <i_epik_Tot_Q>
0

> <i_epik_Tot_abs_Q>
0

> <r_epik_Metal_State_Penalty>
1.29103

> <b_epik_Metal_Only>
0

> <s_lp_Force_Field>
OPLS_2005

> <r_lp_Energy>
45.8422

> <b_lp_Chiralities_Consistent>
1

> <s_lp_Variant>
AV-unprocessed.smi:3068-9

> <Gold.Version>
5.8.1

> <Gold.Id.Protein>
6NUR|6NUR_protein|mol2

> <Gold.PLP.Fitness>
46.0722

> <Gold.PLP.PLP>
-37.8923

> <Gold.PLP.part.hbond>
-2.3848

> <Gold.PLP.part.metal>
0.0000

> <Gold.PLP.part.buried>
-6.4205

> <Gold.PLP.part.nonpolar>
-30.3542

> <Gold.PLP.part.repulsive>
0.2188

> <Gold.PLP.ligand.clash>
0.0000

> <Gold.PLP.ligand.torsion>
0.1380

> <Gold.PLP.Chemscore.Hbond>
1.8160

> <Gold.PLP.Chemscore.CHOScore>
1.0000

> <Gold.PLP.Chemscore.Metal>
0.0000

> <Gold.Chemscore.Hbonds>
donor molecule, donor type, donor heavy atom, donor atom, acceptor molecule, acceptor atom, score
      P1  H  6896  6908       L1     1  0.64
      P1  H  7997  8010       L1     7  1.00
      L1  C     5    21       P1  7949  1.00

> <Gold.PLP.Chemscore.Internal.Correction>
0.0079

> <Gold.Rescore>
     Score         DG    S(hbond)    S(metal)    S(lipo)     H(rot)  DE(clash)    DE(int)     intcor
     21.07     -21.20       1.77        0.00     112.43       1.30       0.01       0.12       ----

> <Gold.Chemscore.Fitness>
21.0688

> <Gold.Chemscore.DG>
-21.1968

> <Gold.Chemscore.ZeroCoef>
-5.4800

> <Gold.Chemscore.Hbond>
1.7651

> <Gold.Chemscore.Metal>
0.0000

> <Gold.Chemscore.Lipo>
112.4276

> <Gold.Chemscore.Internal_Hbond>
0.0000

> <Gold.Chemscore.DEClash>
0.0129

> <Gold.Chemscore.DEInternal>
0.1151

> <Gold.Chemscore.Rot>
1.3019

> <Gold.Chemscore.Internal.Correction>
   9.000000E+99

> <Gold.Chemscore.Hbonds>
donor molecule, donor type, donor heavy atom, donor atom, acceptor molecule, acceptor atom, score
      P1  H  6896  6908       L1     1  0.62
      P1  H  7997  8010       L1     7  0.72

> <Gold.Chemscore.Hbond.Weighted>
-5.8955

> <Gold.Chemscore.Metal.Weighted>
-0.0000

> <Gold.Chemscore.Lipo.Weighted>
-13.1540

> <Gold.Chemscore.Internal_Hbond.Weighted>
0.0000

> <Gold.Chemscore.DEClash.Weighted>
0.0129

> <Gold.Chemscore.DEInternal.Weighted>
0.1151

> <Gold.Chemscore.Rot.Weighted>
3.3327

> <Gold.Chemscore.Internal.Correction.Weighted>
   9.000000E+99

> <Gold.Protein.RotatedTorsions>
[ 6907 6896 6895 6894 ] final  158.24 input  -60.11 | X-H torsion
[ 7974 7965 7964 7962 ] final -132.06 input  175.53 | X-H torsion
[ 8008 7997 7996 7995 ] final   64.39 input   59.86 | X-H torsion
[ 10167 10162 10161 10158 ] final  -27.77 input  -65.29 | X-H torsion
[ 10718 10713 10712 10709 ] final   47.83 input   66.30 | X-H torsion
[ 10763 10752 10751 10750 ] final  121.21 input  -60.55 | X-H torsion
[ 11005 11000 10999 10996 ] final   75.70 input  -57.11 | X-H torsion

> <Gold.Protein.ActiveResidues>
 VAL166  LYS551  ARG553  GLY616  TRP617  ASP618  TYR619  PRO620  LYS621  CYS622 
 ASP623  PHE694  ASN695  SER759  ASP760  ASP761  ALA762  ILE779  LEU786  VAL792 
 PHE793  MET794  SER795  GLU796  ALA797  LYS798  CYS799  TRP800  GLU811  SER814 

> <Gold.Protein.RotatedAtoms>
  152.0033  133.3833  159.4190 H   0  0  0  0  0  0  0  0  0  0  0  0  # atno 6907 bound_to 6896
  150.6907  134.3810  159.5043 H   0  0  0  0  0  0  0  0  0  0  0  0  # atno 6908 bound_to 6896
  152.1560  134.8950  160.0595 H   0  0  0  0  0  0  0  0  0  0  0  0  # atno 6909 bound_to 6896
  144.9321  140.7140  143.4899 H   0  0  0  0  0  0  0  0  0  0  0  0  # atno 7974 bound_to 7965
  155.6453  140.3497  155.4729 H   0  0  0  0  0  0  0  0  0  0  0  0  # atno 8008 bound_to 7997
  155.9892  140.1190  157.0677 H   0  0  0  0  0  0  0  0  0  0  0  0  # atno 8009 bound_to 7997
  154.4214  140.1123  156.5528 H   0  0  0  0  0  0  0  0  0  0  0  0  # atno 8010 bound_to 7997
  140.7275  143.4066  151.1175 H   0  0  0  0  0  0  0  0  0  0  0  0  # atno 10167 bound_to 10162
  157.4625  130.8205  149.7901 H   0  0  0  0  0  0  0  0  0  0  0  0  # atno 10718 bound_to 10713
  153.6105  135.3431  155.2977 H   0  0  0  0  0  0  0  0  0  0  0  0  # atno 10763 bound_to 10752
  154.8619  135.4249  154.2315 H   0  0  0  0  0  0  0  0  0  0  0  0  # atno 10764 bound_to 10752
  153.3164  135.7035  153.7141 H   0  0  0  0  0  0  0  0  0  0  0  0  # atno 10765 bound_to 10752
  139.9331  134.7539  156.1304 H   0  0  0  0  0  0  0  0  0  0  0  0  # atno 11005 bound_to 11000
  145.3126  139.1814  143.4631 LP  0  0  0  0  0  0  0  0  0  0  0  0  # atno 17320 bound_to 7965
  146.3251  140.3132  142.8628 LP  0  0  0  0  0  0  0  0  0  0  0  0  # atno 17321 bound_to 7965
  139.7693  143.8518  152.3117 LP  0  0  0  0  0  0  0  0  0  0  0  0  # atno 17342 bound_to 10162
  139.8431  144.7200  150.9306 LP  0  0  0  0  0  0  0  0  0  0  0  0  # atno 17343 bound_to 10162
  156.0035  130.3867  150.2517 LP  0  0  0  0  0  0  0  0  0  0  0  0  # atno 17370 bound_to 10713
  157.0695  131.0113  151.3195 LP  0  0  0  0  0  0  0  0  0  0  0  0  # atno 17371 bound_to 10713
  141.0931  133.6706  156.2585 LP  0  0  0  0  0  0  0  0  0  0  0  0  # atno 17394 bound_to 11000
  140.6147  134.5423  157.5539 LP  0  0  0  0  0  0  0  0  0  0  0  0  # atno 17395 bound_to 11000

$$$$
