AV-unprocessed.smi:221|AV-procd|sdf|1693|dock8
  -GOLD-   2262020143D 1   1.00000     0.00000
 Structure written by MMmdl.
 50 53  0  0  0  0  0  0  0  0  1 V2000
  148.1806  132.0786  152.2153 N   0  0  0  0  0  0  0  0  0  0  0  0
  147.0306  132.6769  152.5335 C   0  0  0  0  0  0  0  0  0  0  0  0
  146.7684  133.0190  153.6855 O   0  0  0  0  0  0  0  0  0  0  0  0
  146.0296  132.9062  151.3898 C   0  0  1  0  0  0  0  0  0  0  0  0
  145.6055  131.5768  150.7440 C   0  0  0  0  0  0  0  0  0  0  0  0
  144.2087  131.8637  150.2019 C   0  0  2  0  0  0  0  0  0  0  0  0
  144.3074  132.4855  149.0258 F   0  0  0  0  0  0  0  0  0  0  0  0
  143.6201  132.8220  151.2371 C   0  0  0  0  0  0  0  0  0  0  0  0
  144.7639  133.4841  151.8534 N   0  0  0  0  0  0  0  0  0  0  0  0
  144.6508  134.7804  152.2487 C   0  0  0  0  0  0  0  0  0  0  0  0
  145.7615  135.5634  152.3008 N   0  0  0  0  0  0  0  0  0  0  0  0
  145.6758  136.8392  152.6869 C   0  0  0  0  0  0  0  0  0  0  0  0
  144.5965  137.5256  153.0639 N   0  0  0  0  0  0  0  0  0  0  0  0
  143.4785  136.7462  153.0241 C   0  0  0  0  0  0  0  0  0  0  0  0
  143.4148  135.3784  152.6314 C   0  0  0  0  0  0  0  0  0  0  0  0
  142.1048  134.9223  152.7336 N   0  0  0  0  0  0  0  0  0  0  0  0
  141.4356  135.9573  153.1620 C   0  0  0  0  0  0  0  0  0  0  0  0
  142.1838  137.0929  153.3680 N   0  0  0  0  0  0  0  0  0  0  0  0
  141.6977  138.3738  153.8492 C   0  0  0  0  0  0  0  0  0  0  0  0
  140.9401  138.2927  155.2016 C   0  0  1  0  0  0  0  0  0  0  0  0
  140.6447  139.6936  155.7975 C   0  0  0  0  0  0  0  0  0  0  0  0
  141.8205  140.4655  155.9328 O   0  0  0  0  0  0  0  0  0  0  0  0
  139.6387  137.4643  155.0359 C   0  0  2  0  0  0  0  0  0  0  0  0
  138.6738  137.9764  153.9781 C   0  0  0  0  0  0  0  0  0  0  0  0
  137.3645  137.3022  154.3724 C   0  0  0  0  0  0  0  0  0  0  0  0
  137.4088  137.1732  155.7881 O   0  0  0  0  0  0  0  0  0  0  0  0
  138.7177  137.4695  156.2624 C   0  0  0  0  0  0  0  0  0  0  0  0
  146.4648  133.5536  150.6257 H   0  0  0  0  0  0  0  0  0  0  0  0
  143.6068  130.9671  150.0518 H   0  0  0  0  0  0  0  0  0  0  0  0
  148.8724  131.9118  152.9316 H   0  0  0  0  0  0  0  0  0  0  0  0
  148.3574  131.8009  151.2610 H   0  0  0  0  0  0  0  0  0  0  0  0
  146.2968  131.2459  149.9680 H   0  0  0  0  0  0  0  0  0  0  0  0
  145.5415  130.7829  151.4905 H   0  0  0  0  0  0  0  0  0  0  0  0
  142.9183  133.5197  150.7769 H   0  0  0  0  0  0  0  0  0  0  0  0
  143.0882  132.2660  152.0099 H   0  0  0  0  0  0  0  0  0  0  0  0
  146.6058  137.3883  152.6962 H   0  0  0  0  0  0  0  0  0  0  0  0
  140.3724  135.9190  153.3489 H   0  0  0  0  0  0  0  0  0  0  0  0
  142.5450  139.0552  153.9355 H   0  0  0  0  0  0  0  0  0  0  0  0
  141.0541  138.7850  153.0716 H   0  0  0  0  0  0  0  0  0  0  0  0
  141.5728  137.7557  155.9104 H   0  0  0  0  0  0  0  0  0  0  0  0
  139.9202  140.2311  155.1850 H   0  0  0  0  0  0  0  0  0  0  0  0
  140.2161  139.6224  156.7954 H   0  0  0  0  0  0  0  0  0  0  0  0
  141.9185  140.7082  156.8410 H   0  0  0  0  0  0  0  0  0  0  0  0
  139.8941  136.4300  154.7986 H   0  0  0  0  0  0  0  0  0  0  0  0
  138.5716  139.0604  154.0474 H   0  0  0  0  0  0  0  0  0  0  0  0
  138.9679  137.7250  152.9592 H   0  0  0  0  0  0  0  0  0  0  0  0
  136.4904  137.8681  154.0494 H   0  0  0  0  0  0  0  0  0  0  0  0
  137.3036  136.3049  153.9351 H   0  0  0  0  0  0  0  0  0  0  0  0
  139.0260  136.7494  157.0206 H   0  0  0  0  0  0  0  0  0  0  0  0
  138.6951  138.4572  156.7251 H   0  0  0  0  0  0  0  0  0  0  0  0
  1  2  1  0  0  0  0
  1 30  1  0  0  0  0
  1 31  1  0  0  0  0
  2  3  2  0  0  0  0
  2  4  1  0  0  0  0
  4 28  1  0  0  0  0
  4  9  1  0  0  0  0
  4  5  1  0  0  0  0
  5  6  1  0  0  0  0
  5 32  1  0  0  0  0
  5 33  1  0  0  0  0
  6 29  1  0  0  0  0
  6  7  1  0  0  0  0
  6  8  1  0  0  0  0
  8  9  1  0  0  0  0
  8 34  1  0  0  0  0
  8 35  1  0  0  0  0
  9 10  1  0  0  0  0
 10 15  1  0  0  0  0
 10 11  2  0  0  0  0
 11 12  1  0  0  0  0
 12 13  2  0  0  0  0
 12 36  1  0  0  0  0
 13 14  1  0  0  0  0
 14 18  1  0  0  0  0
 14 15  2  0  0  0  0
 15 16  1  0  0  0  0
 16 17  2  0  0  0  0
 17 18  1  0  0  0  0
 17 37  1  0  0  0  0
 18 19  1  0  0  0  0
 19 20  1  0  0  0  0
 19 38  1  0  0  0  0
 19 39  1  0  0  0  0
 20 21  1  0  0  0  0
 20 23  1  0  0  0  0
 20 40  1  0  0  0  0
 21 22  1  0  0  0  0
 21 41  1  0  0  0  0
 21 42  1  0  0  0  0
 22 43  1  0  0  0  0
 23 27  1  0  0  0  0
 23 24  1  0  0  0  0
 23 44  1  0  0  0  0
 24 25  1  0  0  0  0
 24 45  1  0  0  0  0
 24 46  1  0  0  0  0
 25 26  1  0  0  0  0
 25 47  1  0  0  0  0
 25 48  1  0  0  0  0
 26 27  1  0  0  0  0
 27 49  1  0  0  0  0
 27 50  1  0  0  0  0
M  END
> <s_m_source_file>
AV-unprocessed.smi

> <i_m_source_file_index>
221

> <i_lp_mmshare_version>
43012

> <i_f3d_flags>
0

> <s_epik_input>
W05IMl1DKD1PKVtDQEBIXTFbQ0gyXVtDQEBIXShGKVtDSDJdTjFjKG5bY0hdbjIpYyhjMjMpbltjSF1uM1tDSDJdW0NASF0oW0NIMl1bT0hdKVtDQEBIXTRbQ0gyXVtDSDJdT1tDSDJdNA==

> <s_epik_cmdline>
J2VwaWtfcHl0aG9uJywgJy1waCcsICc3LjAnLCAnLXRuJywgJzgnLCAnLW1hJywgJzIwMCcsICctbWV0YWxfYmluZGluZycsICctaW1hZScsICc8aW5maWxlLm1hZT4nLCAnLW9tYWUnLCAnPG91dGZpbGUubWFlPic=

> <r_lp_tautomer_probability>
1

> <r_epik_Ionization_Penalty>
0.000818822

> <r_epik_Ionization_Penalty_Charging>
0

> <r_epik_Ionization_Penalty_Neutral>
0.000818822

> <r_epik_State_Penalty>
0.000440551

> <r_epik_Charging_Adjusted_Penalty>
0.000440551

> <i_epik_Tot_Q>
0

> <i_epik_Tot_abs_Q>
0

> <r_epik_Metal_State_Penalty>
-0

> <b_epik_Metal_Only>
0

> <s_lp_Force_Field>
OPLS_2005

> <r_lp_Energy>
48.2465

> <b_lp_Chiralities_Consistent>
1

> <s_lp_Variant>
AV-unprocessed.smi:221-8

> <Gold.Version>
5.8.1

> <Gold.Id.Protein>
6NUR|6NUR_protein|mol2

> <Gold.PLP.Fitness>
44.0713

> <Gold.PLP.PLP>
-40.1815

> <Gold.PLP.part.hbond>
-0.8307

> <Gold.PLP.part.metal>
0.0000

> <Gold.PLP.part.buried>
-8.4589

> <Gold.PLP.part.nonpolar>
-31.8013

> <Gold.PLP.part.repulsive>
0.8070

> <Gold.PLP.ligand.clash>
0.0000

> <Gold.PLP.ligand.torsion>
0.3052

> <Gold.PLP.Chemscore.Hbond>
1.0000

> <Gold.PLP.Chemscore.CHOScore>
0.3925

> <Gold.PLP.Chemscore.Metal>
0.0000

> <Gold.Chemscore.Hbonds>
donor molecule, donor type, donor heavy atom, donor atom, acceptor molecule, acceptor atom, score
      L1  H     1    31       P1 10747  0.90
      L1  C    12    36       P1  7948  0.40
      L1  C    17    37       P1 10187  0.01

> <Gold.PLP.Chemscore.Internal.Correction>
0.3225

> <Gold.Rescore>
     Score         DG    S(hbond)    S(metal)    S(lipo)     H(rot)  DE(clash)    DE(int)     intcor
      6.60      -8.29       0.99        0.00      68.17       3.31       0.26       1.42       ----

> <Gold.Chemscore.Fitness>
6.6046

> <Gold.Chemscore.DG>
-8.2895

> <Gold.Chemscore.ZeroCoef>
-5.4800

> <Gold.Chemscore.Hbond>
0.9895

> <Gold.Chemscore.Metal>
0.0000

> <Gold.Chemscore.Lipo>
68.1652

> <Gold.Chemscore.Internal_Hbond>
0.0000

> <Gold.Chemscore.DEClash>
0.2616

> <Gold.Chemscore.DEInternal>
1.4233

> <Gold.Chemscore.Rot>
3.3089

> <Gold.Chemscore.Internal.Correction>
   9.000000E+99

> <Gold.Chemscore.Hbonds>
donor molecule, donor type, donor heavy atom, donor atom, acceptor molecule, acceptor atom, score
      L1  H     1    31       P1 10747  0.82

> <Gold.Chemscore.Hbond.Weighted>
-3.3050

> <Gold.Chemscore.Metal.Weighted>
-0.0000

> <Gold.Chemscore.Lipo.Weighted>
-7.9753

> <Gold.Chemscore.Internal_Hbond.Weighted>
0.0000

> <Gold.Chemscore.DEClash.Weighted>
0.2616

> <Gold.Chemscore.DEInternal.Weighted>
1.4233

> <Gold.Chemscore.Rot.Weighted>
8.4709

> <Gold.Chemscore.Internal.Correction.Weighted>
   9.000000E+99

> <Gold.Protein.RotatedTorsions>
[ 6907 6896 6895 6894 ] final -167.13 input  -60.11 | X-H torsion
[ 7974 7965 7964 7962 ] final  -50.10 input  175.53 | X-H torsion
[ 8008 7997 7996 7995 ] final  145.07 input   59.86 | X-H torsion
[ 10167 10162 10161 10158 ] final    9.09 input  -65.29 | X-H torsion
[ 10718 10713 10712 10709 ] final  -52.29 input   66.30 | X-H torsion
[ 10763 10752 10751 10750 ] final   98.38 input  -60.55 | X-H torsion
[ 11005 11000 10999 10996 ] final  -11.29 input  -57.11 | X-H torsion

> <Gold.Protein.ActiveResidues>
 VAL166  LYS551  ARG553  GLY616  TRP617  ASP618  TYR619  PRO620  LYS621  CYS622 
 ASP623  PHE694  ASN695  SER759  ASP760  ASP761  ALA762  ILE779  LEU786  VAL792 
 PHE793  MET794  SER795  GLU796  ALA797  LYS798  CYS799  TRP800  GLU811  SER814 

> <Gold.Protein.RotatedAtoms>
  151.4547  133.3608  159.2800 H   0  0  0  0  0  0  0  0  0  0  0  0  # atno 6907 bound_to 6896
  150.9067  134.8484  159.7408 H   0  0  0  0  0  0  0  0  0  0  0  0  # atno 6908 bound_to 6896
  152.4910  134.4472  159.9615 H   0  0  0  0  0  0  0  0  0  0  0  0  # atno 6909 bound_to 6896
  145.9335  140.7727  142.9587 H   0  0  0  0  0  0  0  0  0  0  0  0  # atno 7974 bound_to 7965
  156.2892  140.2219  156.5155 H   0  0  0  0  0  0  0  0  0  0  0  0  # atno 8008 bound_to 7997
  154.7572  140.0476  157.0965 H   0  0  0  0  0  0  0  0  0  0  0  0  # atno 8009 bound_to 7997
  155.0035  140.3104  155.4861 H   0  0  0  0  0  0  0  0  0  0  0  0  # atno 8010 bound_to 7997
  140.6276  143.8067  150.7253 H   0  0  0  0  0  0  0  0  0  0  0  0  # atno 10167 bound_to 10162
  156.1634  130.4149  149.9757 H   0  0  0  0  0  0  0  0  0  0  0  0  # atno 10718 bound_to 10713
  153.2884  135.4150  155.1144 H   0  0  0  0  0  0  0  0  0  0  0  0  # atno 10763 bound_to 10752
  154.8512  135.3512  154.6015 H   0  0  0  0  0  0  0  0  0  0  0  0  # atno 10764 bound_to 10752
  153.6437  135.7056  153.5290 H   0  0  0  0  0  0  0  0  0  0  0  0  # atno 10765 bound_to 10752
  140.7537  133.8571  155.9066 H   0  0  0  0  0  0  0  0  0  0  0  0  # atno 11005 bound_to 11000
  144.6768  140.2165  143.7371 LP  0  0  0  0  0  0  0  0  0  0  0  0  # atno 17320 bound_to 7965
  145.8394  139.2123  143.1836 LP  0  0  0  0  0  0  0  0  0  0  0  0  # atno 17321 bound_to 7965
  140.1671  143.4226  152.2027 LP  0  0  0  0  0  0  0  0  0  0  0  0  # atno 17342 bound_to 10162
  139.5494  144.7325  151.4482 LP  0  0  0  0  0  0  0  0  0  0  0  0  # atno 17343 bound_to 10162
  156.7579  130.9140  151.3640 LP  0  0  0  0  0  0  0  0  0  0  0  0  # atno 17370 bound_to 10713
  157.6750  130.9086  150.0128 LP  0  0  0  0  0  0  0  0  0  0  0  0  # atno 17371 bound_to 10713
  140.9727  134.1510  157.4563 LP  0  0  0  0  0  0  0  0  0  0  0  0  # atno 17394 bound_to 11000
  139.8783  134.9984  156.5897 LP  0  0  0  0  0  0  0  0  0  0  0  0  # atno 17395 bound_to 11000

$$$$
