AV-unprocessed.smi:910|AV-procd|sdf|4132|dock4
  -GOLD-   22720 2 33D 1   1.00000     0.00000
 Structure written by MMmdl.
 45 46  0  0  0  0  0  0  0  0  2 V2000
  145.1920  137.4961  161.5054 C   0  0  0  0  0  0  0  0  0  0  0  0
  146.1959  136.6680  160.7673 C   0  0  0  0  0  0  0  0  0  0  0  0
  147.2295  137.2329  160.0357 N   0  0  0  0  0  0  0  0  0  0  0  0
  147.9127  136.2091  159.5202 C   0  0  0  0  0  0  0  0  0  0  0  0
  149.0057  136.2939  158.7451 N   0  5  0  0  0  0  0  0  0  0  0  0
  149.6823  137.4612  158.6585 C   0  0  0  0  0  0  0  0  0  0  0  0
  149.2507  138.5251  158.2081 O   0  0  0  0  0  0  0  0  0  0  0  0
  150.9381  137.3919  159.1230 N   0  0  0  0  0  0  0  0  0  0  0  0
  151.9018  138.4871  159.1536 C   0  0  0  0  0  0  0  0  0  0  0  0
  152.0104  139.1837  157.7903 C   0  0  0  0  0  0  0  0  0  0  0  0
  152.7644  140.3784  157.9397 O   0  0  0  0  0  0  0  0  0  0  0  0
  152.1216  141.3876  158.7080 C   0  0  2  0  0  0  0  0  0  0  0  0
  151.5475  142.4667  157.7649 C   0  0  0  0  0  0  0  0  0  0  0  0
  150.9559  143.6461  158.5511 C   0  0  0  0  0  0  0  0  0  0  0  0
  151.9957  144.2519  159.5038 C   0  0  0  0  0  0  0  0  0  0  0  0
  152.5694  143.1832  160.4464 C   0  0  0  0  0  0  0  0  0  0  0  0
  153.1694  141.9945  159.6685 C   0  0  1  0  0  0  0  0  0  0  0  0
  153.7324  140.9427  160.6382 C   0  0  0  0  0  0  0  0  0  0  0  0
  147.3851  135.0057  159.8847 O   0  0  0  0  0  0  0  0  0  0  0  0
  146.3039  135.3071  160.6670 C   0  0  0  0  0  0  0  0  0  0  0  0
  145.5067  134.1774  161.2240 C   0  0  0  0  0  0  0  0  0  0  0  0
  145.3261  137.4048  162.5832 H   0  0  0  0  0  0  0  0  0  0  0  0
  144.1752  137.1821  161.2695 H   0  0  0  0  0  0  0  0  0  0  0  0
  145.2785  138.5525  161.2493 H   0  0  0  0  0  0  0  0  0  0  0  0
  151.2517  136.5003  159.4774 H   0  0  0  0  0  0  0  0  0  0  0  0
  151.6206  139.2076  159.9232 H   0  0  0  0  0  0  0  0  0  0  0  0
  152.8727  138.0871  159.4460 H   0  0  0  0  0  0  0  0  0  0  0  0
  152.4638  138.5154  157.0579 H   0  0  0  0  0  0  0  0  0  0  0  0
  151.0115  139.4297  157.4279 H   0  0  0  0  0  0  0  0  0  0  0  0
  151.3162  140.9532  159.3039 H   0  0  0  0  0  0  0  0  0  0  0  0
  152.3357  142.8294  157.1037 H   0  0  0  0  0  0  0  0  0  0  0  0
  150.7770  142.0456  157.1196 H   0  0  0  0  0  0  0  0  0  0  0  0
  150.5947  144.4090  157.8610 H   0  0  0  0  0  0  0  0  0  0  0  0
  150.0895  143.3077  159.1209 H   0  0  0  0  0  0  0  0  0  0  0  0
  152.8032  144.7039  158.9264 H   0  0  0  0  0  0  0  0  0  0  0  0
  151.5434  145.0558  160.0854 H   0  0  0  0  0  0  0  0  0  0  0  0
  153.3302  143.6331  161.0852 H   0  0  0  0  0  0  0  0  0  0  0  0
  151.7814  142.8265  161.1113 H   0  0  0  0  0  0  0  0  0  0  0  0
  153.9998  142.3714  159.0694 H   0  0  0  0  0  0  0  0  0  0  0  0
  152.9451  140.5138  161.2586 H   0  0  0  0  0  0  0  0  0  0  0  0
  154.4784  141.3812  161.3013 H   0  0  0  0  0  0  0  0  0  0  0  0
  154.2146  140.1253  160.1018 H   0  0  0  0  0  0  0  0  0  0  0  0
  144.4759  134.2234  160.8730 H   0  0  0  0  0  0  0  0  0  0  0  0
  145.4961  134.2145  162.3133 H   0  0  0  0  0  0  0  0  0  0  0  0
  145.9245  133.2166  160.9224 H   0  0  0  0  0  0  0  0  0  0  0  0
  1 22  1  0  0  0  0
  1 23  1  0  0  0  0
  1 24  1  0  0  0  0
  1  2  1  0  0  0  0
  2  3  1  0  0  0  0
  2 20  2  0  0  0  0
  3  4  2  0  0  0  0
  4 19  1  0  0  0  0
  4  5  1  0  0  0  0
  5  6  1  0  0  0  0
  6  8  1  0  0  0  0
  6  7  2  0  0  0  0
  8  9  1  0  0  0  0
  8 25  1  0  0  0  0
  9 10  1  0  0  0  0
  9 26  1  0  0  0  0
  9 27  1  0  0  0  0
 10 11  1  0  0  0  0
 10 28  1  0  0  0  0
 10 29  1  0  0  0  0
 11 12  1  0  0  0  0
 12 17  1  0  0  0  0
 12 13  1  0  0  0  0
 12 30  1  0  0  0  0
 13 14  1  0  0  0  0
 13 31  1  0  0  0  0
 13 32  1  0  0  0  0
 14 15  1  0  0  0  0
 14 33  1  0  0  0  0
 14 34  1  0  0  0  0
 15 16  1  0  0  0  0
 15 35  1  0  0  0  0
 15 36  1  0  0  0  0
 16 17  1  0  0  0  0
 16 37  1  0  0  0  0
 16 38  1  0  0  0  0
 17 18  1  0  0  0  0
 17 39  1  0  0  0  0
 18 40  1  0  0  0  0
 18 41  1  0  0  0  0
 18 42  1  0  0  0  0
 19 20  1  0  0  0  0
 20 21  1  0  0  0  0
 21 43  1  0  0  0  0
 21 44  1  0  0  0  0
 21 45  1  0  0  0  0
M  CHG  1   5  -1
M  END
> <s_m_source_file>
AV-unprocessed.smi

> <i_m_source_file_index>
910

> <i_lp_mmshare_version>
43012

> <i_f3d_flags>
0

> <s_epik_input>
W0NIM11jMW5jKG9jMVtDSDNdKVtOSF1DKD1PKVtOSF1bQ0gyXVtDSDJdT1tDQEBIXTJbQ0gyXVtDSDJdW0NIMl1bQ0gyXVtDQEhdMltDSDNd

> <s_epik_cmdline>
J2VwaWtfcHl0aG9uJywgJy1waCcsICc3LjAnLCAnLXRuJywgJzgnLCAnLW1hJywgJzIwMCcsICctbWV0YWxfYmluZGluZycsICctaW1hZScsICc8aW5maWxlLm1hZT4nLCAnLW9tYWUnLCAnPG91dGZpbGUubWFlPic=

> <r_lp_tautomer_probability>
0.107061

> <r_epik_Ionization_Penalty>
10.1763

> <r_epik_Ionization_Penalty_Charging>
7.13067

> <r_epik_Ionization_Penalty_Neutral>
3.04564

> <r_epik_State_Penalty>
5.57927

> <r_epik_Charging_Adjusted_Penalty>
12.7099

> <i_epik_Tot_Q>
-1

> <i_epik_Tot_abs_Q>
1

> <r_epik_Metal_State_Penalty>
1.52303

> <b_epik_Metal_Only>
1

> <s_lp_Force_Field>
OPLS_2005

> <r_lp_Energy>
4.71476

> <b_lp_Chiralities_Consistent>
1

> <s_lp_Variant>
AV-unprocessed.smi:910-17

> <Gold.Version>
5.8.1

> <Gold.Id.Protein>
6NUR|6NUR_protein|mol2

> <Gold.PLP.Fitness>
55.5714

> <Gold.PLP.PLP>
-44.1238

> <Gold.PLP.part.hbond>
-4.0380

> <Gold.PLP.part.metal>
0.0000

> <Gold.PLP.part.buried>
-5.1604

> <Gold.PLP.part.nonpolar>
-35.1944

> <Gold.PLP.part.repulsive>
0.1796

> <Gold.PLP.ligand.clash>
0.0000

> <Gold.PLP.ligand.torsion>
1.3484

> <Gold.PLP.Chemscore.Hbond>
4.6880

> <Gold.PLP.Chemscore.CHOScore>
0.0000

> <Gold.PLP.Chemscore.Metal>
0.0000

> <Gold.Chemscore.Hbonds>
donor molecule, donor type, donor heavy atom, donor atom, acceptor molecule, acceptor atom, score
      P1  H  6934  6947       L1     3  0.85
      P1  H  7997  8009       L1    11  0.87

> <Gold.PLP.Chemscore.Internal.Correction>
0.0803

> <Gold.Rescore>
     Score         DG    S(hbond)    S(metal)    S(lipo)     H(rot)  DE(clash)    DE(int)     intcor
     20.09     -23.23       2.40        0.00     118.43       1.62       0.40       2.74       ----

> <Gold.Chemscore.Fitness>
20.0871

> <Gold.Chemscore.DG>
-23.2259

> <Gold.Chemscore.ZeroCoef>
-5.4800

> <Gold.Chemscore.Hbond>
2.4038

> <Gold.Chemscore.Metal>
0.0000

> <Gold.Chemscore.Lipo>
118.4320

> <Gold.Chemscore.Internal_Hbond>
0.0000

> <Gold.Chemscore.DEClash>
0.4027

> <Gold.Chemscore.DEInternal>
2.7362

> <Gold.Chemscore.Rot>
1.6169

> <Gold.Chemscore.Internal.Correction>
   9.000000E+99

> <Gold.Chemscore.Hbonds>
donor molecule, donor type, donor heavy atom, donor atom, acceptor molecule, acceptor atom, score
      P1  H  6934  6947       L1     3  0.14
      P1  H  7997  8009       L1    11  0.45

> <Gold.Chemscore.Hbond.Weighted>
-8.0286

> <Gold.Chemscore.Metal.Weighted>
-0.0000

> <Gold.Chemscore.Lipo.Weighted>
-13.8565

> <Gold.Chemscore.Internal_Hbond.Weighted>
0.0000

> <Gold.Chemscore.DEClash.Weighted>
0.4027

> <Gold.Chemscore.DEInternal.Weighted>
2.7362

> <Gold.Chemscore.Rot.Weighted>
4.1393

> <Gold.Chemscore.Internal.Correction.Weighted>
   9.000000E+99

> <Gold.Protein.RotatedTorsions>
[ 6907 6896 6895 6894 ] final  -58.38 input  -60.11 | X-H torsion
[ 7974 7965 7964 7962 ] final   -1.14 input  175.53 | X-H torsion
[ 8008 7997 7996 7995 ] final  161.83 input   59.86 | X-H torsion
[ 10167 10162 10161 10158 ] final  158.49 input  -65.29 | X-H torsion
[ 10718 10713 10712 10709 ] final  116.93 input   66.30 | X-H torsion
[ 10763 10752 10751 10750 ] final  -19.82 input  -60.55 | X-H torsion
[ 11005 11000 10999 10996 ] final   32.00 input  -57.11 | X-H torsion

> <Gold.Protein.ActiveResidues>
 VAL166  LYS551  ARG553  GLY616  TRP617  ASP618  TYR619  PRO620  LYS621  CYS622 
 ASP623  PHE694  ASN695  SER759  ASP760  ASP761  ALA762  ILE779  LEU786  VAL792 
 PHE793  MET794  SER795  GLU796  ALA797  LYS798  CYS799  TRP800  GLU811  SER814 

> <Gold.Protein.RotatedAtoms>
  150.8011  134.7106  159.6601 H   0  0  0  0  0  0  0  0  0  0  0  0  # atno 6907 bound_to 6896
  152.4128  134.6091  160.0030 H   0  0  0  0  0  0  0  0  0  0  0  0  # atno 6908 bound_to 6896
  151.6328  133.3294  159.3149 H   0  0  0  0  0  0  0  0  0  0  0  0  # atno 6909 bound_to 6896
  146.2420  140.1375  142.8336 H   0  0  0  0  0  0  0  0  0  0  0  0  # atno 7974 bound_to 7965
  156.2075  140.1767  156.7767 H   0  0  0  0  0  0  0  0  0  0  0  0  # atno 8008 bound_to 7997
  154.5676  140.0688  156.8945 H   0  0  0  0  0  0  0  0  0  0  0  0  # atno 8009 bound_to 7997
  155.2732  140.3344  155.4266 H   0  0  0  0  0  0  0  0  0  0  0  0  # atno 8010 bound_to 7997
  139.4827  144.4820  151.8431 H   0  0  0  0  0  0  0  0  0  0  0  0  # atno 10167 bound_to 10162
  157.6129  131.1031  150.7542 H   0  0  0  0  0  0  0  0  0  0  0  0  # atno 10718 bound_to 10713
  153.6108  135.6996  153.5347 H   0  0  0  0  0  0  0  0  0  0  0  0  # atno 10763 bound_to 10752
  153.3018  135.4126  155.1259 H   0  0  0  0  0  0  0  0  0  0  0  0  # atno 10764 bound_to 10752
  154.8564  135.3650  154.5646 H   0  0  0  0  0  0  0  0  0  0  0  0  # atno 10765 bound_to 10752
  140.2780  134.3005  155.7808 H   0  0  0  0  0  0  0  0  0  0  0  0  # atno 11005 bound_to 11000
  145.0274  140.8843  143.5130 LP  0  0  0  0  0  0  0  0  0  0  0  0  # atno 17320 bound_to 7965
  145.1434  139.2558  143.5478 LP  0  0  0  0  0  0  0  0  0  0  0  0  # atno 17321 bound_to 7965
  140.4297  144.2133  150.5888 LP  0  0  0  0  0  0  0  0  0  0  0  0  # atno 17342 bound_to 10162
  140.4792  143.2385  151.8979 LP  0  0  0  0  0  0  0  0  0  0  0  0  # atno 17343 bound_to 10162
  156.7916  130.4892  149.5384 LP  0  0  0  0  0  0  0  0  0  0  0  0  # atno 17370 bound_to 10713
  156.1239  130.6130  151.0235 LP  0  0  0  0  0  0  0  0  0  0  0  0  # atno 17371 bound_to 10713
  141.2167  133.7508  156.9437 LP  0  0  0  0  0  0  0  0  0  0  0  0  # atno 17394 bound_to 11000
  140.1310  134.9356  157.2337 LP  0  0  0  0  0  0  0  0  0  0  0  0  # atno 17395 bound_to 11000

$$$$
