AV-unprocessed.smi:3349|AV-procd|sdf|12936|dock1
  -GOLD-   2272019363D 1   1.00000     0.00000
 Structure written by MMmdl.
 41 42  0  0  0  0  0  0  0  0  2 V2000
  149.4821  132.7526  153.5740 C   0  0  0  0  0  0  0  0  0  0  0  0
  148.5257  133.7445  154.2828 C   0  0  1  0  0  0  0  0  0  0  0  0
  149.3331  134.7123  155.1894 C   0  0  0  0  0  0  0  0  0  0  0  0
  149.8705  135.8490  154.4508 N   0  0  0  0  0  0  0  0  0  0  0  0
  150.6621  136.7961  154.9761 C   0  0  0  0  0  0  0  0  0  0  0  0
  151.0444  136.7771  156.1467 O   0  0  0  0  0  0  0  0  0  0  0  0
  151.0694  137.9364  154.0299 C   0  0  2  0  0  0  0  0  0  0  0  0
  152.4639  138.5107  154.3426 C   0  0  0  0  0  0  0  0  0  0  0  0
  150.0570  138.9836  154.0429 N   0  0  0  0  0  0  0  0  0  0  0  0
  148.7586  138.9508  153.7292 C   0  0  0  0  0  0  0  0  0  0  0  0
  148.1483  140.1217  153.8465 N   0  0  0  0  0  0  0  0  0  0  0  0
  149.1997  140.8856  154.2672 C   0  0  0  0  0  0  0  0  0  0  0  0
  150.3666  140.2541  154.3966 N   0  0  0  0  0  0  0  0  0  0  0  0
  147.6616  134.4749  153.2947 N   0  3  0  0  0  0  0  0  0  0  0  0
  147.0093  133.5775  152.2993 C   0  0  0  0  0  0  0  0  0  0  0  0
  146.1534  134.3708  151.2978 C   0  0  0  0  0  0  0  0  0  0  0  0
  145.1775  135.1255  151.9974 O   0  0  0  0  0  0  0  0  0  0  0  0
  145.7852  136.0776  152.8552 C   0  0  0  0  0  0  0  0  0  0  0  0
  146.6350  135.3587  153.9170 C   0  0  0  0  0  0  0  0  0  0  0  0
  150.1618  132.2629  154.2710 H   0  0  0  0  0  0  0  0  0  0  0  0
  150.0929  133.2590  152.8261 H   0  0  0  0  0  0  0  0  0  0  0  0
  148.9492  131.9401  153.0829 H   0  0  0  0  0  0  0  0  0  0  0  0
  147.8647  133.1650  154.9295 H   0  0  0  0  0  0  0  0  0  0  0  0
  148.7019  135.0627  156.0082 H   0  0  0  0  0  0  0  0  0  0  0  0
  150.1970  134.2175  155.6313 H   0  0  0  0  0  0  0  0  0  0  0  0
  149.6033  135.9378  153.4807 H   0  0  0  0  0  0  0  0  0  0  0  0
  151.1084  137.5168  153.0226 H   0  0  0  0  0  0  0  0  0  0  0  0
  153.2277  137.7327  154.3151 H   0  0  0  0  0  0  0  0  0  0  0  0
  152.4992  138.9774  155.3279 H   0  0  0  0  0  0  0  0  0  0  0  0
  152.7442  139.2680  153.6098 H   0  0  0  0  0  0  0  0  0  0  0  0
  148.2517  138.0539  153.4042 H   0  0  0  0  0  0  0  0  0  0  0  0
  149.1029  141.9399  154.4814 H   0  0  0  0  0  0  0  0  0  0  0  0
  147.7487  133.0249  151.7230 H   0  0  0  0  0  0  0  0  0  0  0  0
  146.3900  132.8445  152.8185 H   0  0  0  0  0  0  0  0  0  0  0  0
  146.7745  135.0274  150.6862 H   0  0  0  0  0  0  0  0  0  0  0  0
  145.6464  133.6885  150.6153 H   0  0  0  0  0  0  0  0  0  0  0  0
  146.3930  136.7751  152.2763 H   0  0  0  0  0  0  0  0  0  0  0  0
  145.0037  136.6652  153.3373 H   0  0  0  0  0  0  0  0  0  0  0  0
  145.9936  134.7687  154.5736 H   0  0  0  0  0  0  0  0  0  0  0  0
  147.1003  136.1333  154.5238 H   0  0  0  0  0  0  0  0  0  0  0  0
  148.2764  135.0827  152.7723 H   0  0  0  0  0  0  0  0  0  0  0  0
  1  2  1  0  0  0  0
  1 20  1  0  0  0  0
  1 21  1  0  0  0  0
  1 22  1  0  0  0  0
  2  3  1  0  0  0  0
  2 14  1  0  0  0  0
  2 23  1  0  0  0  0
  3  4  1  0  0  0  0
  3 24  1  0  0  0  0
  3 25  1  0  0  0  0
  4  5  1  0  0  0  0
  4 26  1  0  0  0  0
  5  6  2  0  0  0  0
  5  7  1  0  0  0  0
  7  8  1  0  0  0  0
  7  9  1  0  0  0  0
  7 27  1  0  0  0  0
  8 28  1  0  0  0  0
  8 29  1  0  0  0  0
  8 30  1  0  0  0  0
  9 13  1  0  0  0  0
  9 10  1  0  0  0  0
 10 11  2  0  0  0  0
 10 31  1  0  0  0  0
 11 12  1  0  0  0  0
 12 13  2  0  0  0  0
 12 32  1  0  0  0  0
 14 19  1  0  0  0  0
 14 15  1  0  0  0  0
 14 41  1  0  0  0  0
 15 16  1  0  0  0  0
 15 33  1  0  0  0  0
 15 34  1  0  0  0  0
 16 17  1  0  0  0  0
 16 35  1  0  0  0  0
 16 36  1  0  0  0  0
 17 18  1  0  0  0  0
 18 19  1  0  0  0  0
 18 37  1  0  0  0  0
 18 38  1  0  0  0  0
 19 39  1  0  0  0  0
 19 40  1  0  0  0  0
M  CHG  1  14   1
M  END
> <s_m_source_file>
AV-unprocessed.smi

> <i_m_source_file_index>
3349

> <i_lp_mmshare_version>
43012

> <i_f3d_flags>
0

> <s_epik_input>
W0NIMl0xW0NIMl1PW0NIMl1bQ0gyXU4xW0NASF0oW0NIM10pW0NIMl1bTkhdQyg9TylbQ0BIXShbQ0gzXSluMltjSF1uW2NIXW4y

> <s_epik_cmdline>
J2VwaWtfcHl0aG9uJywgJy1waCcsICc3LjAnLCAnLXRuJywgJzgnLCAnLW1hJywgJzIwMCcsICctbWV0YWxfYmluZGluZycsICctaW1hZScsICc8aW5maWxlLm1hZT4nLCAnLW9tYWUnLCAnPG91dGZpbGUubWFlPic=

> <r_lp_tautomer_probability>
1

> <r_epik_Ionization_Penalty>
0.71326

> <r_epik_Ionization_Penalty_Charging>
0.713252

> <r_epik_Ionization_Penalty_Neutral>
8.10337e-06

> <r_epik_State_Penalty>
0.737017

> <r_epik_Charging_Adjusted_Penalty>
1.45027

> <i_epik_Tot_Q>
1

> <i_epik_Tot_abs_Q>
1

> <r_epik_Metal_State_Penalty>
0.73702

> <b_epik_Metal_Only>
0

> <s_lp_Force_Field>
OPLS_2005

> <r_lp_Energy>
26.8661

> <b_lp_Chiralities_Consistent>
1

> <s_lp_Variant>
AV-unprocessed.smi:3349-6

> <Gold.Version>
5.8.1

> <Gold.Id.Protein>
6NUR|6NUR_protein|mol2

> <Gold.PLP.Fitness>
44.0937

> <Gold.PLP.PLP>
-31.0521

> <Gold.PLP.part.hbond>
-3.0055

> <Gold.PLP.part.metal>
0.0000

> <Gold.PLP.part.buried>
-2.1126

> <Gold.PLP.part.nonpolar>
-25.8610

> <Gold.PLP.part.repulsive>
0.4845

> <Gold.PLP.ligand.clash>
0.0000

> <Gold.PLP.ligand.torsion>
1.0416

> <Gold.PLP.Chemscore.Hbond>
4.0000

> <Gold.PLP.Chemscore.CHOScore>
1.0000

> <Gold.PLP.Chemscore.Metal>
0.0000

> <Gold.Chemscore.Hbonds>
donor molecule, donor type, donor heavy atom, donor atom, acceptor molecule, acceptor atom, score
      L1  H     4    26       P1  7948  0.95
      L1  H    14    41       P1  7948  2.00
      P1  H  7989  7998       L1    13  1.00
      L1  C    10    31       P1  7948  1.00

> <Gold.PLP.Chemscore.Internal.Correction>
0.1248

> <Gold.Rescore>
     Score         DG    S(hbond)    S(metal)    S(lipo)     H(rot)  DE(clash)    DE(int)     intcor
     11.16     -12.50       2.43        0.00      48.16       2.63       0.06       1.28       ----

> <Gold.Chemscore.Fitness>
11.1596

> <Gold.Chemscore.DG>
-12.4955

> <Gold.Chemscore.ZeroCoef>
-5.4800

> <Gold.Chemscore.Hbond>
2.4313

> <Gold.Chemscore.Metal>
0.0000

> <Gold.Chemscore.Lipo>
48.1638

> <Gold.Chemscore.Internal_Hbond>
0.0000

> <Gold.Chemscore.DEClash>
0.0575

> <Gold.Chemscore.DEInternal>
1.2784

> <Gold.Chemscore.Rot>
2.6329

> <Gold.Chemscore.Internal.Correction>
   9.000000E+99

> <Gold.Chemscore.Hbonds>
donor molecule, donor type, donor heavy atom, donor atom, acceptor molecule, acceptor atom, score
      L1  H     4    26       P1  7948  0.22
      L1  H    14    41       P1  7948  0.84
      P1  H  7989  7998       L1    13  0.72

> <Gold.Chemscore.Hbond.Weighted>
-8.1206

> <Gold.Chemscore.Metal.Weighted>
-0.0000

> <Gold.Chemscore.Lipo.Weighted>
-5.6352

> <Gold.Chemscore.Internal_Hbond.Weighted>
0.0000

> <Gold.Chemscore.DEClash.Weighted>
0.0575

> <Gold.Chemscore.DEInternal.Weighted>
1.2784

> <Gold.Chemscore.Rot.Weighted>
6.7403

> <Gold.Chemscore.Internal.Correction.Weighted>
   9.000000E+99

> <Gold.Protein.RotatedTorsions>
[ 6907 6896 6895 6894 ] final   61.74 input  -60.11 | X-H torsion
[ 7974 7965 7964 7962 ] final  -93.40 input  175.53 | X-H torsion
[ 8008 7997 7996 7995 ] final  -62.37 input   59.86 | X-H torsion
[ 10167 10162 10161 10158 ] final  144.12 input  -65.29 | X-H torsion
[ 10718 10713 10712 10709 ] final  -43.62 input   66.30 | X-H torsion
[ 10763 10752 10751 10750 ] final  -88.59 input  -60.55 | X-H torsion
[ 11005 11000 10999 10996 ] final   47.50 input  -57.11 | X-H torsion

> <Gold.Protein.ActiveResidues>
 VAL166  LYS551  ARG553  GLY616  TRP617  ASP618  TYR619  PRO620  LYS621  CYS622 
 ASP623  PHE694  ASN695  SER759  ASP760  ASP761  ALA762  ILE779  LEU786  VAL792 
 PHE793  MET794  SER795  GLU796  ALA797  LYS798  CYS799  TRP800  GLU811  SER814 

> <Gold.Protein.RotatedAtoms>
  152.4114  134.6118  160.0027 H   0  0  0  0  0  0  0  0  0  0  0  0  # atno 6907 bound_to 6896
  151.6294  133.3327  159.3113 H   0  0  0  0  0  0  0  0  0  0  0  0  # atno 6908 bound_to 6896
  150.8005  134.7135  159.6662 H   0  0  0  0  0  0  0  0  0  0  0  0  # atno 6909 bound_to 6896
  145.3871  140.9524  143.2361 H   0  0  0  0  0  0  0  0  0  0  0  0  # atno 7974 bound_to 7965
  154.4496  140.0997  156.6576 H   0  0  0  0  0  0  0  0  0  0  0  0  # atno 8008 bound_to 7997
  155.5328  140.3482  155.4411 H   0  0  0  0  0  0  0  0  0  0  0  0  # atno 8009 bound_to 7997
  156.0652  140.1336  156.9883 H   0  0  0  0  0  0  0  0  0  0  0  0  # atno 8010 bound_to 7997
  139.4954  144.5993  151.6515 H   0  0  0  0  0  0  0  0  0  0  0  0  # atno 10167 bound_to 10162
  156.2471  130.4185  149.8693 H   0  0  0  0  0  0  0  0  0  0  0  0  # atno 10718 bound_to 10713
  154.6462  135.5371  153.7848 H   0  0  0  0  0  0  0  0  0  0  0  0  # atno 10763 bound_to 10752
  153.0361  135.6471  154.1085 H   0  0  0  0  0  0  0  0  0  0  0  0  # atno 10764 bound_to 10752
  154.1006  135.2933  155.3232 H   0  0  0  0  0  0  0  0  0  0  0  0  # atno 10765 bound_to 10752
  140.1274  134.4750  155.8549 H   0  0  0  0  0  0  0  0  0  0  0  0  # atno 11005 bound_to 11000
  144.8466  139.5387  143.6875 LP  0  0  0  0  0  0  0  0  0  0  0  0  # atno 17320 bound_to 7965
  146.2815  139.6890  142.9226 LP  0  0  0  0  0  0  0  0  0  0  0  0  # atno 17321 bound_to 7965
  140.5639  144.0222  150.6183 LP  0  0  0  0  0  0  0  0  0  0  0  0  # atno 17342 bound_to 10162
  140.3317  143.3073  152.0680 LP  0  0  0  0  0  0  0  0  0  0  0  0  # atno 17343 bound_to 10162
  156.6254  130.8644  151.3484 LP  0  0  0  0  0  0  0  0  0  0  0  0  # atno 17370 bound_to 10713
  157.7199  130.9545  150.1399 LP  0  0  0  0  0  0  0  0  0  0  0  0  # atno 17371 bound_to 10713
  141.2164  133.6783  156.7004 LP  0  0  0  0  0  0  0  0  0  0  0  0  # atno 17394 bound_to 11000
  140.2887  134.8258  157.3997 LP  0  0  0  0  0  0  0  0  0  0  0  0  # atno 17395 bound_to 11000

$$$$
