AV-unprocessed.smi:113|AV-procd|sdf|1101|dock2
  -GOLD-   2262018213D 1   1.00000     0.00000
 Structure written by MMmdl.
 53 56  0  0  0  0  0  0  0  0  2 V2000
  151.5062  143.8034  157.9941 C   0  0  0  0  0  0  0  0  0  0  0  0
  151.1026  142.5180  157.3037 C   0  0  0  0  0  0  0  0  0  0  0  0
  151.7355  141.2904  157.5778 C   0  0  0  0  0  0  0  0  0  0  0  0
  151.3247  140.1153  156.9007 C   0  0  0  0  0  0  0  0  0  0  0  0
  151.9988  138.7668  157.1764 C   0  0  0  0  0  0  0  0  0  0  0  0
  151.1193  137.6362  157.4389 N   0  0  0  0  0  0  0  0  0  0  0  0
  151.0838  136.5871  156.4886 C   0  0  0  0  0  0  0  0  0  0  0  0
  151.7636  136.6242  155.4606 O   0  0  0  0  0  0  0  0  0  0  0  0
  150.1746  135.4857  156.8137 C   0  0  0  0  0  0  0  0  0  0  0  0
  150.1167  134.3002  155.8631 C   0  0  0  0  0  0  0  0  0  0  0  0
  149.4185  135.5468  157.9364 C   0  0  0  0  0  0  0  0  0  0  0  0
  149.4323  136.6098  158.8228 N   0  0  0  0  0  0  0  0  0  0  0  0
  148.5555  136.5565  160.0582 C   0  0  2  0  0  0  0  0  0  0  0  0
  147.9257  135.1809  160.3073 C   0  0  0  0  0  0  0  0  0  0  0  0
  146.5819  135.5759  160.8840 C   0  0  2  0  0  0  0  0  0  0  0  0
  145.6233  134.5602  160.6702 O   0  0  0  0  0  0  0  0  0  0  0  0
  146.2511  136.8612  160.1179 C   0  0  1  0  0  0  0  0  0  0  0  0
  145.3187  137.8072  160.8899 C   0  0  0  0  0  0  0  0  0  0  0  0
  145.8589  138.0905  162.1629 O   0  0  0  0  0  0  0  0  0  0  0  0
  147.5207  137.4860  159.9233 O   0  0  0  0  0  0  0  0  0  0  0  0
  150.3201  137.6866  158.6031 C   0  0  0  0  0  0  0  0  0  0  0  0
  150.3844  138.6365  159.3857 O   0  0  0  0  0  0  0  0  0  0  0  0
  150.2672  140.2172  155.9556 C   0  0  0  0  0  0  0  0  0  0  0  0
  149.7872  139.0963  155.2364 C   0  0  0  0  0  0  0  0  0  0  0  0
  148.7398  139.2390  154.3055 C   0  0  0  0  0  0  0  0  0  0  0  0
  148.1565  140.4998  154.0805 C   0  0  0  0  0  0  0  0  0  0  0  0
  148.6201  141.6242  154.7880 C   0  0  0  0  0  0  0  0  0  0  0  0
  149.6679  141.4840  155.7195 C   0  0  0  0  0  0  0  0  0  0  0  0
  150.1075  142.5666  156.3951 N   0  3  0  0  0  0  0  0  0  0  0  0
  151.9708  143.5963  158.9586 H   0  0  0  0  0  0  0  0  0  0  0  0
  150.6387  144.4412  158.1667 H   0  0  0  0  0  0  0  0  0  0  0  0
  152.2209  144.3520  157.3803 H   0  0  0  0  0  0  0  0  0  0  0  0
  152.5323  141.2673  158.3061 H   0  0  0  0  0  0  0  0  0  0  0  0
  152.6499  138.4962  156.3439 H   0  0  0  0  0  0  0  0  0  0  0  0
  152.6752  138.8482  158.0290 H   0  0  0  0  0  0  0  0  0  0  0  0
  149.4267  133.5323  156.2135 H   0  0  0  0  0  0  0  0  0  0  0  0
  151.1013  133.8414  155.7629 H   0  0  0  0  0  0  0  0  0  0  0  0
  149.7856  134.6199  154.8744 H   0  0  0  0  0  0  0  0  0  0  0  0
  148.7603  134.7153  158.1444 H   0  0  0  0  0  0  0  0  0  0  0  0
  149.1805  136.8712  160.8942 H   0  0  0  0  0  0  0  0  0  0  0  0
  147.8083  134.6236  159.3787 H   0  0  0  0  0  0  0  0  0  0  0  0
  148.5359  134.5896  160.9904 H   0  0  0  0  0  0  0  0  0  0  0  0
  146.6827  135.7796  161.9512 H   0  0  0  0  0  0  0  0  0  0  0  0
  145.1329  134.7689  159.8895 H   0  0  0  0  0  0  0  0  0  0  0  0
  145.8273  136.6060  159.1451 H   0  0  0  0  0  0  0  0  0  0  0  0
  145.2236  138.7549  160.3588 H   0  0  0  0  0  0  0  0  0  0  0  0
  144.3169  137.3875  160.9857 H   0  0  0  0  0  0  0  0  0  0  0  0
  146.4850  138.7930  162.0747 H   0  0  0  0  0  0  0  0  0  0  0  0
  150.2088  138.1134  155.3827 H   0  0  0  0  0  0  0  0  0  0  0  0
  148.3825  138.3766  153.7616 H   0  0  0  0  0  0  0  0  0  0  0  0
  147.3533  140.6038  153.3655 H   0  0  0  0  0  0  0  0  0  0  0  0
  148.1684  142.5899  154.6117 H   0  0  0  0  0  0  0  0  0  0  0  0
  149.6641  143.4662  156.2099 H   0  0  0  0  0  0  0  0  0  0  0  0
  1  2  1  0  0  0  0
  1 30  1  0  0  0  0
  1 31  1  0  0  0  0
  1 32  1  0  0  0  0
  2 29  1  0  0  0  0
  2  3  2  0  0  0  0
  3  4  1  0  0  0  0
  3 33  1  0  0  0  0
  4  5  1  0  0  0  0
  4 23  2  0  0  0  0
  5  6  1  0  0  0  0
  5 34  1  0  0  0  0
  5 35  1  0  0  0  0
  6 21  1  0  0  0  0
  6  7  1  0  0  0  0
  7  8  2  0  0  0  0
  7  9  1  0  0  0  0
  9 10  1  0  0  0  0
  9 11  2  0  0  0  0
 10 36  1  0  0  0  0
 10 37  1  0  0  0  0
 10 38  1  0  0  0  0
 11 12  1  0  0  0  0
 11 39  1  0  0  0  0
 12 13  1  0  0  0  0
 12 21  1  0  0  0  0
 13 20  1  0  0  0  0
 13 14  1  0  0  0  0
 13 40  1  0  0  0  0
 14 15  1  0  0  0  0
 14 41  1  0  0  0  0
 14 42  1  0  0  0  0
 15 16  1  0  0  0  0
 15 17  1  0  0  0  0
 15 43  1  0  0  0  0
 16 44  1  0  0  0  0
 17 18  1  0  0  0  0
 17 20  1  0  0  0  0
 17 45  1  0  0  0  0
 18 19  1  0  0  0  0
 18 46  1  0  0  0  0
 18 47  1  0  0  0  0
 19 48  1  0  0  0  0
 21 22  2  0  0  0  0
 23 28  1  0  0  0  0
 23 24  1  0  0  0  0
 24 25  2  0  0  0  0
 24 49  1  0  0  0  0
 25 26  1  0  0  0  0
 25 50  1  0  0  0  0
 26 27  2  0  0  0  0
 26 51  1  0  0  0  0
 27 28  1  0  0  0  0
 27 52  1  0  0  0  0
 28 29  2  0  0  0  0
 29 53  1  0  0  0  0
M  CHG  1  29   1
M  END
> <s_m_source_file>
AV-unprocessed.smi

> <i_m_source_file_index>
113

> <i_lp_mmshare_version>
43012

> <i_f3d_flags>
0

> <s_epik_input>
W2NIXTFbY0hdW2NIXVtjSF1jKGMxMiluYyhbQ0gzXSlbY0hdYzJbQ0gyXW4zYyg9TyljKFtDSDNdKVtjSF1uKGMzPU8pW0NAQEhdNFtDSDJdW0NAQEhdKFtPSF0pW0NASF0oTzQpW0NIMl1bT0hd

> <s_epik_cmdline>
J2VwaWtfcHl0aG9uJywgJy1waCcsICc3LjAnLCAnLXRuJywgJzgnLCAnLW1hJywgJzIwMCcsICctbWV0YWxfYmluZGluZycsICctaW1hZScsICc8aW5maWxlLm1hZT4nLCAnLW9tYWUnLCAnPG91dGZpbGUubWFlPic=

> <r_lp_tautomer_probability>
1

> <r_epik_Ionization_Penalty>
0.705471

> <r_epik_Ionization_Penalty_Charging>
0.70547

> <r_epik_Ionization_Penalty_Neutral>
1.19947e-07

> <r_epik_State_Penalty>
0.728574

> <r_epik_Charging_Adjusted_Penalty>
1.43404

> <i_epik_Tot_Q>
1

> <i_epik_Tot_abs_Q>
1

> <r_epik_Metal_State_Penalty>
4.61665

> <b_epik_Metal_Only>
0

> <s_epik_Chemistry_Notes>
This compound contains an acetal/aminal-like group ( X-CH(R)-Y where X, Y are N, S, or O) that may be acid/base labile, releasing an aldehyde.

> <s_lp_Force_Field>
OPLS_2005

> <r_lp_Energy>
36.4748

> <b_lp_Chiralities_Consistent>
1

> <s_lp_Variant>
AV-unprocessed.smi:113-11

> <Gold.Version>
5.8.1

> <Gold.Id.Protein>
6NUR|6NUR_protein|mol2

> <Gold.PLP.Fitness>
51.2448

> <Gold.PLP.PLP>
-40.5973

> <Gold.PLP.part.hbond>
-5.0000

> <Gold.PLP.part.metal>
0.0000

> <Gold.PLP.part.buried>
-4.0248

> <Gold.PLP.part.nonpolar>
-33.4096

> <Gold.PLP.part.repulsive>
0.1998

> <Gold.PLP.ligand.clash>
0.0000

> <Gold.PLP.ligand.torsion>
0.4187

> <Gold.PLP.Chemscore.Hbond>
3.8160

> <Gold.PLP.Chemscore.CHOScore>
0.0000

> <Gold.PLP.Chemscore.Metal>
0.0000

> <Gold.Chemscore.Hbonds>
donor molecule, donor type, donor heavy atom, donor atom, acceptor molecule, acceptor atom, score
      L1  H    29    53       P1  8028  2.00
      P1  H  6934  6947       L1    20  0.76
      P1  H 10752 10765       L1     8  1.00

> <Gold.PLP.Chemscore.Internal.Correction>
0.0368

> <Gold.Rescore>
     Score         DG    S(hbond)    S(metal)    S(lipo)     H(rot)  DE(clash)    DE(int)     intcor
     14.38     -16.93       2.50        0.00      92.51       3.01       0.00       2.55       ----

> <Gold.Chemscore.Fitness>
14.3814

> <Gold.Chemscore.DG>
-16.9293

> <Gold.Chemscore.ZeroCoef>
-5.4800

> <Gold.Chemscore.Hbond>
2.4959

> <Gold.Chemscore.Metal>
0.0000

> <Gold.Chemscore.Lipo>
92.5117

> <Gold.Chemscore.Internal_Hbond>
0.0000

> <Gold.Chemscore.DEClash>
0.0021

> <Gold.Chemscore.DEInternal>
2.5458

> <Gold.Chemscore.Rot>
3.0120

> <Gold.Chemscore.Internal.Correction>
   9.000000E+99

> <Gold.Chemscore.Hbonds>
donor molecule, donor type, donor heavy atom, donor atom, acceptor molecule, acceptor atom, score
      L1  H    29    53       P1  8028  0.97
      P1  H  6934  6947       L1    20  0.15
      P1  H 10752 10765       L1     8  1.00

> <Gold.Chemscore.Hbond.Weighted>
-8.3362

> <Gold.Chemscore.Metal.Weighted>
-0.0000

> <Gold.Chemscore.Lipo.Weighted>
-10.8239

> <Gold.Chemscore.Internal_Hbond.Weighted>
0.0000

> <Gold.Chemscore.DEClash.Weighted>
0.0021

> <Gold.Chemscore.DEInternal.Weighted>
2.5458

> <Gold.Chemscore.Rot.Weighted>
7.7108

> <Gold.Chemscore.Internal.Correction.Weighted>
   9.000000E+99

> <Gold.Protein.RotatedTorsions>
[ 6907 6896 6895 6894 ] final   45.89 input  -60.11 | X-H torsion
[ 7974 7965 7964 7962 ] final  -10.99 input  175.53 | X-H torsion
[ 8008 7997 7996 7995 ] final  -81.83 input   59.86 | X-H torsion
[ 10167 10162 10161 10158 ] final    2.31 input  -65.29 | X-H torsion
[ 10718 10713 10712 10709 ] final    8.69 input   66.30 | X-H torsion
[ 10763 10752 10751 10750 ] final -174.74 input  -60.55 | X-H torsion
[ 11005 11000 10999 10996 ] final  -29.33 input  -57.11 | X-H torsion

> <Gold.Protein.ActiveResidues>
 VAL166  LYS551  ARG553  GLY616  TRP617  ASP618  TYR619  PRO620  LYS621  CYS622 
 ASP623  PHE694  ASN695  SER759  ASP760  ASP761  ALA762  ILE779  LEU786  VAL792 
 PHE793  MET794  SER795  GLU796  ALA797  LYS798  CYS799  TRP800  GLU811  SER814 

> <Gold.Protein.RotatedAtoms>
  152.2500  134.8142  160.0447 H   0  0  0  0  0  0  0  0  0  0  0  0  # atno 6907 bound_to 6896
  151.8826  133.3493  159.3779 H   0  0  0  0  0  0  0  0  0  0  0  0  # atno 6908 bound_to 6896
  150.7081  134.4930  159.5569 H   0  0  0  0  0  0  0  0  0  0  0  0  # atno 6909 bound_to 6896
  146.2202  140.2846  142.8364 H   0  0  0  0  0  0  0  0  0  0  0  0  # atno 7974 bound_to 7965
  154.6023  140.0642  156.9385 H   0  0  0  0  0  0  0  0  0  0  0  0  # atno 8008 bound_to 7997
  155.2111  140.3323  155.4310 H   0  0  0  0  0  0  0  0  0  0  0  0  # atno 8009 bound_to 7997
  156.2326  140.1848  156.7187 H   0  0  0  0  0  0  0  0  0  0  0  0  # atno 8010 bound_to 7997
  140.6641  143.7226  150.7794 H   0  0  0  0  0  0  0  0  0  0  0  0  # atno 10167 bound_to 10162
  156.9553  130.5912  149.5659 H   0  0  0  0  0  0  0  0  0  0  0  0  # atno 10718 bound_to 10713
  154.5927  135.2846  155.0619 H   0  0  0  0  0  0  0  0  0  0  0  0  # atno 10763 bound_to 10752
  154.1913  135.6440  153.5065 H   0  0  0  0  0  0  0  0  0  0  0  0  # atno 10764 bound_to 10752
  153.0127  135.5447  154.6618 H   0  0  0  0  0  0  0  0  0  0  0  0  # atno 10765 bound_to 10752
  140.9287  133.7352  156.0905 H   0  0  0  0  0  0  0  0  0  0  0  0  # atno 11005 bound_to 11000
  144.9172  140.7826  143.5771 LP  0  0  0  0  0  0  0  0  0  0  0  0  # atno 17320 bound_to 7965
  145.2780  139.1929  143.4806 LP  0  0  0  0  0  0  0  0  0  0  0  0  # atno 17321 bound_to 7965
  140.0900  143.4887  152.2484 LP  0  0  0  0  0  0  0  0  0  0  0  0  # atno 17342 bound_to 10162
  139.5884  144.7540  151.3462 LP  0  0  0  0  0  0  0  0  0  0  0  0  # atno 17343 bound_to 10162
  156.0345  130.5434  150.8619 LP  0  0  0  0  0  0  0  0  0  0  0  0  # atno 17370 bound_to 10713
  157.5694  131.0946  150.9440 LP  0  0  0  0  0  0  0  0  0  0  0  0  # atno 17371 bound_to 10713
  140.7891  134.3638  157.5469 LP  0  0  0  0  0  0  0  0  0  0  0  0  # atno 17394 bound_to 11000
  139.8791  134.9129  156.3071 LP  0  0  0  0  0  0  0  0  0  0  0  0  # atno 17395 bound_to 11000

$$$$
