AV-unprocessed.smi:2786|AV-procd|sdf|10752|dock2
  -GOLD-   2272015183D 1   1.00000     0.00000
 Structure written by MMmdl.
 27 28  0  0  0  0  0  0  0  0  2 V2000
  152.3515  141.8764  159.7769 C   0  0  0  0  0  0  0  0  0  0  0  0
  151.9941  143.1009  159.0580 N   0  0  0  0  0  0  0  0  0  0  0  0
  152.3600  144.3797  159.3924 C   0  0  0  0  0  0  0  0  0  0  0  0
  151.8149  145.2053  158.4444 C   0  0  0  0  0  0  0  0  0  0  0  0
  151.1380  144.3969  157.5725 N   0  3  0  0  0  0  0  0  0  0  0  0
  151.2376  143.1152  157.9476 C   0  0  0  0  0  0  0  0  0  0  0  0
  150.6371  141.9414  157.2313 C   0  0  2  0  0  0  0  0  0  0  0  0
  151.6729  140.8092  157.0557 C   0  0  0  0  0  0  0  0  0  0  0  0
  151.0798  139.6592  156.3712 N   0  0  0  0  0  0  0  0  0  0  0  0
  150.5258  140.0488  155.0741 C   0  0  0  0  0  0  0  0  0  0  0  0
  149.4856  141.1705  155.2455 C   0  0  0  0  0  0  0  0  0  0  0  0
  150.0725  142.3241  155.9312 N   0  0  0  0  0  0  0  0  0  0  0  0
  153.0609  142.1123  160.5706 H   0  0  0  0  0  0  0  0  0  0  0  0
  152.8091  141.1686  159.0851 H   0  0  0  0  0  0  0  0  0  0  0  0
  151.4524  141.4404  160.2131 H   0  0  0  0  0  0  0  0  0  0  0  0
  152.9682  144.6022  160.2572 H   0  0  0  0  0  0  0  0  0  0  0  0
  151.8577  146.2784  158.3272 H   0  0  0  0  0  0  0  0  0  0  0  0
  149.8295  141.5825  157.8702 H   0  0  0  0  0  0  0  0  0  0  0  0
  152.5310  141.1749  156.4899 H   0  0  0  0  0  0  0  0  0  0  0  0
  152.0534  140.4982  158.0288 H   0  0  0  0  0  0  0  0  0  0  0  0
  151.7870  138.9434  156.2349 H   0  0  0  0  0  0  0  0  0  0  0  0
  151.3252  140.3830  154.4113 H   0  0  0  0  0  0  0  0  0  0  0  0
  150.0642  139.1863  154.5929 H   0  0  0  0  0  0  0  0  0  0  0  0
  149.1044  141.4732  154.2702 H   0  0  0  0  0  0  0  0  0  0  0  0
  148.6306  140.7966  155.8105 H   0  0  0  0  0  0  0  0  0  0  0  0
  149.3504  143.0234  156.0721 H   0  0  0  0  0  0  0  0  0  0  0  0
  150.6279  144.7159  156.7581 H   0  0  0  0  0  0  0  0  0  0  0  0
  1  2  1  0  0  0  0
  1 13  1  0  0  0  0
  1 14  1  0  0  0  0
  1 15  1  0  0  0  0
  2  6  1  0  0  0  0
  2  3  1  0  0  0  0
  3  4  2  0  0  0  0
  3 16  1  0  0  0  0
  4  5  1  0  0  0  0
  4 17  1  0  0  0  0
  5  6  2  0  0  0  0
  5 27  1  0  0  0  0
  6  7  1  0  0  0  0
  7 12  1  0  0  0  0
  7  8  1  0  0  0  0
  7 18  1  0  0  0  0
  8  9  1  0  0  0  0
  8 19  1  0  0  0  0
  8 20  1  0  0  0  0
  9 10  1  0  0  0  0
  9 21  1  0  0  0  0
 10 11  1  0  0  0  0
 10 22  1  0  0  0  0
 10 23  1  0  0  0  0
 11 12  1  0  0  0  0
 11 24  1  0  0  0  0
 11 25  1  0  0  0  0
 12 26  1  0  0  0  0
M  CHG  1   5   1
M  END
> <s_m_source_file>
AV-unprocessed.smi

> <i_m_source_file_index>
2786

> <i_lp_mmshare_version>
43012

> <i_f3d_flags>
0

> <s_epik_input>
W0NIM11uMVtjSF1bY0hdbmMxW0NAQEhdMltDSDJdW05IXVtDSDJdW0NIMl1bTkhdMg==

> <s_epik_cmdline>
J2VwaWtfcHl0aG9uJywgJy1waCcsICc3LjAnLCAnLXRuJywgJzgnLCAnLW1hJywgJzIwMCcsICctbWV0YWxfYmluZGluZycsICctaW1hZScsICc8aW5maWxlLm1hZT4nLCAnLW9tYWUnLCAnPG91dGZpbGUubWFlPic=

> <r_epik_Ionization_Penalty>
1.38811

> <r_epik_Ionization_Penalty_Charging>
0

> <r_epik_Ionization_Penalty_Neutral>
1.38811

> <r_epik_State_Penalty>
1.49833

> <r_epik_Charging_Adjusted_Penalty>
1.49833

> <i_epik_Tot_Q>
1

> <i_epik_Tot_abs_Q>
1

> <r_epik_Metal_State_Penalty>
3.89997

> <b_epik_Metal_Only>
0

> <s_lp_Force_Field>
OPLS_2005

> <r_lp_Energy>
24.8343

> <b_lp_Chiralities_Consistent>
1

> <s_lp_Variant>
AV-unprocessed.smi:2786-5

> <Gold.Version>
5.8.1

> <Gold.Id.Protein>
6NUR|6NUR_protein|mol2

> <Gold.PLP.Fitness>
36.9078

> <Gold.PLP.PLP>
-28.7603

> <Gold.PLP.part.hbond>
-2.0000

> <Gold.PLP.part.metal>
0.0000

> <Gold.PLP.part.buried>
-3.4939

> <Gold.PLP.part.nonpolar>
-23.5473

> <Gold.PLP.part.repulsive>
0.0435

> <Gold.PLP.ligand.clash>
0.0000

> <Gold.PLP.ligand.torsion>
0.2310

> <Gold.PLP.Chemscore.Hbond>
2.8640

> <Gold.PLP.Chemscore.CHOScore>
0.0000

> <Gold.PLP.Chemscore.Metal>
0.0000

> <Gold.Chemscore.Hbonds>
donor molecule, donor type, donor heavy atom, donor atom, acceptor molecule, acceptor atom, score
      L1  H     5    27       P1  8028  1.98
      L1  H    12    26       P1  8028  0.86

> <Gold.PLP.Chemscore.Internal.Correction>
0.0174

> <Gold.Rescore>
     Score         DG    S(hbond)    S(metal)    S(lipo)     H(rot)  DE(clash)    DE(int)     intcor
     14.26     -15.88       1.72        0.00      61.66       1.00       0.49       1.13       ----

> <Gold.Chemscore.Fitness>
14.2580

> <Gold.Chemscore.DG>
-15.8755

> <Gold.Chemscore.ZeroCoef>
-5.4800

> <Gold.Chemscore.Hbond>
1.7190

> <Gold.Chemscore.Metal>
0.0000

> <Gold.Chemscore.Lipo>
61.6598

> <Gold.Chemscore.Internal_Hbond>
0.0000

> <Gold.Chemscore.DEClash>
0.4904

> <Gold.Chemscore.DEInternal>
1.1272

> <Gold.Chemscore.Rot>
1.0000

> <Gold.Chemscore.Internal.Correction>
   9.000000E+99

> <Gold.Chemscore.Hbonds>
donor molecule, donor type, donor heavy atom, donor atom, acceptor molecule, acceptor atom, score
      L1  H     5    27       P1  8028  0.79
      L1  H    12    26       P1  8028  0.85

> <Gold.Chemscore.Hbond.Weighted>
-5.7414

> <Gold.Chemscore.Metal.Weighted>
-0.0000

> <Gold.Chemscore.Lipo.Weighted>
-7.2142

> <Gold.Chemscore.Internal_Hbond.Weighted>
0.0000

> <Gold.Chemscore.DEClash.Weighted>
0.4904

> <Gold.Chemscore.DEInternal.Weighted>
1.1272

> <Gold.Chemscore.Rot.Weighted>
2.5600

> <Gold.Chemscore.Internal.Correction.Weighted>
   9.000000E+99

> <Gold.Protein.RotatedTorsions>
[ 6907 6896 6895 6894 ] final -103.03 input  -60.11 | X-H torsion
[ 7974 7965 7964 7962 ] final   31.06 input  175.53 | X-H torsion
[ 8008 7997 7996 7995 ] final  -72.79 input   59.86 | X-H torsion
[ 10167 10162 10161 10158 ] final  -37.53 input  -65.29 | X-H torsion
[ 10718 10713 10712 10709 ] final  120.82 input   66.30 | X-H torsion
[ 10763 10752 10751 10750 ] final  -87.02 input  -60.55 | X-H torsion
[ 11005 11000 10999 10996 ] final -131.93 input  -57.11 | X-H torsion

> <Gold.Protein.ActiveResidues>
 VAL166  LYS551  ARG553  GLY616  TRP617  ASP618  TYR619  PRO620  LYS621  CYS622 
 ASP623  PHE694  ASN695  SER759  ASP760  ASP761  ALA762  ILE779  LEU786  VAL792 
 PHE793  MET794  SER795  GLU796  ALA797  LYS798  CYS799  TRP800  GLU811  SER814 

> <Gold.Protein.RotatedAtoms>
  150.7222  134.0491  159.3791 H   0  0  0  0  0  0  0  0  0  0  0  0  # atno 6907 bound_to 6896
  151.8467  135.0569  160.0463 H   0  0  0  0  0  0  0  0  0  0  0  0  # atno 6908 bound_to 6896
  152.2822  133.5445  159.5541 H   0  0  0  0  0  0  0  0  0  0  0  0  # atno 6909 bound_to 6896
  146.1573  139.6706  142.9057 H   0  0  0  0  0  0  0  0  0  0  0  0  # atno 7974 bound_to 7965
  154.5195  140.0791  156.8144 H   0  0  0  0  0  0  0  0  0  0  0  0  # atno 8008 bound_to 7997
  155.3608  140.3418  155.4222 H   0  0  0  0  0  0  0  0  0  0  0  0  # atno 8009 bound_to 7997
  156.1665  140.1605  156.8510 H   0  0  0  0  0  0  0  0  0  0  0  0  # atno 8010 bound_to 7997
  140.7116  143.3336  151.2513 H   0  0  0  0  0  0  0  0  0  0  0  0  # atno 10167 bound_to 10162
  157.5863  131.1069  150.8087 H   0  0  0  0  0  0  0  0  0  0  0  0  # atno 10718 bound_to 10713
  154.6289  135.5428  153.7658 H   0  0  0  0  0  0  0  0  0  0  0  0  # atno 10763 bound_to 10752
  153.0275  135.6431  154.1330 H   0  0  0  0  0  0  0  0  0  0  0  0  # atno 10764 bound_to 10752
  154.1261  135.2917  155.3176 H   0  0  0  0  0  0  0  0  0  0  0  0  # atno 10765 bound_to 10752
  140.9215  134.1437  157.4310 H   0  0  0  0  0  0  0  0  0  0  0  0  # atno 11005 bound_to 11000
  145.4676  141.0435  143.2717 LP  0  0  0  0  0  0  0  0  0  0  0  0  # atno 17320 bound_to 7965
  144.7980  139.6195  143.7084 LP  0  0  0  0  0  0  0  0  0  0  0  0  # atno 17321 bound_to 7965
  139.6825  143.9830  152.2816 LP  0  0  0  0  0  0  0  0  0  0  0  0  # atno 17342 bound_to 10162
  139.9465  144.6648  150.8214 LP  0  0  0  0  0  0  0  0  0  0  0  0  # atno 17343 bound_to 10162
  156.8521  130.5084  149.5311 LP  0  0  0  0  0  0  0  0  0  0  0  0  # atno 17370 bound_to 10713
  156.0913  130.5898  150.9737 LP  0  0  0  0  0  0  0  0  0  0  0  0  # atno 17371 bound_to 10713
  139.8776  134.9973  156.5840 LP  0  0  0  0  0  0  0  0  0  0  0  0  # atno 17394 bound_to 11000
  140.7981  133.8528  155.8703 LP  0  0  0  0  0  0  0  0  0  0  0  0  # atno 17395 bound_to 11000

$$$$
