AV-unprocessed.smi:1835|AV-procd|sdf|7476|dock3
  -GOLD-   22720 9173D 1   1.00000     0.00000
 Structure written by MMmdl.
 42 43  0  0  0  0  0  0  0  0  2 V2000
  143.1777  141.8013  155.8259 C   0  0  0  0  0  0  0  0  0  0  0  0
  144.4851  142.2168  155.1118 C   0  0  1  0  0  0  0  0  0  0  0  0
  145.4282  140.9939  154.9304 C   0  0  0  0  0  0  0  0  0  0  0  0
  146.8199  141.3797  154.7108 N   0  0  0  0  0  0  0  0  0  0  0  0
  147.8908  140.6084  154.9544 C   0  0  0  0  0  0  0  0  0  0  0  0
  147.8108  139.4526  155.3718 O   0  0  0  0  0  0  0  0  0  0  0  0
  149.2592  141.2462  154.6795 C   0  0  0  0  0  0  0  0  0  0  0  0
  150.0792  141.3866  155.8944 N   0  0  0  0  0  0  0  0  0  0  0  0
  149.6121  142.2693  156.8888 C   0  0  0  0  0  0  0  0  0  0  0  0
  150.2840  142.4683  158.0337 C   0  0  0  0  0  0  0  0  0  0  0  0
  151.5194  141.7489  158.2346 C   0  0  0  0  0  0  0  0  0  0  0  0
  151.9769  140.9042  157.2889 C   0  0  0  0  0  0  0  0  0  0  0  0
  151.2464  140.6843  156.0353 C   0  0  0  0  0  0  0  0  0  0  0  0
  151.6579  139.9166  155.1645 O   0  0  0  0  0  0  0  0  0  0  0  0
  144.1639  142.9237  153.8277 N   0  3  0  0  0  0  0  0  0  0  0  0
  143.2388  144.0739  154.0230 C   0  0  0  0  0  0  0  0  0  0  0  0
  142.8522  144.7079  152.6775 C   0  0  0  0  0  0  0  0  0  0  0  0
  144.0261  145.1322  152.0013 O   0  0  0  0  0  0  0  0  0  0  0  0
  144.8837  144.0386  151.7118 C   0  0  0  0  0  0  0  0  0  0  0  0
  145.3347  143.3639  153.0190 C   0  0  0  0  0  0  0  0  0  0  0  0
  143.3725  141.3675  156.8061 H   0  0  0  0  0  0  0  0  0  0  0  0
  142.6303  141.0612  155.2416 H   0  0  0  0  0  0  0  0  0  0  0  0
  142.5074  142.6394  156.0055 H   0  0  0  0  0  0  0  0  0  0  0  0
  145.0114  142.9262  155.7527 H   0  0  0  0  0  0  0  0  0  0  0  0
  145.3411  140.3162  155.7817 H   0  0  0  0  0  0  0  0  0  0  0  0
  145.1473  140.4208  154.0469 H   0  0  0  0  0  0  0  0  0  0  0  0
  146.9830  142.3136  154.3624 H   0  0  0  0  0  0  0  0  0  0  0  0
  149.7714  140.6384  153.9327 H   0  0  0  0  0  0  0  0  0  0  0  0
  149.1255  142.2235  154.2115 H   0  0  0  0  0  0  0  0  0  0  0  0
  148.6841  142.7732  156.6607 H   0  0  0  0  0  0  0  0  0  0  0  0
  149.9115  143.1507  158.7837 H   0  0  0  0  0  0  0  0  0  0  0  0
  152.0802  141.8896  159.1470 H   0  0  0  0  0  0  0  0  0  0  0  0
  152.9036  140.3753  157.4565 H   0  0  0  0  0  0  0  0  0  0  0  0
  142.3269  143.7674  154.5315 H   0  0  0  0  0  0  0  0  0  0  0  0
  143.7163  144.8222  154.6576 H   0  0  0  0  0  0  0  0  0  0  0  0
  142.2901  144.0050  152.0602 H   0  0  0  0  0  0  0  0  0  0  0  0
  142.2088  145.5723  152.8415 H   0  0  0  0  0  0  0  0  0  0  0  0
  144.3762  143.3253  151.0603 H   0  0  0  0  0  0  0  0  0  0  0  0
  145.7504  144.4077  151.1629 H   0  0  0  0  0  0  0  0  0  0  0  0
  145.9473  144.0518  153.6040 H   0  0  0  0  0  0  0  0  0  0  0  0
  145.9617  142.5159  152.7453 H   0  0  0  0  0  0  0  0  0  0  0  0
  143.6764  142.2501  153.2543 H   0  0  0  0  0  0  0  0  0  0  0  0
  1  2  1  0  0  0  0
  1 21  1  0  0  0  0
  1 22  1  0  0  0  0
  1 23  1  0  0  0  0
  2  3  1  0  0  0  0
  2 15  1  0  0  0  0
  2 24  1  0  0  0  0
  3  4  1  0  0  0  0
  3 25  1  0  0  0  0
  3 26  1  0  0  0  0
  4  5  1  0  0  0  0
  4 27  1  0  0  0  0
  5  6  2  0  0  0  0
  5  7  1  0  0  0  0
  7  8  1  0  0  0  0
  7 28  1  0  0  0  0
  7 29  1  0  0  0  0
  8 13  1  0  0  0  0
  8  9  1  0  0  0  0
  9 10  2  0  0  0  0
  9 30  1  0  0  0  0
 10 11  1  0  0  0  0
 10 31  1  0  0  0  0
 11 12  2  0  0  0  0
 11 32  1  0  0  0  0
 12 13  1  0  0  0  0
 12 33  1  0  0  0  0
 13 14  2  0  0  0  0
 15 20  1  0  0  0  0
 15 16  1  0  0  0  0
 15 42  1  0  0  0  0
 16 17  1  0  0  0  0
 16 34  1  0  0  0  0
 16 35  1  0  0  0  0
 17 18  1  0  0  0  0
 17 36  1  0  0  0  0
 17 37  1  0  0  0  0
 18 19  1  0  0  0  0
 19 20  1  0  0  0  0
 19 38  1  0  0  0  0
 19 39  1  0  0  0  0
 20 40  1  0  0  0  0
 20 41  1  0  0  0  0
M  CHG  1  15   1
M  END
> <s_m_source_file>
AV-unprocessed.smi

> <i_m_source_file_index>
1835

> <i_lp_mmshare_version>
43012

> <i_f3d_flags>
0

> <s_epik_input>
W0NIMl0xW0NIMl1PW0NIMl1bQ0gyXU4xW0NASF0oW0NIM10pW0NIMl1bTkhdQyg9TylbQ0gyXW4yW2NIXVtjSF1bY0hdW2NIXWMyPU8=

> <s_epik_cmdline>
J2VwaWtfcHl0aG9uJywgJy1waCcsICc3LjAnLCAnLXRuJywgJzgnLCAnLW1hJywgJzIwMCcsICctbWV0YWxfYmluZGluZycsICctaW1hZScsICc8aW5maWxlLm1hZT4nLCAnLW9tYWUnLCAnPG91dGZpbGUubWFlPic=

> <r_lp_tautomer_probability>
1

> <r_epik_Ionization_Penalty>
0.656654

> <r_epik_Ionization_Penalty_Charging>
0.656654

> <r_epik_Ionization_Penalty_Neutral>
9.12373e-08

> <r_epik_State_Penalty>
0.675641

> <r_epik_Charging_Adjusted_Penalty>
1.33229

> <i_epik_Tot_Q>
1

> <i_epik_Tot_abs_Q>
1

> <r_epik_Metal_State_Penalty>
0.675692

> <b_epik_Metal_Only>
0

> <s_lp_Force_Field>
OPLS_2005

> <r_lp_Energy>
28.3698

> <b_lp_Chiralities_Consistent>
1

> <s_lp_Variant>
AV-unprocessed.smi:1835-4

> <Gold.Version>
5.8.1

> <Gold.Id.Protein>
6NUR|6NUR_protein|mol2

> <Gold.PLP.Fitness>
45.1200

> <Gold.PLP.PLP>
-34.0371

> <Gold.PLP.part.hbond>
-4.0000

> <Gold.PLP.part.metal>
0.0000

> <Gold.PLP.part.buried>
-1.9334

> <Gold.PLP.part.nonpolar>
-30.0134

> <Gold.PLP.part.repulsive>
0.3181

> <Gold.PLP.ligand.clash>
0.0000

> <Gold.PLP.ligand.torsion>
0.3860

> <Gold.PLP.Chemscore.Hbond>
2.9825

> <Gold.PLP.Chemscore.CHOScore>
0.9452

> <Gold.PLP.Chemscore.Metal>
0.0000

> <Gold.Chemscore.Hbonds>
donor molecule, donor type, donor heavy atom, donor atom, acceptor molecule, acceptor atom, score
      P1  H  7989  7998       L1    14  1.00
      L1  C     9    30       P1  8028  0.72

> <Gold.PLP.Chemscore.Internal.Correction>
0.0717

> <Gold.Rescore>
     Score         DG    S(hbond)    S(metal)    S(lipo)     H(rot)  DE(clash)    DE(int)     intcor
      8.31     -11.71       0.93        0.00      69.56       1.96       1.92       1.48       ----

> <Gold.Chemscore.Fitness>
8.3128

> <Gold.Chemscore.DG>
-11.7107

> <Gold.Chemscore.ZeroCoef>
-5.4800

> <Gold.Chemscore.Hbond>
0.9348

> <Gold.Chemscore.Metal>
0.0000

> <Gold.Chemscore.Lipo>
69.5606

> <Gold.Chemscore.Internal_Hbond>
0.0000

> <Gold.Chemscore.DEClash>
1.9171

> <Gold.Chemscore.DEInternal>
1.4808

> <Gold.Chemscore.Rot>
1.9649

> <Gold.Chemscore.Internal.Correction>
   9.000000E+99

> <Gold.Chemscore.Hbonds>
donor molecule, donor type, donor heavy atom, donor atom, acceptor molecule, acceptor atom, score
      P1  H  7989  7998       L1    14  0.62

> <Gold.Chemscore.Hbond.Weighted>
-3.1222

> <Gold.Chemscore.Metal.Weighted>
-0.0000

> <Gold.Chemscore.Lipo.Weighted>
-8.1386

> <Gold.Chemscore.Internal_Hbond.Weighted>
0.0000

> <Gold.Chemscore.DEClash.Weighted>
1.9171

> <Gold.Chemscore.DEInternal.Weighted>
1.4808

> <Gold.Chemscore.Rot.Weighted>
5.0300

> <Gold.Chemscore.Internal.Correction.Weighted>
   9.000000E+99

> <Gold.Protein.RotatedTorsions>
[ 6907 6896 6895 6894 ] final   57.20 input  -60.11 | X-H torsion
[ 7974 7965 7964 7962 ] final -109.10 input  175.53 | X-H torsion
[ 8008 7997 7996 7995 ] final -124.98 input   59.86 | X-H torsion
[ 10167 10162 10161 10158 ] final   96.54 input  -65.29 | X-H torsion
[ 10718 10713 10712 10709 ] final  177.40 input   66.30 | X-H torsion
[ 10763 10752 10751 10750 ] final  167.90 input  -60.55 | X-H torsion
[ 11005 11000 10999 10996 ] final   35.87 input  -57.11 | X-H torsion

> <Gold.Protein.ActiveResidues>
 VAL166  LYS551  ARG553  GLY616  TRP617  ASP618  TYR619  PRO620  LYS621  CYS622 
 ASP623  PHE694  ASN695  SER759  ASP760  ASP761  ALA762  ILE779  LEU786  VAL792 
 PHE793  MET794  SER795  GLU796  ALA797  LYS798  CYS799  TRP800  GLU811  SER814 

> <Gold.Protein.RotatedAtoms>
  152.3709  134.6735  160.0176 H   0  0  0  0  0  0  0  0  0  0  0  0  # atno 6907 bound_to 6896
  151.7028  133.3306  159.3279 H   0  0  0  0  0  0  0  0  0  0  0  0  # atno 6908 bound_to 6896
  150.7673  134.6535  159.6346 H   0  0  0  0  0  0  0  0  0  0  0  0  # atno 6909 bound_to 6896
  145.1847  140.8987  143.3459 H   0  0  0  0  0  0  0  0  0  0  0  0  # atno 7974 bound_to 7965
  155.2058  140.0417  157.2925 H   0  0  0  0  0  0  0  0  0  0  0  0  # atno 8008 bound_to 7997
  154.6044  140.2460  155.7721 H   0  0  0  0  0  0  0  0  0  0  0  0  # atno 8009 bound_to 7997
  156.2341  140.2928  156.0275 H   0  0  0  0  0  0  0  0  0  0  0  0  # atno 8010 bound_to 7997
  139.7885  144.6861  150.9925 H   0  0  0  0  0  0  0  0  0  0  0  0  # atno 10167 bound_to 10162
  156.9059  130.9894  151.3028 H   0  0  0  0  0  0  0  0  0  0  0  0  # atno 10718 bound_to 10713
  154.3606  135.2753  155.2322 H   0  0  0  0  0  0  0  0  0  0  0  0  # atno 10763 bound_to 10752
  154.4512  135.5930  153.6196 H   0  0  0  0  0  0  0  0  0  0  0  0  # atno 10764 bound_to 10752
  152.9844  135.6042  154.3826 H   0  0  0  0  0  0  0  0  0  0  0  0  # atno 10765 bound_to 10752
  140.2383  134.3445  155.7936 H   0  0  0  0  0  0  0  0  0  0  0  0  # atno 11005 bound_to 11000
  145.0101  139.3518  143.6124 LP  0  0  0  0  0  0  0  0  0  0  0  0  # atno 17320 bound_to 7965
  146.3447  139.9359  142.8747 LP  0  0  0  0  0  0  0  0  0  0  0  0  # atno 17321 bound_to 7965
  140.7820  143.4406  151.0557 LP  0  0  0  0  0  0  0  0  0  0  0  0  # atno 17342 bound_to 10162
  139.8084  143.7986  152.3169 LP  0  0  0  0  0  0  0  0  0  0  0  0  # atno 17343 bound_to 10162
  157.5997  130.8504  149.8784 LP  0  0  0  0  0  0  0  0  0  0  0  0  # atno 17370 bound_to 10713
  156.0559  130.3708  150.1092 LP  0  0  0  0  0  0  0  0  0  0  0  0  # atno 17371 bound_to 10713
  141.2212  133.7284  156.8843 LP  0  0  0  0  0  0  0  0  0  0  0  0  # atno 17394 bound_to 11000
  140.1680  134.9120  157.2797 LP  0  0  0  0  0  0  0  0  0  0  0  0  # atno 17395 bound_to 11000

$$$$
