AV-unprocessed.smi:1203|AV-procd|sdf|5036|dock5
  -GOLD-   22720 4 63D 1   1.00000     0.00000
 Structure written by MMmdl.
 40 41  0  0  0  0  0  0  0  0  2 V2000
  151.9896  139.1082  157.3117 C   0  0  0  0  0  0  0  0  0  0  0  0
  151.9803  138.7542  155.5057 S   0  0  0  0  0  0  0  0  0  0  0  0
  152.8527  139.7376  154.8463 O   0  0  0  0  0  0  0  0  0  0  0  0
  152.2087  137.3150  155.3045 O   0  0  0  0  0  0  0  0  0  0  0  0
  150.3487  139.1117  155.0368 N   0  0  0  0  0  0  0  0  0  0  0  0
  149.7703  140.4461  155.1728 C   0  0  0  0  0  0  0  0  0  0  0  0
  148.4402  140.3546  154.4303 C   0  0  0  0  0  0  0  0  0  0  0  0
  148.0124  138.9016  154.6194 C   0  0  0  0  0  0  0  0  0  0  0  0
  149.3322  138.1037  154.6885 C   0  0  2  0  0  0  0  0  0  0  0  0
  149.2310  136.9107  155.6505 C   0  0  0  0  0  0  0  0  0  0  0  0
  149.3709  137.0723  156.8634 O   0  0  0  0  0  0  0  0  0  0  0  0
  148.9848  135.7146  155.0926 N   0  0  0  0  0  0  0  0  0  0  0  0
  148.8328  134.4540  155.8150 C   0  0  0  0  0  0  0  0  0  0  0  0
  148.6714  133.2494  154.8668 C   0  0  0  0  0  0  0  0  0  0  0  0
  147.2929  133.1495  154.2359 C   0  0  0  0  0  0  0  0  0  0  0  0
  147.1455  133.1515  152.8311 C   0  0  0  0  0  0  0  0  0  0  0  0
  145.8574  133.0251  152.2706 C   0  0  0  0  0  0  0  0  0  0  0  0
  144.7450  132.9024  153.1280 C   0  0  0  0  0  0  0  0  0  0  0  0
  144.9239  132.9089  154.4671 N   0  3  0  0  0  0  0  0  0  0  0  0
  146.1404  133.0277  155.0427 C   0  0  0  0  0  0  0  0  0  0  0  0
  153.0020  138.9854  157.6957 H   0  0  0  0  0  0  0  0  0  0  0  0
  151.3275  138.4198  157.8334 H   0  0  0  0  0  0  0  0  0  0  0  0
  151.6618  140.1327  157.4853 H   0  0  0  0  0  0  0  0  0  0  0  0
  149.6176  140.6630  156.2305 H   0  0  0  0  0  0  0  0  0  0  0  0
  150.4269  141.2068  154.7497 H   0  0  0  0  0  0  0  0  0  0  0  0
  147.7008  141.0659  154.7991 H   0  0  0  0  0  0  0  0  0  0  0  0
  148.5986  140.5555  153.3699 H   0  0  0  0  0  0  0  0  0  0  0  0
  147.4337  138.8212  155.5410 H   0  0  0  0  0  0  0  0  0  0  0  0
  147.3709  138.5617  153.8058 H   0  0  0  0  0  0  0  0  0  0  0  0
  149.5733  137.7378  153.6892 H   0  0  0  0  0  0  0  0  0  0  0  0
  148.9051  135.6729  154.0866 H   0  0  0  0  0  0  0  0  0  0  0  0
  149.7189  134.3122  156.4339 H   0  0  0  0  0  0  0  0  0  0  0  0
  147.9892  134.5072  156.5052 H   0  0  0  0  0  0  0  0  0  0  0  0
  149.4221  133.3028  154.0771 H   0  0  0  0  0  0  0  0  0  0  0  0
  148.8726  132.3263  155.4116 H   0  0  0  0  0  0  0  0  0  0  0  0
  148.0103  133.2368  152.1891 H   0  0  0  0  0  0  0  0  0  0  0  0
  145.7255  133.0191  151.1985 H   0  0  0  0  0  0  0  0  0  0  0  0
  143.7255  132.8002  152.7858 H   0  0  0  0  0  0  0  0  0  0  0  0
  146.1548  133.0098  156.1229 H   0  0  0  0  0  0  0  0  0  0  0  0
  144.1054  132.8190  155.0697 H   0  0  0  0  0  0  0  0  0  0  0  0
  1  2  1  0  0  0  0
  1 21  1  0  0  0  0
  1 22  1  0  0  0  0
  1 23  1  0  0  0  0
  2  3  2  0  0  0  0
  2  4  2  0  0  0  0
  2  5  1  0  0  0  0
  5  9  1  0  0  0  0
  5  6  1  0  0  0  0
  6  7  1  0  0  0  0
  6 24  1  0  0  0  0
  6 25  1  0  0  0  0
  7  8  1  0  0  0  0
  7 26  1  0  0  0  0
  7 27  1  0  0  0  0
  8  9  1  0  0  0  0
  8 28  1  0  0  0  0
  8 29  1  0  0  0  0
  9 10  1  0  0  0  0
  9 30  1  0  0  0  0
 10 11  2  0  0  0  0
 10 12  1  0  0  0  0
 12 13  1  0  0  0  0
 12 31  1  0  0  0  0
 13 14  1  0  0  0  0
 13 32  1  0  0  0  0
 13 33  1  0  0  0  0
 14 15  1  0  0  0  0
 14 34  1  0  0  0  0
 14 35  1  0  0  0  0
 15 20  1  0  0  0  0
 15 16  2  0  0  0  0
 16 17  1  0  0  0  0
 16 36  1  0  0  0  0
 17 18  2  0  0  0  0
 17 37  1  0  0  0  0
 18 19  1  0  0  0  0
 18 38  1  0  0  0  0
 19 20  2  0  0  0  0
 19 40  1  0  0  0  0
 20 39  1  0  0  0  0
M  CHG  1  19   1
M  END
> <s_m_source_file>
AV-unprocessed.smi

> <i_m_source_file_index>
1203

> <i_lp_mmshare_version>
43012

> <i_f3d_flags>
0

> <s_epik_input>
W0NIM11TKD1PKSg9TylOMVtDSDJdW0NIMl1bQ0gyXVtDQEhdMUMoPU8pW05IXVtDSDJdW0NIMl1jMltjSF1bY0hdW2NIXW5bY0hdMg==

> <s_epik_cmdline>
J2VwaWtfcHl0aG9uJywgJy1waCcsICc3LjAnLCAnLXRuJywgJzgnLCAnLW1hJywgJzIwMCcsICctbWV0YWxfYmluZGluZycsICctaW1hZScsICc8aW5maWxlLm1hZT4nLCAnLW9tYWUnLCAnPG91dGZpbGUubWFlPic=

> <r_epik_Ionization_Penalty>
2.2835

> <r_epik_Ionization_Penalty_Charging>
2.2835

> <r_epik_Ionization_Penalty_Neutral>
1.4017e-07

> <r_epik_State_Penalty>
2.43297

> <r_epik_Charging_Adjusted_Penalty>
4.71647

> <i_epik_Tot_Q>
1

> <i_epik_Tot_abs_Q>
1

> <r_epik_Metal_State_Penalty>
2.44558

> <b_epik_Metal_Only>
0

> <s_lp_Force_Field>
OPLS_2005

> <r_lp_Energy>
15.5637

> <b_lp_Chiralities_Consistent>
1

> <s_lp_Variant>
AV-unprocessed.smi:1203-4

> <Gold.Version>
5.8.1

> <Gold.Id.Protein>
6NUR|6NUR_protein|mol2

> <Gold.PLP.Fitness>
45.1335

> <Gold.PLP.PLP>
-31.7433

> <Gold.PLP.part.hbond>
-4.9952

> <Gold.PLP.part.metal>
0.0000

> <Gold.PLP.part.buried>
-3.7089

> <Gold.PLP.part.nonpolar>
-25.5017

> <Gold.PLP.part.repulsive>
0.1439

> <Gold.PLP.ligand.clash>
0.0000

> <Gold.PLP.ligand.torsion>
1.7424

> <Gold.PLP.Chemscore.Hbond>
4.9351

> <Gold.PLP.Chemscore.CHOScore>
0.0000

> <Gold.PLP.Chemscore.Metal>
0.0000

> <Gold.Chemscore.Hbonds>
donor molecule, donor type, donor heavy atom, donor atom, acceptor molecule, acceptor atom, score
      L1  H    12    31       P1  7948  0.39
      L1  H    19    40       P1 10957  1.09
      P1  H  7989  7998       L1     3  0.36
      P1  H  7997  8009       L1     3  1.00
      P1  H 10752 10765       L1     4  0.80

> <Gold.PLP.Chemscore.Internal.Correction>
2.0695

> <Gold.Rescore>
     Score         DG    S(hbond)    S(metal)    S(lipo)     H(rot)  DE(clash)    DE(int)     intcor
     18.96     -20.71       3.85        0.00      57.47       1.70       0.00       1.75       ----

> <Gold.Chemscore.Fitness>
18.9572

> <Gold.Chemscore.DG>
-20.7113

> <Gold.Chemscore.ZeroCoef>
-5.4800

> <Gold.Chemscore.Hbond>
3.8511

> <Gold.Chemscore.Metal>
0.0000

> <Gold.Chemscore.Lipo>
57.4697

> <Gold.Chemscore.Internal_Hbond>
0.0000

> <Gold.Chemscore.DEClash>
0.0000

> <Gold.Chemscore.DEInternal>
1.7541

> <Gold.Chemscore.Rot>
1.7012

> <Gold.Chemscore.Internal.Correction>
   9.000000E+99

> <Gold.Chemscore.Hbonds>
donor molecule, donor type, donor heavy atom, donor atom, acceptor molecule, acceptor atom, score
      L1  H    12    31       P1  7948  0.37
      L1  H    19    40       P1 10957  0.54
      P1  H  7989  7998       L1     3  0.25
      P1  H  7997  8009       L1     3  0.91
      P1  H 10752 10765       L1     4  0.78

> <Gold.Chemscore.Hbond.Weighted>
-12.8625

> <Gold.Chemscore.Metal.Weighted>
-0.0000

> <Gold.Chemscore.Lipo.Weighted>
-6.7240

> <Gold.Chemscore.Internal_Hbond.Weighted>
0.0000

> <Gold.Chemscore.DEClash.Weighted>
0.0000

> <Gold.Chemscore.DEInternal.Weighted>
1.7541

> <Gold.Chemscore.Rot.Weighted>
4.3551

> <Gold.Chemscore.Internal.Correction.Weighted>
   9.000000E+99

> <Gold.Protein.RotatedTorsions>
[ 6907 6896 6895 6894 ] final  -14.85 input  -60.11 | X-H torsion
[ 7974 7965 7964 7962 ] final   91.74 input  175.53 | X-H torsion
[ 8008 7997 7996 7995 ] final -129.49 input   59.86 | X-H torsion
[ 10167 10162 10161 10158 ] final   90.57 input  -65.29 | X-H torsion
[ 10718 10713 10712 10709 ] final   81.28 input   66.30 | X-H torsion
[ 10763 10752 10751 10750 ] final -176.49 input  -60.55 | X-H torsion
[ 11005 11000 10999 10996 ] final   24.30 input  -57.11 | X-H torsion

> <Gold.Protein.ActiveResidues>
 VAL166  LYS551  ARG553  GLY616  TRP617  ASP618  TYR619  PRO620  LYS621  CYS622 
 ASP623  PHE694  ASN695  SER759  ASP760  ASP761  ALA762  ILE779  LEU786  VAL792 
 PHE793  MET794  SER795  GLU796  ALA797  LYS798  CYS799  TRP800  GLU811  SER814 

> <Gold.Protein.RotatedAtoms>
  151.3330  135.0846  159.9344 H   0  0  0  0  0  0  0  0  0  0  0  0  # atno 6907 bound_to 6896
  152.5230  133.9524  159.7688 H   0  0  0  0  0  0  0  0  0  0  0  0  # atno 6908 bound_to 6896
  150.9866  133.6139  159.2744 H   0  0  0  0  0  0  0  0  0  0  0  0  # atno 6909 bound_to 6896
  145.5016  139.2276  143.2774 H   0  0  0  0  0  0  0  0  0  0  0  0  # atno 7974 bound_to 7965
  155.2800  140.0443  157.3014 H   0  0  0  0  0  0  0  0  0  0  0  0  # atno 8008 bound_to 7997
  154.5602  140.2344  155.8315 H   0  0  0  0  0  0  0  0  0  0  0  0  # atno 8009 bound_to 7997
  156.2041  140.3017  155.9596 H   0  0  0  0  0  0  0  0  0  0  0  0  # atno 8010 bound_to 7997
  139.8460  144.6617  150.9226 H   0  0  0  0  0  0  0  0  0  0  0  0  # atno 10167 bound_to 10162
  157.6829  130.9997  150.2204 H   0  0  0  0  0  0  0  0  0  0  0  0  # atno 10718 bound_to 10713
  154.5718  135.2828  155.0820 H   0  0  0  0  0  0  0  0  0  0  0  0  # atno 10763 bound_to 10752
  154.2190  135.6394  153.5142 H   0  0  0  0  0  0  0  0  0  0  0  0  # atno 10764 bound_to 10752
  153.0060  135.5510  154.6343 H   0  0  0  0  0  0  0  0  0  0  0  0  # atno 10765 bound_to 10752
  140.3602  134.2134  155.7673 H   0  0  0  0  0  0  0  0  0  0  0  0  # atno 11005 bound_to 11000
  146.2222  140.5817  142.9012 LP  0  0  0  0  0  0  0  0  0  0  0  0  # atno 17320 bound_to 7965
  144.7777  140.5774  143.6627 LP  0  0  0  0  0  0  0  0  0  0  0  0  # atno 17321 bound_to 7965
  140.7793  143.3869  151.1377 LP  0  0  0  0  0  0  0  0  0  0  0  0  # atno 17342 bound_to 10162
  139.7512  143.8776  152.3077 LP  0  0  0  0  0  0  0  0  0  0  0  0  # atno 17343 bound_to 10162
  156.2856  130.3739  149.7891 LP  0  0  0  0  0  0  0  0  0  0  0  0  # atno 17370 bound_to 10713
  156.5566  130.8365  151.3316 LP  0  0  0  0  0  0  0  0  0  0  0  0  # atno 17371 bound_to 10713
  141.1986  133.8031  157.0573 LP  0  0  0  0  0  0  0  0  0  0  0  0  # atno 17394 bound_to 11000
  140.0633  134.9743  157.1342 LP  0  0  0  0  0  0  0  0  0  0  0  0  # atno 17395 bound_to 11000

$$$$
