AV-unprocessed.smi:261|AV-procd|sdf|1996|dock9
  -GOLD-   2262021183D 1   1.00000     0.00000
 Structure written by MMmdl.
 51 54  0  0  0  0  0  0  0  0  1 V2000
  154.6716  140.4137  161.4583 C   0  0  0  0  0  0  0  0  0  0  0  0
  153.6151  141.3520  161.5797 O   0  0  0  0  0  0  0  0  0  0  0  0
  153.2953  142.0063  160.3606 C   0  0  2  0  0  0  0  0  0  0  0  0
  151.9400  142.7197  160.3902 C   0  0  0  0  0  0  0  0  0  0  0  0
  151.5051  142.7753  158.9161 C   0  0  1  0  0  0  0  0  0  0  0  0
  151.9838  144.0650  158.2261 C   0  0  0  0  0  0  0  0  0  0  0  0
  151.6318  144.2282  156.9489 N   0  0  0  0  0  0  0  0  0  0  0  0
  152.6468  144.9053  158.8323 O   0  0  0  0  0  0  0  0  0  0  0  0
  152.1264  141.5814  158.3376 N   0  0  0  0  0  0  0  0  0  0  0  0
  151.6847  140.9762  157.2006 C   0  0  0  0  0  0  0  0  0  0  0  0
  152.4949  140.0650  156.5980 N   0  0  0  0  0  0  0  0  0  0  0  0
  152.1102  139.4376  155.4839 C   0  0  0  0  0  0  0  0  0  0  0  0
  150.9692  139.5671  154.8073 N   0  0  0  0  0  0  0  0  0  0  0  0
  150.1476  140.4789  155.3999 C   0  0  0  0  0  0  0  0  0  0  0  0
  150.4205  141.2239  156.5845 C   0  0  0  0  0  0  0  0  0  0  0  0
  149.3366  142.0499  156.8678 N   0  0  0  0  0  0  0  0  0  0  0  0
  148.4799  141.8069  155.9148 C   0  0  0  0  0  0  0  0  0  0  0  0
  148.8857  140.8713  154.9928 N   0  0  0  0  0  0  0  0  0  0  0  0
  148.1395  140.4025  153.8381 C   0  0  0  0  0  0  0  0  0  0  0  0
  147.8225  138.8932  153.9135 C   0  0  1  0  0  0  0  0  0  0  0  0
  149.0356  138.1824  153.7541 O   0  0  0  0  0  0  0  0  0  0  0  0
  147.1994  138.4725  155.2594 C   0  0  1  0  0  0  0  0  0  0  0  0
  146.9702  136.9677  155.4171 C   0  0  0  0  0  0  0  0  0  0  0  0
  146.9730  136.7590  156.9225 C   0  0  0  0  0  0  0  0  0  0  0  0
  147.6516  138.0182  157.4659 C   0  0  0  0  0  0  0  0  0  0  0  0
  148.1158  138.7136  156.3171 O   0  0  0  0  0  0  0  0  0  0  0  0
  153.1126  140.9904  159.2322 C   0  0  0  0  0  0  0  0  0  0  0  0
  154.0821  142.7094  160.0803 H   0  0  0  0  0  0  0  0  0  0  0  0
  150.4166  142.7135  158.8610 H   0  0  0  0  0  0  0  0  0  0  0  0
  154.8419  139.9310  162.4205 H   0  0  0  0  0  0  0  0  0  0  0  0
  155.6030  140.8943  161.1575 H   0  0  0  0  0  0  0  0  0  0  0  0
  154.4277  139.6366  160.7327 H   0  0  0  0  0  0  0  0  0  0  0  0
  151.2233  142.1217  160.9550 H   0  0  0  0  0  0  0  0  0  0  0  0
  151.9910  143.7003  160.8656 H   0  0  0  0  0  0  0  0  0  0  0  0
  151.9151  145.0588  156.4499 H   0  0  0  0  0  0  0  0  0  0  0  0
  151.0782  143.5206  156.4881 H   0  0  0  0  0  0  0  0  0  0  0  0
  152.8176  138.7299  155.0776 H   0  0  0  0  0  0  0  0  0  0  0  0
  147.5210  142.3019  155.8624 H   0  0  0  0  0  0  0  0  0  0  0  0
  147.2185  140.9819  153.7582 H   0  0  0  0  0  0  0  0  0  0  0  0
  148.7285  140.6295  152.9492 H   0  0  0  0  0  0  0  0  0  0  0  0
  147.1486  138.6239  153.0992 H   0  0  0  0  0  0  0  0  0  0  0  0
  148.9923  137.6965  152.9446 H   0  0  0  0  0  0  0  0  0  0  0  0
  146.2665  139.0086  155.4467 H   0  0  0  0  0  0  0  0  0  0  0  0
  146.0468  136.6285  154.9466 H   0  0  0  0  0  0  0  0  0  0  0  0
  147.7984  136.4138  154.9727 H   0  0  0  0  0  0  0  0  0  0  0  0
  145.9583  136.6741  157.3132 H   0  0  0  0  0  0  0  0  0  0  0  0
  147.5155  135.8526  157.1930 H   0  0  0  0  0  0  0  0  0  0  0  0
  146.9332  138.6423  157.9995 H   0  0  0  0  0  0  0  0  0  0  0  0
  148.4752  137.7911  158.1429 H   0  0  0  0  0  0  0  0  0  0  0  0
  154.0601  140.7974  158.7286 H   0  0  0  0  0  0  0  0  0  0  0  0
  152.7222  140.0476  159.6184 H   0  0  0  0  0  0  0  0  0  0  0  0
  1  2  1  0  0  0  0
  1 30  1  0  0  0  0
  1 31  1  0  0  0  0
  1 32  1  0  0  0  0
  2  3  1  0  0  0  0
  3 28  1  0  0  0  0
  3 27  1  0  0  0  0
  3  4  1  0  0  0  0
  4  5  1  0  0  0  0
  4 33  1  0  0  0  0
  4 34  1  0  0  0  0
  5 29  1  0  0  0  0
  5  6  1  0  0  0  0
  5  9  1  0  0  0  0
  6  7  1  0  0  0  0
  6  8  2  0  0  0  0
  7 35  1  0  0  0  0
  7 36  1  0  0  0  0
  9 10  1  0  0  0  0
  9 27  1  0  0  0  0
 10 15  1  0  0  0  0
 10 11  2  0  0  0  0
 11 12  1  0  0  0  0
 12 13  2  0  0  0  0
 12 37  1  0  0  0  0
 13 14  1  0  0  0  0
 14 18  1  0  0  0  0
 14 15  2  0  0  0  0
 15 16  1  0  0  0  0
 16 17  2  0  0  0  0
 17 18  1  0  0  0  0
 17 38  1  0  0  0  0
 18 19  1  0  0  0  0
 19 20  1  0  0  0  0
 19 39  1  0  0  0  0
 19 40  1  0  0  0  0
 20 21  1  0  0  0  0
 20 22  1  0  0  0  0
 20 41  1  0  0  0  0
 21 42  1  0  0  0  0
 22 26  1  0  0  0  0
 22 23  1  0  0  0  0
 22 43  1  0  0  0  0
 23 24  1  0  0  0  0
 23 44  1  0  0  0  0
 23 45  1  0  0  0  0
 24 25  1  0  0  0  0
 24 46  1  0  0  0  0
 24 47  1  0  0  0  0
 25 26  1  0  0  0  0
 25 48  1  0  0  0  0
 25 49  1  0  0  0  0
 27 50  1  0  0  0  0
 27 51  1  0  0  0  0
M  END
> <s_m_source_file>
AV-unprocessed.smi

> <i_m_source_file_index>
261

> <i_lp_mmshare_version>
43012

> <i_f3d_flags>
0

> <s_epik_input>
W0NIM11PW0NASF0xW0NIMl1bQ0BASF0oQyg9TylbTkgyXSlOKFtDSDJdMSljKG5bY0hdbjIpYyhjMjMpbltjSF1uM1tDSDJdW0NASF0oW09IXSlbQ0BASF00W0NIMl1bQ0gyXVtDSDJdTzQ=

> <s_epik_cmdline>
J2VwaWtfcHl0aG9uJywgJy1waCcsICc3LjAnLCAnLXRuJywgJzgnLCAnLW1hJywgJzIwMCcsICctbWV0YWxfYmluZGluZycsICctaW1hZScsICc8aW5maWxlLm1hZT4nLCAnLW9tYWUnLCAnPG91dGZpbGUubWFlPic=

> <r_lp_tautomer_probability>
1

> <r_epik_Ionization_Penalty>
0.000713824

> <r_epik_Ionization_Penalty_Charging>
0

> <r_epik_Ionization_Penalty_Neutral>
0.000713824

> <r_epik_State_Penalty>
0.000402132

> <r_epik_Charging_Adjusted_Penalty>
0.000402132

> <i_epik_Tot_Q>
0

> <i_epik_Tot_abs_Q>
0

> <r_epik_Metal_State_Penalty>
-0

> <b_epik_Metal_Only>
0

> <s_lp_Force_Field>
OPLS_2005

> <r_lp_Energy>
41.8336

> <b_lp_Chiralities_Consistent>
1

> <s_lp_Variant>
AV-unprocessed.smi:261-14

> <Gold.Version>
5.8.1

> <Gold.Id.Protein>
6NUR|6NUR_protein|mol2

> <Gold.PLP.Fitness>
47.2083

> <Gold.PLP.PLP>
-39.6921

> <Gold.PLP.part.hbond>
-4.6742

> <Gold.PLP.part.metal>
0.0000

> <Gold.PLP.part.buried>
-1.6175

> <Gold.PLP.part.nonpolar>
-33.3892

> <Gold.PLP.part.repulsive>
0.6418

> <Gold.PLP.ligand.clash>
0.0000

> <Gold.PLP.ligand.torsion>
0.3700

> <Gold.PLP.Chemscore.Hbond>
2.7125

> <Gold.PLP.Chemscore.CHOScore>
0.0000

> <Gold.PLP.Chemscore.Metal>
0.0000

> <Gold.Chemscore.Hbonds>
donor molecule, donor type, donor heavy atom, donor atom, acceptor molecule, acceptor atom, score
      L1  H    21    42       P1  7948  1.00
      P1  H  7989  7998       L1    13  0.52
      P1  H  7997  8010       L1    11  1.00
      L1  C    17    38       P1  8028  0.08

> <Gold.PLP.Chemscore.Internal.Correction>
0.1186

> <Gold.Rescore>
     Score         DG    S(hbond)    S(metal)    S(lipo)     H(rot)  DE(clash)    DE(int)     intcor
      8.19     -10.92       1.87        0.00      62.69       3.18       0.04       2.69       ----

> <Gold.Chemscore.Fitness>
8.1855

> <Gold.Chemscore.DG>
-10.9216

> <Gold.Chemscore.ZeroCoef>
-5.4800

> <Gold.Chemscore.Hbond>
1.8730

> <Gold.Chemscore.Metal>
0.0000

> <Gold.Chemscore.Lipo>
62.6884

> <Gold.Chemscore.Internal_Hbond>
0.0000

> <Gold.Chemscore.DEClash>
0.0445

> <Gold.Chemscore.DEInternal>
2.6916

> <Gold.Chemscore.Rot>
3.1831

> <Gold.Chemscore.Internal.Correction>
   9.000000E+99

> <Gold.Chemscore.Hbonds>
donor molecule, donor type, donor heavy atom, donor atom, acceptor molecule, acceptor atom, score
      L1  H    21    42       P1  7948  0.99
      P1  H  7989  7998       L1    13  0.01
      P1  H  7997  8010       L1    11  0.54

> <Gold.Chemscore.Hbond.Weighted>
-6.2557

> <Gold.Chemscore.Metal.Weighted>
-0.0000

> <Gold.Chemscore.Lipo.Weighted>
-7.3345

> <Gold.Chemscore.Internal_Hbond.Weighted>
0.0000

> <Gold.Chemscore.DEClash.Weighted>
0.0445

> <Gold.Chemscore.DEInternal.Weighted>
2.6916

> <Gold.Chemscore.Rot.Weighted>
8.1486

> <Gold.Chemscore.Internal.Correction.Weighted>
   9.000000E+99

> <Gold.Protein.RotatedTorsions>
[ 6907 6896 6895 6894 ] final -143.11 input  -60.11 | X-H torsion
[ 7974 7965 7964 7962 ] final   -8.65 input  175.53 | X-H torsion
[ 8008 7997 7996 7995 ] final   65.72 input   59.86 | X-H torsion
[ 10167 10162 10161 10158 ] final  -89.67 input  -65.29 | X-H torsion
[ 10718 10713 10712 10709 ] final -176.00 input   66.30 | X-H torsion
[ 10763 10752 10751 10750 ] final -126.35 input  -60.55 | X-H torsion
[ 11005 11000 10999 10996 ] final  119.92 input  -57.11 | X-H torsion

> <Gold.Protein.ActiveResidues>
 VAL166  LYS551  ARG553  GLY616  TRP617  ASP618  TYR619  PRO620  LYS621  CYS622 
 ASP623  PHE694  ASN695  SER759  ASP760  ASP761  ALA762  ILE779  LEU786  VAL792 
 PHE793  MET794  SER795  GLU796  ALA797  LYS798  CYS799  TRP800  GLU811  SER814 

> <Gold.Protein.RotatedAtoms>
  151.0961  133.5279  159.2612 H   0  0  0  0  0  0  0  0  0  0  0  0  # atno 6907 bound_to 6896
  151.2128  135.0487  159.8928 H   0  0  0  0  0  0  0  0  0  0  0  0  # atno 6908 bound_to 6896
  152.5439  134.0774  159.8274 H   0  0  0  0  0  0  0  0  0  0  0  0  # atno 6909 bound_to 6896
  146.2274  140.2499  142.8347 H   0  0  0  0  0  0  0  0  0  0  0  0  # atno 7974 bound_to 7965
  155.6662  140.3497  155.4801 H   0  0  0  0  0  0  0  0  0  0  0  0  # atno 8008 bound_to 7997
  155.9726  140.1159  157.0821 H   0  0  0  0  0  0  0  0  0  0  0  0  # atno 8009 bound_to 7997
  154.4170  140.1154  156.5314 H   0  0  0  0  0  0  0  0  0  0  0  0  # atno 8010 bound_to 7997
  140.3626  143.2834  151.9597 H   0  0  0  0  0  0  0  0  0  0  0  0  # atno 10167 bound_to 10162
  156.8082  130.9576  151.3116 H   0  0  0  0  0  0  0  0  0  0  0  0  # atno 10718 bound_to 10713
  154.8745  135.3998  154.3416 H   0  0  0  0  0  0  0  0  0  0  0  0  # atno 10763 bound_to 10752
  153.4215  135.7023  153.6296 H   0  0  0  0  0  0  0  0  0  0  0  0  # atno 10764 bound_to 10752
  153.4957  135.3738  155.2484 H   0  0  0  0  0  0  0  0  0  0  0  0  # atno 10765 bound_to 10752
  139.9165  134.9631  156.7728 H   0  0  0  0  0  0  0  0  0  0  0  0  # atno 11005 bound_to 11000
  144.9419  140.8088  143.5625 LP  0  0  0  0  0  0  0  0  0  0  0  0  # atno 17320 bound_to 7965
  145.2452  139.2055  143.4972 LP  0  0  0  0  0  0  0  0  0  0  0  0  # atno 17321 bound_to 7965
  139.4812  144.5979  151.7657 LP  0  0  0  0  0  0  0  0  0  0  0  0  # atno 17342 bound_to 10162
  140.5112  144.1021  150.5996 LP  0  0  0  0  0  0  0  0  0  0  0  0  # atno 17343 bound_to 10162
  157.6519  130.8892  149.9651 LP  0  0  0  0  0  0  0  0  0  0  0  0  # atno 17370 bound_to 10713
  156.1060  130.3652  150.0132 LP  0  0  0  0  0  0  0  0  0  0  0  0  # atno 17371 bound_to 10713
  140.6607  133.9648  155.7803 LP  0  0  0  0  0  0  0  0  0  0  0  0  # atno 17394 bound_to 11000
  141.0645  134.0297  157.3612 LP  0  0  0  0  0  0  0  0  0  0  0  0  # atno 17395 bound_to 11000

$$$$
