AV-unprocessed.smi:1339|AV-procd|sdf|5502|dock3
  -GOLD-   22720 5 83D 1   1.00000     0.00000
 Structure written by MMmdl.
 40 41  0  0  0  0  0  0  0  0  1 V2000
  152.4053  142.5008  159.6244 C   0  0  0  0  0  0  0  0  0  0  0  0
  151.9850  143.7468  158.8268 C   0  0  0  0  0  0  0  0  0  0  0  0
  151.7828  144.9417  159.7712 C   0  0  0  0  0  0  0  0  0  0  0  0
  150.7204  143.5021  157.9789 C   0  0  0  0  0  0  0  0  0  0  0  0
  150.7900  142.2420  157.0963 C   0  0  0  0  0  0  0  0  0  0  0  0
  149.8055  142.2964  156.0224 N   0  0  0  0  0  0  0  0  0  0  0  0
  149.6603  141.3691  155.0626 C   0  0  0  0  0  0  0  0  0  0  0  0
  150.3774  140.3732  154.9673 O   0  0  0  0  0  0  0  0  0  0  0  0
  148.5255  141.5935  154.0626 C   0  0  0  0  0  0  0  0  0  0  0  0
  147.2746  141.9932  154.7896 C   0  0  0  0  0  0  0  0  0  0  0  0
  146.7719  141.4306  155.9378 C   0  0  0  0  0  0  0  0  0  0  0  0
  145.2864  142.1891  156.4415 S   0  0  0  0  0  0  0  0  0  0  0  0
  145.4089  143.2717  155.0562 C   0  0  0  0  0  0  0  0  0  0  0  0
  144.4483  144.2860  154.7663 N   0  0  0  0  0  0  0  0  0  0  0  0
  143.3437  144.5617  155.6766 C   0  0  0  0  0  0  0  0  0  0  0  0
  142.5729  145.6841  154.9881 C   0  0  0  0  0  0  0  0  0  0  0  0
  143.3476  145.8936  153.7880 N   0  0  0  0  0  0  0  0  0  0  0  0
  144.4080  145.0896  153.6829 C   0  0  0  0  0  0  0  0  0  0  0  0
  145.1969  145.1097  152.7391 O   0  0  0  0  0  0  0  0  0  0  0  0
  146.4910  143.0441  154.3026 N   0  0  0  0  0  0  0  0  0  0  0  0
  151.6075  142.1695  160.2899 H   0  0  0  0  0  0  0  0  0  0  0  0
  153.2837  142.7063  160.2371 H   0  0  0  0  0  0  0  0  0  0  0  0
  152.6606  141.6682  158.9697 H   0  0  0  0  0  0  0  0  0  0  0  0
  152.8018  144.0040  158.1511 H   0  0  0  0  0  0  0  0  0  0  0  0
  150.9714  144.7568  160.4759 H   0  0  0  0  0  0  0  0  0  0  0  0
  151.5408  145.8481  159.2155 H   0  0  0  0  0  0  0  0  0  0  0  0
  152.6851  145.1446  160.3490 H   0  0  0  0  0  0  0  0  0  0  0  0
  149.8485  143.4509  158.6328 H   0  0  0  0  0  0  0  0  0  0  0  0
  150.5577  144.3639  157.3300 H   0  0  0  0  0  0  0  0  0  0  0  0
  151.7785  142.1586  156.6444 H   0  0  0  0  0  0  0  0  0  0  0  0
  150.6404  141.3372  157.6867 H   0  0  0  0  0  0  0  0  0  0  0  0
  149.1732  143.0835  156.0220 H   0  0  0  0  0  0  0  0  0  0  0  0
  148.8145  142.3598  153.3423 H   0  0  0  0  0  0  0  0  0  0  0  0
  148.3676  140.6782  153.4904 H   0  0  0  0  0  0  0  0  0  0  0  0
  147.1815  140.6133  156.5126 H   0  0  0  0  0  0  0  0  0  0  0  0
  142.7223  143.6748  155.8085 H   0  0  0  0  0  0  0  0  0  0  0  0
  143.7169  144.8757  156.6525 H   0  0  0  0  0  0  0  0  0  0  0  0
  141.5531  145.3889  154.7392 H   0  0  0  0  0  0  0  0  0  0  0  0
  142.5442  146.5924  155.5907 H   0  0  0  0  0  0  0  0  0  0  0  0
  143.0992  146.5873  153.0976 H   0  0  0  0  0  0  0  0  0  0  0  0
  1  2  1  0  0  0  0
  1 21  1  0  0  0  0
  1 22  1  0  0  0  0
  1 23  1  0  0  0  0
  2  3  1  0  0  0  0
  2  4  1  0  0  0  0
  2 24  1  0  0  0  0
  3 25  1  0  0  0  0
  3 26  1  0  0  0  0
  3 27  1  0  0  0  0
  4  5  1  0  0  0  0
  4 28  1  0  0  0  0
  4 29  1  0  0  0  0
  5  6  1  0  0  0  0
  5 30  1  0  0  0  0
  5 31  1  0  0  0  0
  6  7  1  0  0  0  0
  6 32  1  0  0  0  0
  7  8  2  0  0  0  0
  7  9  1  0  0  0  0
  9 10  1  0  0  0  0
  9 33  1  0  0  0  0
  9 34  1  0  0  0  0
 10 20  1  0  0  0  0
 10 11  2  0  0  0  0
 11 12  1  0  0  0  0
 11 35  1  0  0  0  0
 12 13  1  0  0  0  0
 13 14  1  0  0  0  0
 13 20  2  0  0  0  0
 14 18  1  0  0  0  0
 14 15  1  0  0  0  0
 15 16  1  0  0  0  0
 15 36  1  0  0  0  0
 15 37  1  0  0  0  0
 16 17  1  0  0  0  0
 16 38  1  0  0  0  0
 16 39  1  0  0  0  0
 17 18  1  0  0  0  0
 17 40  1  0  0  0  0
 18 19  2  0  0  0  0
M  END
> <s_m_source_file>
AV-unprocessed.smi

> <i_m_source_file_index>
1339

> <i_lp_mmshare_version>
43012

> <i_f3d_flags>
0

> <s_epik_input>
W0NIM11bQ0hdKFtDSDNdKVtDSDJdW0NIMl1bTkhdQyg9TylbQ0gyXWMxW2NIXXNjKG4xKU4yW0NIMl1bQ0gyXVtOSF1DMj1P

> <s_epik_cmdline>
J2VwaWtfcHl0aG9uJywgJy1waCcsICc3LjAnLCAnLXRuJywgJzgnLCAnLW1hJywgJzIwMCcsICctbWV0YWxfYmluZGluZycsICctaW1hZScsICc8aW5maWxlLm1hZT4nLCAnLW9tYWUnLCAnPG91dGZpbGUubWFlPic=

> <r_lp_tautomer_probability>
1

> <r_epik_Ionization_Penalty>
0.000122408

> <r_epik_Ionization_Penalty_Charging>
0

> <r_epik_Ionization_Penalty_Neutral>
0.000122408

> <r_epik_State_Penalty>
-0

> <r_epik_Charging_Adjusted_Penalty>
0

> <i_epik_Tot_Q>
0

> <i_epik_Tot_abs_Q>
0

> <r_epik_Metal_State_Penalty>
-0

> <b_epik_Metal_Only>
0

> <s_lp_Force_Field>
OPLS_2005

> <r_lp_Energy>
32.4973

> <b_lp_Chiralities_Consistent>
1

> <s_lp_Variant>
AV-unprocessed.smi:1339-1

> <Gold.Version>
5.8.1

> <Gold.Id.Protein>
6NUR|6NUR_protein|mol2

> <Gold.PLP.Fitness>
47.4281

> <Gold.PLP.PLP>
-42.3945

> <Gold.PLP.part.hbond>
-2.0806

> <Gold.PLP.part.metal>
0.0000

> <Gold.PLP.part.buried>
-5.1522

> <Gold.PLP.part.nonpolar>
-36.2700

> <Gold.PLP.part.repulsive>
1.3554

> <Gold.PLP.ligand.clash>
0.0000

> <Gold.PLP.ligand.torsion>
0.5110

> <Gold.PLP.Chemscore.Hbond>
2.0000

> <Gold.PLP.Chemscore.CHOScore>
0.0000

> <Gold.PLP.Chemscore.Metal>
0.0000

> <Gold.Chemscore.Hbonds>
donor molecule, donor type, donor heavy atom, donor atom, acceptor molecule, acceptor atom, score
      L1  H     6    32       P1  8028  0.99
      P1  H  7989  7998       L1     8  1.00

> <Gold.PLP.Chemscore.Internal.Correction>
0.0556

> <Gold.Rescore>
     Score         DG    S(hbond)    S(metal)    S(lipo)     H(rot)  DE(clash)    DE(int)     intcor
     13.32     -15.81       1.68        0.00      83.01       1.95       0.76       1.73       ----

> <Gold.Chemscore.Fitness>
13.3208

> <Gold.Chemscore.DG>
-15.8105

> <Gold.Chemscore.ZeroCoef>
-5.4800

> <Gold.Chemscore.Hbond>
1.6776

> <Gold.Chemscore.Metal>
0.0000

> <Gold.Chemscore.Lipo>
83.0102

> <Gold.Chemscore.Internal_Hbond>
0.0000

> <Gold.Chemscore.DEClash>
0.7618

> <Gold.Chemscore.DEInternal>
1.7278

> <Gold.Chemscore.Rot>
1.9472

> <Gold.Chemscore.Internal.Correction>
   9.000000E+99

> <Gold.Chemscore.Hbonds>
donor molecule, donor type, donor heavy atom, donor atom, acceptor molecule, acceptor atom, score
      L1  H     6    32       P1  8028  0.93
      P1  H  7989  7998       L1     8  0.33

> <Gold.Chemscore.Hbond.Weighted>
-5.6032

> <Gold.Chemscore.Metal.Weighted>
-0.0000

> <Gold.Chemscore.Lipo.Weighted>
-9.7122

> <Gold.Chemscore.Internal_Hbond.Weighted>
0.0000

> <Gold.Chemscore.DEClash.Weighted>
0.7618

> <Gold.Chemscore.DEInternal.Weighted>
1.7278

> <Gold.Chemscore.Rot.Weighted>
4.9849

> <Gold.Chemscore.Internal.Correction.Weighted>
   9.000000E+99

> <Gold.Protein.RotatedTorsions>
[ 6907 6896 6895 6894 ] final -107.14 input  -60.11 | X-H torsion
[ 7974 7965 7964 7962 ] final   74.96 input  175.53 | X-H torsion
[ 8008 7997 7996 7995 ] final  160.85 input   59.86 | X-H torsion
[ 10167 10162 10161 10158 ] final   37.64 input  -65.29 | X-H torsion
[ 10718 10713 10712 10709 ] final   93.54 input   66.30 | X-H torsion
[ 10763 10752 10751 10750 ] final -134.90 input  -60.55 | X-H torsion
[ 11005 11000 10999 10996 ] final   28.04 input  -57.11 | X-H torsion

> <Gold.Protein.ActiveResidues>
 VAL166  LYS551  ARG553  GLY616  TRP617  ASP618  TYR619  PRO620  LYS621  CYS622 
 ASP623  PHE694  ASN695  SER759  ASP760  ASP761  ALA762  ILE779  LEU786  VAL792 
 PHE793  MET794  SER795  GLU796  ALA797  LYS798  CYS799  TRP800  GLU811  SER814 

> <Gold.Protein.RotatedAtoms>
  150.7427  133.9872  159.3594 H   0  0  0  0  0  0  0  0  0  0  0  0  # atno 6907 bound_to 6896
  151.7817  135.0758  160.0384 H   0  0  0  0  0  0  0  0  0  0  0  0  # atno 6908 bound_to 6896
  152.3269  133.5879  159.5819 H   0  0  0  0  0  0  0  0  0  0  0  0  # atno 6909 bound_to 6896
  145.7216  139.2650  143.1592 H   0  0  0  0  0  0  0  0  0  0  0  0  # atno 7974 bound_to 7965
  156.2144  140.1793  156.7622 H   0  0  0  0  0  0  0  0  0  0  0  0  # atno 8008 bound_to 7997
  154.5770  140.0672  156.9077 H   0  0  0  0  0  0  0  0  0  0  0  0  # atno 8009 bound_to 7997
  155.2571  140.3333  155.4279 H   0  0  0  0  0  0  0  0  0  0  0  0  # atno 8010 bound_to 7997
  140.4013  144.1719  150.6134 H   0  0  0  0  0  0  0  0  0  0  0  0  # atno 10167 bound_to 10162
  157.6954  131.0482  150.4049 H   0  0  0  0  0  0  0  0  0  0  0  0  # atno 10718 bound_to 10713
  154.8712  135.3720  154.4811 H   0  0  0  0  0  0  0  0  0  0  0  0  # atno 10763 bound_to 10752
  153.5464  135.7025  153.5617 H   0  0  0  0  0  0  0  0  0  0  0  0  # atno 10764 bound_to 10752
  153.3755  135.4010  155.1784 H   0  0  0  0  0  0  0  0  0  0  0  0  # atno 10765 bound_to 10752
  140.3198  134.2556  155.7719 H   0  0  0  0  0  0  0  0  0  0  0  0  # atno 11005 bound_to 11000
  146.0620  140.7960  142.9730 LP  0  0  0  0  0  0  0  0  0  0  0  0  # atno 17320 bound_to 7965
  144.6915  140.3211  143.7232 LP  0  0  0  0  0  0  0  0  0  0  0  0  # atno 17321 bound_to 7965
  140.4737  143.2404  151.9054 LP  0  0  0  0  0  0  0  0  0  0  0  0  # atno 17342 bound_to 10162
  139.4784  144.5343  151.8621 LP  0  0  0  0  0  0  0  0  0  0  0  0  # atno 17343 bound_to 10162
  156.4439  130.3997  149.6679 LP  0  0  0  0  0  0  0  0  0  0  0  0  # atno 17370 bound_to 10713
  156.3853  130.7599  151.2596 LP  0  0  0  0  0  0  0  0  0  0  0  0  # atno 17371 bound_to 10713
  141.2089  133.7764  157.0029 LP  0  0  0  0  0  0  0  0  0  0  0  0  # atno 17394 bound_to 11000
  140.0952  134.9569  157.1838 LP  0  0  0  0  0  0  0  0  0  0  0  0  # atno 17395 bound_to 11000

$$$$
