AV-unprocessed.smi:3240|AV-procd|sdf|12383|dock10
  -GOLD-   2272018243D 1   1.00000     0.00000
 Structure written by MMmdl.
 43 44  0  0  0  0  0  0  0  0  1 V2000
  143.6634  132.0837  148.9392 C   0  0  0  0  0  0  0  0  0  0  0  0
  144.5580  132.9218  149.8057 C   0  0  0  0  0  0  0  0  0  0  0  0
  145.8758  132.6191  150.2521 C   0  0  0  0  0  0  0  0  0  0  0  0
  146.3953  133.5734  151.0070 N   0  0  0  0  0  0  0  0  0  0  0  0
  145.4285  134.5137  151.0763 N   0  0  0  0  0  0  0  0  0  0  0  0
  145.6502  135.7302  151.8422 C   0  0  0  0  0  0  0  0  0  0  0  0
  145.9683  135.4746  153.3371 C   0  0  2  0  0  0  0  0  0  0  0  0
  144.6980  135.3003  154.1842 C   0  0  0  0  0  0  0  0  0  0  0  0
  146.8050  136.5231  153.9308 N   0  0  0  0  0  0  0  0  0  0  0  0
  146.2687  137.8844  153.8576 C   0  0  0  0  0  0  0  0  0  0  0  0
  147.3703  138.9370  153.5996 C   0  0  0  0  0  0  0  0  0  0  0  0
  147.7653  138.8046  152.2457 O   0  0  0  0  0  0  0  0  0  0  0  0
  146.7763  140.3546  153.7761 C   0  0  0  0  0  0  0  0  0  0  0  0
  147.8249  141.4723  153.6321 C   0  0  0  0  0  0  0  0  0  0  0  0
  149.0014  141.2585  154.5941 C   0  0  0  0  0  0  0  0  0  0  0  0
  149.6374  139.8782  154.3814 C   0  0  0  0  0  0  0  0  0  0  0  0
  148.5985  138.7519  154.5276 C   0  0  0  0  0  0  0  0  0  0  0  0
  144.3123  134.1486  150.3534 C   0  0  0  0  0  0  0  0  0  0  0  0
  143.6475  131.0435  149.2648 H   0  0  0  0  0  0  0  0  0  0  0  0
  143.9906  132.0910  147.8994 H   0  0  0  0  0  0  0  0  0  0  0  0
  142.6330  132.4399  148.9550 H   0  0  0  0  0  0  0  0  0  0  0  0
  146.4677  131.7388  150.0495 H   0  0  0  0  0  0  0  0  0  0  0  0
  146.4789  136.2749  151.3869 H   0  0  0  0  0  0  0  0  0  0  0  0
  144.7817  136.3772  151.7227 H   0  0  0  0  0  0  0  0  0  0  0  0
  146.5139  134.5319  153.3921 H   0  0  0  0  0  0  0  0  0  0  0  0
  144.0505  134.5293  153.7658 H   0  0  0  0  0  0  0  0  0  0  0  0
  144.1211  136.2241  154.2425 H   0  0  0  0  0  0  0  0  0  0  0  0
  144.9458  135.0029  155.2037 H   0  0  0  0  0  0  0  0  0  0  0  0
  147.7265  136.5049  153.5049 H   0  0  0  0  0  0  0  0  0  0  0  0
  145.5144  137.9450  153.0719 H   0  0  0  0  0  0  0  0  0  0  0  0
  145.7627  138.1346  154.7891 H   0  0  0  0  0  0  0  0  0  0  0  0
  148.3175  138.0417  152.1696 H   0  0  0  0  0  0  0  0  0  0  0  0
  145.9670  140.5172  153.0628 H   0  0  0  0  0  0  0  0  0  0  0  0
  146.3235  140.4325  154.7656 H   0  0  0  0  0  0  0  0  0  0  0  0
  148.1919  141.5078  152.6057 H   0  0  0  0  0  0  0  0  0  0  0  0
  147.3612  142.4404  153.8245 H   0  0  0  0  0  0  0  0  0  0  0  0
  149.7484  142.0397  154.4499 H   0  0  0  0  0  0  0  0  0  0  0  0
  148.6538  141.3473  155.6242 H   0  0  0  0  0  0  0  0  0  0  0  0
  150.0939  139.8338  153.3919 H   0  0  0  0  0  0  0  0  0  0  0  0
  150.4456  139.7294  155.0979 H   0  0  0  0  0  0  0  0  0  0  0  0
  148.2613  138.7211  155.5644 H   0  0  0  0  0  0  0  0  0  0  0  0
  149.0840  137.7937  154.3395 H   0  0  0  0  0  0  0  0  0  0  0  0
  143.4418  134.7845  150.2928 H   0  0  0  0  0  0  0  0  0  0  0  0
  1  2  1  0  0  0  0
  1 19  1  0  0  0  0
  1 20  1  0  0  0  0
  1 21  1  0  0  0  0
  2 18  2  0  0  0  0
  2  3  1  0  0  0  0
  3  4  2  0  0  0  0
  3 22  1  0  0  0  0
  4  5  1  0  0  0  0
  5  6  1  0  0  0  0
  5 18  1  0  0  0  0
  6  7  1  0  0  0  0
  6 23  1  0  0  0  0
  6 24  1  0  0  0  0
  7  8  1  0  0  0  0
  7  9  1  0  0  0  0
  7 25  1  0  0  0  0
  8 26  1  0  0  0  0
  8 27  1  0  0  0  0
  8 28  1  0  0  0  0
  9 10  1  0  0  0  0
  9 29  1  0  0  0  0
 10 11  1  0  0  0  0
 10 30  1  0  0  0  0
 10 31  1  0  0  0  0
 11 17  1  0  0  0  0
 11 12  1  0  0  0  0
 11 13  1  0  0  0  0
 12 32  1  0  0  0  0
 13 14  1  0  0  0  0
 13 33  1  0  0  0  0
 13 34  1  0  0  0  0
 14 15  1  0  0  0  0
 14 35  1  0  0  0  0
 14 36  1  0  0  0  0
 15 16  1  0  0  0  0
 15 37  1  0  0  0  0
 15 38  1  0  0  0  0
 16 17  1  0  0  0  0
 16 39  1  0  0  0  0
 16 40  1  0  0  0  0
 17 41  1  0  0  0  0
 17 42  1  0  0  0  0
 18 43  1  0  0  0  0
M  END
> <s_m_source_file>
AV-unprocessed.smi

> <i_m_source_file_index>
3240

> <i_lp_mmshare_version>
43012

> <i_f3d_flags>
0

> <s_epik_input>
W0NIM11jMVtjSF1ubihbY0hdMSlbQ0gyXVtDQEhdKFtDSDNdKVtOSF1bQ0gyXUMyKFtPSF0pW0NIMl1bQ0gyXVtDSDJdW0NIMl1bQ0gyXTI=

> <s_epik_cmdline>
J2VwaWtfcHl0aG9uJywgJy1waCcsICc3LjAnLCAnLXRuJywgJzgnLCAnLW1hJywgJzIwMCcsICctbWV0YWxfYmluZGluZycsICctaW1hZScsICc8aW5maWxlLm1hZT4nLCAnLW9tYWUnLCAnPG91dGZpbGUubWFlPic=

> <r_lp_tautomer_probability>
1

> <r_epik_Ionization_Penalty>
2.35969

> <r_epik_Ionization_Penalty_Charging>
0

> <r_epik_Ionization_Penalty_Neutral>
2.35969

> <r_epik_State_Penalty>
2.51455

> <r_epik_Charging_Adjusted_Penalty>
2.51455

> <i_epik_Tot_Q>
0

> <i_epik_Tot_abs_Q>
0

> <r_epik_Metal_State_Penalty>
2.51446

> <b_epik_Metal_Only>
0

> <s_lp_Force_Field>
OPLS_2005

> <r_lp_Energy>
22.0798

> <b_lp_Chiralities_Consistent>
1

> <s_lp_Variant>
AV-unprocessed.smi:3240-3

> <Gold.Version>
5.8.1

> <Gold.Id.Protein>
6NUR|6NUR_protein|mol2

> <Gold.PLP.Fitness>
41.8615

> <Gold.PLP.PLP>
-32.1537

> <Gold.PLP.part.hbond>
-2.6852

> <Gold.PLP.part.metal>
0.0000

> <Gold.PLP.part.buried>
-0.3862

> <Gold.PLP.part.nonpolar>
-28.5151

> <Gold.PLP.part.repulsive>
0.2199

> <Gold.PLP.ligand.clash>
0.0000

> <Gold.PLP.ligand.torsion>
0.6913

> <Gold.PLP.Chemscore.Hbond>
2.0000

> <Gold.PLP.Chemscore.CHOScore>
1.6725

> <Gold.PLP.Chemscore.Metal>
0.0000

> <Gold.Chemscore.Hbonds>
donor molecule, donor type, donor heavy atom, donor atom, acceptor molecule, acceptor atom, score
      L1  H     9    29       P1  7948  0.91
      L1  H    12    32       P1  7948  1.00
      L1  C     3    22       P1 10747  0.68
      L1  C    18    43       P1 10186  0.93

> <Gold.PLP.Chemscore.Internal.Correction>
0.0731

> <Gold.Rescore>
     Score         DG    S(hbond)    S(metal)    S(lipo)     H(rot)  DE(clash)    DE(int)     intcor
     16.95     -17.71       1.97        0.00      93.13       2.04       0.16       0.60       ----

> <Gold.Chemscore.Fitness>
16.9547

> <Gold.Chemscore.DG>
-17.7117

> <Gold.Chemscore.ZeroCoef>
-5.4800

> <Gold.Chemscore.Hbond>
1.9670

> <Gold.Chemscore.Metal>
0.0000

> <Gold.Chemscore.Lipo>
93.1300

> <Gold.Chemscore.Internal_Hbond>
0.0000

> <Gold.Chemscore.DEClash>
0.1616

> <Gold.Chemscore.DEInternal>
0.5954

> <Gold.Chemscore.Rot>
2.0447

> <Gold.Chemscore.Internal.Correction>
   9.000000E+99

> <Gold.Chemscore.Hbonds>
donor molecule, donor type, donor heavy atom, donor atom, acceptor molecule, acceptor atom, score
      L1  H     9    29       P1  7948  0.83
      L1  H    12    32       P1  7948  1.00

> <Gold.Chemscore.Hbond.Weighted>
-6.5699

> <Gold.Chemscore.Metal.Weighted>
-0.0000

> <Gold.Chemscore.Lipo.Weighted>
-10.8962

> <Gold.Chemscore.Internal_Hbond.Weighted>
0.0000

> <Gold.Chemscore.DEClash.Weighted>
0.1616

> <Gold.Chemscore.DEInternal.Weighted>
0.5954

> <Gold.Chemscore.Rot.Weighted>
5.2344

> <Gold.Chemscore.Internal.Correction.Weighted>
   9.000000E+99

> <Gold.Protein.RotatedTorsions>
[ 6907 6896 6895 6894 ] final  -52.55 input  -60.11 | X-H torsion
[ 7974 7965 7964 7962 ] final  -44.49 input  175.53 | X-H torsion
[ 8008 7997 7996 7995 ] final  117.87 input   59.86 | X-H torsion
[ 10167 10162 10161 10158 ] final -175.52 input  -65.29 | X-H torsion
[ 10718 10713 10712 10709 ] final  104.06 input   66.30 | X-H torsion
[ 10763 10752 10751 10750 ] final  132.21 input  -60.55 | X-H torsion
[ 11005 11000 10999 10996 ] final  168.86 input  -57.11 | X-H torsion

> <Gold.Protein.ActiveResidues>
 VAL166  LYS551  ARG553  GLY616  TRP617  ASP618  TYR619  PRO620  LYS621  CYS622 
 ASP623  PHE694  ASN695  SER759  ASP760  ASP761  ALA762  ILE779  LEU786  VAL792 
 PHE793  MET794  SER795  GLU796  ALA797  LYS798  CYS799  TRP800  GLU811  SER814 

> <Gold.Protein.RotatedAtoms>
  150.8508  134.7831  159.7006 H   0  0  0  0  0  0  0  0  0  0  0  0  # atno 6907 bound_to 6896
  152.4573  134.5260  159.9806 H   0  0  0  0  0  0  0  0  0  0  0  0  # atno 6908 bound_to 6896
  151.5382  133.3399  159.2966 H   0  0  0  0  0  0  0  0  0  0  0  0  # atno 6909 bound_to 6896
  145.9916  140.7175  142.9314 H   0  0  0  0  0  0  0  0  0  0  0  0  # atno 7974 bound_to 7965
  156.2517  140.2887  156.0746 H   0  0  0  0  0  0  0  0  0  0  0  0  # atno 8008 bound_to 7997
  155.1633  140.0400  157.2864 H   0  0  0  0  0  0  0  0  0  0  0  0  # atno 8009 bound_to 7997
  154.6377  140.2514  155.7365 H   0  0  0  0  0  0  0  0  0  0  0  0  # atno 8010 bound_to 7997
  139.5577  144.1948  152.1186 H   0  0  0  0  0  0  0  0  0  0  0  0  # atno 10167 bound_to 10162
  157.6752  131.0794  150.5649 H   0  0  0  0  0  0  0  0  0  0  0  0  # atno 10718 bound_to 10713
  153.7870  135.3160  155.3373 H   0  0  0  0  0  0  0  0  0  0  0  0  # atno 10763 bound_to 10752
  154.8140  135.4648  154.0596 H   0  0  0  0  0  0  0  0  0  0  0  0  # atno 10764 bound_to 10752
  153.1902  135.6907  153.8448 H   0  0  0  0  0  0  0  0  0  0  0  0  # atno 10765 bound_to 10752
  140.2917  134.7667  157.3844 H   0  0  0  0  0  0  0  0  0  0  0  0  # atno 11005 bound_to 11000
  144.6890  140.3079  143.7253 LP  0  0  0  0  0  0  0  0  0  0  0  0  # atno 17320 bound_to 7965
  145.7622  139.1828  143.2260 LP  0  0  0  0  0  0  0  0  0  0  0  0  # atno 17321 bound_to 7965
  140.1456  144.5162  150.6718 LP  0  0  0  0  0  0  0  0  0  0  0  0  # atno 17342 bound_to 10162
  140.6852  143.2346  151.5279 LP  0  0  0  0  0  0  0  0  0  0  0  0  # atno 17343 bound_to 10162
  156.5951  130.4339  149.5920 LP  0  0  0  0  0  0  0  0  0  0  0  0  # atno 17370 bound_to 10713
  156.2551  130.6930  151.1680 LP  0  0  0  0  0  0  0  0  0  0  0  0  # atno 17371 bound_to 10713
  140.1189  134.5246  155.8201 LP  0  0  0  0  0  0  0  0  0  0  0  0  # atno 17394 bound_to 11000
  141.2145  133.6749  156.6829 LP  0  0  0  0  0  0  0  0  0  0  0  0  # atno 17395 bound_to 11000

$$$$
