AV-unprocessed.smi:3146|AV-procd|sdf|11985|dock5
  -GOLD-   2272017393D 1   1.00000     0.00000
 Structure written by MMmdl.
 35 36  0  0  0  0  0  0  0  0  2 V2000
  152.2056  140.9420  157.9339 O   0  0  0  0  0  0  0  0  0  0  0  0
  151.9510  142.0079  158.4971 C   0  0  0  0  0  0  0  0  0  0  0  0
  151.0881  143.0579  157.7825 C   0  0  0  0  0  0  0  0  0  0  0  0
  150.5883  142.5810  156.4768 N   0  3  0  0  0  0  0  0  0  0  0  0
  149.8510  141.3030  156.5403 C   0  0  0  0  0  0  0  0  0  0  0  0
  149.8240  140.5938  155.1768 C   0  0  0  0  0  0  0  0  0  0  0  0
  148.5677  140.7936  154.4770 N   0  0  0  0  0  0  0  0  0  0  0  0
  147.9647  141.9816  154.1203 C   0  0  0  0  0  0  0  0  0  0  0  0
  146.8026  141.6690  153.4751 C   0  0  0  0  0  0  0  0  0  0  0  0
  146.7798  140.2461  153.4877 C   0  0  0  0  0  0  0  0  0  0  0  0
  147.8389  139.7251  154.0864 N   0  0  0  0  0  0  0  0  0  0  0  0
  152.4046  142.2917  159.7354 N   0  0  0  0  0  0  0  0  0  0  0  0
  153.2376  141.4175  160.5608 C   0  0  0  0  0  0  0  0  0  0  0  0
  153.6699  142.2669  161.7566 C   0  0  0  0  0  0  0  0  0  0  0  0
  152.5830  143.3264  161.8757 C   0  0  0  0  0  0  0  0  0  0  0  0
  152.1102  143.5395  160.4376 C   0  0  0  0  0  0  0  0  0  0  0  0
  150.2382  143.3146  158.4162 H   0  0  0  0  0  0  0  0  0  0  0  0
  151.6749  143.9642  157.6269 H   0  0  0  0  0  0  0  0  0  0  0  0
  149.9744  143.2860  156.0933 H   0  0  0  0  0  0  0  0  0  0  0  0
  150.3324  140.6586  157.2768 H   0  0  0  0  0  0  0  0  0  0  0  0
  148.8332  141.4817  156.8896 H   0  0  0  0  0  0  0  0  0  0  0  0
  150.6451  140.9356  154.5445 H   0  0  0  0  0  0  0  0  0  0  0  0
  149.9656  139.5216  155.3171 H   0  0  0  0  0  0  0  0  0  0  0  0
  148.4070  142.9396  154.3518 H   0  0  0  0  0  0  0  0  0  0  0  0
  146.0775  142.3526  153.0586 H   0  0  0  0  0  0  0  0  0  0  0  0
  146.0311  139.5816  153.0817 H   0  0  0  0  0  0  0  0  0  0  0  0
  152.6412  140.5671  160.8946 H   0  0  0  0  0  0  0  0  0  0  0  0
  154.1047  141.0364  160.0198 H   0  0  0  0  0  0  0  0  0  0  0  0
  153.7934  141.6822  162.6686 H   0  0  0  0  0  0  0  0  0  0  0  0
  154.6240  142.7483  161.5374 H   0  0  0  0  0  0  0  0  0  0  0  0
  151.7599  142.9387  162.4775 H   0  0  0  0  0  0  0  0  0  0  0  0
  152.9366  144.2446  162.3456 H   0  0  0  0  0  0  0  0  0  0  0  0
  152.6675  144.3510  159.9676 H   0  0  0  0  0  0  0  0  0  0  0  0
  151.0492  143.7916  160.4027 H   0  0  0  0  0  0  0  0  0  0  0  0
  151.3749  142.4724  155.8525 H   0  0  0  0  0  0  0  0  0  0  0  0
  1  2  2  0  0  0  0
  2  3  1  0  0  0  0
  2 12  1  0  0  0  0
  3  4  1  0  0  0  0
  3 17  1  0  0  0  0
  3 18  1  0  0  0  0
  4  5  1  0  0  0  0
  4 19  1  0  0  0  0
  4 35  1  0  0  0  0
  5  6  1  0  0  0  0
  5 20  1  0  0  0  0
  5 21  1  0  0  0  0
  6  7  1  0  0  0  0
  6 22  1  0  0  0  0
  6 23  1  0  0  0  0
  7 11  1  0  0  0  0
  7  8  1  0  0  0  0
  8  9  2  0  0  0  0
  8 24  1  0  0  0  0
  9 10  1  0  0  0  0
  9 25  1  0  0  0  0
 10 11  2  0  0  0  0
 10 26  1  0  0  0  0
 12 16  1  0  0  0  0
 12 13  1  0  0  0  0
 13 14  1  0  0  0  0
 13 27  1  0  0  0  0
 13 28  1  0  0  0  0
 14 15  1  0  0  0  0
 14 29  1  0  0  0  0
 14 30  1  0  0  0  0
 15 16  1  0  0  0  0
 15 31  1  0  0  0  0
 15 32  1  0  0  0  0
 16 33  1  0  0  0  0
 16 34  1  0  0  0  0
M  CHG  1   4   1
M  END
> <s_m_source_file>
AV-unprocessed.smi

> <i_m_source_file_index>
3146

> <i_lp_mmshare_version>
43012

> <i_f3d_flags>
0

> <s_epik_input>
W0NIMl0xW0NIMl1bQ0gyXVtDSDJdTjFDKD1PKVtDSDJdW05IXVtDSDJdW0NIMl1uMltjSF1bY0hdW2NIXW4y

> <s_epik_cmdline>
J2VwaWtfcHl0aG9uJywgJy1waCcsICc3LjAnLCAnLXRuJywgJzgnLCAnLW1hJywgJzIwMCcsICctbWV0YWxfYmluZGluZycsICctaW1hZScsICc8aW5maWxlLm1hZT4nLCAnLW9tYWUnLCAnPG91dGZpbGUubWFlPic=

> <r_lp_tautomer_probability>
1

> <r_epik_Ionization_Penalty>
0.203171

> <r_epik_Ionization_Penalty_Charging>
0.203168

> <r_epik_Ionization_Penalty_Neutral>
2.33614e-06

> <r_epik_State_Penalty>
0.193072

> <r_epik_Charging_Adjusted_Penalty>
0.39624

> <i_epik_Tot_Q>
1

> <i_epik_Tot_abs_Q>
1

> <r_epik_Metal_State_Penalty>
0.193553

> <b_epik_Metal_Only>
0

> <s_lp_Force_Field>
OPLS_2005

> <r_lp_Energy>
25.7734

> <b_lp_Chiralities_Consistent>
1

> <s_lp_Variant>
AV-unprocessed.smi:3146-1

> <Gold.Version>
5.8.1

> <Gold.Id.Protein>
6NUR|6NUR_protein|mol2

> <Gold.PLP.Fitness>
48.5053

> <Gold.PLP.PLP>
-38.2062

> <Gold.PLP.part.hbond>
-1.0000

> <Gold.PLP.part.metal>
0.0000

> <Gold.PLP.part.buried>
-3.9084

> <Gold.PLP.part.nonpolar>
-32.9439

> <Gold.PLP.part.repulsive>
0.2210

> <Gold.PLP.ligand.clash>
0.0000

> <Gold.PLP.ligand.torsion>
0.4237

> <Gold.PLP.Chemscore.Hbond>
2.0000

> <Gold.PLP.Chemscore.CHOScore>
1.7072

> <Gold.PLP.Chemscore.Metal>
0.0000

> <Gold.Chemscore.Hbonds>
donor molecule, donor type, donor heavy atom, donor atom, acceptor molecule, acceptor atom, score
      L1  H     4    19       P1  8028  2.00
      L1  C     8    24       P1  8028  1.00
      L1  C    10    26       P1 10175  0.70

> <Gold.PLP.Chemscore.Internal.Correction>
0.0249

> <Gold.Rescore>
     Score         DG    S(hbond)    S(metal)    S(lipo)     H(rot)  DE(clash)    DE(int)     intcor
     12.55     -14.50       1.00        0.00      90.07       1.90       0.06       1.89       ----

> <Gold.Chemscore.Fitness>
12.5503

> <Gold.Chemscore.DG>
-14.4952

> <Gold.Chemscore.ZeroCoef>
-5.4800

> <Gold.Chemscore.Hbond>
0.9983

> <Gold.Chemscore.Metal>
0.0000

> <Gold.Chemscore.Lipo>
90.0697

> <Gold.Chemscore.Internal_Hbond>
0.0000

> <Gold.Chemscore.DEClash>
0.0563

> <Gold.Chemscore.DEInternal>
1.8886

> <Gold.Chemscore.Rot>
1.8974

> <Gold.Chemscore.Internal.Correction>
   9.000000E+99

> <Gold.Chemscore.Hbonds>
donor molecule, donor type, donor heavy atom, donor atom, acceptor molecule, acceptor atom, score
      L1  H     4    19       P1  8028  1.00

> <Gold.Chemscore.Hbond.Weighted>
-3.3342

> <Gold.Chemscore.Metal.Weighted>
-0.0000

> <Gold.Chemscore.Lipo.Weighted>
-10.5382

> <Gold.Chemscore.Internal_Hbond.Weighted>
0.0000

> <Gold.Chemscore.DEClash.Weighted>
0.0563

> <Gold.Chemscore.DEInternal.Weighted>
1.8886

> <Gold.Chemscore.Rot.Weighted>
4.8572

> <Gold.Chemscore.Internal.Correction.Weighted>
   9.000000E+99

> <Gold.Protein.RotatedTorsions>
[ 6907 6896 6895 6894 ] final  155.03 input  -60.11 | X-H torsion
[ 7974 7965 7964 7962 ] final   56.09 input  175.53 | X-H torsion
[ 8008 7997 7996 7995 ] final  103.70 input   59.86 | X-H torsion
[ 10167 10162 10161 10158 ] final  166.18 input  -65.29 | X-H torsion
[ 10718 10713 10712 10709 ] final   86.06 input   66.30 | X-H torsion
[ 10763 10752 10751 10750 ] final -137.76 input  -60.55 | X-H torsion
[ 11005 11000 10999 10996 ] final -143.52 input  -57.11 | X-H torsion

> <Gold.Protein.ActiveResidues>
 VAL166  LYS551  ARG553  GLY616  TRP617  ASP618  TYR619  PRO620  LYS621  CYS622 
 ASP623  PHE694  ASN695  SER759  ASP760  ASP761  ALA762  ILE779  LEU786  VAL792 
 PHE793  MET794  SER795  GLU796  ALA797  LYS798  CYS799  TRP800  GLU811  SER814 

> <Gold.Protein.RotatedAtoms>
  152.0500  133.4015  159.4372 H   0  0  0  0  0  0  0  0  0  0  0  0  # atno 6907 bound_to 6896
  150.6870  134.3318  159.4840 H   0  0  0  0  0  0  0  0  0  0  0  0  # atno 6908 bound_to 6896
  152.1127  134.9262  160.0616 H   0  0  0  0  0  0  0  0  0  0  0  0  # atno 6909 bound_to 6896
  145.9434  139.3909  143.0349 H   0  0  0  0  0  0  0  0  0  0  0  0  # atno 7974 bound_to 7965
  156.1508  140.3160  155.8644 H   0  0  0  0  0  0  0  0  0  0  0  0  # atno 8008 bound_to 7997
  155.3975  140.0497  157.3055 H   0  0  0  0  0  0  0  0  0  0  0  0  # atno 8009 bound_to 7997
  154.5056  140.2146  155.9269 H   0  0  0  0  0  0  0  0  0  0  0  0  # atno 8010 bound_to 7997
  139.4920  144.4054  151.9361 H   0  0  0  0  0  0  0  0  0  0  0  0  # atno 10167 bound_to 10162
  157.6923  131.0200  150.2916 H   0  0  0  0  0  0  0  0  0  0  0  0  # atno 10718 bound_to 10713
  154.8654  135.3632  154.5276 H   0  0  0  0  0  0  0  0  0  0  0  0  # atno 10763 bound_to 10752
  153.5903  135.7016  153.5431 H   0  0  0  0  0  0  0  0  0  0  0  0  # atno 10764 bound_to 10752
  153.3379  135.4106  155.1510 H   0  0  0  0  0  0  0  0  0  0  0  0  # atno 10765 bound_to 10752
  140.8117  134.2737  157.4938 H   0  0  0  0  0  0  0  0  0  0  0  0  # atno 11005 bound_to 11000
  145.8268  140.9651  143.0870 LP  0  0  0  0  0  0  0  0  0  0  0  0  # atno 17320 bound_to 7965
  144.6783  140.0112  143.7484 LP  0  0  0  0  0  0  0  0  0  0  0  0  # atno 17321 bound_to 7965
  140.3494  144.3107  150.5952 LP  0  0  0  0  0  0  0  0  0  0  0  0  # atno 17342 bound_to 10162
  140.5498  143.2208  151.7946 LP  0  0  0  0  0  0  0  0  0  0  0  0  # atno 17343 bound_to 10162
  156.3446  130.3821  149.7380 LP  0  0  0  0  0  0  0  0  0  0  0  0  # atno 17370 bound_to 10713
  156.4878  130.8071  151.3082 LP  0  0  0  0  0  0  0  0  0  0  0  0  # atno 17371 bound_to 10713
  139.8714  134.9486  156.4003 LP  0  0  0  0  0  0  0  0  0  0  0  0  # atno 17394 bound_to 11000
  140.9191  133.7657  155.9884 LP  0  0  0  0  0  0  0  0  0  0  0  0  # atno 17395 bound_to 11000

$$$$
