AV-unprocessed.smi:2503|AV-procd|sdf|9847|dock3
  -GOLD-   2272013473D 1   1.00000     0.00000
 Structure written by MMmdl.
 37 38  0  0  0  0  0  0  0  0  2 V2000
  146.8031  138.9825  151.6156 C   0  0  0  0  0  0  0  0  0  0  0  0
  147.2174  138.8895  153.0905 C   0  0  0  0  0  0  0  0  0  0  0  0
  146.4789  137.7522  153.8138 C   0  0  0  0  0  0  0  0  0  0  0  0
  147.0437  140.2108  153.7881 C   0  0  0  0  0  0  0  0  0  0  0  0
  145.8805  140.8558  153.9456 N   0  3  0  0  0  0  0  0  0  0  0  0
  146.0728  142.0449  154.5932 C   0  0  0  0  0  0  0  0  0  0  0  0
  147.4183  142.1428  154.8281 C   0  0  0  0  0  0  0  0  0  0  0  0
  147.9935  141.0076  154.3144 N   0  0  0  0  0  0  0  0  0  0  0  0
  149.4293  140.6866  154.3319 C   0  0  0  0  0  0  0  0  0  0  0  0
  150.0472  140.8364  155.7274 C   0  0  0  0  0  0  0  0  0  0  0  0
  150.3595  139.8276  156.3646 O   0  0  0  0  0  0  0  0  0  0  0  0
  150.2023  142.1138  156.1455 N   0  0  0  0  0  0  0  0  0  0  0  0
  150.7360  142.6206  157.2824 C   0  0  0  0  0  0  0  0  0  0  0  0
  151.0295  141.8769  158.2167 O   0  0  0  0  0  0  0  0  0  0  0  0
  150.9150  143.9536  157.3354 N   0  0  0  0  0  0  0  0  0  0  0  0
  151.7962  144.6425  158.2216 C   0  0  0  0  0  0  0  0  0  0  0  0
  152.8432  143.8240  158.9452 C   0  0  0  0  0  0  0  0  0  0  0  0
  151.6605  144.3619  159.7024 C   0  0  0  0  0  0  0  0  0  0  0  0
  147.3803  139.7449  151.0918 H   0  0  0  0  0  0  0  0  0  0  0  0
  145.7473  139.2359  151.5148 H   0  0  0  0  0  0  0  0  0  0  0  0
  146.9679  138.0349  151.1022 H   0  0  0  0  0  0  0  0  0  0  0  0
  148.2803  138.6558  153.1303 H   0  0  0  0  0  0  0  0  0  0  0  0
  146.8113  137.6655  154.8487 H   0  0  0  0  0  0  0  0  0  0  0  0
  146.6670  136.7941  153.3286 H   0  0  0  0  0  0  0  0  0  0  0  0
  145.4003  137.9118  153.8201 H   0  0  0  0  0  0  0  0  0  0  0  0
  145.2599  142.7165  154.8284 H   0  0  0  0  0  0  0  0  0  0  0  0
  147.9957  142.9189  155.3095 H   0  0  0  0  0  0  0  0  0  0  0  0
  149.5618  139.6745  153.9470 H   0  0  0  0  0  0  0  0  0  0  0  0
  149.9371  141.3615  153.6418 H   0  0  0  0  0  0  0  0  0  0  0  0
  149.8671  142.8134  155.4994 H   0  0  0  0  0  0  0  0  0  0  0  0
  150.3809  144.5245  156.6954 H   0  0  0  0  0  0  0  0  0  0  0  0
  152.0828  145.6587  157.9538 H   0  0  0  0  0  0  0  0  0  0  0  0
  152.8729  142.7524  158.7567 H   0  0  0  0  0  0  0  0  0  0  0  0
  153.8096  144.2915  159.1238 H   0  0  0  0  0  0  0  0  0  0  0  0
  151.8368  145.1886  160.3875 H   0  0  0  0  0  0  0  0  0  0  0  0
  150.9015  143.6487  160.0192 H   0  0  0  0  0  0  0  0  0  0  0  0
  144.9841  140.5064  153.6309 H   0  0  0  0  0  0  0  0  0  0  0  0
  1  2  1  0  0  0  0
  1 19  1  0  0  0  0
  1 20  1  0  0  0  0
  1 21  1  0  0  0  0
  2  3  1  0  0  0  0
  2  4  1  0  0  0  0
  2 22  1  0  0  0  0
  3 23  1  0  0  0  0
  3 24  1  0  0  0  0
  3 25  1  0  0  0  0
  4  8  1  0  0  0  0
  4  5  2  0  0  0  0
  5  6  1  0  0  0  0
  5 37  1  0  0  0  0
  6  7  2  0  0  0  0
  6 26  1  0  0  0  0
  7  8  1  0  0  0  0
  7 27  1  0  0  0  0
  8  9  1  0  0  0  0
  9 10  1  0  0  0  0
  9 28  1  0  0  0  0
  9 29  1  0  0  0  0
 10 11  2  0  0  0  0
 10 12  1  0  0  0  0
 12 13  1  0  0  0  0
 12 30  1  0  0  0  0
 13 14  2  0  0  0  0
 13 15  1  0  0  0  0
 15 16  1  0  0  0  0
 15 31  1  0  0  0  0
 16 18  1  0  0  0  0
 16 17  1  0  0  0  0
 16 32  1  0  0  0  0
 17 18  1  0  0  0  0
 17 33  1  0  0  0  0
 17 34  1  0  0  0  0
 18 35  1  0  0  0  0
 18 36  1  0  0  0  0
M  CHG  1   5   1
M  END
> <s_m_source_file>
AV-unprocessed.smi

> <i_m_source_file_index>
2503

> <i_lp_mmshare_version>
43012

> <i_f3d_flags>
0

> <s_epik_input>
W0NIM11bQ0hdKFtDSDNdKWMxbltjSF1bY0hdbjFbQ0gyXUMoPU8pW05IXUMoPU8pW05IXVtDSF0yW0NIMl1bQ0gyXTI=

> <s_epik_cmdline>
J2VwaWtfcHl0aG9uJywgJy1waCcsICc3LjAnLCAnLXRuJywgJzgnLCAnLW1hJywgJzIwMCcsICctbWV0YWxfYmluZGluZycsICctaW1hZScsICc8aW5maWxlLm1hZT4nLCAnLW9tYWUnLCAnPG91dGZpbGUubWFlPic=

> <r_lp_tautomer_probability>
1

> <r_epik_Ionization_Penalty>
0.381304

> <r_epik_Ionization_Penalty_Charging>
0

> <r_epik_Ionization_Penalty_Neutral>
0.381304

> <r_epik_State_Penalty>
0.37936

> <r_epik_Charging_Adjusted_Penalty>
0.37936

> <i_epik_Tot_Q>
1

> <i_epik_Tot_abs_Q>
1

> <r_epik_Metal_State_Penalty>
0.628559

> <b_epik_Metal_Only>
0

> <s_lp_Force_Field>
OPLS_2005

> <r_lp_Energy>
25.6891

> <b_lp_Chiralities_Consistent>
1

> <s_lp_Variant>
AV-unprocessed.smi:2503-1

> <Gold.Version>
5.8.1

> <Gold.Id.Protein>
6NUR|6NUR_protein|mol2

> <Gold.PLP.Fitness>
51.4915

> <Gold.PLP.PLP>
-38.6919

> <Gold.PLP.part.hbond>
-3.0000

> <Gold.PLP.part.metal>
0.0000

> <Gold.PLP.part.buried>
-0.6860

> <Gold.PLP.part.nonpolar>
-36.3661

> <Gold.PLP.part.repulsive>
0.1477

> <Gold.PLP.ligand.clash>
0.0000

> <Gold.PLP.ligand.torsion>
0.4624

> <Gold.PLP.Chemscore.Hbond>
3.5502

> <Gold.PLP.Chemscore.CHOScore>
0.9723

> <Gold.PLP.Chemscore.Metal>
0.0000

> <Gold.Chemscore.Hbonds>
donor molecule, donor type, donor heavy atom, donor atom, acceptor molecule, acceptor atom, score
      L1  H     5    37       P1 10175  2.00
      L1  H    12    30       P1  8028  0.53
      L1  H    15    31       P1  8028  1.00
      L1  C     7    27       P1  8028  0.96

> <Gold.PLP.Chemscore.Internal.Correction>
0.1571

> <Gold.Rescore>
     Score         DG    S(hbond)    S(metal)    S(lipo)     H(rot)  DE(clash)    DE(int)     intcor
     12.75     -17.68       2.31        0.00      78.07       1.82       0.57       4.36       ----

> <Gold.Chemscore.Fitness>
12.7489

> <Gold.Chemscore.DG>
-17.6806

> <Gold.Chemscore.ZeroCoef>
-5.4800

> <Gold.Chemscore.Hbond>
2.3144

> <Gold.Chemscore.Metal>
0.0000

> <Gold.Chemscore.Lipo>
78.0750

> <Gold.Chemscore.Internal_Hbond>
0.0000

> <Gold.Chemscore.DEClash>
0.5721

> <Gold.Chemscore.DEInternal>
4.3596

> <Gold.Chemscore.Rot>
1.8220

> <Gold.Chemscore.Internal.Correction>
   9.000000E+99

> <Gold.Chemscore.Hbonds>
donor molecule, donor type, donor heavy atom, donor atom, acceptor molecule, acceptor atom, score
      L1  H     5    37       P1 10175  0.95
      L1  H    12    30       P1  8028  0.51
      L1  H    15    31       P1  8028  0.88

> <Gold.Chemscore.Hbond.Weighted>
-7.7301

> <Gold.Chemscore.Metal.Weighted>
-0.0000

> <Gold.Chemscore.Lipo.Weighted>
-9.1348

> <Gold.Chemscore.Internal_Hbond.Weighted>
0.0000

> <Gold.Chemscore.DEClash.Weighted>
0.5721

> <Gold.Chemscore.DEInternal.Weighted>
4.3596

> <Gold.Chemscore.Rot.Weighted>
4.6643

> <Gold.Chemscore.Internal.Correction.Weighted>
   9.000000E+99

> <Gold.Protein.RotatedTorsions>
[ 6907 6896 6895 6894 ] final  -43.07 input  -60.11 | X-H torsion
[ 7974 7965 7964 7962 ] final   20.65 input  175.53 | X-H torsion
[ 8008 7997 7996 7995 ] final -103.52 input   59.86 | X-H torsion
[ 10167 10162 10161 10158 ] final   30.03 input  -65.29 | X-H torsion
[ 10718 10713 10712 10709 ] final  -78.81 input   66.30 | X-H torsion
[ 10763 10752 10751 10750 ] final   -5.13 input  -60.55 | X-H torsion
[ 11005 11000 10999 10996 ] final  -29.81 input  -57.11 | X-H torsion

> <Gold.Protein.ActiveResidues>
 VAL166  LYS551  ARG553  GLY616  TRP617  ASP618  TYR619  PRO620  LYS621  CYS622 
 ASP623  PHE694  ASN695  SER759  ASP760  ASP761  ALA762  ILE779  LEU786  VAL792 
 PHE793  MET794  SER795  GLU796  ALA797  LYS798  CYS799  TRP800  GLU811  SER814 

> <Gold.Protein.RotatedAtoms>
  150.9481  134.8884  159.7654 H   0  0  0  0  0  0  0  0  0  0  0  0  # atno 6907 bound_to 6896
  152.5108  134.3846  159.9373 H   0  0  0  0  0  0  0  0  0  0  0  0  # atno 6908 bound_to 6896
  151.3863  133.3764  159.2750 H   0  0  0  0  0  0  0  0  0  0  0  0  # atno 6909 bound_to 6896
  146.2103  139.8140  142.8694 H   0  0  0  0  0  0  0  0  0  0  0  0  # atno 7974 bound_to 7965
  154.8720  140.0422  157.1730 H   0  0  0  0  0  0  0  0  0  0  0  0  # atno 8008 bound_to 7997
  154.8729  140.2961  155.5450 H   0  0  0  0  0  0  0  0  0  0  0  0  # atno 8009 bound_to 7997
  156.2999  140.2426  156.3720 H   0  0  0  0  0  0  0  0  0  0  0  0  # atno 8010 bound_to 7997
  140.4713  144.0757  150.6238 H   0  0  0  0  0  0  0  0  0  0  0  0  # atno 10167 bound_to 10162
  156.0108  130.4528  150.3553 H   0  0  0  0  0  0  0  0  0  0  0  0  # atno 10718 bound_to 10713
  153.3943  135.7003  153.6472 H   0  0  0  0  0  0  0  0  0  0  0  0  # atno 10763 bound_to 10752
  153.5031  135.3648  155.2550 H   0  0  0  0  0  0  0  0  0  0  0  0  # atno 10764 bound_to 10752
  154.8705  135.4117  154.3266 H   0  0  0  0  0  0  0  0  0  0  0  0  # atno 10765 bound_to 10752
  140.9329  133.7327  156.0962 H   0  0  0  0  0  0  0  0  0  0  0  0  # atno 11005 bound_to 11000
  145.3166  141.0233  143.3524 LP  0  0  0  0  0  0  0  0  0  0  0  0  # atno 17320 bound_to 7965
  144.8897  139.4791  143.6684 LP  0  0  0  0  0  0  0  0  0  0  0  0  # atno 17321 bound_to 7965
  140.3973  143.2722  151.9990 LP  0  0  0  0  0  0  0  0  0  0  0  0  # atno 17342 bound_to 10162
  139.4819  144.6027  151.7576 LP  0  0  0  0  0  0  0  0  0  0  0  0  # atno 17343 bound_to 10162
  157.1644  131.0353  151.2825 LP  0  0  0  0  0  0  0  0  0  0  0  0  # atno 17370 bound_to 10713
  157.4283  130.7476  149.6969 LP  0  0  0  0  0  0  0  0  0  0  0  0  # atno 17371 bound_to 10713
  140.7839  134.3694  157.5481 LP  0  0  0  0  0  0  0  0  0  0  0  0  # atno 17394 bound_to 11000
  139.8800  134.9098  156.3000 LP  0  0  0  0  0  0  0  0  0  0  0  0  # atno 17395 bound_to 11000

$$$$
