AV-unprocessed.smi:196|AV-procd|sdf|1534|dock1
  -GOLD-   2262019383D 1   1.00000     0.00000
 Structure written by MMmdl.
 47 50  0  0  0  0  0  0  0  0  1 V2000
  155.2692  133.9448  162.5416 C   0  0  0  0  0  0  0  0  0  0  0  0
  155.5197  135.4429  162.7849 C   0  0  2  0  0  0  0  0  0  0  0  0
  155.1484  135.7107  164.1383 O   0  0  0  0  0  0  0  0  0  0  0  0
  154.3192  136.8610  164.2038 C   0  0  0  0  0  0  0  0  0  0  0  0
  153.5902  136.8461  162.8703 C   0  0  0  0  0  0  0  0  0  0  0  0
  154.6921  136.4178  161.9071 C   0  0  2  0  0  0  0  0  0  0  0  0
  154.0958  135.7854  160.7872 O   0  0  0  0  0  0  0  0  0  0  0  0
  155.5733  137.5880  161.3937 C   0  0  0  0  0  0  0  0  0  0  0  0
  154.8588  138.5611  160.5819 N   0  0  0  0  0  0  0  0  0  0  0  0
  154.4948  138.4285  159.2608 C   0  0  0  0  0  0  0  0  0  0  0  0
  153.8568  139.4484  158.7544 N   0  0  0  0  0  0  0  0  0  0  0  0
  153.7845  140.3571  159.8023 C   0  0  0  0  0  0  0  0  0  0  0  0
  153.2343  141.6590  159.9471 C   0  0  0  0  0  0  0  0  0  0  0  0
  152.5736  142.2808  158.9391 N   0  0  0  0  0  0  0  0  0  0  0  0
  152.4797  143.7371  159.0145 C   0  0  0  0  0  0  0  0  0  0  0  0
  151.0236  144.0302  159.3510 C   0  0  1  0  0  0  0  0  0  0  0  0
  150.6477  145.2561  158.9878 F   0  0  0  0  0  0  0  0  0  0  0  0
  150.2960  142.9404  158.5764 C   0  0  0  0  0  0  0  0  0  0  0  0
  151.2365  141.7219  158.6760 C   0  0  1  0  0  0  0  0  0  0  0  0
  151.1594  140.8509  157.4091 C   0  0  0  0  0  0  0  0  0  0  0  0
  150.8953  139.5469  157.5386 N   0  0  0  0  0  0  0  0  0  0  0  0
  151.3359  141.3648  156.3069 O   0  0  0  0  0  0  0  0  0  0  0  0
  153.3550  142.2644  161.1589 N   0  0  0  0  0  0  0  0  0  0  0  0
  153.9830  141.6417  162.1607 C   0  0  0  0  0  0  0  0  0  0  0  0
  154.5449  140.4311  162.1689 N   0  0  0  0  0  0  0  0  0  0  0  0
  154.4186  139.8185  160.9566 C   0  0  0  0  0  0  0  0  0  0  0  0
  150.8448  143.9256  160.4223 H   0  0  0  0  0  0  0  0  0  0  0  0
  150.9150  141.1082  159.5209 H   0  0  0  0  0  0  0  0  0  0  0  0
  155.5695  133.6505  161.5357 H   0  0  0  0  0  0  0  0  0  0  0  0
  154.2159  133.6920  162.6682 H   0  0  0  0  0  0  0  0  0  0  0  0
  155.8407  133.3380  163.2441 H   0  0  0  0  0  0  0  0  0  0  0  0
  156.5870  135.6391  162.6725 H   0  0  0  0  0  0  0  0  0  0  0  0
  153.6411  136.8184  165.0562 H   0  0  0  0  0  0  0  0  0  0  0  0
  154.9379  137.7539  164.3021 H   0  0  0  0  0  0  0  0  0  0  0  0
  152.8043  136.0898  162.9089 H   0  0  0  0  0  0  0  0  0  0  0  0
  153.1144  137.7957  162.6293 H   0  0  0  0  0  0  0  0  0  0  0  0
  153.4375  136.3630  160.4331 H   0  0  0  0  0  0  0  0  0  0  0  0
  156.0281  138.1171  162.2320 H   0  0  0  0  0  0  0  0  0  0  0  0
  156.4036  137.1988  160.8028 H   0  0  0  0  0  0  0  0  0  0  0  0
  154.7158  137.5438  158.6812 H   0  0  0  0  0  0  0  0  0  0  0  0
  153.1667  144.1952  159.7281 H   0  0  0  0  0  0  0  0  0  0  0  0
  152.7296  144.1374  158.0311 H   0  0  0  0  0  0  0  0  0  0  0  0
  149.3032  142.7382  158.9798 H   0  0  0  0  0  0  0  0  0  0  0  0
  150.1728  143.2558  157.5382 H   0  0  0  0  0  0  0  0  0  0  0  0
  150.8483  138.9598  156.7183 H   0  0  0  0  0  0  0  0  0  0  0  0
  150.7510  139.1527  158.4567 H   0  0  0  0  0  0  0  0  0  0  0  0
  154.0407  142.1906  163.0890 H   0  0  0  0  0  0  0  0  0  0  0  0
  1  2  1  0  0  0  0
  1 29  1  0  0  0  0
  1 30  1  0  0  0  0
  1 31  1  0  0  0  0
  2  6  1  0  0  0  0
  2  3  1  0  0  0  0
  2 32  1  0  0  0  0
  3  4  1  0  0  0  0
  4  5  1  0  0  0  0
  4 33  1  0  0  0  0
  4 34  1  0  0  0  0
  5  6  1  0  0  0  0
  5 35  1  0  0  0  0
  5 36  1  0  0  0  0
  6  7  1  0  0  0  0
  6  8  1  0  0  0  0
  7 37  1  0  0  0  0
  8  9  1  0  0  0  0
  8 38  1  0  0  0  0
  8 39  1  0  0  0  0
  9 26  1  0  0  0  0
  9 10  1  0  0  0  0
 10 11  2  0  0  0  0
 10 40  1  0  0  0  0
 11 12  1  0  0  0  0
 12 26  2  0  0  0  0
 12 13  1  0  0  0  0
 13 14  1  0  0  0  0
 13 23  2  0  0  0  0
 14 19  1  0  0  0  0
 14 15  1  0  0  0  0
 15 16  1  0  0  0  0
 15 41  1  0  0  0  0
 15 42  1  0  0  0  0
 16 27  1  0  0  0  0
 16 17  1  0  0  0  0
 16 18  1  0  0  0  0
 18 19  1  0  0  0  0
 18 43  1  0  0  0  0
 18 44  1  0  0  0  0
 19 28  1  0  0  0  0
 19 20  1  0  0  0  0
 20 21  1  0  0  0  0
 20 22  2  0  0  0  0
 21 45  1  0  0  0  0
 21 46  1  0  0  0  0
 23 24  1  0  0  0  0
 24 25  2  0  0  0  0
 24 47  1  0  0  0  0
 25 26  1  0  0  0  0
M  END
> <s_m_source_file>
AV-unprocessed.smi

> <i_m_source_file_index>
196

> <i_lp_mmshare_version>
43012

> <i_f3d_flags>
0

> <s_epik_input>
W0NIMl0xW0NIMl1PW0NAQEhdKFtDSDNdKVtDQEBdMShbT0hdKVtDSDJdbihbY0hdbjIpYyhjMjMpbltjSF1uYzNONFtDSDJdW0NASF0oRilbQ0gyXVtDQEhdNEMoPU8pW05IMl0=

> <s_epik_cmdline>
J2VwaWtfcHl0aG9uJywgJy1waCcsICc3LjAnLCAnLXRuJywgJzgnLCAnLW1hJywgJzIwMCcsICctbWV0YWxfYmluZGluZycsICctaW1hZScsICc8aW5maWxlLm1hZT4nLCAnLW9tYWUnLCAnPG91dGZpbGUubWFlPic=

> <r_lp_tautomer_probability>
1

> <r_epik_Ionization_Penalty>
0.000857933

> <r_epik_Ionization_Penalty_Charging>
0

> <r_epik_Ionization_Penalty_Neutral>
0.000857933

> <r_epik_State_Penalty>
0.000462053

> <r_epik_Charging_Adjusted_Penalty>
0.000462053

> <i_epik_Tot_Q>
0

> <i_epik_Tot_abs_Q>
0

> <r_epik_Metal_State_Penalty>
-0

> <b_epik_Metal_Only>
0

> <s_lp_Force_Field>
OPLS_2005

> <r_lp_Energy>
47.3735

> <b_lp_Chiralities_Consistent>
1

> <s_lp_Variant>
AV-unprocessed.smi:196-7

> <Gold.Version>
5.8.1

> <Gold.Id.Protein>
6NUR|6NUR_protein|mol2

> <Gold.PLP.Fitness>
44.9109

> <Gold.PLP.PLP>
-43.3776

> <Gold.PLP.part.hbond>
-1.8190

> <Gold.PLP.part.metal>
0.0000

> <Gold.PLP.part.buried>
-5.7146

> <Gold.PLP.part.nonpolar>
-36.0659

> <Gold.PLP.part.repulsive>
0.1760

> <Gold.PLP.ligand.clash>
0.0000

> <Gold.PLP.ligand.torsion>
0.7911

> <Gold.PLP.Chemscore.Hbond>
1.0004

> <Gold.PLP.Chemscore.CHOScore>
0.0000

> <Gold.PLP.Chemscore.Metal>
0.0000

> <Gold.Chemscore.Hbonds>
donor molecule, donor type, donor heavy atom, donor atom, acceptor molecule, acceptor atom, score
      P1  H  7997  8009       L1    11  1.00

> <Gold.PLP.Chemscore.Internal.Correction>
0.1143

> <Gold.Rescore>
     Score         DG    S(hbond)    S(metal)    S(lipo)     H(rot)  DE(clash)    DE(int)     intcor
      8.20     -10.91       0.94        0.00      86.24       3.04       1.99       0.72       ----

> <Gold.Chemscore.Fitness>
8.2046

> <Gold.Chemscore.DG>
-10.9096

> <Gold.Chemscore.ZeroCoef>
-5.4800

> <Gold.Chemscore.Hbond>
0.9355

> <Gold.Chemscore.Metal>
0.0000

> <Gold.Chemscore.Lipo>
86.2442

> <Gold.Chemscore.Internal_Hbond>
0.0000

> <Gold.Chemscore.DEClash>
1.9857

> <Gold.Chemscore.DEInternal>
0.7193

> <Gold.Chemscore.Rot>
3.0413

> <Gold.Chemscore.Internal.Correction>
   9.000000E+99

> <Gold.Chemscore.Hbonds>
donor molecule, donor type, donor heavy atom, donor atom, acceptor molecule, acceptor atom, score
      P1  H  7997  8009       L1    11  0.50

> <Gold.Chemscore.Hbond.Weighted>
-3.1246

> <Gold.Chemscore.Metal.Weighted>
-0.0000

> <Gold.Chemscore.Lipo.Weighted>
-10.0906

> <Gold.Chemscore.Internal_Hbond.Weighted>
0.0000

> <Gold.Chemscore.DEClash.Weighted>
1.9857

> <Gold.Chemscore.DEInternal.Weighted>
0.7193

> <Gold.Chemscore.Rot.Weighted>
7.7856

> <Gold.Chemscore.Internal.Correction.Weighted>
   9.000000E+99

> <Gold.Protein.RotatedTorsions>
[ 6907 6896 6895 6894 ] final  -25.03 input  -60.11 | X-H torsion
[ 7974 7965 7964 7962 ] final -123.62 input  175.53 | X-H torsion
[ 8008 7997 7996 7995 ] final  132.19 input   59.86 | X-H torsion
[ 10167 10162 10161 10158 ] final  156.82 input  -65.29 | X-H torsion
[ 10718 10713 10712 10709 ] final   32.66 input   66.30 | X-H torsion
[ 10763 10752 10751 10750 ] final   84.80 input  -60.55 | X-H torsion
[ 11005 11000 10999 10996 ] final   88.87 input  -57.11 | X-H torsion

> <Gold.Protein.ActiveResidues>
 VAL166  LYS551  ARG553  GLY616  TRP617  ASP618  TYR619  PRO620  LYS621  CYS622 
 ASP623  PHE694  ASN695  SER759  ASP760  ASP761  ALA762  ILE779  LEU786  VAL792 
 PHE793  MET794  SER795  GLU796  ALA797  LYS798  CYS799  TRP800  GLU811  SER814 

> <Gold.Protein.RotatedAtoms>
  151.1810  135.0361  159.8791 H   0  0  0  0  0  0  0  0  0  0  0  0  # atno 6907 bound_to 6896
  152.5445  134.1063  159.8349 H   0  0  0  0  0  0  0  0  0  0  0  0  # atno 6908 bound_to 6896
  151.1180  133.5078  159.2635 H   0  0  0  0  0  0  0  0  0  0  0  0  # atno 6909 bound_to 6896
  145.0167  140.7953  143.4405 H   0  0  0  0  0  0  0  0  0  0  0  0  # atno 7974 bound_to 7965
  156.2979  140.2552  156.3049 H   0  0  0  0  0  0  0  0  0  0  0  0  # atno 8008 bound_to 7997
  154.9382  140.0397  157.2102 H   0  0  0  0  0  0  0  0  0  0  0  0  # atno 8009 bound_to 7997
  154.8152  140.2851  155.5829 H   0  0  0  0  0  0  0  0  0  0  0  0  # atno 8010 bound_to 7997
  139.4822  144.4974  151.8219 H   0  0  0  0  0  0  0  0  0  0  0  0  # atno 10167 bound_to 10162
  157.2880  130.7288  149.6594 H   0  0  0  0  0  0  0  0  0  0  0  0  # atno 10718 bound_to 10713
  153.1416  135.4640  154.9503 H   0  0  0  0  0  0  0  0  0  0  0  0  # atno 10763 bound_to 10752
  154.7751  135.3171  154.8111 H   0  0  0  0  0  0  0  0  0  0  0  0  # atno 10764 bound_to 10752
  153.8632  135.6910  153.4835 H   0  0  0  0  0  0  0  0  0  0  0  0  # atno 10765 bound_to 10752
  139.8887  134.8516  156.3062 H   0  0  0  0  0  0  0  0  0  0  0  0  # atno 11005 bound_to 11000
  145.1950  139.2281  143.5223 LP  0  0  0  0  0  0  0  0  0  0  0  0  # atno 17320 bound_to 7965
  146.3479  140.1754  142.8589 LP  0  0  0  0  0  0  0  0  0  0  0  0  # atno 17321 bound_to 7965
  140.4464  144.1916  150.5894 LP  0  0  0  0  0  0  0  0  0  0  0  0  # atno 17342 bound_to 10162
  140.4630  143.2441  151.9193 LP  0  0  0  0  0  0  0  0  0  0  0  0  # atno 17343 bound_to 10162
  155.9666  130.4317  150.4933 LP  0  0  0  0  0  0  0  0  0  0  0  0  # atno 17370 bound_to 10713
  157.2890  131.0622  151.2146 LP  0  0  0  0  0  0  0  0  0  0  0  0  # atno 17371 bound_to 10713
  140.9880  133.7226  156.0771 LP  0  0  0  0  0  0  0  0  0  0  0  0  # atno 17394 bound_to 11000
  140.7662  134.3884  157.5516 LP  0  0  0  0  0  0  0  0  0  0  0  0  # atno 17395 bound_to 11000

$$$$
