AV-unprocessed.smi:3335|AV-procd|sdf|12845|dock10
  -GOLD-   2272019233D 1   1.00000     0.00000
 Structure written by MMmdl.
 46 47  0  0  0  0  0  0  0  0  1 V2000
  145.9052  137.4349  153.5418 C   0  0  0  0  0  0  0  0  0  0  0  0
  147.0915  137.7805  154.3946 C   0  0  0  0  0  0  0  0  0  0  0  0
  147.4341  137.2536  155.6719 C   0  0  0  0  0  0  0  0  0  0  0  0
  148.5474  137.7736  156.1605 N   0  0  0  0  0  0  0  0  0  0  0  0
  148.9593  138.6470  155.2143 N   0  0  0  0  0  0  0  0  0  0  0  0
  150.1714  139.4316  155.4136 C   0  0  2  0  0  0  0  0  0  0  0  0
  151.4043  138.5070  155.4401 C   0  0  0  0  0  0  0  0  0  0  0  0
  150.0718  140.3394  156.6694 C   0  0  2  0  0  0  0  0  0  0  0  0
  149.0262  141.4626  156.5389 C   0  0  0  0  0  0  0  0  0  0  0  0
  151.3636  140.9827  156.8976 N   0  0  0  0  0  0  0  0  0  0  0  0
  151.3998  141.8416  158.0939 C   0  0  2  0  0  0  0  0  0  0  0  0
  151.4960  143.3292  157.7042 C   0  0  0  0  0  0  0  0  0  0  0  0
  152.5932  141.4637  158.9940 C   0  0  0  0  0  0  0  0  0  0  0  0
  153.3880  140.6062  158.6027 O   0  0  0  0  0  0  0  0  0  0  0  0
  152.7476  142.0812  160.1861 N   0  0  0  0  0  0  0  0  0  0  0  0
  151.8347  143.1139  160.6755 C   0  0  0  0  0  0  0  0  0  0  0  0
  152.4908  143.6926  161.9291 C   0  0  0  0  0  0  0  0  0  0  0  0
  153.3762  142.5647  162.4377 C   0  0  0  0  0  0  0  0  0  0  0  0
  153.7992  141.8223  161.1701 C   0  0  0  0  0  0  0  0  0  0  0  0
  148.0965  138.6696  154.1383 C   0  0  0  0  0  0  0  0  0  0  0  0
  145.1151  136.9574  154.1217 H   0  0  0  0  0  0  0  0  0  0  0  0
  146.1745  136.7491  152.7387 H   0  0  0  0  0  0  0  0  0  0  0  0
  145.4706  138.3204  153.0776 H   0  0  0  0  0  0  0  0  0  0  0  0
  146.9076  136.5134  156.2562 H   0  0  0  0  0  0  0  0  0  0  0  0
  150.2665  140.0760  154.5379 H   0  0  0  0  0  0  0  0  0  0  0  0
  152.3319  139.0795  155.4360 H   0  0  0  0  0  0  0  0  0  0  0  0
  151.4239  137.8560  154.5657 H   0  0  0  0  0  0  0  0  0  0  0  0
  151.4116  137.8736  156.3276 H   0  0  0  0  0  0  0  0  0  0  0  0
  149.7830  139.7234  157.5225 H   0  0  0  0  0  0  0  0  0  0  0  0
  148.0158  141.0630  156.4516 H   0  0  0  0  0  0  0  0  0  0  0  0
  149.2150  142.0826  155.6617 H   0  0  0  0  0  0  0  0  0  0  0  0
  149.0355  142.1124  157.4150 H   0  0  0  0  0  0  0  0  0  0  0  0
  151.6506  141.4867  156.0706 H   0  0  0  0  0  0  0  0  0  0  0  0
  150.4750  141.6782  158.6459 H   0  0  0  0  0  0  0  0  0  0  0  0
  151.5537  143.9673  158.5867 H   0  0  0  0  0  0  0  0  0  0  0  0
  150.6262  143.6544  157.1334 H   0  0  0  0  0  0  0  0  0  0  0  0
  152.3803  143.5261  157.0964 H   0  0  0  0  0  0  0  0  0  0  0  0
  151.6534  143.8894  159.9298 H   0  0  0  0  0  0  0  0  0  0  0  0
  150.8778  142.6524  160.9237 H   0  0  0  0  0  0  0  0  0  0  0  0
  153.1101  144.5484  161.6568 H   0  0  0  0  0  0  0  0  0  0  0  0
  151.7649  144.0281  162.6703 H   0  0  0  0  0  0  0  0  0  0  0  0
  154.2243  142.9221  163.0224 H   0  0  0  0  0  0  0  0  0  0  0  0
  152.7892  141.8994  163.0723 H   0  0  0  0  0  0  0  0  0  0  0  0
  153.9299  140.7576  161.3680 H   0  0  0  0  0  0  0  0  0  0  0  0
  154.7431  142.2203  160.7947 H   0  0  0  0  0  0  0  0  0  0  0  0
  148.2652  139.3136  153.2877 H   0  0  0  0  0  0  0  0  0  0  0  0
  1  2  1  0  0  0  0
  1 21  1  0  0  0  0
  1 22  1  0  0  0  0
  1 23  1  0  0  0  0
  2 20  2  0  0  0  0
  2  3  1  0  0  0  0
  3  4  2  0  0  0  0
  3 24  1  0  0  0  0
  4  5  1  0  0  0  0
  5  6  1  0  0  0  0
  5 20  1  0  0  0  0
  6  7  1  0  0  0  0
  6  8  1  0  0  0  0
  6 25  1  0  0  0  0
  7 26  1  0  0  0  0
  7 27  1  0  0  0  0
  7 28  1  0  0  0  0
  8  9  1  0  0  0  0
  8 10  1  0  0  0  0
  8 29  1  0  0  0  0
  9 30  1  0  0  0  0
  9 31  1  0  0  0  0
  9 32  1  0  0  0  0
 10 11  1  0  0  0  0
 10 33  1  0  0  0  0
 11 12  1  0  0  0  0
 11 13  1  0  0  0  0
 11 34  1  0  0  0  0
 12 35  1  0  0  0  0
 12 36  1  0  0  0  0
 12 37  1  0  0  0  0
 13 14  2  0  0  0  0
 13 15  1  0  0  0  0
 15 19  1  0  0  0  0
 15 16  1  0  0  0  0
 16 17  1  0  0  0  0
 16 38  1  0  0  0  0
 16 39  1  0  0  0  0
 17 18  1  0  0  0  0
 17 40  1  0  0  0  0
 17 41  1  0  0  0  0
 18 19  1  0  0  0  0
 18 42  1  0  0  0  0
 18 43  1  0  0  0  0
 19 44  1  0  0  0  0
 19 45  1  0  0  0  0
 20 46  1  0  0  0  0
M  END
> <s_m_source_file>
AV-unprocessed.smi

> <i_m_source_file_index>
3335

> <i_lp_mmshare_version>
43012

> <i_f3d_flags>
0

> <s_epik_input>
W0NIM11jMVtjSF1ubihbY0hdMSlbQ0BIXShbQ0gzXSlbQ0BIXShbQ0gzXSlbTkhdW0NASF0oW0NIM10pQyg9TylOMltDSDJdW0NIMl1bQ0gyXVtDSDJdMg==

> <s_epik_cmdline>
J2VwaWtfcHl0aG9uJywgJy1waCcsICc3LjAnLCAnLXRuJywgJzgnLCAnLW1hJywgJzIwMCcsICctbWV0YWxfYmluZGluZycsICctaW1hZScsICc8aW5maWxlLm1hZT4nLCAnLW9tYWUnLCAnPG91dGZpbGUubWFlPic=

> <r_lp_tautomer_probability>
1

> <r_epik_Ionization_Penalty>
0.918803

> <r_epik_Ionization_Penalty_Charging>
0

> <r_epik_Ionization_Penalty_Neutral>
0.918803

> <r_epik_State_Penalty>
0.958258

> <r_epik_Charging_Adjusted_Penalty>
0.958258

> <i_epik_Tot_Q>
0

> <i_epik_Tot_abs_Q>
0

> <r_epik_Metal_State_Penalty>
0.956786

> <b_epik_Metal_Only>
0

> <s_lp_Force_Field>
OPLS_2005

> <r_lp_Energy>
39.0848

> <b_lp_Chiralities_Consistent>
1

> <s_lp_Variant>
AV-unprocessed.smi:3335-9

> <Gold.Version>
5.8.1

> <Gold.Id.Protein>
6NUR|6NUR_protein|mol2

> <Gold.PLP.Fitness>
39.6715

> <Gold.PLP.PLP>
-36.4514

> <Gold.PLP.part.hbond>
-1.0000

> <Gold.PLP.part.metal>
0.0000

> <Gold.PLP.part.buried>
-0.6823

> <Gold.PLP.part.nonpolar>
-34.5720

> <Gold.PLP.part.repulsive>
0.0327

> <Gold.PLP.ligand.clash>
0.0557

> <Gold.PLP.ligand.torsion>
0.8547

> <Gold.PLP.Chemscore.Hbond>
0.6240

> <Gold.PLP.Chemscore.CHOScore>
1.0000

> <Gold.PLP.Chemscore.Metal>
0.0000

> <Gold.Chemscore.Hbonds>
donor molecule, donor type, donor heavy atom, donor atom, acceptor molecule, acceptor atom, score
      P1  H  7997  8008       L1    14  0.52
      L1  C    20    46       P1  7957  0.79

> <Gold.PLP.Chemscore.Internal.Correction>
0.1131

> <Gold.Rescore>
     Score         DG    S(hbond)    S(metal)    S(lipo)     H(rot)  DE(clash)    DE(int)     intcor
     13.82     -16.56       0.89        0.00     104.64       1.62       1.74       1.01       ----

> <Gold.Chemscore.Fitness>
13.8155

> <Gold.Chemscore.DG>
-16.5601

> <Gold.Chemscore.ZeroCoef>
-5.4800

> <Gold.Chemscore.Hbond>
0.8939

> <Gold.Chemscore.Metal>
0.0000

> <Gold.Chemscore.Lipo>
104.6373

> <Gold.Chemscore.Internal_Hbond>
0.0000

> <Gold.Chemscore.DEClash>
1.7390

> <Gold.Chemscore.DEInternal>
1.0056

> <Gold.Chemscore.Rot>
1.6204

> <Gold.Chemscore.Internal.Correction>
   9.000000E+99

> <Gold.Chemscore.Hbonds>
donor molecule, donor type, donor heavy atom, donor atom, acceptor molecule, acceptor atom, score
      P1  H  7997  8008       L1    14  0.51

> <Gold.Chemscore.Hbond.Weighted>
-2.9857

> <Gold.Chemscore.Metal.Weighted>
-0.0000

> <Gold.Chemscore.Lipo.Weighted>
-12.2426

> <Gold.Chemscore.Internal_Hbond.Weighted>
0.0000

> <Gold.Chemscore.DEClash.Weighted>
1.7390

> <Gold.Chemscore.DEInternal.Weighted>
1.0056

> <Gold.Chemscore.Rot.Weighted>
4.1482

> <Gold.Chemscore.Internal.Correction.Weighted>
   9.000000E+99

> <Gold.Protein.RotatedTorsions>
[ 6907 6896 6895 6894 ] final   85.79 input  -60.11 | X-H torsion
[ 7974 7965 7964 7962 ] final -125.15 input  175.53 | X-H torsion
[ 8008 7997 7996 7995 ] final  -75.05 input   59.86 | X-H torsion
[ 10167 10162 10161 10158 ] final -108.58 input  -65.29 | X-H torsion
[ 10718 10713 10712 10709 ] final  122.56 input   66.30 | X-H torsion
[ 10763 10752 10751 10750 ] final  -69.68 input  -60.55 | X-H torsion
[ 11005 11000 10999 10996 ] final  153.98 input  -57.11 | X-H torsion

> <Gold.Protein.ActiveResidues>
 VAL166  LYS551  ARG553  GLY616  TRP617  ASP618  TYR619  PRO620  LYS621  CYS622 
 ASP623  PHE694  ASN695  SER759  ASP760  ASP761  ALA762  ILE779  LEU786  VAL792 
 PHE793  MET794  SER795  GLU796  ALA797  LYS798  CYS799  TRP800  GLU811  SER814 

> <Gold.Protein.RotatedAtoms>
  152.5382  134.2531  159.8906 H   0  0  0  0  0  0  0  0  0  0  0  0  # atno 6907 bound_to 6896
  151.2494  133.4351  159.2618 H   0  0  0  0  0  0  0  0  0  0  0  0  # atno 6908 bound_to 6896
  151.0553  134.9715  159.8289 H   0  0  0  0  0  0  0  0  0  0  0  0  # atno 6909 bound_to 6896
  145.0006  140.7816  143.4499 H   0  0  0  0  0  0  0  0  0  0  0  0  # atno 7974 bound_to 7965
  154.5383  140.0751  156.8466 H   0  0  0  0  0  0  0  0  0  0  0  0  # atno 8008 bound_to 7997
  155.3232  140.3397  155.4222 H   0  0  0  0  0  0  0  0  0  0  0  0  # atno 8009 bound_to 7997
  156.1850  140.1665  156.8189 H   0  0  0  0  0  0  0  0  0  0  0  0  # atno 8010 bound_to 7997
  140.1646  143.4092  152.1400 H   0  0  0  0  0  0  0  0  0  0  0  0  # atno 10167 bound_to 10162
  157.5733  131.1081  150.8327 H   0  0  0  0  0  0  0  0  0  0  0  0  # atno 10718 bound_to 10713
  154.4069  135.6018  153.5930 H   0  0  0  0  0  0  0  0  0  0  0  0  # atno 10763 bound_to 10752
  152.9789  135.5920  154.4116 H   0  0  0  0  0  0  0  0  0  0  0  0  # atno 10764 bound_to 10752
  154.3923  135.2842  155.2125 H   0  0  0  0  0  0  0  0  0  0  0  0  # atno 10765 bound_to 10752
  140.1447  134.8715  157.2377 H   0  0  0  0  0  0  0  0  0  0  0  0  # atno 11005 bound_to 11000
  145.2159  139.2182  143.5119 LP  0  0  0  0  0  0  0  0  0  0  0  0  # atno 17320 bound_to 7965
  146.3451  140.2006  142.8589 LP  0  0  0  0  0  0  0  0  0  0  0  0  # atno 17321 bound_to 7965
  139.5365  144.7215  151.4875 LP  0  0  0  0  0  0  0  0  0  0  0  0  # atno 17342 bound_to 10162
  140.6621  143.8476  150.6900 LP  0  0  0  0  0  0  0  0  0  0  0  0  # atno 17343 bound_to 10162
  156.8793  130.5173  149.5292 LP  0  0  0  0  0  0  0  0  0  0  0  0  # atno 17370 bound_to 10713
  156.0777  130.5795  150.9505 LP  0  0  0  0  0  0  0  0  0  0  0  0  # atno 17371 bound_to 10713
  140.2678  134.3496  155.7384 LP  0  0  0  0  0  0  0  0  0  0  0  0  # atno 17394 bound_to 11000
  141.2191  133.7406  156.9177 LP  0  0  0  0  0  0  0  0  0  0  0  0  # atno 17395 bound_to 11000

$$$$
