AV-unprocessed.smi:3267|AV-procd|sdf|12506|dock10
  -GOLD-   2272018413D 1   1.00000     0.00000
 Structure written by MMmdl.
 38 39  0  0  0  0  0  0  0  0  1 V2000
  148.6471  131.5979  153.7528 C   0  0  0  0  0  0  0  0  0  0  0  0
  147.7186  132.7081  153.2409 C   0  0  2  0  0  0  0  0  0  0  0  0
  147.2906  132.4712  151.7712 C   0  0  0  0  0  0  0  0  0  0  0  0
  146.1577  133.2962  151.3963 N   0  0  0  0  0  0  0  0  0  0  0  0
  146.0936  134.6699  151.2968 C   0  0  0  0  0  0  0  0  0  0  0  0
  144.8196  134.9904  150.9246 C   0  0  0  0  0  0  0  0  0  0  0  0
  144.1707  133.7283  150.8201 C   0  0  0  0  0  0  0  0  0  0  0  0
  144.9743  132.7155  151.1025 N   0  0  0  0  0  0  0  0  0  0  0  0
  148.3846  133.9991  153.3953 N   0  0  0  0  0  0  0  0  0  0  0  0
  148.8748  134.4803  154.5468 C   0  0  0  0  0  0  0  0  0  0  0  0
  148.8093  133.8903  155.6256 O   0  0  0  0  0  0  0  0  0  0  0  0
  149.4364  135.6855  154.3841 N   0  0  0  0  0  0  0  0  0  0  0  0
  150.0180  136.4844  155.4565 C   0  0  0  0  0  0  0  0  0  0  0  0
  150.6483  137.7777  154.9141 C   0  0  1  0  0  0  0  0  0  0  0  0
  150.8410  138.8599  155.9756 C   0  0  0  0  0  0  0  0  0  0  0  0
  151.9850  139.6584  155.3942 C   0  0  0  0  0  0  0  0  0  0  0  0
  152.8536  138.5573  154.7950 C   0  0  0  0  0  0  0  0  0  0  0  0
  151.9555  137.5223  154.4028 O   0  0  0  0  0  0  0  0  0  0  0  0
  148.1598  130.6242  153.6922 H   0  0  0  0  0  0  0  0  0  0  0  0
  148.9215  131.7630  154.7951 H   0  0  0  0  0  0  0  0  0  0  0  0
  149.5666  131.5475  153.1688 H   0  0  0  0  0  0  0  0  0  0  0  0
  146.8374  132.7112  153.8865 H   0  0  0  0  0  0  0  0  0  0  0  0
  148.1062  132.6818  151.0776 H   0  0  0  0  0  0  0  0  0  0  0  0
  147.0237  131.4268  151.6025 H   0  0  0  0  0  0  0  0  0  0  0  0
  146.9490  135.2971  151.5012 H   0  0  0  0  0  0  0  0  0  0  0  0
  144.4129  135.9763  150.7558 H   0  0  0  0  0  0  0  0  0  0  0  0
  143.1460  133.5194  150.5504 H   0  0  0  0  0  0  0  0  0  0  0  0
  148.4843  134.5627  152.5638 H   0  0  0  0  0  0  0  0  0  0  0  0
  149.4404  136.0917  153.4599 H   0  0  0  0  0  0  0  0  0  0  0  0
  149.2550  136.7189  156.2006 H   0  0  0  0  0  0  0  0  0  0  0  0
  150.7716  135.8831  155.9654 H   0  0  0  0  0  0  0  0  0  0  0  0
  150.0449  138.1865  154.1018 H   0  0  0  0  0  0  0  0  0  0  0  0
  149.9432  139.4558  156.1420 H   0  0  0  0  0  0  0  0  0  0  0  0
  151.1412  138.4193  156.9275 H   0  0  0  0  0  0  0  0  0  0  0  0
  151.6195  140.3205  154.6081 H   0  0  0  0  0  0  0  0  0  0  0  0
  152.5104  140.2614  156.1352 H   0  0  0  0  0  0  0  0  0  0  0  0
  153.4508  138.9090  153.9534 H   0  0  0  0  0  0  0  0  0  0  0  0
  153.5329  138.1574  155.5487 H   0  0  0  0  0  0  0  0  0  0  0  0
  1  2  1  0  0  0  0
  1 19  1  0  0  0  0
  1 20  1  0  0  0  0
  1 21  1  0  0  0  0
  2  3  1  0  0  0  0
  2  9  1  0  0  0  0
  2 22  1  0  0  0  0
  3  4  1  0  0  0  0
  3 23  1  0  0  0  0
  3 24  1  0  0  0  0
  4  8  1  0  0  0  0
  4  5  1  0  0  0  0
  5  6  2  0  0  0  0
  5 25  1  0  0  0  0
  6  7  1  0  0  0  0
  6 26  1  0  0  0  0
  7  8  2  0  0  0  0
  7 27  1  0  0  0  0
  9 10  1  0  0  0  0
  9 28  1  0  0  0  0
 10 11  2  0  0  0  0
 10 12  1  0  0  0  0
 12 13  1  0  0  0  0
 12 29  1  0  0  0  0
 13 14  1  0  0  0  0
 13 30  1  0  0  0  0
 13 31  1  0  0  0  0
 14 18  1  0  0  0  0
 14 15  1  0  0  0  0
 14 32  1  0  0  0  0
 15 16  1  0  0  0  0
 15 33  1  0  0  0  0
 15 34  1  0  0  0  0
 16 17  1  0  0  0  0
 16 35  1  0  0  0  0
 16 36  1  0  0  0  0
 17 18  1  0  0  0  0
 17 37  1  0  0  0  0
 17 38  1  0  0  0  0
M  END
> <s_m_source_file>
AV-unprocessed.smi

> <i_m_source_file_index>
3267

> <i_lp_mmshare_version>
43012

> <i_f3d_flags>
0

> <s_epik_input>
bjFbY0hdW2NIXVtjSF1uMVtDSDJdW0NAQEhdKFtDSDNdKVtOSF1DKD1PKVtOSF1bQ0gyXVtDQEBIXTJbQ0gyXVtDSDJdW0NIMl1PMg==

> <s_epik_cmdline>
J2VwaWtfcHl0aG9uJywgJy1waCcsICc3LjAnLCAnLXRuJywgJzgnLCAnLW1hJywgJzIwMCcsICctbWV0YWxfYmluZGluZycsICctaW1hZScsICc8aW5maWxlLm1hZT4nLCAnLW9tYWUnLCAnPG91dGZpbGUubWFlPic=

> <r_lp_tautomer_probability>
1

> <r_epik_Ionization_Penalty>
6.24796e-05

> <r_epik_Ionization_Penalty_Charging>
0

> <r_epik_Ionization_Penalty_Neutral>
6.24796e-05

> <r_epik_State_Penalty>
-0

> <r_epik_Charging_Adjusted_Penalty>
0

> <i_epik_Tot_Q>
0

> <i_epik_Tot_abs_Q>
0

> <r_epik_Metal_State_Penalty>
-0

> <b_epik_Metal_Only>
0

> <s_lp_Force_Field>
OPLS_2005

> <r_lp_Energy>
17.3536

> <b_lp_Chiralities_Consistent>
1

> <s_lp_Variant>
AV-unprocessed.smi:3267-3

> <Gold.Version>
5.8.1

> <Gold.Id.Protein>
6NUR|6NUR_protein|mol2

> <Gold.PLP.Fitness>
44.9937

> <Gold.PLP.PLP>
-31.0295

> <Gold.PLP.part.hbond>
-3.0000

> <Gold.PLP.part.metal>
0.0000

> <Gold.PLP.part.buried>
-2.2460

> <Gold.PLP.part.nonpolar>
-26.4693

> <Gold.PLP.part.repulsive>
0.3146

> <Gold.PLP.ligand.clash>
0.0000

> <Gold.PLP.ligand.torsion>
0.3471

> <Gold.PLP.Chemscore.Hbond>
2.8800

> <Gold.PLP.Chemscore.CHOScore>
2.0000

> <Gold.PLP.Chemscore.Metal>
0.0000

> <Gold.Chemscore.Hbonds>
donor molecule, donor type, donor heavy atom, donor atom, acceptor molecule, acceptor atom, score
      L1  H     9    28       P1  7948  0.77
      L1  H    12    29       P1  7948  1.00
      P1  H 10752 10765       L1    18  0.71
      L1  C     5    25       P1  7948  1.00
      L1  C     7    27       P1 10186  1.00

> <Gold.PLP.Chemscore.Internal.Correction>
0.0182

> <Gold.Rescore>
     Score         DG    S(hbond)    S(metal)    S(lipo)     H(rot)  DE(clash)    DE(int)     intcor
     13.63     -15.74       2.27        0.00      63.80       1.87       0.01       2.10       ----

> <Gold.Chemscore.Fitness>
13.6267

> <Gold.Chemscore.DG>
-15.7385

> <Gold.Chemscore.ZeroCoef>
-5.4800

> <Gold.Chemscore.Hbond>
2.2717

> <Gold.Chemscore.Metal>
0.0000

> <Gold.Chemscore.Lipo>
63.7978

> <Gold.Chemscore.Internal_Hbond>
0.0000

> <Gold.Chemscore.DEClash>
0.0115

> <Gold.Chemscore.DEInternal>
2.1003

> <Gold.Chemscore.Rot>
1.8724

> <Gold.Chemscore.Internal.Correction>
   9.000000E+99

> <Gold.Chemscore.Hbonds>
donor molecule, donor type, donor heavy atom, donor atom, acceptor molecule, acceptor atom, score
      L1  H     9    28       P1  7948  0.11
      L1  H    12    29       P1  7948  0.54
      P1  H 10752 10765       L1    18  0.52

> <Gold.Chemscore.Hbond.Weighted>
-7.5874

> <Gold.Chemscore.Metal.Weighted>
-0.0000

> <Gold.Chemscore.Lipo.Weighted>
-7.4643

> <Gold.Chemscore.Internal_Hbond.Weighted>
0.0000

> <Gold.Chemscore.DEClash.Weighted>
0.0115

> <Gold.Chemscore.DEInternal.Weighted>
2.1003

> <Gold.Chemscore.Rot.Weighted>
4.7933

> <Gold.Chemscore.Internal.Correction.Weighted>
   9.000000E+99

> <Gold.Protein.RotatedTorsions>
[ 6907 6896 6895 6894 ] final  150.74 input  -60.11 | X-H torsion
[ 7974 7965 7964 7962 ] final -126.58 input  175.53 | X-H torsion
[ 8008 7997 7996 7995 ] final  -82.19 input   59.86 | X-H torsion
[ 10167 10162 10161 10158 ] final   75.47 input  -65.29 | X-H torsion
[ 10718 10713 10712 10709 ] final -173.63 input   66.30 | X-H torsion
[ 10763 10752 10751 10750 ] final  153.10 input  -60.55 | X-H torsion
[ 11005 11000 10999 10996 ] final   63.74 input  -57.11 | X-H torsion

> <Gold.Protein.ActiveResidues>
 VAL166  LYS551  ARG553  GLY616  TRP617  ASP618  TYR619  PRO620  LYS621  CYS622 
 ASP623  PHE694  ASN695  SER759  ASP760  ASP761  ALA762  ILE779  LEU786  VAL792 
 PHE793  MET794  SER795  GLU796  ALA797  LYS798  CYS799  TRP800  GLU811  SER814 

> <Gold.Protein.RotatedAtoms>
  152.1102  133.4296  159.4627 H   0  0  0  0  0  0  0  0  0  0  0  0  # atno 6907 bound_to 6896
  150.6867  134.2657  159.4576 H   0  0  0  0  0  0  0  0  0  0  0  0  # atno 6908 bound_to 6896
  152.0525  134.9644  160.0625 H   0  0  0  0  0  0  0  0  0  0  0  0  # atno 6909 bound_to 6896
  144.9858  140.7684  143.4584 H   0  0  0  0  0  0  0  0  0  0  0  0  # atno 7974 bound_to 7965
  154.6060  140.0637  156.9432 H   0  0  0  0  0  0  0  0  0  0  0  0  # atno 8008 bound_to 7997
  155.2052  140.3318  155.4319 H   0  0  0  0  0  0  0  0  0  0  0  0  # atno 8009 bound_to 7997
  156.2348  140.1857  156.7132 H   0  0  0  0  0  0  0  0  0  0  0  0  # atno 8010 bound_to 7997
  140.0026  144.5674  150.7724 H   0  0  0  0  0  0  0  0  0  0  0  0  # atno 10167 bound_to 10162
  156.7731  130.9456  151.3120 H   0  0  0  0  0  0  0  0  0  0  0  0  # atno 10718 bound_to 10713
  154.1307  135.2827  155.3186 H   0  0  0  0  0  0  0  0  0  0  0  0  # atno 10763 bound_to 10752
  154.6357  135.5420  153.7735 H   0  0  0  0  0  0  0  0  0  0  0  0  # atno 10764 bound_to 10752
  153.0282  135.6474  154.1458 H   0  0  0  0  0  0  0  0  0  0  0  0  # atno 10765 bound_to 10752
  140.0004  134.6450  155.9939 H   0  0  0  0  0  0  0  0  0  0  0  0  # atno 11005 bound_to 11000
  145.2356  139.2095  143.5020 LP  0  0  0  0  0  0  0  0  0  0  0  0  # atno 17320 bound_to 7965
  146.3419  140.2241  142.8592 LP  0  0  0  0  0  0  0  0  0  0  0  0  # atno 17321 bound_to 7965
  140.7413  143.2816  151.3583 LP  0  0  0  0  0  0  0  0  0  0  0  0  # atno 17342 bound_to 10162
  139.6261  144.0812  152.2435 LP  0  0  0  0  0  0  0  0  0  0  0  0  # atno 17343 bound_to 10162
  157.6681  130.9026  149.9979 LP  0  0  0  0  0  0  0  0  0  0  0  0  # atno 17370 bound_to 10713
  156.1265  130.3644  149.9801 LP  0  0  0  0  0  0  0  0  0  0  0  0  # atno 17371 bound_to 10713
  141.1638  133.6537  156.4408 LP  0  0  0  0  0  0  0  0  0  0  0  0  # atno 17394 bound_to 11000
  140.4738  134.6729  157.5141 LP  0  0  0  0  0  0  0  0  0  0  0  0  # atno 17395 bound_to 11000

$$$$
