AV-unprocessed.smi:2983|AV-procd|sdf|11377|dock8
  -GOLD-   2272016293D 1   1.00000     0.00000
 Structure written by MMmdl.
 39 40  0  0  0  0  0  0  0  0  1 V2000
  146.0640  142.8940  154.8372 C   0  0  0  0  0  0  0  0  0  0  0  0
  147.1421  141.8936  154.4067 C   0  0  0  0  0  0  0  0  0  0  0  0
  148.1894  141.6503  155.5015 C   0  0  0  0  0  0  0  0  0  0  0  0
  149.5633  141.2716  154.9242 C   0  0  0  0  0  0  0  0  0  0  0  0
  150.5626  141.0713  155.9544 N   0  0  0  0  0  0  0  0  0  0  0  0
  150.9762  142.0736  156.8368 C   0  0  0  0  0  0  0  0  0  0  0  0
  150.3968  143.3269  156.7214 N   0  0  0  0  0  0  0  0  0  0  0  0
  151.9175  141.8444  157.7976 C   0  0  0  0  0  0  0  0  0  0  0  0
  152.3497  142.8082  158.7019 N   0  0  0  0  0  0  0  0  0  0  0  0
  152.1990  142.6813  160.1458 C   0  0  0  0  0  0  0  0  0  0  0  0
  151.3418  143.8323  160.7045 C   0  0  0  0  0  0  0  0  0  0  0  0
  151.8937  145.0832  160.3037 O   0  0  0  0  0  0  0  0  0  0  0  0
  151.9407  145.2217  158.8864 C   0  0  0  0  0  0  0  0  0  0  0  0
  152.8347  144.1191  158.2934 C   0  0  0  0  0  0  0  0  0  0  0  0
  152.5304  140.5195  157.9373 C   0  0  0  0  0  0  0  0  0  0  0  0
  153.3941  140.2111  158.7579 O   0  0  0  0  0  0  0  0  0  0  0  0
  152.0570  139.5565  157.0492 N   0  0  0  0  0  0  0  0  0  0  0  0
  151.0912  139.7635  156.0704 C   0  0  0  0  0  0  0  0  0  0  0  0
  150.7397  138.8212  155.3597 O   0  0  0  0  0  0  0  0  0  0  0  0
  152.4428  138.6269  157.1277 H   0  0  0  0  0  0  0  0  0  0  0  0
  145.3337  143.0457  154.0420 H   0  0  0  0  0  0  0  0  0  0  0  0
  146.5011  143.8636  155.0769 H   0  0  0  0  0  0  0  0  0  0  0  0
  145.5281  142.5397  155.7180 H   0  0  0  0  0  0  0  0  0  0  0  0
  146.6690  140.9483  154.1375 H   0  0  0  0  0  0  0  0  0  0  0  0
  147.6336  142.2614  153.5053 H   0  0  0  0  0  0  0  0  0  0  0  0
  148.2880  142.5468  156.1148 H   0  0  0  0  0  0  0  0  0  0  0  0
  147.8397  140.8596  156.1666 H   0  0  0  0  0  0  0  0  0  0  0  0
  149.5186  140.3693  154.3115 H   0  0  0  0  0  0  0  0  0  0  0  0
  149.9449  142.0445  154.2576 H   0  0  0  0  0  0  0  0  0  0  0  0
  149.6941  143.5219  156.0228 H   0  0  0  0  0  0  0  0  0  0  0  0
  150.6303  144.0831  157.3485 H   0  0  0  0  0  0  0  0  0  0  0  0
  151.7471  141.7205  160.3952 H   0  0  0  0  0  0  0  0  0  0  0  0
  153.1891  142.6917  160.6035 H   0  0  0  0  0  0  0  0  0  0  0  0
  150.3087  143.7559  160.3640 H   0  0  0  0  0  0  0  0  0  0  0  0
  151.3183  143.7880  161.7934 H   0  0  0  0  0  0  0  0  0  0  0  0
  150.9329  145.1726  158.4714 H   0  0  0  0  0  0  0  0  0  0  0  0
  152.3403  146.2050  158.6385 H   0  0  0  0  0  0  0  0  0  0  0  0
  153.8639  144.2401  158.6332 H   0  0  0  0  0  0  0  0  0  0  0  0
  152.8506  144.1938  157.2052 H   0  0  0  0  0  0  0  0  0  0  0  0
  1  2  1  0  0  0  0
  1 21  1  0  0  0  0
  1 22  1  0  0  0  0
  1 23  1  0  0  0  0
  2  3  1  0  0  0  0
  2 24  1  0  0  0  0
  2 25  1  0  0  0  0
  3  4  1  0  0  0  0
  3 26  1  0  0  0  0
  3 27  1  0  0  0  0
  4  5  1  0  0  0  0
  4 28  1  0  0  0  0
  4 29  1  0  0  0  0
  5 18  1  0  0  0  0
  5  6  1  0  0  0  0
  6  7  1  0  0  0  0
  6  8  2  0  0  0  0
  7 30  1  0  0  0  0
  7 31  1  0  0  0  0
  8  9  1  0  0  0  0
  8 15  1  0  0  0  0
  9 14  1  0  0  0  0
  9 10  1  0  0  0  0
 10 11  1  0  0  0  0
 10 32  1  0  0  0  0
 10 33  1  0  0  0  0
 11 12  1  0  0  0  0
 11 34  1  0  0  0  0
 11 35  1  0  0  0  0
 12 13  1  0  0  0  0
 13 14  1  0  0  0  0
 13 36  1  0  0  0  0
 13 37  1  0  0  0  0
 14 38  1  0  0  0  0
 14 39  1  0  0  0  0
 15 16  2  0  0  0  0
 15 17  1  0  0  0  0
 17 20  1  0  0  0  0
 17 18  1  0  0  0  0
 18 19  2  0  0  0  0
M  END
> <s_m_source_file>
AV-unprocessed.smi

> <i_m_source_file_index>
2983

> <i_lp_mmshare_version>
43012

> <i_f3d_flags>
0

> <s_epik_input>
W0NIM11bQ0gyXVtDSDJdW0NIMl1uMWMoW05IMl0pYyhjKD1PKVtuSF1jMT1PKU4yW0NIMl1bQ0gyXU9bQ0gyXVtDSDJdMg==

> <s_epik_cmdline>
J2VwaWtfcHl0aG9uJywgJy1waCcsICc3LjAnLCAnLXRuJywgJzgnLCAnLW1hJywgJzIwMCcsICctbWV0YWxfYmluZGluZycsICctaW1hZScsICc8aW5maWxlLm1hZT4nLCAnLW9tYWUnLCAnPG91dGZpbGUubWFlPic=

> <r_lp_tautomer_probability>
1

> <r_epik_Ionization_Penalty>
1.02563e-05

> <r_epik_Ionization_Penalty_Charging>
2.70122e-06

> <r_epik_Ionization_Penalty_Neutral>
7.55508e-06

> <r_epik_State_Penalty>
-0

> <r_epik_Charging_Adjusted_Penalty>
2.70122e-06

> <i_epik_Tot_Q>
0

> <i_epik_Tot_abs_Q>
0

> <r_epik_Metal_State_Penalty>
-0

> <b_epik_Metal_Only>
0

> <s_epik_Chemistry_Notes>
This compound has an imine and may undergo hydrolysis.

> <s_lp_Force_Field>
OPLS_2005

> <r_lp_Energy>
27.0785

> <b_lp_Chiralities_Consistent>
1

> <s_lp_Variant>
AV-unprocessed.smi:2983-1

> <Gold.Version>
5.8.1

> <Gold.Id.Protein>
6NUR|6NUR_protein|mol2

> <Gold.PLP.Fitness>
41.5802

> <Gold.PLP.PLP>
-39.1843

> <Gold.PLP.part.hbond>
-1.2779

> <Gold.PLP.part.metal>
0.0000

> <Gold.PLP.part.buried>
-3.5849

> <Gold.PLP.part.nonpolar>
-34.3772

> <Gold.PLP.part.repulsive>
0.3375

> <Gold.PLP.ligand.clash>
0.0000

> <Gold.PLP.ligand.torsion>
1.2307

> <Gold.PLP.Chemscore.Hbond>
1.0795

> <Gold.PLP.Chemscore.CHOScore>
0.0000

> <Gold.PLP.Chemscore.Metal>
0.0000

> <Gold.Chemscore.Hbonds>
donor molecule, donor type, donor heavy atom, donor atom, acceptor molecule, acceptor atom, score
      L1  H     7    30       P1  8028  0.61
      P1  H  7997  8009       L1    16  0.42

> <Gold.PLP.Chemscore.Internal.Correction>
1.6187

> <Gold.Rescore>
     Score         DG    S(hbond)    S(metal)    S(lipo)     H(rot)  DE(clash)    DE(int)     intcor
     12.16     -14.49       0.93        0.00      82.30       1.45       0.15       2.18       ----

> <Gold.Chemscore.Fitness>
12.1643

> <Gold.Chemscore.DG>
-14.4935

> <Gold.Chemscore.ZeroCoef>
-5.4800

> <Gold.Chemscore.Hbond>
0.9281

> <Gold.Chemscore.Metal>
0.0000

> <Gold.Chemscore.Lipo>
82.3027

> <Gold.Chemscore.Internal_Hbond>
0.0000

> <Gold.Chemscore.DEClash>
0.1489

> <Gold.Chemscore.DEInternal>
2.1803

> <Gold.Chemscore.Rot>
1.4515

> <Gold.Chemscore.Internal.Correction>
   9.000000E+99

> <Gold.Chemscore.Hbonds>
donor molecule, donor type, donor heavy atom, donor atom, acceptor molecule, acceptor atom, score
      L1  H     7    30       P1  8028  0.59
      P1  H  7997  8009       L1    16  0.04

> <Gold.Chemscore.Hbond.Weighted>
-3.0999

> <Gold.Chemscore.Metal.Weighted>
-0.0000

> <Gold.Chemscore.Lipo.Weighted>
-9.6294

> <Gold.Chemscore.Internal_Hbond.Weighted>
0.0000

> <Gold.Chemscore.DEClash.Weighted>
0.1489

> <Gold.Chemscore.DEInternal.Weighted>
2.1803

> <Gold.Chemscore.Rot.Weighted>
3.7159

> <Gold.Chemscore.Internal.Correction.Weighted>
   9.000000E+99

> <Gold.Protein.RotatedTorsions>
[ 6907 6896 6895 6894 ] final   87.64 input  -60.11 | X-H torsion
[ 7974 7965 7964 7962 ] final  -82.90 input  175.53 | X-H torsion
[ 8008 7997 7996 7995 ] final  132.09 input   59.86 | X-H torsion
[ 10167 10162 10161 10158 ] final  152.16 input  -65.29 | X-H torsion
[ 10718 10713 10712 10709 ] final  114.04 input   66.30 | X-H torsion
[ 10763 10752 10751 10750 ] final   55.56 input  -60.55 | X-H torsion
[ 11005 11000 10999 10996 ] final  -53.95 input  -57.11 | X-H torsion

> <Gold.Protein.ActiveResidues>
 VAL166  LYS551  ARG553  GLY616  TRP617  ASP618  TYR619  PRO620  LYS621  CYS622 
 ASP623  PHE694  ASN695  SER759  ASP760  ASP761  ALA762  ILE779  LEU786  VAL792 
 PHE793  MET794  SER795  GLU796  ALA797  LYS798  CYS799  TRP800  GLU811  SER814 

> <Gold.Protein.RotatedAtoms>
  152.5414  134.2246  159.8800 H   0  0  0  0  0  0  0  0  0  0  0  0  # atno 6907 bound_to 6896
  151.2221  133.4490  159.2608 H   0  0  0  0  0  0  0  0  0  0  0  0  # atno 6908 bound_to 6896
  151.0796  134.9863  159.8405 H   0  0  0  0  0  0  0  0  0  0  0  0  # atno 6909 bound_to 6896
  145.5271  140.9525  143.1623 H   0  0  0  0  0  0  0  0  0  0  0  0  # atno 7974 bound_to 7965
  156.2978  140.2555  156.3032 H   0  0  0  0  0  0  0  0  0  0  0  0  # atno 8008 bound_to 7997
  154.9397  140.0396  157.2109 H   0  0  0  0  0  0  0  0  0  0  0  0  # atno 8009 bound_to 7997
  154.8138  140.2849  155.5839 H   0  0  0  0  0  0  0  0  0  0  0  0  # atno 8010 bound_to 7997
  139.4835  144.5380  151.7612 H   0  0  0  0  0  0  0  0  0  0  0  0  # atno 10167 bound_to 10162
  157.6304  131.0993  150.7129 H   0  0  0  0  0  0  0  0  0  0  0  0  # atno 10718 bound_to 10713
  152.9818  135.5706  154.5086 H   0  0  0  0  0  0  0  0  0  0  0  0  # atno 10763 bound_to 10752
  154.4594  135.2781  155.1726 H   0  0  0  0  0  0  0  0  0  0  0  0  # atno 10764 bound_to 10752
  154.3320  135.6247  153.5609 H   0  0  0  0  0  0  0  0  0  0  0  0  # atno 10765 bound_to 10752
  141.1001  133.6619  156.4247 H   0  0  0  0  0  0  0  0  0  0  0  0  # atno 11005 bound_to 11000
  144.7645  139.6877  143.7220 LP  0  0  0  0  0  0  0  0  0  0  0  0  # atno 17320 bound_to 7965
  146.2068  139.5398  142.9707 LP  0  0  0  0  0  0  0  0  0  0  0  0  # atno 17321 bound_to 7965
  140.4916  144.1302  150.5951 LP  0  0  0  0  0  0  0  0  0  0  0  0  # atno 17342 bound_to 10162
  140.4165  143.2632  151.9769 LP  0  0  0  0  0  0  0  0  0  0  0  0  # atno 17343 bound_to 10162
  156.7469  130.4756  149.5465 LP  0  0  0  0  0  0  0  0  0  0  0  0  # atno 17370 bound_to 10713
  156.1503  130.6305  151.0587 LP  0  0  0  0  0  0  0  0  0  0  0  0  # atno 17371 bound_to 10713
  140.5042  134.6456  157.5260 LP  0  0  0  0  0  0  0  0  0  0  0  0  # atno 17394 bound_to 11000
  139.9850  134.7076  155.9790 LP  0  0  0  0  0  0  0  0  0  0  0  0  # atno 17395 bound_to 11000

$$$$
