AV-unprocessed.smi:1875|AV-procd|sdf|7613|dock5
  -GOLD-   22720 9333D 1   1.00000     0.00000
 Structure written by MMmdl.
 48 50  0  0  0  0  0  0  0  0  2 V2000
  143.0079  146.6417  154.7061 C   0  0  0  0  0  0  0  0  0  0  0  0
  143.9930  145.7432  153.9871 C   0  0  0  0  0  0  0  0  0  0  0  0
  144.3600  146.1139  152.7567 N   0  0  0  0  0  0  0  0  0  0  0  0
  145.2314  145.3103  152.1087 C   0  0  0  0  0  0  0  0  0  0  0  0
  145.7318  144.1314  152.6982 C   0  0  0  0  0  0  0  0  0  0  0  0
  145.2746  143.8449  154.0016 C   0  0  0  0  0  0  0  0  0  0  0  0
  145.7246  142.6030  154.7415 C   0  0  0  0  0  0  0  0  0  0  0  0
  147.1921  142.5951  154.8834 N   0  3  0  0  0  0  0  0  0  0  0  0
  147.8709  141.5705  154.0664 C   0  0  0  0  0  0  0  0  0  0  0  0
  149.0365  140.9229  154.8368 C   0  0  1  0  0  0  0  0  0  0  0  0
  149.6222  139.9344  154.0124 O   0  0  0  0  0  0  0  0  0  0  0  0
  150.1208  141.9302  155.2795 C   0  0  0  0  0  0  0  0  0  0  0  0
  150.9966  141.4283  156.3266 N   0  0  0  0  0  0  0  0  0  0  0  0
  151.6733  140.2632  156.3296 C   0  0  0  0  0  0  0  0  0  0  0  0
  152.4202  139.9938  157.3959 N   0  0  0  0  0  0  0  0  0  0  0  0
  152.2160  141.1220  158.1714 C   0  0  0  0  0  0  0  0  0  0  0  0
  152.7326  141.4680  159.4390 C   0  0  0  0  0  0  0  0  0  0  0  0
  152.3875  142.6931  160.0527 C   0  0  0  0  0  0  0  0  0  0  0  0
  152.9664  143.0249  161.4170 C   0  0  0  0  0  0  0  0  0  0  0  0
  151.5118  143.5944  159.3958 C   0  0  0  0  0  0  0  0  0  0  0  0
  151.1286  144.9174  160.0349 C   0  0  0  0  0  0  0  0  0  0  0  0
  150.9861  143.2641  158.1291 C   0  0  0  0  0  0  0  0  0  0  0  0
  151.3348  142.0409  157.5295 C   0  0  0  0  0  0  0  0  0  0  0  0
  144.3989  144.6508  154.6429 N   0  0  0  0  0  0  0  0  0  0  0  0
  143.0739  147.6680  154.3431 H   0  0  0  0  0  0  0  0  0  0  0  0
  143.2021  146.6528  155.7793 H   0  0  0  0  0  0  0  0  0  0  0  0
  141.9898  146.2862  154.5452 H   0  0  0  0  0  0  0  0  0  0  0  0
  145.5286  145.6071  151.1138 H   0  0  0  0  0  0  0  0  0  0  0  0
  146.4265  143.4893  152.1766 H   0  0  0  0  0  0  0  0  0  0  0  0
  145.2582  142.5701  155.7270 H   0  0  0  0  0  0  0  0  0  0  0  0
  145.3987  141.7146  154.1986 H   0  0  0  0  0  0  0  0  0  0  0  0
  147.5406  143.5058  154.6207 H   0  0  0  0  0  0  0  0  0  0  0  0
  147.1462  140.8169  153.7545 H   0  0  0  0  0  0  0  0  0  0  0  0
  148.2489  142.0466  153.1607 H   0  0  0  0  0  0  0  0  0  0  0  0
  148.6495  140.4271  155.7282 H   0  0  0  0  0  0  0  0  0  0  0  0
  149.7522  140.2986  153.1495 H   0  0  0  0  0  0  0  0  0  0  0  0
  150.7389  142.2036  154.4233 H   0  0  0  0  0  0  0  0  0  0  0  0
  149.6598  142.8555  155.6276 H   0  0  0  0  0  0  0  0  0  0  0  0
  151.6081  139.5689  155.5048 H   0  0  0  0  0  0  0  0  0  0  0  0
  153.4010  140.7819  159.9385 H   0  0  0  0  0  0  0  0  0  0  0  0
  153.5289  143.9579  161.3782 H   0  0  0  0  0  0  0  0  0  0  0  0
  153.6417  142.2423  161.7642 H   0  0  0  0  0  0  0  0  0  0  0  0
  152.1697  143.1307  162.1536 H   0  0  0  0  0  0  0  0  0  0  0  0
  150.4259  145.4715  159.4121 H   0  0  0  0  0  0  0  0  0  0  0  0
  152.0114  145.5406  160.1794 H   0  0  0  0  0  0  0  0  0  0  0  0
  150.6576  144.7525  161.0043 H   0  0  0  0  0  0  0  0  0  0  0  0
  150.3189  143.9428  157.6188 H   0  0  0  0  0  0  0  0  0  0  0  0
  147.4192  142.4311  155.8539 H   0  0  0  0  0  0  0  0  0  0  0  0
  1  2  1  0  0  0  0
  1 25  1  0  0  0  0
  1 26  1  0  0  0  0
  1 27  1  0  0  0  0
  2 24  1  0  0  0  0
  2  3  2  0  0  0  0
  3  4  1  0  0  0  0
  4  5  2  0  0  0  0
  4 28  1  0  0  0  0
  5  6  1  0  0  0  0
  5 29  1  0  0  0  0
  6  7  1  0  0  0  0
  6 24  2  0  0  0  0
  7  8  1  0  0  0  0
  7 30  1  0  0  0  0
  7 31  1  0  0  0  0
  8  9  1  0  0  0  0
  8 32  1  0  0  0  0
  8 48  1  0  0  0  0
  9 10  1  0  0  0  0
  9 33  1  0  0  0  0
  9 34  1  0  0  0  0
 10 11  1  0  0  0  0
 10 12  1  0  0  0  0
 10 35  1  0  0  0  0
 11 36  1  0  0  0  0
 12 13  1  0  0  0  0
 12 37  1  0  0  0  0
 12 38  1  0  0  0  0
 13 23  1  0  0  0  0
 13 14  1  0  0  0  0
 14 15  2  0  0  0  0
 14 39  1  0  0  0  0
 15 16  1  0  0  0  0
 16 23  2  0  0  0  0
 16 17  1  0  0  0  0
 17 18  2  0  0  0  0
 17 40  1  0  0  0  0
 18 19  1  0  0  0  0
 18 20  1  0  0  0  0
 19 41  1  0  0  0  0
 19 42  1  0  0  0  0
 19 43  1  0  0  0  0
 20 21  1  0  0  0  0
 20 22  2  0  0  0  0
 21 44  1  0  0  0  0
 21 45  1  0  0  0  0
 21 46  1  0  0  0  0
 22 23  1  0  0  0  0
 22 47  1  0  0  0  0
M  CHG  1   8   1
M  END
> <s_m_source_file>
AV-unprocessed.smi

> <i_m_source_file_index>
1875

> <i_lp_mmshare_version>
43012

> <i_f3d_flags>
0

> <s_epik_input>
W0NIM11jMW5bY0hdW2NIXWMobjEpW0NIMl1bTkhdW0NIMl1bQ0BIXShbT0hdKVtDSDJdbihbY0hdbjIpYyhjMjMpW2NIXWMoW0NIM10pYyhbY0hdMylbQ0gzXQ==

> <s_epik_cmdline>
J2VwaWtfcHl0aG9uJywgJy1waCcsICc3LjAnLCAnLXRuJywgJzgnLCAnLW1hJywgJzIwMCcsICctbWV0YWxfYmluZGluZycsICctaW1hZScsICc8aW5maWxlLm1hZT4nLCAnLW9tYWUnLCAnPG91dGZpbGUubWFlPic=

> <r_lp_tautomer_probability>
1

> <r_epik_Ionization_Penalty>
0.192455

> <r_epik_Ionization_Penalty_Charging>
0.102343

> <r_epik_Ionization_Penalty_Neutral>
0.0901122

> <r_epik_State_Penalty>
0.175389

> <r_epik_Charging_Adjusted_Penalty>
0.277732

> <i_epik_Tot_Q>
1

> <i_epik_Tot_abs_Q>
1

> <r_epik_Metal_State_Penalty>
0.167659

> <b_epik_Metal_Only>
0

> <s_epik_Chemistry_Notes>
This compound contains an electron-poor aromatic ring that is susceptible to covalent hydrolysis at low pH, typically resulting in measured values for nitrogen ring protonation that are around two units higher than predicted values.

> <s_lp_Force_Field>
OPLS_2005

> <r_lp_Energy>
1.49454

> <b_lp_Chiralities_Consistent>
1

> <s_lp_Variant>
AV-unprocessed.smi:1875-2

> <Gold.Version>
5.8.1

> <Gold.Id.Protein>
6NUR|6NUR_protein|mol2

> <Gold.PLP.Fitness>
65.2718

> <Gold.PLP.PLP>
-57.6002

> <Gold.PLP.part.hbond>
-5.7834

> <Gold.PLP.part.metal>
0.0000

> <Gold.PLP.part.buried>
-5.7240

> <Gold.PLP.part.nonpolar>
-46.2651

> <Gold.PLP.part.repulsive>
0.3443

> <Gold.PLP.ligand.clash>
0.0000

> <Gold.PLP.ligand.torsion>
0.8470

> <Gold.PLP.Chemscore.Hbond>
3.0867

> <Gold.PLP.Chemscore.CHOScore>
0.0000

> <Gold.PLP.Chemscore.Metal>
0.0000

> <Gold.Chemscore.Hbonds>
donor molecule, donor type, donor heavy atom, donor atom, acceptor molecule, acceptor atom, score
      L1  H     8    32       P1  8028  1.17
      L1  H    11    36       P1  7957  0.96
      P1  H  7997  8009       L1    15  0.84

> <Gold.PLP.Chemscore.Internal.Correction>
0.1053

> <Gold.Rescore>
     Score         DG    S(hbond)    S(metal)    S(lipo)     H(rot)  DE(clash)    DE(int)     intcor
     16.89     -20.15       1.67        0.00     139.04       2.80       2.40       0.85       ----

> <Gold.Chemscore.Fitness>
16.8933

> <Gold.Chemscore.DG>
-20.1463

> <Gold.Chemscore.ZeroCoef>
-5.4800

> <Gold.Chemscore.Hbond>
1.6702

> <Gold.Chemscore.Metal>
0.0000

> <Gold.Chemscore.Lipo>
139.0421

> <Gold.Chemscore.Internal_Hbond>
0.0000

> <Gold.Chemscore.DEClash>
2.4038

> <Gold.Chemscore.DEInternal>
0.8491

> <Gold.Chemscore.Rot>
2.8047

> <Gold.Chemscore.Internal.Correction>
   9.000000E+99

> <Gold.Chemscore.Hbonds>
donor molecule, donor type, donor heavy atom, donor atom, acceptor molecule, acceptor atom, score
      L1  H     8    32       P1  8028  0.14
      L1  H    11    36       P1  7957  0.88
      P1  H  7997  8009       L1    15  0.27

> <Gold.Chemscore.Hbond.Weighted>
-5.5784

> <Gold.Chemscore.Metal.Weighted>
-0.0000

> <Gold.Chemscore.Lipo.Weighted>
-16.2679

> <Gold.Chemscore.Internal_Hbond.Weighted>
0.0000

> <Gold.Chemscore.DEClash.Weighted>
2.4038

> <Gold.Chemscore.DEInternal.Weighted>
0.8491

> <Gold.Chemscore.Rot.Weighted>
7.1801

> <Gold.Chemscore.Internal.Correction.Weighted>
   9.000000E+99

> <Gold.Protein.RotatedTorsions>
[ 6907 6896 6895 6894 ] final -112.10 input  -60.11 | X-H torsion
[ 7974 7965 7964 7962 ] final  149.46 input  175.53 | X-H torsion
[ 8008 7997 7996 7995 ] final  172.09 input   59.86 | X-H torsion
[ 10167 10162 10161 10158 ] final  118.97 input  -65.29 | X-H torsion
[ 10718 10713 10712 10709 ] final   30.08 input   66.30 | X-H torsion
[ 10763 10752 10751 10750 ] final   92.52 input  -60.55 | X-H torsion
[ 11005 11000 10999 10996 ] final   53.09 input  -57.11 | X-H torsion

> <Gold.Protein.ActiveResidues>
 VAL166  LYS551  ARG553  GLY616  TRP617  ASP618  TYR619  PRO620  LYS621  CYS622 
 ASP623  PHE694  ASN695  SER759  ASP760  ASP761  ALA762  ILE779  LEU786  VAL792 
 PHE793  MET794  SER795  GLU796  ALA797  LYS798  CYS799  TRP800  GLU811  SER814 

> <Gold.Protein.RotatedAtoms>
  150.7735  133.9138  159.3377 H   0  0  0  0  0  0  0  0  0  0  0  0  # atno 6907 bound_to 6896
  151.7019  135.0926  160.0262 H   0  0  0  0  0  0  0  0  0  0  0  0  # atno 6908 bound_to 6896
  152.3762  133.6447  159.6161 H   0  0  0  0  0  0  0  0  0  0  0  0  # atno 6909 bound_to 6896
  144.8436  139.6284  143.6005 H   0  0  0  0  0  0  0  0  0  0  0  0  # atno 7974 bound_to 7965
  156.1208  140.1495  156.9207 H   0  0  0  0  0  0  0  0  0  0  0  0  # atno 8008 bound_to 7997
  154.4834  140.0872  156.7473 H   0  0  0  0  0  0  0  0  0  0  0  0  # atno 8009 bound_to 7997
  155.4431  140.3432  155.4294 H   0  0  0  0  0  0  0  0  0  0  0  0  # atno 8010 bound_to 7997
  139.6077  144.7074  151.2916 H   0  0  0  0  0  0  0  0  0  0  0  0  # atno 10167 bound_to 10162
  157.2550  130.7133  149.6424 H   0  0  0  0  0  0  0  0  0  0  0  0  # atno 10718 bound_to 10713
  153.2201  135.4358  155.0479 H   0  0  0  0  0  0  0  0  0  0  0  0  # atno 10763 bound_to 10752
  154.8245  135.3354  154.6940 H   0  0  0  0  0  0  0  0  0  0  0  0  # atno 10764 bound_to 10752
  153.7373  135.7007  153.5031 H   0  0  0  0  0  0  0  0  0  0  0  0  # atno 10765 bound_to 10752
  140.0795  134.5358  155.8961 H   0  0  0  0  0  0  0  0  0  0  0  0  # atno 11005 bound_to 11000
  146.2724  139.6669  142.9286 LP  0  0  0  0  0  0  0  0  0  0  0  0  # atno 17320 bound_to 7965
  145.4643  141.0434  143.2734 LP  0  0  0  0  0  0  0  0  0  0  0  0  # atno 17321 bound_to 7965
  140.7296  143.6902  150.7928 LP  0  0  0  0  0  0  0  0  0  0  0  0  # atno 17342 bound_to 10162
  140.0491  143.5268  152.2682 LP  0  0  0  0  0  0  0  0  0  0  0  0  # atno 17343 bound_to 10162
  155.9665  130.4415  150.5345 LP  0  0  0  0  0  0  0  0  0  0  0  0  # atno 17370 bound_to 10713
  157.3237  131.0686  151.1912 LP  0  0  0  0  0  0  0  0  0  0  0  0  # atno 17371 bound_to 10713
  141.2041  133.6637  156.6104 LP  0  0  0  0  0  0  0  0  0  0  0  0  # atno 17394 bound_to 11000
  140.3508  134.7770  157.4466 LP  0  0  0  0  0  0  0  0  0  0  0  0  # atno 17395 bound_to 11000

$$$$
