AV-unprocessed.smi:256|AV-procd|sdf|1962|dock6
  -GOLD-   2262021113D 1   1.00000     0.00000
 Structure written by MMmdl.
 61 64  0  0  0  0  0  0  0  0  1 V2000
  151.1073  145.1129  159.5054 C   0  0  0  0  0  0  0  0  0  0  0  0
  152.1033  144.3667  160.4067 C   0  0  0  0  0  0  0  0  0  0  0  0
  152.1487  142.8273  160.2040 C   0  0  1  0  0  0  0  0  0  0  0  0
  152.0122  142.5111  158.6909 C   0  0  0  0  0  0  0  0  0  0  0  0
  152.0282  141.0720  158.4390 N   0  0  0  0  0  0  0  0  0  0  0  0
  151.6661  140.6338  157.2064 C   0  0  0  0  0  0  0  0  0  0  0  0
  152.5093  139.8438  156.4886 N   0  0  0  0  0  0  0  0  0  0  0  0
  152.1568  139.4043  155.2769 C   0  0  0  0  0  0  0  0  0  0  0  0
  151.0294  139.6339  154.6015 N   0  0  0  0  0  0  0  0  0  0  0  0
  150.1824  140.4327  155.3116 C   0  0  0  0  0  0  0  0  0  0  0  0
  150.4185  140.9700  156.6086 C   0  0  0  0  0  0  0  0  0  0  0  0
  149.3333  141.7443  157.0031 N   0  0  0  0  0  0  0  0  0  0  0  0
  148.5022  141.6644  156.0003 C   0  0  0  0  0  0  0  0  0  0  0  0
  148.9355  140.9031  154.9384 N   0  0  0  0  0  0  0  0  0  0  0  0
  148.2202  140.6545  153.6962 C   0  0  0  0  0  0  0  0  0  0  0  0
  147.1506  139.5392  153.8028 C   0  0  0  0  0  0  0  0  0  0  0  0
  145.9421  140.1433  154.2323 O   0  0  0  0  0  0  0  0  0  0  0  0
  146.8923  138.8307  152.4546 C   0  0  0  0  0  0  0  0  0  0  0  0
  145.9833  137.5989  152.6129 C   0  0  0  0  0  0  0  0  0  0  0  0
  146.5313  136.7054  153.5746 O   0  0  0  0  0  0  0  0  0  0  0  0
  146.6175  137.2798  154.8731 C   0  0  0  0  0  0  0  0  0  0  0  0
  147.5684  138.4900  154.8522 C   0  0  0  0  0  0  0  0  0  0  0  0
  153.2009  140.4166  158.9999 C   0  0  0  0  0  0  0  0  0  0  0  0
  153.2980  140.7353  160.4956 C   0  0  0  0  0  0  0  0  0  0  0  0
  153.3549  142.1768  160.7711 N   0  0  0  0  0  0  0  0  0  0  0  0
  153.5157  142.4177  162.2139 C   0  0  0  0  0  0  0  0  0  0  0  0
  154.4953  141.4846  162.9474 C   0  0  0  0  0  0  0  0  0  0  0  0
  154.9083  142.0908  164.1617 O   0  0  0  0  0  0  0  0  0  0  0  0
  155.5306  141.1728  165.0430 C   0  0  0  0  0  0  0  0  0  0  0  0
  151.0259  146.1567  159.8090 H   0  0  0  0  0  0  0  0  0  0  0  0
  150.1116  144.6729  159.5675 H   0  0  0  0  0  0  0  0  0  0  0  0
  151.4183  145.1096  158.4610 H   0  0  0  0  0  0  0  0  0  0  0  0
  153.0999  144.7885  160.2719 H   0  0  0  0  0  0  0  0  0  0  0  0
  151.8053  144.6040  161.4260 H   0  0  0  0  0  0  0  0  0  0  0  0
  151.2729  142.4099  160.7039 H   0  0  0  0  0  0  0  0  0  0  0  0
  151.0729  142.9088  158.3075 H   0  0  0  0  0  0  0  0  0  0  0  0
  152.8206  142.9871  158.1335 H   0  0  0  0  0  0  0  0  0  0  0  0
  152.8824  138.7798  154.7769 H   0  0  0  0  0  0  0  0  0  0  0  0
  147.5471  142.1695  156.0029 H   0  0  0  0  0  0  0  0  0  0  0  0
  147.7550  141.5894  153.3811 H   0  0  0  0  0  0  0  0  0  0  0  0
  148.9516  140.4064  152.9255 H   0  0  0  0  0  0  0  0  0  0  0  0
  145.3764  140.2488  153.4827 H   0  0  0  0  0  0  0  0  0  0  0  0
  146.4540  139.5177  151.7297 H   0  0  0  0  0  0  0  0  0  0  0  0
  147.8444  138.5061  152.0325 H   0  0  0  0  0  0  0  0  0  0  0  0
  144.9732  137.8903  152.9046 H   0  0  0  0  0  0  0  0  0  0  0  0
  145.8963  137.0771  151.6596 H   0  0  0  0  0  0  0  0  0  0  0  0
  145.6245  137.5645  155.2244 H   0  0  0  0  0  0  0  0  0  0  0  0
  146.9914  136.5250  155.5651 H   0  0  0  0  0  0  0  0  0  0  0  0
  148.5736  138.1327  154.6246 H   0  0  0  0  0  0  0  0  0  0  0  0
  147.6228  138.9408  155.8441 H   0  0  0  0  0  0  0  0  0  0  0  0
  153.1607  139.3368  158.8622 H   0  0  0  0  0  0  0  0  0  0  0  0
  154.0931  140.7697  158.4804 H   0  0  0  0  0  0  0  0  0  0  0  0
  152.4520  140.2891  161.0208 H   0  0  0  0  0  0  0  0  0  0  0  0
  154.1930  140.2413  160.8702 H   0  0  0  0  0  0  0  0  0  0  0  0
  153.9061  143.4190  162.3786 H   0  0  0  0  0  0  0  0  0  0  0  0
  152.5430  142.3827  162.7064 H   0  0  0  0  0  0  0  0  0  0  0  0
  153.9966  140.5387  163.1630 H   0  0  0  0  0  0  0  0  0  0  0  0
  155.3566  141.2450  162.3232 H   0  0  0  0  0  0  0  0  0  0  0  0
  155.8211  141.6851  165.9601 H   0  0  0  0  0  0  0  0  0  0  0  0
  156.4299  140.7469  164.5963 H   0  0  0  0  0  0  0  0  0  0  0  0
  154.8531  140.3608  165.3106 H   0  0  0  0  0  0  0  0  0  0  0  0
  1  2  1  0  0  0  0
  1 30  1  0  0  0  0
  1 31  1  0  0  0  0
  1 32  1  0  0  0  0
  2  3  1  0  0  0  0
  2 33  1  0  0  0  0
  2 34  1  0  0  0  0
  3 25  1  0  0  0  0
  3  4  1  0  0  0  0
  3 35  1  0  0  0  0
  4  5  1  0  0  0  0
  4 36  1  0  0  0  0
  4 37  1  0  0  0  0
  5  6  1  0  0  0  0
  5 23  1  0  0  0  0
  6 11  1  0  0  0  0
  6  7  2  0  0  0  0
  7  8  1  0  0  0  0
  8  9  2  0  0  0  0
  8 38  1  0  0  0  0
  9 10  1  0  0  0  0
 10 14  1  0  0  0  0
 10 11  2  0  0  0  0
 11 12  1  0  0  0  0
 12 13  2  0  0  0  0
 13 14  1  0  0  0  0
 13 39  1  0  0  0  0
 14 15  1  0  0  0  0
 15 16  1  0  0  0  0
 15 40  1  0  0  0  0
 15 41  1  0  0  0  0
 16 22  1  0  0  0  0
 16 17  1  0  0  0  0
 16 18  1  0  0  0  0
 17 42  1  0  0  0  0
 18 19  1  0  0  0  0
 18 43  1  0  0  0  0
 18 44  1  0  0  0  0
 19 20  1  0  0  0  0
 19 45  1  0  0  0  0
 19 46  1  0  0  0  0
 20 21  1  0  0  0  0
 21 22  1  0  0  0  0
 21 47  1  0  0  0  0
 21 48  1  0  0  0  0
 22 49  1  0  0  0  0
 22 50  1  0  0  0  0
 23 24  1  0  0  0  0
 23 51  1  0  0  0  0
 23 52  1  0  0  0  0
 24 25  1  0  0  0  0
 24 53  1  0  0  0  0
 24 54  1  0  0  0  0
 25 26  1  0  0  0  0
 26 27  1  0  0  0  0
 26 55  1  0  0  0  0
 26 56  1  0  0  0  0
 27 28  1  0  0  0  0
 27 57  1  0  0  0  0
 27 58  1  0  0  0  0
 28 29  1  0  0  0  0
 29 59  1  0  0  0  0
 29 60  1  0  0  0  0
 29 61  1  0  0  0  0
M  END
> <s_m_source_file>
AV-unprocessed.smi

> <i_m_source_file_index>
256

> <i_lp_mmshare_version>
43012

> <i_f3d_flags>
0

> <s_epik_input>
W0NIM11PW0NIMl1bQ0gyXU4xW0NIMl1bQ0gyXU4oW0NIMl1bQ0BIXTFbQ0gyXVtDSDNdKWMobltjSF1uMiljKGMyMyluW2NIXW4zW0NIMl1DNChbT0hdKVtDSDJdW0NIMl1PW0NIMl1bQ0gyXTQ=

> <s_epik_cmdline>
J2VwaWtfcHl0aG9uJywgJy1waCcsICc3LjAnLCAnLXRuJywgJzgnLCAnLW1hJywgJzIwMCcsICctbWV0YWxfYmluZGluZycsICctaW1hZScsICc8aW5maWxlLm1hZT4nLCAnLW9tYWUnLCAnPG91dGZpbGUubWFlPic=

> <r_lp_tautomer_probability>
1

> <r_epik_Ionization_Penalty>
0.676279

> <r_epik_Ionization_Penalty_Charging>
0

> <r_epik_Ionization_Penalty_Neutral>
0.676279

> <r_epik_State_Penalty>
0.6855

> <r_epik_Charging_Adjusted_Penalty>
0.6855

> <i_epik_Tot_Q>
0

> <i_epik_Tot_abs_Q>
0

> <r_epik_Metal_State_Penalty>
0.678557

> <b_epik_Metal_Only>
0

> <s_lp_Force_Field>
OPLS_2005

> <r_lp_Energy>
58.0034

> <b_lp_Chiralities_Consistent>
1

> <s_lp_Variant>
AV-unprocessed.smi:256-6

> <Gold.Version>
5.8.1

> <Gold.Id.Protein>
6NUR|6NUR_protein|mol2

> <Gold.PLP.Fitness>
57.2225

> <Gold.PLP.PLP>
-51.0439

> <Gold.PLP.part.hbond>
-4.0000

> <Gold.PLP.part.metal>
0.0000

> <Gold.PLP.part.buried>
0.2117

> <Gold.PLP.part.nonpolar>
-45.7326

> <Gold.PLP.part.repulsive>
0.7628

> <Gold.PLP.ligand.clash>
0.0000

> <Gold.PLP.ligand.torsion>
1.4361

> <Gold.PLP.Chemscore.Hbond>
2.8000

> <Gold.PLP.Chemscore.CHOScore>
0.0848

> <Gold.PLP.Chemscore.Metal>
0.0000

> <Gold.Chemscore.Hbonds>
donor molecule, donor type, donor heavy atom, donor atom, acceptor molecule, acceptor atom, score
      L1  H    17    42       P1 10175  1.00
      P1  H  7989  7998       L1     9  0.81
      P1  H  7997  8008       L1     7  1.00
      L1  C    13    39       P1  8028  0.03

> <Gold.PLP.Chemscore.Internal.Correction>
0.3965

> <Gold.Rescore>
     Score         DG    S(hbond)    S(metal)    S(lipo)     H(rot)  DE(clash)    DE(int)     intcor
     15.68     -17.72       1.86        0.00     114.19       2.87       0.04       2.00       ----

> <Gold.Chemscore.Fitness>
15.6842

> <Gold.Chemscore.DG>
-17.7168

> <Gold.Chemscore.ZeroCoef>
-5.4800

> <Gold.Chemscore.Hbond>
1.8634

> <Gold.Chemscore.Metal>
0.0000

> <Gold.Chemscore.Lipo>
114.1893

> <Gold.Chemscore.Internal_Hbond>
0.0000

> <Gold.Chemscore.DEClash>
0.0374

> <Gold.Chemscore.DEInternal>
1.9953

> <Gold.Chemscore.Rot>
2.8700

> <Gold.Chemscore.Internal.Correction>
   9.000000E+99

> <Gold.Chemscore.Hbonds>
donor molecule, donor type, donor heavy atom, donor atom, acceptor molecule, acceptor atom, score
      L1  H    17    42       P1 10175  0.96
      P1  H  7989  7998       L1     9  0.03
      P1  H  7997  8008       L1     7  0.50

> <Gold.Chemscore.Hbond.Weighted>
-6.2239

> <Gold.Chemscore.Metal.Weighted>
-0.0000

> <Gold.Chemscore.Lipo.Weighted>
-13.3601

> <Gold.Chemscore.Internal_Hbond.Weighted>
0.0000

> <Gold.Chemscore.DEClash.Weighted>
0.0374

> <Gold.Chemscore.DEInternal.Weighted>
1.9953

> <Gold.Chemscore.Rot.Weighted>
7.3472

> <Gold.Chemscore.Internal.Correction.Weighted>
   9.000000E+99

> <Gold.Protein.RotatedTorsions>
[ 6907 6896 6895 6894 ] final  -52.76 input  -60.11 | X-H torsion
[ 7974 7965 7964 7962 ] final   34.02 input  175.53 | X-H torsion
[ 8008 7997 7996 7995 ] final  -44.39 input   59.86 | X-H torsion
[ 10167 10162 10161 10158 ] final  -69.68 input  -65.29 | X-H torsion
[ 10718 10713 10712 10709 ] final  173.77 input   66.30 | X-H torsion
[ 10763 10752 10751 10750 ] final  -78.53 input  -60.55 | X-H torsion
[ 11005 11000 10999 10996 ] final  -12.54 input  -57.11 | X-H torsion

> <Gold.Protein.ActiveResidues>
 VAL166  LYS551  ARG553  GLY616  TRP617  ASP618  TYR619  PRO620  LYS621  CYS622 
 ASP623  PHE694  ASN695  SER759  ASP760  ASP761  ALA762  ILE779  LEU786  VAL792 
 PHE793  MET794  SER795  GLU796  ALA797  LYS798  CYS799  TRP800  GLU811  SER814 

> <Gold.Protein.RotatedAtoms>
  150.8489  134.7807  159.6992 H   0  0  0  0  0  0  0  0  0  0  0  0  # atno 6907 bound_to 6896
  152.4558  134.5290  159.9815 H   0  0  0  0  0  0  0  0  0  0  0  0  # atno 6908 bound_to 6896
  151.5415  133.3394  159.2972 H   0  0  0  0  0  0  0  0  0  0  0  0  # atno 6909 bound_to 6896
  146.1381  139.6322  142.9181 H   0  0  0  0  0  0  0  0  0  0  0  0  # atno 7974 bound_to 7965
  154.3997  140.1423  156.3675 H   0  0  0  0  0  0  0  0  0  0  0  0  # atno 8008 bound_to 7997
  155.8124  140.3472  155.5444 H   0  0  0  0  0  0  0  0  0  0  0  0  # atno 8009 bound_to 7997
  155.8373  140.0921  157.1746 H   0  0  0  0  0  0  0  0  0  0  0  0  # atno 8010 bound_to 7997
  140.5412  143.2315  151.7086 H   0  0  0  0  0  0  0  0  0  0  0  0  # atno 10167 bound_to 10162
  156.9594  131.0056  151.2931 H   0  0  0  0  0  0  0  0  0  0  0  0  # atno 10718 bound_to 10713
  154.5271  135.5726  153.6728 H   0  0  0  0  0  0  0  0  0  0  0  0  # atno 10763 bound_to 10752
  152.9930  135.6196  154.2678 H   0  0  0  0  0  0  0  0  0  0  0  0  # atno 10764 bound_to 10752
  154.2602  135.2856  155.2761 H   0  0  0  0  0  0  0  0  0  0  0  0  # atno 10765 bound_to 10752
  140.7667  133.8471  155.9172 H   0  0  0  0  0  0  0  0  0  0  0  0  # atno 11005 bound_to 11000
  145.5109  141.0435  143.2488 LP  0  0  0  0  0  0  0  0  0  0  0  0  # atno 17320 bound_to 7965
  144.7762  139.6624  143.7174 LP  0  0  0  0  0  0  0  0  0  0  0  0  # atno 17321 bound_to 7965
  139.4989  144.3966  152.0225 LP  0  0  0  0  0  0  0  0  0  0  0  0  # atno 17342 bound_to 10162
  140.3075  144.3576  150.6043 LP  0  0  0  0  0  0  0  0  0  0  0  0  # atno 17343 bound_to 10162
  157.5668  130.8283  149.8338 LP  0  0  0  0  0  0  0  0  0  0  0  0  # atno 17370 bound_to 10713
  156.0329  130.3759  150.1639 LP  0  0  0  0  0  0  0  0  0  0  0  0  # atno 17371 bound_to 10713
  140.9612  134.1653  157.4652 LP  0  0  0  0  0  0  0  0  0  0  0  0  # atno 17394 bound_to 11000
  139.8762  134.9945  156.5698 LP  0  0  0  0  0  0  0  0  0  0  0  0  # atno 17395 bound_to 11000

$$$$
