AV-unprocessed.smi:34|AV-procd|sdf|238|dock2
  -GOLD-   2262015583D 1   1.00000     0.00000
 Structure written by MMmdl.
 54 58  0  0  0  0  0  0  0  0  2 V2000
  149.7568  141.2777  156.7704 O   0  0  0  0  0  0  0  0  0  0  0  0
  150.8159  141.5076  157.3583 C   0  0  0  0  0  0  0  0  0  0  0  0
  151.9340  140.7394  157.3919 N   0  5  0  0  0  0  0  0  0  0  0  0
  151.9958  139.6121  156.6672 C   0  0  0  0  0  0  0  0  0  0  0  0
  152.5835  139.6151  155.4439 N   0  0  0  0  0  0  0  0  0  0  0  0
  152.6344  138.4936  154.7165 C   0  0  0  0  0  0  0  0  0  0  0  0
  152.1626  137.2790  155.0123 N   0  0  0  0  0  0  0  0  0  0  0  0
  151.5622  137.2615  156.2378 C   0  0  0  0  0  0  0  0  0  0  0  0
  151.4409  138.3810  157.1128 C   0  0  0  0  0  0  0  0  0  0  0  0
  150.7777  138.0270  158.2780 N   0  0  0  0  0  0  0  0  0  0  0  0
  150.5334  136.7365  158.0655 C   0  0  0  0  0  0  0  0  0  0  0  0
  150.9572  136.2038  156.9020 N   0  0  0  0  0  0  0  0  0  0  0  0
  150.7873  134.7820  156.4566 C   0  0  1  0  0  0  0  0  0  0  0  0
  150.1322  134.0541  157.4547 O   0  0  0  0  0  0  0  0  0  0  0  0
  148.8871  133.5651  156.9650 C   0  0  2  0  0  0  0  0  0  0  0  0
  148.4942  132.2670  157.6807 C   0  0  0  0  0  0  0  0  0  0  0  0
  148.1842  132.5497  159.0360 O   0  0  0  0  0  0  0  0  0  0  0  0
  147.1096  131.9792  159.6150 C   0  0  0  0  0  0  0  0  0  0  0  0
  146.6404  130.8947  159.2637 O   0  0  0  0  0  0  0  0  0  0  0  0
  146.5420  132.8014  160.7222 C   0  0  0  0  0  0  0  0  0  0  0  0
  145.2000  132.5960  161.1196 C   0  0  0  0  0  0  0  0  0  0  0  0
  144.6350  133.3586  162.1603 C   0  0  0  0  0  0  0  0  0  0  0  0
  145.4059  134.3350  162.8179 C   0  0  0  0  0  0  0  0  0  0  0  0
  146.7425  134.5481  162.4331 C   0  0  0  0  0  0  0  0  0  0  0  0
  147.3088  133.7873  161.3913 C   0  0  0  0  0  0  0  0  0  0  0  0
  149.0997  133.4390  155.4556 C   0  0  2  0  0  0  0  0  0  0  0  0
  149.7661  132.3200  155.1629 F   0  0  0  0  0  0  0  0  0  0  0  0
  149.9770  134.6395  155.1506 C   0  0  1  0  0  0  0  0  0  0  0  0
  149.1915  135.7692  154.8139 O   0  0  0  0  0  0  0  0  0  0  0  0
  150.9204  142.7460  158.2083 C   0  0  0  0  0  0  0  0  0  0  0  0
  149.7628  143.2715  158.8267 C   0  0  0  0  0  0  0  0  0  0  0  0
  149.8356  144.4434  159.6048 C   0  0  0  0  0  0  0  0  0  0  0  0
  151.0657  145.1082  159.7657 C   0  0  0  0  0  0  0  0  0  0  0  0
  152.2224  144.6027  159.1436 C   0  0  0  0  0  0  0  0  0  0  0  0
  152.1505  143.4308  158.3653 C   0  0  0  0  0  0  0  0  0  0  0  0
  153.1234  138.5828  153.7578 H   0  0  0  0  0  0  0  0  0  0  0  0
  150.0146  136.1414  158.8025 H   0  0  0  0  0  0  0  0  0  0  0  0
  151.8048  134.4007  156.3621 H   0  0  0  0  0  0  0  0  0  0  0  0
  148.1259  134.3222  157.1526 H   0  0  0  0  0  0  0  0  0  0  0  0
  147.6455  131.7996  157.1796 H   0  0  0  0  0  0  0  0  0  0  0  0
  149.3227  131.5585  157.6468 H   0  0  0  0  0  0  0  0  0  0  0  0
  144.5881  131.8530  160.6282 H   0  0  0  0  0  0  0  0  0  0  0  0
  143.6085  133.1937  162.4534 H   0  0  0  0  0  0  0  0  0  0  0  0
  144.9727  134.9194  163.6164 H   0  0  0  0  0  0  0  0  0  0  0  0
  147.3357  135.2965  162.9377 H   0  0  0  0  0  0  0  0  0  0  0  0
  148.3379  133.9753  161.1218 H   0  0  0  0  0  0  0  0  0  0  0  0
  148.1682  133.4177  154.8885 H   0  0  0  0  0  0  0  0  0  0  0  0
  150.6570  134.4444  154.3205 H   0  0  0  0  0  0  0  0  0  0  0  0
  149.1586  135.8432  153.8721 H   0  0  0  0  0  0  0  0  0  0  0  0
  148.8103  142.7741  158.7119 H   0  0  0  0  0  0  0  0  0  0  0  0
  148.9459  144.8330  160.0772 H   0  0  0  0  0  0  0  0  0  0  0  0
  151.1212  146.0068  160.3618 H   0  0  0  0  0  0  0  0  0  0  0  0
  153.1658  145.1149  159.2604 H   0  0  0  0  0  0  0  0  0  0  0  0
  153.0484  143.0659  157.8875 H   0  0  0  0  0  0  0  0  0  0  0  0
  1  2  2  0  0  0  0
  2  3  1  0  0  0  0
  2 30  1  0  0  0  0
  3  4  1  0  0  0  0
  4  9  1  0  0  0  0
  4  5  2  0  0  0  0
  5  6  1  0  0  0  0
  6  7  2  0  0  0  0
  6 36  1  0  0  0  0
  7  8  1  0  0  0  0
  8 12  1  0  0  0  0
  8  9  2  0  0  0  0
  9 10  1  0  0  0  0
 10 11  2  0  0  0  0
 11 12  1  0  0  0  0
 11 37  1  0  0  0  0
 12 13  1  0  0  0  0
 13 28  1  0  0  0  0
 13 14  1  0  0  0  0
 13 38  1  0  0  0  0
 14 15  1  0  0  0  0
 15 16  1  0  0  0  0
 15 26  1  0  0  0  0
 15 39  1  0  0  0  0
 16 17  1  0  0  0  0
 16 40  1  0  0  0  0
 16 41  1  0  0  0  0
 17 18  1  0  0  0  0
 18 19  2  0  0  0  0
 18 20  1  0  0  0  0
 20 25  1  0  0  0  0
 20 21  2  0  0  0  0
 21 22  1  0  0  0  0
 21 42  1  0  0  0  0
 22 23  2  0  0  0  0
 22 43  1  0  0  0  0
 23 24  1  0  0  0  0
 23 44  1  0  0  0  0
 24 25  2  0  0  0  0
 24 45  1  0  0  0  0
 25 46  1  0  0  0  0
 26 27  1  0  0  0  0
 26 28  1  0  0  0  0
 26 47  1  0  0  0  0
 28 29  1  0  0  0  0
 28 48  1  0  0  0  0
 29 49  1  0  0  0  0
 30 35  1  0  0  0  0
 30 31  2  0  0  0  0
 31 32  1  0  0  0  0
 31 50  1  0  0  0  0
 32 33  2  0  0  0  0
 32 51  1  0  0  0  0
 33 34  1  0  0  0  0
 33 52  1  0  0  0  0
 34 35  2  0  0  0  0
 34 53  1  0  0  0  0
 35 54  1  0  0  0  0
M  CHG  1   3  -1
M  END
> <s_m_source_file>
AV-unprocessed.smi

> <i_m_source_file_index>
34

> <i_lp_mmshare_version>
43012

> <i_f3d_flags>
0

> <s_epik_input>
W2NIXTFbY0hdW2NIXVtjSF1bY0hdYzFDKD1PKVtOSF1jKG5bY0hdbjIpYyhjMjMpbltjSF1uM1tDQEBIXTRPW0NASF0oW0NAQEhdKEYpW0NASF00W09IXSlbQ0gyXU9DKD1PKWM1W2NIXVtjSF1bY0hdW2NIXVtjSF01

> <s_epik_cmdline>
J2VwaWtfcHl0aG9uJywgJy1waCcsICc3LjAnLCAnLXRuJywgJzgnLCAnLW1hJywgJzIwMCcsICctbWV0YWxfYmluZGluZycsICctaW1hZScsICc8aW5maWxlLm1hZT4nLCAnLW9tYWUnLCAnPG91dGZpbGUubWFlPic=

> <r_lp_tautomer_probability>
1

> <r_epik_Ionization_Penalty>
4.33227

> <r_epik_Ionization_Penalty_Charging>
3.41027

> <r_epik_Ionization_Penalty_Neutral>
0.922001

> <r_epik_State_Penalty>
3.41358

> <r_epik_Charging_Adjusted_Penalty>
6.82385

> <i_epik_Tot_Q>
-1

> <i_epik_Tot_abs_Q>
1

> <r_epik_Metal_State_Penalty>
0.496292

> <b_epik_Metal_Only>
1

> <s_epik_Chemistry_Notes>
This compound has an ester and may undergo hydrolysis at high or low pH. This compound contains an acetal/aminal-like group ( X-CH(R)-Y where X, Y are N, S, or O) that may be acid/base labile, releasing an aldehyde.

> <s_lp_Force_Field>
OPLS_2005

> <r_lp_Energy>
49.908

> <b_lp_Chiralities_Consistent>
1

> <s_lp_Variant>
AV-unprocessed.smi:34-24

> <Gold.Version>
5.8.1

> <Gold.Id.Protein>
6NUR|6NUR_protein|mol2

> <Gold.PLP.Fitness>
63.6623

> <Gold.PLP.PLP>
-56.2729

> <Gold.PLP.part.hbond>
-4.8888

> <Gold.PLP.part.metal>
0.0000

> <Gold.PLP.part.buried>
-8.1935

> <Gold.PLP.part.nonpolar>
-45.2560

> <Gold.PLP.part.repulsive>
0.1663

> <Gold.PLP.ligand.clash>
0.0000

> <Gold.PLP.ligand.torsion>
2.0524

> <Gold.PLP.Chemscore.Hbond>
3.6713

> <Gold.PLP.Chemscore.CHOScore>
0.0000

> <Gold.PLP.Chemscore.Metal>
0.0000

> <Gold.Chemscore.Hbonds>
donor molecule, donor type, donor heavy atom, donor atom, acceptor molecule, acceptor atom, score
      L1  H    29    49       P1  7948  0.99
      P1  H  6896  6907       L1    14  0.90
      P1  H  7997  8010       L1     5  1.00
      P1  H 10752 10764       L1     7  0.80

> <Gold.PLP.Chemscore.Internal.Correction>
0.4803

> <Gold.Rescore>
     Score         DG    S(hbond)    S(metal)    S(lipo)     H(rot)  DE(clash)    DE(int)     intcor
     21.18     -23.25       3.13        0.00     121.53       2.69       0.15       1.92       ----

> <Gold.Chemscore.Fitness>
21.1839

> <Gold.Chemscore.DG>
-23.2546

> <Gold.Chemscore.ZeroCoef>
-5.4800

> <Gold.Chemscore.Hbond>
3.1296

> <Gold.Chemscore.Metal>
0.0000

> <Gold.Chemscore.Lipo>
121.5317

> <Gold.Chemscore.Internal_Hbond>
0.0000

> <Gold.Chemscore.DEClash>
0.1465

> <Gold.Chemscore.DEInternal>
1.9242

> <Gold.Chemscore.Rot>
2.6944

> <Gold.Chemscore.Internal.Correction>
   9.000000E+99

> <Gold.Chemscore.Hbonds>
donor molecule, donor type, donor heavy atom, donor atom, acceptor molecule, acceptor atom, score
      L1  H    29    49       P1  7948  0.79
      P1  H  6896  6907       L1    14  0.87
      P1  H  7997  8010       L1     5  0.23
      P1  H 10752 10764       L1     7  0.70

> <Gold.Chemscore.Hbond.Weighted>
-10.4529

> <Gold.Chemscore.Metal.Weighted>
-0.0000

> <Gold.Chemscore.Lipo.Weighted>
-14.2192

> <Gold.Chemscore.Internal_Hbond.Weighted>
0.0000

> <Gold.Chemscore.DEClash.Weighted>
0.1465

> <Gold.Chemscore.DEInternal.Weighted>
1.9242

> <Gold.Chemscore.Rot.Weighted>
6.8975

> <Gold.Chemscore.Internal.Correction.Weighted>
   9.000000E+99

> <Gold.Protein.RotatedTorsions>
[ 6907 6896 6895 6894 ] final -110.30 input  -60.11 | X-H torsion
[ 7974 7965 7964 7962 ] final  -99.03 input  175.53 | X-H torsion
[ 8008 7997 7996 7995 ] final  106.53 input   59.86 | X-H torsion
[ 10167 10162 10161 10158 ] final   33.33 input  -65.29 | X-H torsion
[ 10718 10713 10712 10709 ] final -134.82 input   66.30 | X-H torsion
[ 10763 10752 10751 10750 ] final  -64.04 input  -60.55 | X-H torsion
[ 11005 11000 10999 10996 ] final  -19.34 input  -57.11 | X-H torsion

> <Gold.Protein.ActiveResidues>
 VAL166  LYS551  ARG553  GLY616  TRP617  ASP618  TYR619  PRO620  LYS621  CYS622 
 ASP623  PHE694  ASN695  SER759  ASP760  ASP761  ALA762  ILE779  LEU786  VAL792 
 PHE793  MET794  SER795  GLU796  ALA797  LYS798  CYS799  TRP800  GLU811  SER814 

> <Gold.Protein.RotatedAtoms>
  150.7616  133.9402  159.3453 H   0  0  0  0  0  0  0  0  0  0  0  0  # atno 6907 bound_to 6896
  151.7309  135.0873  160.0309 H   0  0  0  0  0  0  0  0  0  0  0  0  # atno 6908 bound_to 6896
  152.3590  133.6236  159.6037 H   0  0  0  0  0  0  0  0  0  0  0  0  # atno 6909 bound_to 6896
  145.3129  140.9404  143.2759 H   0  0  0  0  0  0  0  0  0  0  0  0  # atno 7974 bound_to 7965
  156.1750  140.3111  155.9043 H   0  0  0  0  0  0  0  0  0  0  0  0  # atno 8008 bound_to 7997
  155.3506  140.0471  157.3063 H   0  0  0  0  0  0  0  0  0  0  0  0  # atno 8009 bound_to 7997
  154.5281  140.2221  155.8864 H   0  0  0  0  0  0  0  0  0  0  0  0  # atno 8010 bound_to 7997
  140.4417  144.1178  150.6175 H   0  0  0  0  0  0  0  0  0  0  0  0  # atno 10167 bound_to 10162
  156.2595  130.7201  151.1130 H   0  0  0  0  0  0  0  0  0  0  0  0  # atno 10718 bound_to 10713
  154.3242  135.6190  153.5521 H   0  0  0  0  0  0  0  0  0  0  0  0  # atno 10763 bound_to 10752
  152.9817  135.5731  154.5035 H   0  0  0  0  0  0  0  0  0  0  0  0  # atno 10764 bound_to 10752
  154.4709  135.2859  155.1620 H   0  0  0  0  0  0  0  0  0  0  0  0  # atno 10765 bound_to 10752
  140.8357  133.7963  155.9807 H   0  0  0  0  0  0  0  0  0  0  0  0  # atno 11005 bound_to 11000
  144.9001  139.4661  143.6636 LP  0  0  0  0  0  0  0  0  0  0  0  0  # atno 17320 bound_to 7965
  146.3111  139.7750  142.9019 LP  0  0  0  0  0  0  0  0  0  0  0  0  # atno 17321 bound_to 7965
  140.4311  143.2568  151.9595 LP  0  0  0  0  0  0  0  0  0  0  0  0  # atno 17342 bound_to 10162
  139.4790  144.5743  151.8037 LP  0  0  0  0  0  0  0  0  0  0  0  0  # atno 17343 bound_to 10162
  157.7245  131.0659  150.5992 LP  0  0  0  0  0  0  0  0  0  0  0  0  # atno 17370 bound_to 10713
  156.6079  130.4372  149.5871 LP  0  0  0  0  0  0  0  0  0  0  0  0  # atno 17371 bound_to 10713
  140.8949  134.2449  157.5074 LP  0  0  0  0  0  0  0  0  0  0  0  0  # atno 17394 bound_to 11000
  139.8704  134.9679  156.4613 LP  0  0  0  0  0  0  0  0  0  0  0  0  # atno 17395 bound_to 11000

$$$$
