AV-unprocessed.smi:215|AV-procd|sdf|1652|dock8
  -GOLD-   2262020 33D 1   1.00000     0.00000
 Structure written by MMmdl.
 59 62  0  0  0  0  0  0  0  0  2 V2000
  149.1205  128.3126  155.4784 C   0  0  0  0  0  0  0  0  0  0  0  0
  150.3718  128.7306  154.6745 C   0  0  2  0  0  0  0  0  0  0  0  0
  151.6427  127.9074  155.0070 C   0  0  1  0  0  0  0  0  0  0  0  0
  151.8512  126.6742  154.1868 N   0  3  2  0  0  0  0  0  0  0  0  0
  150.7376  125.6956  154.2303 C   0  0  0  0  0  0  0  0  0  0  0  0
  153.1597  126.0166  154.4545 C   0  0  0  0  0  0  0  0  0  0  0  0
  153.3684  124.7748  153.5721 C   0  0  0  0  0  0  0  0  0  0  0  0
  153.0553  125.0778  152.2289 O   0  0  0  0  0  0  0  0  0  0  0  0
  152.7606  128.9329  154.7615 C   0  0  0  0  0  0  0  0  0  0  0  0
  152.1529  130.2698  155.1683 C   0  0  0  0  0  0  0  0  0  0  0  0
  150.7189  130.1184  154.9854 N   0  0  0  0  0  0  0  0  0  0  0  0
  150.0183  131.1708  154.4842 C   0  0  0  0  0  0  0  0  0  0  0  0
  150.4792  132.4350  154.6774 N   0  0  0  0  0  0  0  0  0  0  0  0
  149.8068  133.4837  154.1952 C   0  0  0  0  0  0  0  0  0  0  0  0
  148.6688  133.4957  153.5003 N   0  0  0  0  0  0  0  0  0  0  0  0
  148.1997  132.2315  153.2965 C   0  0  0  0  0  0  0  0  0  0  0  0
  148.8068  131.0246  153.7472 C   0  0  0  0  0  0  0  0  0  0  0  0
  148.0499  129.9357  153.3306 N   0  0  0  0  0  0  0  0  0  0  0  0
  147.0549  130.4674  152.6743 C   0  0  0  0  0  0  0  0  0  0  0  0
  147.0570  131.8435  152.6174 N   0  0  0  0  0  0  0  0  0  0  0  0
  146.1101  132.6882  151.9452 C   0  0  0  0  0  0  0  0  0  0  0  0
  144.6604  132.2598  151.6986 C   0  0  0  0  0  0  0  0  0  0  0  0
  144.6596  133.0724  150.3822 C   0  0  0  0  0  0  0  0  0  0  0  0
  143.9409  132.3860  149.2071 C   0  0  0  0  0  0  0  0  0  0  0  0
  142.6434  131.9549  149.5628 O   0  0  0  0  0  0  0  0  0  0  0  0
  144.1206  134.5108  150.5367 C   0  0  0  0  0  0  0  0  0  0  0  0
  143.9098  135.1408  149.2900 O   0  0  0  0  0  0  0  0  0  0  0  0
  146.1965  132.9036  150.4355 C   0  0  0  0  0  0  0  0  0  0  0  0
  150.1734  128.6561  153.6043 H   0  0  0  0  0  0  0  0  0  0  0  0
  151.6275  127.6423  156.0661 H   0  0  0  0  0  0  0  0  0  0  0  0
  148.8097  127.2899  155.2798 H   0  0  0  0  0  0  0  0  0  0  0  0
  148.2662  128.9470  155.2432 H   0  0  0  0  0  0  0  0  0  0  0  0
  149.2992  128.3960  156.5510 H   0  0  0  0  0  0  0  0  0  0  0  0
  150.5456  125.3672  155.2524 H   0  0  0  0  0  0  0  0  0  0  0  0
  150.9658  124.8111  153.6366 H   0  0  0  0  0  0  0  0  0  0  0  0
  149.8230  126.1159  153.8134 H   0  0  0  0  0  0  0  0  0  0  0  0
  153.9940  126.6973  154.2887 H   0  0  0  0  0  0  0  0  0  0  0  0
  153.2173  125.7422  155.5090 H   0  0  0  0  0  0  0  0  0  0  0  0
  154.4102  124.4564  153.6163 H   0  0  0  0  0  0  0  0  0  0  0  0
  152.7650  123.9310  153.9060 H   0  0  0  0  0  0  0  0  0  0  0  0
  152.9569  126.0141  152.1436 H   0  0  0  0  0  0  0  0  0  0  0  0
  153.6774  128.7232  155.3125 H   0  0  0  0  0  0  0  0  0  0  0  0
  153.0106  128.9635  153.6998 H   0  0  0  0  0  0  0  0  0  0  0  0
  152.3500  130.4787  156.2203 H   0  0  0  0  0  0  0  0  0  0  0  0
  152.5705  131.0844  154.5749 H   0  0  0  0  0  0  0  0  0  0  0  0
  150.2419  134.4517  154.3959 H   0  0  0  0  0  0  0  0  0  0  0  0
  146.2926  129.8612  152.2079 H   0  0  0  0  0  0  0  0  0  0  0  0
  146.1260  133.6474  152.4657 H   0  0  0  0  0  0  0  0  0  0  0  0
  144.5501  131.1867  151.5364 H   0  0  0  0  0  0  0  0  0  0  0  0
  143.9544  132.6095  152.4527 H   0  0  0  0  0  0  0  0  0  0  0  0
  143.8349  133.0693  148.3643 H   0  0  0  0  0  0  0  0  0  0  0  0
  144.5087  131.5312  148.8384 H   0  0  0  0  0  0  0  0  0  0  0  0
  142.0547  132.6916  149.5057 H   0  0  0  0  0  0  0  0  0  0  0  0
  143.1846  134.5218  151.0959 H   0  0  0  0  0  0  0  0  0  0  0  0
  144.8143  135.1332  151.1020 H   0  0  0  0  0  0  0  0  0  0  0  0
  144.7051  135.0796  148.7834 H   0  0  0  0  0  0  0  0  0  0  0  0
  146.7707  133.7816  150.1383 H   0  0  0  0  0  0  0  0  0  0  0  0
  146.5439  132.0143  149.9061 H   0  0  0  0  0  0  0  0  0  0  0  0
  151.8978  126.9977  153.2305 H   0  0  0  0  0  0  0  0  0  0  0  0
  1  2  1  0  0  0  0
  1 31  1  0  0  0  0
  1 32  1  0  0  0  0
  1 33  1  0  0  0  0
  2 29  1  0  0  0  0
  2 11  1  0  0  0  0
  2  3  1  0  0  0  0
  3 30  1  0  0  0  0
  3  4  1  0  0  0  0
  3  9  1  0  0  0  0
  4  5  1  0  0  0  0
  4  6  1  0  0  0  0
  4 59  1  0  0  0  0
  5 34  1  0  0  0  0
  5 35  1  0  0  0  0
  5 36  1  0  0  0  0
  6  7  1  0  0  0  0
  6 37  1  0  0  0  0
  6 38  1  0  0  0  0
  7  8  1  0  0  0  0
  7 39  1  0  0  0  0
  7 40  1  0  0  0  0
  8 41  1  0  0  0  0
  9 10  1  0  0  0  0
  9 42  1  0  0  0  0
  9 43  1  0  0  0  0
 10 11  1  0  0  0  0
 10 44  1  0  0  0  0
 10 45  1  0  0  0  0
 11 12  1  0  0  0  0
 12 17  1  0  0  0  0
 12 13  2  0  0  0  0
 13 14  1  0  0  0  0
 14 15  2  0  0  0  0
 14 46  1  0  0  0  0
 15 16  1  0  0  0  0
 16 20  1  0  0  0  0
 16 17  2  0  0  0  0
 17 18  1  0  0  0  0
 18 19  2  0  0  0  0
 19 20  1  0  0  0  0
 19 47  1  0  0  0  0
 20 21  1  0  0  0  0
 21 28  1  0  0  0  0
 21 22  1  0  0  0  0
 21 48  1  0  0  0  0
 22 23  1  0  0  0  0
 22 49  1  0  0  0  0
 22 50  1  0  0  0  0
 23 24  1  0  0  0  0
 23 26  1  0  0  0  0
 23 28  1  0  0  0  0
 24 25  1  0  0  0  0
 24 51  1  0  0  0  0
 24 52  1  0  0  0  0
 25 53  1  0  0  0  0
 26 27  1  0  0  0  0
 26 54  1  0  0  0  0
 26 55  1  0  0  0  0
 27 56  1  0  0  0  0
 28 57  1  0  0  0  0
 28 58  1  0  0  0  0
M  CHG  1   4   1
M  END
> <s_m_source_file>
AV-unprocessed.smi

> <i_m_source_file_index>
215

> <i_lp_mmshare_version>
43012

> <i_f3d_flags>
0

> <s_epik_input>
W09IXVtDSDJdW0NIMl1OKFtDSDNdKVtDQEBIXShbQ0BIXTFbQ0gzXSlbQ0gyXVtDSDJdTjFjKG5bY0hdbjIpYyhjMjMpbltjSF1uM1tDSF0oW0NIMl00KVtDSDJdQzQoW0NIMl1bT0hdKVtDSDJdW09IXQ==

> <s_epik_cmdline>
J2VwaWtfcHl0aG9uJywgJy1waCcsICc3LjAnLCAnLXRuJywgJzgnLCAnLW1hJywgJzIwMCcsICctbWV0YWxfYmluZGluZycsICctaW1hZScsICc8aW5maWxlLm1hZT4nLCAnLW9tYWUnLCAnPG91dGZpbGUubWFlPic=

> <r_lp_tautomer_probability>
1

> <r_epik_Ionization_Penalty>
0.0036237

> <r_epik_Ionization_Penalty_Charging>
0.0032725

> <r_epik_Ionization_Penalty_Neutral>
0.000351196

> <r_epik_State_Penalty>
-0

> <r_epik_Charging_Adjusted_Penalty>
0.0032725

> <i_epik_Tot_Q>
1

> <i_epik_Tot_abs_Q>
1

> <r_epik_Metal_State_Penalty>
-0

> <b_epik_Metal_Only>
0

> <s_lp_Force_Field>
OPLS_2005

> <r_lp_Energy>
64.69

> <b_lp_Chiralities_Consistent>
1

> <s_lp_Variant>
AV-unprocessed.smi:215-3

> <Gold.Version>
5.8.1

> <Gold.Id.Protein>
6NUR|6NUR_protein|mol2

> <Gold.PLP.Fitness>
59.7362

> <Gold.PLP.PLP>
-47.4418

> <Gold.PLP.part.hbond>
-6.5667

> <Gold.PLP.part.metal>
0.0000

> <Gold.PLP.part.buried>
-4.0529

> <Gold.PLP.part.nonpolar>
-37.4791

> <Gold.PLP.part.repulsive>
0.2705

> <Gold.PLP.ligand.clash>
0.0000

> <Gold.PLP.ligand.torsion>
1.5559

> <Gold.PLP.Chemscore.Hbond>
4.8371

> <Gold.PLP.Chemscore.CHOScore>
0.0000

> <Gold.PLP.Chemscore.Metal>
0.0000

> <Gold.Chemscore.Hbonds>
donor molecule, donor type, donor heavy atom, donor atom, acceptor molecule, acceptor atom, score
      L1  H     4    59       P1 10737  1.00
      L1  H     8    41       P1 10737  1.00
      L1  H    25    53       P1 10186  1.00
      L1  H    27    56       P1  7921  1.00
      P1  H 10785 10796       L1    25  0.27

> <Gold.PLP.Chemscore.Internal.Correction>
0.8949

> <Gold.Rescore>
     Score         DG    S(hbond)    S(metal)    S(lipo)     H(rot)  DE(clash)    DE(int)     intcor
     13.94     -16.56       3.97        0.00      79.42       4.48       0.28       2.33       ----

> <Gold.Chemscore.Fitness>
13.9447

> <Gold.Chemscore.DG>
-16.5555

> <Gold.Chemscore.ZeroCoef>
-5.4800

> <Gold.Chemscore.Hbond>
3.9667

> <Gold.Chemscore.Metal>
0.0000

> <Gold.Chemscore.Lipo>
79.4215

> <Gold.Chemscore.Internal_Hbond>
0.0000

> <Gold.Chemscore.DEClash>
0.2843

> <Gold.Chemscore.DEInternal>
2.3265

> <Gold.Chemscore.Rot>
4.4787

> <Gold.Chemscore.Internal.Correction>
   9.000000E+99

> <Gold.Chemscore.Hbonds>
donor molecule, donor type, donor heavy atom, donor atom, acceptor molecule, acceptor atom, score
      L1  H     4    59       P1 10737  1.00
      L1  H     8    41       P1 10737  0.84
      L1  H    25    53       P1 10186  0.95
      L1  H    27    56       P1  7921  1.00

> <Gold.Chemscore.Hbond.Weighted>
-13.2487

> <Gold.Chemscore.Metal.Weighted>
-0.0000

> <Gold.Chemscore.Lipo.Weighted>
-9.2923

> <Gold.Chemscore.Internal_Hbond.Weighted>
0.0000

> <Gold.Chemscore.DEClash.Weighted>
0.2843

> <Gold.Chemscore.DEInternal.Weighted>
2.3265

> <Gold.Chemscore.Rot.Weighted>
11.4655

> <Gold.Chemscore.Internal.Correction.Weighted>
   9.000000E+99

> <Gold.Protein.RotatedTorsions>
[ 6907 6896 6895 6894 ] final   68.96 input  -60.11 | X-H torsion
[ 7974 7965 7964 7962 ] final  135.28 input  175.53 | X-H torsion
[ 8008 7997 7996 7995 ] final   33.18 input   59.86 | X-H torsion
[ 10167 10162 10161 10158 ] final   57.58 input  -65.29 | X-H torsion
[ 10718 10713 10712 10709 ] final -166.09 input   66.30 | X-H torsion
[ 10763 10752 10751 10750 ] final -119.79 input  -60.55 | X-H torsion
[ 11005 11000 10999 10996 ] final    3.15 input  -57.11 | X-H torsion

> <Gold.Protein.ActiveResidues>
 VAL166  LYS551  ARG553  GLY616  TRP617  ASP618  TYR619  PRO620  LYS621  CYS622 
 ASP623  PHE694  ASN695  SER759  ASP760  ASP761  ALA762  ILE779  LEU786  VAL792 
 PHE793  MET794  SER795  GLU796  ALA797  LYS798  CYS799  TRP800  GLU811  SER814 

> <Gold.Protein.RotatedAtoms>
  152.4655  134.5086  159.9746 H   0  0  0  0  0  0  0  0  0  0  0  0  # atno 6907 bound_to 6896
  151.5125  133.3476  159.2895 H   0  0  0  0  0  0  0  0  0  0  0  0  # atno 6908 bound_to 6896
  150.8637  134.8024  159.7164 H   0  0  0  0  0  0  0  0  0  0  0  0  # atno 6909 bound_to 6896
  144.9679  139.4637  143.5447 H   0  0  0  0  0  0  0  0  0  0  0  0  # atno 7974 bound_to 7965
  155.1345  140.3260  155.4466 H   0  0  0  0  0  0  0  0  0  0  0  0  # atno 8008 bound_to 7997
  156.2624  140.2004  156.6412 H   0  0  0  0  0  0  0  0  0  0  0  0  # atno 8009 bound_to 7997
  154.6588  140.0549  157.0025 H   0  0  0  0  0  0  0  0  0  0  0  0  # atno 8010 bound_to 7997
  140.1965  144.4032  150.6548 H   0  0  0  0  0  0  0  0  0  0  0  0  # atno 10167 bound_to 10162
  156.6628  130.9053  151.3032 H   0  0  0  0  0  0  0  0  0  0  0  0  # atno 10718 bound_to 10713
  154.8627  135.4226  154.2355 H   0  0  0  0  0  0  0  0  0  0  0  0  # atno 10763 bound_to 10752
  153.3331  135.6989  153.6936 H   0  0  0  0  0  0  0  0  0  0  0  0  # atno 10764 bound_to 10752
  153.5945  135.3548  155.2896 H   0  0  0  0  0  0  0  0  0  0  0  0  # atno 10765 bound_to 10752
  140.5964  133.9877  155.8112 H   0  0  0  0  0  0  0  0  0  0  0  0  # atno 11005 bound_to 11000
  146.3373  139.8872  142.8815 LP  0  0  0  0  0  0  0  0  0  0  0  0  # atno 17320 bound_to 7965
  145.2602  141.0074  143.3831 LP  0  0  0  0  0  0  0  0  0  0  0  0  # atno 17321 bound_to 7965
  140.6420  143.2205  151.6269 LP  0  0  0  0  0  0  0  0  0  0  0  0  # atno 17342 bound_to 10162
  139.5234  144.3133  152.0974 LP  0  0  0  0  0  0  0  0  0  0  0  0  # atno 17343 bound_to 10162
  157.7104  130.9433  150.1069 LP  0  0  0  0  0  0  0  0  0  0  0  0  # atno 17370 bound_to 10713
  156.1998  130.3659  149.8803 LP  0  0  0  0  0  0  0  0  0  0  0  0  # atno 17371 bound_to 10713
  141.0901  133.9929  157.3250 LP  0  0  0  0  0  0  0  0  0  0  0  0  # atno 17394 bound_to 11000
  139.9251  135.0201  156.8207 LP  0  0  0  0  0  0  0  0  0  0  0  0  # atno 17395 bound_to 11000

$$$$
