AV-unprocessed.smi:3036|AV-procd|sdf|11582|dock8
  -GOLD-   2272016553D 1   1.00000     0.00000
 Structure written by MMmdl.
 42 43  0  0  0  0  0  0  0  0  2 V2000
  149.4458  142.5233  158.4550 C   0  0  0  0  0  0  0  0  0  0  0  0
  150.4171  142.2891  157.2905 C   0  0  2  0  0  0  0  0  0  0  0  0
  151.4140  143.4556  157.1463 C   0  0  0  0  0  0  0  0  0  0  0  0
  151.6138  144.1677  158.3964 N   0  0  0  0  0  0  0  0  0  0  0  0
  151.0136  145.3326  158.8253 C   0  0  0  0  0  0  0  0  0  0  0  0
  151.5048  145.6081  160.0691 C   0  0  0  0  0  0  0  0  0  0  0  0
  152.4127  144.5417  160.3190 C   0  0  0  0  0  0  0  0  0  0  0  0
  152.4741  143.6795  159.3169 N   0  0  0  0  0  0  0  0  0  0  0  0
  149.6551  142.1001  156.0362 N   0  3  0  0  0  0  0  0  0  0  0  0
  150.4574  141.6203  154.8904 C   0  0  0  0  0  0  0  0  0  0  0  0
  150.8274  140.1297  155.0238 C   0  0  0  0  0  0  0  0  0  0  0  0
  152.2770  139.8573  155.4692 C   0  0  0  0  0  0  0  0  0  0  0  0
  153.1971  140.1021  154.6870 O   0  0  0  0  0  0  0  0  0  0  0  0
  152.4992  139.3571  156.7085 N   0  0  0  0  0  0  0  0  0  0  0  0
  151.4209  139.0042  157.6367 C   0  0  0  0  0  0  0  0  0  0  0  0
  151.4700  137.4858  157.8852 C   0  0  0  0  0  0  0  0  0  0  0  0
  152.7507  137.1229  158.3950 O   0  0  0  0  0  0  0  0  0  0  0  0
  153.8215  137.4782  157.5239 C   0  0  0  0  0  0  0  0  0  0  0  0
  153.8031  138.9971  157.2755 C   0  0  0  0  0  0  0  0  0  0  0  0
  149.9834  142.6389  159.3968 H   0  0  0  0  0  0  0  0  0  0  0  0
  148.7603  141.6828  158.5699 H   0  0  0  0  0  0  0  0  0  0  0  0
  148.8483  143.4225  158.3010 H   0  0  0  0  0  0  0  0  0  0  0  0
  150.9841  141.3833  157.5127 H   0  0  0  0  0  0  0  0  0  0  0  0
  152.3791  143.0988  156.7826 H   0  0  0  0  0  0  0  0  0  0  0  0
  151.0492  144.1703  156.4073 H   0  0  0  0  0  0  0  0  0  0  0  0
  150.2937  145.8616  158.2182 H   0  0  0  0  0  0  0  0  0  0  0  0
  151.2544  146.4451  160.7042 H   0  0  0  0  0  0  0  0  0  0  0  0
  153.0228  144.3689  161.1933 H   0  0  0  0  0  0  0  0  0  0  0  0
  148.9075  141.4414  156.2052 H   0  0  0  0  0  0  0  0  0  0  0  0
  149.8790  141.7603  153.9759 H   0  0  0  0  0  0  0  0  0  0  0  0
  151.3553  142.2324  154.7916 H   0  0  0  0  0  0  0  0  0  0  0  0
  150.1409  139.6578  155.7280 H   0  0  0  0  0  0  0  0  0  0  0  0
  150.6737  139.6489  154.0571 H   0  0  0  0  0  0  0  0  0  0  0  0
  151.5600  139.5446  158.5741 H   0  0  0  0  0  0  0  0  0  0  0  0
  150.4325  139.2846  157.2706 H   0  0  0  0  0  0  0  0  0  0  0  0
  150.7076  137.1965  158.6085 H   0  0  0  0  0  0  0  0  0  0  0  0
  151.2651  136.9349  156.9658 H   0  0  0  0  0  0  0  0  0  0  0  0
  154.7638  137.1815  157.9849 H   0  0  0  0  0  0  0  0  0  0  0  0
  153.7371  136.9288  156.5850 H   0  0  0  0  0  0  0  0  0  0  0  0
  154.6501  139.2763  156.6515 H   0  0  0  0  0  0  0  0  0  0  0  0
  153.9423  139.5298  158.2173 H   0  0  0  0  0  0  0  0  0  0  0  0
  149.2491  142.9906  155.7843 H   0  0  0  0  0  0  0  0  0  0  0  0
  1  2  1  0  0  0  0
  1 20  1  0  0  0  0
  1 21  1  0  0  0  0
  1 22  1  0  0  0  0
  2  3  1  0  0  0  0
  2  9  1  0  0  0  0
  2 23  1  0  0  0  0
  3  4  1  0  0  0  0
  3 24  1  0  0  0  0
  3 25  1  0  0  0  0
  4  8  1  0  0  0  0
  4  5  1  0  0  0  0
  5  6  2  0  0  0  0
  5 26  1  0  0  0  0
  6  7  1  0  0  0  0
  6 27  1  0  0  0  0
  7  8  2  0  0  0  0
  7 28  1  0  0  0  0
  9 10  1  0  0  0  0
  9 29  1  0  0  0  0
  9 42  1  0  0  0  0
 10 11  1  0  0  0  0
 10 30  1  0  0  0  0
 10 31  1  0  0  0  0
 11 12  1  0  0  0  0
 11 32  1  0  0  0  0
 11 33  1  0  0  0  0
 12 13  2  0  0  0  0
 12 14  1  0  0  0  0
 14 19  1  0  0  0  0
 14 15  1  0  0  0  0
 15 16  1  0  0  0  0
 15 34  1  0  0  0  0
 15 35  1  0  0  0  0
 16 17  1  0  0  0  0
 16 36  1  0  0  0  0
 16 37  1  0  0  0  0
 17 18  1  0  0  0  0
 18 19  1  0  0  0  0
 18 38  1  0  0  0  0
 18 39  1  0  0  0  0
 19 40  1  0  0  0  0
 19 41  1  0  0  0  0
M  CHG  1   9   1
M  END
> <s_m_source_file>
AV-unprocessed.smi

> <i_m_source_file_index>
3036

> <i_lp_mmshare_version>
43012

> <i_f3d_flags>
0

> <s_epik_input>
bjFbY0hdW2NIXVtjSF1uMVtDSDJdW0NAQEhdKFtDSDNdKVtOSF1bQ0gyXVtDSDJdQyg9TylOMltDSDJdW0NIMl1PW0NIMl1bQ0gyXTI=

> <s_epik_cmdline>
J2VwaWtfcHl0aG9uJywgJy1waCcsICc3LjAnLCAnLXRuJywgJzgnLCAnLW1hJywgJzIwMCcsICctbWV0YWxfYmluZGluZycsICctaW1hZScsICc8aW5maWxlLm1hZT4nLCAnLW9tYWUnLCAnPG91dGZpbGUubWFlPic=

> <r_lp_tautomer_probability>
1

> <r_epik_Ionization_Penalty>
0.00797109

> <r_epik_Ionization_Penalty_Charging>
0.0079672

> <r_epik_Ionization_Penalty_Neutral>
3.88864e-06

> <r_epik_State_Penalty>
0.00597998

> <r_epik_Charging_Adjusted_Penalty>
0.0139472

> <i_epik_Tot_Q>
1

> <i_epik_Tot_abs_Q>
1

> <r_epik_Metal_State_Penalty>
0.00598029

> <b_epik_Metal_Only>
0

> <s_lp_Force_Field>
OPLS_2005

> <r_lp_Energy>
23.8433

> <b_lp_Chiralities_Consistent>
1

> <s_lp_Variant>
AV-unprocessed.smi:3036-1

> <Gold.Version>
5.8.1

> <Gold.Id.Protein>
6NUR|6NUR_protein|mol2

> <Gold.PLP.Fitness>
48.8567

> <Gold.PLP.PLP>
-35.7312

> <Gold.PLP.part.hbond>
-3.9872

> <Gold.PLP.part.metal>
0.0000

> <Gold.PLP.part.buried>
-3.1516

> <Gold.PLP.part.nonpolar>
-28.4238

> <Gold.PLP.part.repulsive>
0.0734

> <Gold.PLP.ligand.clash>
0.0000

> <Gold.PLP.ligand.torsion>
1.2554

> <Gold.PLP.Chemscore.Hbond>
4.1985

> <Gold.PLP.Chemscore.CHOScore>
0.9844

> <Gold.PLP.Chemscore.Metal>
0.0000

> <Gold.Chemscore.Hbonds>
donor molecule, donor type, donor heavy atom, donor atom, acceptor molecule, acceptor atom, score
      L1  H     9    42       P1  8028  2.00
      P1  H  7989  7998       L1    13  0.04
      P1  H  7997  8010       L1    13  0.65
      L1  C     5    26       P1  8029  0.95

> <Gold.PLP.Chemscore.Internal.Correction>
0.0877

> <Gold.Rescore>
     Score         DG    S(hbond)    S(metal)    S(lipo)     H(rot)  DE(clash)    DE(int)     intcor
     18.48     -19.61       2.84        0.00      84.79       2.07       0.08       1.04       ----

> <Gold.Chemscore.Fitness>
18.4835

> <Gold.Chemscore.DG>
-19.6083

> <Gold.Chemscore.ZeroCoef>
-5.4800

> <Gold.Chemscore.Hbond>
2.8449

> <Gold.Chemscore.Metal>
0.0000

> <Gold.Chemscore.Lipo>
84.7888

> <Gold.Chemscore.Internal_Hbond>
0.0000

> <Gold.Chemscore.DEClash>
0.0847

> <Gold.Chemscore.DEInternal>
1.0401

> <Gold.Chemscore.Rot>
2.0680

> <Gold.Chemscore.Internal.Correction>
   9.000000E+99

> <Gold.Chemscore.Hbonds>
donor molecule, donor type, donor heavy atom, donor atom, acceptor molecule, acceptor atom, score
      L1  H     9    42       P1  8028  1.00
      P1  H  7997  8010       L1    13  0.05

> <Gold.Chemscore.Hbond.Weighted>
-9.5021

> <Gold.Chemscore.Metal.Weighted>
-0.0000

> <Gold.Chemscore.Lipo.Weighted>
-9.9203

> <Gold.Chemscore.Internal_Hbond.Weighted>
0.0000

> <Gold.Chemscore.DEClash.Weighted>
0.0847

> <Gold.Chemscore.DEInternal.Weighted>
1.0401

> <Gold.Chemscore.Rot.Weighted>
5.2941

> <Gold.Chemscore.Internal.Correction.Weighted>
   9.000000E+99

> <Gold.Protein.RotatedTorsions>
[ 6907 6896 6895 6894 ] final -122.99 input  -60.11 | X-H torsion
[ 7974 7965 7964 7962 ] final   29.15 input  175.53 | X-H torsion
[ 8008 7997 7996 7995 ] final   96.30 input   59.86 | X-H torsion
[ 10167 10162 10161 10158 ] final  160.73 input  -65.29 | X-H torsion
[ 10718 10713 10712 10709 ] final  163.26 input   66.30 | X-H torsion
[ 10763 10752 10751 10750 ] final    9.22 input  -60.55 | X-H torsion
[ 11005 11000 10999 10996 ] final   -8.42 input  -57.11 | X-H torsion

> <Gold.Protein.ActiveResidues>
 VAL166  LYS551  ARG553  GLY616  TRP617  ASP618  TYR619  PRO620  LYS621  CYS622 
 ASP623  PHE694  ASN695  SER759  ASP760  ASP761  ALA762  ILE779  LEU786  VAL792 
 PHE793  MET794  SER795  GLU796  ALA797  LYS798  CYS799  TRP800  GLU811  SER814 

> <Gold.Protein.RotatedAtoms>
  150.8628  133.7618  159.2986 H   0  0  0  0  0  0  0  0  0  0  0  0  # atno 6907 bound_to 6896
  151.5255  135.1066  159.9899 H   0  0  0  0  0  0  0  0  0  0  0  0  # atno 6908 bound_to 6896
  152.4639  133.7836  159.6920 H   0  0  0  0  0  0  0  0  0  0  0  0  # atno 6909 bound_to 6896
  146.1688  139.6961  142.8982 H   0  0  0  0  0  0  0  0  0  0  0  0  # atno 7974 bound_to 7965
  156.0781  140.3274  155.7659 H   0  0  0  0  0  0  0  0  0  0  0  0  # atno 8008 bound_to 7997
  155.5197  140.0584  157.2926 H   0  0  0  0  0  0  0  0  0  0  0  0  # atno 8009 bound_to 7997
  154.4567  140.1946  156.0377 H   0  0  0  0  0  0  0  0  0  0  0  0  # atno 8010 bound_to 7997
  139.4842  144.4606  151.8710 H   0  0  0  0  0  0  0  0  0  0  0  0  # atno 10167 bound_to 10162
  157.1109  131.0467  151.2457 H   0  0  0  0  0  0  0  0  0  0  0  0  # atno 10718 bound_to 10713
  153.2164  135.6875  153.8052 H   0  0  0  0  0  0  0  0  0  0  0  0  # atno 10763 bound_to 10752
  153.7266  135.3259  155.3278 H   0  0  0  0  0  0  0  0  0  0  0  0  # atno 10764 bound_to 10752
  154.8248  135.4626  154.0993 H   0  0  0  0  0  0  0  0  0  0  0  0  # atno 10765 bound_to 10752
  140.7232  133.8811  155.8837 H   0  0  0  0  0  0  0  0  0  0  0  0  # atno 11005 bound_to 11000
  145.4395  141.0421  143.2865 LP  0  0  0  0  0  0  0  0  0  0  0  0  # atno 17320 bound_to 7965
  144.8132  139.5924  143.7020 LP  0  0  0  0  0  0  0  0  0  0  0  0  # atno 17321 bound_to 7965
  140.4068  144.2421  150.5890 LP  0  0  0  0  0  0  0  0  0  0  0  0  # atno 17342 bound_to 10162
  140.5005  143.2319  151.8686 LP  0  0  0  0  0  0  0  0  0  0  0  0  # atno 17343 bound_to 10162
  157.4560  130.7625  149.7193 LP  0  0  0  0  0  0  0  0  0  0  0  0  # atno 17370 bound_to 10713
  155.9850  130.3986  150.3281 LP  0  0  0  0  0  0  0  0  0  0  0  0  # atno 17371 bound_to 10713
  140.9985  134.1182  157.4340 LP  0  0  0  0  0  0  0  0  0  0  0  0  # atno 17394 bound_to 11000
  139.8843  135.0061  156.6360 LP  0  0  0  0  0  0  0  0  0  0  0  0  # atno 17395 bound_to 11000

$$$$
