AV-unprocessed.smi:1839|AV-procd|sdf|7485|dock10
  -GOLD-   22720 9183D 1   1.00000     0.00000
 Structure written by MMmdl.
 46 47  0  0  0  0  0  0  0  0  1 V2000
  150.1076  142.5534  158.2002 C   0  0  0  0  0  0  0  0  0  0  0  0
  149.6032  141.8719  157.0079 N   0  0  0  0  0  0  0  0  0  0  0  0
  150.5512  141.8427  155.8876 C   0  0  0  0  0  0  0  0  0  0  0  0
  148.4929  141.0959  157.0809 C   0  0  0  0  0  0  0  0  0  0  0  0
  148.0291  140.7187  158.1588 O   0  0  0  0  0  0  0  0  0  0  0  0
  147.9450  140.7266  155.8985 N   0  0  0  0  0  0  0  0  0  0  0  0
  147.7632  141.6630  154.7801 C   0  0  0  0  0  0  0  0  0  0  0  0
  148.1124  140.9596  153.4572 C   0  0  0  0  0  0  0  0  0  0  0  0
  147.2768  139.6803  153.2810 C   0  0  0  0  0  0  0  0  0  0  0  0
  147.3709  138.7697  154.5257 C   0  0  2  0  0  0  0  0  0  0  0  0
  146.4479  137.5512  154.3931 C   0  0  0  0  0  0  0  0  0  0  0  0
  145.4621  137.4362  155.1223 O   0  0  0  0  0  0  0  0  0  0  0  0
  146.7814  136.6460  153.4603 N   0  0  0  0  0  0  0  0  0  0  0  0
  146.0442  135.4188  153.1826 C   0  0  0  0  0  0  0  0  0  0  0  0
  145.5661  135.3607  151.7217 C   0  0  0  0  0  0  0  0  0  0  0  0
  145.1969  133.9523  151.2962 C   0  0  0  0  0  0  0  0  0  0  0  0
  146.1313  132.9001  151.4035 C   0  0  0  0  0  0  0  0  0  0  0  0
  145.7363  131.6085  151.0049 C   0  0  0  0  0  0  0  0  0  0  0  0
  144.4286  131.4193  150.5175 C   0  0  0  0  0  0  0  0  0  0  0  0
  143.5702  132.5349  150.4520 C   0  0  0  0  0  0  0  0  0  0  0  0
  143.9385  133.7775  150.8323 N   0  0  0  0  0  0  0  0  0  0  0  0
  147.0406  139.5748  155.8025 C   0  0  0  0  0  0  0  0  0  0  0  0
  149.2947  142.9626  158.8021 H   0  0  0  0  0  0  0  0  0  0  0  0
  150.7579  143.3872  157.9325 H   0  0  0  0  0  0  0  0  0  0  0  0
  150.6789  141.8622  158.8212 H   0  0  0  0  0  0  0  0  0  0  0  0
  150.5072  140.9041  155.3330 H   0  0  0  0  0  0  0  0  0  0  0  0
  151.5788  141.9480  156.2379 H   0  0  0  0  0  0  0  0  0  0  0  0
  150.3538  142.6620  155.1964 H   0  0  0  0  0  0  0  0  0  0  0  0
  146.7237  141.9944  154.7610 H   0  0  0  0  0  0  0  0  0  0  0  0
  148.3584  142.5699  154.8905 H   0  0  0  0  0  0  0  0  0  0  0  0
  147.9424  141.6344  152.6178 H   0  0  0  0  0  0  0  0  0  0  0  0
  149.1733  140.7086  153.4418 H   0  0  0  0  0  0  0  0  0  0  0  0
  146.2377  139.9618  153.1023 H   0  0  0  0  0  0  0  0  0  0  0  0
  147.6077  139.1432  152.3913 H   0  0  0  0  0  0  0  0  0  0  0  0
  148.4005  138.4152  154.6072 H   0  0  0  0  0  0  0  0  0  0  0  0
  147.6069  136.8181  152.9049 H   0  0  0  0  0  0  0  0  0  0  0  0
  146.6628  134.5509  153.4169 H   0  0  0  0  0  0  0  0  0  0  0  0
  145.1880  135.3809  153.8567 H   0  0  0  0  0  0  0  0  0  0  0  0
  144.7007  136.0110  151.5851 H   0  0  0  0  0  0  0  0  0  0  0  0
  146.3409  135.7401  151.0542 H   0  0  0  0  0  0  0  0  0  0  0  0
  147.1263  133.0773  151.7847 H   0  0  0  0  0  0  0  0  0  0  0  0
  146.4233  130.7779  151.0726 H   0  0  0  0  0  0  0  0  0  0  0  0
  144.0915  130.4430  150.2021 H   0  0  0  0  0  0  0  0  0  0  0  0
  142.5605  132.4260  150.0844 H   0  0  0  0  0  0  0  0  0  0  0  0
  147.1367  138.9216  156.6724 H   0  0  0  0  0  0  0  0  0  0  0  0
  146.0074  139.9267  155.7901 H   0  0  0  0  0  0  0  0  0  0  0  0
  1  2  1  0  0  0  0
  1 23  1  0  0  0  0
  1 24  1  0  0  0  0
  1 25  1  0  0  0  0
  2  3  1  0  0  0  0
  2  4  1  0  0  0  0
  3 26  1  0  0  0  0
  3 27  1  0  0  0  0
  3 28  1  0  0  0  0
  4  5  2  0  0  0  0
  4  6  1  0  0  0  0
  6 22  1  0  0  0  0
  6  7  1  0  0  0  0
  7  8  1  0  0  0  0
  7 29  1  0  0  0  0
  7 30  1  0  0  0  0
  8  9  1  0  0  0  0
  8 31  1  0  0  0  0
  8 32  1  0  0  0  0
  9 10  1  0  0  0  0
  9 33  1  0  0  0  0
  9 34  1  0  0  0  0
 10 11  1  0  0  0  0
 10 22  1  0  0  0  0
 10 35  1  0  0  0  0
 11 12  2  0  0  0  0
 11 13  1  0  0  0  0
 13 14  1  0  0  0  0
 13 36  1  0  0  0  0
 14 15  1  0  0  0  0
 14 37  1  0  0  0  0
 14 38  1  0  0  0  0
 15 16  1  0  0  0  0
 15 39  1  0  0  0  0
 15 40  1  0  0  0  0
 16 21  1  0  0  0  0
 16 17  2  0  0  0  0
 17 18  1  0  0  0  0
 17 41  1  0  0  0  0
 18 19  2  0  0  0  0
 18 42  1  0  0  0  0
 19 20  1  0  0  0  0
 19 43  1  0  0  0  0
 20 21  2  0  0  0  0
 20 44  1  0  0  0  0
 22 45  1  0  0  0  0
 22 46  1  0  0  0  0
M  END
> <s_m_source_file>
AV-unprocessed.smi

> <i_m_source_file_index>
1839

> <i_lp_mmshare_version>
43012

> <i_f3d_flags>
0

> <s_epik_input>
W0NIM11OKFtDSDNdKUMoPU8pTjFbQ0gyXVtDSDJdW0NIMl1bQ0BIXShbQ0gyXTEpQyg9TylbTkhdW0NIMl1bQ0gyXWMyW2NIXVtjSF1bY0hdW2NIXW4y

> <s_epik_cmdline>
J2VwaWtfcHl0aG9uJywgJy1waCcsICc3LjAnLCAnLXRuJywgJzgnLCAnLW1hJywgJzIwMCcsICctbWV0YWxfYmluZGluZycsICctaW1hZScsICc8aW5maWxlLm1hZT4nLCAnLW9tYWUnLCAnPG91dGZpbGUubWFlPic=

> <r_epik_Ionization_Penalty>
0.0268631

> <r_epik_Ionization_Penalty_Charging>
0

> <r_epik_Ionization_Penalty_Neutral>
0.0268631

> <r_epik_State_Penalty>
0.0219025

> <r_epik_Charging_Adjusted_Penalty>
0.0219025

> <i_epik_Tot_Q>
0

> <i_epik_Tot_abs_Q>
0

> <r_epik_Metal_State_Penalty>
0.0209511

> <b_epik_Metal_Only>
0

> <s_lp_Force_Field>
OPLS_2005

> <r_lp_Energy>
47.8256

> <b_lp_Chiralities_Consistent>
1

> <s_lp_Variant>
AV-unprocessed.smi:1839-2

> <Gold.Version>
5.8.1

> <Gold.Id.Protein>
6NUR|6NUR_protein|mol2

> <Gold.PLP.Fitness>
37.8614

> <Gold.PLP.PLP>
-31.2650

> <Gold.PLP.part.hbond>
-2.0000

> <Gold.PLP.part.metal>
0.0000

> <Gold.PLP.part.buried>
-2.7618

> <Gold.PLP.part.nonpolar>
-27.7294

> <Gold.PLP.part.repulsive>
0.2108

> <Gold.PLP.ligand.clash>
0.0000

> <Gold.PLP.ligand.torsion>
0.9194

> <Gold.PLP.Chemscore.Hbond>
1.0000

> <Gold.PLP.Chemscore.CHOScore>
1.3718

> <Gold.PLP.Chemscore.Metal>
0.0000

> <Gold.Chemscore.Hbonds>
donor molecule, donor type, donor heavy atom, donor atom, acceptor molecule, acceptor atom, score
      L1  H    13    36       P1  7948  1.00
      L1  C    20    44       P1 10186  0.78
      L1  C    20    44       P1 10952  0.45

> <Gold.PLP.Chemscore.Internal.Correction>
1.3197

> <Gold.Rescore>
     Score         DG    S(hbond)    S(metal)    S(lipo)     H(rot)  DE(clash)    DE(int)     intcor
     12.92     -14.65       0.94        0.00      84.81       1.52       0.09       1.64       ----

> <Gold.Chemscore.Fitness>
12.9239

> <Gold.Chemscore.DG>
-14.6538

> <Gold.Chemscore.ZeroCoef>
-5.4800

> <Gold.Chemscore.Hbond>
0.9372

> <Gold.Chemscore.Metal>
0.0000

> <Gold.Chemscore.Lipo>
84.8135

> <Gold.Chemscore.Internal_Hbond>
0.0000

> <Gold.Chemscore.DEClash>
0.0889

> <Gold.Chemscore.DEInternal>
1.6410

> <Gold.Chemscore.Rot>
1.5155

> <Gold.Chemscore.Internal.Correction>
   9.000000E+99

> <Gold.Chemscore.Hbonds>
donor molecule, donor type, donor heavy atom, donor atom, acceptor molecule, acceptor atom, score
      L1  H    13    36       P1  7948  0.95

> <Gold.Chemscore.Hbond.Weighted>
-3.1302

> <Gold.Chemscore.Metal.Weighted>
-0.0000

> <Gold.Chemscore.Lipo.Weighted>
-9.9232

> <Gold.Chemscore.Internal_Hbond.Weighted>
0.0000

> <Gold.Chemscore.DEClash.Weighted>
0.0889

> <Gold.Chemscore.DEInternal.Weighted>
1.6410

> <Gold.Chemscore.Rot.Weighted>
3.8796

> <Gold.Chemscore.Internal.Correction.Weighted>
   9.000000E+99

> <Gold.Protein.RotatedTorsions>
[ 6907 6896 6895 6894 ] final    2.86 input  -60.11 | X-H torsion
[ 7974 7965 7964 7962 ] final   97.98 input  175.53 | X-H torsion
[ 8008 7997 7996 7995 ] final  -50.71 input   59.86 | X-H torsion
[ 10167 10162 10161 10158 ] final -174.12 input  -65.29 | X-H torsion
[ 10718 10713 10712 10709 ] final  -85.66 input   66.30 | X-H torsion
[ 10763 10752 10751 10750 ] final  150.78 input  -60.55 | X-H torsion
[ 11005 11000 10999 10996 ] final  -24.61 input  -57.11 | X-H torsion

> <Gold.Protein.ActiveResidues>
 VAL166  LYS551  ARG553  GLY616  TRP617  ASP618  TYR619  PRO620  LYS621  CYS622 
 ASP623  PHE694  ASN695  SER759  ASP760  ASP761  ALA762  ILE779  LEU786  VAL792 
 PHE793  MET794  SER795  GLU796  ALA797  LYS798  CYS799  TRP800  GLU811  SER814 

> <Gold.Protein.RotatedAtoms>
  151.6158  135.1036  160.0090 H   0  0  0  0  0  0  0  0  0  0  0  0  # atno 6907 bound_to 6896
  152.4184  133.7072  159.6468 H   0  0  0  0  0  0  0  0  0  0  0  0  # atno 6908 bound_to 6896
  150.8072  133.8415  159.3221 H   0  0  0  0  0  0  0  0  0  0  0  0  # atno 6909 bound_to 6896
  145.4182  139.2325  143.3211 H   0  0  0  0  0  0  0  0  0  0  0  0  # atno 7974 bound_to 7965
  154.4067  140.1265  156.4711 H   0  0  0  0  0  0  0  0  0  0  0  0  # atno 8008 bound_to 7997
  155.7178  140.3493  155.4983 H   0  0  0  0  0  0  0  0  0  0  0  0  # atno 8009 bound_to 7997
  155.9242  140.1058  157.1173 H   0  0  0  0  0  0  0  0  0  0  0  0  # atno 8010 bound_to 7997
  139.5651  144.1776  152.1299 H   0  0  0  0  0  0  0  0  0  0  0  0  # atno 10167 bound_to 10162
  155.9995  130.4738  150.4596 H   0  0  0  0  0  0  0  0  0  0  0  0  # atno 10718 bound_to 10713
  154.0930  135.2851  155.3267 H   0  0  0  0  0  0  0  0  0  0  0  0  # atno 10763 bound_to 10752
  154.6607  135.5335  153.8017 H   0  0  0  0  0  0  0  0  0  0  0  0  # atno 10764 bound_to 10752
  153.0406  135.6533  154.1098 H   0  0  0  0  0  0  0  0  0  0  0  0  # atno 10765 bound_to 10752
  140.8861  133.7620  156.0363 H   0  0  0  0  0  0  0  0  0  0  0  0  # atno 11005 bound_to 11000
  146.2670  140.4903  142.8830 LP  0  0  0  0  0  0  0  0  0  0  0  0  # atno 17320 bound_to 7965
  144.8263  140.6634  143.6320 LP  0  0  0  0  0  0  0  0  0  0  0  0  # atno 17321 bound_to 7965
  140.1297  144.5299  150.6810 LP  0  0  0  0  0  0  0  0  0  0  0  0  # atno 17342 bound_to 10162
  140.6934  143.2389  151.5069 LP  0  0  0  0  0  0  0  0  0  0  0  0  # atno 17343 bound_to 10162
  157.2621  131.0569  151.2314 LP  0  0  0  0  0  0  0  0  0  0  0  0  # atno 17370 bound_to 10713
  157.3424  130.7040  149.6390 LP  0  0  0  0  0  0  0  0  0  0  0  0  # atno 17371 bound_to 10713
  140.8403  134.3075  157.5316 LP  0  0  0  0  0  0  0  0  0  0  0  0  # atno 17394 bound_to 11000
  139.8724  134.9412  156.3790 LP  0  0  0  0  0  0  0  0  0  0  0  0  # atno 17395 bound_to 11000

$$$$
