AV-unprocessed.smi:1643|AV-procd|sdf|6578|dock5
  -GOLD-   22720 7263D 1   1.00000     0.00000
 Structure written by MMmdl.
 55 57  0  0  0  0  0  0  0  0  3 V2000
  149.5414  140.8581  157.3588 C   0  0  0  0  0  0  0  0  0  0  0  0
  149.5396  141.0436  155.8390 C   0  0  0  0  0  0  0  0  0  0  0  0
  150.5955  140.8614  155.2332 O   0  0  0  0  0  0  0  0  0  0  0  0
  148.3870  141.3878  155.2128 N   0  0  0  0  0  0  0  0  0  0  0  0
  147.1667  141.6960  155.9733 C   0  0  0  0  0  0  0  0  0  0  0  0
  146.1740  140.5113  155.9991 C   0  0  0  0  0  0  0  0  0  0  0  0
  146.4553  139.3742  154.9902 C   0  0  0  0  0  0  0  0  0  0  0  0
  146.3588  139.7597  153.5514 N   0  3  2  0  0  0  0  0  0  0  0  0
  146.9153  138.7226  152.6400 C   0  0  0  0  0  0  0  0  0  0  0  0
  145.8536  137.7359  152.1104 C   0  0  2  0  0  0  0  0  0  0  0  0
  144.5850  138.2569  152.4504 O   0  0  0  0  0  0  0  0  0  0  0  0
  146.0111  136.3183  152.7013 C   0  0  0  0  0  0  0  0  0  0  0  0
  145.2558  135.2961  151.9616 N   0  0  0  0  0  0  0  0  0  0  0  0
  144.1744  135.4347  151.1463 C   0  0  0  0  0  0  0  0  0  0  0  0
  143.8443  134.1963  150.6861 N   0  3  0  0  0  0  0  0  0  0  0  0
  144.7270  133.2521  151.2140 C   0  0  0  0  0  0  0  0  0  0  0  0
  144.7949  131.8747  151.0415 C   0  0  0  0  0  0  0  0  0  0  0  0
  145.8211  131.1886  151.7292 C   0  0  0  0  0  0  0  0  0  0  0  0
  145.9199  129.6811  151.5674 C   0  0  0  0  0  0  0  0  0  0  0  0
  146.7396  131.8868  152.5553 C   0  0  0  0  0  0  0  0  0  0  0  0
  147.8373  131.1384  153.2925 C   0  0  0  0  0  0  0  0  0  0  0  0
  146.6554  133.2884  152.7151 C   0  0  0  0  0  0  0  0  0  0  0  0
  145.6366  133.9499  152.0326 C   0  0  0  0  0  0  0  0  0  0  0  0
  146.8412  141.1287  153.2064 C   0  0  0  0  0  0  0  0  0  0  0  0
  148.2503  141.4859  153.7475 C   0  0  0  0  0  0  0  0  0  0  0  0
  148.7209  140.2142  157.6773 H   0  0  0  0  0  0  0  0  0  0  0  0
  149.4549  141.8203  157.8642 H   0  0  0  0  0  0  0  0  0  0  0  0
  150.4718  140.3923  157.6861 H   0  0  0  0  0  0  0  0  0  0  0  0
  147.3890  142.0072  156.9956 H   0  0  0  0  0  0  0  0  0  0  0  0
  146.6925  142.5759  155.5379 H   0  0  0  0  0  0  0  0  0  0  0  0
  146.1966  140.0756  156.9987 H   0  0  0  0  0  0  0  0  0  0  0  0
  145.1575  140.8840  155.8679 H   0  0  0  0  0  0  0  0  0  0  0  0
  147.4337  138.9364  155.1938 H   0  0  0  0  0  0  0  0  0  0  0  0
  145.7353  138.5778  155.1766 H   0  0  0  0  0  0  0  0  0  0  0  0
  147.3882  139.2004  151.7809 H   0  0  0  0  0  0  0  0  0  0  0  0
  147.7095  138.1839  153.1598 H   0  0  0  0  0  0  0  0  0  0  0  0
  145.8874  137.6868  151.0224 H   0  0  0  0  0  0  0  0  0  0  0  0
  144.5716  139.1793  152.2440 H   0  0  0  0  0  0  0  0  0  0  0  0
  147.0589  136.0175  152.6719 H   0  0  0  0  0  0  0  0  0  0  0  0
  145.7178  136.2906  153.7511 H   0  0  0  0  0  0  0  0  0  0  0  0
  143.6701  136.3592  150.9037 H   0  0  0  0  0  0  0  0  0  0  0  0
  144.0923  131.3499  150.4106 H   0  0  0  0  0  0  0  0  0  0  0  0
  146.8757  129.4054  151.1211 H   0  0  0  0  0  0  0  0  0  0  0  0
  145.1282  129.2964  150.9237 H   0  0  0  0  0  0  0  0  0  0  0  0
  145.8327  129.1851  152.5342 H   0  0  0  0  0  0  0  0  0  0  0  0
  148.4783  131.8198  153.8526 H   0  0  0  0  0  0  0  0  0  0  0  0
  148.4675  130.5913  152.5911 H   0  0  0  0  0  0  0  0  0  0  0  0
  147.4072  130.4285  153.9995 H   0  0  0  0  0  0  0  0  0  0  0  0
  147.3527  133.8160  153.3490 H   0  0  0  0  0  0  0  0  0  0  0  0
  146.8361  141.2548  152.1232 H   0  0  0  0  0  0  0  0  0  0  0  0
  146.0993  141.8487  153.5495 H   0  0  0  0  0  0  0  0  0  0  0  0
  148.5047  142.5040  153.4504 H   0  0  0  0  0  0  0  0  0  0  0  0
  148.9616  140.8346  153.2400 H   0  0  0  0  0  0  0  0  0  0  0  0
  145.3707  139.7919  153.3442 H   0  0  0  0  0  0  0  0  0  0  0  0
  143.0739  134.0114  150.0559 H   0  0  0  0  0  0  0  0  0  0  0  0
  1  2  1  0  0  0  0
  1 26  1  0  0  0  0
  1 27  1  0  0  0  0
  1 28  1  0  0  0  0
  2  3  2  0  0  0  0
  2  4  1  0  0  0  0
  4 25  1  0  0  0  0
  4  5  1  0  0  0  0
  5  6  1  0  0  0  0
  5 29  1  0  0  0  0
  5 30  1  0  0  0  0
  6  7  1  0  0  0  0
  6 31  1  0  0  0  0
  6 32  1  0  0  0  0
  7  8  1  0  0  0  0
  7 33  1  0  0  0  0
  7 34  1  0  0  0  0
  8  9  1  0  0  0  0
  8 24  1  0  0  0  0
  8 54  1  0  0  0  0
  9 10  1  0  0  0  0
  9 35  1  0  0  0  0
  9 36  1  0  0  0  0
 10 11  1  0  0  0  0
 10 12  1  0  0  0  0
 10 37  1  0  0  0  0
 11 38  1  0  0  0  0
 12 13  1  0  0  0  0
 12 39  1  0  0  0  0
 12 40  1  0  0  0  0
 13 23  1  0  0  0  0
 13 14  1  0  0  0  0
 14 15  2  0  0  0  0
 14 41  1  0  0  0  0
 15 16  1  0  0  0  0
 15 55  1  0  0  0  0
 16 23  2  0  0  0  0
 16 17  1  0  0  0  0
 17 18  2  0  0  0  0
 17 42  1  0  0  0  0
 18 19  1  0  0  0  0
 18 20  1  0  0  0  0
 19 43  1  0  0  0  0
 19 44  1  0  0  0  0
 19 45  1  0  0  0  0
 20 21  1  0  0  0  0
 20 22  2  0  0  0  0
 21 46  1  0  0  0  0
 21 47  1  0  0  0  0
 21 48  1  0  0  0  0
 22 23  1  0  0  0  0
 22 49  1  0  0  0  0
 24 25  1  0  0  0  0
 24 50  1  0  0  0  0
 24 51  1  0  0  0  0
 25 52  1  0  0  0  0
 25 53  1  0  0  0  0
M  CHG  1   8   1
M  CHG  1  15   1
M  END
> <s_m_source_file>
AV-unprocessed.smi

> <i_m_source_file_index>
1643

> <i_lp_mmshare_version>
43012

> <i_f3d_flags>
0

> <s_epik_input>
W0NIM11DKD1PKU4xW0NIMl1bQ0gyXVtDSDJdTihbQ0gyXVtDSDJdMSlbQ0gyXVtDQEhdKFtPSF0pW0NIMl1uKFtjSF1uMiljKGMyMylbY0hdYyhbQ0gzXSljKFtjSF0zKVtDSDNd

> <s_epik_cmdline>
J2VwaWtfcHl0aG9uJywgJy1waCcsICc3LjAnLCAnLXRuJywgJzgnLCAnLW1hJywgJzIwMCcsICctbWV0YWxfYmluZGluZycsICctaW1hZScsICc8aW5maWxlLm1hZT4nLCAnLW9tYWUnLCAnPG91dGZpbGUubWFlPic=

> <r_epik_Ionization_Penalty>
1.2865

> <r_epik_Ionization_Penalty_Charging>
1.2865

> <r_epik_Ionization_Penalty_Neutral>
2.89706e-06

> <r_epik_State_Penalty>
1.3566

> <r_epik_Charging_Adjusted_Penalty>
2.6431

> <i_epik_Tot_Q>
2

> <i_epik_Tot_abs_Q>
2

> <r_epik_Metal_State_Penalty>
5.37339

> <b_epik_Metal_Only>
0

> <s_lp_Force_Field>
OPLS_2005

> <r_lp_Energy>
60.0404

> <b_lp_Chiralities_Consistent>
1

> <s_lp_Variant>
AV-unprocessed.smi:1643-7

> <Gold.Version>
5.8.1

> <Gold.Id.Protein>
6NUR|6NUR_protein|mol2

> <Gold.PLP.Fitness>
58.1204

> <Gold.PLP.PLP>
-41.4378

> <Gold.PLP.part.hbond>
-4.3476

> <Gold.PLP.part.metal>
0.0000

> <Gold.PLP.part.buried>
-5.0770

> <Gold.PLP.part.nonpolar>
-32.3552

> <Gold.PLP.part.repulsive>
0.0690

> <Gold.PLP.ligand.clash>
0.0000

> <Gold.PLP.ligand.torsion>
1.6987

> <Gold.PLP.Chemscore.Hbond>
5.6640

> <Gold.PLP.Chemscore.CHOScore>
1.0000

> <Gold.PLP.Chemscore.Metal>
0.0000

> <Gold.Chemscore.Hbonds>
donor molecule, donor type, donor heavy atom, donor atom, acceptor molecule, acceptor atom, score
      L1  H     8    54       P1 10175  2.00
      L1  H    11    38       P1 10175  0.80
      L1  H    15    55       P1 10186  1.24
      P1  H  7989  7998       L1     3  0.80
      L1  C    14    41       P1 10171  1.00

> <Gold.PLP.Chemscore.Internal.Correction>
0.0879

> <Gold.Rescore>
     Score         DG    S(hbond)    S(metal)    S(lipo)     H(rot)  DE(clash)    DE(int)     intcor
     21.22     -22.99       3.56        0.00      95.59       2.17       0.05       1.72       ----

> <Gold.Chemscore.Fitness>
21.2244

> <Gold.Chemscore.DG>
-22.9904

> <Gold.Chemscore.ZeroCoef>
-5.4800

> <Gold.Chemscore.Hbond>
3.5609

> <Gold.Chemscore.Metal>
0.0000

> <Gold.Chemscore.Lipo>
95.5852

> <Gold.Chemscore.Internal_Hbond>
0.0000

> <Gold.Chemscore.DEClash>
0.0491

> <Gold.Chemscore.DEInternal>
1.7170

> <Gold.Chemscore.Rot>
2.1744

> <Gold.Chemscore.Internal.Correction>
   9.000000E+99

> <Gold.Chemscore.Hbonds>
donor molecule, donor type, donor heavy atom, donor atom, acceptor molecule, acceptor atom, score
      L1  H     8    54       P1 10175  0.93
      L1  H    11    38       P1 10175  0.77
      L1  H    15    55       P1 10186  0.59
      P1  H  7989  7998       L1     3  0.76

> <Gold.Chemscore.Hbond.Weighted>
-11.8936

> <Gold.Chemscore.Metal.Weighted>
-0.0000

> <Gold.Chemscore.Lipo.Weighted>
-11.1835

> <Gold.Chemscore.Internal_Hbond.Weighted>
0.0000

> <Gold.Chemscore.DEClash.Weighted>
0.0491

> <Gold.Chemscore.DEInternal.Weighted>
1.7170

> <Gold.Chemscore.Rot.Weighted>
5.5666

> <Gold.Chemscore.Internal.Correction.Weighted>
   9.000000E+99

> <Gold.Protein.RotatedTorsions>
[ 6907 6896 6895 6894 ] final  152.35 input  -60.11 | X-H torsion
[ 7974 7965 7964 7962 ] final   16.40 input  175.53 | X-H torsion
[ 8008 7997 7996 7995 ] final   33.83 input   59.86 | X-H torsion
[ 10167 10162 10161 10158 ] final   27.03 input  -65.29 | X-H torsion
[ 10718 10713 10712 10709 ] final   -8.40 input   66.30 | X-H torsion
[ 10763 10752 10751 10750 ] final   57.92 input  -60.55 | X-H torsion
[ 11005 11000 10999 10996 ] final  -42.78 input  -57.11 | X-H torsion

> <Gold.Protein.ActiveResidues>
 VAL166  LYS551  ARG553  GLY616  TRP617  ASP618  TYR619  PRO620  LYS621  CYS622 
 ASP623  PHE694  ASN695  SER759  ASP760  ASP761  ALA762  ILE779  LEU786  VAL792 
 PHE793  MET794  SER795  GLU796  ALA797  LYS798  CYS799  TRP800  GLU811  SER814 

> <Gold.Protein.RotatedAtoms>
  152.0879  133.4185  159.4530 H   0  0  0  0  0  0  0  0  0  0  0  0  # atno 6907 bound_to 6896
  150.6862  134.2906  159.4674 H   0  0  0  0  0  0  0  0  0  0  0  0  # atno 6908 bound_to 6896
  152.0754  134.9506  160.0625 H   0  0  0  0  0  0  0  0  0  0  0  0  # atno 6909 bound_to 6896
  146.2250  139.8753  142.8580 H   0  0  0  0  0  0  0  0  0  0  0  0  # atno 7974 bound_to 7965
  155.1450  140.3269  155.4443 H   0  0  0  0  0  0  0  0  0  0  0  0  # atno 8008 bound_to 7997
  156.2592  140.1987  156.6514 H   0  0  0  0  0  0  0  0  0  0  0  0  # atno 8009 bound_to 7997
  154.6514  140.0558  156.9946 H   0  0  0  0  0  0  0  0  0  0  0  0  # atno 8010 bound_to 7997
  140.4973  144.0372  150.6319 H   0  0  0  0  0  0  0  0  0  0  0  0  # atno 10167 bound_to 10162
  156.7031  130.5099  149.5912 H   0  0  0  0  0  0  0  0  0  0  0  0  # atno 10718 bound_to 10713
  152.9860  135.5625  154.5468 H   0  0  0  0  0  0  0  0  0  0  0  0  # atno 10763 bound_to 10752
  154.4913  135.2793  155.1496 H   0  0  0  0  0  0  0  0  0  0  0  0  # atno 10764 bound_to 10752
  154.2965  135.6316  153.5460 H   0  0  0  0  0  0  0  0  0  0  0  0  # atno 10765 bound_to 10752
  141.0339  133.6808  156.2641 H   0  0  0  0  0  0  0  0  0  0  0  0  # atno 11005 bound_to 11000
  145.2566  141.0063  143.3850 LP  0  0  0  0  0  0  0  0  0  0  0  0  # atno 17320 bound_to 7965
  144.9331  139.4275  143.6485 LP  0  0  0  0  0  0  0  0  0  0  0  0  # atno 17321 bound_to 7965
  140.3658  143.2882  152.0333 LP  0  0  0  0  0  0  0  0  0  0  0  0  # atno 17342 bound_to 10162
  139.4864  144.6268  151.7148 LP  0  0  0  0  0  0  0  0  0  0  0  0  # atno 17343 bound_to 10162
  156.1714  130.6440  151.0842 LP  0  0  0  0  0  0  0  0  0  0  0  0  # atno 17370 bound_to 10713
  157.6965  131.0792  150.6952 LP  0  0  0  0  0  0  0  0  0  0  0  0  # atno 17371 bound_to 10713
  140.6358  134.5217  157.5564 LP  0  0  0  0  0  0  0  0  0  0  0  0  # atno 17394 bound_to 11000
  139.9227  134.8117  156.1163 LP  0  0  0  0  0  0  0  0  0  0  0  0  # atno 17395 bound_to 11000

$$$$
