AV-unprocessed.smi:711|AV-procd|sdf|3467|dock2
  -GOLD-   22720 0453D 1   1.00000     0.00000
 Structure written by MMmdl.
 28 29  0  0  0  0  0  0  0  0  2 V2000
  148.7260  141.1147  153.3739 O   0  0  0  0  0  0  0  0  0  0  0  0
  149.2573  141.1176  154.4833 C   0  0  0  0  0  0  0  0  0  0  0  0
  150.4951  140.5877  154.7086 N   0  5  0  0  0  0  0  0  0  0  0  0
  151.1048  140.5845  155.9343 C   0  0  0  0  0  0  0  0  0  0  0  0
  152.2221  140.0986  156.1100 O   0  0  0  0  0  0  0  0  0  0  0  0
  150.4493  141.1414  156.9955 N   0  0  0  0  0  0  0  0  0  0  0  0
  151.0229  141.1827  158.3483 C   0  0  0  0  0  0  0  0  0  0  0  0
  152.1986  142.1772  158.4505 C   0  0  1  0  0  0  0  0  0  0  0  0
  151.7759  143.4408  157.9760 O   0  0  0  0  0  0  0  0  0  0  0  0
  152.7078  142.2614  159.8843 C   0  0  0  0  0  0  0  0  0  0  0  0
  153.6782  141.3471  160.3532 C   0  0  0  0  0  0  0  0  0  0  0  0
  154.1606  141.4341  161.6734 C   0  0  0  0  0  0  0  0  0  0  0  0
  153.6796  142.4391  162.5335 C   0  0  0  0  0  0  0  0  0  0  0  0
  154.1441  142.5248  163.8025 F   0  0  0  0  0  0  0  0  0  0  0  0
  152.7181  143.3575  162.0716 C   0  0  0  0  0  0  0  0  0  0  0  0
  152.2347  143.2729  160.7512 C   0  0  0  0  0  0  0  0  0  0  0  0
  151.3179  144.1733  160.3215 F   0  0  0  0  0  0  0  0  0  0  0  0
  149.1701  141.6959  156.8187 C   0  0  0  0  0  0  0  0  0  0  0  0
  148.5539  141.7066  155.6209 C   0  0  0  0  0  0  0  0  0  0  0  0
  146.9794  142.3930  155.4343 Cl  0  0  0  0  0  0  0  0  0  0  0  0
  150.2752  141.3783  159.1191 H   0  0  0  0  0  0  0  0  0  0  0  0
  151.3876  140.1784  158.5707 H   0  0  0  0  0  0  0  0  0  0  0  0
  153.0172  141.8517  157.8079 H   0  0  0  0  0  0  0  0  0  0  0  0
  150.8762  143.3710  157.6964 H   0  0  0  0  0  0  0  0  0  0  0  0
  154.0609  140.5765  159.6999 H   0  0  0  0  0  0  0  0  0  0  0  0
  154.9015  140.7312  162.0245 H   0  0  0  0  0  0  0  0  0  0  0  0
  152.3527  144.1310  162.7307 H   0  0  0  0  0  0  0  0  0  0  0  0
  148.7237  142.1048  157.7137 H   0  0  0  0  0  0  0  0  0  0  0  0
  1  2  2  0  0  0  0
  2 19  1  0  0  0  0
  2  3  1  0  0  0  0
  3  4  1  0  0  0  0
  4  5  2  0  0  0  0
  4  6  1  0  0  0  0
  6  7  1  0  0  0  0
  6 18  1  0  0  0  0
  7  8  1  0  0  0  0
  7 21  1  0  0  0  0
  7 22  1  0  0  0  0
  8  9  1  0  0  0  0
  8 10  1  0  0  0  0
  8 23  1  0  0  0  0
  9 24  1  0  0  0  0
 10 16  1  0  0  0  0
 10 11  2  0  0  0  0
 11 12  1  0  0  0  0
 11 25  1  0  0  0  0
 12 13  2  0  0  0  0
 12 26  1  0  0  0  0
 13 14  1  0  0  0  0
 13 15  1  0  0  0  0
 15 16  2  0  0  0  0
 15 27  1  0  0  0  0
 16 17  1  0  0  0  0
 18 19  2  0  0  0  0
 18 28  1  0  0  0  0
 19 20  1  0  0  0  0
M  CHG  1   3  -1
M  END
> <s_m_source_file>
AV-unprocessed.smi

> <i_m_source_file_index>
711

> <i_lp_mmshare_version>
43012

> <i_f3d_flags>
0

> <s_epik_input>
Tz1jMVtuSF1jKD1PKW4oW2NIXWMxQ2wpW0NIMl1bQ0BIXShbT0hdKWMyW2NIXVtjSF1jKEYpW2NIXWMyRg==

> <s_epik_cmdline>
J2VwaWtfcHl0aG9uJywgJy1waCcsICc3LjAnLCAnLXRuJywgJzgnLCAnLW1hJywgJzIwMCcsICctbWV0YWxfYmluZGluZycsICctaW1hZScsICc8aW5maWxlLm1hZT4nLCAnLW9tYWUnLCAnPG91dGZpbGUubWFlPic=

> <r_epik_Ionization_Penalty>
1.7979

> <r_epik_Ionization_Penalty_Charging>
3.23819e-08

> <r_epik_Ionization_Penalty_Neutral>
1.7979

> <r_epik_State_Penalty>
1.91135

> <r_epik_Charging_Adjusted_Penalty>
1.91135

> <i_epik_Tot_Q>
-1

> <i_epik_Tot_abs_Q>
1

> <r_epik_Metal_State_Penalty>
0.014155

> <b_epik_Metal_Only>
0

> <s_lp_Force_Field>
OPLS_2005

> <r_lp_Energy>
21.7913

> <b_lp_Chiralities_Consistent>
1

> <s_lp_Variant>
AV-unprocessed.smi:711-4

> <Gold.Version>
5.8.1

> <Gold.Id.Protein>
6NUR|6NUR_protein|mol2

> <Gold.PLP.Fitness>
51.7301

> <Gold.PLP.PLP>
-44.4543

> <Gold.PLP.part.hbond>
-3.7082

> <Gold.PLP.part.metal>
0.0000

> <Gold.PLP.part.buried>
-2.4459

> <Gold.PLP.part.nonpolar>
-42.4648

> <Gold.PLP.part.repulsive>
5.3972

> <Gold.PLP.ligand.clash>
0.0179

> <Gold.PLP.ligand.torsion>
0.8458

> <Gold.PLP.Chemscore.Hbond>
2.9913

> <Gold.PLP.Chemscore.CHOScore>
0.0000

> <Gold.PLP.Chemscore.Metal>
0.0000

> <Gold.Chemscore.Hbonds>
donor molecule, donor type, donor heavy atom, donor atom, acceptor molecule, acceptor atom, score
      P1  H  7989  7998       L1     3  0.96
      P1  H  7997  8009       L1     5  0.76
      P1  H  8011  8017       L1     1  0.99

> <Gold.PLP.Chemscore.Internal.Correction>
0.0117

> <Gold.Rescore>
     Score         DG    S(hbond)    S(metal)    S(lipo)     H(rot)  DE(clash)    DE(int)     intcor
     12.10     -17.59       2.01        0.00      96.89       2.32       2.86       2.63       ----

> <Gold.Chemscore.Fitness>
12.1018

> <Gold.Chemscore.DG>
-17.5856

> <Gold.Chemscore.ZeroCoef>
-5.4800

> <Gold.Chemscore.Hbond>
2.0059

> <Gold.Chemscore.Metal>
0.0000

> <Gold.Chemscore.Lipo>
96.8874

> <Gold.Chemscore.Internal_Hbond>
0.0000

> <Gold.Chemscore.DEClash>
2.8582

> <Gold.Chemscore.DEInternal>
2.6255

> <Gold.Chemscore.Rot>
2.3164

> <Gold.Chemscore.Internal.Correction>
   9.000000E+99

> <Gold.Chemscore.Hbonds>
donor molecule, donor type, donor heavy atom, donor atom, acceptor molecule, acceptor atom, score
      P1  H  7989  7998       L1     3  0.62
      P1  H  7997  8009       L1     5  0.74
      P1  H  8011  8017       L1     1  0.41

> <Gold.Chemscore.Hbond.Weighted>
-6.6998

> <Gold.Chemscore.Metal.Weighted>
-0.0000

> <Gold.Chemscore.Lipo.Weighted>
-11.3358

> <Gold.Chemscore.Internal_Hbond.Weighted>
0.0000

> <Gold.Chemscore.DEClash.Weighted>
2.8582

> <Gold.Chemscore.DEInternal.Weighted>
2.6255

> <Gold.Chemscore.Rot.Weighted>
5.9301

> <Gold.Chemscore.Internal.Correction.Weighted>
   9.000000E+99

> <Gold.Protein.RotatedTorsions>
[ 6907 6896 6895 6894 ] final   -0.25 input  -60.11 | X-H torsion
[ 7974 7965 7964 7962 ] final  -67.33 input  175.53 | X-H torsion
[ 8008 7997 7996 7995 ] final -165.52 input   59.86 | X-H torsion
[ 10167 10162 10161 10158 ] final  -14.45 input  -65.29 | X-H torsion
[ 10718 10713 10712 10709 ] final -156.92 input   66.30 | X-H torsion
[ 10763 10752 10751 10750 ] final -163.46 input  -60.55 | X-H torsion
[ 11005 11000 10999 10996 ] final -171.22 input  -57.11 | X-H torsion

> <Gold.Protein.ActiveResidues>
 VAL166  LYS551  ARG553  GLY616  TRP617  ASP618  TYR619  PRO620  LYS621  CYS622 
 ASP623  PHE694  ASN695  SER759  ASP760  ASP761  ALA762  ILE779  LEU786  VAL792 
 PHE793  MET794  SER795  GLU796  ALA797  LYS798  CYS799  TRP800  GLU811  SER814 

> <Gold.Protein.RotatedAtoms>
  151.5653  135.1064  159.9982 H   0  0  0  0  0  0  0  0  0  0  0  0  # atno 6907 bound_to 6896
  152.4427  133.7474  159.6685 H   0  0  0  0  0  0  0  0  0  0  0  0  # atno 6908 bound_to 6896
  150.8336  133.7982  159.3112 H   0  0  0  0  0  0  0  0  0  0  0  0  # atno 6909 bound_to 6896
  145.7305  140.8999  143.0582 H   0  0  0  0  0  0  0  0  0  0  0  0  # atno 7974 bound_to 7965
  155.8509  140.0963  157.1675 H   0  0  0  0  0  0  0  0  0  0  0  0  # atno 8008 bound_to 7997
  154.3985  140.1383  156.3905 H   0  0  0  0  0  0  0  0  0  0  0  0  # atno 8009 bound_to 7997
  155.7962  140.3454  155.5379 H   0  0  0  0  0  0  0  0  0  0  0  0  # atno 8010 bound_to 7997
  140.7201  143.5321  150.9508 H   0  0  0  0  0  0  0  0  0  0  0  0  # atno 10167 bound_to 10162
  156.5332  130.8530  151.2723 H   0  0  0  0  0  0  0  0  0  0  0  0  # atno 10718 bound_to 10713
  154.7120  135.3008  154.9182 H   0  0  0  0  0  0  0  0  0  0  0  0  # atno 10763 bound_to 10752
  154.0080  135.6698  153.4767 H   0  0  0  0  0  0  0  0  0  0  0  0  # atno 10764 bound_to 10752
  153.0763  135.5033  154.8325 H   0  0  0  0  0  0  0  0  0  0  0  0  # atno 10765 bound_to 10752
  140.5107  134.5805  157.5018 H   0  0  0  0  0  0  0  0  0  0  0  0  # atno 11005 bound_to 11000
  144.6894  139.9325  143.7472 LP  0  0  0  0  0  0  0  0  0  0  0  0  # atno 17320 bound_to 7965
  146.0541  139.3540  143.0621 LP  0  0  0  0  0  0  0  0  0  0  0  0  # atno 17321 bound_to 7965
  139.9041  143.6800  152.3126 LP  0  0  0  0  0  0  0  0  0  0  0  0  # atno 17342 bound_to 10162
  139.7159  144.7612  151.1034 LP  0  0  0  0  0  0  0  0  0  0  0  0  # atno 17343 bound_to 10162
  157.7418  130.9877  150.2472 LP  0  0  0  0  0  0  0  0  0  0  0  0  # atno 17370 bound_to 10713
  156.3040  130.3762  149.7723 LP  0  0  0  0  0  0  0  0  0  0  0  0  # atno 17371 bound_to 10713
  139.9661  134.7371  156.0136 LP  0  0  0  0  0  0  0  0  0  0  0  0  # atno 17394 bound_to 11000
  141.1387  133.6569  156.3667 LP  0  0  0  0  0  0  0  0  0  0  0  0  # atno 17395 bound_to 11000

$$$$
