AV-unprocessed.smi:266|AV-procd|sdf|2036|dock4
  -GOLD-   2262021243D 1   1.00000     0.00000
 Structure written by MMmdl.
 52 55  0  0  0  0  0  0  0  0  1 V2000
  143.3308  133.0964  148.3048 C   0  0  0  0  0  0  0  0  0  0  0  0
  143.6485  132.6515  149.7413 C   0  0  1  0  0  0  0  0  0  0  0  0
  144.2652  131.3711  149.7312 O   0  0  0  0  0  0  0  0  0  0  0  0
  144.9372  131.2162  150.9671 C   0  0  0  0  0  0  0  0  0  0  0  0
  145.6123  132.5688  151.1455 C   0  0  0  0  0  0  0  0  0  0  0  0
  144.5952  133.5619  150.5695 C   0  0  1  0  0  0  0  0  0  0  0  0
  145.2919  134.4809  149.7451 O   0  0  0  0  0  0  0  0  0  0  0  0
  143.8071  134.3580  151.6430 C   0  0  0  0  0  0  0  0  0  0  0  0
  144.5959  135.3503  152.3602 N   0  0  0  0  0  0  0  0  0  0  0  0
  144.4111  136.7140  152.3455 C   0  0  0  0  0  0  0  0  0  0  0  0
  145.2547  137.3976  153.0680 N   0  0  0  0  0  0  0  0  0  0  0  0
  146.1034  136.4375  153.6077 C   0  0  0  0  0  0  0  0  0  0  0  0
  147.2384  136.4744  154.4711 C   0  0  0  0  0  0  0  0  0  0  0  0
  147.7933  137.5939  154.9979 N   0  0  0  0  0  0  0  0  0  0  0  0
  147.7987  138.7189  154.0717 C   0  0  0  0  0  0  0  0  0  0  0  0
  148.9195  137.4769  155.9239 C   0  0  0  0  0  0  0  0  0  0  0  0
  150.2704  137.1639  155.2355 C   0  0  1  0  0  0  0  0  0  0  0  0
  150.7624  138.3800  154.4244 C   0  0  0  0  0  0  0  0  0  0  0  0
  151.3922  139.4077  155.3757 C   0  0  0  0  0  0  0  0  0  0  0  0
  152.0776  138.4444  156.7767 S   0  0  0  0  0  0  0  0  0  0  0  0
  153.5437  138.3920  156.6743 O   0  0  0  0  0  0  0  0  0  0  0  0
  151.4200  138.8784  158.0187 O   0  0  0  0  0  0  0  0  0  0  0  0
  151.3797  136.8350  156.2494 C   0  0  0  0  0  0  0  0  0  0  0  0
  147.8106  135.2901  154.8066 N   0  0  0  0  0  0  0  0  0  0  0  0
  147.3284  134.1449  154.3168 C   0  0  0  0  0  0  0  0  0  0  0  0
  146.2939  133.9597  153.4952 N   0  0  0  0  0  0  0  0  0  0  0  0
  145.7004  135.1432  153.1694 C   0  0  0  0  0  0  0  0  0  0  0  0
  142.8677  134.0833  148.2929 H   0  0  0  0  0  0  0  0  0  0  0  0
  142.6393  132.4002  147.8299 H   0  0  0  0  0  0  0  0  0  0  0  0
  144.2298  133.1359  147.6890 H   0  0  0  0  0  0  0  0  0  0  0  0
  142.7049  132.5309  150.2762 H   0  0  0  0  0  0  0  0  0  0  0  0
  144.2141  131.0284  151.7624 H   0  0  0  0  0  0  0  0  0  0  0  0
  145.6472  130.3893  150.9393 H   0  0  0  0  0  0  0  0  0  0  0  0
  145.8924  132.7545  152.1811 H   0  0  0  0  0  0  0  0  0  0  0  0
  146.5328  132.5734  150.5588 H   0  0  0  0  0  0  0  0  0  0  0  0
  145.5874  134.0270  148.9707 H   0  0  0  0  0  0  0  0  0  0  0  0
  142.9594  134.8674  151.1822 H   0  0  0  0  0  0  0  0  0  0  0  0
  143.3843  133.6728  152.3792 H   0  0  0  0  0  0  0  0  0  0  0  0
  143.6215  137.1901  151.7821 H   0  0  0  0  0  0  0  0  0  0  0  0
  146.7816  139.0485  153.8572 H   0  0  0  0  0  0  0  0  0  0  0  0
  148.2779  138.4440  153.1312 H   0  0  0  0  0  0  0  0  0  0  0  0
  148.3392  139.5682  154.4902 H   0  0  0  0  0  0  0  0  0  0  0  0
  148.9942  138.3894  156.5147 H   0  0  0  0  0  0  0  0  0  0  0  0
  148.6920  136.6864  156.6395 H   0  0  0  0  0  0  0  0  0  0  0  0
  150.1444  136.3226  154.5545 H   0  0  0  0  0  0  0  0  0  0  0  0
  151.5281  138.0410  153.7255 H   0  0  0  0  0  0  0  0  0  0  0  0
  149.9677  138.8221  153.8222 H   0  0  0  0  0  0  0  0  0  0  0  0
  152.1787  139.9955  154.9027 H   0  0  0  0  0  0  0  0  0  0  0  0
  150.6380  140.0885  155.7705 H   0  0  0  0  0  0  0  0  0  0  0  0
  151.0381  136.2685  157.1160 H   0  0  0  0  0  0  0  0  0  0  0  0
  152.1778  136.2699  155.7675 H   0  0  0  0  0  0  0  0  0  0  0  0
  147.8451  133.2490  154.6281 H   0  0  0  0  0  0  0  0  0  0  0  0
  1  2  1  0  0  0  0
  1 28  1  0  0  0  0
  1 29  1  0  0  0  0
  1 30  1  0  0  0  0
  2  6  1  0  0  0  0
  2  3  1  0  0  0  0
  2 31  1  0  0  0  0
  3  4  1  0  0  0  0
  4  5  1  0  0  0  0
  4 32  1  0  0  0  0
  4 33  1  0  0  0  0
  5  6  1  0  0  0  0
  5 34  1  0  0  0  0
  5 35  1  0  0  0  0
  6  7  1  0  0  0  0
  6  8  1  0  0  0  0
  7 36  1  0  0  0  0
  8  9  1  0  0  0  0
  8 37  1  0  0  0  0
  8 38  1  0  0  0  0
  9 27  1  0  0  0  0
  9 10  1  0  0  0  0
 10 11  2  0  0  0  0
 10 39  1  0  0  0  0
 11 12  1  0  0  0  0
 12 27  2  0  0  0  0
 12 13  1  0  0  0  0
 13 14  1  0  0  0  0
 13 24  2  0  0  0  0
 14 15  1  0  0  0  0
 14 16  1  0  0  0  0
 15 40  1  0  0  0  0
 15 41  1  0  0  0  0
 15 42  1  0  0  0  0
 16 17  1  0  0  0  0
 16 43  1  0  0  0  0
 16 44  1  0  0  0  0
 17 23  1  0  0  0  0
 17 18  1  0  0  0  0
 17 45  1  0  0  0  0
 18 19  1  0  0  0  0
 18 46  1  0  0  0  0
 18 47  1  0  0  0  0
 19 20  1  0  0  0  0
 19 48  1  0  0  0  0
 19 49  1  0  0  0  0
 20 21  2  0  0  0  0
 20 22  2  0  0  0  0
 20 23  1  0  0  0  0
 23 50  1  0  0  0  0
 23 51  1  0  0  0  0
 24 25  1  0  0  0  0
 25 26  2  0  0  0  0
 25 52  1  0  0  0  0
 26 27  1  0  0  0  0
M  END
> <s_m_source_file>
AV-unprocessed.smi

> <i_m_source_file_index>
266

> <i_lp_mmshare_version>
43012

> <i_f3d_flags>
0

> <s_epik_input>
W0NIMl0xW0NIMl1PW0NAQEhdKFtDSDNdKVtDQEBdMShbT0hdKVtDSDJdbihbY0hdbjIpYyhjMjMpbltjSF1uYzNOKFtDSDNdKVtDSDJdW0NAQEhdKFtDSDJdNClbQ0gyXVtDSDJdUzQoPU8pPU8=

> <s_epik_cmdline>
J2VwaWtfcHl0aG9uJywgJy1waCcsICc3LjAnLCAnLXRuJywgJzgnLCAnLW1hJywgJzIwMCcsICctbWV0YWxfYmluZGluZycsICctaW1hZScsICc8aW5maWxlLm1hZT4nLCAnLW9tYWUnLCAnPG91dGZpbGUubWFlPic=

> <r_lp_tautomer_probability>
1

> <r_epik_Ionization_Penalty>
0.00155497

> <r_epik_Ionization_Penalty_Charging>
0

> <r_epik_Ionization_Penalty_Neutral>
0.00155497

> <r_epik_State_Penalty>
-0

> <r_epik_Charging_Adjusted_Penalty>
0

> <i_epik_Tot_Q>
0

> <i_epik_Tot_abs_Q>
0

> <r_epik_Metal_State_Penalty>
-0

> <b_epik_Metal_Only>
0

> <s_lp_Force_Field>
OPLS_2005

> <r_lp_Energy>
31.7584

> <b_lp_Chiralities_Consistent>
1

> <s_lp_Variant>
AV-unprocessed.smi:266-6

> <Gold.Version>
5.8.1

> <Gold.Id.Protein>
6NUR|6NUR_protein|mol2

> <Gold.PLP.Fitness>
41.3006

> <Gold.PLP.PLP>
-33.6167

> <Gold.PLP.part.hbond>
-2.7357

> <Gold.PLP.part.metal>
0.0000

> <Gold.PLP.part.buried>
-1.6875

> <Gold.PLP.part.nonpolar>
-29.5187

> <Gold.PLP.part.repulsive>
0.4925

> <Gold.PLP.ligand.clash>
0.0000

> <Gold.PLP.ligand.torsion>
0.5367

> <Gold.PLP.Chemscore.Hbond>
1.7280

> <Gold.PLP.Chemscore.CHOScore>
0.9946

> <Gold.PLP.Chemscore.Metal>
0.0000

> <Gold.Chemscore.Hbonds>
donor molecule, donor type, donor heavy atom, donor atom, acceptor molecule, acceptor atom, score
      L1  H     7    36       P1  7921  0.46
      P1  H  7997  8010       L1    21  0.83
      P1  H 10785 10796       L1     3  0.51
      L1  C    10    39       P1 10171  0.96

> <Gold.PLP.Chemscore.Internal.Correction>
0.5894

> <Gold.Rescore>
     Score         DG    S(hbond)    S(metal)    S(lipo)     H(rot)  DE(clash)    DE(int)     intcor
     13.56     -16.32       2.23        0.00      82.45       2.45       1.58       1.18       ----

> <Gold.Chemscore.Fitness>
13.5580

> <Gold.Chemscore.DG>
-16.3166

> <Gold.Chemscore.ZeroCoef>
-5.4800

> <Gold.Chemscore.Hbond>
2.2320

> <Gold.Chemscore.Metal>
0.0000

> <Gold.Chemscore.Lipo>
82.4469

> <Gold.Chemscore.Internal_Hbond>
0.0000

> <Gold.Chemscore.DEClash>
1.5770

> <Gold.Chemscore.DEInternal>
1.1816

> <Gold.Chemscore.Rot>
2.4471

> <Gold.Chemscore.Internal.Correction>
   9.000000E+99

> <Gold.Chemscore.Hbonds>
donor molecule, donor type, donor heavy atom, donor atom, acceptor molecule, acceptor atom, score
      L1  H     7    36       P1  7921  0.30
      P1  H  7997  8010       L1    21  0.77
      P1  H 10785 10796       L1     3  0.41

> <Gold.Chemscore.Hbond.Weighted>
-7.4548

> <Gold.Chemscore.Metal.Weighted>
-0.0000

> <Gold.Chemscore.Lipo.Weighted>
-9.6463

> <Gold.Chemscore.Internal_Hbond.Weighted>
0.0000

> <Gold.Chemscore.DEClash.Weighted>
1.5770

> <Gold.Chemscore.DEInternal.Weighted>
1.1816

> <Gold.Chemscore.Rot.Weighted>
6.2645

> <Gold.Chemscore.Internal.Correction.Weighted>
   9.000000E+99

> <Gold.Protein.RotatedTorsions>
[ 6907 6896 6895 6894 ] final   63.66 input  -60.11 | X-H torsion
[ 7974 7965 7964 7962 ] final   83.29 input  175.53 | X-H torsion
[ 8008 7997 7996 7995 ] final   59.39 input   59.86 | X-H torsion
[ 10167 10162 10161 10158 ] final   60.37 input  -65.29 | X-H torsion
[ 10718 10713 10712 10709 ] final  -78.63 input   66.30 | X-H torsion
[ 10763 10752 10751 10750 ] final  -42.89 input  -60.55 | X-H torsion
[ 11005 11000 10999 10996 ] final  -67.94 input  -57.11 | X-H torsion

> <Gold.Protein.ActiveResidues>
 VAL166  LYS551  ARG553  GLY616  TRP617  ASP618  TYR619  PRO620  LYS621  CYS622 
 ASP623  PHE694  ASN695  SER759  ASP760  ASP761  ALA762  ILE779  LEU786  VAL792 
 PHE793  MET794  SER795  GLU796  ALA797  LYS798  CYS799  TRP800  GLU811  SER814 

> <Gold.Protein.RotatedAtoms>
  152.4271  134.5848  159.9957 H   0  0  0  0  0  0  0  0  0  0  0  0  # atno 6907 bound_to 6896
  151.5982  133.3353  159.3049 H   0  0  0  0  0  0  0  0  0  0  0  0  # atno 6908 bound_to 6896
  150.8161  134.7380  159.6796 H   0  0  0  0  0  0  0  0  0  0  0  0  # atno 6909 bound_to 6896
  145.6139  139.2373  143.2176 H   0  0  0  0  0  0  0  0  0  0  0  0  # atno 7974 bound_to 7965
  155.5655  140.3489  155.4502 H   0  0  0  0  0  0  0  0  0  0  0  0  # atno 8008 bound_to 7997
  156.0483  140.1312  157.0104 H   0  0  0  0  0  0  0  0  0  0  0  0  # atno 8009 bound_to 7997
  154.4422  140.1010  156.6324 H   0  0  0  0  0  0  0  0  0  0  0  0  # atno 8010 bound_to 7997
  140.1663  144.4321  150.6684 H   0  0  0  0  0  0  0  0  0  0  0  0  # atno 10167 bound_to 10162
  156.0113  130.4523  150.3525 H   0  0  0  0  0  0  0  0  0  0  0  0  # atno 10718 bound_to 10713
  153.9865  135.6710  153.4752 H   0  0  0  0  0  0  0  0  0  0  0  0  # atno 10763 bound_to 10752
  153.0724  135.4967  154.8330 H   0  0  0  0  0  0  0  0  0  0  0  0  # atno 10764 bound_to 10752
  154.7134  135.3102  154.9124 H   0  0  0  0  0  0  0  0  0  0  0  0  # atno 10765 bound_to 10752
  141.1520  133.6730  156.6370 H   0  0  0  0  0  0  0  0  0  0  0  0  # atno 11005 bound_to 11000
  146.1483  140.6961  142.9334 LP  0  0  0  0  0  0  0  0  0  0  0  0  # atno 17320 bound_to 7965
  144.7258  140.4521  143.6974 LP  0  0  0  0  0  0  0  0  0  0  0  0  # atno 17321 bound_to 7965
  140.6611  143.2252  151.5854 LP  0  0  0  0  0  0  0  0  0  0  0  0  # atno 17342 bound_to 10162
  139.5358  144.2785  152.1248 LP  0  0  0  0  0  0  0  0  0  0  0  0  # atno 17343 bound_to 10162
  157.1617  131.0346  151.2838 LP  0  0  0  0  0  0  0  0  0  0  0  0  # atno 17370 bound_to 10713
  157.4305  130.7488  149.6986 LP  0  0  0  0  0  0  0  0  0  0  0  0  # atno 17371 bound_to 10713
  140.3423  134.7839  157.4406 LP  0  0  0  0  0  0  0  0  0  0  0  0  # atno 17394 bound_to 11000
  140.0928  134.5578  155.8427 LP  0  0  0  0  0  0  0  0  0  0  0  0  # atno 17395 bound_to 11000

$$$$
