AV-unprocessed.smi:2191|AV-procd|sdf|8893|dock3
  -GOLD-   2272012103D 1   1.00000     0.00000
 Structure written by MMmdl.
 36 38  0  0  0  0  0  0  0  0  1 V2000
  151.0295  139.9599  154.6311 O   0  0  0  0  0  0  0  0  0  0  0  0
  150.3184  140.7715  155.5456 C   0  0  1  0  0  0  0  0  0  0  0  0
  148.8324  140.3862  155.4790 C   0  0  0  0  0  0  0  0  0  0  0  0
  148.2225  141.0939  154.4079 O   0  0  0  0  0  0  0  0  0  0  0  0
  147.2070  141.9785  154.7026 C   0  0  0  0  0  0  0  0  0  0  0  0
  146.6200  142.6617  153.6174 C   0  0  0  0  0  0  0  0  0  0  0  0
  145.5775  143.5854  153.8252 C   0  0  0  0  0  0  0  0  0  0  0  0
  145.1091  143.8356  155.1281 C   0  0  0  0  0  0  0  0  0  0  0  0
  145.6843  143.1599  156.2204 C   0  0  0  0  0  0  0  0  0  0  0  0
  146.7278  142.2367  156.0124 C   0  0  0  0  0  0  0  0  0  0  0  0
  150.9009  140.5689  156.9581 C   0  0  0  0  0  0  0  0  0  0  0  0
  151.2098  141.8234  157.6218 N   0  0  0  0  0  0  0  0  0  0  0  0
  150.9853  143.0651  157.1507 C   0  0  0  0  0  0  0  0  0  0  0  0
  151.3434  144.0853  157.9252 N   0  0  0  0  0  0  0  0  0  0  0  0
  151.8603  143.4294  159.0293 C   0  0  0  0  0  0  0  0  0  0  0  0
  152.4137  143.9424  160.2244 C   0  0  0  0  0  0  0  0  0  0  0  0
  152.8812  143.0685  161.2281 C   0  0  0  0  0  0  0  0  0  0  0  0
  152.8052  141.6714  161.0522 C   0  0  0  0  0  0  0  0  0  0  0  0
  152.2597  141.1369  159.8691 C   0  0  0  0  0  0  0  0  0  0  0  0
  151.7913  142.0121  158.8713 C   0  0  0  0  0  0  0  0  0  0  0  0
  151.0415  139.0754  154.9640 H   0  0  0  0  0  0  0  0  0  0  0  0
  150.4400  141.8172  155.2598 H   0  0  0  0  0  0  0  0  0  0  0  0
  148.7189  139.3061  155.3673 H   0  0  0  0  0  0  0  0  0  0  0  0
  148.3406  140.6795  156.4081 H   0  0  0  0  0  0  0  0  0  0  0  0
  146.9737  142.4755  152.6138 H   0  0  0  0  0  0  0  0  0  0  0  0
  145.1378  144.1013  152.9846 H   0  0  0  0  0  0  0  0  0  0  0  0
  144.3100  144.5440  155.2895 H   0  0  0  0  0  0  0  0  0  0  0  0
  145.3249  143.3503  157.2209 H   0  0  0  0  0  0  0  0  0  0  0  0
  147.1438  141.7396  156.8754 H   0  0  0  0  0  0  0  0  0  0  0  0
  150.1930  140.0217  157.5823 H   0  0  0  0  0  0  0  0  0  0  0  0
  151.8070  139.9635  156.9134 H   0  0  0  0  0  0  0  0  0  0  0  0
  150.5334  143.2287  156.1833 H   0  0  0  0  0  0  0  0  0  0  0  0
  152.4775  145.0107  160.3697 H   0  0  0  0  0  0  0  0  0  0  0  0
  153.3006  143.4726  162.1377 H   0  0  0  0  0  0  0  0  0  0  0  0
  153.1670  141.0097  161.8256 H   0  0  0  0  0  0  0  0  0  0  0  0
  152.2029  140.0677  159.7297 H   0  0  0  0  0  0  0  0  0  0  0  0
  1  2  1  0  0  0  0
  1 21  1  0  0  0  0
  2  3  1  0  0  0  0
  2 11  1  0  0  0  0
  2 22  1  0  0  0  0
  3  4  1  0  0  0  0
  3 23  1  0  0  0  0
  3 24  1  0  0  0  0
  4  5  1  0  0  0  0
  5 10  1  0  0  0  0
  5  6  2  0  0  0  0
  6  7  1  0  0  0  0
  6 25  1  0  0  0  0
  7  8  2  0  0  0  0
  7 26  1  0  0  0  0
  8  9  1  0  0  0  0
  8 27  1  0  0  0  0
  9 10  2  0  0  0  0
  9 28  1  0  0  0  0
 10 29  1  0  0  0  0
 11 12  1  0  0  0  0
 11 30  1  0  0  0  0
 11 31  1  0  0  0  0
 12 20  1  0  0  0  0
 12 13  1  0  0  0  0
 13 14  2  0  0  0  0
 13 32  1  0  0  0  0
 14 15  1  0  0  0  0
 15 20  2  0  0  0  0
 15 16  1  0  0  0  0
 16 17  2  0  0  0  0
 16 33  1  0  0  0  0
 17 18  1  0  0  0  0
 17 34  1  0  0  0  0
 18 19  2  0  0  0  0
 18 35  1  0  0  0  0
 19 20  1  0  0  0  0
 19 36  1  0  0  0  0
M  END
> <s_m_source_file>
AV-unprocessed.smi

> <i_m_source_file_index>
2191

> <i_lp_mmshare_version>
43012

> <i_f3d_flags>
0

> <s_epik_input>
W2NIXTFbY0hdW2NIXVtjSF1jKGMxMiluKFtjSF1uMilbQ0gyXVtDQEhdKFtPSF0pW0NIMl1PYzNbY0hdW2NIXVtjSF1bY0hdW2NIXTM=

> <s_epik_cmdline>
J2VwaWtfcHl0aG9uJywgJy1waCcsICc3LjAnLCAnLXRuJywgJzgnLCAnLW1hJywgJzIwMCcsICctbWV0YWxfYmluZGluZycsICctaW1hZScsICc8aW5maWxlLm1hZT4nLCAnLW9tYWUnLCAnPG91dGZpbGUubWFlPic=

> <r_lp_tautomer_probability>
1

> <r_epik_Ionization_Penalty>
0.0640132

> <r_epik_Ionization_Penalty_Charging>
0

> <r_epik_Ionization_Penalty_Neutral>
0.0640132

> <r_epik_State_Penalty>
0.0557325

> <r_epik_Charging_Adjusted_Penalty>
0.0557325

> <i_epik_Tot_Q>
0

> <i_epik_Tot_abs_Q>
0

> <r_epik_Metal_State_Penalty>
5.8435e-05

> <b_epik_Metal_Only>
0

> <s_lp_Force_Field>
OPLS_2005

> <r_lp_Energy>
16.2786

> <b_lp_Chiralities_Consistent>
1

> <s_lp_Variant>
AV-unprocessed.smi:2191-2

> <Gold.Version>
5.8.1

> <Gold.Id.Protein>
6NUR|6NUR_protein|mol2

> <Gold.PLP.Fitness>
45.9717

> <Gold.PLP.PLP>
-42.6518

> <Gold.PLP.part.hbond>
-1.0000

> <Gold.PLP.part.metal>
0.0000

> <Gold.PLP.part.buried>
-6.8719

> <Gold.PLP.part.nonpolar>
-35.3551

> <Gold.PLP.part.repulsive>
0.2607

> <Gold.PLP.ligand.clash>
0.0000

> <Gold.PLP.ligand.torsion>
1.3551

> <Gold.PLP.Chemscore.Hbond>
1.0000

> <Gold.PLP.Chemscore.CHOScore>
0.9855

> <Gold.PLP.Chemscore.Metal>
0.0000

> <Gold.Chemscore.Hbonds>
donor molecule, donor type, donor heavy atom, donor atom, acceptor molecule, acceptor atom, score
      P1  H  7989  7998       L1     1  1.00
      L1  C    13    32       P1  8028  0.94

> <Gold.PLP.Chemscore.Internal.Correction>
0.0737

> <Gold.Rescore>
     Score         DG    S(hbond)    S(metal)    S(lipo)     H(rot)  DE(clash)    DE(int)     intcor
     14.15     -15.51       0.95        0.00     107.10       2.22       0.02       1.34       ----

> <Gold.Chemscore.Fitness>
14.1545

> <Gold.Chemscore.DG>
-15.5145

> <Gold.Chemscore.ZeroCoef>
-5.4800

> <Gold.Chemscore.Hbond>
0.9541

> <Gold.Chemscore.Metal>
0.0000

> <Gold.Chemscore.Lipo>
107.1044

> <Gold.Chemscore.Internal_Hbond>
0.0000

> <Gold.Chemscore.DEClash>
0.0174

> <Gold.Chemscore.DEInternal>
1.3426

> <Gold.Chemscore.Rot>
2.2200

> <Gold.Chemscore.Internal.Correction>
   9.000000E+99

> <Gold.Chemscore.Hbonds>
donor molecule, donor type, donor heavy atom, donor atom, acceptor molecule, acceptor atom, score
      P1  H  7989  7998       L1     1  0.68

> <Gold.Chemscore.Hbond.Weighted>
-3.1865

> <Gold.Chemscore.Metal.Weighted>
-0.0000

> <Gold.Chemscore.Lipo.Weighted>
-12.5312

> <Gold.Chemscore.Internal_Hbond.Weighted>
0.0000

> <Gold.Chemscore.DEClash.Weighted>
0.0174

> <Gold.Chemscore.DEInternal.Weighted>
1.3426

> <Gold.Chemscore.Rot.Weighted>
5.6832

> <Gold.Chemscore.Internal.Correction.Weighted>
   9.000000E+99

> <Gold.Protein.RotatedTorsions>
[ 6907 6896 6895 6894 ] final   95.74 input  -60.11 | X-H torsion
[ 7974 7965 7964 7962 ] final   70.10 input  175.53 | X-H torsion
[ 8008 7997 7996 7995 ] final  127.65 input   59.86 | X-H torsion
[ 10167 10162 10161 10158 ] final -114.74 input  -65.29 | X-H torsion
[ 10718 10713 10712 10709 ] final  -57.76 input   66.30 | X-H torsion
[ 10763 10752 10751 10750 ] final   26.17 input  -60.55 | X-H torsion
[ 11005 11000 10999 10996 ] final  -23.45 input  -57.11 | X-H torsion

> <Gold.Protein.ActiveResidues>
 VAL166  LYS551  ARG553  GLY616  TRP617  ASP618  TYR619  PRO620  LYS621  CYS622 
 ASP623  PHE694  ASN695  SER759  ASP760  ASP761  ALA762  ILE779  LEU786  VAL792 
 PHE793  MET794  SER795  GLU796  ALA797  LYS798  CYS799  TRP800  GLU811  SER814 

> <Gold.Protein.RotatedAtoms>
  152.5441  134.0993  159.8310 H   0  0  0  0  0  0  0  0  0  0  0  0  # atno 6907 bound_to 6896
  151.1072  133.5192  159.2614 H   0  0  0  0  0  0  0  0  0  0  0  0  # atno 6908 bound_to 6896
  151.1924  135.0417  159.8892 H   0  0  0  0  0  0  0  0  0  0  0  0  # atno 6909 bound_to 6896
  145.7823  139.2893  143.1259 H   0  0  0  0  0  0  0  0  0  0  0  0  # atno 7974 bound_to 7965
  156.2896  140.2663  156.2308 H   0  0  0  0  0  0  0  0  0  0  0  0  # atno 8008 bound_to 7997
  155.0074  140.0387  157.2403 H   0  0  0  0  0  0  0  0  0  0  0  0  # atno 8009 bound_to 7997
  154.7548  140.2749  155.6268 H   0  0  0  0  0  0  0  0  0  0  0  0  # atno 8010 bound_to 7997
  140.0976  143.4642  152.1832 H   0  0  0  0  0  0  0  0  0  0  0  0  # atno 10167 bound_to 10162
  156.1186  130.4168  150.0484 H   0  0  0  0  0  0  0  0  0  0  0  0  # atno 10718 bound_to 10713
  153.0641  135.6566  154.0396 H   0  0  0  0  0  0  0  0  0  0  0  0  # atno 10763 bound_to 10752
  154.0057  135.2933  155.3399 H   0  0  0  0  0  0  0  0  0  0  0  0  # atno 10764 bound_to 10752
  154.6991  135.5252  153.8569 H   0  0  0  0  0  0  0  0  0  0  0  0  # atno 10765 bound_to 10752
  140.8753  133.7692  156.0235 H   0  0  0  0  0  0  0  0  0  0  0  0  # atno 11005 bound_to 11000
  146.0062  140.8476  142.9994 LP  0  0  0  0  0  0  0  0  0  0  0  0  # atno 17320 bound_to 7965
  144.6794  140.2423  143.7342 LP  0  0  0  0  0  0  0  0  0  0  0  0  # atno 17321 bound_to 7965
  139.5689  144.7451  151.3945 LP  0  0  0  0  0  0  0  0  0  0  0  0  # atno 17342 bound_to 10162
  140.6995  143.7667  150.7380 LP  0  0  0  0  0  0  0  0  0  0  0  0  # atno 17343 bound_to 10162
  156.8429  130.9432  151.3631 LP  0  0  0  0  0  0  0  0  0  0  0  0  # atno 17370 bound_to 10713
  157.6370  130.8774  149.9377 LP  0  0  0  0  0  0  0  0  0  0  0  0  # atno 17371 bound_to 10713
  140.8526  134.2936  157.5269 LP  0  0  0  0  0  0  0  0  0  0  0  0  # atno 17394 bound_to 11000
  139.8715  134.9476  156.3971 LP  0  0  0  0  0  0  0  0  0  0  0  0  # atno 17395 bound_to 11000

$$$$
