AV-unprocessed.smi:754|AV-procd|sdf|3607|dock7
  -GOLD-   22720 1 03D 1   1.00000     0.00000
 Structure written by MMmdl.
 37 38  0  0  0  0  0  0  0  0  1 V2000
  153.3867  143.5683  163.7402 C   0  0  0  0  0  0  0  0  0  0  0  0
  153.1600  142.8090  162.4311 C   0  0  0  0  0  0  0  0  0  0  0  0
  152.3209  143.5830  161.5904 O   0  0  0  0  0  0  0  0  0  0  0  0
  151.9260  142.8901  160.4164 C   0  0  2  0  0  0  0  0  0  0  0  0
  153.0833  142.2944  159.6099 C   0  0  0  0  0  0  0  0  0  0  0  0
  152.3670  142.7871  158.3482 C   0  0  1  0  0  0  0  0  0  0  0  0
  151.5114  141.7395  157.7900 N   0  0  0  0  0  0  0  0  0  0  0  0
  151.8479  140.4432  157.7104 C   0  0  0  0  0  0  0  0  0  0  0  0
  152.9338  140.0007  158.0833 O   0  0  0  0  0  0  0  0  0  0  0  0
  150.8019  139.5009  157.1146 C   0  0  0  0  0  0  0  0  0  0  0  0
  150.0548  140.1544  156.0567 N   0  0  0  0  0  0  0  0  0  0  0  0
  148.9892  140.9570  156.1022 C   0  0  0  0  0  0  0  0  0  0  0  0
  148.6078  141.3329  154.8911 N   0  0  0  0  0  0  0  0  0  0  0  0
  149.5214  140.7013  154.0637 N   0  0  0  0  0  0  0  0  0  0  0  0
  150.3819  140.0000  154.7496 N   0  0  0  0  0  0  0  0  0  0  0  0
  151.6125  143.8276  159.2254 C   0  0  0  0  0  0  0  0  0  0  0  0
  150.1256  144.0744  158.9442 C   0  0  0  0  0  0  0  0  0  0  0  0
  152.2825  145.2078  159.2656 C   0  0  0  0  0  0  0  0  0  0  0  0
  154.0292  143.0008  164.4136 H   0  0  0  0  0  0  0  0  0  0  0  0
  152.4430  143.7528  164.2540 H   0  0  0  0  0  0  0  0  0  0  0  0
  153.8632  144.5314  163.5562 H   0  0  0  0  0  0  0  0  0  0  0  0
  154.1169  142.6196  161.9432 H   0  0  0  0  0  0  0  0  0  0  0  0
  152.6965  141.8430  162.6362 H   0  0  0  0  0  0  0  0  0  0  0  0
  151.1248  142.1694  160.5944 H   0  0  0  0  0  0  0  0  0  0  0  0
  154.0317  142.8050  159.7842 H   0  0  0  0  0  0  0  0  0  0  0  0
  153.1902  141.2125  159.6977 H   0  0  0  0  0  0  0  0  0  0  0  0
  153.0526  143.2331  157.6252 H   0  0  0  0  0  0  0  0  0  0  0  0
  150.6017  142.0208  157.4541 H   0  0  0  0  0  0  0  0  0  0  0  0
  151.2852  138.6109  156.7093 H   0  0  0  0  0  0  0  0  0  0  0  0
  150.1115  139.1677  157.8910 H   0  0  0  0  0  0  0  0  0  0  0  0
  148.4956  141.2590  157.0140 H   0  0  0  0  0  0  0  0  0  0  0  0
  149.9731  144.5032  157.9532 H   0  0  0  0  0  0  0  0  0  0  0  0
  149.6897  144.7605  159.6709 H   0  0  0  0  0  0  0  0  0  0  0  0
  149.5419  143.1549  158.9935 H   0  0  0  0  0  0  0  0  0  0  0  0
  152.1703  145.7318  158.3159 H   0  0  0  0  0  0  0  0  0  0  0  0
  153.3518  145.1362  159.4661 H   0  0  0  0  0  0  0  0  0  0  0  0
  151.8534  145.8414  160.0424 H   0  0  0  0  0  0  0  0  0  0  0  0
  1  2  1  0  0  0  0
  1 19  1  0  0  0  0
  1 20  1  0  0  0  0
  1 21  1  0  0  0  0
  2  3  1  0  0  0  0
  2 22  1  0  0  0  0
  2 23  1  0  0  0  0
  3  4  1  0  0  0  0
  4 16  1  0  0  0  0
  4  5  1  0  0  0  0
  4 24  1  0  0  0  0
  5  6  1  0  0  0  0
  5 25  1  0  0  0  0
  5 26  1  0  0  0  0
  6  7  1  0  0  0  0
  6 16  1  0  0  0  0
  6 27  1  0  0  0  0
  7  8  1  0  0  0  0
  7 28  1  0  0  0  0
  8  9  2  0  0  0  0
  8 10  1  0  0  0  0
 10 11  1  0  0  0  0
 10 29  1  0  0  0  0
 10 30  1  0  0  0  0
 11 15  1  0  0  0  0
 11 12  1  0  0  0  0
 12 13  2  0  0  0  0
 12 31  1  0  0  0  0
 13 14  1  0  0  0  0
 14 15  2  0  0  0  0
 16 17  1  0  0  0  0
 16 18  1  0  0  0  0
 17 32  1  0  0  0  0
 17 33  1  0  0  0  0
 17 34  1  0  0  0  0
 18 35  1  0  0  0  0
 18 36  1  0  0  0  0
 18 37  1  0  0  0  0
M  END
> <s_m_source_file>
AV-unprocessed.smi

> <i_m_source_file_index>
754

> <i_lp_mmshare_version>
43012

> <i_f3d_flags>
0

> <s_epik_input>
W0NIM11bQ0gyXU9bQ0BASF0oQzEoW0NIM10pW0NIM10pW0NIMl1bQ0BIXTFbTkhdQyg9TylbQ0gyXW4yW2NIXW5ubjI=

> <s_epik_cmdline>
J2VwaWtfcHl0aG9uJywgJy1waCcsICc3LjAnLCAnLXRuJywgJzgnLCAnLW1hJywgJzIwMCcsICctbWV0YWxfYmluZGluZycsICctaW1hZScsICc8aW5maWxlLm1hZT4nLCAnLW9tYWUnLCAnPG91dGZpbGUubWFlPic=

> <r_lp_tautomer_probability>
1

> <r_epik_Ionization_Penalty>
8.28422e-07

> <r_epik_Ionization_Penalty_Charging>
0

> <r_epik_Ionization_Penalty_Neutral>
8.28422e-07

> <r_epik_State_Penalty>
-0

> <r_epik_Charging_Adjusted_Penalty>
0

> <i_epik_Tot_Q>
0

> <i_epik_Tot_abs_Q>
0

> <r_epik_Metal_State_Penalty>
-0

> <b_epik_Metal_Only>
0

> <s_lp_Force_Field>
OPLS_2005

> <r_lp_Energy>
23.2797

> <b_lp_Chiralities_Consistent>
1

> <s_lp_Variant>
AV-unprocessed.smi:754-1

> <Gold.Version>
5.8.1

> <Gold.Id.Protein>
6NUR|6NUR_protein|mol2

> <Gold.PLP.Fitness>
42.9082

> <Gold.PLP.PLP>
-36.4734

> <Gold.PLP.part.hbond>
-4.0000

> <Gold.PLP.part.metal>
0.0000

> <Gold.PLP.part.buried>
-6.0524

> <Gold.PLP.part.nonpolar>
-28.3353

> <Gold.PLP.part.repulsive>
2.1748

> <Gold.PLP.ligand.clash>
0.0000

> <Gold.PLP.ligand.torsion>
1.1362

> <Gold.PLP.Chemscore.Hbond>
2.7840

> <Gold.PLP.Chemscore.CHOScore>
0.0000

> <Gold.PLP.Chemscore.Metal>
0.0000

> <Gold.Chemscore.Hbonds>
donor molecule, donor type, donor heavy atom, donor atom, acceptor molecule, acceptor atom, score
      P1  H  7989  7998       L1    15  0.05
      P1  H  7997  8008       L1     9  0.96

> <Gold.PLP.Chemscore.Internal.Correction>
0.3553

> <Gold.Rescore>
     Score         DG    S(hbond)    S(metal)    S(lipo)     H(rot)  DE(clash)    DE(int)     intcor
     13.99     -17.16       2.13        0.00      92.91       2.46       0.51       2.66       ----

> <Gold.Chemscore.Fitness>
13.9895

> <Gold.Chemscore.DG>
-17.1639

> <Gold.Chemscore.ZeroCoef>
-5.4800

> <Gold.Chemscore.Hbond>
2.1304

> <Gold.Chemscore.Metal>
0.0000

> <Gold.Chemscore.Lipo>
92.9054

> <Gold.Chemscore.Internal_Hbond>
0.0000

> <Gold.Chemscore.DEClash>
0.5132

> <Gold.Chemscore.DEInternal>
2.6613

> <Gold.Chemscore.Rot>
2.4616

> <Gold.Chemscore.Internal.Correction>
   9.000000E+99

> <Gold.Chemscore.Hbonds>
donor molecule, donor type, donor heavy atom, donor atom, acceptor molecule, acceptor atom, score
      P1  H  7997  8008       L1     9  0.83
      P1  H  8011  8017       L1    14  0.01

> <Gold.Chemscore.Hbond.Weighted>
-7.1156

> <Gold.Chemscore.Metal.Weighted>
-0.0000

> <Gold.Chemscore.Lipo.Weighted>
-10.8699

> <Gold.Chemscore.Internal_Hbond.Weighted>
0.0000

> <Gold.Chemscore.DEClash.Weighted>
0.5132

> <Gold.Chemscore.DEInternal.Weighted>
2.6613

> <Gold.Chemscore.Rot.Weighted>
6.3016

> <Gold.Chemscore.Internal.Correction.Weighted>
   9.000000E+99

> <Gold.Protein.RotatedTorsions>
[ 6907 6896 6895 6894 ] final  165.80 input  -60.11 | X-H torsion
[ 7974 7965 7964 7962 ] final  165.17 input  175.53 | X-H torsion
[ 8008 7997 7996 7995 ] final  -65.16 input   59.86 | X-H torsion
[ 10167 10162 10161 10158 ] final  173.50 input  -65.29 | X-H torsion
[ 10718 10713 10712 10709 ] final -101.42 input   66.30 | X-H torsion
[ 10763 10752 10751 10750 ] final  101.73 input  -60.55 | X-H torsion
[ 11005 11000 10999 10996 ] final   94.45 input  -57.11 | X-H torsion

> <Gold.Protein.ActiveResidues>
 VAL166  LYS551  ARG553  GLY616  TRP617  ASP618  TYR619  PRO620  LYS621  CYS622 
 ASP623  PHE694  ASN695  SER759  ASP760  ASP761  ALA762  ILE779  LEU786  VAL792 
 PHE793  MET794  SER795  GLU796  ALA797  LYS798  CYS799  TRP800  GLU811  SER814 

> <Gold.Protein.RotatedAtoms>
  151.8888  133.3511  159.3790 H   0  0  0  0  0  0  0  0  0  0  0  0  # atno 6907 bound_to 6896
  150.7108  134.4945  159.5541 H   0  0  0  0  0  0  0  0  0  0  0  0  # atno 6908 bound_to 6896
  152.2511  134.8132  160.0497 H   0  0  0  0  0  0  0  0  0  0  0  0  # atno 6909 bound_to 6896
  144.7514  139.8431  143.6365 H   0  0  0  0  0  0  0  0  0  0  0  0  # atno 7974 bound_to 7965
  154.4655  140.0939  156.7008 H   0  0  0  0  0  0  0  0  0  0  0  0  # atno 8008 bound_to 7997
  155.4871  140.3469  155.4330 H   0  0  0  0  0  0  0  0  0  0  0  0  # atno 8009 bound_to 7997
  156.0948  140.1406  156.9534 H   0  0  0  0  0  0  0  0  0  0  0  0  # atno 8010 bound_to 7997
  139.5110  144.3253  152.0163 H   0  0  0  0  0  0  0  0  0  0  0  0  # atno 10167 bound_to 10162
  156.0194  130.5372  150.6960 H   0  0  0  0  0  0  0  0  0  0  0  0  # atno 10718 bound_to 10713
  153.3304  135.4034  155.1491 H   0  0  0  0  0  0  0  0  0  0  0  0  # atno 10763 bound_to 10752
  154.8621  135.3609  154.5478 H   0  0  0  0  0  0  0  0  0  0  0  0  # atno 10764 bound_to 10752
  153.5916  135.7073  153.5480 H   0  0  0  0  0  0  0  0  0  0  0  0  # atno 10765 bound_to 10752
  139.8798  134.8846  156.3865 H   0  0  0  0  0  0  0  0  0  0  0  0  # atno 11005 bound_to 11000
  146.1469  139.4540  143.0073 LP  0  0  0  0  0  0  0  0  0  0  0  0  # atno 17320 bound_to 7965
  145.6931  141.0158  143.1544 LP  0  0  0  0  0  0  0  0  0  0  0  0  # atno 17321 bound_to 7965
  140.2694  144.3980  150.6156 LP  0  0  0  0  0  0  0  0  0  0  0  0  # atno 17342 bound_to 10162
  140.6099  143.2169  151.6906 LP  0  0  0  0  0  0  0  0  0  0  0  0  # atno 17343 bound_to 10162
  157.4631  131.0885  151.0724 LP  0  0  0  0  0  0  0  0  0  0  0  0  # atno 17370 bound_to 10713
  157.1206  130.6060  149.5504 LP  0  0  0  0  0  0  0  0  0  0  0  0  # atno 17371 bound_to 10713
  140.9362  133.7545  156.0088 LP  0  0  0  0  0  0  0  0  0  0  0  0  # atno 17394 bound_to 11000
  140.8272  134.3220  157.5361 LP  0  0  0  0  0  0  0  0  0  0  0  0  # atno 17395 bound_to 11000

$$$$
