AV-unprocessed.smi:2251|AV-procd|sdf|9101|dock3
  -GOLD-   2272012303D 1   1.00000     0.00000
 Structure written by MMmdl.
 44 45  0  0  0  0  0  0  0  0  1 V2000
  147.5047  134.8448  162.6190 C   0  0  0  0  0  0  0  0  0  0  0  0
  147.4912  136.0808  161.7262 C   0  0  0  0  0  0  0  0  0  0  0  0
  147.4439  137.2042  162.2264 O   0  0  0  0  0  0  0  0  0  0  0  0
  147.5354  135.8586  160.4035 N   0  0  0  0  0  0  0  0  0  0  0  0
  147.5493  136.8970  159.3758 C   0  0  0  0  0  0  0  0  0  0  0  0
  148.9170  137.0532  158.6996 C   0  0  0  0  0  0  0  0  0  0  0  0
  149.5923  136.0666  158.4026 O   0  0  0  0  0  0  0  0  0  0  0  0
  149.3046  138.3095  158.4424 N   0  0  0  0  0  0  0  0  0  0  0  0
  150.5651  138.6713  157.8015 C   0  0  0  0  0  0  0  0  0  0  0  0
  150.4388  139.9493  156.9235 C   0  0  0  0  0  0  0  0  0  0  0  0
  150.5422  141.1878  157.8420 C   0  0  0  0  0  0  0  0  0  0  0  0
  149.4588  142.0949  157.9328 C   0  0  0  0  0  0  0  0  0  0  0  0
  149.5614  143.2120  158.7845 C   0  0  0  0  0  0  0  0  0  0  0  0
  150.6491  143.4729  159.5369 N   0  0  0  0  0  0  0  0  0  0  0  0
  151.6824  142.6098  159.4612 C   0  0  0  0  0  0  0  0  0  0  0  0
  151.6800  141.4636  158.6417 C   0  0  0  0  0  0  0  0  0  0  0  0
  151.5408  139.9567  155.8174 C   0  0  0  0  0  0  0  0  0  0  0  0
  151.3765  138.8598  154.7497 C   0  0  0  0  0  0  0  0  0  0  0  0
  149.9967  138.9350  154.0866 C   0  0  0  0  0  0  0  0  0  0  0  0
  148.8816  138.8769  155.1367 C   0  0  0  0  0  0  0  0  0  0  0  0
  149.0563  139.9694  156.2082 C   0  0  0  0  0  0  0  0  0  0  0  0
  146.7106  134.1551  162.3317 H   0  0  0  0  0  0  0  0  0  0  0  0
  147.3562  135.1192  163.6639 H   0  0  0  0  0  0  0  0  0  0  0  0
  148.4606  134.3269  162.5347 H   0  0  0  0  0  0  0  0  0  0  0  0
  147.5801  134.9019  160.0838 H   0  0  0  0  0  0  0  0  0  0  0  0
  146.8157  136.6347  158.6135 H   0  0  0  0  0  0  0  0  0  0  0  0
  147.2307  137.8501  159.8020 H   0  0  0  0  0  0  0  0  0  0  0  0
  148.6904  139.0656  158.7089 H   0  0  0  0  0  0  0  0  0  0  0  0
  151.3247  138.7885  158.5733 H   0  0  0  0  0  0  0  0  0  0  0  0
  150.8922  137.8292  157.1898 H   0  0  0  0  0  0  0  0  0  0  0  0
  148.5520  141.9438  157.3668 H   0  0  0  0  0  0  0  0  0  0  0  0
  148.7440  143.9132  158.8655 H   0  0  0  0  0  0  0  0  0  0  0  0
  152.5400  142.8367  160.0770 H   0  0  0  0  0  0  0  0  0  0  0  0
  152.5498  140.8259  158.6523 H   0  0  0  0  0  0  0  0  0  0  0  0
  151.5178  140.9135  155.2937 H   0  0  0  0  0  0  0  0  0  0  0  0
  152.5350  139.8735  156.2575 H   0  0  0  0  0  0  0  0  0  0  0  0
  152.1511  138.9711  153.9905 H   0  0  0  0  0  0  0  0  0  0  0  0
  151.5277  137.8734  155.1880 H   0  0  0  0  0  0  0  0  0  0  0  0
  149.9146  139.8622  153.5179 H   0  0  0  0  0  0  0  0  0  0  0  0
  149.8800  138.1206  153.3712 H   0  0  0  0  0  0  0  0  0  0  0  0
  147.9141  138.9956  154.6479 H   0  0  0  0  0  0  0  0  0  0  0  0
  148.8631  137.8916  155.6022 H   0  0  0  0  0  0  0  0  0  0  0  0
  148.2443  139.8762  156.9291 H   0  0  0  0  0  0  0  0  0  0  0  0
  148.9190  140.9402  155.7292 H   0  0  0  0  0  0  0  0  0  0  0  0
  1  2  1  0  0  0  0
  1 22  1  0  0  0  0
  1 23  1  0  0  0  0
  1 24  1  0  0  0  0
  2  3  2  0  0  0  0
  2  4  1  0  0  0  0
  4  5  1  0  0  0  0
  4 25  1  0  0  0  0
  5  6  1  0  0  0  0
  5 26  1  0  0  0  0
  5 27  1  0  0  0  0
  6  7  2  0  0  0  0
  6  8  1  0  0  0  0
  8  9  1  0  0  0  0
  8 28  1  0  0  0  0
  9 10  1  0  0  0  0
  9 29  1  0  0  0  0
  9 30  1  0  0  0  0
 10 21  1  0  0  0  0
 10 11  1  0  0  0  0
 10 17  1  0  0  0  0
 11 16  1  0  0  0  0
 11 12  2  0  0  0  0
 12 13  1  0  0  0  0
 12 31  1  0  0  0  0
 13 14  2  0  0  0  0
 13 32  1  0  0  0  0
 14 15  1  0  0  0  0
 15 16  2  0  0  0  0
 15 33  1  0  0  0  0
 16 34  1  0  0  0  0
 17 18  1  0  0  0  0
 17 35  1  0  0  0  0
 17 36  1  0  0  0  0
 18 19  1  0  0  0  0
 18 37  1  0  0  0  0
 18 38  1  0  0  0  0
 19 20  1  0  0  0  0
 19 39  1  0  0  0  0
 19 40  1  0  0  0  0
 20 21  1  0  0  0  0
 20 41  1  0  0  0  0
 20 42  1  0  0  0  0
 21 43  1  0  0  0  0
 21 44  1  0  0  0  0
M  END
> <s_m_source_file>
AV-unprocessed.smi

> <i_m_source_file_index>
2251

> <i_lp_mmshare_version>
43012

> <i_f3d_flags>
0

> <s_epik_input>
W0NIM11DKD1PKVtOSF1bQ0gyXUMoPU8pW05IXVtDSDJdQzEoW0NIMl1bQ0gyXVtDSDJdW0NIMl1bQ0gyXTEpYzJbY0hdW2NIXW5bY0hdW2NIXTI=

> <s_epik_cmdline>
J2VwaWtfcHl0aG9uJywgJy1waCcsICc3LjAnLCAnLXRuJywgJzgnLCAnLW1hJywgJzIwMCcsICctbWV0YWxfYmluZGluZycsICctaW1hZScsICc8aW5maWxlLm1hZT4nLCAnLW9tYWUnLCAnPG91dGZpbGUubWFlPic=

> <r_epik_Ionization_Penalty>
0.0619926

> <r_epik_Ionization_Penalty_Charging>
0

> <r_epik_Ionization_Penalty_Neutral>
0.0619926

> <r_epik_State_Penalty>
0.0538453

> <r_epik_Charging_Adjusted_Penalty>
0.0538453

> <i_epik_Tot_Q>
0

> <i_epik_Tot_abs_Q>
0

> <r_epik_Metal_State_Penalty>
0.048714

> <b_epik_Metal_Only>
0

> <s_lp_Force_Field>
OPLS_2005

> <r_lp_Energy>
14.8117

> <b_lp_Chiralities_Consistent>
1

> <s_lp_Variant>
AV-unprocessed.smi:2251-1

> <Gold.Version>
5.8.1

> <Gold.Id.Protein>
6NUR|6NUR_protein|mol2

> <Gold.PLP.Fitness>
44.1767

> <Gold.PLP.PLP>
-35.4450

> <Gold.PLP.part.hbond>
-3.0000

> <Gold.PLP.part.metal>
0.0000

> <Gold.PLP.part.buried>
-6.0643

> <Gold.PLP.part.nonpolar>
-27.3619

> <Gold.PLP.part.repulsive>
0.3759

> <Gold.PLP.ligand.clash>
0.0000

> <Gold.PLP.ligand.torsion>
0.8917

> <Gold.PLP.Chemscore.Hbond>
2.4720

> <Gold.PLP.Chemscore.CHOScore>
1.0000

> <Gold.PLP.Chemscore.Metal>
0.0000

> <Gold.Chemscore.Hbonds>
donor molecule, donor type, donor heavy atom, donor atom, acceptor molecule, acceptor atom, score
      P1  H  6896  6908       L1     7  0.71
      P1  H  6931  6943       L1     3  0.86
      P1  H  6934  6947       L1     3  0.30
      L1  C    13    32       P1  8029  0.54

> <Gold.PLP.Chemscore.Internal.Correction>
0.0992

> <Gold.Rescore>
     Score         DG    S(hbond)    S(metal)    S(lipo)     H(rot)  DE(clash)    DE(int)     intcor
     17.89     -18.99       2.61        0.00      85.03       2.02       0.02       1.08       ----

> <Gold.Chemscore.Fitness>
17.8861

> <Gold.Chemscore.DG>
-18.9871

> <Gold.Chemscore.ZeroCoef>
-5.4800

> <Gold.Chemscore.Hbond>
2.6106

> <Gold.Chemscore.Metal>
0.0000

> <Gold.Chemscore.Lipo>
85.0324

> <Gold.Chemscore.Internal_Hbond>
0.0000

> <Gold.Chemscore.DEClash>
0.0217

> <Gold.Chemscore.DEInternal>
1.0793

> <Gold.Chemscore.Rot>
2.0160

> <Gold.Chemscore.Internal.Correction>
   9.000000E+99

> <Gold.Chemscore.Hbonds>
donor molecule, donor type, donor heavy atom, donor atom, acceptor molecule, acceptor atom, score
      P1  H  6896  6908       L1     7  0.70
      P1  H  6931  6943       L1     3  0.75
      P1  H  6934  6947       L1     3  0.31

> <Gold.Chemscore.Hbond.Weighted>
-8.7194

> <Gold.Chemscore.Metal.Weighted>
-0.0000

> <Gold.Chemscore.Lipo.Weighted>
-9.9488

> <Gold.Chemscore.Internal_Hbond.Weighted>
0.0000

> <Gold.Chemscore.DEClash.Weighted>
0.0217

> <Gold.Chemscore.DEInternal.Weighted>
1.0793

> <Gold.Chemscore.Rot.Weighted>
5.1610

> <Gold.Chemscore.Internal.Correction.Weighted>
   9.000000E+99

> <Gold.Protein.RotatedTorsions>
[ 6907 6896 6895 6894 ] final  175.67 input  -60.11 | X-H torsion
[ 7974 7965 7964 7962 ] final -172.04 input  175.53 | X-H torsion
[ 8008 7997 7996 7995 ] final  143.39 input   59.86 | X-H torsion
[ 10167 10162 10161 10158 ] final -125.16 input  -65.29 | X-H torsion
[ 10718 10713 10712 10709 ] final -116.82 input   66.30 | X-H torsion
[ 10763 10752 10751 10750 ] final -115.98 input  -60.55 | X-H torsion
[ 11005 11000 10999 10996 ] final    7.20 input  -57.11 | X-H torsion

> <Gold.Protein.ActiveResidues>
 VAL166  LYS551  ARG553  GLY616  TRP617  ASP618  TYR619  PRO620  LYS621  CYS622 
 ASP623  PHE694  ASN695  SER759  ASP760  ASP761  ALA762  ILE779  LEU786  VAL792 
 PHE793  MET794  SER795  GLU796  ALA797  LYS798  CYS799  TRP800  GLU811  SER814 

> <Gold.Protein.RotatedAtoms>
  151.7325  133.3318  159.3343 H   0  0  0  0  0  0  0  0  0  0  0  0  # atno 6907 bound_to 6896
  150.7607  134.6350  159.6216 H   0  0  0  0  0  0  0  0  0  0  0  0  # atno 6908 bound_to 6896
  152.3582  134.6911  160.0267 H   0  0  0  0  0  0  0  0  0  0  0  0  # atno 6909 bound_to 6896
  144.7150  140.1831  143.6356 H   0  0  0  0  0  0  0  0  0  0  0  0  # atno 7974 bound_to 7965
  156.2931  140.2263  156.4883 H   0  0  0  0  0  0  0  0  0  0  0  0  # atno 8008 bound_to 7997
  154.7793  140.0461  157.1135 H   0  0  0  0  0  0  0  0  0  0  0  0  # atno 8009 bound_to 7997
  154.9778  140.3074  155.4963 H   0  0  0  0  0  0  0  0  0  0  0  0  # atno 8010 bound_to 7997
  139.9850  143.5701  152.2364 H   0  0  0  0  0  0  0  0  0  0  0  0  # atno 10167 bound_to 10162
  156.0990  130.6156  150.9085 H   0  0  0  0  0  0  0  0  0  0  0  0  # atno 10718 bound_to 10713
  154.8502  135.4362  154.1748 H   0  0  0  0  0  0  0  0  0  0  0  0  # atno 10763 bound_to 10752
  153.2853  135.6957  153.7351 H   0  0  0  0  0  0  0  0  0  0  0  0  # atno 10764 bound_to 10752
  153.6540  135.3446  155.3083 H   0  0  0  0  0  0  0  0  0  0  0  0  # atno 10765 bound_to 10752
  140.5510  134.0283  155.7937 H   0  0  0  0  0  0  0  0  0  0  0  0  # atno 11005 bound_to 11000
  145.8838  139.2337  143.1590 LP  0  0  0  0  0  0  0  0  0  0  0  0  # atno 17320 bound_to 7965
  145.9970  140.8554  143.0038 LP  0  0  0  0  0  0  0  0  0  0  0  0  # atno 17321 bound_to 7965
  139.6381  144.7652  151.2395 LP  0  0  0  0  0  0  0  0  0  0  0  0  # atno 17342 bound_to 10162
  140.7475  143.6363  150.8376 LP  0  0  0  0  0  0  0  0  0  0  0  0  # atno 17343 bound_to 10162
  157.6157  131.0933  150.8715 LP  0  0  0  0  0  0  0  0  0  0  0  0  # atno 17370 bound_to 10713
  156.8846  130.5191  149.5289 LP  0  0  0  0  0  0  0  0  0  0  0  0  # atno 17371 bound_to 10713
  141.1172  133.9521  157.2800 LP  0  0  0  0  0  0  0  0  0  0  0  0  # atno 17394 bound_to 11000
  139.9455  135.0184  156.8840 LP  0  0  0  0  0  0  0  0  0  0  0  0  # atno 17395 bound_to 11000

$$$$
