AV-unprocessed.smi:1841|AV-procd|sdf|7496|dock5
  -GOLD-   22720 9193D 1   1.00000     0.00000
 Structure written by MMmdl.
 40 41  0  0  0  0  0  0  0  0  1 V2000
  145.0862  135.7770  151.2982 C   0  0  0  0  0  0  0  0  0  0  0  0
  145.5523  136.8922  152.0373 O   0  0  0  0  0  0  0  0  0  0  0  0
  146.4621  137.6915  151.2997 C   0  0  0  0  0  0  0  0  0  0  0  0
  146.7840  138.9559  152.1016 C   0  0  0  0  0  0  0  0  0  0  0  0
  147.4953  138.5830  153.2779 O   0  0  0  0  0  0  0  0  0  0  0  0
  148.1701  139.5611  153.9788 C   0  0  0  0  0  0  0  0  0  0  0  0
  147.6680  140.8768  153.9510 C   0  0  0  0  0  0  0  0  0  0  0  0
  148.3459  141.8818  154.6673 C   0  0  0  0  0  0  0  0  0  0  0  0
  149.5147  141.5388  155.3899 C   0  0  0  0  0  0  0  0  0  0  0  0
  150.2941  142.4432  156.1645 N   0  0  0  0  0  0  0  0  0  0  0  0
  151.2430  142.1928  157.0862 C   0  0  0  0  0  0  0  0  0  0  0  0
  151.5964  141.0709  157.4476 O   0  0  0  0  0  0  0  0  0  0  0  0
  151.9002  143.4317  157.7165 C   0  0  2  0  0  0  0  0  0  0  0  0
  152.8127  143.0450  158.8985 C   0  0  0  0  0  0  0  0  0  0  0  0
  152.1090  143.6261  160.1134 C   0  0  0  0  0  0  0  0  0  0  0  0
  152.4995  143.4386  161.2647 O   0  0  0  0  0  0  0  0  0  0  0  0
  151.0381  144.3372  159.7510 N   0  0  0  0  0  0  0  0  0  0  0  0
  150.1251  145.0213  160.6562 C   0  0  0  0  0  0  0  0  0  0  0  0
  150.8651  144.4131  158.3104 C   0  0  0  0  0  0  0  0  0  0  0  0
  149.9326  140.1919  155.3519 C   0  0  0  0  0  0  0  0  0  0  0  0
  149.2869  139.2237  154.6688 N   0  0  0  0  0  0  0  0  0  0  0  0
  144.3891  135.2001  151.9057 H   0  0  0  0  0  0  0  0  0  0  0  0
  145.9094  135.1201  151.0146 H   0  0  0  0  0  0  0  0  0  0  0  0
  144.5629  136.0932  150.3949 H   0  0  0  0  0  0  0  0  0  0  0  0
  147.3792  137.1255  151.1288 H   0  0  0  0  0  0  0  0  0  0  0  0
  146.0512  137.9536  150.3234 H   0  0  0  0  0  0  0  0  0  0  0  0
  147.3617  139.6522  151.4910 H   0  0  0  0  0  0  0  0  0  0  0  0
  145.8517  139.4486  152.3825 H   0  0  0  0  0  0  0  0  0  0  0  0
  146.7734  141.1110  153.3927 H   0  0  0  0  0  0  0  0  0  0  0  0
  147.9451  142.8821  154.6453 H   0  0  0  0  0  0  0  0  0  0  0  0
  150.0995  143.4201  155.9985 H   0  0  0  0  0  0  0  0  0  0  0  0
  152.4891  143.9482  156.9562 H   0  0  0  0  0  0  0  0  0  0  0  0
  152.9474  141.9683  159.0155 H   0  0  0  0  0  0  0  0  0  0  0  0
  153.7993  143.4984  158.7992 H   0  0  0  0  0  0  0  0  0  0  0  0
  150.6675  145.7228  161.2910 H   0  0  0  0  0  0  0  0  0  0  0  0
  149.6133  144.3024  161.2968 H   0  0  0  0  0  0  0  0  0  0  0  0
  149.3697  145.5803  160.1035 H   0  0  0  0  0  0  0  0  0  0  0  0
  151.0628  145.4328  157.9773 H   0  0  0  0  0  0  0  0  0  0  0  0
  149.8368  144.1714  158.0350 H   0  0  0  0  0  0  0  0  0  0  0  0
  150.8157  139.8773  155.8888 H   0  0  0  0  0  0  0  0  0  0  0  0
  1  2  1  0  0  0  0
  1 22  1  0  0  0  0
  1 23  1  0  0  0  0
  1 24  1  0  0  0  0
  2  3  1  0  0  0  0
  3  4  1  0  0  0  0
  3 25  1  0  0  0  0
  3 26  1  0  0  0  0
  4  5  1  0  0  0  0
  4 27  1  0  0  0  0
  4 28  1  0  0  0  0
  5  6  1  0  0  0  0
  6 21  1  0  0  0  0
  6  7  2  0  0  0  0
  7  8  1  0  0  0  0
  7 29  1  0  0  0  0
  8  9  2  0  0  0  0
  8 30  1  0  0  0  0
  9 10  1  0  0  0  0
  9 20  1  0  0  0  0
 10 11  1  0  0  0  0
 10 31  1  0  0  0  0
 11 12  2  0  0  0  0
 11 13  1  0  0  0  0
 13 19  1  0  0  0  0
 13 14  1  0  0  0  0
 13 32  1  0  0  0  0
 14 15  1  0  0  0  0
 14 33  1  0  0  0  0
 14 34  1  0  0  0  0
 15 16  2  0  0  0  0
 15 17  1  0  0  0  0
 17 18  1  0  0  0  0
 17 19  1  0  0  0  0
 18 35  1  0  0  0  0
 18 36  1  0  0  0  0
 18 37  1  0  0  0  0
 19 38  1  0  0  0  0
 19 39  1  0  0  0  0
 20 21  2  0  0  0  0
 20 40  1  0  0  0  0
M  END
> <s_m_source_file>
AV-unprocessed.smi

> <i_m_source_file_index>
1841

> <i_lp_mmshare_version>
43012

> <i_f3d_flags>
0

> <s_epik_input>
W0NIM11PW0NIMl1bQ0gyXU9jMVtjSF1bY0hdYyhbY0hdbjEpW05IXUMoPU8pW0NAQEhdMltDSDJdQyg9TylOKFtDSDNdKVtDSDJdMg==

> <s_epik_cmdline>
J2VwaWtfcHl0aG9uJywgJy1waCcsICc3LjAnLCAnLXRuJywgJzgnLCAnLW1hJywgJzIwMCcsICctbWV0YWxfYmluZGluZycsICctaW1hZScsICc8aW5maWxlLm1hZT4nLCAnLW9tYWUnLCAnPG91dGZpbGUubWFlPic=

> <r_lp_tautomer_probability>
1

> <r_epik_Ionization_Penalty>
1.70347e-05

> <r_epik_Ionization_Penalty_Charging>
0

> <r_epik_Ionization_Penalty_Neutral>
1.70347e-05

> <r_epik_State_Penalty>
-0

> <r_epik_Charging_Adjusted_Penalty>
0

> <i_epik_Tot_Q>
0

> <i_epik_Tot_abs_Q>
0

> <r_epik_Metal_State_Penalty>
-0

> <b_epik_Metal_Only>
0

> <s_lp_Force_Field>
OPLS_2005

> <r_lp_Energy>
17.4372

> <b_lp_Chiralities_Consistent>
1

> <s_lp_Variant>
AV-unprocessed.smi:1841-1

> <Gold.Version>
5.8.1

> <Gold.Id.Protein>
6NUR|6NUR_protein|mol2

> <Gold.PLP.Fitness>
39.9382

> <Gold.PLP.PLP>
-38.1466

> <Gold.PLP.part.hbond>
-1.0000

> <Gold.PLP.part.metal>
0.0000

> <Gold.PLP.part.buried>
0.5319

> <Gold.PLP.part.nonpolar>
-39.1922

> <Gold.PLP.part.repulsive>
0.9872

> <Gold.PLP.ligand.clash>
0.0000

> <Gold.PLP.ligand.torsion>
0.6045

> <Gold.PLP.Chemscore.Hbond>
0.9920

> <Gold.PLP.Chemscore.CHOScore>
0.0000

> <Gold.PLP.Chemscore.Metal>
0.0000

> <Gold.Chemscore.Hbonds>
donor molecule, donor type, donor heavy atom, donor atom, acceptor molecule, acceptor atom, score
      L1  H    10    31       P1  8028  0.99

> <Gold.PLP.Chemscore.Internal.Correction>
0.0245

> <Gold.Rescore>
     Score         DG    S(hbond)    S(metal)    S(lipo)     H(rot)  DE(clash)    DE(int)     intcor
     11.38     -14.85       0.96        0.00      95.24       1.95       1.54       1.93       ----

> <Gold.Chemscore.Fitness>
11.3798

> <Gold.Chemscore.DG>
-14.8524

> <Gold.Chemscore.ZeroCoef>
-5.4800

> <Gold.Chemscore.Hbond>
0.9621

> <Gold.Chemscore.Metal>
0.0000

> <Gold.Chemscore.Lipo>
95.2391

> <Gold.Chemscore.Internal_Hbond>
0.0000

> <Gold.Chemscore.DEClash>
1.5394

> <Gold.Chemscore.DEInternal>
1.9332

> <Gold.Chemscore.Rot>
1.9468

> <Gold.Chemscore.Internal.Correction>
   9.000000E+99

> <Gold.Chemscore.Hbonds>
donor molecule, donor type, donor heavy atom, donor atom, acceptor molecule, acceptor atom, score
      L1  H    10    31       P1  8028  0.94

> <Gold.Chemscore.Hbond.Weighted>
-3.2133

> <Gold.Chemscore.Metal.Weighted>
-0.0000

> <Gold.Chemscore.Lipo.Weighted>
-11.1430

> <Gold.Chemscore.Internal_Hbond.Weighted>
0.0000

> <Gold.Chemscore.DEClash.Weighted>
1.5394

> <Gold.Chemscore.DEInternal.Weighted>
1.9332

> <Gold.Chemscore.Rot.Weighted>
4.9839

> <Gold.Chemscore.Internal.Correction.Weighted>
   9.000000E+99

> <Gold.Protein.RotatedTorsions>
[ 6907 6896 6895 6894 ] final  103.16 input  -60.11 | X-H torsion
[ 7974 7965 7964 7962 ] final   47.70 input  175.53 | X-H torsion
[ 8008 7997 7996 7995 ] final  -87.11 input   59.86 | X-H torsion
[ 10167 10162 10161 10158 ] final  156.74 input  -65.29 | X-H torsion
[ 10718 10713 10712 10709 ] final   77.37 input   66.30 | X-H torsion
[ 10763 10752 10751 10750 ] final  106.33 input  -60.55 | X-H torsion
[ 11005 11000 10999 10996 ] final   56.92 input  -57.11 | X-H torsion

> <Gold.Protein.ActiveResidues>
 VAL166  LYS551  ARG553  GLY616  TRP617  ASP618  TYR619  PRO620  LYS621  CYS622 
 ASP623  PHE694  ASN695  SER759  ASP760  ASP761  ALA762  ILE779  LEU786  VAL792 
 PHE793  MET794  SER795  GLU796  ALA797  LYS798  CYS799  TRP800  GLU811  SER814 

> <Gold.Protein.RotatedAtoms>
  152.5303  133.9867  159.7831 H   0  0  0  0  0  0  0  0  0  0  0  0  # atno 6907 bound_to 6896
  151.0111  133.5957  159.2689 H   0  0  0  0  0  0  0  0  0  0  0  0  # atno 6908 bound_to 6896
  151.3031  135.0780  159.9299 H   0  0  0  0  0  0  0  0  0  0  0  0  # atno 6909 bound_to 6896
  146.0273  139.4721  142.9860 H   0  0  0  0  0  0  0  0  0  0  0  0  # atno 7974 bound_to 7965
  154.6594  140.0570  157.0046 H   0  0  0  0  0  0  0  0  0  0  0  0  # atno 8008 bound_to 7997
  155.1251  140.3251  155.4469 H   0  0  0  0  0  0  0  0  0  0  0  0  # atno 8009 bound_to 7997
  156.2612  140.1991  156.6371 H   0  0  0  0  0  0  0  0  0  0  0  0  # atno 8010 bound_to 7997
  139.4821  144.4981  151.8209 H   0  0  0  0  0  0  0  0  0  0  0  0  # atno 10167 bound_to 10162
  157.6708  130.9818  150.1631 H   0  0  0  0  0  0  0  0  0  0  0  0  # atno 10718 bound_to 10713
  153.3915  135.3880  155.1926 H   0  0  0  0  0  0  0  0  0  0  0  0  # atno 10763 bound_to 10752
  154.8720  135.3749  154.4732 H   0  0  0  0  0  0  0  0  0  0  0  0  # atno 10764 bound_to 10752
  153.5219  135.7086  153.5788 H   0  0  0  0  0  0  0  0  0  0  0  0  # atno 10765 bound_to 10752
  140.0492  134.5761  155.9285 H   0  0  0  0  0  0  0  0  0  0  0  0  # atno 11005 bound_to 11000
  145.7097  141.0110  143.1460 LP  0  0  0  0  0  0  0  0  0  0  0  0  # atno 17320 bound_to 7965
  144.7015  139.8743  143.7443 LP  0  0  0  0  0  0  0  0  0  0  0  0  # atno 17321 bound_to 7965
  140.4472  144.1906  150.5895 LP  0  0  0  0  0  0  0  0  0  0  0  0  # atno 17342 bound_to 10162
  140.4623  143.2444  151.9203 LP  0  0  0  0  0  0  0  0  0  0  0  0  # atno 17343 bound_to 10162
  156.2403  130.3690  149.8345 LP  0  0  0  0  0  0  0  0  0  0  0  0  # atno 17370 bound_to 10713
  156.6147  130.8601  151.3462 LP  0  0  0  0  0  0  0  0  0  0  0  0  # atno 17371 bound_to 10713
  141.1922  133.6574  156.5491 LP  0  0  0  0  0  0  0  0  0  0  0  0  # atno 17394 bound_to 11000
  140.3944  134.7411  157.4742 LP  0  0  0  0  0  0  0  0  0  0  0  0  # atno 17395 bound_to 11000

$$$$
