AV-unprocessed.smi:2741|AV-procd|sdf|10560|dock3
  -GOLD-   2272015 13D 1   1.00000     0.00000
 Structure written by MMmdl.
 39 40  0  0  0  0  0  0  0  0  1 V2000
  148.7065  140.9406  156.9445 O   0  0  0  0  0  0  0  0  0  0  0  0
  149.3464  141.3975  155.9962 C   0  0  0  0  0  0  0  0  0  0  0  0
  150.8796  141.3165  155.9661 C   0  0  0  0  0  0  0  0  0  0  0  0
  151.5046  141.5943  157.2704 N   0  0  0  0  0  0  0  0  0  0  0  0
  151.2010  142.8290  157.8774 C   0  0  0  0  0  0  0  0  0  0  0  0
  151.7228  143.2133  159.0580 C   0  0  0  0  0  0  0  0  0  0  0  0
  151.3358  144.5319  159.7094 C   0  0  0  0  0  0  0  0  0  0  0  0
  151.7365  145.5691  158.9739 F   0  0  0  0  0  0  0  0  0  0  0  0
  150.0118  144.6014  159.8397 F   0  0  0  0  0  0  0  0  0  0  0  0
  151.8781  144.6443  160.9226 F   0  0  0  0  0  0  0  0  0  0  0  0
  152.6058  142.2676  159.7117 C   0  0  0  0  0  0  0  0  0  0  0  0
  152.9014  141.0799  159.1480 C   0  0  0  0  0  0  0  0  0  0  0  0
  152.3445  140.6863  157.8518 C   0  0  0  0  0  0  0  0  0  0  0  0
  152.6154  139.6083  157.3220 O   0  0  0  0  0  0  0  0  0  0  0  0
  148.7685  141.9720  154.9305 N   0  0  0  0  0  0  0  0  0  0  0  0
  147.3316  142.1467  154.7479 C   0  0  0  0  0  0  0  0  0  0  0  0
  146.6678  140.8992  154.1337 C   0  0  2  0  0  0  0  0  0  0  0  0
  146.8022  139.6182  154.9793 C   0  0  0  0  0  0  0  0  0  0  0  0
  146.9926  138.4566  153.9902 C   0  0  0  0  0  0  0  0  0  0  0  0
  146.8049  139.0630  152.5964 C   0  0  2  0  0  0  0  0  0  0  0  0
  147.5662  138.3922  151.6147 O   0  0  0  0  0  0  0  0  0  0  0  0
  147.2306  140.5201  152.7616 C   0  0  0  0  0  0  0  0  0  0  0  0
  151.1598  140.3237  155.6115 H   0  0  0  0  0  0  0  0  0  0  0  0
  151.2624  142.0063  155.2114 H   0  0  0  0  0  0  0  0  0  0  0  0
  150.5172  143.4498  157.3169 H   0  0  0  0  0  0  0  0  0  0  0  0
  153.0428  142.5166  160.6674 H   0  0  0  0  0  0  0  0  0  0  0  0
  153.5658  140.4009  159.6621 H   0  0  0  0  0  0  0  0  0  0  0  0
  149.3668  142.3167  154.1936 H   0  0  0  0  0  0  0  0  0  0  0  0
  146.8636  142.3932  155.7025 H   0  0  0  0  0  0  0  0  0  0  0  0
  147.1773  143.0097  154.0993 H   0  0  0  0  0  0  0  0  0  0  0  0
  145.6030  141.0972  153.9992 H   0  0  0  0  0  0  0  0  0  0  0  0
  147.6625  139.6737  155.6474 H   0  0  0  0  0  0  0  0  0  0  0  0
  145.9190  139.4731  155.6024 H   0  0  0  0  0  0  0  0  0  0  0  0
  148.0035  138.0602  154.0976 H   0  0  0  0  0  0  0  0  0  0  0  0
  146.2995  137.6351  154.1739 H   0  0  0  0  0  0  0  0  0  0  0  0
  145.7502  139.0218  152.3202 H   0  0  0  0  0  0  0  0  0  0  0  0
  147.9615  137.6302  152.0098 H   0  0  0  0  0  0  0  0  0  0  0  0
  146.8562  141.1609  151.9628 H   0  0  0  0  0  0  0  0  0  0  0  0
  148.3196  140.5956  152.7700 H   0  0  0  0  0  0  0  0  0  0  0  0
  1  2  2  0  0  0  0
  2  3  1  0  0  0  0
  2 15  1  0  0  0  0
  3  4  1  0  0  0  0
  3 23  1  0  0  0  0
  3 24  1  0  0  0  0
  4 13  1  0  0  0  0
  4  5  1  0  0  0  0
  5  6  2  0  0  0  0
  5 25  1  0  0  0  0
  6  7  1  0  0  0  0
  6 11  1  0  0  0  0
  7  8  1  0  0  0  0
  7  9  1  0  0  0  0
  7 10  1  0  0  0  0
 11 12  2  0  0  0  0
 11 26  1  0  0  0  0
 12 13  1  0  0  0  0
 12 27  1  0  0  0  0
 13 14  2  0  0  0  0
 15 16  1  0  0  0  0
 15 28  1  0  0  0  0
 16 17  1  0  0  0  0
 16 29  1  0  0  0  0
 16 30  1  0  0  0  0
 17 22  1  0  0  0  0
 17 18  1  0  0  0  0
 17 31  1  0  0  0  0
 18 19  1  0  0  0  0
 18 32  1  0  0  0  0
 18 33  1  0  0  0  0
 19 20  1  0  0  0  0
 19 34  1  0  0  0  0
 19 35  1  0  0  0  0
 20 21  1  0  0  0  0
 20 22  1  0  0  0  0
 20 36  1  0  0  0  0
 21 37  1  0  0  0  0
 22 38  1  0  0  0  0
 22 39  1  0  0  0  0
M  END
> <s_m_source_file>
AV-unprocessed.smi

> <i_m_source_file_index>
2741

> <i_lp_mmshare_version>
43012

> <i_f3d_flags>
0

> <s_epik_input>
W09IXVtDQEBIXShbQ0gyXTEpW0NIMl1bQ0gyXVtDQEhdMVtDSDJdW05IXUMoPU8pW0NIMl1uMltjSF1jKEMoRikoRilGKVtjSF1bY0hdYzI9Tw==

> <s_epik_cmdline>
J2VwaWtfcHl0aG9uJywgJy1waCcsICc3LjAnLCAnLXRuJywgJzgnLCAnLW1hJywgJzIwMCcsICctbWV0YWxfYmluZGluZycsICctaW1hZScsICc8aW5maWxlLm1hZT4nLCAnLW9tYWUnLCAnPG91dGZpbGUubWFlPic=

> <r_lp_tautomer_probability>
1

> <r_epik_Ionization_Penalty>
1.17551e-06

> <r_epik_Ionization_Penalty_Charging>
1.78841e-08

> <r_epik_Ionization_Penalty_Neutral>
1.15762e-06

> <r_epik_State_Penalty>
-0

> <r_epik_Charging_Adjusted_Penalty>
1.78841e-08

> <i_epik_Tot_Q>
0

> <i_epik_Tot_abs_Q>
0

> <r_epik_Metal_State_Penalty>
-0

> <b_epik_Metal_Only>
0

> <s_lp_Force_Field>
OPLS_2005

> <r_lp_Energy>
33.0279

> <b_lp_Chiralities_Consistent>
1

> <s_lp_Variant>
AV-unprocessed.smi:2741-3

> <Gold.Version>
5.8.1

> <Gold.Id.Protein>
6NUR|6NUR_protein|mol2

> <Gold.PLP.Fitness>
53.9539

> <Gold.PLP.PLP>
-45.4089

> <Gold.PLP.part.hbond>
-4.9041

> <Gold.PLP.part.metal>
0.0000

> <Gold.PLP.part.buried>
-2.2828

> <Gold.PLP.part.nonpolar>
-37.4917

> <Gold.PLP.part.repulsive>
0.2445

> <Gold.PLP.ligand.clash>
0.0000

> <Gold.PLP.ligand.torsion>
0.5106

> <Gold.PLP.Chemscore.Hbond>
2.3960

> <Gold.PLP.Chemscore.CHOScore>
0.7672

> <Gold.PLP.Chemscore.Metal>
0.0000

> <Gold.Chemscore.Hbonds>
donor molecule, donor type, donor heavy atom, donor atom, acceptor molecule, acceptor atom, score
      L1  H    21    37       P1  7948  0.94
      P1  H  7954  7966       L1    21  0.55
      P1  H  7997  8010       L1    14  0.80
      L1  C     5    25       P1  8028  0.74

> <Gold.PLP.Chemscore.Internal.Correction>
0.0764

> <Gold.Rescore>
     Score         DG    S(hbond)    S(metal)    S(lipo)     H(rot)  DE(clash)    DE(int)     intcor
     13.19     -14.94       1.66        0.00      87.85       2.48       1.18       0.57       ----

> <Gold.Chemscore.Fitness>
13.1866

> <Gold.Chemscore.DG>
-14.9406

> <Gold.Chemscore.ZeroCoef>
-5.4800

> <Gold.Chemscore.Hbond>
1.6565

> <Gold.Chemscore.Metal>
0.0000

> <Gold.Chemscore.Lipo>
87.8517

> <Gold.Chemscore.Internal_Hbond>
0.0000

> <Gold.Chemscore.DEClash>
1.1836

> <Gold.Chemscore.DEInternal>
0.5705

> <Gold.Chemscore.Rot>
2.4807

> <Gold.Chemscore.Internal.Correction>
   9.000000E+99

> <Gold.Chemscore.Hbonds>
donor molecule, donor type, donor heavy atom, donor atom, acceptor molecule, acceptor atom, score
      L1  H    21    37       P1  7948  0.92
      P1  H  7954  7966       L1    21  0.03
      P1  H  7997  8010       L1    14  0.11

> <Gold.Chemscore.Hbond.Weighted>
-5.5327

> <Gold.Chemscore.Metal.Weighted>
-0.0000

> <Gold.Chemscore.Lipo.Weighted>
-10.2787

> <Gold.Chemscore.Internal_Hbond.Weighted>
0.0000

> <Gold.Chemscore.DEClash.Weighted>
1.1836

> <Gold.Chemscore.DEInternal.Weighted>
0.5705

> <Gold.Chemscore.Rot.Weighted>
6.3507

> <Gold.Chemscore.Internal.Correction.Weighted>
   9.000000E+99

> <Gold.Protein.RotatedTorsions>
[ 6907 6896 6895 6894 ] final   86.87 input  -60.11 | X-H torsion
[ 7974 7965 7964 7962 ] final   56.13 input  175.53 | X-H torsion
[ 8008 7997 7996 7995 ] final   36.50 input   59.86 | X-H torsion
[ 10167 10162 10161 10158 ] final  -99.68 input  -65.29 | X-H torsion
[ 10718 10713 10712 10709 ] final  122.44 input   66.30 | X-H torsion
[ 10763 10752 10751 10750 ] final  -75.22 input  -60.55 | X-H torsion
[ 11005 11000 10999 10996 ] final   94.52 input  -57.11 | X-H torsion

> <Gold.Protein.ActiveResidues>
 VAL166  LYS551  ARG553  GLY616  TRP617  ASP618  TYR619  PRO620  LYS621  CYS622 
 ASP623  PHE694  ASN695  SER759  ASP760  ASP761  ALA762  ILE779  LEU786  VAL792 
 PHE793  MET794  SER795  GLU796  ALA797  LYS798  CYS799  TRP800  GLU811  SER814 

> <Gold.Protein.RotatedAtoms>
  152.5402  134.2364  159.8844 H   0  0  0  0  0  0  0  0  0  0  0  0  # atno 6907 bound_to 6896
  151.2333  133.4432  159.2612 H   0  0  0  0  0  0  0  0  0  0  0  0  # atno 6908 bound_to 6896
  151.0695  134.9802  159.8357 H   0  0  0  0  0  0  0  0  0  0  0  0  # atno 6909 bound_to 6896
  145.9431  139.3905  143.0352 H   0  0  0  0  0  0  0  0  0  0  0  0  # atno 7974 bound_to 7965
  155.1884  140.3306  155.4363 H   0  0  0  0  0  0  0  0  0  0  0  0  # atno 8008 bound_to 7997
  156.2451  140.1914  156.6928 H   0  0  0  0  0  0  0  0  0  0  0  0  # atno 8009 bound_to 7997
  154.6223  140.0594  156.9616 H   0  0  0  0  0  0  0  0  0  0  0  0  # atno 8010 bound_to 7997
  140.2599  143.3415  152.0636 H   0  0  0  0  0  0  0  0  0  0  0  0  # atno 10167 bound_to 10162
  157.5742  131.1081  150.8310 H   0  0  0  0  0  0  0  0  0  0  0  0  # atno 10718 bound_to 10713
  154.4836  135.5838  153.6408 H   0  0  0  0  0  0  0  0  0  0  0  0  # atno 10763 bound_to 10752
  152.9851  135.6096  154.3214 H   0  0  0  0  0  0  0  0  0  0  0  0  # atno 10764 bound_to 10752
  154.3108  135.2845  155.2546 H   0  0  0  0  0  0  0  0  0  0  0  0  # atno 10765 bound_to 10752
  139.8798  134.8849  156.3876 H   0  0  0  0  0  0  0  0  0  0  0  0  # atno 11005 bound_to 11000
  145.8273  140.9648  143.0867 LP  0  0  0  0  0  0  0  0  0  0  0  0  # atno 17320 bound_to 7965
  144.6782  140.0118  143.7484 LP  0  0  0  0  0  0  0  0  0  0  0  0  # atno 17321 bound_to 7965
  139.5020  144.6726  151.6207 LP  0  0  0  0  0  0  0  0  0  0  0  0  # atno 17342 bound_to 10162
  140.5974  143.9671  150.6364 LP  0  0  0  0  0  0  0  0  0  0  0  0  # atno 17343 bound_to 10162
  156.8774  130.5167  149.5293 LP  0  0  0  0  0  0  0  0  0  0  0  0  # atno 17370 bound_to 10713
  156.0787  130.5803  150.9522 LP  0  0  0  0  0  0  0  0  0  0  0  0  # atno 17371 bound_to 10713
  140.9355  133.7550  156.0079 LP  0  0  0  0  0  0  0  0  0  0  0  0  # atno 17394 bound_to 11000
  140.8280  134.3211  157.5359 LP  0  0  0  0  0  0  0  0  0  0  0  0  # atno 17395 bound_to 11000

$$$$
