AV-unprocessed.smi:1826|AV-procd|sdf|7417|dock5
  -GOLD-   22720 9 93D 1   1.00000     0.00000
 Structure written by MMmdl.
 40 42  0  0  0  0  0  0  0  0  2 V2000
  147.2236  137.9038  151.1789 O   0  0  0  0  0  0  0  0  0  0  0  0
  146.8430  138.9849  152.0008 C   0  0  0  0  0  0  0  0  0  0  0  0
  147.9293  139.3937  152.9399 C   0  0  0  0  0  0  0  0  0  0  0  0
  149.0698  138.6923  153.1953 N   0  3  0  0  0  0  0  0  0  0  0  0
  149.8524  139.3837  154.1212 C   0  0  0  0  0  0  0  0  0  0  0  0
  151.0857  139.0729  154.6858 C   0  0  0  0  0  0  0  0  0  0  0  0
  151.6127  140.0031  155.6059 C   0  0  0  0  0  0  0  0  0  0  0  0
  150.9196  141.1872  155.9321 C   0  0  0  0  0  0  0  0  0  0  0  0
  149.6701  141.4918  155.3528 C   0  0  0  0  0  0  0  0  0  0  0  0
  149.1565  140.5662  154.4451 C   0  0  0  0  0  0  0  0  0  0  0  0
  147.9770  140.5297  153.6942 N   0  0  0  0  0  0  0  0  0  0  0  0
  147.0191  141.6402  153.8085 C   0  0  0  0  0  0  0  0  0  0  0  0
  145.9919  141.4370  154.9403 C   0  0  2  0  0  0  0  0  0  0  0  0
  145.2962  140.2205  154.7451 O   0  0  0  0  0  0  0  0  0  0  0  0
  145.0525  142.6273  155.0504 C   0  0  0  0  0  0  0  0  0  0  0  0
  145.1069  143.6602  154.0914 C   0  0  0  0  0  0  0  0  0  0  0  0
  144.2333  144.7611  154.1821 C   0  0  0  0  0  0  0  0  0  0  0  0
  143.2903  144.8405  155.2295 C   0  0  0  0  0  0  0  0  0  0  0  0
  142.3544  146.0360  155.3323 C   0  0  0  0  0  0  0  0  0  0  0  0
  141.5763  145.9415  156.4111 F   0  0  0  0  0  0  0  0  0  0  0  0
  143.0774  147.1517  155.4214 F   0  0  0  0  0  0  0  0  0  0  0  0
  141.5685  146.1186  154.2582 F   0  0  0  0  0  0  0  0  0  0  0  0
  143.2388  143.8077  156.1902 C   0  0  0  0  0  0  0  0  0  0  0  0
  144.1114  142.7061  156.0997 C   0  0  0  0  0  0  0  0  0  0  0  0
  147.6058  137.2319  151.7229 H   0  0  0  0  0  0  0  0  0  0  0  0
  146.5650  139.8319  151.3736 H   0  0  0  0  0  0  0  0  0  0  0  0
  145.9567  138.7041  152.5704 H   0  0  0  0  0  0  0  0  0  0  0  0
  151.6188  138.1668  154.4373 H   0  0  0  0  0  0  0  0  0  0  0  0
  152.5677  139.8045  156.0708 H   0  0  0  0  0  0  0  0  0  0  0  0
  151.3551  141.8762  156.6412 H   0  0  0  0  0  0  0  0  0  0  0  0
  149.1464  142.4010  155.6088 H   0  0  0  0  0  0  0  0  0  0  0  0
  147.5805  142.5641  153.9536 H   0  0  0  0  0  0  0  0  0  0  0  0
  146.5119  141.7407  152.8482 H   0  0  0  0  0  0  0  0  0  0  0  0
  146.5238  141.3367  155.8871 H   0  0  0  0  0  0  0  0  0  0  0  0
  144.6986  140.3309  154.0212 H   0  0  0  0  0  0  0  0  0  0  0  0
  145.8195  143.6136  153.2809 H   0  0  0  0  0  0  0  0  0  0  0  0
  144.2920  145.5465  153.4430 H   0  0  0  0  0  0  0  0  0  0  0  0
  142.5291  143.8552  157.0031 H   0  0  0  0  0  0  0  0  0  0  0  0
  144.0547  141.9205  156.8391 H   0  0  0  0  0  0  0  0  0  0  0  0
  149.2943  137.8055  152.7630 H   0  0  0  0  0  0  0  0  0  0  0  0
  1  2  1  0  0  0  0
  1 25  1  0  0  0  0
  2  3  1  0  0  0  0
  2 26  1  0  0  0  0
  2 27  1  0  0  0  0
  3 11  1  0  0  0  0
  3  4  2  0  0  0  0
  4  5  1  0  0  0  0
  4 40  1  0  0  0  0
  5 10  2  0  0  0  0
  5  6  1  0  0  0  0
  6  7  2  0  0  0  0
  6 28  1  0  0  0  0
  7  8  1  0  0  0  0
  7 29  1  0  0  0  0
  8  9  2  0  0  0  0
  8 30  1  0  0  0  0
  9 10  1  0  0  0  0
  9 31  1  0  0  0  0
 10 11  1  0  0  0  0
 11 12  1  0  0  0  0
 12 13  1  0  0  0  0
 12 32  1  0  0  0  0
 12 33  1  0  0  0  0
 13 14  1  0  0  0  0
 13 15  1  0  0  0  0
 13 34  1  0  0  0  0
 14 35  1  0  0  0  0
 15 24  1  0  0  0  0
 15 16  2  0  0  0  0
 16 17  1  0  0  0  0
 16 36  1  0  0  0  0
 17 18  2  0  0  0  0
 17 37  1  0  0  0  0
 18 19  1  0  0  0  0
 18 23  1  0  0  0  0
 19 20  1  0  0  0  0
 19 21  1  0  0  0  0
 19 22  1  0  0  0  0
 23 24  2  0  0  0  0
 23 38  1  0  0  0  0
 24 39  1  0  0  0  0
M  CHG  1   4   1
M  END
> <s_m_source_file>
AV-unprocessed.smi

> <i_m_source_file_index>
1826

> <i_lp_mmshare_version>
43012

> <i_f3d_flags>
0

> <s_epik_input>
W2NIXTFbY0hdW2NIXVtjSF1jKGMxMiluKGMobjIpW0NIMl1bT0hdKVtDSDJdW0NASF0oW09IXSljM1tjSF1bY0hdYyhDKEYpKEYpRilbY0hdW2NIXTM=

> <s_epik_cmdline>
J2VwaWtfcHl0aG9uJywgJy1waCcsICc3LjAnLCAnLXRuJywgJzgnLCAnLW1hJywgJzIwMCcsICctbWV0YWxfYmluZGluZycsICctaW1hZScsICc8aW5maWxlLm1hZT4nLCAnLW9tYWUnLCAnPG91dGZpbGUubWFlPic=

> <r_epik_Ionization_Penalty>
1.35643

> <r_epik_Ionization_Penalty_Charging>
1.35557

> <r_epik_Ionization_Penalty_Neutral>
0.000856405

> <r_epik_State_Penalty>
1.43401

> <r_epik_Charging_Adjusted_Penalty>
2.78958

> <i_epik_Tot_Q>
1

> <i_epik_Tot_abs_Q>
1

> <r_epik_Metal_State_Penalty>
5.47166

> <b_epik_Metal_Only>
0

> <s_lp_Force_Field>
OPLS_2005

> <r_lp_Energy>
15.9337

> <b_lp_Chiralities_Consistent>
1

> <s_lp_Variant>
AV-unprocessed.smi:1826-3

> <Gold.Version>
5.8.1

> <Gold.Id.Protein>
6NUR|6NUR_protein|mol2

> <Gold.PLP.Fitness>
64.0694

> <Gold.PLP.PLP>
-50.5757

> <Gold.PLP.part.hbond>
-5.4424

> <Gold.PLP.part.metal>
0.0000

> <Gold.PLP.part.buried>
1.8603

> <Gold.PLP.part.nonpolar>
-47.0637

> <Gold.PLP.part.repulsive>
0.0888

> <Gold.PLP.ligand.clash>
1.3004

> <Gold.PLP.ligand.torsion>
0.5543

> <Gold.PLP.Chemscore.Hbond>
4.8320

> <Gold.PLP.Chemscore.CHOScore>
0.0000

> <Gold.PLP.Chemscore.Metal>
0.0000

> <Gold.Chemscore.Hbonds>
donor molecule, donor type, donor heavy atom, donor atom, acceptor molecule, acceptor atom, score
      L1  H     1    25       P1  7948  0.82
      L1  H     4    40       P1  7948  2.00
      L1  H    14    35       P1 10175  1.00
      P1  H  7954  7966       L1     1  1.00

> <Gold.PLP.Chemscore.Internal.Correction>
1.4068

> <Gold.Rescore>
     Score         DG    S(hbond)    S(metal)    S(lipo)     H(rot)  DE(clash)    DE(int)     intcor
     17.75     -19.58       3.33        0.00      90.82       2.98       1.32       0.51       ----

> <Gold.Chemscore.Fitness>
17.7472

> <Gold.Chemscore.DG>
-19.5766

> <Gold.Chemscore.ZeroCoef>
-5.4800

> <Gold.Chemscore.Hbond>
3.3250

> <Gold.Chemscore.Metal>
0.0000

> <Gold.Chemscore.Lipo>
90.8157

> <Gold.Chemscore.Internal_Hbond>
0.0000

> <Gold.Chemscore.DEClash>
1.3160

> <Gold.Chemscore.DEInternal>
0.5135

> <Gold.Chemscore.Rot>
2.9822

> <Gold.Chemscore.Internal.Correction>
   9.000000E+99

> <Gold.Chemscore.Hbonds>
donor molecule, donor type, donor heavy atom, donor atom, acceptor molecule, acceptor atom, score
      L1  H     1    25       P1  7948  0.81
      L1  H     4    40       P1  7948  0.93
      L1  H    14    35       P1 10175  1.00
      P1  H  7954  7966       L1     1  0.34

> <Gold.Chemscore.Hbond.Weighted>
-11.1055

> <Gold.Chemscore.Metal.Weighted>
-0.0000

> <Gold.Chemscore.Lipo.Weighted>
-10.6254

> <Gold.Chemscore.Internal_Hbond.Weighted>
0.0000

> <Gold.Chemscore.DEClash.Weighted>
1.3160

> <Gold.Chemscore.DEInternal.Weighted>
0.5135

> <Gold.Chemscore.Rot.Weighted>
7.6343

> <Gold.Chemscore.Internal.Correction.Weighted>
   9.000000E+99

> <Gold.Protein.RotatedTorsions>
[ 6907 6896 6895 6894 ] final   12.21 input  -60.11 | X-H torsion
[ 7974 7965 7964 7962 ] final -170.87 input  175.53 | X-H torsion
[ 8008 7997 7996 7995 ] final   47.86 input   59.86 | X-H torsion
[ 10167 10162 10161 10158 ] final  -59.10 input  -65.29 | X-H torsion
[ 10718 10713 10712 10709 ] final   53.32 input   66.30 | X-H torsion
[ 10763 10752 10751 10750 ] final  -41.71 input  -60.55 | X-H torsion
[ 11005 11000 10999 10996 ] final   -6.07 input  -57.11 | X-H torsion

> <Gold.Protein.ActiveResidues>
 VAL166  LYS551  ARG553  GLY616  TRP617  ASP618  TYR619  PRO620  LYS621  CYS622 
 ASP623  PHE694  ASN695  SER759  ASP760  ASP761  ALA762  ILE779  LEU786  VAL792 
 PHE793  MET794  SER795  GLU796  ALA797  LYS798  CYS799  TRP800  GLU811  SER814 

> <Gold.Protein.RotatedAtoms>
  151.7667  135.0796  160.0353 H   0  0  0  0  0  0  0  0  0  0  0  0  # atno 6907 bound_to 6896
  152.3316  133.5960  159.5822 H   0  0  0  0  0  0  0  0  0  0  0  0  # atno 6908 bound_to 6896
  150.7426  133.9775  159.3607 H   0  0  0  0  0  0  0  0  0  0  0  0  # atno 6909 bound_to 6896
  144.7164  140.2007  143.6338 H   0  0  0  0  0  0  0  0  0  0  0  0  # atno 7974 bound_to 7965
  155.3761  140.3426  155.4245 H   0  0  0  0  0  0  0  0  0  0  0  0  # atno 8008 bound_to 7997
  156.1636  140.1608  156.8604 H   0  0  0  0  0  0  0  0  0  0  0  0  # atno 8009 bound_to 7997
  154.5163  140.0777  156.8070 H   0  0  0  0  0  0  0  0  0  0  0  0  # atno 8010 bound_to 7997
  140.6156  143.2401  151.5605 H   0  0  0  0  0  0  0  0  0  0  0  0  # atno 10167 bound_to 10162
  157.5156  130.8530  149.8492 H   0  0  0  0  0  0  0  0  0  0  0  0  # atno 10718 bound_to 10713
  153.9670  135.6733  153.4746 H   0  0  0  0  0  0  0  0  0  0  0  0  # atno 10763 bound_to 10752
  153.0811  135.4923  154.8501 H   0  0  0  0  0  0  0  0  0  0  0  0  # atno 10764 bound_to 10752
  154.7240  135.3123  154.8961 H   0  0  0  0  0  0  0  0  0  0  0  0  # atno 10765 bound_to 10752
  140.6980  133.9014  155.8663 H   0  0  0  0  0  0  0  0  0  0  0  0  # atno 11005 bound_to 11000
  145.8682  139.2258  143.1676 LP  0  0  0  0  0  0  0  0  0  0  0  0  # atno 17320 bound_to 7965
  146.0109  140.8436  142.9971 LP  0  0  0  0  0  0  0  0  0  0  0  0  # atno 17321 bound_to 7965
  139.5396  144.2684  152.1323 LP  0  0  0  0  0  0  0  0  0  0  0  0  # atno 17342 bound_to 10162
  140.1893  144.4767  150.6487 LP  0  0  0  0  0  0  0  0  0  0  0  0  # atno 17343 bound_to 10162
  156.0318  130.3762  150.1666 LP  0  0  0  0  0  0  0  0  0  0  0  0  # atno 17370 bound_to 10713
  156.9855  130.9877  151.3427 LP  0  0  0  0  0  0  0  0  0  0  0  0  # atno 17371 bound_to 10713
  141.0187  134.0919  157.4144 LP  0  0  0  0  0  0  0  0  0  0  0  0  # atno 17394 bound_to 11000
  139.8905  135.0112  156.6737 LP  0  0  0  0  0  0  0  0  0  0  0  0  # atno 17395 bound_to 11000

$$$$
