AV-unprocessed.smi:1169|AV-procd|sdf|4940|dock6
  -GOLD-   22720 3523D 1   1.00000     0.00000
 Structure written by MMmdl.
 29 30  0  0  0  0  0  0  0  0  1 V2000
  152.7977  139.6872  155.6677 O   0  0  0  0  0  0  0  0  0  0  0  0
  152.0799  139.9693  156.6267 C   0  0  0  0  0  0  0  0  0  0  0  0
  152.5822  139.7110  158.0523 C   0  0  0  0  0  0  0  0  0  0  0  0
  152.5973  140.9158  158.8664 N   0  0  0  0  0  0  0  0  0  0  0  0
  153.1696  141.1043  160.1062 C   0  0  0  0  0  0  0  0  0  0  0  0
  152.9158  142.3928  160.4783 C   0  0  0  0  0  0  0  0  0  0  0  0
  152.1736  142.9298  159.3864 C   0  0  0  0  0  0  0  0  0  0  0  0
  151.6142  144.3193  159.2302 C   0  0  0  0  0  0  0  0  0  0  0  0
  151.7614  145.0071  160.3624 F   0  0  0  0  0  0  0  0  0  0  0  0
  152.2546  144.9603  158.2527 F   0  0  0  0  0  0  0  0  0  0  0  0
  150.3165  144.2568  158.9330 F   0  0  0  0  0  0  0  0  0  0  0  0
  151.9894  142.0372  158.4229 N   0  0  0  0  0  0  0  0  0  0  0  0
  150.8450  140.4805  156.4936 N   0  0  0  0  0  0  0  0  0  0  0  0
  150.1876  140.7705  155.2269 C   0  0  0  0  0  0  0  0  0  0  0  0
  148.7392  141.2024  155.3490 C   0  0  0  0  0  0  0  0  0  0  0  0
  147.6213  140.2187  155.0958 C   0  0  0  0  0  0  0  0  0  0  0  0
  147.8662  141.3493  154.1251 C   0  0  0  0  0  0  0  0  0  0  0  0
  151.9406  138.9700  158.5302 H   0  0  0  0  0  0  0  0  0  0  0  0
  153.5892  139.2915  158.0233 H   0  0  0  0  0  0  0  0  0  0  0  0
  153.6999  140.3136  160.6164 H   0  0  0  0  0  0  0  0  0  0  0  0
  153.2151  142.8801  161.3943 H   0  0  0  0  0  0  0  0  0  0  0  0
  150.3233  140.6832  157.3339 H   0  0  0  0  0  0  0  0  0  0  0  0
  150.7545  141.5560  154.7261 H   0  0  0  0  0  0  0  0  0  0  0  0
  150.2389  139.8966  154.5754 H   0  0  0  0  0  0  0  0  0  0  0  0
  148.5603  141.9139  156.1532 H   0  0  0  0  0  0  0  0  0  0  0  0
  147.8913  139.2145  154.7746 H   0  0  0  0  0  0  0  0  0  0  0  0
  146.7411  140.2839  155.7322 H   0  0  0  0  0  0  0  0  0  0  0  0
  147.1513  142.1695  154.1156 H   0  0  0  0  0  0  0  0  0  0  0  0
  148.2997  141.0979  153.1591 H   0  0  0  0  0  0  0  0  0  0  0  0
  1  2  2  0  0  0  0
  2  3  1  0  0  0  0
  2 13  1  0  0  0  0
  3  4  1  0  0  0  0
  3 18  1  0  0  0  0
  3 19  1  0  0  0  0
  4 12  1  0  0  0  0
  4  5  1  0  0  0  0
  5  6  2  0  0  0  0
  5 20  1  0  0  0  0
  6  7  1  0  0  0  0
  6 21  1  0  0  0  0
  7  8  1  0  0  0  0
  7 12  2  0  0  0  0
  8  9  1  0  0  0  0
  8 10  1  0  0  0  0
  8 11  1  0  0  0  0
 13 14  1  0  0  0  0
 13 22  1  0  0  0  0
 14 15  1  0  0  0  0
 14 23  1  0  0  0  0
 14 24  1  0  0  0  0
 15 17  1  0  0  0  0
 15 16  1  0  0  0  0
 15 25  1  0  0  0  0
 16 17  1  0  0  0  0
 16 26  1  0  0  0  0
 16 27  1  0  0  0  0
 17 28  1  0  0  0  0
 17 29  1  0  0  0  0
M  END
> <s_m_source_file>
AV-unprocessed.smi

> <i_m_source_file_index>
1169

> <i_lp_mmshare_version>
43012

> <i_f3d_flags>
0

> <s_epik_input>
W0NIMl0xW0NIMl1bQ0hdMVtDSDJdW05IXUMoPU8pW0NIMl1uMltjSF1bY0hdYyhuMilDKEYpKEYpRg==

> <s_epik_cmdline>
J2VwaWtfcHl0aG9uJywgJy1waCcsICc3LjAnLCAnLXRuJywgJzgnLCAnLW1hJywgJzIwMCcsICctbWV0YWxfYmluZGluZycsICctaW1hZScsICc8aW5maWxlLm1hZT4nLCAnLW9tYWUnLCAnPG91dGZpbGUubWFlPic=

> <r_lp_tautomer_probability>
1

> <r_epik_Ionization_Penalty>
8.05593e-08

> <r_epik_Ionization_Penalty_Charging>
0

> <r_epik_Ionization_Penalty_Neutral>
8.05593e-08

> <r_epik_State_Penalty>
-0

> <r_epik_Charging_Adjusted_Penalty>
0

> <i_epik_Tot_Q>
0

> <i_epik_Tot_abs_Q>
0

> <r_epik_Metal_State_Penalty>
-0

> <b_epik_Metal_Only>
0

> <s_lp_Force_Field>
OPLS_2005

> <r_lp_Energy>
14.9907

> <b_lp_Chiralities_Consistent>
1

> <s_lp_Variant>
AV-unprocessed.smi:1169-1

> <Gold.Version>
5.8.1

> <Gold.Id.Protein>
6NUR|6NUR_protein|mol2

> <Gold.PLP.Fitness>
44.4711

> <Gold.PLP.PLP>
-42.1415

> <Gold.PLP.part.hbond>
-1.0000

> <Gold.PLP.part.metal>
0.0000

> <Gold.PLP.part.buried>
-5.2434

> <Gold.PLP.part.nonpolar>
-36.2205

> <Gold.PLP.part.repulsive>
0.0713

> <Gold.PLP.ligand.clash>
0.0000

> <Gold.PLP.ligand.torsion>
0.6060

> <Gold.PLP.Chemscore.Hbond>
1.0000

> <Gold.PLP.Chemscore.CHOScore>
0.0000

> <Gold.PLP.Chemscore.Metal>
0.0000

> <Gold.Chemscore.Hbonds>
donor molecule, donor type, donor heavy atom, donor atom, acceptor molecule, acceptor atom, score
      P1  H  7997  8008       L1     1  1.00

> <Gold.PLP.Chemscore.Internal.Correction>
0.5416

> <Gold.Rescore>
     Score         DG    S(hbond)    S(metal)    S(lipo)     H(rot)  DE(clash)    DE(int)     intcor
     12.20     -12.70       0.98        0.00      73.77       1.84       0.02       0.48       ----

> <Gold.Chemscore.Fitness>
12.2033

> <Gold.Chemscore.DG>
-12.6995

> <Gold.Chemscore.ZeroCoef>
-5.4800

> <Gold.Chemscore.Hbond>
0.9847

> <Gold.Chemscore.Metal>
0.0000

> <Gold.Chemscore.Lipo>
73.7660

> <Gold.Chemscore.Internal_Hbond>
0.0000

> <Gold.Chemscore.DEClash>
0.0159

> <Gold.Chemscore.DEInternal>
0.4802

> <Gold.Chemscore.Rot>
1.8359

> <Gold.Chemscore.Internal.Correction>
   9.000000E+99

> <Gold.Chemscore.Hbonds>
donor molecule, donor type, donor heavy atom, donor atom, acceptor molecule, acceptor atom, score
      P1  H  7997  8008       L1     1  0.81

> <Gold.Chemscore.Hbond.Weighted>
-3.2888

> <Gold.Chemscore.Metal.Weighted>
-0.0000

> <Gold.Chemscore.Lipo.Weighted>
-8.6306

> <Gold.Chemscore.Internal_Hbond.Weighted>
0.0000

> <Gold.Chemscore.DEClash.Weighted>
0.0159

> <Gold.Chemscore.DEInternal.Weighted>
0.4802

> <Gold.Chemscore.Rot.Weighted>
4.7000

> <Gold.Chemscore.Internal.Correction.Weighted>
   9.000000E+99

> <Gold.Protein.RotatedTorsions>
[ 6907 6896 6895 6894 ] final   90.05 input  -60.11 | X-H torsion
[ 7974 7965 7964 7962 ] final   59.82 input  175.53 | X-H torsion
[ 8008 7997 7996 7995 ] final  -15.96 input   59.86 | X-H torsion
[ 10167 10162 10161 10158 ] final  -88.55 input  -65.29 | X-H torsion
[ 10718 10713 10712 10709 ] final  -72.51 input   66.30 | X-H torsion
[ 10763 10752 10751 10750 ] final  -21.68 input  -60.55 | X-H torsion
[ 11005 11000 10999 10996 ] final  166.22 input  -57.11 | X-H torsion

> <Gold.Protein.ActiveResidues>
 VAL166  LYS551  ARG553  GLY616  TRP617  ASP618  TYR619  PRO620  LYS621  CYS622 
 ASP623  PHE694  ASN695  SER759  ASP760  ASP761  ALA762  ILE779  LEU786  VAL792 
 PHE793  MET794  SER795  GLU796  ALA797  LYS798  CYS799  TRP800  GLU811  SER814 

> <Gold.Protein.RotatedAtoms>
  152.5441  134.1871  159.8658 H   0  0  0  0  0  0  0  0  0  0  0  0  # atno 6907 bound_to 6896
  151.1869  133.4684  159.2602 H   0  0  0  0  0  0  0  0  0  0  0  0  # atno 6908 bound_to 6896
  151.1122  135.0045  159.8555 H   0  0  0  0  0  0  0  0  0  0  0  0  # atno 6909 bound_to 6896
  145.9029  139.3595  143.0582 H   0  0  0  0  0  0  0  0  0  0  0  0  # atno 7974 bound_to 7965
  154.5090  140.2182  155.9194 H   0  0  0  0  0  0  0  0  0  0  0  0  # atno 8008 bound_to 7997
  156.1529  140.3158  155.8644 H   0  0  0  0  0  0  0  0  0  0  0  0  # atno 8009 bound_to 7997
  155.3904  140.0478  157.3031 H   0  0  0  0  0  0  0  0  0  0  0  0  # atno 8010 bound_to 7997
  140.3736  143.2782  151.9470 H   0  0  0  0  0  0  0  0  0  0  0  0  # atno 10167 bound_to 10162
  156.0317  130.4374  150.2603 H   0  0  0  0  0  0  0  0  0  0  0  0  # atno 10718 bound_to 10713
  153.6399  135.6985  153.5245 H   0  0  0  0  0  0  0  0  0  0  0  0  # atno 10763 bound_to 10752
  153.2791  135.4191  155.1060 H   0  0  0  0  0  0  0  0  0  0  0  0  # atno 10764 bound_to 10752
  154.8502  135.3597  154.5943 H   0  0  0  0  0  0  0  0  0  0  0  0  # atno 10765 bound_to 10752
  140.2642  134.7878  157.3617 H   0  0  0  0  0  0  0  0  0  0  0  0  # atno 11005 bound_to 11000
  145.8768  140.9387  143.0622 LP  0  0  0  0  0  0  0  0  0  0  0  0  # atno 17320 bound_to 7965
  144.6737  140.0728  143.7472 LP  0  0  0  0  0  0  0  0  0  0  0  0  # atno 17321 bound_to 7965
  139.4801  144.5884  151.7814 LP  0  0  0  0  0  0  0  0  0  0  0  0  # atno 17342 bound_to 10162
  140.5008  144.1171  150.5971 LP  0  0  0  0  0  0  0  0  0  0  0  0  # atno 17343 bound_to 10162
  157.0705  131.0115  151.3192 LP  0  0  0  0  0  0  0  0  0  0  0  0  # atno 17370 bound_to 10713
  157.5003  130.7876  149.7597 LP  0  0  0  0  0  0  0  0  0  0  0  0  # atno 17371 bound_to 10713
  140.1435  134.4941  155.8013 LP  0  0  0  0  0  0  0  0  0  0  0  0  # atno 17394 bound_to 11000
  141.2186  133.6834  156.7253 LP  0  0  0  0  0  0  0  0  0  0  0  0  # atno 17395 bound_to 11000

$$$$
