AV-unprocessed.smi:249|AV-procd|sdf|1920|dock10
  -GOLD-   2262021 23D 1   1.00000     0.00000
 Structure written by MMmdl.
 64 67  0  0  0  0  0  0  0  0  2 V2000
  147.7014  129.3901  153.2362 C   0  0  0  0  0  0  0  0  0  0  0  0
  147.3001  130.8679  153.3617 C   0  0  0  0  0  0  0  0  0  0  0  0
  148.3814  131.8061  152.9383 N   0  3  2  0  0  0  0  0  0  0  0  0
  149.6001  131.7553  153.7949 C   0  0  0  0  0  0  0  0  0  0  0  0
  149.3705  132.4208  155.1658 C   0  0  0  0  0  0  0  0  0  0  0  0
  148.8805  133.8723  154.9958 C   0  0  2  0  0  0  0  0  0  0  0  0
  148.6493  134.5412  156.2811 N   0  0  0  0  0  0  0  0  0  0  0  0
  149.0246  133.8764  157.5286 C   0  0  0  0  0  0  0  0  0  0  0  0
  148.7569  135.8947  156.2581 C   0  0  0  0  0  0  0  0  0  0  0  0
  148.2018  136.5965  155.2341 N   0  0  0  0  0  0  0  0  0  0  0  0
  148.2833  137.9299  155.2075 C   0  0  0  0  0  0  0  0  0  0  0  0
  148.8671  138.7474  156.0856 N   0  0  0  0  0  0  0  0  0  0  0  0
  149.4363  138.0493  157.1090 C   0  0  0  0  0  0  0  0  0  0  0  0
  149.4246  136.6355  157.2740 C   0  0  0  0  0  0  0  0  0  0  0  0
  150.1047  136.2892  158.4361 N   0  0  0  0  0  0  0  0  0  0  0  0
  150.4903  137.4328  158.9329 C   0  0  0  0  0  0  0  0  0  0  0  0
  150.1483  138.5401  158.1896 N   0  0  0  0  0  0  0  0  0  0  0  0
  150.4471  139.9251  158.5089 C   0  0  0  0  0  0  0  0  0  0  0  0
  150.8810  140.7909  157.2964 C   0  0  1  0  0  0  0  0  0  0  0  0
  149.6220  141.3437  156.5888 C   0  0  0  0  0  0  0  0  0  0  0  0
  149.9472  141.9920  155.3755 O   0  0  0  0  0  0  0  0  0  0  0  0
  151.9125  141.9063  157.6374 C   0  0  2  0  0  0  0  0  0  0  0  0
  152.6896  141.6791  158.9250 C   0  0  0  0  0  0  0  0  0  0  0  0
  153.2299  143.0694  159.2249 C   0  0  0  0  0  0  0  0  0  0  0  0
  152.1757  143.9444  158.8556 O   0  0  0  0  0  0  0  0  0  0  0  0
  151.3263  143.3018  157.9092 C   0  0  0  0  0  0  0  0  0  0  0  0
  147.6481  133.9204  154.0714 C   0  0  0  0  0  0  0  0  0  0  0  0
  147.9497  133.2226  152.7288 C   0  0  2  0  0  0  0  0  0  0  0  0
  146.8041  133.3753  151.7118 C   0  0  0  0  0  0  0  0  0  0  0  0
  146.8392  128.7460  153.4100 H   0  0  0  0  0  0  0  0  0  0  0  0
  148.4606  129.1047  153.9636 H   0  0  0  0  0  0  0  0  0  0  0  0
  148.0825  129.1669  152.2392 H   0  0  0  0  0  0  0  0  0  0  0  0
  146.4262  131.0014  152.7275 H   0  0  0  0  0  0  0  0  0  0  0  0
  146.9715  131.0823  154.3783 H   0  0  0  0  0  0  0  0  0  0  0  0
  149.9559  130.7343  153.9219 H   0  0  0  0  0  0  0  0  0  0  0  0
  150.4048  132.2773  153.2751 H   0  0  0  0  0  0  0  0  0  0  0  0
  148.6550  131.8377  155.7454 H   0  0  0  0  0  0  0  0  0  0  0  0
  150.3015  132.4085  155.7338 H   0  0  0  0  0  0  0  0  0  0  0  0
  149.6732  134.4028  154.4691 H   0  0  0  0  0  0  0  0  0  0  0  0
  148.6273  134.4176  158.3885 H   0  0  0  0  0  0  0  0  0  0  0  0
  150.1084  133.8208  157.6327 H   0  0  0  0  0  0  0  0  0  0  0  0
  148.6247  132.8646  157.5748 H   0  0  0  0  0  0  0  0  0  0  0  0
  147.8138  138.4104  154.3618 H   0  0  0  0  0  0  0  0  0  0  0  0
  151.0511  137.4996  159.8539 H   0  0  0  0  0  0  0  0  0  0  0  0
  149.5523  140.3481  158.9671 H   0  0  0  0  0  0  0  0  0  0  0  0
  151.2204  139.9427  159.2779 H   0  0  0  0  0  0  0  0  0  0  0  0
  151.3548  140.1275  156.5725 H   0  0  0  0  0  0  0  0  0  0  0  0
  148.9049  140.5493  156.3828 H   0  0  0  0  0  0  0  0  0  0  0  0
  149.1060  142.0547  157.2348 H   0  0  0  0  0  0  0  0  0  0  0  0
  149.4299  142.7804  155.3084 H   0  0  0  0  0  0  0  0  0  0  0  0
  152.6333  141.9897  156.8223 H   0  0  0  0  0  0  0  0  0  0  0  0
  152.0209  141.3589  159.7255 H   0  0  0  0  0  0  0  0  0  0  0  0
  153.4841  140.9391  158.8239 H   0  0  0  0  0  0  0  0  0  0  0  0
  153.5115  143.1982  160.2702 H   0  0  0  0  0  0  0  0  0  0  0  0
  154.1020  143.2837  158.6057 H   0  0  0  0  0  0  0  0  0  0  0  0
  151.2607  143.9011  157.0020 H   0  0  0  0  0  0  0  0  0  0  0  0
  150.3292  143.2361  158.3456 H   0  0  0  0  0  0  0  0  0  0  0  0
  146.7852  133.4498  154.5416 H   0  0  0  0  0  0  0  0  0  0  0  0
  147.3718  134.9604  153.8924 H   0  0  0  0  0  0  0  0  0  0  0  0
  148.8054  133.7328  152.2834 H   0  0  0  0  0  0  0  0  0  0  0  0
  146.6772  134.4223  151.4346 H   0  0  0  0  0  0  0  0  0  0  0  0
  145.8480  133.0375  152.1112 H   0  0  0  0  0  0  0  0  0  0  0  0
  147.0092  132.8185  150.7970 H   0  0  0  0  0  0  0  0  0  0  0  0
  148.6707  131.4765  152.0283 H   0  0  0  0  0  0  0  0  0  0  0  0
  1  2  1  0  0  0  0
  1 30  1  0  0  0  0
  1 31  1  0  0  0  0
  1 32  1  0  0  0  0
  2  3  1  0  0  0  0
  2 33  1  0  0  0  0
  2 34  1  0  0  0  0
  3 28  1  0  0  0  0
  3  4  1  0  0  0  0
  3 64  1  0  0  0  0
  4  5  1  0  0  0  0
  4 35  1  0  0  0  0
  4 36  1  0  0  0  0
  5  6  1  0  0  0  0
  5 37  1  0  0  0  0
  5 38  1  0  0  0  0
  6  7  1  0  0  0  0
  6 27  1  0  0  0  0
  6 39  1  0  0  0  0
  7  8  1  0  0  0  0
  7  9  1  0  0  0  0
  8 40  1  0  0  0  0
  8 41  1  0  0  0  0
  8 42  1  0  0  0  0
  9 14  1  0  0  0  0
  9 10  2  0  0  0  0
 10 11  1  0  0  0  0
 11 12  2  0  0  0  0
 11 43  1  0  0  0  0
 12 13  1  0  0  0  0
 13 17  1  0  0  0  0
 13 14  2  0  0  0  0
 14 15  1  0  0  0  0
 15 16  2  0  0  0  0
 16 17  1  0  0  0  0
 16 44  1  0  0  0  0
 17 18  1  0  0  0  0
 18 19  1  0  0  0  0
 18 45  1  0  0  0  0
 18 46  1  0  0  0  0
 19 20  1  0  0  0  0
 19 22  1  0  0  0  0
 19 47  1  0  0  0  0
 20 21  1  0  0  0  0
 20 48  1  0  0  0  0
 20 49  1  0  0  0  0
 21 50  1  0  0  0  0
 22 26  1  0  0  0  0
 22 23  1  0  0  0  0
 22 51  1  0  0  0  0
 23 24  1  0  0  0  0
 23 52  1  0  0  0  0
 23 53  1  0  0  0  0
 24 25  1  0  0  0  0
 24 54  1  0  0  0  0
 24 55  1  0  0  0  0
 25 26  1  0  0  0  0
 26 56  1  0  0  0  0
 26 57  1  0  0  0  0
 27 28  1  0  0  0  0
 27 58  1  0  0  0  0
 27 59  1  0  0  0  0
 28 29  1  0  0  0  0
 28 60  1  0  0  0  0
 29 61  1  0  0  0  0
 29 62  1  0  0  0  0
 29 63  1  0  0  0  0
M  CHG  1   3   1
M  END
> <s_m_source_file>
AV-unprocessed.smi

> <i_m_source_file_index>
249

> <i_lp_mmshare_version>
43012

> <i_f3d_flags>
0

> <s_epik_input>
W0NIM11bQ0gyXU4xW0NIMl1bQ0gyXVtDQEhdKFtDSDJdW0NASF0xW0NIM10pTihbQ0gzXSljKG5bY0hdbjIpYyhjMjMpbltjSF1uM1tDSDJdW0NASF0oW0NIMl1bT0hdKVtDQEBIXTRbQ0gyXVtDSDJdT1tDSDJdNA==

> <s_epik_cmdline>
J2VwaWtfcHl0aG9uJywgJy1waCcsICc3LjAnLCAnLXRuJywgJzgnLCAnLW1hJywgJzIwMCcsICctbWV0YWxfYmluZGluZycsICctaW1hZScsICc8aW5maWxlLm1hZT4nLCAnLW9tYWUnLCAnPG91dGZpbGUubWFlPic=

> <r_lp_tautomer_probability>
1

> <r_epik_Ionization_Penalty>
0.00294688

> <r_epik_Ionization_Penalty_Charging>
0.00169971

> <r_epik_Ionization_Penalty_Neutral>
0.00124717

> <r_epik_State_Penalty>
-0

> <r_epik_Charging_Adjusted_Penalty>
0.00169971

> <i_epik_Tot_Q>
1

> <i_epik_Tot_abs_Q>
1

> <r_epik_Metal_State_Penalty>
-0

> <b_epik_Metal_Only>
0

> <s_lp_Force_Field>
OPLS_2005

> <r_lp_Energy>
55.0731

> <b_lp_Chiralities_Consistent>
1

> <s_lp_Variant>
AV-unprocessed.smi:249-23

> <Gold.Version>
5.8.1

> <Gold.Id.Protein>
6NUR|6NUR_protein|mol2

> <Gold.PLP.Fitness>
42.3997

> <Gold.PLP.PLP>
-37.1585

> <Gold.PLP.part.hbond>
-3.0000

> <Gold.PLP.part.metal>
0.0000

> <Gold.PLP.part.buried>
-6.2741

> <Gold.PLP.part.nonpolar>
-26.6895

> <Gold.PLP.part.repulsive>
0.0955

> <Gold.PLP.ligand.clash>
0.0000

> <Gold.PLP.ligand.torsion>
2.4037

> <Gold.PLP.Chemscore.Hbond>
2.9263

> <Gold.PLP.Chemscore.CHOScore>
0.0000

> <Gold.PLP.Chemscore.Metal>
0.0000

> <Gold.Chemscore.Hbonds>
donor molecule, donor type, donor heavy atom, donor atom, acceptor molecule, acceptor atom, score
      L1  H     3    64       P1 10747  1.00
      L1  H    21    50       P1  8028  0.98
      P1  H  6896  6908       L1    15  0.98

> <Gold.PLP.Chemscore.Internal.Correction>
1.2698

> <Gold.Rescore>
     Score         DG    S(hbond)    S(metal)    S(lipo)     H(rot)  DE(clash)    DE(int)     intcor
     13.88     -19.32       2.71        0.00      98.79       2.65       0.27       5.16       ----

> <Gold.Chemscore.Fitness>
13.8844

> <Gold.Chemscore.DG>
-19.3170

> <Gold.Chemscore.ZeroCoef>
-5.4800

> <Gold.Chemscore.Hbond>
2.7147

> <Gold.Chemscore.Metal>
0.0000

> <Gold.Chemscore.Lipo>
98.7859

> <Gold.Chemscore.Internal_Hbond>
0.0000

> <Gold.Chemscore.DEClash>
0.2693

> <Gold.Chemscore.DEInternal>
5.1633

> <Gold.Chemscore.Rot>
2.6515

> <Gold.Chemscore.Internal.Correction>
   9.000000E+99

> <Gold.Chemscore.Hbonds>
donor molecule, donor type, donor heavy atom, donor atom, acceptor molecule, acceptor atom, score
      L1  H     3    64       P1 10747  0.97
      L1  H    21    50       P1  8028  0.92
      P1  H  6896  6908       L1    15  0.61

> <Gold.Chemscore.Hbond.Weighted>
-9.0670

> <Gold.Chemscore.Metal.Weighted>
-0.0000

> <Gold.Chemscore.Lipo.Weighted>
-11.5580

> <Gold.Chemscore.Internal_Hbond.Weighted>
0.0000

> <Gold.Chemscore.DEClash.Weighted>
0.2693

> <Gold.Chemscore.DEInternal.Weighted>
5.1633

> <Gold.Chemscore.Rot.Weighted>
6.7880

> <Gold.Chemscore.Internal.Correction.Weighted>
   9.000000E+99

> <Gold.Protein.RotatedTorsions>
[ 6907 6896 6895 6894 ] final -176.73 input  -60.11 | X-H torsion
[ 7974 7965 7964 7962 ] final  113.53 input  175.53 | X-H torsion
[ 8008 7997 7996 7995 ] final  -51.75 input   59.86 | X-H torsion
[ 10167 10162 10161 10158 ] final   89.23 input  -65.29 | X-H torsion
[ 10718 10713 10712 10709 ] final  112.21 input   66.30 | X-H torsion
[ 10763 10752 10751 10750 ] final   69.56 input  -60.55 | X-H torsion
[ 11005 11000 10999 10996 ] final  131.06 input  -57.11 | X-H torsion

> <Gold.Protein.ActiveResidues>
 VAL166  LYS551  ARG553  GLY616  TRP617  ASP618  TYR619  PRO620  LYS621  CYS622 
 ASP623  PHE694  ASN695  SER759  ASP760  ASP761  ALA762  ILE779  LEU786  VAL792 
 PHE793  MET794  SER795  GLU796  ALA797  LYS798  CYS799  TRP800  GLU811  SER814 

> <Gold.Protein.RotatedAtoms>
  151.6095  133.3348  159.3064 H   0  0  0  0  0  0  0  0  0  0  0  0  # atno 6907 bound_to 6896
  150.8164  134.7351  159.6745 H   0  0  0  0  0  0  0  0  0  0  0  0  # atno 6908 bound_to 6896
  152.4259  134.5874  160.0016 H   0  0  0  0  0  0  0  0  0  0  0  0  # atno 6909 bound_to 6896
  145.2158  139.2885  143.4244 H   0  0  0  0  0  0  0  0  0  0  0  0  # atno 7974 bound_to 7965
  154.4090  140.1240  156.4879 H   0  0  0  0  0  0  0  0  0  0  0  0  # atno 8008 bound_to 7997
  155.7020  140.3494  155.4917 H   0  0  0  0  0  0  0  0  0  0  0  0  # atno 8009 bound_to 7997
  155.9377  140.1081  157.1071 H   0  0  0  0  0  0  0  0  0  0  0  0  # atno 8010 bound_to 7997
  139.8594  144.6552  150.9076 H   0  0  0  0  0  0  0  0  0  0  0  0  # atno 10167 bound_to 10162
  157.6404  131.0964  150.6862 H   0  0  0  0  0  0  0  0  0  0  0  0  # atno 10718 bound_to 10713
  153.0294  135.5206  154.7307 H   0  0  0  0  0  0  0  0  0  0  0  0  # atno 10763 bound_to 10752
  154.6336  135.2903  155.0190 H   0  0  0  0  0  0  0  0  0  0  0  0  # atno 10764 bound_to 10752
  154.1133  135.6619  153.4941 H   0  0  0  0  0  0  0  0  0  0  0  0  # atno 10765 bound_to 10752
  139.9708  134.9578  156.9384 H   0  0  0  0  0  0  0  0  0  0  0  0  # atno 11005 bound_to 11000
  146.3387  140.2448  142.8597 LP  0  0  0  0  0  0  0  0  0  0  0  0  # atno 17320 bound_to 7965
  144.9812  140.8461  143.5396 LP  0  0  0  0  0  0  0  0  0  0  0  0  # atno 17321 bound_to 7965
  140.7777  143.3758  151.1566 LP  0  0  0  0  0  0  0  0  0  0  0  0  # atno 17342 bound_to 10162
  139.7389  143.8956  152.3043 LP  0  0  0  0  0  0  0  0  0  0  0  0  # atno 17343 bound_to 10162
  156.7187  130.4674  149.5528 LP  0  0  0  0  0  0  0  0  0  0  0  0  # atno 17370 bound_to 10713
  156.1680  130.6418  151.0802 LP  0  0  0  0  0  0  0  0  0  0  0  0  # atno 17371 bound_to 10713
  140.5297  134.0826  155.7312 LP  0  0  0  0  0  0  0  0  0  0  0  0  # atno 17394 bound_to 11000
  141.1388  133.9175  157.2374 LP  0  0  0  0  0  0  0  0  0  0  0  0  # atno 17395 bound_to 11000

$$$$
