AV-unprocessed.smi:2953|AV-procd|sdf|11295|dock6
  -GOLD-   2272016193D 1   1.00000     0.00000
 Structure written by MMmdl.
 46 48  0  0  0  0  0  0  0  0  2 V2000
  147.8133  137.0762  163.1030 C   0  0  0  0  0  0  0  0  0  0  0  0
  147.6203  135.8563  162.2217 C   0  0  0  0  0  0  0  0  0  0  0  0
  147.2963  134.6165  162.8118 C   0  0  0  0  0  0  0  0  0  0  0  0
  147.1161  133.4750  162.0103 C   0  0  0  0  0  0  0  0  0  0  0  0
  147.2597  133.5705  160.6149 C   0  0  0  0  0  0  0  0  0  0  0  0
  147.5832  134.8051  160.0208 C   0  0  0  0  0  0  0  0  0  0  0  0
  147.7683  135.9634  160.8189 C   0  0  0  0  0  0  0  0  0  0  0  0
  148.0895  137.2034  160.3054 O   0  0  0  0  0  0  0  0  0  0  0  0
  147.9543  137.4125  158.9077 C   0  0  0  0  0  0  0  0  0  0  0  0
  149.0798  136.6554  158.1930 C   0  0  0  0  0  0  0  0  0  0  0  0
  149.2275  137.0878  156.7971 N   0  0  0  0  0  0  0  0  0  0  0  0
  149.2304  136.3614  155.6418 C   0  0  0  0  0  0  0  0  0  0  0  0
  149.0417  134.8746  155.5230 C   0  0  2  0  0  0  0  0  0  0  0  0
  150.1474  134.0792  156.2430 C   0  0  0  0  0  0  0  0  0  0  0  0
  148.8899  134.4419  154.1356 N   0  0  0  0  0  0  0  0  0  0  0  0
  148.8297  133.1696  153.7189 C   0  0  0  0  0  0  0  0  0  0  0  0
  148.8991  132.2094  154.4811 O   0  0  0  0  0  0  0  0  0  0  0  0
  149.3869  137.2472  154.6150 N   0  3  0  0  0  0  0  0  0  0  0  0
  149.5054  138.5428  155.1186 C   0  0  0  0  0  0  0  0  0  0  0  0
  149.6863  139.7606  154.4703 C   0  0  0  0  0  0  0  0  0  0  0  0
  149.7682  140.9067  155.2885 C   0  0  0  0  0  0  0  0  0  0  0  0
  149.6713  140.8153  156.6922 C   0  0  0  0  0  0  0  0  0  0  0  0
  149.4865  139.5748  157.3380 C   0  0  0  0  0  0  0  0  0  0  0  0
  149.4055  138.4475  156.5212 C   0  0  0  0  0  0  0  0  0  0  0  0
  147.5485  136.8658  164.1394 H   0  0  0  0  0  0  0  0  0  0  0  0
  147.1886  137.8999  162.7570 H   0  0  0  0  0  0  0  0  0  0  0  0
  148.8543  137.3988  163.0769 H   0  0  0  0  0  0  0  0  0  0  0  0
  147.1852  134.5356  163.8833 H   0  0  0  0  0  0  0  0  0  0  0  0
  146.8688  132.5274  162.4655 H   0  0  0  0  0  0  0  0  0  0  0  0
  147.1221  132.6946  159.9982 H   0  0  0  0  0  0  0  0  0  0  0  0
  147.6848  134.8353  158.9469 H   0  0  0  0  0  0  0  0  0  0  0  0
  146.9851  137.0481  158.5635 H   0  0  0  0  0  0  0  0  0  0  0  0
  148.0223  138.4770  158.6767 H   0  0  0  0  0  0  0  0  0  0  0  0
  150.0292  136.8248  158.7014 H   0  0  0  0  0  0  0  0  0  0  0  0
  148.9069  135.5789  158.2144 H   0  0  0  0  0  0  0  0  0  0  0  0
  148.1002  134.6316  156.0169 H   0  0  0  0  0  0  0  0  0  0  0  0
  150.1885  134.3387  157.3013 H   0  0  0  0  0  0  0  0  0  0  0  0
  151.1328  134.2695  155.8163 H   0  0  0  0  0  0  0  0  0  0  0  0
  149.9620  133.0065  156.1773 H   0  0  0  0  0  0  0  0  0  0  0  0
  148.8416  135.1680  153.4353 H   0  0  0  0  0  0  0  0  0  0  0  0
  148.7136  133.0985  152.6261 H   0  0  0  0  0  0  0  0  0  0  0  0
  149.7611  139.8332  153.3952 H   0  0  0  0  0  0  0  0  0  0  0  0
  149.9081  141.8750  154.8300 H   0  0  0  0  0  0  0  0  0  0  0  0
  149.7395  141.7150  157.2867 H   0  0  0  0  0  0  0  0  0  0  0  0
  149.4141  139.5153  158.4140 H   0  0  0  0  0  0  0  0  0  0  0  0
  149.4113  136.9794  153.6394 H   0  0  0  0  0  0  0  0  0  0  0  0
  1  2  1  0  0  0  0
  1 25  1  0  0  0  0
  1 26  1  0  0  0  0
  1 27  1  0  0  0  0
  2  7  1  0  0  0  0
  2  3  2  0  0  0  0
  3  4  1  0  0  0  0
  3 28  1  0  0  0  0
  4  5  2  0  0  0  0
  4 29  1  0  0  0  0
  5  6  1  0  0  0  0
  5 30  1  0  0  0  0
  6  7  2  0  0  0  0
  6 31  1  0  0  0  0
  7  8  1  0  0  0  0
  8  9  1  0  0  0  0
  9 10  1  0  0  0  0
  9 32  1  0  0  0  0
  9 33  1  0  0  0  0
 10 11  1  0  0  0  0
 10 34  1  0  0  0  0
 10 35  1  0  0  0  0
 11 24  1  0  0  0  0
 11 12  1  0  0  0  0
 12 13  1  0  0  0  0
 12 18  2  0  0  0  0
 13 14  1  0  0  0  0
 13 15  1  0  0  0  0
 13 36  1  0  0  0  0
 14 37  1  0  0  0  0
 14 38  1  0  0  0  0
 14 39  1  0  0  0  0
 15 16  1  0  0  0  0
 15 40  1  0  0  0  0
 16 17  2  0  0  0  0
 16 41  1  0  0  0  0
 18 19  1  0  0  0  0
 18 46  1  0  0  0  0
 19 24  2  0  0  0  0
 19 20  1  0  0  0  0
 20 21  2  0  0  0  0
 20 42  1  0  0  0  0
 21 22  1  0  0  0  0
 21 43  1  0  0  0  0
 22 23  2  0  0  0  0
 22 44  1  0  0  0  0
 23 24  1  0  0  0  0
 23 45  1  0  0  0  0
M  CHG  1  18   1
M  END
> <s_m_source_file>
AV-unprocessed.smi

> <i_m_source_file_index>
2953

> <i_lp_mmshare_version>
43012

> <i_f3d_flags>
0

> <s_epik_input>
W0NIM11jMVtjSF1bY0hdW2NIXVtjSF1jMU9bQ0gyXVtDSDJdbihjKG4yKVtDQEhdKFtDSDNdKVtOSF1bQ0hdPU8pYyhjMjMpW2NIXVtjSF1bY0hdW2NIXTM=

> <s_epik_cmdline>
J2VwaWtfcHl0aG9uJywgJy1waCcsICc3LjAnLCAnLXRuJywgJzgnLCAnLW1hJywgJzIwMCcsICctbWV0YWxfYmluZGluZycsICctaW1hZScsICc8aW5maWxlLm1hZT4nLCAnLW9tYWUnLCAnPG91dGZpbGUubWFlPic=

> <r_lp_tautomer_probability>
1

> <r_epik_Ionization_Penalty>
1.14644

> <r_epik_Ionization_Penalty_Charging>
1.14644

> <r_epik_Ionization_Penalty_Neutral>
5.5802e-08

> <r_epik_State_Penalty>
1.20743

> <r_epik_Charging_Adjusted_Penalty>
2.35387

> <i_epik_Tot_Q>
1

> <i_epik_Tot_abs_Q>
1

> <r_epik_Metal_State_Penalty>
1.28856

> <b_epik_Metal_Only>
0

> <s_lp_Force_Field>
OPLS_2005

> <r_lp_Energy>
18.7543

> <b_lp_Chiralities_Consistent>
1

> <s_lp_Variant>
AV-unprocessed.smi:2953-3

> <Gold.Version>
5.8.1

> <Gold.Id.Protein>
6NUR|6NUR_protein|mol2

> <Gold.PLP.Fitness>
53.2162

> <Gold.PLP.PLP>
-42.0300

> <Gold.PLP.part.hbond>
-4.0000

> <Gold.PLP.part.metal>
0.0000

> <Gold.PLP.part.buried>
-4.0238

> <Gold.PLP.part.nonpolar>
-34.5824

> <Gold.PLP.part.repulsive>
0.0587

> <Gold.PLP.ligand.clash>
0.0000

> <Gold.PLP.ligand.torsion>
0.4586

> <Gold.PLP.Chemscore.Hbond>
4.0017

> <Gold.PLP.Chemscore.CHOScore>
0.0000

> <Gold.PLP.Chemscore.Metal>
0.0000

> <Gold.Chemscore.Hbonds>
donor molecule, donor type, donor heavy atom, donor atom, acceptor molecule, acceptor atom, score
      L1  H    15    40       P1  7948  1.00
      L1  H    18    46       P1  7948  2.00
      P1  H  6931  6943       L1     8  0.53
      P1  H  6934  6947       L1     8  0.47

> <Gold.PLP.Chemscore.Internal.Correction>
0.0981

> <Gold.Rescore>
     Score         DG    S(hbond)    S(metal)    S(lipo)     H(rot)  DE(clash)    DE(int)     intcor
     17.09     -18.74       2.46        0.00      93.93       2.32       0.08       1.57       ----

> <Gold.Chemscore.Fitness>
17.0862

> <Gold.Chemscore.DG>
-18.7385

> <Gold.Chemscore.ZeroCoef>
-5.4800

> <Gold.Chemscore.Hbond>
2.4591

> <Gold.Chemscore.Metal>
0.0000

> <Gold.Chemscore.Lipo>
93.9337

> <Gold.Chemscore.Internal_Hbond>
0.0000

> <Gold.Chemscore.DEClash>
0.0848

> <Gold.Chemscore.DEInternal>
1.5675

> <Gold.Chemscore.Rot>
2.3223

> <Gold.Chemscore.Internal.Correction>
   9.000000E+99

> <Gold.Chemscore.Hbonds>
donor molecule, donor type, donor heavy atom, donor atom, acceptor molecule, acceptor atom, score
      L1  H    15    40       P1  7948  0.60
      L1  H    18    46       P1  7948  0.93
      P1  H  6931  6943       L1     8  0.29
      P1  H  6934  6947       L1     8  0.08

> <Gold.Chemscore.Hbond.Weighted>
-8.2133

> <Gold.Chemscore.Metal.Weighted>
-0.0000

> <Gold.Chemscore.Lipo.Weighted>
-10.9902

> <Gold.Chemscore.Internal_Hbond.Weighted>
0.0000

> <Gold.Chemscore.DEClash.Weighted>
0.0848

> <Gold.Chemscore.DEInternal.Weighted>
1.5675

> <Gold.Chemscore.Rot.Weighted>
5.9450

> <Gold.Chemscore.Internal.Correction.Weighted>
   9.000000E+99

> <Gold.Protein.RotatedTorsions>
[ 6907 6896 6895 6894 ] final   59.29 input  -60.11 | X-H torsion
[ 7974 7965 7964 7962 ] final -156.90 input  175.53 | X-H torsion
[ 8008 7997 7996 7995 ] final   40.12 input   59.86 | X-H torsion
[ 10167 10162 10161 10158 ] final   -2.92 input  -65.29 | X-H torsion
[ 10718 10713 10712 10709 ] final   43.12 input   66.30 | X-H torsion
[ 10763 10752 10751 10750 ] final -125.59 input  -60.55 | X-H torsion
[ 11005 11000 10999 10996 ] final  119.11 input  -57.11 | X-H torsion

> <Gold.Protein.ActiveResidues>
 VAL166  LYS551  ARG553  GLY616  TRP617  ASP618  TYR619  PRO620  LYS621  CYS622 
 ASP623  PHE694  ASN695  SER759  ASP760  ASP761  ALA762  ILE779  LEU786  VAL792 
 PHE793  MET794  SER795  GLU796  ALA797  LYS798  CYS799  TRP800  GLU811  SER814 

> <Gold.Protein.RotatedAtoms>
  152.3901  134.6454  160.0110 H   0  0  0  0  0  0  0  0  0  0  0  0  # atno 6907 bound_to 6896
  151.6691  133.3309  159.3200 H   0  0  0  0  0  0  0  0  0  0  0  0  # atno 6908 bound_to 6896
  150.7819  134.6815  159.6491 H   0  0  0  0  0  0  0  0  0  0  0  0  # atno 6909 bound_to 6896
  144.7572  140.4044  143.6003 H   0  0  0  0  0  0  0  0  0  0  0  0  # atno 7974 bound_to 7965
  155.2479  140.3350  155.4285 H   0  0  0  0  0  0  0  0  0  0  0  0  # atno 8008 bound_to 7997
  156.2228  140.1816  156.7479 H   0  0  0  0  0  0  0  0  0  0  0  0  # atno 8009 bound_to 7997
  154.5852  140.0647  156.9146 H   0  0  0  0  0  0  0  0  0  0  0  0  # atno 8010 bound_to 7997
  140.6870  143.6600  150.8275 H   0  0  0  0  0  0  0  0  0  0  0  0  # atno 10167 bound_to 10162
  157.4124  130.7922  149.7442 H   0  0  0  0  0  0  0  0  0  0  0  0  # atno 10718 bound_to 10713
  154.8737  135.4024  154.3292 H   0  0  0  0  0  0  0  0  0  0  0  0  # atno 10763 bound_to 10752
  153.4108  135.7020  153.6366 H   0  0  0  0  0  0  0  0  0  0  0  0  # atno 10764 bound_to 10752
  153.5069  135.3715  155.2538 H   0  0  0  0  0  0  0  0  0  0  0  0  # atno 10765 bound_to 10752
  139.9134  134.9626  156.7605 H   0  0  0  0  0  0  0  0  0  0  0  0  # atno 11005 bound_to 11000
  145.6740  139.1605  143.2738 LP  0  0  0  0  0  0  0  0  0  0  0  0  # atno 17320 bound_to 7965
  146.1595  140.6808  142.9284 LP  0  0  0  0  0  0  0  0  0  0  0  0  # atno 17321 bound_to 7965
  140.0308  143.5445  152.2760 LP  0  0  0  0  0  0  0  0  0  0  0  0  # atno 17342 bound_to 10162
  139.6237  144.7633  151.2684 LP  0  0  0  0  0  0  0  0  0  0  0  0  # atno 17343 bound_to 10162
  155.9855  130.3983  150.3260 LP  0  0  0  0  0  0  0  0  0  0  0  0  # atno 17370 bound_to 10713
  157.1400  131.0294  151.2932 LP  0  0  0  0  0  0  0  0  0  0  0  0  # atno 17371 bound_to 10713
  140.6701  133.9567  155.7852 LP  0  0  0  0  0  0  0  0  0  0  0  0  # atno 17394 bound_to 11000
  141.0583  134.0383  157.3692 LP  0  0  0  0  0  0  0  0  0  0  0  0  # atno 17395 bound_to 11000

$$$$
