AV-unprocessed.smi:101|AV-procd|sdf|943|dock7
  -GOLD-   2262017463D 1   1.00000     0.00000
 Structure written by MMmdl.
 43 45  0  0  0  0  0  0  0  0  2 V2000
  147.2700  133.4294  161.5631 C   0  0  0  0  0  0  0  0  0  0  0  0
  147.5918  134.6950  160.7881 C   0  0  0  0  0  0  0  0  0  0  0  0
  147.9194  134.6743  159.4771 C   0  0  0  0  0  0  0  0  0  0  0  0
  148.2162  135.8297  158.7763 N   0  0  0  0  0  0  0  0  0  0  0  0
  148.5838  135.7638  157.3087 C   0  0  2  0  0  0  0  0  0  0  0  0
  148.1254  134.5523  156.7861 O   0  0  0  0  0  0  0  0  0  0  0  0
  149.1237  133.9852  155.9459 C   0  0  2  0  0  0  0  0  0  0  0  0
  148.9264  132.4694  155.8023 C   0  0  0  0  0  0  0  0  0  0  0  0
  148.0221  132.2152  154.7401 O   0  0  0  0  0  0  0  0  0  0  0  0
  148.2719  132.7053  153.5107 C   0  0  0  0  0  0  0  0  0  0  0  0
  149.2804  133.3555  153.2277 O   0  0  0  0  0  0  0  0  0  0  0  0
  147.1990  132.3801  152.5269 C   0  0  0  0  0  0  0  0  0  0  0  0
  146.9695  133.2530  151.4377 C   0  0  0  0  0  0  0  0  0  0  0  0
  145.9641  132.9714  150.4924 C   0  0  0  0  0  0  0  0  0  0  0  0
  145.1761  131.8133  150.6246 C   0  0  0  0  0  0  0  0  0  0  0  0
  145.3945  130.9369  151.7034 C   0  0  0  0  0  0  0  0  0  0  0  0
  146.3994  131.2167  152.6499 C   0  0  0  0  0  0  0  0  0  0  0  0
  150.4427  134.4253  156.5928 C   0  0  2  0  0  0  0  0  0  0  0  0
  150.7949  133.5578  157.6587 O   0  0  0  0  0  0  0  0  0  0  0  0
  150.1067  135.8367  157.0646 C   0  0  2  0  0  0  0  0  0  0  0  0
  150.8935  136.2641  158.1638 O   0  0  0  0  0  0  0  0  0  0  0  0
  148.2054  137.0805  159.4472 C   0  0  0  0  0  0  0  0  0  0  0  0
  148.5179  138.0853  158.8078 O   0  0  0  0  0  0  0  0  0  0  0  0
  147.8657  137.1127  160.7672 N   0  5  0  0  0  0  0  0  0  0  0  0
  147.5543  135.9905  161.4776 C   0  0  0  0  0  0  0  0  0  0  0  0
  147.2471  136.0350  162.6686 O   0  0  0  0  0  0  0  0  0  0  0  0
  147.3223  132.5486  160.9225 H   0  0  0  0  0  0  0  0  0  0  0  0
  146.2647  133.4831  161.9822 H   0  0  0  0  0  0  0  0  0  0  0  0
  147.9784  133.2951  162.3811 H   0  0  0  0  0  0  0  0  0  0  0  0
  147.9551  133.7241  158.9654 H   0  0  0  0  0  0  0  0  0  0  0  0
  148.0372  136.5678  156.8144 H   0  0  0  0  0  0  0  0  0  0  0  0
  149.0494  134.4602  154.9657 H   0  0  0  0  0  0  0  0  0  0  0  0
  149.8800  131.9915  155.5739 H   0  0  0  0  0  0  0  0  0  0  0  0
  148.5544  132.0405  156.7339 H   0  0  0  0  0  0  0  0  0  0  0  0
  147.5619  134.1484  151.3153 H   0  0  0  0  0  0  0  0  0  0  0  0
  145.7979  133.6453  149.6649 H   0  0  0  0  0  0  0  0  0  0  0  0
  144.4052  131.5976  149.8994 H   0  0  0  0  0  0  0  0  0  0  0  0
  144.7904  130.0474  151.8060 H   0  0  0  0  0  0  0  0  0  0  0  0
  146.5414  130.5225  153.4652 H   0  0  0  0  0  0  0  0  0  0  0  0
  151.2629  134.4274  155.8744 H   0  0  0  0  0  0  0  0  0  0  0  0
  150.0807  132.9583  157.8087 H   0  0  0  0  0  0  0  0  0  0  0  0
  150.2618  136.5337  156.2402 H   0  0  0  0  0  0  0  0  0  0  0  0
  150.9531  137.2073  158.1371 H   0  0  0  0  0  0  0  0  0  0  0  0
  1  2  1  0  0  0  0
  1 27  1  0  0  0  0
  1 28  1  0  0  0  0
  1 29  1  0  0  0  0
  2 25  1  0  0  0  0
  2  3  2  0  0  0  0
  3  4  1  0  0  0  0
  3 30  1  0  0  0  0
  4  5  1  0  0  0  0
  4 22  1  0  0  0  0
  5 20  1  0  0  0  0
  5  6  1  0  0  0  0
  5 31  1  0  0  0  0
  6  7  1  0  0  0  0
  7  8  1  0  0  0  0
  7 18  1  0  0  0  0
  7 32  1  0  0  0  0
  8  9  1  0  0  0  0
  8 33  1  0  0  0  0
  8 34  1  0  0  0  0
  9 10  1  0  0  0  0
 10 11  2  0  0  0  0
 10 12  1  0  0  0  0
 12 17  1  0  0  0  0
 12 13  2  0  0  0  0
 13 14  1  0  0  0  0
 13 35  1  0  0  0  0
 14 15  2  0  0  0  0
 14 36  1  0  0  0  0
 15 16  1  0  0  0  0
 15 37  1  0  0  0  0
 16 17  2  0  0  0  0
 16 38  1  0  0  0  0
 17 39  1  0  0  0  0
 18 19  1  0  0  0  0
 18 20  1  0  0  0  0
 18 40  1  0  0  0  0
 19 41  1  0  0  0  0
 20 21  1  0  0  0  0
 20 42  1  0  0  0  0
 21 43  1  0  0  0  0
 22 23  2  0  0  0  0
 22 24  1  0  0  0  0
 24 25  1  0  0  0  0
 25 26  2  0  0  0  0
M  CHG  1  24  -1
M  END
> <s_m_source_file>
AV-unprocessed.smi

> <i_m_source_file_index>
101

> <i_lp_mmshare_version>
43012

> <i_f3d_flags>
0

> <s_epik_input>
Tz1jMVtuSF1jKD1PKW4oW2NIXWMxW0NIM10pW0NAQEhdMk9bQ0BIXShbQ0BASF0oW09IXSlbQ0BIXTJbT0hdKVtDSDJdT0MoPU8pYzNbY0hdW2NIXVtjSF1bY0hdW2NIXTM=

> <s_epik_cmdline>
J2VwaWtfcHl0aG9uJywgJy1waCcsICc3LjAnLCAnLXRuJywgJzgnLCAnLW1hJywgJzIwMCcsICctbWV0YWxfYmluZGluZycsICctaW1hZScsICc8aW5maWxlLm1hZT4nLCAnLW9tYWUnLCAnPG91dGZpbGUubWFlPic=

> <r_lp_tautomer_probability>
0.999537

> <r_epik_Ionization_Penalty>
3.21006

> <r_epik_Ionization_Penalty_Charging>
5.75142e-08

> <r_epik_Ionization_Penalty_Neutral>
3.21006

> <r_epik_State_Penalty>
3.20925

> <r_epik_Charging_Adjusted_Penalty>
3.20925

> <i_epik_Tot_Q>
-1

> <i_epik_Tot_abs_Q>
1

> <r_epik_Metal_State_Penalty>
0.119957

> <b_epik_Metal_Only>
1

> <s_epik_Chemistry_Notes>
This compound has an ester and may undergo hydrolysis at high or low pH. This compound contains an acetal/aminal-like group ( X-CH(R)-Y where X, Y are N, S, or O) that may be acid/base labile, releasing an aldehyde.

> <s_lp_Force_Field>
OPLS_2005

> <r_lp_Energy>
51.0672

> <b_lp_Chiralities_Consistent>
1

> <s_lp_Variant>
AV-unprocessed.smi:101-31

> <Gold.Version>
5.8.1

> <Gold.Id.Protein>
6NUR|6NUR_protein|mol2

> <Gold.PLP.Fitness>
47.9380

> <Gold.PLP.PLP>
-37.0726

> <Gold.PLP.part.hbond>
-4.4532

> <Gold.PLP.part.metal>
0.0000

> <Gold.PLP.part.buried>
-6.4494

> <Gold.PLP.part.nonpolar>
-27.3888

> <Gold.PLP.part.repulsive>
0.2359

> <Gold.PLP.ligand.clash>
0.0000

> <Gold.PLP.ligand.torsion>
1.1788

> <Gold.PLP.Chemscore.Hbond>
4.4000

> <Gold.PLP.Chemscore.CHOScore>
0.0000

> <Gold.PLP.Chemscore.Metal>
0.0000

> <Gold.Chemscore.Hbonds>
donor molecule, donor type, donor heavy atom, donor atom, acceptor molecule, acceptor atom, score
      P1  H  6896  6908       L1    19  0.29
      P1  H  6896  6909       L1    21  0.51
      P1  H  6931  6943       L1    24  1.76
      P1  H  6934  6947       L1    24  1.66

> <Gold.PLP.Chemscore.Internal.Correction>
0.0229

> <Gold.Rescore>
     Score         DG    S(hbond)    S(metal)    S(lipo)     H(rot)  DE(clash)    DE(int)     intcor
      8.54     -12.75       2.00        0.00      76.63       3.27       0.09       4.12       ----

> <Gold.Chemscore.Fitness>
8.5412

> <Gold.Chemscore.DG>
-12.7533

> <Gold.Chemscore.ZeroCoef>
-5.4800

> <Gold.Chemscore.Hbond>
1.9961

> <Gold.Chemscore.Metal>
0.0000

> <Gold.Chemscore.Lipo>
76.6344

> <Gold.Chemscore.Internal_Hbond>
0.0000

> <Gold.Chemscore.DEClash>
0.0930

> <Gold.Chemscore.DEInternal>
4.1190

> <Gold.Chemscore.Rot>
3.2656

> <Gold.Chemscore.Internal.Correction>
   9.000000E+99

> <Gold.Chemscore.Hbonds>
donor molecule, donor type, donor heavy atom, donor atom, acceptor molecule, acceptor atom, score
      P1  H  6896  6908       L1    19  0.04
      P1  H  6896  6909       L1    21  0.35
      P1  H  6931  6943       L1    24  0.48
      P1  H  6934  6947       L1    24  0.20

> <Gold.Chemscore.Hbond.Weighted>
-6.6669

> <Gold.Chemscore.Metal.Weighted>
-0.0000

> <Gold.Chemscore.Lipo.Weighted>
-8.9662

> <Gold.Chemscore.Internal_Hbond.Weighted>
0.0000

> <Gold.Chemscore.DEClash.Weighted>
0.0930

> <Gold.Chemscore.DEInternal.Weighted>
4.1190

> <Gold.Chemscore.Rot.Weighted>
8.3598

> <Gold.Chemscore.Internal.Correction.Weighted>
   9.000000E+99

> <Gold.Protein.RotatedTorsions>
[ 6907 6896 6895 6894 ] final   64.52 input  -60.11 | X-H torsion
[ 7974 7965 7964 7962 ] final   43.31 input  175.53 | X-H torsion
[ 8008 7997 7996 7995 ] final   89.96 input   59.86 | X-H torsion
[ 10167 10162 10161 10158 ] final   54.82 input  -65.29 | X-H torsion
[ 10718 10713 10712 10709 ] final  164.37 input   66.30 | X-H torsion
[ 10763 10752 10751 10750 ] final  155.71 input  -60.55 | X-H torsion
[ 11005 11000 10999 10996 ] final   53.49 input  -57.11 | X-H torsion

> <Gold.Protein.ActiveResidues>
 VAL166  LYS551  ARG553  GLY616  TRP617  ASP618  TYR619  PRO620  LYS621  CYS622 
 ASP623  PHE694  ASN695  SER759  ASP760  ASP761  ALA762  ILE779  LEU786  VAL792 
 PHE793  MET794  SER795  GLU796  ALA797  LYS798  CYS799  TRP800  GLU811  SER814 

> <Gold.Protein.RotatedAtoms>
  152.4337  134.5727  159.9925 H   0  0  0  0  0  0  0  0  0  0  0  0  # atno 6907 bound_to 6896
  151.5843  133.3368  159.3023 H   0  0  0  0  0  0  0  0  0  0  0  0  # atno 6908 bound_to 6896
  150.8233  134.7487  159.6856 H   0  0  0  0  0  0  0  0  0  0  0  0  # atno 6909 bound_to 6896
  146.0666  139.5201  142.9624 H   0  0  0  0  0  0  0  0  0  0  0  0  # atno 7974 bound_to 7965
  156.0062  140.3355  155.6895 H   0  0  0  0  0  0  0  0  0  0  0  0  # atno 8008 bound_to 7997
  155.6221  140.0676  157.2693 H   0  0  0  0  0  0  0  0  0  0  0  0  # atno 8009 bound_to 7997
  154.4266  140.1775  156.1370 H   0  0  0  0  0  0  0  0  0  0  0  0  # atno 8010 bound_to 7997
  140.2261  144.3737  150.6432 H   0  0  0  0  0  0  0  0  0  0  0  0  # atno 10167 bound_to 10162
  157.0953  131.0428  151.2520 H   0  0  0  0  0  0  0  0  0  0  0  0  # atno 10718 bound_to 10713
  154.1727  135.2803  155.3076 H   0  0  0  0  0  0  0  0  0  0  0  0  # atno 10763 bound_to 10752
  154.6063  135.5513  153.7430 H   0  0  0  0  0  0  0  0  0  0  0  0  # atno 10764 bound_to 10752
  153.0160  135.6404  154.1867 H   0  0  0  0  0  0  0  0  0  0  0  0  # atno 10765 bound_to 10752
  140.0762  134.5401  155.8993 H   0  0  0  0  0  0  0  0  0  0  0  0  # atno 11005 bound_to 11000
  145.6465  141.0273  143.1783 LP  0  0  0  0  0  0  0  0  0  0  0  0  # atno 17320 bound_to 7965
  144.7206  139.8042  143.7383 LP  0  0  0  0  0  0  0  0  0  0  0  0  # atno 17321 bound_to 7965
  140.6219  143.2177  151.6675 LP  0  0  0  0  0  0  0  0  0  0  0  0  # atno 17342 bound_to 10162
  139.5126  144.3469  152.0689 LP  0  0  0  0  0  0  0  0  0  0  0  0  # atno 17343 bound_to 10162
  157.4687  130.7696  149.7303 LP  0  0  0  0  0  0  0  0  0  0  0  0  # atno 17370 bound_to 10713
  155.9887  130.3957  150.3104 LP  0  0  0  0  0  0  0  0  0  0  0  0  # atno 17371 bound_to 10713
  141.2030  133.6629  156.6040 LP  0  0  0  0  0  0  0  0  0  0  0  0  # atno 17394 bound_to 11000
  140.3554  134.7733  157.4496 LP  0  0  0  0  0  0  0  0  0  0  0  0  # atno 17395 bound_to 11000

$$$$
