AV-unprocessed.smi:3273|AV-procd|sdf|12520|dock1
  -GOLD-   2272018433D 1   1.00000     0.00000
 Structure written by MMmdl.
 41 42  0  0  0  0  0  0  0  0  1 V2000
  148.7586  141.4645  154.3725 C   0  0  0  0  0  0  0  0  0  0  0  0
  149.3846  140.0583  154.4215 C   0  0  0  0  0  0  0  0  0  0  0  0
  148.2934  139.0085  154.1286 C   0  0  0  0  0  0  0  0  0  0  0  0
  150.1331  139.7807  155.7561 C   0  0  2  0  0  0  0  0  0  0  0  0
  151.2784  140.7866  156.0149 C   0  0  0  0  0  0  0  0  0  0  0  0
  151.6432  140.8346  157.4270 N   0  0  0  0  0  0  0  0  0  0  0  0
  152.5465  140.0357  158.0117 C   0  0  0  0  0  0  0  0  0  0  0  0
  153.1762  139.1704  157.4022 O   0  0  0  0  0  0  0  0  0  0  0  0
  152.7596  140.2482  159.5132 C   0  0  0  0  0  0  0  0  0  0  0  0
  153.4609  141.5561  159.8408 C   0  0  0  0  0  0  0  0  0  0  0  0
  153.2897  142.2134  161.1916 C   0  0  0  0  0  0  0  0  0  0  0  0
  152.6792  142.8453  159.9655 C   0  0  0  0  0  0  0  0  0  0  0  0
  150.6274  138.3604  155.8581 C   0  0  0  0  0  0  0  0  0  0  0  0
  150.0750  137.2865  156.5009 C   0  0  0  0  0  0  0  0  0  0  0  0
  150.9733  136.2182  156.2325 C   0  0  0  0  0  0  0  0  0  0  0  0
  151.9947  136.5921  155.4825 N   0  0  0  0  0  0  0  0  0  0  0  0
  151.7850  137.9051  155.2484 N   0  0  0  0  0  0  0  0  0  0  0  0
  152.7383  138.6348  154.4344 C   0  0  0  0  0  0  0  0  0  0  0  0
  148.0717  141.6226  155.2044 H   0  0  0  0  0  0  0  0  0  0  0  0
  148.1972  141.6107  153.4493 H   0  0  0  0  0  0  0  0  0  0  0  0
  149.5134  142.2492  154.4048 H   0  0  0  0  0  0  0  0  0  0  0  0
  150.1100  139.9929  153.6094 H   0  0  0  0  0  0  0  0  0  0  0  0
  147.5595  138.9680  154.9341 H   0  0  0  0  0  0  0  0  0  0  0  0
  148.7071  138.0079  154.0039 H   0  0  0  0  0  0  0  0  0  0  0  0
  147.7596  139.2431  153.2073 H   0  0  0  0  0  0  0  0  0  0  0  0
  149.4026  139.9421  156.5490 H   0  0  0  0  0  0  0  0  0  0  0  0
  152.1523  140.5015  155.4261 H   0  0  0  0  0  0  0  0  0  0  0  0
  150.9979  141.7932  155.7061 H   0  0  0  0  0  0  0  0  0  0  0  0
  151.1677  141.5161  158.0007 H   0  0  0  0  0  0  0  0  0  0  0  0
  151.7928  140.2252  160.0186 H   0  0  0  0  0  0  0  0  0  0  0  0
  153.3467  139.4206  159.9124 H   0  0  0  0  0  0  0  0  0  0  0  0
  154.4482  141.6462  159.3909 H   0  0  0  0  0  0  0  0  0  0  0  0
  152.6125  141.7467  161.9042 H   0  0  0  0  0  0  0  0  0  0  0  0
  154.1604  142.6996  161.6270 H   0  0  0  0  0  0  0  0  0  0  0  0
  153.1430  143.7508  159.5798 H   0  0  0  0  0  0  0  0  0  0  0  0
  151.5969  142.7951  159.8617 H   0  0  0  0  0  0  0  0  0  0  0  0
  149.1618  137.2690  157.0771 H   0  0  0  0  0  0  0  0  0  0  0  0
  150.9120  135.1895  156.5555 H   0  0  0  0  0  0  0  0  0  0  0  0
  152.2326  139.0524  153.5634 H   0  0  0  0  0  0  0  0  0  0  0  0
  153.5391  137.9770  154.0940 H   0  0  0  0  0  0  0  0  0  0  0  0
  153.1742  139.4451  155.0191 H   0  0  0  0  0  0  0  0  0  0  0  0
  1  2  1  0  0  0  0
  1 19  1  0  0  0  0
  1 20  1  0  0  0  0
  1 21  1  0  0  0  0
  2  3  1  0  0  0  0
  2  4  1  0  0  0  0
  2 22  1  0  0  0  0
  3 23  1  0  0  0  0
  3 24  1  0  0  0  0
  3 25  1  0  0  0  0
  4  5  1  0  0  0  0
  4 13  1  0  0  0  0
  4 26  1  0  0  0  0
  5  6  1  0  0  0  0
  5 27  1  0  0  0  0
  5 28  1  0  0  0  0
  6  7  1  0  0  0  0
  6 29  1  0  0  0  0
  7  8  2  0  0  0  0
  7  9  1  0  0  0  0
  9 10  1  0  0  0  0
  9 30  1  0  0  0  0
  9 31  1  0  0  0  0
 10 12  1  0  0  0  0
 10 11  1  0  0  0  0
 10 32  1  0  0  0  0
 11 12  1  0  0  0  0
 11 33  1  0  0  0  0
 11 34  1  0  0  0  0
 12 35  1  0  0  0  0
 12 36  1  0  0  0  0
 13 17  1  0  0  0  0
 13 14  2  0  0  0  0
 14 15  1  0  0  0  0
 14 37  1  0  0  0  0
 15 16  2  0  0  0  0
 15 38  1  0  0  0  0
 16 17  1  0  0  0  0
 17 18  1  0  0  0  0
 18 39  1  0  0  0  0
 18 40  1  0  0  0  0
 18 41  1  0  0  0  0
M  END
> <s_m_source_file>
AV-unprocessed.smi

> <i_m_source_file_index>
3273

> <i_lp_mmshare_version>
43012

> <i_f3d_flags>
0

> <s_epik_input>
W0NIM11uMW5bY0hdW2NIXWMxW0NASF0oW0NIXShbQ0gzXSlbQ0gzXSlbQ0gyXVtOSF1DKD1PKVtDSDJdW0NIXTJbQ0gyXVtDSDJdMg==

> <s_epik_cmdline>
J2VwaWtfcHl0aG9uJywgJy1waCcsICc3LjAnLCAnLXRuJywgJzgnLCAnLW1hJywgJzIwMCcsICctbWV0YWxfYmluZGluZycsICctaW1hZScsICc8aW5maWxlLm1hZT4nLCAnLW9tYWUnLCAnPG91dGZpbGUubWFlPic=

> <r_lp_tautomer_probability>
1

> <r_epik_Ionization_Penalty>
0.00116261

> <r_epik_Ionization_Penalty_Charging>
0

> <r_epik_Ionization_Penalty_Neutral>
0.00116261

> <r_epik_State_Penalty>
-0

> <r_epik_Charging_Adjusted_Penalty>
0

> <i_epik_Tot_Q>
0

> <i_epik_Tot_abs_Q>
0

> <r_epik_Metal_State_Penalty>
-0

> <b_epik_Metal_Only>
0

> <s_lp_Force_Field>
OPLS_2005

> <r_lp_Energy>
13.9008

> <b_lp_Chiralities_Consistent>
1

> <s_lp_Variant>
AV-unprocessed.smi:3273-1

> <Gold.Version>
5.8.1

> <Gold.Id.Protein>
6NUR|6NUR_protein|mol2

> <Gold.PLP.Fitness>
41.1218

> <Gold.PLP.PLP>
-36.7176

> <Gold.PLP.part.hbond>
-2.0000

> <Gold.PLP.part.metal>
0.0000

> <Gold.PLP.part.buried>
-3.9360

> <Gold.PLP.part.nonpolar>
-30.3971

> <Gold.PLP.part.repulsive>
0.1307

> <Gold.PLP.ligand.clash>
0.0000

> <Gold.PLP.ligand.torsion>
1.1805

> <Gold.PLP.Chemscore.Hbond>
2.0000

> <Gold.PLP.Chemscore.CHOScore>
0.0000

> <Gold.PLP.Chemscore.Metal>
0.0000

> <Gold.Chemscore.Hbonds>
donor molecule, donor type, donor heavy atom, donor atom, acceptor molecule, acceptor atom, score
      P1  H  7997  8010       L1     8  1.00
      P1  H 10752 10763       L1    16  1.00

> <Gold.PLP.Chemscore.Internal.Correction>
0.7652

> <Gold.Rescore>
     Score         DG    S(hbond)    S(metal)    S(lipo)     H(rot)  DE(clash)    DE(int)     intcor
     17.96     -19.06       1.95        0.00      96.26       1.64       0.01       1.09       ----

> <Gold.Chemscore.Fitness>
17.9599

> <Gold.Chemscore.DG>
-19.0619

> <Gold.Chemscore.ZeroCoef>
-5.4800

> <Gold.Chemscore.Hbond>
1.9537

> <Gold.Chemscore.Metal>
0.0000

> <Gold.Chemscore.Lipo>
96.2612

> <Gold.Chemscore.Internal_Hbond>
0.0000

> <Gold.Chemscore.DEClash>
0.0121

> <Gold.Chemscore.DEInternal>
1.0899

> <Gold.Chemscore.Rot>
1.6430

> <Gold.Chemscore.Internal.Correction>
   9.000000E+99

> <Gold.Chemscore.Hbonds>
donor molecule, donor type, donor heavy atom, donor atom, acceptor molecule, acceptor atom, score
      P1  H  7997  8010       L1     8  0.30
      P1  H 10752 10763       L1    16  0.95

> <Gold.Chemscore.Hbond.Weighted>
-6.5255

> <Gold.Chemscore.Metal.Weighted>
-0.0000

> <Gold.Chemscore.Lipo.Weighted>
-11.2626

> <Gold.Chemscore.Internal_Hbond.Weighted>
0.0000

> <Gold.Chemscore.DEClash.Weighted>
0.0121

> <Gold.Chemscore.DEInternal.Weighted>
1.0899

> <Gold.Chemscore.Rot.Weighted>
4.2062

> <Gold.Chemscore.Internal.Correction.Weighted>
   9.000000E+99

> <Gold.Protein.RotatedTorsions>
[ 6907 6896 6895 6894 ] final   -0.67 input  -60.11 | X-H torsion
[ 7974 7965 7964 7962 ] final -159.10 input  175.53 | X-H torsion
[ 8008 7997 7996 7995 ] final   34.36 input   59.86 | X-H torsion
[ 10167 10162 10161 10158 ] final  143.13 input  -65.29 | X-H torsion
[ 10718 10713 10712 10709 ] final  130.30 input   66.30 | X-H torsion
[ 10763 10752 10751 10750 ] final   84.50 input  -60.55 | X-H torsion
[ 11005 11000 10999 10996 ] final  -68.13 input  -57.11 | X-H torsion

> <Gold.Protein.ActiveResidues>
 VAL166  LYS551  ARG553  GLY616  TRP617  ASP618  TYR619  PRO620  LYS621  CYS622 
 ASP623  PHE694  ASN695  SER759  ASP760  ASP761  ALA762  ILE779  LEU786  VAL792 
 PHE793  MET794  SER795  GLU796  ALA797  LYS798  CYS799  TRP800  GLU811  SER814 

> <Gold.Protein.RotatedAtoms>
  151.5584  135.1066  159.9966 H   0  0  0  0  0  0  0  0  0  0  0  0  # atno 6907 bound_to 6896
  152.4458  133.7530  159.6715 H   0  0  0  0  0  0  0  0  0  0  0  0  # atno 6908 bound_to 6896
  150.8373  133.7924  159.3098 H   0  0  0  0  0  0  0  0  0  0  0  0  # atno 6909 bound_to 6896
  144.7479  140.3733  143.6071 H   0  0  0  0  0  0  0  0  0  0  0  0  # atno 7974 bound_to 7965
  155.1536  140.3277  155.4426 H   0  0  0  0  0  0  0  0  0  0  0  0  # atno 8008 bound_to 7997
  156.2566  140.1972  156.6597 H   0  0  0  0  0  0  0  0  0  0  0  0  # atno 8009 bound_to 7997
  154.6455  140.0565  156.9882 H   0  0  0  0  0  0  0  0  0  0  0  0  # atno 8010 bound_to 7997
  139.4977  144.6061  151.6376 H   0  0  0  0  0  0  0  0  0  0  0  0  # atno 10167 bound_to 10162
  157.5075  131.1096  150.9341 H   0  0  0  0  0  0  0  0  0  0  0  0  # atno 10718 bound_to 10713
  153.1387  135.4652  154.9462 H   0  0  0  0  0  0  0  0  0  0  0  0  # atno 10763 bound_to 10752
  154.7728  135.3164  154.8156 H   0  0  0  0  0  0  0  0  0  0  0  0  # atno 10764 bound_to 10752
  153.8683  135.6906  153.4830 H   0  0  0  0  0  0  0  0  0  0  0  0  # atno 10765 bound_to 10752
  141.1525  133.6734  156.6399 H   0  0  0  0  0  0  0  0  0  0  0  0  # atno 11005 bound_to 11000
  145.7054  139.1671  143.2569 LP  0  0  0  0  0  0  0  0  0  0  0  0  # atno 17320 bound_to 7965
  146.1385  140.7090  142.9378 LP  0  0  0  0  0  0  0  0  0  0  0  0  # atno 17321 bound_to 7965
  140.5723  144.0088  150.6223 LP  0  0  0  0  0  0  0  0  0  0  0  0  # atno 17342 bound_to 10162
  140.3210  143.3137  152.0784 LP  0  0  0  0  0  0  0  0  0  0  0  0  # atno 17343 bound_to 10162
  156.9992  130.5593  149.5310 LP  0  0  0  0  0  0  0  0  0  0  0  0  # atno 17370 bound_to 10713
  156.0267  130.5361  150.8426 LP  0  0  0  0  0  0  0  0  0  0  0  0  # atno 17371 bound_to 10713
  140.3401  134.7856  157.4391 LP  0  0  0  0  0  0  0  0  0  0  0  0  # atno 17394 bound_to 11000
  140.0945  134.5556  155.8412 LP  0  0  0  0  0  0  0  0  0  0  0  0  # atno 17395 bound_to 11000

$$$$
