AV-unprocessed.smi:910|AV-procd|sdf|4127|dock9
  -GOLD-   22720 2 33D 1   1.00000     0.00000
 Structure written by MMmdl.
 46 47  0  0  0  0  0  0  0  0  1 V2000
  145.9070  132.9623  161.9929 C   0  0  0  0  0  0  0  0  0  0  0  0
  146.0801  134.4208  161.6310 C   0  0  0  0  0  0  0  0  0  0  0  0
  147.1270  134.8606  160.8691 N   0  0  0  0  0  0  0  0  0  0  0  0
  147.0045  136.2393  160.7128 C   0  0  0  0  0  0  0  0  0  0  0  0
  147.7206  137.1258  160.0915 N   0  0  0  0  0  0  0  0  0  0  0  0
  148.8536  136.7349  159.3924 C   0  0  0  0  0  0  0  0  0  0  0  0
  149.2177  135.5918  159.0984 O   0  0  0  0  0  0  0  0  0  0  0  0
  149.5812  137.8107  159.0583 N   0  0  0  0  0  0  0  0  0  0  0  0
  150.8548  137.7884  158.3461 C   0  0  0  0  0  0  0  0  0  0  0  0
  151.7860  138.9169  158.8119 C   0  0  0  0  0  0  0  0  0  0  0  0
  151.7195  139.9813  157.8746 O   0  0  0  0  0  0  0  0  0  0  0  0
  151.5978  141.2731  158.4558 C   0  0  1  0  0  0  0  0  0  0  0  0
  152.9085  141.6336  159.1859 C   0  0  0  0  0  0  0  0  0  0  0  0
  152.8821  143.0760  159.7122 C   0  0  0  0  0  0  0  0  0  0  0  0
  152.5969  144.0699  158.5776 C   0  0  0  0  0  0  0  0  0  0  0  0
  151.2875  143.7207  157.8538 C   0  0  0  0  0  0  0  0  0  0  0  0
  151.2969  142.2746  157.3181 C   0  0  2  0  0  0  0  0  0  0  0  0
  149.9704  141.9481  156.6112 C   0  0  0  0  0  0  0  0  0  0  0  0
  145.8721  136.6021  161.3977 O   0  0  0  0  0  0  0  0  0  0  0  0
  145.3321  135.4762  161.9424 C   0  0  0  0  0  0  0  0  0  0  0  0
  144.0635  135.5975  162.7558 C   0  0  0  0  0  0  0  0  0  0  0  0
  145.9064  132.8402  163.0762 H   0  0  0  0  0  0  0  0  0  0  0  0
  146.7147  132.3580  161.5789 H   0  0  0  0  0  0  0  0  0  0  0  0
  144.9610  132.5864  161.6025 H   0  0  0  0  0  0  0  0  0  0  0  0
  147.8440  134.2523  160.5007 H   0  0  0  0  0  0  0  0  0  0  0  0
  149.2337  138.7174  159.3358 H   0  0  0  0  0  0  0  0  0  0  0  0
  151.3387  136.8196  158.4793 H   0  0  0  0  0  0  0  0  0  0  0  0
  150.6542  137.8904  157.2794 H   0  0  0  0  0  0  0  0  0  0  0  0
  151.4933  139.2630  159.8044 H   0  0  0  0  0  0  0  0  0  0  0  0
  152.8067  138.5416  158.8873 H   0  0  0  0  0  0  0  0  0  0  0  0
  150.7659  141.2968  159.1626 H   0  0  0  0  0  0  0  0  0  0  0  0
  153.0842  140.9510  160.0170 H   0  0  0  0  0  0  0  0  0  0  0  0
  153.7513  141.5119  158.5038 H   0  0  0  0  0  0  0  0  0  0  0  0
  152.1172  143.1707  160.4841 H   0  0  0  0  0  0  0  0  0  0  0  0
  153.8337  143.3162  160.1870 H   0  0  0  0  0  0  0  0  0  0  0  0
  152.5424  145.0834  158.9760 H   0  0  0  0  0  0  0  0  0  0  0  0
  153.4234  144.0608  157.8657 H   0  0  0  0  0  0  0  0  0  0  0  0
  150.4492  143.8542  158.5391 H   0  0  0  0  0  0  0  0  0  0  0  0
  151.1284  144.4212  157.0332 H   0  0  0  0  0  0  0  0  0  0  0  0
  152.0947  142.1976  156.5778 H   0  0  0  0  0  0  0  0  0  0  0  0
  149.1304  141.9890  157.3057 H   0  0  0  0  0  0  0  0  0  0  0  0
  149.9882  140.9502  156.1720 H   0  0  0  0  0  0  0  0  0  0  0  0
  149.7707  142.6551  155.8057 H   0  0  0  0  0  0  0  0  0  0  0  0
  143.4014  134.7540  162.5586 H   0  0  0  0  0  0  0  0  0  0  0  0
  143.5350  136.5169  162.5035 H   0  0  0  0  0  0  0  0  0  0  0  0
  144.2986  135.6131  163.8200 H   0  0  0  0  0  0  0  0  0  0  0  0
  1 22  1  0  0  0  0
  1 23  1  0  0  0  0
  1 24  1  0  0  0  0
  1  2  1  0  0  0  0
  2  3  1  0  0  0  0
  2 20  2  0  0  0  0
  3 25  1  0  0  0  0
  3  4  1  0  0  0  0
  4 19  1  0  0  0  0
  4  5  2  0  0  0  0
  5  6  1  0  0  0  0
  6  8  1  0  0  0  0
  6  7  2  0  0  0  0
  8  9  1  0  0  0  0
  8 26  1  0  0  0  0
  9 10  1  0  0  0  0
  9 27  1  0  0  0  0
  9 28  1  0  0  0  0
 10 11  1  0  0  0  0
 10 29  1  0  0  0  0
 10 30  1  0  0  0  0
 11 12  1  0  0  0  0
 12 17  1  0  0  0  0
 12 13  1  0  0  0  0
 12 31  1  0  0  0  0
 13 14  1  0  0  0  0
 13 32  1  0  0  0  0
 13 33  1  0  0  0  0
 14 15  1  0  0  0  0
 14 34  1  0  0  0  0
 14 35  1  0  0  0  0
 15 16  1  0  0  0  0
 15 36  1  0  0  0  0
 15 37  1  0  0  0  0
 16 17  1  0  0  0  0
 16 38  1  0  0  0  0
 16 39  1  0  0  0  0
 17 18  1  0  0  0  0
 17 40  1  0  0  0  0
 18 41  1  0  0  0  0
 18 42  1  0  0  0  0
 18 43  1  0  0  0  0
 19 20  1  0  0  0  0
 20 21  1  0  0  0  0
 21 44  1  0  0  0  0
 21 45  1  0  0  0  0
 21 46  1  0  0  0  0
M  END
> <s_m_source_file>
AV-unprocessed.smi

> <i_m_source_file_index>
910

> <i_lp_mmshare_version>
43012

> <i_f3d_flags>
0

> <s_epik_input>
W0NIM11jMW5jKG9jMVtDSDNdKVtOSF1DKD1PKVtOSF1bQ0gyXVtDSDJdT1tDQEBIXTJbQ0gyXVtDSDJdW0NIMl1bQ0gyXVtDQEhdMltDSDNd

> <s_epik_cmdline>
J2VwaWtfcHl0aG9uJywgJy1waCcsICc3LjAnLCAnLXRuJywgJzgnLCAnLW1hJywgJzIwMCcsICctbWV0YWxfYmluZGluZycsICctaW1hZScsICc8aW5maWxlLm1hZT4nLCAnLW9tYWUnLCAnPG91dGZpbGUubWFlPic=

> <r_lp_tautomer_probability>
0.107061

> <r_epik_Ionization_Penalty>
0.727192

> <r_epik_Ionization_Penalty_Charging>
0.726719

> <r_epik_Ionization_Penalty_Neutral>
0.000473387

> <r_epik_State_Penalty>
2.53712

> <r_epik_Charging_Adjusted_Penalty>
3.26383

> <i_epik_Tot_Q>
0

> <i_epik_Tot_abs_Q>
0

> <r_epik_Metal_State_Penalty>
3.71015

> <b_epik_Metal_Only>
0

> <s_lp_Force_Field>
OPLS_2005

> <r_lp_Energy>
31.2477

> <b_lp_Chiralities_Consistent>
1

> <s_lp_Variant>
AV-unprocessed.smi:910-12

> <Gold.Version>
5.8.1

> <Gold.Id.Protein>
6NUR|6NUR_protein|mol2

> <Gold.PLP.Fitness>
42.1729

> <Gold.PLP.PLP>
-38.1200

> <Gold.PLP.part.hbond>
-2.8320

> <Gold.PLP.part.metal>
0.0000

> <Gold.PLP.part.buried>
-4.9239

> <Gold.PLP.part.nonpolar>
-32.2531

> <Gold.PLP.part.repulsive>
0.7766

> <Gold.PLP.ligand.clash>
0.0000

> <Gold.PLP.ligand.torsion>
0.8541

> <Gold.PLP.Chemscore.Hbond>
1.9171

> <Gold.PLP.Chemscore.CHOScore>
0.0000

> <Gold.PLP.Chemscore.Metal>
0.0000

> <Gold.Chemscore.Hbonds>
donor molecule, donor type, donor heavy atom, donor atom, acceptor molecule, acceptor atom, score
      P1  H  6896  6909       L1     7  1.00
      P1  H  6934  6947       L1     5  0.64

> <Gold.PLP.Chemscore.Internal.Correction>
0.0098

> <Gold.Rescore>
     Score         DG    S(hbond)    S(metal)    S(lipo)     H(rot)  DE(clash)    DE(int)     intcor
     16.51     -18.97       1.55        0.00     107.24       1.66       0.28       2.18       ----

> <Gold.Chemscore.Fitness>
16.5115

> <Gold.Chemscore.DG>
-18.9717

> <Gold.Chemscore.ZeroCoef>
-5.4800

> <Gold.Chemscore.Hbond>
1.5533

> <Gold.Chemscore.Metal>
0.0000

> <Gold.Chemscore.Lipo>
107.2424

> <Gold.Chemscore.Internal_Hbond>
0.0000

> <Gold.Chemscore.DEClash>
0.2840

> <Gold.Chemscore.DEInternal>
2.1762

> <Gold.Chemscore.Rot>
1.6576

> <Gold.Chemscore.Internal.Correction>
   9.000000E+99

> <Gold.Chemscore.Hbonds>
donor molecule, donor type, donor heavy atom, donor atom, acceptor molecule, acceptor atom, score
      P1  H  6896  6909       L1     7  1.00
      P1  H  6934  6947       L1     5  0.38

> <Gold.Chemscore.Hbond.Weighted>
-5.1879

> <Gold.Chemscore.Metal.Weighted>
-0.0000

> <Gold.Chemscore.Lipo.Weighted>
-12.5474

> <Gold.Chemscore.Internal_Hbond.Weighted>
0.0000

> <Gold.Chemscore.DEClash.Weighted>
0.2840

> <Gold.Chemscore.DEInternal.Weighted>
2.1762

> <Gold.Chemscore.Rot.Weighted>
4.2436

> <Gold.Chemscore.Internal.Correction.Weighted>
   9.000000E+99

> <Gold.Protein.RotatedTorsions>
[ 6907 6896 6895 6894 ] final   62.75 input  -60.11 | X-H torsion
[ 7974 7965 7964 7962 ] final   -8.26 input  175.53 | X-H torsion
[ 8008 7997 7996 7995 ] final   30.40 input   59.86 | X-H torsion
[ 10167 10162 10161 10158 ] final -177.07 input  -65.29 | X-H torsion
[ 10718 10713 10712 10709 ] final -142.97 input   66.30 | X-H torsion
[ 10763 10752 10751 10750 ] final -132.46 input  -60.55 | X-H torsion
[ 11005 11000 10999 10996 ] final  -88.86 input  -57.11 | X-H torsion

> <Gold.Protein.ActiveResidues>
 VAL166  LYS551  ARG553  GLY616  TRP617  ASP618  TYR619  PRO620  LYS621  CYS622 
 ASP623  PHE694  ASN695  SER759  ASP760  ASP761  ALA762  ILE779  LEU786  VAL792 
 PHE793  MET794  SER795  GLU796  ALA797  LYS798  CYS799  TRP800  GLU811  SER814 

> <Gold.Protein.RotatedAtoms>
  152.4197  134.5977  159.9991 H   0  0  0  0  0  0  0  0  0  0  0  0  # atno 6907 bound_to 6896
  151.6130  133.3340  159.3079 H   0  0  0  0  0  0  0  0  0  0  0  0  # atno 6908 bound_to 6896
  150.8086  134.7264  159.6732 H   0  0  0  0  0  0  0  0  0  0  0  0  # atno 6909 bound_to 6896
  146.2285  140.2442  142.8344 H   0  0  0  0  0  0  0  0  0  0  0  0  # atno 7974 bound_to 7965
  155.0898  140.3219  155.4577 H   0  0  0  0  0  0  0  0  0  0  0  0  # atno 8008 bound_to 7997
  156.2745  140.2080  156.5972 H   0  0  0  0  0  0  0  0  0  0  0  0  # atno 8009 bound_to 7997
  154.6912  140.0516  157.0352 H   0  0  0  0  0  0  0  0  0  0  0  0  # atno 8010 bound_to 7997
  139.5498  144.2138  152.1056 H   0  0  0  0  0  0  0  0  0  0  0  0  # atno 10167 bound_to 10162
  156.3523  130.7694  151.1849 H   0  0  0  0  0  0  0  0  0  0  0  0  # atno 10718 bound_to 10713
  154.8743  135.3797  154.4413 H   0  0  0  0  0  0  0  0  0  0  0  0  # atno 10763 bound_to 10752
  153.5098  135.7030  153.5792 H   0  0  0  0  0  0  0  0  0  0  0  0  # atno 10764 bound_to 10752
  153.4087  135.3930  155.2002 H   0  0  0  0  0  0  0  0  0  0  0  0  # atno 10765 bound_to 10752
  141.1595  133.7595  156.9512 H   0  0  0  0  0  0  0  0  0  0  0  0  # atno 11005 bound_to 11000
  144.9461  140.8130  143.5600 LP  0  0  0  0  0  0  0  0  0  0  0  0  # atno 17320 bound_to 7965
  145.2398  139.2077  143.4998 LP  0  0  0  0  0  0  0  0  0  0  0  0  # atno 17321 bound_to 7965
  140.1632  144.5006  150.6621 LP  0  0  0  0  0  0  0  0  0  0  0  0  # atno 17342 bound_to 10162
  140.6758  143.2304  151.5511 LP  0  0  0  0  0  0  0  0  0  0  0  0  # atno 17343 bound_to 10162
  157.7463  131.0424  150.4692 LP  0  0  0  0  0  0  0  0  0  0  0  0  # atno 17370 bound_to 10713
  156.4889  130.4091  149.6418 LP  0  0  0  0  0  0  0  0  0  0  0  0  # atno 17371 bound_to 10713
  140.1256  134.9389  157.2265 LP  0  0  0  0  0  0  0  0  0  0  0  0  # atno 17394 bound_to 11000
  140.3017  134.3124  155.7288 LP  0  0  0  0  0  0  0  0  0  0  0  0  # atno 17395 bound_to 11000

$$$$
