AV-unprocessed.smi:2124|AV-procd|sdf|8651|dock6
  -GOLD-   2272011403D 1   1.00000     0.00000
 Structure written by MMmdl.
 47 49  0  0  0  0  0  0  0  0  1 V2000
  154.0350  133.7013  158.2377 C   0  0  0  0  0  0  0  0  0  0  0  0
  154.1947  135.1026  158.7886 C   0  0  0  0  0  0  0  0  0  0  0  0
  153.6789  135.5019  159.9043 N   0  0  0  0  0  0  0  0  0  0  0  0
  153.8980  136.8244  160.3144 C   0  0  0  0  0  0  0  0  0  0  0  0
  153.2642  137.2098  161.6402 C   0  0  0  0  0  0  0  0  0  0  0  0
  154.6397  137.6920  159.5640 C   0  0  0  0  0  0  0  0  0  0  0  0
  154.8990  139.1437  159.9683 C   0  0  0  0  0  0  0  0  0  0  0  0
  153.6627  140.0089  160.2308 C   0  0  0  0  0  0  0  0  0  0  0  0
  152.5424  139.5540  160.0031 O   0  0  0  0  0  0  0  0  0  0  0  0
  153.8767  141.2508  160.6940 N   0  0  0  0  0  0  0  0  0  0  0  0
  152.8519  142.2455  160.9990 C   0  0  1  0  0  0  0  0  0  0  0  0
  153.0699  142.7595  162.4308 C   0  0  0  0  0  0  0  0  0  0  0  0
  152.9027  143.3850  159.9541 C   0  0  2  0  0  0  0  0  0  0  0  0
  152.2174  144.6998  160.3903 C   0  0  0  0  0  0  0  0  0  0  0  0
  151.3114  145.0344  159.1903 C   0  0  2  0  0  0  0  0  0  0  0  0
  150.1062  144.0766  159.1877 C   0  0  0  0  0  0  0  0  0  0  0  0
  150.7365  142.7431  158.7477 C   0  0  0  0  0  0  0  0  0  0  0  0
  152.2278  143.1050  158.5868 C   0  0  1  0  0  0  0  0  0  0  0  0
  152.1287  144.5148  158.0130 C   0  0  0  0  0  0  0  0  0  0  0  0
  155.2194  137.2267  158.2893 C   0  0  0  0  0  0  0  0  0  0  0  0
  155.8925  137.9264  157.5345 O   0  0  0  0  0  0  0  0  0  0  0  0
  154.9584  135.9380  157.9755 N   0  0  0  0  0  0  0  0  0  0  0  0
  155.3347  135.5722  157.1130 H   0  0  0  0  0  0  0  0  0  0  0  0
  154.5428  133.5841  157.2794 H   0  0  0  0  0  0  0  0  0  0  0  0
  152.9788  133.4724  158.0940 H   0  0  0  0  0  0  0  0  0  0  0  0
  154.4521  132.9747  158.9352 H   0  0  0  0  0  0  0  0  0  0  0  0
  154.0336  137.4303  162.3802 H   0  0  0  0  0  0  0  0  0  0  0  0
  152.6458  136.4018  162.0329 H   0  0  0  0  0  0  0  0  0  0  0  0
  152.6287  138.0876  161.5290 H   0  0  0  0  0  0  0  0  0  0  0  0
  155.5107  139.1701  160.8695 H   0  0  0  0  0  0  0  0  0  0  0  0
  155.5128  139.6265  159.2063 H   0  0  0  0  0  0  0  0  0  0  0  0
  154.8345  141.5329  160.8448 H   0  0  0  0  0  0  0  0  0  0  0  0
  151.8629  141.7866  160.9657 H   0  0  0  0  0  0  0  0  0  0  0  0
  152.3066  143.4842  162.7143 H   0  0  0  0  0  0  0  0  0  0  0  0
  154.0421  143.2421  162.5363 H   0  0  0  0  0  0  0  0  0  0  0  0
  153.0250  141.9414  163.1506 H   0  0  0  0  0  0  0  0  0  0  0  0
  153.9538  143.6030  159.7543 H   0  0  0  0  0  0  0  0  0  0  0  0
  151.6425  144.5981  161.3116 H   0  0  0  0  0  0  0  0  0  0  0  0
  152.9606  145.4819  160.5502 H   0  0  0  0  0  0  0  0  0  0  0  0
  151.0327  146.0868  159.1320 H   0  0  0  0  0  0  0  0  0  0  0  0
  149.6286  144.0084  160.1659 H   0  0  0  0  0  0  0  0  0  0  0  0
  149.3524  144.3997  158.4688 H   0  0  0  0  0  0  0  0  0  0  0  0
  150.5592  141.9373  159.4591 H   0  0  0  0  0  0  0  0  0  0  0  0
  150.3180  142.4260  157.7917 H   0  0  0  0  0  0  0  0  0  0  0  0
  152.7803  142.4030  157.9616 H   0  0  0  0  0  0  0  0  0  0  0  0
  151.5950  144.5594  157.0617 H   0  0  0  0  0  0  0  0  0  0  0  0
  153.0954  145.0098  157.9042 H   0  0  0  0  0  0  0  0  0  0  0  0
  1  2  1  0  0  0  0
  1 24  1  0  0  0  0
  1 25  1  0  0  0  0
  1 26  1  0  0  0  0
  2 22  1  0  0  0  0
  2  3  2  0  0  0  0
  3  4  1  0  0  0  0
  4  5  1  0  0  0  0
  4  6  2  0  0  0  0
  5 27  1  0  0  0  0
  5 28  1  0  0  0  0
  5 29  1  0  0  0  0
  6  7  1  0  0  0  0
  6 20  1  0  0  0  0
  7  8  1  0  0  0  0
  7 30  1  0  0  0  0
  7 31  1  0  0  0  0
  8  9  2  0  0  0  0
  8 10  1  0  0  0  0
 10 11  1  0  0  0  0
 10 32  1  0  0  0  0
 11 12  1  0  0  0  0
 11 13  1  0  0  0  0
 11 33  1  0  0  0  0
 12 34  1  0  0  0  0
 12 35  1  0  0  0  0
 12 36  1  0  0  0  0
 13 18  1  0  0  0  0
 13 14  1  0  0  0  0
 13 37  1  0  0  0  0
 14 15  1  0  0  0  0
 14 38  1  0  0  0  0
 14 39  1  0  0  0  0
 15 19  1  0  0  0  0
 15 16  1  0  0  0  0
 15 40  1  0  0  0  0
 16 17  1  0  0  0  0
 16 41  1  0  0  0  0
 16 42  1  0  0  0  0
 17 18  1  0  0  0  0
 17 43  1  0  0  0  0
 17 44  1  0  0  0  0
 18 19  1  0  0  0  0
 18 45  1  0  0  0  0
 19 46  1  0  0  0  0
 19 47  1  0  0  0  0
 20 21  2  0  0  0  0
 20 22  1  0  0  0  0
 22 23  1  0  0  0  0
M  END
> <s_m_source_file>
AV-unprocessed.smi

> <i_m_source_file_index>
2124

> <i_lp_mmshare_version>
43012

> <i_f3d_flags>
0

> <s_epik_input>
W0NIM11jMW5jKFtDSDNdKWMoYyg9TylbbkhdMSlbQ0gyXUMoPU8pW05IXVtDQEhdKFtDSDNdKVtDQEhdKFtDSDJdW0NASF0yMylbQ0BIXShbQ0gyXTMpW0NIMl1bQ0gyXTI=

> <s_epik_cmdline>
J2VwaWtfcHl0aG9uJywgJy1waCcsICc3LjAnLCAnLXRuJywgJzgnLCAnLW1hJywgJzIwMCcsICctbWV0YWxfYmluZGluZycsICctaW1hZScsICc8aW5maWxlLm1hZT4nLCAnLW9tYWUnLCAnPG91dGZpbGUubWFlPic=

> <r_lp_tautomer_probability>
0.839158

> <r_epik_Ionization_Penalty>
0.000383628

> <r_epik_Ionization_Penalty_Charging>
0.00035045

> <r_epik_Ionization_Penalty_Neutral>
3.31781e-05

> <r_epik_State_Penalty>
0.09125

> <r_epik_Charging_Adjusted_Penalty>
0.0916005

> <i_epik_Tot_Q>
0

> <i_epik_Tot_abs_Q>
0

> <r_epik_Metal_State_Penalty>
0.255229

> <b_epik_Metal_Only>
0

> <s_lp_Force_Field>
OPLS_2005

> <r_lp_Energy>
53.2281

> <b_lp_Chiralities_Consistent>
1

> <s_lp_Variant>
AV-unprocessed.smi:2124-2

> <Gold.Version>
5.8.1

> <Gold.Id.Protein>
6NUR|6NUR_protein|mol2

> <Gold.PLP.Fitness>
47.1082

> <Gold.PLP.PLP>
-45.2879

> <Gold.PLP.part.hbond>
-1.7949

> <Gold.PLP.part.metal>
0.0000

> <Gold.PLP.part.buried>
-7.2165

> <Gold.PLP.part.nonpolar>
-36.8603

> <Gold.PLP.part.repulsive>
0.1783

> <Gold.PLP.ligand.clash>
0.0000

> <Gold.PLP.ligand.torsion>
0.4888

> <Gold.PLP.Chemscore.Hbond>
0.9241

> <Gold.PLP.Chemscore.CHOScore>
0.0000

> <Gold.PLP.Chemscore.Metal>
0.0000

> <Gold.Chemscore.Hbonds>
donor molecule, donor type, donor heavy atom, donor atom, acceptor molecule, acceptor atom, score
      P1  H  6896  6909       L1     3  0.54
      P1  H  7997  8008       L1    21  0.31

> <Gold.PLP.Chemscore.Internal.Correction>
0.0257

> <Gold.Rescore>
     Score         DG    S(hbond)    S(metal)    S(lipo)     H(rot)  DE(clash)    DE(int)     intcor
     18.52     -19.22       0.94        0.00     126.76       1.65       0.02       0.68       ----

> <Gold.Chemscore.Fitness>
18.5155

> <Gold.Chemscore.DG>
-19.2173

> <Gold.Chemscore.ZeroCoef>
-5.4800

> <Gold.Chemscore.Hbond>
0.9400

> <Gold.Chemscore.Metal>
0.0000

> <Gold.Chemscore.Lipo>
126.7552

> <Gold.Chemscore.Internal_Hbond>
0.0000

> <Gold.Chemscore.DEClash>
0.0186

> <Gold.Chemscore.DEInternal>
0.6832

> <Gold.Chemscore.Rot>
1.6534

> <Gold.Chemscore.Internal.Correction>
   9.000000E+99

> <Gold.Chemscore.Hbonds>
donor molecule, donor type, donor heavy atom, donor atom, acceptor molecule, acceptor atom, score
      P1  H  6896  6909       L1     3  0.36
      P1  H  7997  8008       L1    21  0.31

> <Gold.Chemscore.Hbond.Weighted>
-3.1396

> <Gold.Chemscore.Metal.Weighted>
-0.0000

> <Gold.Chemscore.Lipo.Weighted>
-14.8304

> <Gold.Chemscore.Internal_Hbond.Weighted>
0.0000

> <Gold.Chemscore.DEClash.Weighted>
0.0186

> <Gold.Chemscore.DEInternal.Weighted>
0.6832

> <Gold.Chemscore.Rot.Weighted>
4.2326

> <Gold.Chemscore.Internal.Correction.Weighted>
   9.000000E+99

> <Gold.Protein.RotatedTorsions>
[ 6907 6896 6895 6894 ] final  142.76 input  -60.11 | X-H torsion
[ 7974 7965 7964 7962 ] final   84.69 input  175.53 | X-H torsion
[ 8008 7997 7996 7995 ] final -170.53 input   59.86 | X-H torsion
[ 10167 10162 10161 10158 ] final   72.42 input  -65.29 | X-H torsion
[ 10718 10713 10712 10709 ] final    2.41 input   66.30 | X-H torsion
[ 10763 10752 10751 10750 ] final  146.52 input  -60.55 | X-H torsion
[ 11005 11000 10999 10996 ] final  -78.27 input  -57.11 | X-H torsion

> <Gold.Protein.ActiveResidues>
 VAL166  LYS551  ARG553  GLY616  TRP617  ASP618  TYR619  PRO620  LYS621  CYS622 
 ASP623  PHE694  ASN695  SER759  ASP760  ASP761  ALA762  ILE779  LEU786  VAL792 
 PHE793  MET794  SER795  GLU796  ALA797  LYS798  CYS799  TRP800  GLU811  SER814 

> <Gold.Protein.RotatedAtoms>
  152.2147  133.4938  159.5129 H   0  0  0  0  0  0  0  0  0  0  0  0  # atno 6907 bound_to 6896
  150.6998  134.1421  159.4118 H   0  0  0  0  0  0  0  0  0  0  0  0  # atno 6908 bound_to 6896
  151.9341  135.0243  160.0582 H   0  0  0  0  0  0  0  0  0  0  0  0  # atno 6909 bound_to 6896
  145.5955  139.2344  143.2275 H   0  0  0  0  0  0  0  0  0  0  0  0  # atno 7974 bound_to 7965
  155.9195  140.1071  157.1217 H   0  0  0  0  0  0  0  0  0  0  0  0  # atno 8008 bound_to 7997
  154.4052  140.1258  156.4726 H   0  0  0  0  0  0  0  0  0  0  0  0  # atno 8009 bound_to 7997
  155.7213  140.3470  155.5019 H   0  0  0  0  0  0  0  0  0  0  0  0  # atno 8010 bound_to 7997
  140.0355  144.5431  150.7474 H   0  0  0  0  0  0  0  0  0  0  0  0  # atno 10167 bound_to 10162
  156.8626  130.5592  149.5662 H   0  0  0  0  0  0  0  0  0  0  0  0  # atno 10718 bound_to 10713
  154.0232  135.2904  155.3378 H   0  0  0  0  0  0  0  0  0  0  0  0  # atno 10763 bound_to 10752
  154.7033  135.5179  153.8562 H   0  0  0  0  0  0  0  0  0  0  0  0  # atno 10764 bound_to 10752
  153.0672  135.6635  154.0452 H   0  0  0  0  0  0  0  0  0  0  0  0  # atno 10765 bound_to 10752
  141.1664  133.7056  156.7947 H   0  0  0  0  0  0  0  0  0  0  0  0  # atno 11005 bound_to 11000
  146.1615  140.6780  142.9275 LP  0  0  0  0  0  0  0  0  0  0  0  0  # atno 17320 bound_to 7965
  144.7333  140.4734  143.6922 LP  0  0  0  0  0  0  0  0  0  0  0  0  # atno 17321 bound_to 7965
  140.7283  143.2661  151.4042 LP  0  0  0  0  0  0  0  0  0  0  0  0  # atno 17342 bound_to 10162
  139.6048  144.1220  152.2237 LP  0  0  0  0  0  0  0  0  0  0  0  0  # atno 17343 bound_to 10162
  156.0768  130.5788  150.9489 LP  0  0  0  0  0  0  0  0  0  0  0  0  # atno 17370 bound_to 10713
  157.6241  131.0927  150.8566 LP  0  0  0  0  0  0  0  0  0  0  0  0  # atno 17371 bound_to 10713
  140.2300  134.8693  157.3466 LP  0  0  0  0  0  0  0  0  0  0  0  0  # atno 17394 bound_to 11000
  140.1901  134.4383  155.7721 LP  0  0  0  0  0  0  0  0  0  0  0  0  # atno 17395 bound_to 11000

$$$$
