AV-unprocessed.smi:160|AV-procd|sdf|1372|dock2
  -GOLD-   2262019 93D 1   1.00000     0.00000
 Structure written by MMmdl.
 28 29  0  0  0  0  0  0  0  0  2 V2000
  154.7486  138.1627  159.1323 N   0  5  0  0  0  0  0  0  0  0  0  0
  153.5298  137.5929  159.2542 C   0  0  0  0  0  0  0  0  0  0  0  0
  153.2593  136.5864  159.9086 O   0  0  0  0  0  0  0  0  0  0  0  0
  152.4303  138.2980  158.4952 C   0  0  0  0  0  0  0  0  0  0  0  0
  151.1263  137.9091  158.6342 N   0  0  0  0  0  0  0  0  0  0  0  0
  150.5561  138.7768  157.8089 C   0  0  0  0  0  0  0  0  0  0  0  0
  151.4127  139.6252  157.2292 N   0  0  0  0  0  0  0  0  0  0  0  0
  151.2011  140.7184  156.2290 C   0  0  1  0  0  0  0  0  0  0  0  0
  150.7205  140.1413  155.0519 O   0  0  0  0  0  0  0  0  0  0  0  0
  149.2981  140.1931  155.0476 C   0  0  2  0  0  0  0  0  0  0  0  0
  148.7325  139.9506  153.6366 C   0  0  0  0  0  0  0  0  0  0  0  0
  149.1845  138.7096  153.1377 O   0  0  0  0  0  0  0  0  0  0  0  0
  149.0383  141.5848  155.6382 C   0  0  2  0  0  0  0  0  0  0  0  0
  149.1746  142.5829  154.6389 O   0  0  0  0  0  0  0  0  0  0  0  0
  150.1099  141.6884  156.7250 C   0  0  2  0  0  0  0  0  0  0  0  0
  150.5786  143.0111  156.9121 O   0  0  0  0  0  0  0  0  0  0  0  0
  152.6597  139.3154  157.6587 N   0  0  0  0  0  0  0  0  0  0  0  0
  152.1874  141.1623  156.0873 H   0  0  0  0  0  0  0  0  0  0  0  0
  148.9071  139.4461  155.7414 H   0  0  0  0  0  0  0  0  0  0  0  0
  148.0351  141.6633  156.0586 H   0  0  0  0  0  0  0  0  0  0  0  0
  149.6980  141.3264  157.6686 H   0  0  0  0  0  0  0  0  0  0  0  0
  154.9557  138.9969  159.6942 H   0  0  0  0  0  0  0  0  0  0  0  0
  149.4919  138.7920  157.6245 H   0  0  0  0  0  0  0  0  0  0  0  0
  147.6431  139.9109  153.6706 H   0  0  0  0  0  0  0  0  0  0  0  0
  149.0086  140.7541  152.9529 H   0  0  0  0  0  0  0  0  0  0  0  0
  149.5193  138.8418  152.2638 H   0  0  0  0  0  0  0  0  0  0  0  0
  149.3102  143.4141  155.0682 H   0  0  0  0  0  0  0  0  0  0  0  0
  149.8723  143.6071  156.7120 H   0  0  0  0  0  0  0  0  0  0  0  0
  1  2  1  0  0  0  0
  1 22  1  0  0  0  0
  2  3  2  0  0  0  0
  2  4  1  0  0  0  0
  4 17  2  0  0  0  0
  4  5  1  0  0  0  0
  5  6  2  0  0  0  0
  6  7  1  0  0  0  0
  6 23  1  0  0  0  0
  7  8  1  0  0  0  0
  7 17  1  0  0  0  0
  8 18  1  0  0  0  0
  8 15  1  0  0  0  0
  8  9  1  0  0  0  0
  9 10  1  0  0  0  0
 10 19  1  0  0  0  0
 10 11  1  0  0  0  0
 10 13  1  0  0  0  0
 11 12  1  0  0  0  0
 11 24  1  0  0  0  0
 11 25  1  0  0  0  0
 12 26  1  0  0  0  0
 13 20  1  0  0  0  0
 13 14  1  0  0  0  0
 13 15  1  0  0  0  0
 14 27  1  0  0  0  0
 15 21  1  0  0  0  0
 15 16  1  0  0  0  0
 16 28  1  0  0  0  0
M  CHG  1   1  -1
M  END
> <s_m_source_file>
AV-unprocessed.smi

> <i_m_source_file_index>
160

> <i_lp_mmshare_version>
43012

> <i_f3d_flags>
0

> <s_epik_input>
W05IMl1DKD1PKWMxbltjSF1uKG4xKVtDQEBIXTJPW0NASF0oW0NIMl1bT0hdKVtDQEBIXShbT0hdKVtDQEhdMltPSF0=

> <s_epik_cmdline>
J2VwaWtfcHl0aG9uJywgJy1waCcsICc3LjAnLCAnLXRuJywgJzgnLCAnLW1hJywgJzIwMCcsICctbWV0YWxfYmluZGluZycsICctaW1hZScsICc8aW5maWxlLm1hZT4nLCAnLW9tYWUnLCAnPG91dGZpbGUubWFlPic=

> <r_lp_tautomer_probability>
1

> <r_epik_Ionization_Penalty>
6.6993

> <r_epik_Ionization_Penalty_Charging>
6.6993

> <r_epik_Ionization_Penalty_Neutral>
6.01698e-06

> <r_epik_State_Penalty>
6.69929

> <r_epik_Charging_Adjusted_Penalty>
13.3986

> <i_epik_Tot_Q>
-1

> <i_epik_Tot_abs_Q>
1

> <r_epik_Metal_State_Penalty>
2.62798

> <b_epik_Metal_Only>
1

> <s_epik_Chemistry_Notes>
This compound contains an acetal/aminal-like group ( X-CH(R)-Y where X, Y are N, S, or O) that may be acid/base labile, releasing an aldehyde.

> <s_lp_Force_Field>
OPLS_2005

> <r_lp_Energy>
45.7221

> <b_lp_Chiralities_Consistent>
1

> <s_lp_Variant>
AV-unprocessed.smi:160-30

> <Gold.Version>
5.8.1

> <Gold.Id.Protein>
6NUR|6NUR_protein|mol2

> <Gold.PLP.Fitness>
40.1499

> <Gold.PLP.PLP>
-22.8979

> <Gold.PLP.part.hbond>
-7.5197

> <Gold.PLP.part.metal>
0.0000

> <Gold.PLP.part.buried>
-1.3695

> <Gold.PLP.part.nonpolar>
-14.0121

> <Gold.PLP.part.repulsive>
0.0489

> <Gold.PLP.ligand.clash>
0.0000

> <Gold.PLP.ligand.torsion>
0.1289

> <Gold.PLP.Chemscore.Hbond>
5.8264

> <Gold.PLP.Chemscore.CHOScore>
0.0000

> <Gold.PLP.Chemscore.Metal>
0.0000

> <Gold.Chemscore.Hbonds>
donor molecule, donor type, donor heavy atom, donor atom, acceptor molecule, acceptor atom, score
      L1  H    12    26       P1  7957  0.80
      L1  H    14    27       P1  8028  0.88
      L1  H    16    28       P1  8028  1.00
      P1  H  6896  6908       L1     3  1.00
      P1  H  7989  7998       L1     9  1.00
      P1  H  7997  8009       L1    17  0.80
      P1  H  8011  8017       L1    14  0.01

> <Gold.PLP.Chemscore.Internal.Correction>
0.0307

> <Gold.Rescore>
     Score         DG    S(hbond)    S(metal)    S(lipo)     H(rot)  DE(clash)    DE(int)     intcor
     13.33     -15.00       5.05        0.00      25.60       4.04       1.41       0.25       ----

> <Gold.Chemscore.Fitness>
13.3296

> <Gold.Chemscore.DG>
-14.9954

> <Gold.Chemscore.ZeroCoef>
-5.4800

> <Gold.Chemscore.Hbond>
5.0488

> <Gold.Chemscore.Metal>
0.0000

> <Gold.Chemscore.Lipo>
25.6039

> <Gold.Chemscore.Internal_Hbond>
0.0000

> <Gold.Chemscore.DEClash>
1.4127

> <Gold.Chemscore.DEInternal>
0.2531

> <Gold.Chemscore.Rot>
4.0403

> <Gold.Chemscore.Internal.Correction>
   9.000000E+99

> <Gold.Chemscore.Hbonds>
donor molecule, donor type, donor heavy atom, donor atom, acceptor molecule, acceptor atom, score
      L1  H    12    26       P1  7957  0.47
      L1  H    14    27       P1  8028  0.84
      L1  H    16    28       P1  8028  0.98
      P1  H  6896  6908       L1     3  0.99
      P1  H  7989  7998       L1     9  0.73
      P1  H  7997  8009       L1    17  0.79
      P1  H  8011  8017       L1    14  0.01

> <Gold.Chemscore.Hbond.Weighted>
-16.8628

> <Gold.Chemscore.Metal.Weighted>
-0.0000

> <Gold.Chemscore.Lipo.Weighted>
-2.9957

> <Gold.Chemscore.Internal_Hbond.Weighted>
0.0000

> <Gold.Chemscore.DEClash.Weighted>
1.4127

> <Gold.Chemscore.DEInternal.Weighted>
0.2531

> <Gold.Chemscore.Rot.Weighted>
10.3431

> <Gold.Chemscore.Internal.Correction.Weighted>
   9.000000E+99

> <Gold.Protein.RotatedTorsions>
[ 6907 6896 6895 6894 ] final  -80.37 input  -60.11 | X-H torsion
[ 7974 7965 7964 7962 ] final -106.29 input  175.53 | X-H torsion
[ 8008 7997 7996 7995 ] final  164.66 input   59.86 | X-H torsion
[ 10167 10162 10161 10158 ] final  -36.98 input  -65.29 | X-H torsion
[ 10718 10713 10712 10709 ] final  127.59 input   66.30 | X-H torsion
[ 10763 10752 10751 10750 ] final  160.14 input  -60.55 | X-H torsion
[ 11005 11000 10999 10996 ] final  110.94 input  -57.11 | X-H torsion

> <Gold.Protein.ActiveResidues>
 VAL166  LYS551  ARG553  GLY616  TRP617  ASP618  TYR619  PRO620  LYS621  CYS622 
 ASP623  PHE694  ASN695  SER759  ASP760  ASP761  ALA762  ILE779  LEU786  VAL792 
 PHE793  MET794  SER795  GLU796  ALA797  LYS798  CYS799  TRP800  GLU811  SER814 

> <Gold.Protein.RotatedAtoms>
  150.6931  134.3980  159.5105 H   0  0  0  0  0  0  0  0  0  0  0  0  # atno 6907 bound_to 6896
  152.1758  134.8793  160.0540 H   0  0  0  0  0  0  0  0  0  0  0  0  # atno 6908 bound_to 6896
  151.9802  133.3720  159.4141 H   0  0  0  0  0  0  0  0  0  0  0  0  # atno 6909 bound_to 6896
  145.2197  140.9129  143.3267 H   0  0  0  0  0  0  0  0  0  0  0  0  # atno 7974 bound_to 7965
  156.1862  140.1691  156.8180 H   0  0  0  0  0  0  0  0  0  0  0  0  # atno 8008 bound_to 7997
  154.5417  140.0735  156.8554 H   0  0  0  0  0  0  0  0  0  0  0  0  # atno 8009 bound_to 7997
  155.3201  140.3373  155.4244 H   0  0  0  0  0  0  0  0  0  0  0  0  # atno 8010 bound_to 7997
  140.7129  143.3372  151.2436 H   0  0  0  0  0  0  0  0  0  0  0  0  # atno 10167 bound_to 10162
  157.5319  131.1098  150.8995 H   0  0  0  0  0  0  0  0  0  0  0  0  # atno 10718 bound_to 10713
  154.2427  135.2774  155.2847 H   0  0  0  0  0  0  0  0  0  0  0  0  # atno 10763 bound_to 10752
  154.5531  135.5669  153.6943 H   0  0  0  0  0  0  0  0  0  0  0  0  # atno 10764 bound_to 10752
  152.9996  135.6279  154.2572 H   0  0  0  0  0  0  0  0  0  0  0  0  # atno 10765 bound_to 10752
  139.8892  134.9496  156.6356 H   0  0  0  0  0  0  0  0  0  0  0  0  # atno 11005 bound_to 11000
  144.9777  139.3815  143.6277 LP  0  0  0  0  0  0  0  0  0  0  0  0  # atno 17320 bound_to 7965
  146.3379  139.8904  142.8810 LP  0  0  0  0  0  0  0  0  0  0  0  0  # atno 17321 bound_to 7965
  139.6870  143.9756  152.2839 LP  0  0  0  0  0  0  0  0  0  0  0  0  # atno 17342 bound_to 10162
  139.9405  144.6684  150.8271 LP  0  0  0  0  0  0  0  0  0  0  0  0  # atno 17343 bound_to 10162
  156.9574  130.5442  149.5284 LP  0  0  0  0  0  0  0  0  0  0  0  0  # atno 17370 bound_to 10713
  156.0429  130.5509  150.8813 LP  0  0  0  0  0  0  0  0  0  0  0  0  # atno 17371 bound_to 10713
  140.7633  133.8799  155.8435 LP  0  0  0  0  0  0  0  0  0  0  0  0  # atno 17394 bound_to 11000
  140.9904  134.1287  157.4413 LP  0  0  0  0  0  0  0  0  0  0  0  0  # atno 17395 bound_to 11000

$$$$
