AV-unprocessed.smi:1868|AV-procd|sdf|7589|dock6
  -GOLD-   22720 9303D 1   1.00000     0.00000
 Structure written by MMmdl.
 48 50  0  0  0  0  0  0  0  0  3 V2000
  149.9704  141.1169  154.8440 C   0  0  0  0  0  0  0  0  0  0  0  0
  150.6108  141.7332  156.0422 C   0  0  0  0  0  0  0  0  0  0  0  0
  150.4500  143.0193  156.4636 N   0  3  0  0  0  0  0  0  0  0  0  0
  151.2074  143.2376  157.6154 C   0  0  0  0  0  0  0  0  0  0  0  0
  151.3682  144.3761  158.3989 C   0  0  0  0  0  0  0  0  0  0  0  0
  152.2225  144.2606  159.5152 C   0  0  0  0  0  0  0  0  0  0  0  0
  152.8772  143.0484  159.8168 C   0  0  0  0  0  0  0  0  0  0  0  0
  152.7066  141.9002  159.0150 C   0  0  0  0  0  0  0  0  0  0  0  0
  151.8603  142.0237  157.9135 C   0  0  0  0  0  0  0  0  0  0  0  0
  151.4601  141.1239  156.9193 N   0  0  0  0  0  0  0  0  0  0  0  0
  151.9798  139.7476  156.9427 C   0  0  0  0  0  0  0  0  0  0  0  0
  152.1081  139.1230  155.5387 C   0  0  1  0  0  0  0  0  0  0  0  0
  153.1120  139.8057  154.8131 O   0  0  0  0  0  0  0  0  0  0  0  0
  152.4835  137.6297  155.6175 C   0  0  0  0  0  0  0  0  0  0  0  0
  151.3142  136.7546  155.8915 N   0  3  2  0  0  0  0  0  0  0  0  0
  150.8553  136.8087  157.3052 C   0  0  0  0  0  0  0  0  0  0  0  0
  149.5696  135.9880  157.5027 C   0  0  0  0  0  0  0  0  0  0  0  0
  149.7657  134.5280  157.0613 C   0  0  1  0  0  0  0  0  0  0  0  0
  148.4813  133.7040  157.2271 C   0  0  0  0  0  0  0  0  0  0  0  0
  150.2742  134.5035  155.6103 C   0  0  0  0  0  0  0  0  0  0  0  0
  151.5445  135.3551  155.4493 C   0  0  0  0  0  0  0  0  0  0  0  0
  149.3760  141.8546  154.3045 H   0  0  0  0  0  0  0  0  0  0  0  0
  149.3163  140.2985  155.1452 H   0  0  0  0  0  0  0  0  0  0  0  0
  150.7316  140.7256  154.1685 H   0  0  0  0  0  0  0  0  0  0  0  0
  150.8692  145.3064  158.1696 H   0  0  0  0  0  0  0  0  0  0  0  0
  152.3793  145.1190  160.1524 H   0  0  0  0  0  0  0  0  0  0  0  0
  153.5250  142.9989  160.6802 H   0  0  0  0  0  0  0  0  0  0  0  0
  153.2142  140.9777  159.2540 H   0  0  0  0  0  0  0  0  0  0  0  0
  152.9518  139.7697  157.4373 H   0  0  0  0  0  0  0  0  0  0  0  0
  151.3291  139.1455  157.5784 H   0  0  0  0  0  0  0  0  0  0  0  0
  151.1645  139.2532  155.0108 H   0  0  0  0  0  0  0  0  0  0  0  0
  153.2739  139.3353  154.0090 H   0  0  0  0  0  0  0  0  0  0  0  0
  152.9443  137.3426  154.6707 H   0  0  0  0  0  0  0  0  0  0  0  0
  153.2421  137.4642  156.3840 H   0  0  0  0  0  0  0  0  0  0  0  0
  151.6430  136.4316  157.9593 H   0  0  0  0  0  0  0  0  0  0  0  0
  150.6645  137.8382  157.6057 H   0  0  0  0  0  0  0  0  0  0  0  0
  149.2699  136.0242  158.5506 H   0  0  0  0  0  0  0  0  0  0  0  0
  148.7570  136.4421  156.9332 H   0  0  0  0  0  0  0  0  0  0  0  0
  150.5305  134.0800  157.6975 H   0  0  0  0  0  0  0  0  0  0  0  0
  147.6723  134.0992  156.6119 H   0  0  0  0  0  0  0  0  0  0  0  0
  148.1431  133.7078  158.2637 H   0  0  0  0  0  0  0  0  0  0  0  0
  148.6421  132.6650  156.9379 H   0  0  0  0  0  0  0  0  0  0  0  0
  150.4804  133.4773  155.3039 H   0  0  0  0  0  0  0  0  0  0  0  0
  149.4986  134.8757  154.9391 H   0  0  0  0  0  0  0  0  0  0  0  0
  151.8484  135.3442  154.4017 H   0  0  0  0  0  0  0  0  0  0  0  0
  152.3652  134.9211  156.0229 H   0  0  0  0  0  0  0  0  0  0  0  0
  150.5593  137.1073  155.3199 H   0  0  0  0  0  0  0  0  0  0  0  0
  149.8655  143.6983  155.9928 H   0  0  0  0  0  0  0  0  0  0  0  0
  1  2  1  0  0  0  0
  1 22  1  0  0  0  0
  1 23  1  0  0  0  0
  1 24  1  0  0  0  0
  2 10  1  0  0  0  0
  2  3  2  0  0  0  0
  3  4  1  0  0  0  0
  3 48  1  0  0  0  0
  4  9  2  0  0  0  0
  4  5  1  0  0  0  0
  5  6  2  0  0  0  0
  5 25  1  0  0  0  0
  6  7  1  0  0  0  0
  6 26  1  0  0  0  0
  7  8  2  0  0  0  0
  7 27  1  0  0  0  0
  8  9  1  0  0  0  0
  8 28  1  0  0  0  0
  9 10  1  0  0  0  0
 10 11  1  0  0  0  0
 11 12  1  0  0  0  0
 11 29  1  0  0  0  0
 11 30  1  0  0  0  0
 12 13  1  0  0  0  0
 12 14  1  0  0  0  0
 12 31  1  0  0  0  0
 13 32  1  0  0  0  0
 14 15  1  0  0  0  0
 14 33  1  0  0  0  0
 14 34  1  0  0  0  0
 15 21  1  0  0  0  0
 15 16  1  0  0  0  0
 15 47  1  0  0  0  0
 16 17  1  0  0  0  0
 16 35  1  0  0  0  0
 16 36  1  0  0  0  0
 17 18  1  0  0  0  0
 17 37  1  0  0  0  0
 17 38  1  0  0  0  0
 18 19  1  0  0  0  0
 18 20  1  0  0  0  0
 18 39  1  0  0  0  0
 19 40  1  0  0  0  0
 19 41  1  0  0  0  0
 19 42  1  0  0  0  0
 20 21  1  0  0  0  0
 20 43  1  0  0  0  0
 20 44  1  0  0  0  0
 21 45  1  0  0  0  0
 21 46  1  0  0  0  0
M  CHG  1   3   1
M  CHG  1  15   1
M  END
> <s_m_source_file>
AV-unprocessed.smi

> <i_m_source_file_index>
1868

> <i_lp_mmshare_version>
43012

> <i_f3d_flags>
0

> <s_epik_input>
W2NIXTFbY0hdW2NIXVtjSF1jKGMxMiluKGMobjIpW0NIM10pW0NIMl1bQ0BIXShbT0hdKVtDSDJdTjNbQ0gyXVtDSDJdW0NIXShbQ0gzXSlbQ0gyXVtDSDJdMw==

> <s_epik_cmdline>
J2VwaWtfcHl0aG9uJywgJy1waCcsICc3LjAnLCAnLXRuJywgJzgnLCAnLW1hJywgJzIwMCcsICctbWV0YWxfYmluZGluZycsICctaW1hZScsICc8aW5maWxlLm1hZT4nLCAnLW9tYWUnLCAnPG91dGZpbGUubWFlPic=

> <r_epik_Ionization_Penalty>
1.10901

> <r_epik_Ionization_Penalty_Charging>
1.10901

> <r_epik_Ionization_Penalty_Neutral>
6.90208e-07

> <r_epik_State_Penalty>
1.18788

> <r_epik_Charging_Adjusted_Penalty>
2.29689

> <i_epik_Tot_Q>
2

> <i_epik_Tot_abs_Q>
2

> <r_epik_Metal_State_Penalty>
5.19353

> <b_epik_Metal_Only>
0

> <s_lp_Force_Field>
OPLS_2005

> <r_lp_Energy>
29.1884

> <b_lp_Chiralities_Consistent>
1

> <s_lp_Variant>
AV-unprocessed.smi:1868-6

> <Gold.Version>
5.8.1

> <Gold.Id.Protein>
6NUR|6NUR_protein|mol2

> <Gold.PLP.Fitness>
47.4058

> <Gold.PLP.PLP>
-39.9114

> <Gold.PLP.part.hbond>
-2.9120

> <Gold.PLP.part.metal>
0.0000

> <Gold.PLP.part.buried>
-4.2260

> <Gold.PLP.part.nonpolar>
-32.9094

> <Gold.PLP.part.repulsive>
0.1449

> <Gold.PLP.ligand.clash>
0.0000

> <Gold.PLP.ligand.torsion>
0.7795

> <Gold.PLP.Chemscore.Hbond>
3.0000

> <Gold.PLP.Chemscore.CHOScore>
0.0000

> <Gold.PLP.Chemscore.Metal>
0.0000

> <Gold.Chemscore.Hbonds>
donor molecule, donor type, donor heavy atom, donor atom, acceptor molecule, acceptor atom, score
      L1  H     3    48       P1  8028  1.59
      P1  H  7989  7998       L1    13  0.01
      P1  H  7997  8009       L1    13  1.00

> <Gold.PLP.Chemscore.Internal.Correction>
0.0534

> <Gold.Rescore>
     Score         DG    S(hbond)    S(metal)    S(lipo)     H(rot)  DE(clash)    DE(int)     intcor
     18.08     -19.99       1.96        0.00     111.48       1.99       0.09       1.83       ----

> <Gold.Chemscore.Fitness>
18.0780

> <Gold.Chemscore.DG>
-19.9913

> <Gold.Chemscore.ZeroCoef>
-5.4800

> <Gold.Chemscore.Hbond>
1.9621

> <Gold.Chemscore.Metal>
0.0000

> <Gold.Chemscore.Lipo>
111.4787

> <Gold.Chemscore.Internal_Hbond>
0.0000

> <Gold.Chemscore.DEClash>
0.0870

> <Gold.Chemscore.DEInternal>
1.8263

> <Gold.Chemscore.Rot>
1.9863

> <Gold.Chemscore.Internal.Correction>
   9.000000E+99

> <Gold.Chemscore.Hbonds>
donor molecule, donor type, donor heavy atom, donor atom, acceptor molecule, acceptor atom, score
      L1  H     3    48       P1  8028  0.79
      P1  H  7997  8009       L1    13  0.76

> <Gold.Chemscore.Hbond.Weighted>
-6.5533

> <Gold.Chemscore.Metal.Weighted>
-0.0000

> <Gold.Chemscore.Lipo.Weighted>
-13.0430

> <Gold.Chemscore.Internal_Hbond.Weighted>
0.0000

> <Gold.Chemscore.DEClash.Weighted>
0.0870

> <Gold.Chemscore.DEInternal.Weighted>
1.8263

> <Gold.Chemscore.Rot.Weighted>
5.0850

> <Gold.Chemscore.Internal.Correction.Weighted>
   9.000000E+99

> <Gold.Protein.RotatedTorsions>
[ 6907 6896 6895 6894 ] final   22.75 input  -60.11 | X-H torsion
[ 7974 7965 7964 7962 ] final   41.56 input  175.53 | X-H torsion
[ 8008 7997 7996 7995 ] final -133.13 input   59.86 | X-H torsion
[ 10167 10162 10161 10158 ] final  111.43 input  -65.29 | X-H torsion
[ 10718 10713 10712 10709 ] final  118.95 input   66.30 | X-H torsion
[ 10763 10752 10751 10750 ] final -117.44 input  -60.55 | X-H torsion
[ 11005 11000 10999 10996 ] final   77.11 input  -57.11 | X-H torsion

> <Gold.Protein.ActiveResidues>
 VAL166  LYS551  ARG553  GLY616  TRP617  ASP618  TYR619  PRO620  LYS621  CYS622 
 ASP623  PHE694  ASN695  SER759  ASP760  ASP761  ALA762  ILE779  LEU786  VAL792 
 PHE793  MET794  SER795  GLU796  ALA797  LYS798  CYS799  TRP800  GLU811  SER814 

> <Gold.Protein.RotatedAtoms>
  151.9319  135.0252  160.0529 H   0  0  0  0  0  0  0  0  0  0  0  0  # atno 6907 bound_to 6896
  152.2111  133.4907  159.5119 H   0  0  0  0  0  0  0  0  0  0  0  0  # atno 6908 bound_to 6896
  150.6976  134.1383  159.4138 H   0  0  0  0  0  0  0  0  0  0  0  0  # atno 6909 bound_to 6896
  146.0814  139.5402  142.9535 H   0  0  0  0  0  0  0  0  0  0  0  0  # atno 7974 bound_to 7965
  155.3405  140.0472  157.3045 H   0  0  0  0  0  0  0  0  0  0  0  0  # atno 8008 bound_to 7997
  154.5280  140.2247  155.8820 H   0  0  0  0  0  0  0  0  0  0  0  0  # atno 8009 bound_to 7997
  156.1759  140.3085  155.9065 H   0  0  0  0  0  0  0  0  0  0  0  0  # atno 8010 bound_to 7997
  139.6612  144.7128  151.1862 H   0  0  0  0  0  0  0  0  0  0  0  0  # atno 10167 bound_to 10162
  157.5995  131.1053  150.7829 H   0  0  0  0  0  0  0  0  0  0  0  0  # atno 10718 bound_to 10713
  154.8555  135.4309  154.1980 H   0  0  0  0  0  0  0  0  0  0  0  0  # atno 10763 bound_to 10752
  153.3033  135.6970  153.7188 H   0  0  0  0  0  0  0  0  0  0  0  0  # atno 10764 bound_to 10752
  153.6310  135.3485  155.3016 H   0  0  0  0  0  0  0  0  0  0  0  0  # atno 10765 bound_to 10752
  139.9268  134.7656  156.1481 H   0  0  0  0  0  0  0  0  0  0  0  0  # atno 11005 bound_to 11000
  145.6211  141.0322  143.1914 LP  0  0  0  0  0  0  0  0  0  0  0  0  # atno 17320 bound_to 7965
  144.7296  139.7768  143.7352 LP  0  0  0  0  0  0  0  0  0  0  0  0  # atno 17321 bound_to 7965
  140.7581  143.5991  150.8718 LP  0  0  0  0  0  0  0  0  0  0  0  0  # atno 17342 bound_to 10162
  139.9649  143.6122  152.2991 LP  0  0  0  0  0  0  0  0  0  0  0  0  # atno 17343 bound_to 10162
  156.8231  130.4990  149.5340 LP  0  0  0  0  0  0  0  0  0  0  0  0  # atno 17370 bound_to 10713
  156.1065  130.6008  150.9978 LP  0  0  0  0  0  0  0  0  0  0  0  0  # atno 17371 bound_to 10713
  141.0832  133.6745  156.2380 LP  0  0  0  0  0  0  0  0  0  0  0  0  # atno 17394 bound_to 11000
  140.6312  134.5262  157.5560 LP  0  0  0  0  0  0  0  0  0  0  0  0  # atno 17395 bound_to 11000

$$$$
