AV-unprocessed.smi:1962|AV-procd|sdf|7924|dock3
  -GOLD-   2272010 93D 1   1.00000     0.00000
 Structure written by MMmdl.
 35 36  0  0  0  0  0  0  0  0  2 V2000
  154.2251  140.9678  161.6587 C   0  0  0  0  0  0  0  0  0  0  0  0
  153.4543  141.7618  160.5950 C   0  0  2  0  0  0  0  0  0  0  0  0
  152.6260  142.9044  161.2405 C   0  0  0  0  0  0  0  0  0  0  0  0
  152.0084  143.8201  160.2839 N   0  0  0  0  0  0  0  0  0  0  0  0
  152.5762  144.4377  159.1850 C   0  0  0  0  0  0  0  0  0  0  0  0
  151.6125  145.2116  158.6046 C   0  0  0  0  0  0  0  0  0  0  0  0
  150.4753  145.0130  159.4357 C   0  0  0  0  0  0  0  0  0  0  0  0
  150.7170  144.1937  160.4453 N   0  0  0  0  0  0  0  0  0  0  0  0
  152.5719  140.8387  159.8719 N   0  5  0  0  0  0  0  0  0  0  0  0
  152.2196  140.9447  158.5541 C   0  0  0  0  0  0  0  0  0  0  0  0
  151.9509  141.9922  157.9531 O   0  0  0  0  0  0  0  0  0  0  0  0
  152.1223  139.7002  157.7354 C   0  0  0  0  0  0  0  0  0  0  0  0
  152.4156  139.7387  156.4728 N   0  0  0  0  0  0  0  0  0  0  0  0
  152.3719  138.6168  155.6716 N   0  0  0  0  0  0  0  0  0  0  0  0
  152.9986  138.7761  154.3612 C   0  0  0  0  0  0  0  0  0  0  0  0
  151.7877  137.4439  156.0193 C   0  0  0  0  0  0  0  0  0  0  0  0
  151.7747  136.4451  155.2994 O   0  0  0  0  0  0  0  0  0  0  0  0
  151.0883  137.4082  157.3804 C   0  0  0  0  0  0  0  0  0  0  0  0
  151.7226  138.3882  158.3872 C   0  0  0  0  0  0  0  0  0  0  0  0
  154.9073  141.6145  162.2106 H   0  0  0  0  0  0  0  0  0  0  0  0
  154.8212  140.1755  161.2044 H   0  0  0  0  0  0  0  0  0  0  0  0
  153.5498  140.5057  162.3800 H   0  0  0  0  0  0  0  0  0  0  0  0
  154.1980  142.2141  159.9368 H   0  0  0  0  0  0  0  0  0  0  0  0
  151.8508  142.4905  161.8880 H   0  0  0  0  0  0  0  0  0  0  0  0
  153.2714  143.5005  161.8863 H   0  0  0  0  0  0  0  0  0  0  0  0
  153.6062  144.2681  158.9079 H   0  0  0  0  0  0  0  0  0  0  0  0
  151.7063  145.8256  157.7216 H   0  0  0  0  0  0  0  0  0  0  0  0
  149.4888  145.4418  159.3393 H   0  0  0  0  0  0  0  0  0  0  0  0
  152.2851  138.5656  153.5630 H   0  0  0  0  0  0  0  0  0  0  0  0
  153.8424  138.0925  154.2564 H   0  0  0  0  0  0  0  0  0  0  0  0
  153.3740  139.7896  154.2081 H   0  0  0  0  0  0  0  0  0  0  0  0
  150.0433  137.6749  157.2184 H   0  0  0  0  0  0  0  0  0  0  0  0
  151.0960  136.3941  157.7814 H   0  0  0  0  0  0  0  0  0  0  0  0
  152.6011  137.9341  158.8471 H   0  0  0  0  0  0  0  0  0  0  0  0
  151.0058  138.5570  159.1916 H   0  0  0  0  0  0  0  0  0  0  0  0
  1  2  1  0  0  0  0
  1 20  1  0  0  0  0
  1 21  1  0  0  0  0
  1 22  1  0  0  0  0
  2  3  1  0  0  0  0
  2  9  1  0  0  0  0
  2 23  1  0  0  0  0
  3  4  1  0  0  0  0
  3 24  1  0  0  0  0
  3 25  1  0  0  0  0
  4  8  1  0  0  0  0
  4  5  1  0  0  0  0
  5  6  2  0  0  0  0
  5 26  1  0  0  0  0
  6  7  1  0  0  0  0
  6 27  1  0  0  0  0
  7  8  2  0  0  0  0
  7 28  1  0  0  0  0
  9 10  1  0  0  0  0
 10 11  2  0  0  0  0
 10 12  1  0  0  0  0
 12 19  1  0  0  0  0
 12 13  2  0  0  0  0
 13 14  1  0  0  0  0
 14 15  1  0  0  0  0
 14 16  1  0  0  0  0
 15 29  1  0  0  0  0
 15 30  1  0  0  0  0
 15 31  1  0  0  0  0
 16 17  2  0  0  0  0
 16 18  1  0  0  0  0
 18 19  1  0  0  0  0
 18 32  1  0  0  0  0
 18 33  1  0  0  0  0
 19 34  1  0  0  0  0
 19 35  1  0  0  0  0
M  CHG  1   9  -1
M  END
> <s_m_source_file>
AV-unprocessed.smi

> <i_m_source_file_index>
1962

> <i_lp_mmshare_version>
43012

> <i_f3d_flags>
0

> <s_epik_input>
bjFbY0hdW2NIXVtjSF1uMVtDSDJdW0NAQEhdKFtDSDNdKVtOSF1DKD1PKUMyPU5OKFtDSDNdKUMoPU8pW0NIMl1bQ0gyXTI=

> <s_epik_cmdline>
J2VwaWtfcHl0aG9uJywgJy1waCcsICc3LjAnLCAnLXRuJywgJzgnLCAnLW1hJywgJzIwMCcsICctbWV0YWxfYmluZGluZycsICctaW1hZScsICc8aW5maWxlLm1hZT4nLCAnLW9tYWUnLCAnPG91dGZpbGUubWFlPic=

> <r_lp_tautomer_probability>
1

> <r_epik_Ionization_Penalty>
5.21086

> <r_epik_Ionization_Penalty_Charging>
5.21084

> <r_epik_Ionization_Penalty_Neutral>
2.41961e-05

> <r_epik_State_Penalty>
5.21075

> <r_epik_Charging_Adjusted_Penalty>
10.4216

> <i_epik_Tot_Q>
-1

> <i_epik_Tot_abs_Q>
1

> <r_epik_Metal_State_Penalty>
1.27477

> <b_epik_Metal_Only>
1

> <s_epik_Chemistry_Notes>
This compound has an imine and may undergo hydrolysis.

> <s_lp_Force_Field>
OPLS_2005

> <r_lp_Energy>
24.8429

> <b_lp_Chiralities_Consistent>
1

> <s_lp_Variant>
AV-unprocessed.smi:1962-3

> <Gold.Version>
5.8.1

> <Gold.Id.Protein>
6NUR|6NUR_protein|mol2

> <Gold.PLP.Fitness>
46.6517

> <Gold.PLP.PLP>
-40.0888

> <Gold.PLP.part.hbond>
-2.2067

> <Gold.PLP.part.metal>
0.0000

> <Gold.PLP.part.buried>
-6.1632

> <Gold.PLP.part.nonpolar>
-31.5187

> <Gold.PLP.part.repulsive>
0.2225

> <Gold.PLP.ligand.clash>
0.0000

> <Gold.PLP.ligand.torsion>
1.2805

> <Gold.PLP.Chemscore.Hbond>
2.0000

> <Gold.PLP.Chemscore.CHOScore>
0.9971

> <Gold.PLP.Chemscore.Metal>
0.0000

> <Gold.Chemscore.Hbonds>
donor molecule, donor type, donor heavy atom, donor atom, acceptor molecule, acceptor atom, score
      P1  H  7997  8009       L1    13  0.95
      P1  H 10752 10764       L1    17  1.00
      L1  C     7    28       P1  8029  0.71

> <Gold.PLP.Chemscore.Internal.Correction>
0.1325

> <Gold.Rescore>
     Score         DG    S(hbond)    S(metal)    S(lipo)     H(rot)  DE(clash)    DE(int)     intcor
     15.42     -16.72       1.36        0.00      90.14       1.50       0.05       1.25       ----

> <Gold.Chemscore.Fitness>
15.4214

> <Gold.Chemscore.DG>
-16.7231

> <Gold.Chemscore.ZeroCoef>
-5.4800

> <Gold.Chemscore.Hbond>
1.3554

> <Gold.Chemscore.Metal>
0.0000

> <Gold.Chemscore.Lipo>
90.1444

> <Gold.Chemscore.Internal_Hbond>
0.0000

> <Gold.Chemscore.DEClash>
0.0505

> <Gold.Chemscore.DEInternal>
1.2512

> <Gold.Chemscore.Rot>
1.4964

> <Gold.Chemscore.Internal.Correction>
   9.000000E+99

> <Gold.Chemscore.Hbonds>
donor molecule, donor type, donor heavy atom, donor atom, acceptor molecule, acceptor atom, score
      P1  H  7997  8009       L1    13  0.07
      P1  H 10752 10764       L1    17  0.98

> <Gold.Chemscore.Hbond.Weighted>
-4.5271

> <Gold.Chemscore.Metal.Weighted>
-0.0000

> <Gold.Chemscore.Lipo.Weighted>
-10.5469

> <Gold.Chemscore.Internal_Hbond.Weighted>
0.0000

> <Gold.Chemscore.DEClash.Weighted>
0.0505

> <Gold.Chemscore.DEInternal.Weighted>
1.2512

> <Gold.Chemscore.Rot.Weighted>
3.8309

> <Gold.Chemscore.Internal.Correction.Weighted>
   9.000000E+99

> <Gold.Protein.RotatedTorsions>
[ 6907 6896 6895 6894 ] final -127.01 input  -60.11 | X-H torsion
[ 7974 7965 7964 7962 ] final   15.14 input  175.53 | X-H torsion
[ 8008 7997 7996 7995 ] final -179.03 input   59.86 | X-H torsion
[ 10167 10162 10161 10158 ] final -106.42 input  -65.29 | X-H torsion
[ 10718 10713 10712 10709 ] final  -95.89 input   66.30 | X-H torsion
[ 10763 10752 10751 10750 ] final  -56.22 input  -60.55 | X-H torsion
[ 11005 11000 10999 10996 ] final   -8.18 input  -57.11 | X-H torsion

> <Gold.Protein.ActiveResidues>
 VAL166  LYS551  ARG553  GLY616  TRP617  ASP618  TYR619  PRO620  LYS621  CYS622 
 ASP623  PHE694  ASN695  SER759  ASP760  ASP761  ALA762  ILE779  LEU786  VAL792 
 PHE793  MET794  SER795  GLU796  ALA797  LYS798  CYS799  TRP800  GLU811  SER814 

> <Gold.Protein.RotatedAtoms>
  150.9029  133.7095  159.2874 H   0  0  0  0  0  0  0  0  0  0  0  0  # atno 6907 bound_to 6896
  151.4608  135.1037  159.9734 H   0  0  0  0  0  0  0  0  0  0  0  0  # atno 6908 bound_to 6896
  152.4887  133.8392  159.7199 H   0  0  0  0  0  0  0  0  0  0  0  0  # atno 6909 bound_to 6896
  146.2286  139.8938  142.8550 H   0  0  0  0  0  0  0  0  0  0  0  0  # atno 7974 bound_to 7965
  156.0257  140.1271  157.0311 H   0  0  0  0  0  0  0  0  0  0  0  0  # atno 8008 bound_to 7997
  154.4329  140.1059  156.6098 H   0  0  0  0  0  0  0  0  0  0  0  0  # atno 8009 bound_to 7997
  155.5880  140.3469  155.4560 H   0  0  0  0  0  0  0  0  0  0  0  0  # atno 8010 bound_to 7997
  140.1880  143.3914  152.1229 H   0  0  0  0  0  0  0  0  0  0  0  0  # atno 10167 bound_to 10162
  156.0051  130.5128  150.6144 H   0  0  0  0  0  0  0  0  0  0  0  0  # atno 10718 bound_to 10713
  154.2031  135.6407  153.5093 H   0  0  0  0  0  0  0  0  0  0  0  0  # atno 10763 bound_to 10752
  153.0007  135.5456  154.6294 H   0  0  0  0  0  0  0  0  0  0  0  0  # atno 10764 bound_to 10752
  154.5712  135.2917  155.0798 H   0  0  0  0  0  0  0  0  0  0  0  0  # atno 10765 bound_to 10752
  140.7207  133.8831  155.8818 H   0  0  0  0  0  0  0  0  0  0  0  0  # atno 11005 bound_to 11000
  145.2391  141.0002  143.3946 LP  0  0  0  0  0  0  0  0  0  0  0  0  # atno 17320 bound_to 7965
  144.9466  139.4129  143.6423 LP  0  0  0  0  0  0  0  0  0  0  0  0  # atno 17321 bound_to 7965
  139.5268  144.7112  151.5201 LP  0  0  0  0  0  0  0  0  0  0  0  0  # atno 17342 bound_to 10162
  140.6475  143.8764  150.6752 LP  0  0  0  0  0  0  0  0  0  0  0  0  # atno 17343 bound_to 10162
  157.3970  131.0804  151.1342 LP  0  0  0  0  0  0  0  0  0  0  0  0  # atno 17370 bound_to 10713
  157.2016  130.6397  149.5740 LP  0  0  0  0  0  0  0  0  0  0  0  0  # atno 17371 bound_to 10713
  141.0006  134.1155  157.4321 LP  0  0  0  0  0  0  0  0  0  0  0  0  # atno 17394 bound_to 11000
  139.8849  135.0067  156.6398 LP  0  0  0  0  0  0  0  0  0  0  0  0  # atno 17395 bound_to 11000

$$$$
