AV-unprocessed.smi:1196|AV-procd|sdf|4999|dock2
  -GOLD-   22720 4 03D 1   1.00000     0.00000
 Structure written by MMmdl.
 37 38  0  0  0  0  0  0  0  0  1 V2000
  151.7496  139.7305  158.0944 C   0  0  0  0  0  0  0  0  0  0  0  0
  150.7838  140.9027  157.8618 C   0  0  1  0  0  0  0  0  0  0  0  0
  151.5424  142.2294  157.6638 C   0  0  0  0  0  0  0  0  0  0  0  0
  152.0269  142.7784  158.9183 N   0  0  0  0  0  0  0  0  0  0  0  0
  152.8105  142.1662  159.8736 C   0  0  0  0  0  0  0  0  0  0  0  0
  152.9985  143.0666  160.8826 C   0  0  0  0  0  0  0  0  0  0  0  0
  152.2806  144.2158  160.4483 C   0  0  0  0  0  0  0  0  0  0  0  0
  151.7016  144.0412  159.2715 N   0  0  0  0  0  0  0  0  0  0  0  0
  149.9397  140.6316  156.7000 N   0  0  0  0  0  0  0  0  0  0  0  0
  150.3570  140.1189  155.5329 C   0  0  0  0  0  0  0  0  0  0  0  0
  151.5359  139.8559  155.2930 O   0  0  0  0  0  0  0  0  0  0  0  0
  149.2673  139.8705  154.4856 C   0  0  0  0  0  0  0  0  0  0  0  0
  148.4677  141.1367  154.1210 C   0  0  0  0  0  0  0  0  0  0  0  0
  147.1026  140.8205  153.4798 C   0  0  1  0  0  0  0  0  0  0  0  0
  147.2263  140.1598  152.1915 N   0  0  0  0  0  0  0  0  0  0  0  0
  146.6381  138.9562  152.1743 C   0  0  0  0  0  0  0  0  0  0  0  0
  146.5898  138.1904  151.2149 O   0  0  0  0  0  0  0  0  0  0  0  0
  146.1139  138.7355  153.3849 N   0  0  0  0  0  0  0  0  0  0  0  0
  146.3332  139.7447  154.2259 C   0  0  0  0  0  0  0  0  0  0  0  0
  145.9854  139.8163  155.4030 O   0  0  0  0  0  0  0  0  0  0  0  0
  152.3741  139.9068  158.9707 H   0  0  0  0  0  0  0  0  0  0  0  0
  152.4103  139.5840  157.2393 H   0  0  0  0  0  0  0  0  0  0  0  0
  151.2078  138.7989  158.2616 H   0  0  0  0  0  0  0  0  0  0  0  0
  150.1547  141.0045  158.7480 H   0  0  0  0  0  0  0  0  0  0  0  0
  152.4037  142.0744  157.0130 H   0  0  0  0  0  0  0  0  0  0  0  0
  150.9089  142.9678  157.1691 H   0  0  0  0  0  0  0  0  0  0  0  0
  153.1621  141.1514  159.7582 H   0  0  0  0  0  0  0  0  0  0  0  0
  153.5616  142.9248  161.7932 H   0  0  0  0  0  0  0  0  0  0  0  0
  152.1638  145.1653  160.9494 H   0  0  0  0  0  0  0  0  0  0  0  0
  148.9526  140.8152  156.8076 H   0  0  0  0  0  0  0  0  0  0  0  0
  149.7338  139.4671  153.5854 H   0  0  0  0  0  0  0  0  0  0  0  0
  148.5984  139.0980  154.8664 H   0  0  0  0  0  0  0  0  0  0  0  0
  148.3231  141.7487  155.0133 H   0  0  0  0  0  0  0  0  0  0  0  0
  149.0520  141.7435  153.4269 H   0  0  0  0  0  0  0  0  0  0  0  0
  146.4905  141.7180  153.3824 H   0  0  0  0  0  0  0  0  0  0  0  0
  147.7023  140.5755  151.4040 H   0  0  0  0  0  0  0  0  0  0  0  0
  145.6166  137.8936  153.6358 H   0  0  0  0  0  0  0  0  0  0  0  0
  1  2  1  0  0  0  0
  1 21  1  0  0  0  0
  1 22  1  0  0  0  0
  1 23  1  0  0  0  0
  2  3  1  0  0  0  0
  2  9  1  0  0  0  0
  2 24  1  0  0  0  0
  3  4  1  0  0  0  0
  3 25  1  0  0  0  0
  3 26  1  0  0  0  0
  4  8  1  0  0  0  0
  4  5  1  0  0  0  0
  5  6  2  0  0  0  0
  5 27  1  0  0  0  0
  6  7  1  0  0  0  0
  6 28  1  0  0  0  0
  7  8  2  0  0  0  0
  7 29  1  0  0  0  0
  9 10  1  0  0  0  0
  9 30  1  0  0  0  0
 10 11  2  0  0  0  0
 10 12  1  0  0  0  0
 12 13  1  0  0  0  0
 12 31  1  0  0  0  0
 12 32  1  0  0  0  0
 13 14  1  0  0  0  0
 13 33  1  0  0  0  0
 13 34  1  0  0  0  0
 14 19  1  0  0  0  0
 14 15  1  0  0  0  0
 14 35  1  0  0  0  0
 15 16  1  0  0  0  0
 15 36  1  0  0  0  0
 16 17  2  0  0  0  0
 16 18  1  0  0  0  0
 18 19  1  0  0  0  0
 18 37  1  0  0  0  0
 19 20  2  0  0  0  0
M  END
> <s_m_source_file>
AV-unprocessed.smi

> <i_m_source_file_index>
1196

> <i_lp_mmshare_version>
43012

> <i_f3d_flags>
0

> <s_epik_input>
bjFbY0hdW2NIXVtjSF1uMVtDSDJdW0NAQEhdKFtDSDNdKVtOSF1DKD1PKVtDSDJdW0NIMl1bQ0BASF0yW05IXUMoPU8pW05IXUMyPU8=

> <s_epik_cmdline>
J2VwaWtfcHl0aG9uJywgJy1waCcsICc3LjAnLCAnLXRuJywgJzgnLCAnLW1hJywgJzIwMCcsICctbWV0YWxfYmluZGluZycsICctaW1hZScsICc8aW5maWxlLm1hZT4nLCAnLW9tYWUnLCAnPG91dGZpbGUubWFlPic=

> <r_lp_tautomer_probability>
1

> <r_epik_Ionization_Penalty>
0.00815973

> <r_epik_Ionization_Penalty_Charging>
0

> <r_epik_Ionization_Penalty_Neutral>
0.00815973

> <r_epik_State_Penalty>
0.00583796

> <r_epik_Charging_Adjusted_Penalty>
0.00583796

> <i_epik_Tot_Q>
0

> <i_epik_Tot_abs_Q>
0

> <r_epik_Metal_State_Penalty>
0.409204

> <b_epik_Metal_Only>
0

> <s_lp_Force_Field>
OPLS_2005

> <r_lp_Energy>
17.2443

> <b_lp_Chiralities_Consistent>
1

> <s_lp_Variant>
AV-unprocessed.smi:1196-4

> <Gold.Version>
5.8.1

> <Gold.Id.Protein>
6NUR|6NUR_protein|mol2

> <Gold.PLP.Fitness>
45.5478

> <Gold.PLP.PLP>
-40.3323

> <Gold.PLP.part.hbond>
-2.9969

> <Gold.PLP.part.metal>
0.0000

> <Gold.PLP.part.buried>
-6.4328

> <Gold.PLP.part.nonpolar>
-32.1593

> <Gold.PLP.part.repulsive>
1.2580

> <Gold.PLP.ligand.clash>
0.0000

> <Gold.PLP.ligand.torsion>
0.5987

> <Gold.PLP.Chemscore.Hbond>
2.1168

> <Gold.PLP.Chemscore.CHOScore>
0.0000

> <Gold.PLP.Chemscore.Metal>
0.0000

> <Gold.Chemscore.Hbonds>
donor molecule, donor type, donor heavy atom, donor atom, acceptor molecule, acceptor atom, score
      L1  H    15    36       P1  7957  0.35
      P1  H  7954  7966       L1    17  0.88
      P1  H  7989  7998       L1    11  0.79

> <Gold.PLP.Chemscore.Internal.Correction>
0.0626

> <Gold.Rescore>
     Score         DG    S(hbond)    S(metal)    S(lipo)     H(rot)  DE(clash)    DE(int)     intcor
      9.49     -11.53       1.44        0.00      75.22       2.96       0.46       1.58       ----

> <Gold.Chemscore.Fitness>
9.4853

> <Gold.Chemscore.DG>
-11.5312

> <Gold.Chemscore.ZeroCoef>
-5.4800

> <Gold.Chemscore.Hbond>
1.4436

> <Gold.Chemscore.Metal>
0.0000

> <Gold.Chemscore.Lipo>
75.2199

> <Gold.Chemscore.Internal_Hbond>
0.0000

> <Gold.Chemscore.DEClash>
0.4618

> <Gold.Chemscore.DEInternal>
1.5840

> <Gold.Chemscore.Rot>
2.9575

> <Gold.Chemscore.Internal.Correction>
   9.000000E+99

> <Gold.Chemscore.Hbonds>
donor molecule, donor type, donor heavy atom, donor atom, acceptor molecule, acceptor atom, score
      L1  H    15    36       P1  7957  0.34
      P1  H  7954  7966       L1    17  0.85
      P1  H  7989  7998       L1    11  0.13

> <Gold.Chemscore.Hbond.Weighted>
-4.8218

> <Gold.Chemscore.Metal.Weighted>
-0.0000

> <Gold.Chemscore.Lipo.Weighted>
-8.8007

> <Gold.Chemscore.Internal_Hbond.Weighted>
0.0000

> <Gold.Chemscore.DEClash.Weighted>
0.4618

> <Gold.Chemscore.DEInternal.Weighted>
1.5840

> <Gold.Chemscore.Rot.Weighted>
7.5713

> <Gold.Chemscore.Internal.Correction.Weighted>
   9.000000E+99

> <Gold.Protein.RotatedTorsions>
[ 6907 6896 6895 6894 ] final -145.23 input  -60.11 | X-H torsion
[ 7974 7965 7964 7962 ] final  -98.73 input  175.53 | X-H torsion
[ 8008 7997 7996 7995 ] final   15.60 input   59.86 | X-H torsion
[ 10167 10162 10161 10158 ] final -133.57 input  -65.29 | X-H torsion
[ 10718 10713 10712 10709 ] final   97.41 input   66.30 | X-H torsion
[ 10763 10752 10751 10750 ] final   28.58 input  -60.55 | X-H torsion
[ 11005 11000 10999 10996 ] final -143.89 input  -57.11 | X-H torsion

> <Gold.Protein.ActiveResidues>
 VAL166  LYS551  ARG553  GLY616  TRP617  ASP618  TYR619  PRO620  LYS621  CYS622 
 ASP623  PHE694  ASN695  SER759  ASP760  ASP761  ALA762  ILE779  LEU786  VAL792 
 PHE793  MET794  SER795  GLU796  ALA797  LYS798  CYS799  TRP800  GLU811  SER814 

> <Gold.Protein.RotatedAtoms>
  151.1249  133.5078  159.2600 H   0  0  0  0  0  0  0  0  0  0  0  0  # atno 6907 bound_to 6896
  151.1821  135.0365  159.8806 H   0  0  0  0  0  0  0  0  0  0  0  0  # atno 6908 bound_to 6896
  152.5457  134.1100  159.8407 H   0  0  0  0  0  0  0  0  0  0  0  0  # atno 6909 bound_to 6896
  145.3167  140.9412  143.2738 H   0  0  0  0  0  0  0  0  0  0  0  0  # atno 7974 bound_to 7965
  154.8649  140.2950  155.5516 H   0  0  0  0  0  0  0  0  0  0  0  0  # atno 8008 bound_to 7997
  156.3020  140.2471  156.3562 H   0  0  0  0  0  0  0  0  0  0  0  0  # atno 8009 bound_to 7997
  154.8879  140.0395  157.1810 H   0  0  0  0  0  0  0  0  0  0  0  0  # atno 8010 bound_to 7997
  139.8969  143.6655  152.2602 H   0  0  0  0  0  0  0  0  0  0  0  0  # atno 10167 bound_to 10162
  157.6913  131.0609  150.4640 H   0  0  0  0  0  0  0  0  0  0  0  0  # atno 10718 bound_to 10713
  153.0483  135.6510  154.0759 H   0  0  0  0  0  0  0  0  0  0  0  0  # atno 10763 bound_to 10752
  154.0452  135.2900  155.3350 H   0  0  0  0  0  0  0  0  0  0  0  0  # atno 10764 bound_to 10752
  154.6755  135.5340  153.8260 H   0  0  0  0  0  0  0  0  0  0  0  0  # atno 10765 bound_to 10752
  140.8080  134.2779  157.4952 H   0  0  0  0  0  0  0  0  0  0  0  0  # atno 11005 bound_to 11000
  144.8972  139.4697  143.6650 LP  0  0  0  0  0  0  0  0  0  0  0  0  # atno 17320 bound_to 7965
  146.3097  139.7704  142.9029 LP  0  0  0  0  0  0  0  0  0  0  0  0  # atno 17321 bound_to 7965
  139.7060  144.7628  151.1192 LP  0  0  0  0  0  0  0  0  0  0  0  0  # atno 17342 bound_to 10162
  140.7715  143.5394  150.9330 LP  0  0  0  0  0  0  0  0  0  0  0  0  # atno 17343 bound_to 10162
  156.4983  130.4111  149.6368 LP  0  0  0  0  0  0  0  0  0  0  0  0  # atno 17370 bound_to 10713
  156.3352  130.7353  151.2289 LP  0  0  0  0  0  0  0  0  0  0  0  0  # atno 17371 bound_to 10713
  139.8716  134.9467  156.3945 LP  0  0  0  0  0  0  0  0  0  0  0  0  # atno 17394 bound_to 11000
  140.9227  133.7633  155.9927 LP  0  0  0  0  0  0  0  0  0  0  0  0  # atno 17395 bound_to 11000

$$$$
