AV-unprocessed.smi:107|AV-procd|sdf|1013|dock6
  -GOLD-   2262018 13D 1   1.00000     0.00000
 Structure written by MMmdl.
 31 32  0  0  0  0  0  0  0  0  1 V2000
  150.4898  144.6262  159.2309 C   0  0  0  0  0  0  0  0  0  0  0  0
  151.1627  143.3001  158.9176 C   0  0  0  0  0  0  0  0  0  0  0  0
  150.9301  142.6206  157.7656 C   0  0  0  0  0  0  0  0  0  0  0  0
  151.5288  141.4090  157.4499 N   0  0  0  0  0  0  0  0  0  0  0  0
  151.2227  140.7028  156.1484 C   0  0  2  0  0  0  0  0  0  0  0  0
  150.2014  141.4933  155.3238 C   0  0  0  0  0  0  0  0  0  0  0  0
  149.3292  140.3927  154.7530 C   0  0  1  0  0  0  0  0  0  0  0  0
  149.8676  139.9107  153.5359 O   0  0  0  0  0  0  0  0  0  0  0  0
  149.3695  139.3385  155.8686 C   0  0  1  0  0  0  0  0  0  0  0  0
  149.0619  137.8857  155.4661 C   0  0  0  0  0  0  0  0  0  0  0  0
  149.8822  137.4917  154.3866 O   0  0  0  0  0  0  0  0  0  0  0  0
  150.6754  139.4472  156.4305 O   0  0  0  0  0  0  0  0  0  0  0  0
  152.4519  140.8395  158.3519 C   0  0  0  0  0  0  0  0  0  0  0  0
  153.0446  139.7842  158.1310 O   0  0  0  0  0  0  0  0  0  0  0  0
  152.6884  141.5345  159.5368 N   0  0  0  0  0  0  0  0  0  0  0  0
  152.0983  142.7474  159.9006 C   0  0  0  0  0  0  0  0  0  0  0  0
  152.3869  143.2643  160.9787 O   0  0  0  0  0  0  0  0  0  0  0  0
  153.3459  141.1285  160.1869 H   0  0  0  0  0  0  0  0  0  0  0  0
  149.8165  144.9368  158.4315 H   0  0  0  0  0  0  0  0  0  0  0  0
  151.2365  145.4101  159.3627 H   0  0  0  0  0  0  0  0  0  0  0  0
  149.9062  144.5503  160.1490 H   0  0  0  0  0  0  0  0  0  0  0  0
  150.2426  143.0532  157.0547 H   0  0  0  0  0  0  0  0  0  0  0  0
  152.1634  140.5350  155.6221 H   0  0  0  0  0  0  0  0  0  0  0  0
  149.6101  142.1303  155.9833 H   0  0  0  0  0  0  0  0  0  0  0  0
  150.6896  142.1197  154.5762 H   0  0  0  0  0  0  0  0  0  0  0  0
  148.3130  140.7397  154.5637 H   0  0  0  0  0  0  0  0  0  0  0  0
  149.3199  140.2118  152.8266 H   0  0  0  0  0  0  0  0  0  0  0  0
  148.6679  139.6417  156.6471 H   0  0  0  0  0  0  0  0  0  0  0  0
  149.1965  137.1995  156.3023 H   0  0  0  0  0  0  0  0  0  0  0  0
  148.0213  137.8012  155.1521 H   0  0  0  0  0  0  0  0  0  0  0  0
  149.3431  137.0581  153.7426 H   0  0  0  0  0  0  0  0  0  0  0  0
  1  2  1  0  0  0  0
  1 19  1  0  0  0  0
  1 20  1  0  0  0  0
  1 21  1  0  0  0  0
  2 16  1  0  0  0  0
  2  3  2  0  0  0  0
  3  4  1  0  0  0  0
  3 22  1  0  0  0  0
  4  5  1  0  0  0  0
  4 13  1  0  0  0  0
  5 12  1  0  0  0  0
  5  6  1  0  0  0  0
  5 23  1  0  0  0  0
  6  7  1  0  0  0  0
  6 24  1  0  0  0  0
  6 25  1  0  0  0  0
  7  8  1  0  0  0  0
  7  9  1  0  0  0  0
  7 26  1  0  0  0  0
  8 27  1  0  0  0  0
  9 10  1  0  0  0  0
  9 12  1  0  0  0  0
  9 28  1  0  0  0  0
 10 11  1  0  0  0  0
 10 29  1  0  0  0  0
 10 30  1  0  0  0  0
 11 31  1  0  0  0  0
 13 14  2  0  0  0  0
 13 15  1  0  0  0  0
 15 18  1  0  0  0  0
 15 16  1  0  0  0  0
 16 17  2  0  0  0  0
M  END
> <s_m_source_file>
AV-unprocessed.smi

> <i_m_source_file_index>
107

> <i_lp_mmshare_version>
43012

> <i_f3d_flags>
0

> <s_epik_input>
Tz1jMVtuSF1jKD1PKW4oW2NIXWMxW0NIM10pW0NAQEhdMltDSDJdW0NAQEhdKFtPSF0pW0NASF0oTzIpW0NIMl1bT0hd

> <s_epik_cmdline>
J2VwaWtfcHl0aG9uJywgJy1waCcsICc3LjAnLCAnLXRuJywgJzgnLCAnLW1hJywgJzIwMCcsICctbWV0YWxfYmluZGluZycsICctaW1hZScsICc8aW5maWxlLm1hZT4nLCAnLW9tYWUnLCAnPG91dGZpbGUubWFlPic=

> <r_lp_tautomer_probability>
0.999537

> <r_epik_Ionization_Penalty>
0.00121888

> <r_epik_Ionization_Penalty_Charging>
0.00121876

> <r_epik_Ionization_Penalty_Neutral>
1.19946e-07

> <r_epik_State_Penalty>
0.000805124

> <r_epik_Charging_Adjusted_Penalty>
0.00202389

> <i_epik_Tot_Q>
0

> <i_epik_Tot_abs_Q>
0

> <r_epik_Metal_State_Penalty>
0.662472

> <b_epik_Metal_Only>
0

> <s_epik_Chemistry_Notes>
This compound contains an acetal/aminal-like group ( X-CH(R)-Y where X, Y are N, S, or O) that may be acid/base labile, releasing an aldehyde.

> <s_lp_Force_Field>
OPLS_2005

> <r_lp_Energy>
27.6975

> <b_lp_Chiralities_Consistent>
1

> <s_lp_Variant>
AV-unprocessed.smi:107-1

> <Gold.Version>
5.8.1

> <Gold.Id.Protein>
6NUR|6NUR_protein|mol2

> <Gold.PLP.Fitness>
40.4013

> <Gold.PLP.PLP>
-28.0364

> <Gold.PLP.part.hbond>
-3.4034

> <Gold.PLP.part.metal>
0.0000

> <Gold.PLP.part.buried>
-4.7274

> <Gold.PLP.part.nonpolar>
-18.9122

> <Gold.PLP.part.repulsive>
0.1715

> <Gold.PLP.ligand.clash>
0.0000

> <Gold.PLP.ligand.torsion>
0.0292

> <Gold.PLP.Chemscore.Hbond>
3.1430

> <Gold.PLP.Chemscore.CHOScore>
0.9973

> <Gold.PLP.Chemscore.Metal>
0.0000

> <Gold.Chemscore.Hbonds>
donor molecule, donor type, donor heavy atom, donor atom, acceptor molecule, acceptor atom, score
      L1  H     8    27       P1  7957  0.54
      L1  H    11    31       P1  7948  0.91
      P1  H  7989  7998       L1     8  0.69
      P1  H  7997  8010       L1    14  0.98
      L1  C     3    22       P1  8028  0.94

> <Gold.PLP.Chemscore.Internal.Correction>
0.0021

> <Gold.Rescore>
     Score         DG    S(hbond)    S(metal)    S(lipo)     H(rot)  DE(clash)    DE(int)     intcor
     11.63     -12.70       2.75        0.00      42.88       2.73       0.00       1.06       ----

> <Gold.Chemscore.Fitness>
11.6305

> <Gold.Chemscore.DG>
-12.6979

> <Gold.Chemscore.ZeroCoef>
-5.4800

> <Gold.Chemscore.Hbond>
2.7479

> <Gold.Chemscore.Metal>
0.0000

> <Gold.Chemscore.Lipo>
42.8777

> <Gold.Chemscore.Internal_Hbond>
0.0000

> <Gold.Chemscore.DEClash>
0.0038

> <Gold.Chemscore.DEInternal>
1.0635

> <Gold.Chemscore.Rot>
2.7253

> <Gold.Chemscore.Internal.Correction>
   9.000000E+99

> <Gold.Chemscore.Hbonds>
donor molecule, donor type, donor heavy atom, donor atom, acceptor molecule, acceptor atom, score
      L1  H     8    27       P1  7957  0.54
      L1  H    11    31       P1  7948  0.82
      P1  H  7989  7998       L1     8  0.17
      P1  H  7997  8010       L1    14  0.64

> <Gold.Chemscore.Hbond.Weighted>
-9.1780

> <Gold.Chemscore.Metal.Weighted>
-0.0000

> <Gold.Chemscore.Lipo.Weighted>
-5.0167

> <Gold.Chemscore.Internal_Hbond.Weighted>
0.0000

> <Gold.Chemscore.DEClash.Weighted>
0.0038

> <Gold.Chemscore.DEInternal.Weighted>
1.0635

> <Gold.Chemscore.Rot.Weighted>
6.9769

> <Gold.Chemscore.Internal.Correction.Weighted>
   9.000000E+99

> <Gold.Protein.RotatedTorsions>
[ 6907 6896 6895 6894 ] final   74.80 input  -60.11 | X-H torsion
[ 7974 7965 7964 7962 ] final   62.56 input  175.53 | X-H torsion
[ 8008 7997 7996 7995 ] final   55.31 input   59.86 | X-H torsion
[ 10167 10162 10161 10158 ] final   -7.10 input  -65.29 | X-H torsion
[ 10718 10713 10712 10709 ] final -113.06 input   66.30 | X-H torsion
[ 10763 10752 10751 10750 ] final  -48.32 input  -60.55 | X-H torsion
[ 11005 11000 10999 10996 ] final -161.47 input  -57.11 | X-H torsion

> <Gold.Protein.ActiveResidues>
 VAL166  LYS551  ARG553  GLY616  TRP617  ASP618  TYR619  PRO620  LYS621  CYS622 
 ASP623  PHE694  ASN695  SER759  ASP760  ASP761  ALA762  ILE779  LEU786  VAL792 
 PHE793  MET794  SER795  GLU796  ALA797  LYS798  CYS799  TRP800  GLU811  SER814 

> <Gold.Protein.RotatedAtoms>
  152.4994  134.4216  159.9482 H   0  0  0  0  0  0  0  0  0  0  0  0  # atno 6907 bound_to 6896
  151.4189  133.3698  159.2761 H   0  0  0  0  0  0  0  0  0  0  0  0  # atno 6908 bound_to 6896
  150.9237  134.8676  159.7565 H   0  0  0  0  0  0  0  0  0  0  0  0  # atno 6909 bound_to 6896
  145.8720  139.3384  143.0757 H   0  0  0  0  0  0  0  0  0  0  0  0  # atno 7974 bound_to 7965
  155.4990  140.3474  155.4368 H   0  0  0  0  0  0  0  0  0  0  0  0  # atno 8008 bound_to 7997
  156.0926  140.1414  156.9600 H   0  0  0  0  0  0  0  0  0  0  0  0  # atno 8009 bound_to 7997
  154.4644  140.0923  156.6958 H   0  0  0  0  0  0  0  0  0  0  0  0  # atno 8010 bound_to 7997
  140.7018  143.6119  150.8695 H   0  0  0  0  0  0  0  0  0  0  0  0  # atno 10167 bound_to 10162
  156.0743  130.5953  150.8592 H   0  0  0  0  0  0  0  0  0  0  0  0  # atno 10718 bound_to 10713
  154.0759  135.6598  153.4831 H   0  0  0  0  0  0  0  0  0  0  0  0  # atno 10763 bound_to 10752
  153.0373  135.5168  154.7521 H   0  0  0  0  0  0  0  0  0  0  0  0  # atno 10764 bound_to 10752
  154.6601  135.3014  154.9845 H   0  0  0  0  0  0  0  0  0  0  0  0  # atno 10765 bound_to 10752
  140.6200  134.4760  157.5223 H   0  0  0  0  0  0  0  0  0  0  0  0  # atno 11005 bound_to 11000
  145.9126  140.9170  143.0446 LP  0  0  0  0  0  0  0  0  0  0  0  0  # atno 17320 bound_to 7965
  144.6726  140.1180  143.7451 LP  0  0  0  0  0  0  0  0  0  0  0  0  # atno 17321 bound_to 7965
  139.9842  143.5918  152.2932 LP  0  0  0  0  0  0  0  0  0  0  0  0  # atno 17342 bound_to 10162
  139.6550  144.7662  151.2074 LP  0  0  0  0  0  0  0  0  0  0  0  0  # atno 17343 bound_to 10162
  157.5831  131.0946  150.9239 LP  0  0  0  0  0  0  0  0  0  0  0  0  # atno 17370 bound_to 10713
  156.9431  130.5392  149.5280 LP  0  0  0  0  0  0  0  0  0  0  0  0  # atno 17371 bound_to 10713
  139.9157  134.8251  156.1375 LP  0  0  0  0  0  0  0  0  0  0  0  0  # atno 17394 bound_to 11000
  141.0749  133.6780  156.2215 LP  0  0  0  0  0  0  0  0  0  0  0  0  # atno 17395 bound_to 11000

$$$$
