AV-unprocessed.smi:434|AV-procd|sdf|2555|dock1
  -GOLD-   2262022523D 1   1.00000     0.00000
 Structure written by MMmdl.
 40 42  0  0  0  0  0  0  0  0  2 V2000
  149.8822  141.2225  155.6006 C   0  0  0  0  0  0  0  0  0  0  0  0
  150.6379  141.6811  156.8024 C   0  0  0  0  0  0  0  0  0  0  0  0
  150.7849  142.9724  157.2121 N   0  3  0  0  0  0  0  0  0  0  0  0
  151.5539  143.0137  158.3758 C   0  0  0  0  0  0  0  0  0  0  0  0
  151.9689  144.0895  159.1547 C   0  0  0  0  0  0  0  0  0  0  0  0
  152.7551  143.7864  160.2856 C   0  0  0  0  0  0  0  0  0  0  0  0
  153.0999  142.4570  160.6045 C   0  0  0  0  0  0  0  0  0  0  0  0
  152.6716  141.3743  159.8083 C   0  0  0  0  0  0  0  0  0  0  0  0
  151.8933  141.6819  158.6922 C   0  0  0  0  0  0  0  0  0  0  0  0
  151.3043  140.8945  157.6948 N   0  0  0  0  0  0  0  0  0  0  0  0
  151.4639  139.4314  157.7264 C   0  0  0  0  0  0  0  0  0  0  0  0
  150.2299  138.7056  158.2994 C   0  0  1  0  0  0  0  0  0  0  0  0
  149.0741  139.1280  157.6038 O   0  0  0  0  0  0  0  0  0  0  0  0
  150.3467  137.1799  158.1613 C   0  0  0  0  0  0  0  0  0  0  0  0
  149.8642  136.5740  159.3488 O   0  0  0  0  0  0  0  0  0  0  0  0
  148.4500  136.4917  159.3860 C   0  0  0  0  0  0  0  0  0  0  0  0
  148.0866  136.0598  160.7659 C   0  0  0  0  0  0  0  0  0  0  0  0
  147.8218  134.8431  161.3314 C   0  0  0  0  0  0  0  0  0  0  0  0
  147.5422  135.0914  162.7037 C   0  0  0  0  0  0  0  0  0  0  0  0
  147.6575  136.4418  162.8729 C   0  0  0  0  0  0  0  0  0  0  0  0
  147.9896  137.0475  161.7002 O   0  0  0  0  0  0  0  0  0  0  0  0
  149.5367  142.0754  155.0161 H   0  0  0  0  0  0  0  0  0  0  0  0
  149.0153  140.6356  155.9044 H   0  0  0  0  0  0  0  0  0  0  0  0
  150.5180  140.6039  154.9672 H   0  0  0  0  0  0  0  0  0  0  0  0
  151.7084  145.1088  158.9103 H   0  0  0  0  0  0  0  0  0  0  0  0
  153.1021  144.5895  160.9197 H   0  0  0  0  0  0  0  0  0  0  0  0
  153.7073  142.2630  161.4766 H   0  0  0  0  0  0  0  0  0  0  0  0
  152.9483  140.3611  160.0588 H   0  0  0  0  0  0  0  0  0  0  0  0
  151.7087  139.0711  156.7270 H   0  0  0  0  0  0  0  0  0  0  0  0
  152.3375  139.2199  158.3443 H   0  0  0  0  0  0  0  0  0  0  0  0
  150.1217  138.9681  159.3527 H   0  0  0  0  0  0  0  0  0  0  0  0
  149.2550  139.0889  156.6767 H   0  0  0  0  0  0  0  0  0  0  0  0
  149.8097  136.8202  157.2815 H   0  0  0  0  0  0  0  0  0  0  0  0
  151.3943  136.9010  158.0373 H   0  0  0  0  0  0  0  0  0  0  0  0
  148.0005  137.4594  159.1575 H   0  0  0  0  0  0  0  0  0  0  0  0
  148.0865  135.7685  158.6547 H   0  0  0  0  0  0  0  0  0  0  0  0
  147.8300  133.8919  160.8202 H   0  0  0  0  0  0  0  0  0  0  0  0
  147.2893  134.3734  163.4699 H   0  0  0  0  0  0  0  0  0  0  0  0
  147.5437  137.1043  163.7182 H   0  0  0  0  0  0  0  0  0  0  0  0
  150.3876  143.7670  156.7274 H   0  0  0  0  0  0  0  0  0  0  0  0
  1  2  1  0  0  0  0
  1 22  1  0  0  0  0
  1 23  1  0  0  0  0
  1 24  1  0  0  0  0
  2 10  1  0  0  0  0
  2  3  2  0  0  0  0
  3  4  1  0  0  0  0
  3 40  1  0  0  0  0
  4  9  2  0  0  0  0
  4  5  1  0  0  0  0
  5  6  2  0  0  0  0
  5 25  1  0  0  0  0
  6  7  1  0  0  0  0
  6 26  1  0  0  0  0
  7  8  2  0  0  0  0
  7 27  1  0  0  0  0
  8  9  1  0  0  0  0
  8 28  1  0  0  0  0
  9 10  1  0  0  0  0
 10 11  1  0  0  0  0
 11 12  1  0  0  0  0
 11 29  1  0  0  0  0
 11 30  1  0  0  0  0
 12 13  1  0  0  0  0
 12 14  1  0  0  0  0
 12 31  1  0  0  0  0
 13 32  1  0  0  0  0
 14 15  1  0  0  0  0
 14 33  1  0  0  0  0
 14 34  1  0  0  0  0
 15 16  1  0  0  0  0
 16 17  1  0  0  0  0
 16 35  1  0  0  0  0
 16 36  1  0  0  0  0
 17 21  1  0  0  0  0
 17 18  2  0  0  0  0
 18 19  1  0  0  0  0
 18 37  1  0  0  0  0
 19 20  2  0  0  0  0
 19 38  1  0  0  0  0
 20 21  1  0  0  0  0
 20 39  1  0  0  0  0
M  CHG  1   3   1
M  END
> <s_m_source_file>
AV-unprocessed.smi

> <i_m_source_file_index>
434

> <i_lp_mmshare_version>
43012

> <i_f3d_flags>
0

> <s_epik_input>
W2NIXTFbY0hdW2NIXVtjSF1jKGMxMiluKGMobjIpW0NIM10pW0NIMl1bQ0BIXShbT0hdKVtDSDJdT1tDSDJdYzNbY0hdW2NIXVtjSF1vMw==

> <s_epik_cmdline>
J2VwaWtfcHl0aG9uJywgJy1waCcsICc3LjAnLCAnLXRuJywgJzgnLCAnLW1hJywgJzIwMCcsICctbWV0YWxfYmluZGluZycsICctaW1hZScsICc8aW5maWxlLm1hZT4nLCAnLW9tYWUnLCAnPG91dGZpbGUubWFlPic=

> <r_epik_Ionization_Penalty>
0.976413

> <r_epik_Ionization_Penalty_Charging>
0.976412

> <r_epik_Ionization_Penalty_Neutral>
9.34185e-07

> <r_epik_State_Penalty>
1.02286

> <r_epik_Charging_Adjusted_Penalty>
1.99927

> <i_epik_Tot_Q>
1

> <i_epik_Tot_abs_Q>
1

> <r_epik_Metal_State_Penalty>
4.99966

> <b_epik_Metal_Only>
0

> <s_lp_Force_Field>
OPLS_2005

> <r_lp_Energy>
13.0994

> <b_lp_Chiralities_Consistent>
1

> <s_lp_Variant>
AV-unprocessed.smi:434-4

> <Gold.Version>
5.8.1

> <Gold.Id.Protein>
6NUR|6NUR_protein|mol2

> <Gold.PLP.Fitness>
62.3298

> <Gold.PLP.PLP>
-50.8471

> <Gold.PLP.part.hbond>
-3.9921

> <Gold.PLP.part.metal>
0.0000

> <Gold.PLP.part.buried>
-6.5301

> <Gold.PLP.part.nonpolar>
-40.7197

> <Gold.PLP.part.repulsive>
0.0277

> <Gold.PLP.ligand.clash>
0.0000

> <Gold.PLP.ligand.torsion>
1.3411

> <Gold.PLP.Chemscore.Hbond>
4.6978

> <Gold.PLP.Chemscore.CHOScore>
0.0000

> <Gold.PLP.Chemscore.Metal>
0.0000

> <Gold.Chemscore.Hbonds>
donor molecule, donor type, donor heavy atom, donor atom, acceptor molecule, acceptor atom, score
      L1  H     3    40       P1  8028  1.85
      P1  H  6896  6909       L1    15  1.00
      P1  H  6931  6943       L1    21  1.00
      P1  H  6934  6947       L1    21  0.28

> <Gold.PLP.Chemscore.Internal.Correction>
0.0713

> <Gold.Rescore>
     Score         DG    S(hbond)    S(metal)    S(lipo)     H(rot)  DE(clash)    DE(int)     intcor
     21.24     -22.61       2.90        0.00     117.16       2.45       0.07       1.30       ----

> <Gold.Chemscore.Fitness>
21.2372

> <Gold.Chemscore.DG>
-22.6059

> <Gold.Chemscore.ZeroCoef>
-5.4800

> <Gold.Chemscore.Hbond>
2.9044

> <Gold.Chemscore.Metal>
0.0000

> <Gold.Chemscore.Lipo>
117.1625

> <Gold.Chemscore.Internal_Hbond>
0.0000

> <Gold.Chemscore.DEClash>
0.0727

> <Gold.Chemscore.DEInternal>
1.2959

> <Gold.Chemscore.Rot>
2.4543

> <Gold.Chemscore.Internal.Correction>
   9.000000E+99

> <Gold.Chemscore.Hbonds>
donor molecule, donor type, donor heavy atom, donor atom, acceptor molecule, acceptor atom, score
      L1  H     3    40       P1  8028  0.86
      P1  H  6896  6909       L1    15  0.70
      P1  H  6931  6943       L1    21  0.81
      P1  H  6934  6947       L1    21  0.26

> <Gold.Chemscore.Hbond.Weighted>
-9.7008

> <Gold.Chemscore.Metal.Weighted>
-0.0000

> <Gold.Chemscore.Lipo.Weighted>
-13.7080

> <Gold.Chemscore.Internal_Hbond.Weighted>
0.0000

> <Gold.Chemscore.DEClash.Weighted>
0.0727

> <Gold.Chemscore.DEInternal.Weighted>
1.2959

> <Gold.Chemscore.Rot.Weighted>
6.2829

> <Gold.Chemscore.Internal.Correction.Weighted>
   9.000000E+99

> <Gold.Protein.RotatedTorsions>
[ 6907 6896 6895 6894 ] final   77.02 input  -60.11 | X-H torsion
[ 7974 7965 7964 7962 ] final   64.44 input  175.53 | X-H torsion
[ 8008 7997 7996 7995 ] final -160.26 input   59.86 | X-H torsion
[ 10167 10162 10161 10158 ] final  114.69 input  -65.29 | X-H torsion
[ 10718 10713 10712 10709 ] final -130.59 input   66.30 | X-H torsion
[ 10763 10752 10751 10750 ] final    1.87 input  -60.55 | X-H torsion
[ 11005 11000 10999 10996 ] final   48.15 input  -57.11 | X-H torsion

> <Gold.Protein.ActiveResidues>
 VAL166  LYS551  ARG553  GLY616  TRP617  ASP618  TYR619  PRO620  LYS621  CYS622 
 ASP623  PHE694  ASN695  SER759  ASP760  ASP761  ALA762  ILE779  LEU786  VAL792 
 PHE793  MET794  SER795  GLU796  ALA797  LYS798  CYS799  TRP800  GLU811  SER814 

> <Gold.Protein.RotatedAtoms>
  152.5099  134.3880  159.9373 H   0  0  0  0  0  0  0  0  0  0  0  0  # atno 6907 bound_to 6896
  151.3839  133.3805  159.2721 H   0  0  0  0  0  0  0  0  0  0  0  0  # atno 6908 bound_to 6896
  150.9483  134.8906  159.7715 H   0  0  0  0  0  0  0  0  0  0  0  0  # atno 6909 bound_to 6896
  145.8502  139.3249  143.0880 H   0  0  0  0  0  0  0  0  0  0  0  0  # atno 7974 bound_to 7965
  155.7748  140.0857  157.2089 H   0  0  0  0  0  0  0  0  0  0  0  0  # atno 8008 bound_to 7997
  154.3994  140.1518  156.3041 H   0  0  0  0  0  0  0  0  0  0  0  0  # atno 8009 bound_to 7997
  155.8712  140.3425  155.5825 H   0  0  0  0  0  0  0  0  0  0  0  0  # atno 8010 bound_to 7997
  139.6370  144.7120  151.2314 H   0  0  0  0  0  0  0  0  0  0  0  0  # atno 10167 bound_to 10162
  156.2160  130.6948  151.0703 H   0  0  0  0  0  0  0  0  0  0  0  0  # atno 10718 bound_to 10713
  153.3027  135.6957  153.7188 H   0  0  0  0  0  0  0  0  0  0  0  0  # atno 10763 bound_to 10752
  153.6097  135.3447  155.2975 H   0  0  0  0  0  0  0  0  0  0  0  0  # atno 10764 bound_to 10752
  154.8555  135.4360  154.2142 H   0  0  0  0  0  0  0  0  0  0  0  0  # atno 10765 bound_to 10752
  140.1216  134.4822  155.8593 H   0  0  0  0  0  0  0  0  0  0  0  0  # atno 11005 bound_to 11000
  145.9366  140.9010  143.0329 LP  0  0  0  0  0  0  0  0  0  0  0  0  # atno 17320 bound_to 7965
  144.6729  140.1492  143.7431 LP  0  0  0  0  0  0  0  0  0  0  0  0  # atno 17321 bound_to 7965
  140.7471  143.6378  150.8363 LP  0  0  0  0  0  0  0  0  0  0  0  0  # atno 17342 bound_to 10162
  140.0011  143.5743  152.2875 LP  0  0  0  0  0  0  0  0  0  0  0  0  # atno 17343 bound_to 10162
  157.7063  131.0755  150.6655 LP  0  0  0  0  0  0  0  0  0  0  0  0  # atno 17370 bound_to 10713
  156.6716  130.4541  149.5655 LP  0  0  0  0  0  0  0  0  0  0  0  0  # atno 17371 bound_to 10713
  141.2153  133.6762  156.6899 LP  0  0  0  0  0  0  0  0  0  0  0  0  # atno 17394 bound_to 11000
  140.2958  134.8204  157.4055 LP  0  0  0  0  0  0  0  0  0  0  0  0  # atno 17395 bound_to 11000

$$$$
