AV-unprocessed.smi:3237|AV-procd|sdf|12373|dock2
  -GOLD-   2272018233D 1   1.00000     0.00000
 Structure written by MMmdl.
 36 38  0  0  0  0  0  0  0  0  3 V2000
  152.1620  139.7074  155.2026 C   0  0  0  0  0  0  0  0  0  0  0  0
  151.7515  138.2761  155.1370 C   0  0  0  0  0  0  0  0  0  0  0  0
  150.7293  137.6317  154.4992 C   0  0  0  0  0  0  0  0  0  0  0  0
  150.9304  136.2729  154.8612 C   0  0  0  0  0  0  0  0  0  0  0  0
  150.0545  135.2607  154.3876 N   0  0  0  0  0  0  0  0  0  0  0  0
  149.7684  134.0675  154.9399 C   0  0  0  0  0  0  0  0  0  0  0  0
  150.2971  133.7283  156.0052 O   0  0  0  0  0  0  0  0  0  0  0  0
  148.8719  133.3583  154.1993 N   0  5  0  0  0  0  0  0  0  0  0  0
  148.6280  131.9214  154.3388 C   0  0  2  0  0  0  0  0  0  0  0  0
  149.9366  131.1301  154.3361 C   0  0  0  0  0  0  0  0  0  0  0  0
  149.5081  129.7546  153.8278 C   0  0  0  0  0  0  0  0  0  0  0  0
  148.4586  130.0292  152.8243 N   0  3  1  0  0  0  0  0  0  0  0  0
  147.4853  128.9293  152.6504 C   0  0  0  0  0  0  0  0  0  0  0  0
  148.1160  127.6262  152.2218 C   0  0  0  0  0  0  0  0  0  0  0  0
  147.3513  128.4645  151.2202 C   0  0  0  0  0  0  0  0  0  0  0  0
  147.8492  131.3423  153.1435 C   0  0  0  0  0  0  0  0  0  0  0  0
  151.9816  136.1045  155.6500 N   0  0  0  0  0  0  0  0  0  0  0  0
  152.5134  137.3869  155.8298 O   0  0  0  0  0  0  0  0  0  0  0  0
  151.2934  140.3630  155.1406 H   0  0  0  0  0  0  0  0  0  0  0  0
  152.8318  139.9535  154.3789 H   0  0  0  0  0  0  0  0  0  0  0  0
  152.6805  139.9226  156.1371 H   0  0  0  0  0  0  0  0  0  0  0  0
  149.9621  138.0644  153.8743 H   0  0  0  0  0  0  0  0  0  0  0  0
  149.5829  135.4644  153.5189 H   0  0  0  0  0  0  0  0  0  0  0  0
  148.0903  131.6752  155.2558 H   0  0  0  0  0  0  0  0  0  0  0  0
  150.6528  131.5673  153.6376 H   0  0  0  0  0  0  0  0  0  0  0  0
  150.4081  131.0887  155.3184 H   0  0  0  0  0  0  0  0  0  0  0  0
  150.3372  129.2001  153.3873 H   0  0  0  0  0  0  0  0  0  0  0  0
  149.1059  129.1482  154.6440 H   0  0  0  0  0  0  0  0  0  0  0  0
  146.6210  128.9368  153.3122 H   0  0  0  0  0  0  0  0  0  0  0  0
  149.1993  127.5868  152.1221 H   0  0  0  0  0  0  0  0  0  0  0  0
  147.6467  126.7056  152.5627 H   0  0  0  0  0  0  0  0  0  0  0  0
  146.3783  128.0964  150.9012 H   0  0  0  0  0  0  0  0  0  0  0  0
  147.9260  128.9830  150.4548 H   0  0  0  0  0  0  0  0  0  0  0  0
  146.7879  131.2559  153.3817 H   0  0  0  0  0  0  0  0  0  0  0  0
  147.9322  131.9716  152.2562 H   0  0  0  0  0  0  0  0  0  0  0  0
  148.9352  130.1564  151.9431 H   0  0  0  0  0  0  0  0  0  0  0  0
  1  2  1  0  0  0  0
  1 19  1  0  0  0  0
  1 20  1  0  0  0  0
  1 21  1  0  0  0  0
  2 18  1  0  0  0  0
  2  3  2  0  0  0  0
  3  4  1  0  0  0  0
  3 22  1  0  0  0  0
  4  5  1  0  0  0  0
  4 17  2  0  0  0  0
  5  6  1  0  0  0  0
  5 23  1  0  0  0  0
  6  7  2  0  0  0  0
  6  8  1  0  0  0  0
  8  9  1  0  0  0  0
  9 16  1  0  0  0  0
  9 10  1  0  0  0  0
  9 24  1  0  0  0  0
 10 11  1  0  0  0  0
 10 25  1  0  0  0  0
 10 26  1  0  0  0  0
 11 12  1  0  0  0  0
 11 27  1  0  0  0  0
 11 28  1  0  0  0  0
 12 13  1  0  0  0  0
 12 16  1  0  0  0  0
 12 36  1  0  0  0  0
 13 15  1  0  0  0  0
 13 14  1  0  0  0  0
 13 29  1  0  0  0  0
 14 15  1  0  0  0  0
 14 30  1  0  0  0  0
 14 31  1  0  0  0  0
 15 32  1  0  0  0  0
 15 33  1  0  0  0  0
 16 34  1  0  0  0  0
 16 35  1  0  0  0  0
 17 18  1  0  0  0  0
M  CHG  1   8  -1
M  CHG  1  12   1
M  END
> <s_m_source_file>
AV-unprocessed.smi

> <i_m_source_file_index>
3237

> <i_lp_mmshare_version>
43012

> <i_f3d_flags>
0

> <s_epik_input>
W0NIM11jMVtjSF1jKG5vMSlbTkhdQyg9TylbTkhdW0NAQEhdMltDSDJdW0NIMl1OKFtDSDJdMilbQ0hdM1tDSDJdW0NIMl0z

> <s_epik_cmdline>
J2VwaWtfcHl0aG9uJywgJy1waCcsICc3LjAnLCAnLXRuJywgJzgnLCAnLW1hJywgJzIwMCcsICctbWV0YWxfYmluZGluZycsICctaW1hZScsICc8aW5maWxlLm1hZT4nLCAnLW9tYWUnLCAnPG91dGZpbGUubWFlPic=

> <r_epik_Ionization_Penalty>
6.76456

> <r_epik_Ionization_Penalty_Charging>
6.76456

> <r_epik_Ionization_Penalty_Neutral>
5.76722e-06

> <r_epik_State_Penalty>
6.78919

> <r_epik_Charging_Adjusted_Penalty>
13.5538

> <i_epik_Tot_Q>
0

> <i_epik_Tot_abs_Q>
2

> <r_epik_Metal_State_Penalty>
2.728

> <b_epik_Metal_Only>
1

> <s_lp_Force_Field>
OPLS_2005

> <r_lp_Energy>
30.8833

> <b_lp_Chiralities_Consistent>
1

> <s_lp_Variant>
AV-unprocessed.smi:3237-11

> <Gold.Version>
5.8.1

> <Gold.Id.Protein>
6NUR|6NUR_protein|mol2

> <Gold.PLP.Fitness>
39.8347

> <Gold.PLP.PLP>
-32.0059

> <Gold.PLP.part.hbond>
-4.0943

> <Gold.PLP.part.metal>
0.0000

> <Gold.PLP.part.buried>
-1.8846

> <Gold.PLP.part.nonpolar>
-25.7636

> <Gold.PLP.part.repulsive>
0.2527

> <Gold.PLP.ligand.clash>
0.0000

> <Gold.PLP.ligand.torsion>
1.0701

> <Gold.PLP.Chemscore.Hbond>
2.9000

> <Gold.PLP.Chemscore.CHOScore>
0.0000

> <Gold.PLP.Chemscore.Metal>
0.0000

> <Gold.Chemscore.Hbonds>
donor molecule, donor type, donor heavy atom, donor atom, acceptor molecule, acceptor atom, score
      L1  H     5    23       P1  7948  0.75
      L1  H    12    36       P1 10747  0.80
      P1  H 10752 10763       L1    17  0.78

> <Gold.PLP.Chemscore.Internal.Correction>
1.2691

> <Gold.Rescore>
     Score         DG    S(hbond)    S(metal)    S(lipo)     H(rot)  DE(clash)    DE(int)     intcor
     15.50     -17.71       2.23        0.00      68.11       1.25       0.08       2.13       ----

> <Gold.Chemscore.Fitness>
15.5022

> <Gold.Chemscore.DG>
-17.7085

> <Gold.Chemscore.ZeroCoef>
-5.4800

> <Gold.Chemscore.Hbond>
2.2306

> <Gold.Chemscore.Metal>
0.0000

> <Gold.Chemscore.Lipo>
68.1132

> <Gold.Chemscore.Internal_Hbond>
0.0000

> <Gold.Chemscore.DEClash>
0.0753

> <Gold.Chemscore.DEInternal>
2.1310

> <Gold.Chemscore.Rot>
1.2464

> <Gold.Chemscore.Internal.Correction>
   9.000000E+99

> <Gold.Chemscore.Hbonds>
donor molecule, donor type, donor heavy atom, donor atom, acceptor molecule, acceptor atom, score
      L1  H     5    23       P1  7948  0.09
      L1  H    12    36       P1 10747  0.11
      P1  H 10752 10763       L1    17  0.09

> <Gold.Chemscore.Hbond.Weighted>
-7.4501

> <Gold.Chemscore.Metal.Weighted>
-0.0000

> <Gold.Chemscore.Lipo.Weighted>
-7.9692

> <Gold.Chemscore.Internal_Hbond.Weighted>
0.0000

> <Gold.Chemscore.DEClash.Weighted>
0.0753

> <Gold.Chemscore.DEInternal.Weighted>
2.1310

> <Gold.Chemscore.Rot.Weighted>
3.1909

> <Gold.Chemscore.Internal.Correction.Weighted>
   9.000000E+99

> <Gold.Protein.RotatedTorsions>
[ 6907 6896 6895 6894 ] final   22.54 input  -60.11 | X-H torsion
[ 7974 7965 7964 7962 ] final -145.21 input  175.53 | X-H torsion
[ 8008 7997 7996 7995 ] final  -79.10 input   59.86 | X-H torsion
[ 10167 10162 10161 10158 ] final  -17.84 input  -65.29 | X-H torsion
[ 10718 10713 10712 10709 ] final  157.77 input   66.30 | X-H torsion
[ 10763 10752 10751 10750 ] final   69.35 input  -60.55 | X-H torsion
[ 11005 11000 10999 10996 ] final   30.01 input  -57.11 | X-H torsion

> <Gold.Protein.ActiveResidues>
 VAL166  LYS551  ARG553  GLY616  TRP617  ASP618  TYR619  PRO620  LYS621  CYS622 
 ASP623  PHE694  ASN695  SER759  ASP760  ASP761  ALA762  ILE779  LEU786  VAL792 
 PHE793  MET794  SER795  GLU796  ALA797  LYS798  CYS799  TRP800  GLU811  SER814 

> <Gold.Protein.RotatedAtoms>
  151.9287  135.0266  160.0527 H   0  0  0  0  0  0  0  0  0  0  0  0  # atno 6907 bound_to 6896
  152.2137  133.4926  159.5132 H   0  0  0  0  0  0  0  0  0  0  0  0  # atno 6908 bound_to 6896
  150.6982  134.1350  159.4126 H   0  0  0  0  0  0  0  0  0  0  0  0  # atno 6909 bound_to 6896
  144.8243  140.5612  143.5557 H   0  0  0  0  0  0  0  0  0  0  0  0  # atno 7974 bound_to 7965
  154.5753  140.0684  156.9024 H   0  0  0  0  0  0  0  0  0  0  0  0  # atno 8008 bound_to 7997
  155.2561  140.3355  155.4259 H   0  0  0  0  0  0  0  0  0  0  0  0  # atno 8009 bound_to 7997
  156.2149  140.1774  156.7597 H   0  0  0  0  0  0  0  0  0  0  0  0  # atno 8010 bound_to 7997
  140.7252  143.4975  150.9912 H   0  0  0  0  0  0  0  0  0  0  0  0  # atno 10167 bound_to 10162
  157.1870  131.0646  151.2100 H   0  0  0  0  0  0  0  0  0  0  0  0  # atno 10718 bound_to 10713
  153.0282  135.5214  154.7274 H   0  0  0  0  0  0  0  0  0  0  0  0  # atno 10763 bound_to 10752
  154.6312  135.2900  155.0217 H   0  0  0  0  0  0  0  0  0  0  0  0  # atno 10764 bound_to 10752
  154.1168  135.6613  153.4948 H   0  0  0  0  0  0  0  0  0  0  0  0  # atno 10765 bound_to 10752
  140.2989  134.2779  155.7758 H   0  0  0  0  0  0  0  0  0  0  0  0  # atno 11005 bound_to 11000
  145.5035  139.1482  143.3644 LP  0  0  0  0  0  0  0  0  0  0  0  0  # atno 17320 bound_to 7965
  146.2548  140.5175  142.8878 LP  0  0  0  0  0  0  0  0  0  0  0  0  # atno 17321 bound_to 7965
  139.8683  143.7226  152.3168 LP  0  0  0  0  0  0  0  0  0  0  0  0  # atno 17342 bound_to 10162
  139.7465  144.7546  151.0571 LP  0  0  0  0  0  0  0  0  0  0  0  0  # atno 17343 bound_to 10162
  157.3897  130.7275  149.6689 LP  0  0  0  0  0  0  0  0  0  0  0  0  # atno 17370 bound_to 10713
  155.9716  130.4150  150.4159 LP  0  0  0  0  0  0  0  0  0  0  0  0  # atno 17371 bound_to 10713
  141.2132  133.7633  156.9737 LP  0  0  0  0  0  0  0  0  0  0  0  0  # atno 17394 bound_to 11000
  140.1127  134.9466  157.2089 LP  0  0  0  0  0  0  0  0  0  0  0  0  # atno 17395 bound_to 11000

$$$$
