AV-unprocessed.smi:1383|AV-procd|sdf|5625|dock9
  -GOLD-   22720 5243D 1   1.00000     0.00000
 Structure written by MMmdl.
 30 30  0  0  0  0  0  0  0  0  2 V2000
  152.0762  144.4119  159.1104 C   0  0  0  0  0  0  0  0  0  0  0  0
  151.4589  143.0537  158.7418 C   0  0  0  0  0  0  0  0  0  0  0  0
  152.4578  141.8748  158.7661 C   0  0  1  0  0  0  0  0  0  0  0  0
  152.9687  141.6087  160.1925 C   0  0  0  0  0  0  0  0  0  0  0  0
  151.8449  140.5887  158.1789 C   0  0  0  0  0  0  0  0  0  0  0  0
  150.9105  140.0424  158.7690 O   0  0  0  0  0  0  0  0  0  0  0  0
  152.4509  140.2131  157.0265 N   0  5  0  0  0  0  0  0  0  0  0  0
  151.7146  139.7029  156.0275 C   0  0  0  0  0  0  0  0  0  0  0  0
  150.5414  140.2219  155.6493 N   0  0  0  0  0  0  0  0  0  0  0  0
  149.9465  139.5441  154.5811 C   0  0  0  0  0  0  0  0  0  0  0  0
  148.6221  140.0057  154.0444 C   0  0  0  0  0  0  0  0  0  0  0  0
  148.1625  141.2783  154.7601 C   0  0  0  0  0  0  0  0  0  0  0  0
  149.0582  142.2600  154.8993 N   0  0  0  0  0  0  0  0  0  0  0  0
  147.0155  141.3703  155.1930 O   0  0  0  0  0  0  0  0  0  0  0  0
  150.6916  138.4810  154.1394 C   0  0  0  0  0  0  0  0  0  0  0  0
  152.1670  138.3077  155.0464 S   0  0  0  0  0  0  0  0  0  0  0  0
  151.3131  145.1901  159.1301 H   0  0  0  0  0  0  0  0  0  0  0  0
  152.8372  144.7176  158.3916 H   0  0  0  0  0  0  0  0  0  0  0  0
  152.5412  144.3767  160.0960 H   0  0  0  0  0  0  0  0  0  0  0  0
  150.6502  142.8451  159.4429 H   0  0  0  0  0  0  0  0  0  0  0  0
  150.9886  143.1258  157.7601 H   0  0  0  0  0  0  0  0  0  0  0  0
  153.3249  142.1720  158.1716 H   0  0  0  0  0  0  0  0  0  0  0  0
  153.6677  140.7716  160.2129 H   0  0  0  0  0  0  0  0  0  0  0  0
  152.1503  141.3769  160.8751 H   0  0  0  0  0  0  0  0  0  0  0  0
  153.4922  142.4796  160.5880 H   0  0  0  0  0  0  0  0  0  0  0  0
  148.6924  140.1992  152.9734 H   0  0  0  0  0  0  0  0  0  0  0  0
  147.8610  139.2340  154.1668 H   0  0  0  0  0  0  0  0  0  0  0  0
  148.7999  143.1079  155.3845 H   0  0  0  0  0  0  0  0  0  0  0  0
  149.9938  142.1435  154.5387 H   0  0  0  0  0  0  0  0  0  0  0  0
  150.4662  137.7958  153.3363 H   0  0  0  0  0  0  0  0  0  0  0  0
  1  2  1  0  0  0  0
  1 17  1  0  0  0  0
  1 18  1  0  0  0  0
  1 19  1  0  0  0  0
  2  3  1  0  0  0  0
  2 20  1  0  0  0  0
  2 21  1  0  0  0  0
  3  4  1  0  0  0  0
  3  5  1  0  0  0  0
  3 22  1  0  0  0  0
  4 23  1  0  0  0  0
  4 24  1  0  0  0  0
  4 25  1  0  0  0  0
  5  6  2  0  0  0  0
  5  7  1  0  0  0  0
  7  8  1  0  0  0  0
  8 16  1  0  0  0  0
  8  9  2  0  0  0  0
  9 10  1  0  0  0  0
 10 11  1  0  0  0  0
 10 15  2  0  0  0  0
 11 12  1  0  0  0  0
 11 26  1  0  0  0  0
 11 27  1  0  0  0  0
 12 13  1  0  0  0  0
 12 14  2  0  0  0  0
 13 28  1  0  0  0  0
 13 29  1  0  0  0  0
 15 16  1  0  0  0  0
 15 30  1  0  0  0  0
M  CHG  1   7  -1
M  END
> <s_m_source_file>
AV-unprocessed.smi

> <i_m_source_file_index>
1383

> <i_lp_mmshare_version>
43012

> <i_f3d_flags>
0

> <s_epik_input>
W0NIM11bQ0gyXVtDQEhdKFtDSDNdKUMoPU8pW05IXWMxbmMoW2NIXXMxKVtDSDJdQyg9TylbTkgyXQ==

> <s_epik_cmdline>
J2VwaWtfcHl0aG9uJywgJy1waCcsICc3LjAnLCAnLXRuJywgJzgnLCAnLW1hJywgJzIwMCcsICctbWV0YWxfYmluZGluZycsICctaW1hZScsICc8aW5maWxlLm1hZT4nLCAnLW9tYWUnLCAnPG91dGZpbGUubWFlPic=

> <r_lp_tautomer_probability>
1

> <r_epik_Ionization_Penalty>
5.3563

> <r_epik_Ionization_Penalty_Charging>
4.90463

> <r_epik_Ionization_Penalty_Neutral>
0.451677

> <r_epik_State_Penalty>
4.90447

> <r_epik_Charging_Adjusted_Penalty>
9.8091

> <i_epik_Tot_Q>
-1

> <i_epik_Tot_abs_Q>
1

> <r_epik_Metal_State_Penalty>
1.05508

> <b_epik_Metal_Only>
1

> <s_lp_Force_Field>
OPLS_2005

> <r_lp_Energy>
-0.48596

> <b_lp_Chiralities_Consistent>
1

> <s_lp_Variant>
AV-unprocessed.smi:1383-4

> <Gold.Version>
5.8.1

> <Gold.Id.Protein>
6NUR|6NUR_protein|mol2

> <Gold.PLP.Fitness>
43.5028

> <Gold.PLP.PLP>
-32.9713

> <Gold.PLP.part.hbond>
-1.8304

> <Gold.PLP.part.metal>
0.0000

> <Gold.PLP.part.buried>
-3.7388

> <Gold.PLP.part.nonpolar>
-27.6656

> <Gold.PLP.part.repulsive>
0.3455

> <Gold.PLP.ligand.clash>
0.0000

> <Gold.PLP.ligand.torsion>
0.8583

> <Gold.PLP.Chemscore.Hbond>
3.0000

> <Gold.PLP.Chemscore.CHOScore>
1.0685

> <Gold.PLP.Chemscore.Metal>
0.0000

> <Gold.Chemscore.Hbonds>
donor molecule, donor type, donor heavy atom, donor atom, acceptor molecule, acceptor atom, score
      L1  H    13    28       P1  8028  1.00
      P1  H  7997  8010       L1     7  1.95
      L1  C    15    30       P1  7948  0.67
      L1  C    15    30       P1  7949  0.34

> <Gold.PLP.Chemscore.Internal.Correction>
0.0426

> <Gold.Rescore>
     Score         DG    S(hbond)    S(metal)    S(lipo)     H(rot)  DE(clash)    DE(int)     intcor
     13.73     -14.83       1.93        0.00      71.87       2.15       0.00       1.10       ----

> <Gold.Chemscore.Fitness>
13.7311

> <Gold.Chemscore.DG>
-14.8272

> <Gold.Chemscore.ZeroCoef>
-5.4800

> <Gold.Chemscore.Hbond>
1.9315

> <Gold.Chemscore.Metal>
0.0000

> <Gold.Chemscore.Lipo>
71.8661

> <Gold.Chemscore.Internal_Hbond>
0.0000

> <Gold.Chemscore.DEClash>
0.0000

> <Gold.Chemscore.DEInternal>
1.0961

> <Gold.Chemscore.Rot>
2.1532

> <Gold.Chemscore.Internal.Correction>
   9.000000E+99

> <Gold.Chemscore.Hbonds>
donor molecule, donor type, donor heavy atom, donor atom, acceptor molecule, acceptor atom, score
      L1  H    13    28       P1  8028  0.96
      P1  H  7997  8010       L1     7  0.50

> <Gold.Chemscore.Hbond.Weighted>
-6.4511

> <Gold.Chemscore.Metal.Weighted>
-0.0000

> <Gold.Chemscore.Lipo.Weighted>
-8.4083

> <Gold.Chemscore.Internal_Hbond.Weighted>
0.0000

> <Gold.Chemscore.DEClash.Weighted>
0.0000

> <Gold.Chemscore.DEInternal.Weighted>
1.0961

> <Gold.Chemscore.Rot.Weighted>
5.5123

> <Gold.Chemscore.Internal.Correction.Weighted>
   9.000000E+99

> <Gold.Protein.RotatedTorsions>
[ 6907 6896 6895 6894 ] final  153.17 input  -60.11 | X-H torsion
[ 7974 7965 7964 7962 ] final   95.02 input  175.53 | X-H torsion
[ 8008 7997 7996 7995 ] final   74.38 input   59.86 | X-H torsion
[ 10167 10162 10161 10158 ] final   10.92 input  -65.29 | X-H torsion
[ 10718 10713 10712 10709 ] final   94.46 input   66.30 | X-H torsion
[ 10763 10752 10751 10750 ] final  133.63 input  -60.55 | X-H torsion
[ 11005 11000 10999 10996 ] final -124.14 input  -57.11 | X-H torsion

> <Gold.Protein.ActiveResidues>
 VAL166  LYS551  ARG553  GLY616  TRP617  ASP618  TYR619  PRO620  LYS621  CYS622 
 ASP623  PHE694  ASN695  SER759  ASP760  ASP761  ALA762  ILE779  LEU786  VAL792 
 PHE793  MET794  SER795  GLU796  ALA797  LYS798  CYS799  TRP800  GLU811  SER814 

> <Gold.Protein.RotatedAtoms>
  152.0764  133.4131  159.4481 H   0  0  0  0  0  0  0  0  0  0  0  0  # atno 6907 bound_to 6896
  150.6862  134.3032  159.4724 H   0  0  0  0  0  0  0  0  0  0  0  0  # atno 6908 bound_to 6896
  152.0870  134.9433  160.0623 H   0  0  0  0  0  0  0  0  0  0  0  0  # atno 6909 bound_to 6896
  145.4577  139.2289  143.3004 H   0  0  0  0  0  0  0  0  0  0  0  0  # atno 7974 bound_to 7965
  155.7976  140.3477  155.5384 H   0  0  0  0  0  0  0  0  0  0  0  0  # atno 8008 bound_to 7997
  155.8571  140.0965  157.1658 H   0  0  0  0  0  0  0  0  0  0  0  0  # atno 8009 bound_to 7997
  154.4010  140.1365  156.3902 H   0  0  0  0  0  0  0  0  0  0  0  0  # atno 8010 bound_to 7997
  140.6164  143.8298  150.7123 H   0  0  0  0  0  0  0  0  0  0  0  0  # atno 10167 bound_to 10162
  157.6947  131.0513  150.4189 H   0  0  0  0  0  0  0  0  0  0  0  0  # atno 10718 bound_to 10713
  153.8103  135.3130  155.3400 H   0  0  0  0  0  0  0  0  0  0  0  0  # atno 10763 bound_to 10752
  154.8054  135.4701  154.0381 H   0  0  0  0  0  0  0  0  0  0  0  0  # atno 10764 bound_to 10752
  153.1758  135.6885  153.8634 H   0  0  0  0  0  0  0  0  0  0  0  0  # atno 10765 bound_to 10752
  140.9864  134.0600  157.3706 H   0  0  0  0  0  0  0  0  0  0  0  0  # atno 11005 bound_to 11000
  146.2468  140.5343  142.8910 LP  0  0  0  0  0  0  0  0  0  0  0  0  # atno 17320 bound_to 7965
  144.8022  140.6233  143.6471 LP  0  0  0  0  0  0  0  0  0  0  0  0  # atno 17321 bound_to 7965
  140.1879  143.4061  152.1885 LP  0  0  0  0  0  0  0  0  0  0  0  0  # atno 17342 bound_to 10162
  139.5402  144.7249  151.4758 LP  0  0  0  0  0  0  0  0  0  0  0  0  # atno 17343 bound_to 10162
  156.4566  130.4023  149.6602 LP  0  0  0  0  0  0  0  0  0  0  0  0  # atno 17370 bound_to 10713
  156.3732  130.7541  151.2527 LP  0  0  0  0  0  0  0  0  0  0  0  0  # atno 17371 bound_to 10713
  139.8972  135.0149  156.7091 LP  0  0  0  0  0  0  0  0  0  0  0  0  # atno 17394 bound_to 11000
  140.7107  133.9225  155.8083 LP  0  0  0  0  0  0  0  0  0  0  0  0  # atno 17395 bound_to 11000

$$$$
