AV-unprocessed.smi:2999|AV-procd|sdf|11425|dock2
  -GOLD-   2272016353D 1   1.00000     0.00000
 Structure written by MMmdl.
 37 39  0  0  0  0  0  0  0  0  3 V2000
  152.4998  139.9563  157.2351 O   0  0  0  0  0  0  0  0  0  0  0  0
  151.6133  140.5641  156.6312 C   0  0  0  0  0  0  0  0  0  0  0  0
  151.1633  140.0981  155.4601 N   0  0  0  0  0  0  0  0  0  0  0  0
  151.6228  138.8813  154.8030 C   0  0  0  0  0  0  0  0  0  0  0  0
  150.4407  137.9635  154.4578 C   0  0  2  0  0  0  0  0  0  0  0  0
  149.1651  138.7457  154.0770 C   0  0  0  0  0  0  0  0  0  0  0  0
  148.0431  137.8132  153.8274 N   0  3  2  0  0  0  0  0  0  0  0  0
  146.8075  138.5142  153.4170 C   0  0  0  0  0  0  0  0  0  0  0  0
  146.0420  137.8058  152.3238 C   0  0  0  0  0  0  0  0  0  0  0  0
  146.8516  139.0426  152.0023 C   0  0  0  0  0  0  0  0  0  0  0  0
  147.8312  136.9287  154.9950 C   0  0  0  0  0  0  0  0  0  0  0  0
  149.1374  136.2024  155.3545 C   0  0  0  0  0  0  0  0  0  0  0  0
  150.1620  137.1584  155.5995 O   0  0  0  0  0  0  0  0  0  0  0  0
  151.0050  141.7047  157.0270 N   0  5  0  0  0  0  0  0  0  0  0  0
  151.5764  142.4823  157.9613 C   0  0  0  0  0  0  0  0  0  0  0  0
  151.3913  143.8061  158.0203 N   0  0  0  0  0  0  0  0  0  0  0  0
  152.0873  144.4177  159.0647 C   0  0  0  0  0  0  0  0  0  0  0  0
  152.8263  143.5402  159.8131 C   0  0  0  0  0  0  0  0  0  0  0  0
  152.6679  141.9095  159.2262 S   0  0  0  0  0  0  0  0  0  0  0  0
  150.4418  140.6303  154.9964 H   0  0  0  0  0  0  0  0  0  0  0  0
  152.1605  139.1563  153.8947 H   0  0  0  0  0  0  0  0  0  0  0  0
  152.3284  138.3515  155.4452 H   0  0  0  0  0  0  0  0  0  0  0  0
  150.7335  137.3131  153.6309 H   0  0  0  0  0  0  0  0  0  0  0  0
  148.8940  139.4377  154.8762 H   0  0  0  0  0  0  0  0  0  0  0  0
  149.3397  139.3444  153.1822 H   0  0  0  0  0  0  0  0  0  0  0  0
  146.2808  139.0641  154.1951 H   0  0  0  0  0  0  0  0  0  0  0  0
  146.4207  136.8508  151.9637 H   0  0  0  0  0  0  0  0  0  0  0  0
  144.9586  137.9058  152.3240 H   0  0  0  0  0  0  0  0  0  0  0  0
  146.3021  139.9578  151.7917 H   0  0  0  0  0  0  0  0  0  0  0  0
  147.7685  138.9094  151.4306 H   0  0  0  0  0  0  0  0  0  0  0  0
  147.4861  137.5197  155.8448 H   0  0  0  0  0  0  0  0  0  0  0  0
  147.0504  136.2011  154.7714 H   0  0  0  0  0  0  0  0  0  0  0  0
  148.9971  135.5976  156.2504 H   0  0  0  0  0  0  0  0  0  0  0  0
  149.4392  135.5232  154.5556 H   0  0  0  0  0  0  0  0  0  0  0  0
  152.0006  145.4854  159.2003 H   0  0  0  0  0  0  0  0  0  0  0  0
  153.4517  143.7517  160.6674 H   0  0  0  0  0  0  0  0  0  0  0  0
  148.3182  137.2233  153.0551 H   0  0  0  0  0  0  0  0  0  0  0  0
  1  2  2  0  0  0  0
  2  3  1  0  0  0  0
  2 14  1  0  0  0  0
  3  4  1  0  0  0  0
  3 20  1  0  0  0  0
  4  5  1  0  0  0  0
  4 21  1  0  0  0  0
  4 22  1  0  0  0  0
  5 13  1  0  0  0  0
  5  6  1  0  0  0  0
  5 23  1  0  0  0  0
  6  7  1  0  0  0  0
  6 24  1  0  0  0  0
  6 25  1  0  0  0  0
  7  8  1  0  0  0  0
  7 11  1  0  0  0  0
  7 37  1  0  0  0  0
  8 10  1  0  0  0  0
  8  9  1  0  0  0  0
  8 26  1  0  0  0  0
  9 10  1  0  0  0  0
  9 27  1  0  0  0  0
  9 28  1  0  0  0  0
 10 29  1  0  0  0  0
 10 30  1  0  0  0  0
 11 12  1  0  0  0  0
 11 31  1  0  0  0  0
 11 32  1  0  0  0  0
 12 13  1  0  0  0  0
 12 33  1  0  0  0  0
 12 34  1  0  0  0  0
 14 15  1  0  0  0  0
 15 19  1  0  0  0  0
 15 16  2  0  0  0  0
 16 17  1  0  0  0  0
 17 18  2  0  0  0  0
 17 35  1  0  0  0  0
 18 19  1  0  0  0  0
 18 36  1  0  0  0  0
M  CHG  1   7   1
M  CHG  1  14  -1
M  END
> <s_m_source_file>
AV-unprocessed.smi

> <i_m_source_file_index>
2999

> <i_lp_mmshare_version>
43012

> <i_f3d_flags>
0

> <s_epik_input>
czFbY0hdW2NIXW5jMVtOSF1DKD1PKVtOSF1bQ0gyXVtDQEBIXTJbQ0gyXU4oW0NIMl1bQ0gyXU8yKVtDSF0zW0NIMl1bQ0gyXTM=

> <s_epik_cmdline>
J2VwaWtfcHl0aG9uJywgJy1waCcsICc3LjAnLCAnLXRuJywgJzgnLCAnLW1hJywgJzIwMCcsICctbWV0YWxfYmluZGluZycsICctaW1hZScsICc8aW5maWxlLm1hZT4nLCAnLW9tYWUnLCAnPG91dGZpbGUubWFlPic=

> <r_lp_tautomer_probability>
0.999

> <r_epik_Ionization_Penalty>
7.79196

> <r_epik_Ionization_Penalty_Charging>
6.93299

> <r_epik_Ionization_Penalty_Neutral>
0.858963

> <r_epik_State_Penalty>
7.05108

> <r_epik_Charging_Adjusted_Penalty>
13.9841

> <i_epik_Tot_Q>
0

> <i_epik_Tot_abs_Q>
2

> <r_epik_Metal_State_Penalty>
3.05936

> <b_epik_Metal_Only>
1

> <s_lp_Force_Field>
OPLS_2005

> <r_lp_Energy>
14.1159

> <b_lp_Chiralities_Consistent>
1

> <s_lp_Variant>
AV-unprocessed.smi:2999-9

> <Gold.Version>
5.8.1

> <Gold.Id.Protein>
6NUR|6NUR_protein|mol2

> <Gold.PLP.Fitness>
43.9330

> <Gold.PLP.PLP>
-36.0407

> <Gold.PLP.part.hbond>
-2.0000

> <Gold.PLP.part.metal>
0.0000

> <Gold.PLP.part.buried>
-2.5065

> <Gold.PLP.part.nonpolar>
-30.6424

> <Gold.PLP.part.repulsive>
1.7031

> <Gold.PLP.ligand.clash>
0.0000

> <Gold.PLP.ligand.torsion>
1.2033

> <Gold.PLP.Chemscore.Hbond>
3.0000

> <Gold.PLP.Chemscore.CHOScore>
0.0000

> <Gold.PLP.Chemscore.Metal>
0.0000

> <Gold.Chemscore.Hbonds>
donor molecule, donor type, donor heavy atom, donor atom, acceptor molecule, acceptor atom, score
      L1  H     7    37       P1  7948  2.00
      P1  H  7997  8008       L1     1  1.00

> <Gold.PLP.Chemscore.Internal.Correction>
1.2989

> <Gold.Rescore>
     Score         DG    S(hbond)    S(metal)    S(lipo)     H(rot)  DE(clash)    DE(int)     intcor
     15.45     -17.90       1.99        0.00      83.14       1.55       0.07       2.38       ----

> <Gold.Chemscore.Fitness>
15.4494

> <Gold.Chemscore.DG>
-17.8998

> <Gold.Chemscore.ZeroCoef>
-5.4800

> <Gold.Chemscore.Hbond>
1.9944

> <Gold.Chemscore.Metal>
0.0000

> <Gold.Chemscore.Lipo>
83.1406

> <Gold.Chemscore.Internal_Hbond>
0.0000

> <Gold.Chemscore.DEClash>
0.0678

> <Gold.Chemscore.DEInternal>
2.3825

> <Gold.Chemscore.Rot>
1.5504

> <Gold.Chemscore.Internal.Correction>
   9.000000E+99

> <Gold.Chemscore.Hbonds>
donor molecule, donor type, donor heavy atom, donor atom, acceptor molecule, acceptor atom, score
      L1  H     7    37       P1  7948  1.00
      P1  H  7997  8008       L1     1  0.97

> <Gold.Chemscore.Hbond.Weighted>
-6.6613

> <Gold.Chemscore.Metal.Weighted>
-0.0000

> <Gold.Chemscore.Lipo.Weighted>
-9.7274

> <Gold.Chemscore.Internal_Hbond.Weighted>
0.0000

> <Gold.Chemscore.DEClash.Weighted>
0.0678

> <Gold.Chemscore.DEInternal.Weighted>
2.3825

> <Gold.Chemscore.Rot.Weighted>
3.9690

> <Gold.Chemscore.Internal.Correction.Weighted>
   9.000000E+99

> <Gold.Protein.RotatedTorsions>
[ 6907 6896 6895 6894 ] final   89.95 input  -60.11 | X-H torsion
[ 7974 7965 7964 7962 ] final   41.48 input  175.53 | X-H torsion
[ 8008 7997 7996 7995 ] final  -64.40 input   59.86 | X-H torsion
[ 10167 10162 10161 10158 ] final   93.18 input  -65.29 | X-H torsion
[ 10718 10713 10712 10709 ] final   80.37 input   66.30 | X-H torsion
[ 10763 10752 10751 10750 ] final   28.51 input  -60.55 | X-H torsion
[ 11005 11000 10999 10996 ] final  -30.07 input  -57.11 | X-H torsion

> <Gold.Protein.ActiveResidues>
 VAL166  LYS551  ARG553  GLY616  TRP617  ASP618  TYR619  PRO620  LYS621  CYS622 
 ASP623  PHE694  ASN695  SER759  ASP760  ASP761  ALA762  ILE779  LEU786  VAL792 
 PHE793  MET794  SER795  GLU796  ALA797  LYS798  CYS799  TRP800  GLU811  SER814 

> <Gold.Protein.RotatedAtoms>
  152.5441  134.1887  159.8664 H   0  0  0  0  0  0  0  0  0  0  0  0  # atno 6907 bound_to 6896
  151.1884  133.4675  159.2602 H   0  0  0  0  0  0  0  0  0  0  0  0  # atno 6908 bound_to 6896
  151.1108  135.0037  159.8548 H   0  0  0  0  0  0  0  0  0  0  0  0  # atno 6909 bound_to 6896
  146.0819  139.5410  142.9531 H   0  0  0  0  0  0  0  0  0  0  0  0  # atno 7974 bound_to 7965
  154.4610  140.0954  156.6892 H   0  0  0  0  0  0  0  0  0  0  0  0  # atno 8008 bound_to 7997
  155.4995  140.3473  155.4350 H   0  0  0  0  0  0  0  0  0  0  0  0  # atno 8009 bound_to 7997
  156.0869  140.1387  156.9630 H   0  0  0  0  0  0  0  0  0  0  0  0  # atno 8010 bound_to 7997
  139.8205  144.6733  150.9525 H   0  0  0  0  0  0  0  0  0  0  0  0  # atno 10167 bound_to 10162
  157.6804  130.9956  150.2069 H   0  0  0  0  0  0  0  0  0  0  0  0  # atno 10718 bound_to 10713
  153.0487  135.6511  154.0750 H   0  0  0  0  0  0  0  0  0  0  0  0  # atno 10763 bound_to 10752
  154.0442  135.2901  155.3352 H   0  0  0  0  0  0  0  0  0  0  0  0  # atno 10764 bound_to 10752
  154.6762  135.5337  153.8268 H   0  0  0  0  0  0  0  0  0  0  0  0  # atno 10765 bound_to 10752
  140.9351  133.7314  156.0993 H   0  0  0  0  0  0  0  0  0  0  0  0  # atno 11005 bound_to 11000
  145.6201  141.0324  143.1919 LP  0  0  0  0  0  0  0  0  0  0  0  0  # atno 17320 bound_to 7965
  144.7299  139.7757  143.7351 LP  0  0  0  0  0  0  0  0  0  0  0  0  # atno 17321 bound_to 7965
  140.7813  143.4096  151.1014 LP  0  0  0  0  0  0  0  0  0  0  0  0  # atno 17342 bound_to 10162
  139.7757  143.8429  152.3129 LP  0  0  0  0  0  0  0  0  0  0  0  0  # atno 17343 bound_to 10162
  156.2748  130.3726  149.7994 LP  0  0  0  0  0  0  0  0  0  0  0  0  # atno 17370 bound_to 10713
  156.5700  130.8421  151.3354 LP  0  0  0  0  0  0  0  0  0  0  0  0  # atno 17371 bound_to 10713
  140.7810  134.3725  157.5487 LP  0  0  0  0  0  0  0  0  0  0  0  0  # atno 17394 bound_to 11000
  139.8806  134.9082  156.2962 LP  0  0  0  0  0  0  0  0  0  0  0  0  # atno 17395 bound_to 11000

$$$$
