AV-unprocessed.smi:2083|AV-procd|sdf|8505|dock1
  -GOLD-   2272011213D 1   1.00000     0.00000
 Structure written by MMmdl.
 44 45  0  0  0  0  0  0  0  0  3 V2000
  147.3952  136.1400  163.2438 C   0  0  0  0  0  0  0  0  0  0  0  0
  147.5129  135.8415  161.7882 C   0  0  0  0  0  0  0  0  0  0  0  0
  147.5577  134.6732  161.0817 C   0  0  0  0  0  0  0  0  0  0  0  0
  147.6813  135.1122  159.7352 C   0  0  0  0  0  0  0  0  0  0  0  0
  147.7520  134.3233  158.6520 N   0  5  0  0  0  0  0  0  0  0  0  0
  146.9842  134.5826  157.5697 C   0  0  0  0  0  0  0  0  0  0  0  0
  146.0725  135.4101  157.4990 O   0  0  0  0  0  0  0  0  0  0  0  0
  147.2974  133.8414  156.4974 N   0  0  0  0  0  0  0  0  0  0  0  0
  146.6578  133.9237  155.1876 C   0  0  0  0  0  0  0  0  0  0  0  0
  147.6577  134.2749  154.0499 C   0  0  1  0  0  0  0  0  0  0  0  0
  148.8114  133.2480  154.0130 C   0  0  0  0  0  0  0  0  0  0  0  0
  147.0376  134.3849  152.6887 N   0  3  2  0  0  0  0  0  0  0  0  0
  145.8302  135.2590  152.6997 C   0  0  0  0  0  0  0  0  0  0  0  0
  145.3229  135.5423  151.2785 C   0  0  0  0  0  0  0  0  0  0  0  0
  145.0054  134.2348  150.5478 C   0  0  0  0  0  0  0  0  0  0  0  0
  146.2399  133.3213  150.5508 C   0  0  2  0  0  0  0  0  0  0  0  0
  145.9503  131.9888  149.8450 C   0  0  0  0  0  0  0  0  0  0  0  0
  146.7505  133.0974  151.9899 C   0  0  0  0  0  0  0  0  0  0  0  0
  147.6933  136.4306  159.6320 N   0  0  0  0  0  0  0  0  0  0  0  0
  147.5916  136.9060  160.9450 O   0  0  0  0  0  0  0  0  0  0  0  0
  146.4195  135.8349  163.6220 H   0  0  0  0  0  0  0  0  0  0  0  0
  147.5153  137.2061  163.4380 H   0  0  0  0  0  0  0  0  0  0  0  0
  148.1593  135.6067  163.8093 H   0  0  0  0  0  0  0  0  0  0  0  0
  147.5123  133.6653  161.4656 H   0  0  0  0  0  0  0  0  0  0  0  0
  148.0462  133.1720  156.6009 H   0  0  0  0  0  0  0  0  0  0  0  0
  146.1844  132.9614  154.9903 H   0  0  0  0  0  0  0  0  0  0  0  0
  145.8578  134.6619  155.2607 H   0  0  0  0  0  0  0  0  0  0  0  0
  148.0801  135.2518  154.2902 H   0  0  0  0  0  0  0  0  0  0  0  0
  149.3415  133.2017  154.9642 H   0  0  0  0  0  0  0  0  0  0  0  0
  149.5604  133.4873  153.2599 H   0  0  0  0  0  0  0  0  0  0  0  0
  148.4371  132.2470  153.7968 H   0  0  0  0  0  0  0  0  0  0  0  0
  145.0431  134.7812  153.2857 H   0  0  0  0  0  0  0  0  0  0  0  0
  146.0427  136.2095  153.1864 H   0  0  0  0  0  0  0  0  0  0  0  0
  144.4321  136.1698  151.3197 H   0  0  0  0  0  0  0  0  0  0  0  0
  146.0744  136.1055  150.7234 H   0  0  0  0  0  0  0  0  0  0  0  0
  144.1676  133.7341  151.0355 H   0  0  0  0  0  0  0  0  0  0  0  0
  144.6916  134.4469  149.5250 H   0  0  0  0  0  0  0  0  0  0  0  0
  147.0302  133.8232  149.9901 H   0  0  0  0  0  0  0  0  0  0  0  0
  145.1670  131.4301  150.3583 H   0  0  0  0  0  0  0  0  0  0  0  0
  146.8403  131.3597  149.8119 H   0  0  0  0  0  0  0  0  0  0  0  0
  145.6247  132.1513  148.8172 H   0  0  0  0  0  0  0  0  0  0  0  0
  147.6563  132.4971  151.9129 H   0  0  0  0  0  0  0  0  0  0  0  0
  146.0256  132.5219  152.5684 H   0  0  0  0  0  0  0  0  0  0  0  0
  147.7269  134.8494  152.1154 H   0  0  0  0  0  0  0  0  0  0  0  0
  1  2  1  0  0  0  0
  1 21  1  0  0  0  0
  1 22  1  0  0  0  0
  1 23  1  0  0  0  0
  2 20  1  0  0  0  0
  2  3  2  0  0  0  0
  3  4  1  0  0  0  0
  3 24  1  0  0  0  0
  4  5  1  0  0  0  0
  4 19  2  0  0  0  0
  5  6  1  0  0  0  0
  6  7  2  0  0  0  0
  6  8  1  0  0  0  0
  8  9  1  0  0  0  0
  8 25  1  0  0  0  0
  9 10  1  0  0  0  0
  9 26  1  0  0  0  0
  9 27  1  0  0  0  0
 10 11  1  0  0  0  0
 10 12  1  0  0  0  0
 10 28  1  0  0  0  0
 11 29  1  0  0  0  0
 11 30  1  0  0  0  0
 11 31  1  0  0  0  0
 12 18  1  0  0  0  0
 12 13  1  0  0  0  0
 12 44  1  0  0  0  0
 13 14  1  0  0  0  0
 13 32  1  0  0  0  0
 13 33  1  0  0  0  0
 14 15  1  0  0  0  0
 14 34  1  0  0  0  0
 14 35  1  0  0  0  0
 15 16  1  0  0  0  0
 15 36  1  0  0  0  0
 15 37  1  0  0  0  0
 16 17  1  0  0  0  0
 16 18  1  0  0  0  0
 16 38  1  0  0  0  0
 17 39  1  0  0  0  0
 17 40  1  0  0  0  0
 17 41  1  0  0  0  0
 18 42  1  0  0  0  0
 18 43  1  0  0  0  0
 19 20  1  0  0  0  0
M  CHG  1   5  -1
M  CHG  1  12   1
M  END
> <s_m_source_file>
AV-unprocessed.smi

> <i_m_source_file_index>
2083

> <i_lp_mmshare_version>
43012

> <i_f3d_flags>
0

> <s_epik_input>
W0NIM11jMVtjSF1jKG5vMSlbTkhdQyg9TylbTkhdW0NIMl1bQ0BIXShbQ0gzXSlOMltDSDJdW0NIMl1bQ0gyXVtDQEBIXShbQ0gzXSlbQ0gyXTI=

> <s_epik_cmdline>
J2VwaWtfcHl0aG9uJywgJy1waCcsICc3LjAnLCAnLXRuJywgJzgnLCAnLW1hJywgJzIwMCcsICctbWV0YWxfYmluZGluZycsICctaW1hZScsICc8aW5maWxlLm1hZT4nLCAnLW9tYWUnLCAnPG91dGZpbGUubWFlPic=

> <r_epik_Ionization_Penalty>
6.22434

> <r_epik_Ionization_Penalty_Charging>
6.22425

> <r_epik_Ionization_Penalty_Neutral>
9.62407e-05

> <r_epik_State_Penalty>
6.22423

> <r_epik_Charging_Adjusted_Penalty>
12.4485

> <i_epik_Tot_Q>
0

> <i_epik_Tot_abs_Q>
2

> <r_epik_Metal_State_Penalty>
2.16764

> <b_epik_Metal_Only>
1

> <s_lp_Force_Field>
OPLS_2005

> <r_lp_Energy>
9.644

> <b_lp_Chiralities_Consistent>
1

> <s_lp_Variant>
AV-unprocessed.smi:2083-16

> <Gold.Version>
5.8.1

> <Gold.Id.Protein>
6NUR|6NUR_protein|mol2

> <Gold.PLP.Fitness>
43.0604

> <Gold.PLP.PLP>
-32.7501

> <Gold.PLP.part.hbond>
-3.0000

> <Gold.PLP.part.metal>
0.0000

> <Gold.PLP.part.buried>
-2.7778

> <Gold.PLP.part.nonpolar>
-27.0353

> <Gold.PLP.part.repulsive>
0.0012

> <Gold.PLP.ligand.clash>
0.0000

> <Gold.PLP.ligand.torsion>
0.5912

> <Gold.PLP.Chemscore.Hbond>
3.7760

> <Gold.PLP.Chemscore.CHOScore>
0.0000

> <Gold.PLP.Chemscore.Metal>
0.0000

> <Gold.Chemscore.Hbonds>
donor molecule, donor type, donor heavy atom, donor atom, acceptor molecule, acceptor atom, score
      L1  H    12    44       P1  7948  2.00
      P1  H  6931  6943       L1    20  0.59
      P1  H  6934  6947       L1    20  0.69

> <Gold.PLP.Chemscore.Internal.Correction>
0.1646

> <Gold.Rescore>
     Score         DG    S(hbond)    S(metal)    S(lipo)     H(rot)  DE(clash)    DE(int)     intcor
     15.46     -17.47       2.07        0.00      76.80       1.52       0.04       1.98       ----

> <Gold.Chemscore.Fitness>
15.4600

> <Gold.Chemscore.DG>
-17.4741

> <Gold.Chemscore.ZeroCoef>
-5.4800

> <Gold.Chemscore.Hbond>
2.0651

> <Gold.Chemscore.Metal>
0.0000

> <Gold.Chemscore.Lipo>
76.7974

> <Gold.Chemscore.Internal_Hbond>
0.0000

> <Gold.Chemscore.DEClash>
0.0378

> <Gold.Chemscore.DEInternal>
1.9764

> <Gold.Chemscore.Rot>
1.5190

> <Gold.Chemscore.Internal.Correction>
   9.000000E+99

> <Gold.Chemscore.Hbonds>
donor molecule, donor type, donor heavy atom, donor atom, acceptor molecule, acceptor atom, score
      L1  H    12    44       P1  7948  0.72
      P1  H  6931  6943       L1    20  0.28
      P1  H  6934  6947       L1    20  0.48

> <Gold.Chemscore.Hbond.Weighted>
-6.8975

> <Gold.Chemscore.Metal.Weighted>
-0.0000

> <Gold.Chemscore.Lipo.Weighted>
-8.9853

> <Gold.Chemscore.Internal_Hbond.Weighted>
0.0000

> <Gold.Chemscore.DEClash.Weighted>
0.0378

> <Gold.Chemscore.DEInternal.Weighted>
1.9764

> <Gold.Chemscore.Rot.Weighted>
3.8886

> <Gold.Chemscore.Internal.Correction.Weighted>
   9.000000E+99

> <Gold.Protein.RotatedTorsions>
[ 6907 6896 6895 6894 ] final -131.68 input  -60.11 | X-H torsion
[ 7974 7965 7964 7962 ] final  -14.50 input  175.53 | X-H torsion
[ 8008 7997 7996 7995 ] final  131.00 input   59.86 | X-H torsion
[ 10167 10162 10161 10158 ] final  -52.96 input  -65.29 | X-H torsion
[ 10718 10713 10712 10709 ] final  163.08 input   66.30 | X-H torsion
[ 10763 10752 10751 10750 ] final -166.65 input  -60.55 | X-H torsion
[ 11005 11000 10999 10996 ] final   31.34 input  -57.11 | X-H torsion

> <Gold.Protein.ActiveResidues>
 VAL166  LYS551  ARG553  GLY616  TRP617  ASP618  TYR619  PRO620  LYS621  CYS622 
 ASP623  PHE694  ASN695  SER759  ASP760  ASP761  ALA762  ILE779  LEU786  VAL792 
 PHE793  MET794  SER795  GLU796  ALA797  LYS798  CYS799  TRP800  GLU811  SER814 

> <Gold.Protein.RotatedAtoms>
  150.9538  133.6520  159.2766 H   0  0  0  0  0  0  0  0  0  0  0  0  # atno 6907 bound_to 6896
  151.3867  135.0948  159.9523 H   0  0  0  0  0  0  0  0  0  0  0  0  # atno 6908 bound_to 6896
  152.5120  133.9061  159.7519 H   0  0  0  0  0  0  0  0  0  0  0  0  # atno 6909 bound_to 6896
  146.2071  140.3357  142.8403 H   0  0  0  0  0  0  0  0  0  0  0  0  # atno 7974 bound_to 7965
  156.2963  140.2582  156.2854 H   0  0  0  0  0  0  0  0  0  0  0  0  # atno 8008 bound_to 7997
  154.9562  140.0393  157.2186 H   0  0  0  0  0  0  0  0  0  0  0  0  # atno 8009 bound_to 7997
  154.7990  140.2825  155.5940 H   0  0  0  0  0  0  0  0  0  0  0  0  # atno 8010 bound_to 7997
  140.6510  143.2566  151.4723 H   0  0  0  0  0  0  0  0  0  0  0  0  # atno 10167 bound_to 10162
  157.1135  131.0474  151.2446 H   0  0  0  0  0  0  0  0  0  0  0  0  # atno 10718 bound_to 10713
  154.6812  135.2955  154.9610 H   0  0  0  0  0  0  0  0  0  0  0  0  # atno 10763 bound_to 10752
  154.0605  135.6632  153.4815 H   0  0  0  0  0  0  0  0  0  0  0  0  # atno 10764 bound_to 10752
  153.0548  135.5151  154.7856 H   0  0  0  0  0  0  0  0  0  0  0  0  # atno 10765 bound_to 10752
  140.2849  134.2930  155.7791 H   0  0  0  0  0  0  0  0  0  0  0  0  # atno 11005 bound_to 11000
  144.8820  140.7413  143.5980 LP  0  0  0  0  0  0  0  0  0  0  0  0  # atno 17320 bound_to 7965
  145.3278  139.1769  143.4553 LP  0  0  0  0  0  0  0  0  0  0  0  0  # atno 17321 bound_to 7965
  139.5725  144.1895  152.1857 LP  0  0  0  0  0  0  0  0  0  0  0  0  # atno 17342 bound_to 10162
  140.1195  144.5385  150.6872 LP  0  0  0  0  0  0  0  0  0  0  0  0  # atno 17343 bound_to 10162
  157.4538  130.7614  149.7175 LP  0  0  0  0  0  0  0  0  0  0  0  0  # atno 17370 bound_to 10713
  155.9845  130.3991  150.3310 LP  0  0  0  0  0  0  0  0  0  0  0  0  # atno 17371 bound_to 10713
  141.2156  133.7549  156.9537 LP  0  0  0  0  0  0  0  0  0  0  0  0  # atno 17394 bound_to 11000
  140.1249  134.9393  157.2255 LP  0  0  0  0  0  0  0  0  0  0  0  0  # atno 17395 bound_to 11000

$$$$
