AV-unprocessed.smi:290|AV-procd|sdf|2224|dock7
  -GOLD-   2262022 73D 1   1.00000     0.00000
 Structure written by MMmdl.
 59 62  0  0  0  0  0  0  0  0  2 V2000
  151.5138  140.6951  157.6481 C   0  0  0  0  0  0  0  0  0  0  0  0
  151.5007  140.2230  156.1861 C   0  0  1  0  0  0  0  0  0  0  0  0
  152.7394  139.6119  155.8285 O   0  0  0  0  0  0  0  0  0  0  0  0
  152.5102  138.4019  155.1161 C   0  0  0  0  0  0  0  0  0  0  0  0
  151.0593  138.4758  154.6521 C   0  0  0  0  0  0  0  0  0  0  0  0
  150.3858  139.2268  155.7921 C   0  0  1  0  0  0  0  0  0  0  0  0
  150.1436  138.3132  156.8494 O   0  0  0  0  0  0  0  0  0  0  0  0
  149.0108  139.8545  155.4435 C   0  0  0  0  0  0  0  0  0  0  0  0
  148.0854  138.9674  154.7555 N   0  0  0  0  0  0  0  0  0  0  0  0
  147.6592  139.0659  153.4490 C   0  0  0  0  0  0  0  0  0  0  0  0
  146.8257  138.1384  153.0616 N   0  0  0  0  0  0  0  0  0  0  0  0
  146.6808  137.3311  154.1818 C   0  0  0  0  0  0  0  0  0  0  0  0
  145.9375  136.1551  154.4585 C   0  0  0  0  0  0  0  0  0  0  0  0
  145.1441  135.5843  153.5249 N   0  0  0  0  0  0  0  0  0  0  0  0
  143.7204  135.6969  153.8013 C   0  0  0  0  0  0  0  0  0  0  0  0
  143.0294  134.6965  152.8662 C   0  0  0  0  0  0  0  0  0  0  0  0
  144.1476  133.7335  152.4115 C   0  0  1  0  0  0  0  0  0  0  0  0
  144.3684  133.6765  150.9323 N   0  3  2  0  0  0  0  0  0  0  0  0
  144.4306  134.9895  150.2394 C   0  0  0  0  0  0  0  0  0  0  0  0
  143.4723  132.7196  150.2344 C   0  0  0  0  0  0  0  0  0  0  0  0
  143.6789  132.7373  148.7105 C   0  0  0  0  0  0  0  0  0  0  0  0
  142.6460  132.0130  148.0765 O   0  0  0  0  0  0  0  0  0  0  0  0
  145.3834  134.1806  153.2180 C   0  0  1  0  0  0  0  0  0  0  0  0
  146.7652  133.8923  152.5973 C   0  0  0  0  0  0  0  0  0  0  0  0
  146.0428  135.6110  155.6996 N   0  0  0  0  0  0  0  0  0  0  0  0
  146.8304  136.1861  156.6140 C   0  0  0  0  0  0  0  0  0  0  0  0
  147.5815  137.2836  156.4974 N   0  0  0  0  0  0  0  0  0  0  0  0
  147.4729  137.8300  155.2523 C   0  0  0  0  0  0  0  0  0  0  0  0
  143.9033  132.7268  152.7499 H   0  0  0  0  0  0  0  0  0  0  0  0
  145.3437  133.6356  154.1631 H   0  0  0  0  0  0  0  0  0  0  0  0
  150.5638  141.1567  157.9184 H   0  0  0  0  0  0  0  0  0  0  0  0
  152.2981  141.4352  157.8065 H   0  0  0  0  0  0  0  0  0  0  0  0
  151.6980  139.8709  158.3374 H   0  0  0  0  0  0  0  0  0  0  0  0
  151.4410  141.1031  155.5475 H   0  0  0  0  0  0  0  0  0  0  0  0
  153.2102  138.2870  154.2882 H   0  0  0  0  0  0  0  0  0  0  0  0
  152.6512  137.5622  155.7976 H   0  0  0  0  0  0  0  0  0  0  0  0
  151.0211  139.0521  153.7285 H   0  0  0  0  0  0  0  0  0  0  0  0
  150.6233  137.4963  154.4526 H   0  0  0  0  0  0  0  0  0  0  0  0
  150.1015  138.7952  157.6610 H   0  0  0  0  0  0  0  0  0  0  0  0
  148.5222  140.2085  156.3523 H   0  0  0  0  0  0  0  0  0  0  0  0
  149.1556  140.7365  154.8176 H   0  0  0  0  0  0  0  0  0  0  0  0
  147.9850  139.8566  152.7886 H   0  0  0  0  0  0  0  0  0  0  0  0
  143.5112  135.4442  154.8421 H   0  0  0  0  0  0  0  0  0  0  0  0
  143.3696  136.7146  153.6263 H   0  0  0  0  0  0  0  0  0  0  0  0
  142.2425  134.1620  153.3992 H   0  0  0  0  0  0  0  0  0  0  0  0
  142.5437  135.2124  152.0401 H   0  0  0  0  0  0  0  0  0  0  0  0
  143.4410  135.4222  150.0944 H   0  0  0  0  0  0  0  0  0  0  0  0
  144.8767  134.8626  149.2528 H   0  0  0  0  0  0  0  0  0  0  0  0
  145.0424  135.7118  150.7778 H   0  0  0  0  0  0  0  0  0  0  0  0
  143.6310  131.7153  150.6296 H   0  0  0  0  0  0  0  0  0  0  0  0
  142.4285  132.9629  150.4409 H   0  0  0  0  0  0  0  0  0  0  0  0
  143.7138  133.7499  148.3102 H   0  0  0  0  0  0  0  0  0  0  0  0
  144.6295  132.2654  148.4608 H   0  0  0  0  0  0  0  0  0  0  0  0
  142.3684  132.4913  147.3094 H   0  0  0  0  0  0  0  0  0  0  0  0
  146.8647  132.8363  152.3452 H   0  0  0  0  0  0  0  0  0  0  0  0
  147.5657  134.1354  153.2966 H   0  0  0  0  0  0  0  0  0  0  0  0
  146.9421  134.4711  151.6916 H   0  0  0  0  0  0  0  0  0  0  0  0
  146.8620  135.6994  157.5777 H   0  0  0  0  0  0  0  0  0  0  0  0
  145.2929  133.2841  150.8208 H   0  0  0  0  0  0  0  0  0  0  0  0
  1  2  1  0  0  0  0
  1 31  1  0  0  0  0
  1 32  1  0  0  0  0
  1 33  1  0  0  0  0
  2  6  1  0  0  0  0
  2  3  1  0  0  0  0
  2 34  1  0  0  0  0
  3  4  1  0  0  0  0
  4  5  1  0  0  0  0
  4 35  1  0  0  0  0
  4 36  1  0  0  0  0
  5  6  1  0  0  0  0
  5 37  1  0  0  0  0
  5 38  1  0  0  0  0
  6  7  1  0  0  0  0
  6  8  1  0  0  0  0
  7 39  1  0  0  0  0
  8  9  1  0  0  0  0
  8 40  1  0  0  0  0
  8 41  1  0  0  0  0
  9 28  1  0  0  0  0
  9 10  1  0  0  0  0
 10 11  2  0  0  0  0
 10 42  1  0  0  0  0
 11 12  1  0  0  0  0
 12 28  2  0  0  0  0
 12 13  1  0  0  0  0
 13 14  1  0  0  0  0
 13 25  2  0  0  0  0
 14 23  1  0  0  0  0
 14 15  1  0  0  0  0
 15 16  1  0  0  0  0
 15 43  1  0  0  0  0
 15 44  1  0  0  0  0
 16 17  1  0  0  0  0
 16 45  1  0  0  0  0
 16 46  1  0  0  0  0
 17 29  1  0  0  0  0
 17 18  1  0  0  0  0
 17 23  1  0  0  0  0
 18 19  1  0  0  0  0
 18 20  1  0  0  0  0
 18 59  1  0  0  0  0
 19 47  1  0  0  0  0
 19 48  1  0  0  0  0
 19 49  1  0  0  0  0
 20 21  1  0  0  0  0
 20 50  1  0  0  0  0
 20 51  1  0  0  0  0
 21 22  1  0  0  0  0
 21 52  1  0  0  0  0
 21 53  1  0  0  0  0
 22 54  1  0  0  0  0
 23 30  1  0  0  0  0
 23 24  1  0  0  0  0
 24 55  1  0  0  0  0
 24 56  1  0  0  0  0
 24 57  1  0  0  0  0
 25 26  1  0  0  0  0
 26 27  2  0  0  0  0
 26 58  1  0  0  0  0
 27 28  1  0  0  0  0
M  CHG  1  18   1
M  END
> <s_m_source_file>
AV-unprocessed.smi

> <i_m_source_file_index>
290

> <i_lp_mmshare_version>
43012

> <i_f3d_flags>
0

> <s_epik_input>
W0NIMl0xW0NIMl1PW0NAQEhdKFtDSDNdKVtDQEBdMShbT0hdKVtDSDJdbihbY0hdbjIpYyhjMjMpbltjSF1uYzNONFtDSDJdW0NIMl1bQ0BIXShbQ0BIXTRbQ0gzXSlOKFtDSDNdKVtDSDJdW0NIMl1bT0hd

> <s_epik_cmdline>
J2VwaWtfcHl0aG9uJywgJy1waCcsICc3LjAnLCAnLXRuJywgJzgnLCAnLW1hJywgJzIwMCcsICctbWV0YWxfYmluZGluZycsICctaW1hZScsICc8aW5maWxlLm1hZT4nLCAnLW9tYWUnLCAnPG91dGZpbGUubWFlPic=

> <r_lp_tautomer_probability>
1

> <r_epik_Ionization_Penalty>
0.0036983

> <r_epik_Ionization_Penalty_Charging>
0.0032725

> <r_epik_Ionization_Penalty_Neutral>
0.000425798

> <r_epik_State_Penalty>
-0

> <r_epik_Charging_Adjusted_Penalty>
0.0032725

> <i_epik_Tot_Q>
1

> <i_epik_Tot_abs_Q>
1

> <r_epik_Metal_State_Penalty>
-0

> <b_epik_Metal_Only>
0

> <s_lp_Force_Field>
OPLS_2005

> <r_lp_Energy>
72.0744

> <b_lp_Chiralities_Consistent>
1

> <s_lp_Variant>
AV-unprocessed.smi:290-10

> <Gold.Version>
5.8.1

> <Gold.Id.Protein>
6NUR|6NUR_protein|mol2

> <Gold.PLP.Fitness>
46.9514

> <Gold.PLP.PLP>
-37.3918

> <Gold.PLP.part.hbond>
-4.4441

> <Gold.PLP.part.metal>
0.0000

> <Gold.PLP.part.buried>
-1.9800

> <Gold.PLP.part.nonpolar>
-31.7221

> <Gold.PLP.part.repulsive>
0.8832

> <Gold.PLP.ligand.clash>
0.0000

> <Gold.PLP.ligand.torsion>
0.7845

> <Gold.PLP.Chemscore.Hbond>
2.6480

> <Gold.PLP.Chemscore.CHOScore>
1.0000

> <Gold.PLP.Chemscore.Metal>
0.0000

> <Gold.Chemscore.Hbonds>
donor molecule, donor type, donor heavy atom, donor atom, acceptor molecule, acceptor atom, score
      L1  H    22    54       P1 10195  1.00
      P1  H  7997  8009       L1     3  1.00
      P1  H 10785 10796       L1    22  0.62
      L1  C    10    42       P1  7957  1.00

> <Gold.PLP.Chemscore.Internal.Correction>
0.1846

> <Gold.Rescore>
     Score         DG    S(hbond)    S(metal)    S(lipo)     H(rot)  DE(clash)    DE(int)     intcor
     11.39     -13.99       2.15        0.00      91.50       3.67       0.40       2.20       ----

> <Gold.Chemscore.Fitness>
11.3901

> <Gold.Chemscore.DG>
-13.9914

> <Gold.Chemscore.ZeroCoef>
-5.4800

> <Gold.Chemscore.Hbond>
2.1529

> <Gold.Chemscore.Metal>
0.0000

> <Gold.Chemscore.Lipo>
91.4975

> <Gold.Chemscore.Internal_Hbond>
0.0000

> <Gold.Chemscore.DEClash>
0.3972

> <Gold.Chemscore.DEInternal>
2.2041

> <Gold.Chemscore.Rot>
3.6658

> <Gold.Chemscore.Internal.Correction>
   9.000000E+99

> <Gold.Chemscore.Hbonds>
donor molecule, donor type, donor heavy atom, donor atom, acceptor molecule, acceptor atom, score
      L1  H    22    54       P1 10195  0.97
      P1  H  7997  8009       L1     3  0.98
      P1  H 10785 10796       L1    22  0.11

> <Gold.Chemscore.Hbond.Weighted>
-7.1906

> <Gold.Chemscore.Metal.Weighted>
-0.0000

> <Gold.Chemscore.Lipo.Weighted>
-10.7052

> <Gold.Chemscore.Internal_Hbond.Weighted>
0.0000

> <Gold.Chemscore.DEClash.Weighted>
0.3972

> <Gold.Chemscore.DEInternal.Weighted>
2.2041

> <Gold.Chemscore.Rot.Weighted>
9.3844

> <Gold.Chemscore.Internal.Correction.Weighted>
   9.000000E+99

> <Gold.Protein.RotatedTorsions>
[ 6907 6896 6895 6894 ] final   84.76 input  -60.11 | X-H torsion
[ 7974 7965 7964 7962 ] final  -44.49 input  175.53 | X-H torsion
[ 8008 7997 7996 7995 ] final -151.66 input   59.86 | X-H torsion
[ 10167 10162 10161 10158 ] final  -93.06 input  -65.29 | X-H torsion
[ 10718 10713 10712 10709 ] final  -47.33 input   66.30 | X-H torsion
[ 10763 10752 10751 10750 ] final  -25.35 input  -60.55 | X-H torsion
[ 11005 11000 10999 10996 ] final   94.34 input  -57.11 | X-H torsion

> <Gold.Protein.ActiveResidues>
 VAL166  LYS551  ARG553  GLY616  TRP617  ASP618  TYR619  PRO620  LYS621  CYS622 
 ASP623  PHE694  ASN695  SER759  ASP760  ASP761  ALA762  ILE779  LEU786  VAL792 
 PHE793  MET794  SER795  GLU796  ALA797  LYS798  CYS799  TRP800  GLU811  SER814 

> <Gold.Protein.RotatedAtoms>
  152.5360  134.2691  159.8964 H   0  0  0  0  0  0  0  0  0  0  0  0  # atno 6907 bound_to 6896
  151.2648  133.4277  159.2625 H   0  0  0  0  0  0  0  0  0  0  0  0  # atno 6908 bound_to 6896
  151.0420  134.9628  159.8223 H   0  0  0  0  0  0  0  0  0  0  0  0  # atno 6909 bound_to 6896
  145.9915  140.7175  142.9314 H   0  0  0  0  0  0  0  0  0  0  0  0  # atno 7974 bound_to 7965
  155.6429  140.0703  157.2612 H   0  0  0  0  0  0  0  0  0  0  0  0  # atno 8008 bound_to 7997
  154.4179  140.1747  156.1642 H   0  0  0  0  0  0  0  0  0  0  0  0  # atno 8009 bound_to 7997
  155.9840  140.3351  155.6693 H   0  0  0  0  0  0  0  0  0  0  0  0  # atno 8010 bound_to 7997
  140.3284  143.3008  151.9969 H   0  0  0  0  0  0  0  0  0  0  0  0  # atno 10167 bound_to 10162
  156.2095  130.4160  149.9133 H   0  0  0  0  0  0  0  0  0  0  0  0  # atno 10718 bound_to 10713
  153.6984  135.6957  153.5070 H   0  0  0  0  0  0  0  0  0  0  0  0  # atno 10763 bound_to 10752
  153.2360  135.4321  155.0646 H   0  0  0  0  0  0  0  0  0  0  0  0  # atno 10764 bound_to 10752
  154.8351  135.3496  154.6524 H   0  0  0  0  0  0  0  0  0  0  0  0  # atno 10765 bound_to 10752
  139.8799  134.8840  156.3850 H   0  0  0  0  0  0  0  0  0  0  0  0  # atno 11005 bound_to 11000
  144.6890  140.3078  143.7253 LP  0  0  0  0  0  0  0  0  0  0  0  0  # atno 17320 bound_to 7965
  145.7623  139.1829  143.2260 LP  0  0  0  0  0  0  0  0  0  0  0  0  # atno 17321 bound_to 7965
  139.4861  144.6254  151.7174 LP  0  0  0  0  0  0  0  0  0  0  0  0  # atno 17342 bound_to 10162
  140.5419  144.0565  150.6092 LP  0  0  0  0  0  0  0  0  0  0  0  0  # atno 17343 bound_to 10162
  156.6816  130.8860  151.3576 LP  0  0  0  0  0  0  0  0  0  0  0  0  # atno 17370 bound_to 10713
  157.7031  130.9354  150.0845 LP  0  0  0  0  0  0  0  0  0  0  0  0  # atno 17371 bound_to 10713
  140.9372  133.7539  156.0100 LP  0  0  0  0  0  0  0  0  0  0  0  0  # atno 17394 bound_to 11000
  140.8261  134.3232  157.5365 LP  0  0  0  0  0  0  0  0  0  0  0  0  # atno 17395 bound_to 11000

$$$$
