AV-unprocessed.smi:1947|AV-procd|sdf|7870|dock2
  -GOLD-   2272010 23D 1   1.00000     0.00000
 Structure written by MMmdl.
 38 39  0  0  0  0  0  0  0  0  2 V2000
  151.3854  145.1732  158.9358 C   0  0  0  0  0  0  0  0  0  0  0  0
  152.3724  144.3304  159.7575 C   0  0  1  0  0  0  0  0  0  0  0  0
  151.8180  144.0200  161.1626 C   0  0  0  0  0  0  0  0  0  0  0  0
  152.8314  143.2326  162.0077 C   0  0  0  0  0  0  0  0  0  0  0  0
  153.2740  141.9468  161.2936 C   0  0  0  0  0  0  0  0  0  0  0  0
  153.8265  142.2481  159.8896 C   0  0  0  0  0  0  0  0  0  0  0  0
  152.8177  143.0354  159.0328 C   0  0  1  0  0  0  0  0  0  0  0  0
  151.7016  142.1839  158.8078 O   0  0  0  0  0  0  0  0  0  0  0  0
  150.9498  142.4680  157.6379 C   0  0  0  0  0  0  0  0  0  0  0  0
  150.9130  141.2157  156.7487 C   0  0  0  0  0  0  0  0  0  0  0  0
  149.5390  140.8403  156.4283 N   0  0  0  0  0  0  0  0  0  0  0  0
  149.1068  140.3791  155.2455 C   0  0  0  0  0  0  0  0  0  0  0  0
  149.8751  140.3363  154.2817 O   0  0  0  0  0  0  0  0  0  0  0  0
  147.8160  139.9761  155.2560 N   0  5  0  0  0  0  0  0  0  0  0  0
  147.3013  139.3641  154.1768 C   0  0  0  0  0  0  0  0  0  0  0  0
  146.9295  138.0736  154.1953 N   0  0  0  0  0  0  0  0  0  0  0  0
  146.4288  137.6321  152.9782 N   0  0  0  0  0  0  0  0  0  0  0  0
  146.4265  138.6089  152.0714 C   0  0  0  0  0  0  0  0  0  0  0  0
  147.0326  140.1567  152.6224 S   0  0  0  0  0  0  0  0  0  0  0  0
  150.4344  144.6575  158.8027 H   0  0  0  0  0  0  0  0  0  0  0  0
  151.7871  145.3998  157.9480 H   0  0  0  0  0  0  0  0  0  0  0  0
  151.1748  146.1211  159.4311 H   0  0  0  0  0  0  0  0  0  0  0  0
  153.2649  144.9435  159.8910 H   0  0  0  0  0  0  0  0  0  0  0  0
  151.5581  144.9466  161.6754 H   0  0  0  0  0  0  0  0  0  0  0  0
  150.8922  143.4500  161.0793 H   0  0  0  0  0  0  0  0  0  0  0  0
  153.7022  143.8576  162.2096 H   0  0  0  0  0  0  0  0  0  0  0  0
  152.3948  142.9880  162.9763 H   0  0  0  0  0  0  0  0  0  0  0  0
  154.0295  141.4329  161.8880 H   0  0  0  0  0  0  0  0  0  0  0  0
  152.4269  141.2639  161.2160 H   0  0  0  0  0  0  0  0  0  0  0  0
  154.7491  142.8225  159.9812 H   0  0  0  0  0  0  0  0  0  0  0  0
  154.0935  141.3174  159.3880 H   0  0  0  0  0  0  0  0  0  0  0  0
  153.3036  143.2907  158.0891 H   0  0  0  0  0  0  0  0  0  0  0  0
  149.9335  142.7784  157.8835 H   0  0  0  0  0  0  0  0  0  0  0  0
  151.4210  143.2954  157.1060 H   0  0  0  0  0  0  0  0  0  0  0  0
  151.4259  141.4230  155.8095 H   0  0  0  0  0  0  0  0  0  0  0  0
  151.4493  140.3898  157.2183 H   0  0  0  0  0  0  0  0  0  0  0  0
  148.8715  140.8665  157.1849 H   0  0  0  0  0  0  0  0  0  0  0  0
  146.0635  138.4176  151.0728 H   0  0  0  0  0  0  0  0  0  0  0  0
  1  2  1  0  0  0  0
  1 20  1  0  0  0  0
  1 21  1  0  0  0  0
  1 22  1  0  0  0  0
  2  7  1  0  0  0  0
  2  3  1  0  0  0  0
  2 23  1  0  0  0  0
  3  4  1  0  0  0  0
  3 24  1  0  0  0  0
  3 25  1  0  0  0  0
  4  5  1  0  0  0  0
  4 26  1  0  0  0  0
  4 27  1  0  0  0  0
  5  6  1  0  0  0  0
  5 28  1  0  0  0  0
  5 29  1  0  0  0  0
  6  7  1  0  0  0  0
  6 30  1  0  0  0  0
  6 31  1  0  0  0  0
  7  8  1  0  0  0  0
  7 32  1  0  0  0  0
  8  9  1  0  0  0  0
  9 10  1  0  0  0  0
  9 33  1  0  0  0  0
  9 34  1  0  0  0  0
 10 11  1  0  0  0  0
 10 35  1  0  0  0  0
 10 36  1  0  0  0  0
 11 12  1  0  0  0  0
 11 37  1  0  0  0  0
 12 13  2  0  0  0  0
 12 14  1  0  0  0  0
 14 15  1  0  0  0  0
 15 19  1  0  0  0  0
 15 16  2  0  0  0  0
 16 17  1  0  0  0  0
 17 18  2  0  0  0  0
 18 19  1  0  0  0  0
 18 38  1  0  0  0  0
M  CHG  1  14  -1
M  END
> <s_m_source_file>
AV-unprocessed.smi

> <i_m_source_file_index>
1947

> <i_lp_mmshare_version>
43012

> <i_f3d_flags>
0

> <s_epik_input>
W0NIM11bQ0BASF0xW0NIMl1bQ0gyXVtDSDJdW0NIMl1bQ0BIXTFPW0NIMl1bQ0gyXVtOSF1DKD1PKVtOSF1jMm5uW2NIXXMy

> <s_epik_cmdline>
J2VwaWtfcHl0aG9uJywgJy1waCcsICc3LjAnLCAnLXRuJywgJzgnLCAnLW1hJywgJzIwMCcsICctbWV0YWxfYmluZGluZycsICctaW1hZScsICc8aW5maWxlLm1hZT4nLCAnLW9tYWUnLCAnPG91dGZpbGUubWFlPic=

> <r_lp_tautomer_probability>
1

> <r_epik_Ionization_Penalty>
3.35961

> <r_epik_Ionization_Penalty_Charging>
3.31977

> <r_epik_Ionization_Penalty_Neutral>
0.0398394

> <r_epik_State_Penalty>
3.31759

> <r_epik_Charging_Adjusted_Penalty>
6.63736

> <i_epik_Tot_Q>
-1

> <i_epik_Tot_abs_Q>
1

> <r_epik_Metal_State_Penalty>
0.484557

> <b_epik_Metal_Only>
1

> <s_lp_Force_Field>
OPLS_2005

> <r_lp_Energy>
8.55413

> <b_lp_Chiralities_Consistent>
1

> <s_lp_Variant>
AV-unprocessed.smi:1947-6

> <Gold.Version>
5.8.1

> <Gold.Id.Protein>
6NUR|6NUR_protein|mol2

> <Gold.PLP.Fitness>
43.7643

> <Gold.PLP.PLP>
-41.7010

> <Gold.PLP.part.hbond>
-1.0000

> <Gold.PLP.part.metal>
0.0000

> <Gold.PLP.part.buried>
-4.0510

> <Gold.PLP.part.nonpolar>
-38.2718

> <Gold.PLP.part.repulsive>
1.3801

> <Gold.PLP.ligand.clash>
0.0000

> <Gold.PLP.ligand.torsion>
1.8145

> <Gold.PLP.Chemscore.Hbond>
0.8320

> <Gold.PLP.Chemscore.CHOScore>
1.0000

> <Gold.PLP.Chemscore.Metal>
0.0000

> <Gold.Chemscore.Hbonds>
donor molecule, donor type, donor heavy atom, donor atom, acceptor molecule, acceptor atom, score
      P1  H  7989  7998       L1    13  0.85
      L1  C    18    38       P1 10171  1.00

> <Gold.PLP.Chemscore.Internal.Correction>
0.1963

> <Gold.Rescore>
     Score         DG    S(hbond)    S(metal)    S(lipo)     H(rot)  DE(clash)    DE(int)     intcor
     14.84     -17.06       0.87        0.00     115.69       1.90       0.33       1.89       ----

> <Gold.Chemscore.Fitness>
14.8439

> <Gold.Chemscore.DG>
-17.0574

> <Gold.Chemscore.ZeroCoef>
-5.4800

> <Gold.Chemscore.Hbond>
0.8687

> <Gold.Chemscore.Metal>
0.0000

> <Gold.Chemscore.Lipo>
115.6911

> <Gold.Chemscore.Internal_Hbond>
0.0000

> <Gold.Chemscore.DEClash>
0.3255

> <Gold.Chemscore.DEInternal>
1.8880

> <Gold.Chemscore.Rot>
1.8984

> <Gold.Chemscore.Internal.Correction>
   9.000000E+99

> <Gold.Chemscore.Hbonds>
donor molecule, donor type, donor heavy atom, donor atom, acceptor molecule, acceptor atom, score
      P1  H  7989  7998       L1    13  0.83

> <Gold.Chemscore.Hbond.Weighted>
-2.9013

> <Gold.Chemscore.Metal.Weighted>
-0.0000

> <Gold.Chemscore.Lipo.Weighted>
-13.5359

> <Gold.Chemscore.Internal_Hbond.Weighted>
0.0000

> <Gold.Chemscore.DEClash.Weighted>
0.3255

> <Gold.Chemscore.DEInternal.Weighted>
1.8880

> <Gold.Chemscore.Rot.Weighted>
4.8598

> <Gold.Chemscore.Internal.Correction.Weighted>
   9.000000E+99

> <Gold.Protein.RotatedTorsions>
[ 6907 6896 6895 6894 ] final -171.85 input  -60.11 | X-H torsion
[ 7974 7965 7964 7962 ] final  114.02 input  175.53 | X-H torsion
[ 8008 7997 7996 7995 ] final   43.68 input   59.86 | X-H torsion
[ 10167 10162 10161 10158 ] final -166.75 input  -65.29 | X-H torsion
[ 10718 10713 10712 10709 ] final   11.70 input   66.30 | X-H torsion
[ 10763 10752 10751 10750 ] final  133.88 input  -60.55 | X-H torsion
[ 11005 11000 10999 10996 ] final  -70.67 input  -57.11 | X-H torsion

> <Gold.Protein.ActiveResidues>
 VAL166  LYS551  ARG553  GLY616  TRP617  ASP618  TYR619  PRO620  LYS621  CYS622 
 ASP623  PHE694  ASN695  SER759  ASP760  ASP761  ALA762  ILE779  LEU786  VAL792 
 PHE793  MET794  SER795  GLU796  ALA797  LYS798  CYS799  TRP800  GLU811  SER814 

> <Gold.Protein.RotatedAtoms>
  151.5305  133.3450  159.2917 H   0  0  0  0  0  0  0  0  0  0  0  0  # atno 6907 bound_to 6896
  150.8596  134.7947  159.7084 H   0  0  0  0  0  0  0  0  0  0  0  0  # atno 6908 bound_to 6896
  152.4620  134.5172  159.9823 H   0  0  0  0  0  0  0  0  0  0  0  0  # atno 6909 bound_to 6896
  145.2096  139.2913  143.4275 H   0  0  0  0  0  0  0  0  0  0  0  0  # atno 7974 bound_to 7965
  155.3067  140.3388  155.4245 H   0  0  0  0  0  0  0  0  0  0  0  0  # atno 8008 bound_to 7997
  156.1975  140.1720  156.8006 H   0  0  0  0  0  0  0  0  0  0  0  0  # atno 8009 bound_to 7997
  154.5517  140.0704  156.8662 H   0  0  0  0  0  0  0  0  0  0  0  0  # atno 8010 bound_to 7997
  139.6094  144.0846  152.1826 H   0  0  0  0  0  0  0  0  0  0  0  0  # atno 10167 bound_to 10162
  156.9994  130.6073  149.5694 H   0  0  0  0  0  0  0  0  0  0  0  0  # atno 10718 bound_to 10713
  153.8143  135.3125  155.3404 H   0  0  0  0  0  0  0  0  0  0  0  0  # atno 10763 bound_to 10752
  154.8038  135.4710  154.0345 H   0  0  0  0  0  0  0  0  0  0  0  0  # atno 10764 bound_to 10752
  153.1734  135.6881  153.8666 H   0  0  0  0  0  0  0  0  0  0  0  0  # atno 10765 bound_to 10752
  141.1578  133.6796  156.6789 H   0  0  0  0  0  0  0  0  0  0  0  0  # atno 11005 bound_to 11000
  146.3400  140.2367  142.8594 LP  0  0  0  0  0  0  0  0  0  0  0  0  # atno 17320 bound_to 7965
  144.9869  140.8511  143.5363 LP  0  0  0  0  0  0  0  0  0  0  0  0  # atno 17321 bound_to 7965
  140.0461  144.5969  150.7373 LP  0  0  0  0  0  0  0  0  0  0  0  0  # atno 17342 bound_to 10162
  140.7308  143.2687  151.3958 LP  0  0  0  0  0  0  0  0  0  0  0  0  # atno 17343 bound_to 10162
  156.0177  130.5271  150.8183 LP  0  0  0  0  0  0  0  0  0  0  0  0  # atno 17370 bound_to 10713
  157.5401  131.0940  150.9838 LP  0  0  0  0  0  0  0  0  0  0  0  0  # atno 17371 bound_to 10713
  140.3118  134.8080  157.4182 LP  0  0  0  0  0  0  0  0  0  0  0  0  # atno 17394 bound_to 11000
  140.1172  134.5267  155.8214 LP  0  0  0  0  0  0  0  0  0  0  0  0  # atno 17395 bound_to 11000

$$$$
