AV-unprocessed.smi:1880|AV-procd|sdf|7638|dock8
  -GOLD-   22720 9363D 1   1.00000     0.00000
 Structure written by MMmdl.
 37 39  0  0  0  0  0  0  0  0  2 V2000
  151.3754  136.6518  157.3692 O   0  0  0  0  0  0  0  0  0  0  0  0
  150.7681  137.9270  157.4416 C   0  0  1  0  0  0  0  0  0  0  0  0
  150.2474  138.1374  158.8715 C   0  0  0  0  0  0  0  0  0  0  0  0
  149.9656  136.8709  159.4421 O   0  0  0  0  0  0  0  0  0  0  0  0
  148.6247  136.4568  159.2339 C   0  0  0  0  0  0  0  0  0  0  0  0
  148.0448  136.1050  160.5666 C   0  0  0  0  0  0  0  0  0  0  0  0
  147.6534  134.9209  161.1288 C   0  0  0  0  0  0  0  0  0  0  0  0
  147.1911  135.2288  162.4381 C   0  0  0  0  0  0  0  0  0  0  0  0
  147.3420  136.5784  162.5828 C   0  0  0  0  0  0  0  0  0  0  0  0
  147.8644  137.1276  161.4527 O   0  0  0  0  0  0  0  0  0  0  0  0
  151.8050  138.9945  157.0399 C   0  0  0  0  0  0  0  0  0  0  0  0
  151.2739  140.3617  157.1237 N   0  0  0  0  0  0  0  0  0  0  0  0
  150.3910  141.0079  156.3146 C   0  0  0  0  0  0  0  0  0  0  0  0
  150.2100  142.2593  156.8211 N   0  3  0  0  0  0  0  0  0  0  0  0
  150.9886  142.4143  157.9706 C   0  0  0  0  0  0  0  0  0  0  0  0
  151.1410  143.4968  158.8309 C   0  0  0  0  0  0  0  0  0  0  0  0
  152.0190  143.3232  159.9211 C   0  0  0  0  0  0  0  0  0  0  0  0
  152.2040  144.3456  160.7892 F   0  0  0  0  0  0  0  0  0  0  0  0
  152.7063  142.1075  160.1239 C   0  0  0  0  0  0  0  0  0  0  0  0
  153.5394  141.9828  161.1839 F   0  0  0  0  0  0  0  0  0  0  0  0
  152.5436  141.0164  159.2447 C   0  0  0  0  0  0  0  0  0  0  0  0
  151.6747  141.1982  158.1702 C   0  0  0  0  0  0  0  0  0  0  0  0
  150.8274  136.0350  157.8311 H   0  0  0  0  0  0  0  0  0  0  0  0
  149.9321  137.9588  156.7418 H   0  0  0  0  0  0  0  0  0  0  0  0
  150.9633  138.6992  159.4745 H   0  0  0  0  0  0  0  0  0  0  0  0
  149.3213  138.7142  158.8464 H   0  0  0  0  0  0  0  0  0  0  0  0
  148.0460  137.2579  158.7719 H   0  0  0  0  0  0  0  0  0  0  0  0
  148.5898  135.5907  158.5720 H   0  0  0  0  0  0  0  0  0  0  0  0
  147.6927  133.9514  160.6542 H   0  0  0  0  0  0  0  0  0  0  0  0
  146.8007  134.5491  163.1810 H   0  0  0  0  0  0  0  0  0  0  0  0
  147.1406  137.2749  163.3833 H   0  0  0  0  0  0  0  0  0  0  0  0
  152.6960  138.9319  157.6659 H   0  0  0  0  0  0  0  0  0  0  0  0
  152.1365  138.8344  156.0128 H   0  0  0  0  0  0  0  0  0  0  0  0
  149.9154  140.5988  155.4347 H   0  0  0  0  0  0  0  0  0  0  0  0
  150.6164  144.4286  158.6802 H   0  0  0  0  0  0  0  0  0  0  0  0
  153.0728  140.0896  159.4092 H   0  0  0  0  0  0  0  0  0  0  0  0
  149.5968  142.9523  156.4112 H   0  0  0  0  0  0  0  0  0  0  0  0
  1  2  1  0  0  0  0
  1 23  1  0  0  0  0
  2  3  1  0  0  0  0
  2 11  1  0  0  0  0
  2 24  1  0  0  0  0
  3  4  1  0  0  0  0
  3 25  1  0  0  0  0
  3 26  1  0  0  0  0
  4  5  1  0  0  0  0
  5  6  1  0  0  0  0
  5 27  1  0  0  0  0
  5 28  1  0  0  0  0
  6 10  1  0  0  0  0
  6  7  2  0  0  0  0
  7  8  1  0  0  0  0
  7 29  1  0  0  0  0
  8  9  2  0  0  0  0
  8 30  1  0  0  0  0
  9 10  1  0  0  0  0
  9 31  1  0  0  0  0
 11 12  1  0  0  0  0
 11 32  1  0  0  0  0
 11 33  1  0  0  0  0
 12 22  1  0  0  0  0
 12 13  1  0  0  0  0
 13 14  2  0  0  0  0
 13 34  1  0  0  0  0
 14 15  1  0  0  0  0
 14 37  1  0  0  0  0
 15 22  2  0  0  0  0
 15 16  1  0  0  0  0
 16 17  2  0  0  0  0
 16 35  1  0  0  0  0
 17 18  1  0  0  0  0
 17 19  1  0  0  0  0
 19 20  1  0  0  0  0
 19 21  2  0  0  0  0
 21 22  1  0  0  0  0
 21 36  1  0  0  0  0
M  CHG  1  14   1
M  END
> <s_m_source_file>
AV-unprocessed.smi

> <i_m_source_file_index>
1880

> <i_lp_mmshare_version>
43012

> <i_f3d_flags>
0

> <s_epik_input>
W2NIXTFjKEYpYyhGKVtjSF1jKGMxMiluKFtjSF1uMilbQ0gyXVtDQEhdKFtPSF0pW0NIMl1PW0NIMl1jM1tjSF1bY0hdW2NIXW8z

> <s_epik_cmdline>
J2VwaWtfcHl0aG9uJywgJy1waCcsICc3LjAnLCAnLXRuJywgJzgnLCAnLW1hJywgJzIwMCcsICctbWV0YWxfYmluZGluZycsICctaW1hZScsICc8aW5maWxlLm1hZT4nLCAnLW9tYWUnLCAnPG91dGZpbGUubWFlPic=

> <r_epik_Ionization_Penalty>
2.17656

> <r_epik_Ionization_Penalty_Charging>
2.17656

> <r_epik_Ionization_Penalty_Neutral>
9.34185e-07

> <r_epik_State_Penalty>
2.31826

> <r_epik_Charging_Adjusted_Penalty>
4.49482

> <i_epik_Tot_Q>
1

> <i_epik_Tot_abs_Q>
1

> <r_epik_Metal_State_Penalty>
6.39906

> <b_epik_Metal_Only>
0

> <s_lp_Force_Field>
OPLS_2005

> <r_lp_Energy>
11.8532

> <b_lp_Chiralities_Consistent>
1

> <s_lp_Variant>
AV-unprocessed.smi:1880-4

> <Gold.Version>
5.8.1

> <Gold.Id.Protein>
6NUR|6NUR_protein|mol2

> <Gold.PLP.Fitness>
59.0322

> <Gold.PLP.PLP>
-48.4543

> <Gold.PLP.part.hbond>
-3.5114

> <Gold.PLP.part.metal>
0.0000

> <Gold.PLP.part.buried>
-6.3935

> <Gold.PLP.part.nonpolar>
-39.4346

> <Gold.PLP.part.repulsive>
0.0460

> <Gold.PLP.ligand.clash>
0.0000

> <Gold.PLP.ligand.torsion>
1.2206

> <Gold.PLP.Chemscore.Hbond>
4.3200

> <Gold.PLP.Chemscore.CHOScore>
0.0000

> <Gold.PLP.Chemscore.Metal>
0.0000

> <Gold.Chemscore.Hbonds>
donor molecule, donor type, donor heavy atom, donor atom, acceptor molecule, acceptor atom, score
      L1  H    14    37       P1  8028  1.92
      P1  H  6896  6909       L1     4  0.68
      P1  H  6931  6943       L1    10  1.00
      P1  H  6934  6947       L1    10  0.64

> <Gold.PLP.Chemscore.Internal.Correction>
0.0591

> <Gold.Rescore>
     Score         DG    S(hbond)    S(metal)    S(lipo)     H(rot)  DE(clash)    DE(int)     intcor
     17.56     -18.68       2.69        0.00     100.26       2.94       0.06       1.06       ----

> <Gold.Chemscore.Fitness>
17.5635

> <Gold.Chemscore.DG>
-18.6844

> <Gold.Chemscore.ZeroCoef>
-5.4800

> <Gold.Chemscore.Hbond>
2.6924

> <Gold.Chemscore.Metal>
0.0000

> <Gold.Chemscore.Lipo>
100.2590

> <Gold.Chemscore.Internal_Hbond>
0.0000

> <Gold.Chemscore.DEClash>
0.0580

> <Gold.Chemscore.DEInternal>
1.0629

> <Gold.Chemscore.Rot>
2.9369

> <Gold.Chemscore.Internal.Correction>
   9.000000E+99

> <Gold.Chemscore.Hbonds>
donor molecule, donor type, donor heavy atom, donor atom, acceptor molecule, acceptor atom, score
      L1  H    14    37       P1  8028  0.91
      P1  H  6896  6909       L1     4  0.21
      P1  H  6931  6943       L1    10  0.64
      P1  H  6934  6947       L1    10  0.59

> <Gold.Chemscore.Hbond.Weighted>
-8.9926

> <Gold.Chemscore.Metal.Weighted>
-0.0000

> <Gold.Chemscore.Lipo.Weighted>
-11.7303

> <Gold.Chemscore.Internal_Hbond.Weighted>
0.0000

> <Gold.Chemscore.DEClash.Weighted>
0.0580

> <Gold.Chemscore.DEInternal.Weighted>
1.0629

> <Gold.Chemscore.Rot.Weighted>
7.5185

> <Gold.Chemscore.Internal.Correction.Weighted>
   9.000000E+99

> <Gold.Protein.RotatedTorsions>
[ 6907 6896 6895 6894 ] final   79.82 input  -60.11 | X-H torsion
[ 7974 7965 7964 7962 ] final   91.80 input  175.53 | X-H torsion
[ 8008 7997 7996 7995 ] final  139.80 input   59.86 | X-H torsion
[ 10167 10162 10161 10158 ] final  101.84 input  -65.29 | X-H torsion
[ 10718 10713 10712 10709 ] final -152.30 input   66.30 | X-H torsion
[ 10763 10752 10751 10750 ] final  -81.46 input  -60.55 | X-H torsion
[ 11005 11000 10999 10996 ] final -120.82 input  -57.11 | X-H torsion

> <Gold.Protein.ActiveResidues>
 VAL166  LYS551  ARG553  GLY616  TRP617  ASP618  TYR619  PRO620  LYS621  CYS622 
 ASP623  PHE694  ASN695  SER759  ASP760  ASP761  ALA762  ILE779  LEU786  VAL792 
 PHE793  MET794  SER795  GLU796  ALA797  LYS798  CYS799  TRP800  GLU811  SER814 

> <Gold.Protein.RotatedAtoms>
  152.5212  134.3453  159.9231 H   0  0  0  0  0  0  0  0  0  0  0  0  # atno 6907 bound_to 6896
  151.3403  133.3959  159.2678 H   0  0  0  0  0  0  0  0  0  0  0  0  # atno 6908 bound_to 6896
  150.9809  134.9182  159.7901 H   0  0  0  0  0  0  0  0  0  0  0  0  # atno 6909 bound_to 6896
  145.5008  139.2276  143.2778 H   0  0  0  0  0  0  0  0  0  0  0  0  # atno 7974 bound_to 7965
  156.2986  140.2358  156.4297 H   0  0  0  0  0  0  0  0  0  0  0  0  # atno 8008 bound_to 7997
  154.8281  140.0434  157.1478 H   0  0  0  0  0  0  0  0  0  0  0  0  # atno 8009 bound_to 7997
  154.9239  140.3007  155.5206 H   0  0  0  0  0  0  0  0  0  0  0  0  # atno 8010 bound_to 7997
  139.7402  144.7013  151.0587 H   0  0  0  0  0  0  0  0  0  0  0  0  # atno 10167 bound_to 10162
  156.4707  130.8257  151.2486 H   0  0  0  0  0  0  0  0  0  0  0  0  # atno 10718 bound_to 10713
  154.5638  135.5625  153.7032 H   0  0  0  0  0  0  0  0  0  0  0  0  # atno 10763 bound_to 10752
  153.0026  135.6280  154.2208 H   0  0  0  0  0  0  0  0  0  0  0  0  # atno 10764 bound_to 10752
  154.2146  135.2872  155.2926 H   0  0  0  0  0  0  0  0  0  0  0  0  # atno 10765 bound_to 10752
  141.0115  134.0257  157.3407 H   0  0  0  0  0  0  0  0  0  0  0  0  # atno 11005 bound_to 11000
  146.2227  140.5809  142.9010 LP  0  0  0  0  0  0  0  0  0  0  0  0  # atno 17320 bound_to 7965
  144.7781  140.5782  143.6624 LP  0  0  0  0  0  0  0  0  0  0  0  0  # atno 17321 bound_to 7965
  140.7785  143.4933  150.9864 LP  0  0  0  0  0  0  0  0  0  0  0  0  # atno 17342 bound_to 10162
  139.8622  143.7300  152.3172 LP  0  0  0  0  0  0  0  0  0  0  0  0  # atno 17343 bound_to 10162
  157.7491  131.0077  150.3201 LP  0  0  0  0  0  0  0  0  0  0  0  0  # atno 17370 bound_to 10713
  156.3622  130.3849  149.7242 LP  0  0  0  0  0  0  0  0  0  0  0  0  # atno 17371 bound_to 10713
  139.9093  135.0187  156.7622 LP  0  0  0  0  0  0  0  0  0  0  0  0  # atno 17394 bound_to 11000
  140.6725  133.9547  155.7864 LP  0  0  0  0  0  0  0  0  0  0  0  0  # atno 17395 bound_to 11000

$$$$
