AV-unprocessed.smi:1240|AV-procd|sdf|5212|dock10
  -GOLD-   22720 4303D 1   1.00000     0.00000
 Structure written by MMmdl.
 48 50  0  0  0  0  0  0  0  0  4 V2000
  150.3593  141.7959  156.6007 O   0  0  0  0  0  0  0  0  0  0  0  0
  150.9096  140.7900  156.1378 C   0  0  0  0  0  0  0  0  0  0  0  0
  152.1035  140.2544  156.5063 N   0  5  0  0  0  0  0  0  0  0  0  0
  152.2594  139.1172  157.4129 C   0  0  0  0  0  0  0  0  0  0  0  0
  153.2959  139.4422  158.5464 C   0  0  1  0  0  0  0  0  0  0  0  0
  152.8456  140.5584  159.5467 C   0  0  2  0  0  0  0  0  0  0  0  0
  152.7392  141.9775  158.9962 C   0  0  0  0  0  0  0  0  0  0  0  0
  152.7844  142.8346  160.2568 C   0  0  0  0  0  0  0  0  0  0  0  0
  153.5556  142.0994  161.1993 O   0  0  0  0  0  0  0  0  0  0  0  0
  153.8502  140.8091  160.6791 C   0  0  0  0  0  0  0  0  0  0  0  0
  153.7690  138.2377  159.3169 N   0  3  0  0  0  0  0  0  0  0  0  0
  152.9419  137.7681  160.4645 C   0  0  0  0  0  0  0  0  0  0  0  0
  153.7323  136.7387  161.2881 C   0  0  0  0  0  0  0  0  0  0  0  0
  154.1313  135.6590  160.4512 O   0  0  0  0  0  0  0  0  0  0  0  0
  154.9887  136.0837  159.3978 C   0  0  0  0  0  0  0  0  0  0  0  0
  154.2508  137.0911  158.5011 C   0  0  0  0  0  0  0  0  0  0  0  0
  150.3103  140.0723  155.1709 N   0  0  0  0  0  0  0  0  0  0  0  0
  149.0604  140.3001  154.5354 C   0  0  0  0  0  0  0  0  0  0  0  0
  148.4131  139.1928  153.9449 C   0  0  0  0  0  0  0  0  0  0  0  0
  147.1788  139.3781  153.2898 C   0  0  0  0  0  0  0  0  0  0  0  0
  146.6332  140.6114  153.2197 N   0  3  0  0  0  0  0  0  0  0  0  0
  147.2243  141.7028  153.7520 C   0  0  0  0  0  0  0  0  0  0  0  0
  148.4594  141.5790  154.4200 C   0  0  0  0  0  0  0  0  0  0  0  0
  151.3130  138.8218  157.8666 H   0  0  0  0  0  0  0  0  0  0  0  0
  152.6032  138.2383  156.8671 H   0  0  0  0  0  0  0  0  0  0  0  0
  154.1936  139.8231  158.0562 H   0  0  0  0  0  0  0  0  0  0  0  0
  151.8861  140.3012  160.0002 H   0  0  0  0  0  0  0  0  0  0  0  0
  153.5967  142.2041  158.3607 H   0  0  0  0  0  0  0  0  0  0  0  0
  151.8319  142.1520  158.4168 H   0  0  0  0  0  0  0  0  0  0  0  0
  153.2127  143.8201  160.0726 H   0  0  0  0  0  0  0  0  0  0  0  0
  151.7812  142.9709  160.6620 H   0  0  0  0  0  0  0  0  0  0  0  0
  153.7963  140.0542  161.4640 H   0  0  0  0  0  0  0  0  0  0  0  0
  154.8706  140.8200  160.2932 H   0  0  0  0  0  0  0  0  0  0  0  0
  152.6620  138.6038  161.1050 H   0  0  0  0  0  0  0  0  0  0  0  0
  152.0175  137.3095  160.1108 H   0  0  0  0  0  0  0  0  0  0  0  0
  154.6068  137.1991  161.7506 H   0  0  0  0  0  0  0  0  0  0  0  0
  153.1130  136.3491  162.0960 H   0  0  0  0  0  0  0  0  0  0  0  0
  155.8994  136.5226  159.8087 H   0  0  0  0  0  0  0  0  0  0  0  0
  155.2902  135.2132  158.8148 H   0  0  0  0  0  0  0  0  0  0  0  0
  153.4147  136.5938  158.0085 H   0  0  0  0  0  0  0  0  0  0  0  0
  154.9233  137.4425  157.7178 H   0  0  0  0  0  0  0  0  0  0  0  0
  150.7773  139.2132  154.9206 H   0  0  0  0  0  0  0  0  0  0  0  0
  148.8530  138.2074  154.0002 H   0  0  0  0  0  0  0  0  0  0  0  0
  146.6170  138.5827  152.8224 H   0  0  0  0  0  0  0  0  0  0  0  0
  146.6988  142.6378  153.6240 H   0  0  0  0  0  0  0  0  0  0  0  0
  148.9296  142.4640  154.8217 H   0  0  0  0  0  0  0  0  0  0  0  0
  154.6128  138.5786  159.7538 H   0  0  0  0  0  0  0  0  0  0  0  0
  145.7400  140.7245  152.7399 H   0  0  0  0  0  0  0  0  0  0  0  0
  1  2  2  0  0  0  0
  2  3  1  0  0  0  0
  2 17  1  0  0  0  0
  3  4  1  0  0  0  0
  4  5  1  0  0  0  0
  4 24  1  0  0  0  0
  4 25  1  0  0  0  0
  5  6  1  0  0  0  0
  5 11  1  0  0  0  0
  5 26  1  0  0  0  0
  6 10  1  0  0  0  0
  6  7  1  0  0  0  0
  6 27  1  0  0  0  0
  7  8  1  0  0  0  0
  7 28  1  0  0  0  0
  7 29  1  0  0  0  0
  8  9  1  0  0  0  0
  8 30  1  0  0  0  0
  8 31  1  0  0  0  0
  9 10  1  0  0  0  0
 10 32  1  0  0  0  0
 10 33  1  0  0  0  0
 11 16  1  0  0  0  0
 11 12  1  0  0  0  0
 11 47  1  0  0  0  0
 12 13  1  0  0  0  0
 12 34  1  0  0  0  0
 12 35  1  0  0  0  0
 13 14  1  0  0  0  0
 13 36  1  0  0  0  0
 13 37  1  0  0  0  0
 14 15  1  0  0  0  0
 15 16  1  0  0  0  0
 15 38  1  0  0  0  0
 15 39  1  0  0  0  0
 16 40  1  0  0  0  0
 16 41  1  0  0  0  0
 17 18  1  0  0  0  0
 17 42  1  0  0  0  0
 18 23  1  0  0  0  0
 18 19  2  0  0  0  0
 19 20  1  0  0  0  0
 19 43  1  0  0  0  0
 20 21  2  0  0  0  0
 20 44  1  0  0  0  0
 21 22  1  0  0  0  0
 21 48  1  0  0  0  0
 22 23  2  0  0  0  0
 22 45  1  0  0  0  0
 23 46  1  0  0  0  0
M  CHG  1   3  -1
M  CHG  1  11   1
M  CHG  1  21   1
M  END
> <s_m_source_file>
AV-unprocessed.smi

> <i_m_source_file_index>
1240

> <i_lp_mmshare_version>
43012

> <i_f3d_flags>
0

> <s_epik_input>
W2NIXTFbY0hdbltjSF1bY0hdYzFbTkhdQyg9TylbTkhdW0NIMl1bQ0BIXShbQ0BASF0yW0NIMl1bQ0gyXU9bQ0gyXTIpTjNbQ0gyXVtDSDJdT1tDSDJdW0NIMl0z

> <s_epik_cmdline>
J2VwaWtfcHl0aG9uJywgJy1waCcsICc3LjAnLCAnLXRuJywgJzgnLCAnLW1hJywgJzIwMCcsICctbWV0YWxfYmluZGluZycsICctaW1hZScsICc8aW5maWxlLm1hZT4nLCAnLW9tYWUnLCAnPG91dGZpbGUubWFlPic=

> <r_epik_Ionization_Penalty>
8.41087

> <r_epik_Ionization_Penalty_Charging>
8.41087

> <r_epik_Ionization_Penalty_Neutral>
3.12936e-06

> <r_epik_State_Penalty>
8.81894

> <r_epik_Charging_Adjusted_Penalty>
17.2298

> <i_epik_Tot_Q>
1

> <i_epik_Tot_abs_Q>
3

> <r_epik_Metal_State_Penalty>
4.82983

> <b_epik_Metal_Only>
1

> <s_lp_Force_Field>
OPLS_2005

> <r_lp_Energy>
48.6891

> <b_lp_Chiralities_Consistent>
1

> <s_lp_Variant>
AV-unprocessed.smi:1240-18

> <Gold.Version>
5.8.1

> <Gold.Id.Protein>
6NUR|6NUR_protein|mol2

> <Gold.PLP.Fitness>
44.4662

> <Gold.PLP.PLP>
-37.8038

> <Gold.PLP.part.hbond>
-2.4669

> <Gold.PLP.part.metal>
0.0000

> <Gold.PLP.part.buried>
-4.9062

> <Gold.PLP.part.nonpolar>
-31.2413

> <Gold.PLP.part.repulsive>
0.2983

> <Gold.PLP.ligand.clash>
0.0000

> <Gold.PLP.ligand.torsion>
1.3173

> <Gold.PLP.Chemscore.Hbond>
2.9913

> <Gold.PLP.Chemscore.CHOScore>
0.0000

> <Gold.PLP.Chemscore.Metal>
0.0000

> <Gold.Chemscore.Hbonds>
donor molecule, donor type, donor heavy atom, donor atom, acceptor molecule, acceptor atom, score
      L1  H    21    48       P1 10175  1.76
      P1  H  6896  6908       L1    14  1.00

> <Gold.PLP.Chemscore.Internal.Correction>
0.3232

> <Gold.Rescore>
     Score         DG    S(hbond)    S(metal)    S(lipo)     H(rot)  DE(clash)    DE(int)     intcor
     15.71     -18.38       1.64        0.00     100.64       1.70       0.06       2.62       ----

> <Gold.Chemscore.Fitness>
15.7067

> <Gold.Chemscore.DG>
-18.3844

> <Gold.Chemscore.ZeroCoef>
-5.4800

> <Gold.Chemscore.Hbond>
1.6427

> <Gold.Chemscore.Metal>
0.0000

> <Gold.Chemscore.Lipo>
100.6439

> <Gold.Chemscore.Internal_Hbond>
0.0000

> <Gold.Chemscore.DEClash>
0.0593

> <Gold.Chemscore.DEInternal>
2.6185

> <Gold.Chemscore.Rot>
1.7021

> <Gold.Chemscore.Internal.Correction>
   9.000000E+99

> <Gold.Chemscore.Hbonds>
donor molecule, donor type, donor heavy atom, donor atom, acceptor molecule, acceptor atom, score
      L1  H    21    48       P1 10175  0.38
      P1  H  6896  6908       L1    14  0.37

> <Gold.Chemscore.Hbond.Weighted>
-5.4866

> <Gold.Chemscore.Metal.Weighted>
-0.0000

> <Gold.Chemscore.Lipo.Weighted>
-11.7753

> <Gold.Chemscore.Internal_Hbond.Weighted>
0.0000

> <Gold.Chemscore.DEClash.Weighted>
0.0593

> <Gold.Chemscore.DEInternal.Weighted>
2.6185

> <Gold.Chemscore.Rot.Weighted>
4.3575

> <Gold.Chemscore.Internal.Correction.Weighted>
   9.000000E+99

> <Gold.Protein.RotatedTorsions>
[ 6907 6896 6895 6894 ] final  -66.56 input  -60.11 | X-H torsion
[ 7974 7965 7964 7962 ] final  126.87 input  175.53 | X-H torsion
[ 8008 7997 7996 7995 ] final   58.28 input   59.86 | X-H torsion
[ 10167 10162 10161 10158 ] final  178.47 input  -65.29 | X-H torsion
[ 10718 10713 10712 10709 ] final -144.05 input   66.30 | X-H torsion
[ 10763 10752 10751 10750 ] final  -74.01 input  -60.55 | X-H torsion
[ 11005 11000 10999 10996 ] final -166.17 input  -57.11 | X-H torsion

> <Gold.Protein.ActiveResidues>
 VAL166  LYS551  ARG553  GLY616  TRP617  ASP618  TYR619  PRO620  LYS621  CYS622 
 ASP623  PHE694  ASN695  SER759  ASP760  ASP761  ALA762  ILE779  LEU786  VAL792 
 PHE793  MET794  SER795  GLU796  ALA797  LYS798  CYS799  TRP800  GLU811  SER814 

> <Gold.Protein.RotatedAtoms>
  150.7458  134.6004  159.6033 H   0  0  0  0  0  0  0  0  0  0  0  0  # atno 6907 bound_to 6896
  152.3367  134.7186  160.0284 H   0  0  0  0  0  0  0  0  0  0  0  0  # atno 6908 bound_to 6896
  151.7652  133.3301  159.3465 H   0  0  0  0  0  0  0  0  0  0  0  0  # atno 6909 bound_to 6896
  145.0568  139.3837  143.5026 H   0  0  0  0  0  0  0  0  0  0  0  0  # atno 7974 bound_to 7965
  155.5475  140.3485  155.4461 H   0  0  0  0  0  0  0  0  0  0  0  0  # atno 8008 bound_to 7997
  156.0607  140.1339  156.9970 H   0  0  0  0  0  0  0  0  0  0  0  0  # atno 8009 bound_to 7997
  154.4478  140.0986  156.6498 H   0  0  0  0  0  0  0  0  0  0  0  0  # atno 8010 bound_to 7997
  139.5295  144.2676  152.0654 H   0  0  0  0  0  0  0  0  0  0  0  0  # atno 10167 bound_to 10162
  156.3654  130.7760  151.1933 H   0  0  0  0  0  0  0  0  0  0  0  0  # atno 10718 bound_to 10713
  154.4673  135.5878  153.6297 H   0  0  0  0  0  0  0  0  0  0  0  0  # atno 10763 bound_to 10752
  152.9830  135.6058  154.3411 H   0  0  0  0  0  0  0  0  0  0  0  0  # atno 10764 bound_to 10752
  154.3289  135.2843  155.2461 H   0  0  0  0  0  0  0  0  0  0  0  0  # atno 10765 bound_to 10752
  140.5675  134.5272  157.5155 H   0  0  0  0  0  0  0  0  0  0  0  0  # atno 11005 bound_to 11000
  146.3522  140.0246  142.8655 LP  0  0  0  0  0  0  0  0  0  0  0  0  # atno 17320 bound_to 7965
  145.1458  140.9596  143.4462 LP  0  0  0  0  0  0  0  0  0  0  0  0  # atno 17321 bound_to 7965
  140.2138  144.4536  150.6373 LP  0  0  0  0  0  0  0  0  0  0  0  0  # atno 17342 bound_to 10162
  140.6463  143.2214  151.6178 LP  0  0  0  0  0  0  0  0  0  0  0  0  # atno 17343 bound_to 10162
  157.7478  131.0388  150.4519 LP  0  0  0  0  0  0  0  0  0  0  0  0  # atno 17370 bound_to 10713
  156.4737  130.4058  149.6503 LP  0  0  0  0  0  0  0  0  0  0  0  0  # atno 17371 bound_to 10713
  139.9378  134.7843  156.0757 LP  0  0  0  0  0  0  0  0  0  0  0  0  # atno 17394 bound_to 11000
  141.1077  133.6654  156.2903 LP  0  0  0  0  0  0  0  0  0  0  0  0  # atno 17395 bound_to 11000

$$$$
