AV-unprocessed.smi:2609|AV-procd|sdf|10207|dock4
  -GOLD-   2272014213D 1   1.00000     0.00000
 Structure written by MMmdl.
 24 25  0  0  0  0  0  0  0  0  2 V2000
  152.7508  137.7531  154.6809 O   0  0  0  0  0  0  0  0  0  0  0  0
  152.0755  138.6901  155.1016 C   0  0  0  0  0  0  0  0  0  0  0  0
  150.7872  138.9872  154.4764 C   0  0  0  0  0  0  0  0  0  0  0  0
  150.0678  140.0246  154.9620 C   0  0  0  0  0  0  0  0  0  0  0  0
  150.5202  140.8089  156.0326 N   0  0  0  0  0  0  0  0  0  0  0  0
  151.6548  140.5270  156.5636 C   0  0  0  0  0  0  0  0  0  0  0  0
  152.1678  141.3674  157.7304 C   0  0  0  0  0  0  0  0  0  0  0  0
  152.3982  140.5284  159.0006 C   0  0  0  0  0  0  0  0  0  0  0  0
  152.8735  141.4251  160.1554 C   0  0  0  0  0  0  0  0  0  0  0  0
  151.9286  142.4654  160.3872 O   0  0  0  0  0  0  0  0  0  0  0  0
  151.7690  143.3318  159.2679 C   0  0  0  0  0  0  0  0  0  0  0  0
  151.2311  142.5429  158.0628 C   0  0  0  0  0  0  0  0  0  0  0  0
  152.4643  139.4880  156.1401 N   0  5  0  0  0  0  0  0  0  0  0  0
  150.4220  138.3943  153.6508 H   0  0  0  0  0  0  0  0  0  0  0  0
  149.1096  140.2952  154.5445 H   0  0  0  0  0  0  0  0  0  0  0  0
  153.1320  141.7929  157.4449 H   0  0  0  0  0  0  0  0  0  0  0  0
  151.4762  140.0259  159.2975 H   0  0  0  0  0  0  0  0  0  0  0  0
  153.1343  139.7464  158.8104 H   0  0  0  0  0  0  0  0  0  0  0  0
  152.9796  140.8362  161.0666 H   0  0  0  0  0  0  0  0  0  0  0  0
  153.8537  141.8525  159.9382 H   0  0  0  0  0  0  0  0  0  0  0  0
  151.0731  144.1273  159.5346 H   0  0  0  0  0  0  0  0  0  0  0  0
  152.7198  143.8098  159.0271 H   0  0  0  0  0  0  0  0  0  0  0  0
  151.1313  143.2040  157.2009 H   0  0  0  0  0  0  0  0  0  0  0  0
  150.2296  142.1779  158.2958 H   0  0  0  0  0  0  0  0  0  0  0  0
  1  2  2  0  0  0  0
  2  3  1  0  0  0  0
  2 13  1  0  0  0  0
  3 14  1  0  0  0  0
  3  4  2  0  0  0  0
  4 15  1  0  0  0  0
  4  5  1  0  0  0  0
  5  6  2  0  0  0  0
  6  7  1  0  0  0  0
  6 13  1  0  0  0  0
  7 12  1  0  0  0  0
  7  8  1  0  0  0  0
  7 16  1  0  0  0  0
  8  9  1  0  0  0  0
  8 17  1  0  0  0  0
  8 18  1  0  0  0  0
  9 10  1  0  0  0  0
  9 19  1  0  0  0  0
  9 20  1  0  0  0  0
 10 11  1  0  0  0  0
 11 12  1  0  0  0  0
 11 21  1  0  0  0  0
 11 22  1  0  0  0  0
 12 23  1  0  0  0  0
 12 24  1  0  0  0  0
M  CHG  1  13  -1
M  END
> <s_m_source_file>
AV-unprocessed.smi

> <i_m_source_file_index>
2609

> <i_lp_mmshare_version>
43012

> <i_f3d_flags>
0

> <s_epik_input>
Tz1jMVtjSF1bY0hdW25IXWMobjEpW0NIXTJbQ0gyXVtDSDJdT1tDSDJdW0NIMl0y

> <s_epik_cmdline>
J2VwaWtfcHl0aG9uJywgJy1waCcsICc3LjAnLCAnLXRuJywgJzgnLCAnLW1hJywgJzIwMCcsICctbWV0YWxfYmluZGluZycsICctaW1hZScsICc8aW5maWxlLm1hZT4nLCAnLW9tYWUnLCAnPG91dGZpbGUubWFlPic=

> <r_lp_tautomer_probability>
0.839158

> <r_epik_Ionization_Penalty>
6.39496

> <r_epik_Ionization_Penalty_Charging>
1.06807e-07

> <r_epik_Ionization_Penalty_Neutral>
6.39496

> <r_epik_State_Penalty>
4.27873

> <r_epik_Charging_Adjusted_Penalty>
4.27873

> <i_epik_Tot_Q>
-1

> <i_epik_Tot_abs_Q>
1

> <r_epik_Metal_State_Penalty>
0.734171

> <b_epik_Metal_Only>
1

> <s_lp_Force_Field>
OPLS_2005

> <r_lp_Energy>
16.3076

> <b_lp_Chiralities_Consistent>
1

> <s_lp_Variant>
AV-unprocessed.smi:2609-3

> <Gold.Version>
5.8.1

> <Gold.Id.Protein>
6NUR|6NUR_protein|mol2

> <Gold.PLP.Fitness>
33.4776

> <Gold.PLP.PLP>
-26.2879

> <Gold.PLP.part.hbond>
-2.4828

> <Gold.PLP.part.metal>
0.0000

> <Gold.PLP.part.buried>
-4.4270

> <Gold.PLP.part.nonpolar>
-18.6509

> <Gold.PLP.part.repulsive>
0.1202

> <Gold.PLP.ligand.clash>
0.0000

> <Gold.PLP.ligand.torsion>
0.0115

> <Gold.PLP.Chemscore.Hbond>
2.3996

> <Gold.PLP.Chemscore.CHOScore>
0.0000

> <Gold.PLP.Chemscore.Metal>
0.0000

> <Gold.Chemscore.Hbonds>
donor molecule, donor type, donor heavy atom, donor atom, acceptor molecule, acceptor atom, score
      P1  H  7997  8008       L1    13  2.00
      P1  H 10752 10765       L1     1  0.36

> <Gold.PLP.Chemscore.Internal.Correction>
0.0139

> <Gold.Rescore>
     Score         DG    S(hbond)    S(metal)    S(lipo)     H(rot)  DE(clash)    DE(int)     intcor
     13.14     -13.19       1.03        0.00      58.32       1.00       0.01       0.04       ----

> <Gold.Chemscore.Fitness>
13.1371

> <Gold.Chemscore.DG>
-13.1924

> <Gold.Chemscore.ZeroCoef>
-5.4800

> <Gold.Chemscore.Hbond>
1.0326

> <Gold.Chemscore.Metal>
0.0000

> <Gold.Chemscore.Lipo>
58.3206

> <Gold.Chemscore.Internal_Hbond>
0.0000

> <Gold.Chemscore.DEClash>
0.0149

> <Gold.Chemscore.DEInternal>
0.0405

> <Gold.Chemscore.Rot>
1.0000

> <Gold.Chemscore.Internal.Correction>
   9.000000E+99

> <Gold.Chemscore.Hbonds>
donor molecule, donor type, donor heavy atom, donor atom, acceptor molecule, acceptor atom, score
      P1  H  7997  8008       L1    13  0.58
      P1  H 10752 10765       L1     1  0.35

> <Gold.Chemscore.Hbond.Weighted>
-3.4489

> <Gold.Chemscore.Metal.Weighted>
-0.0000

> <Gold.Chemscore.Lipo.Weighted>
-6.8235

> <Gold.Chemscore.Internal_Hbond.Weighted>
0.0000

> <Gold.Chemscore.DEClash.Weighted>
0.0149

> <Gold.Chemscore.DEInternal.Weighted>
0.0405

> <Gold.Chemscore.Rot.Weighted>
2.5600

> <Gold.Chemscore.Internal.Correction.Weighted>
   9.000000E+99

> <Gold.Protein.RotatedTorsions>
[ 6907 6896 6895 6894 ] final  -53.93 input  -60.11 | X-H torsion
[ 7974 7965 7964 7962 ] final   14.34 input  175.53 | X-H torsion
[ 8008 7997 7996 7995 ] final  -40.64 input   59.86 | X-H torsion
[ 10167 10162 10161 10158 ] final  175.24 input  -65.29 | X-H torsion
[ 10718 10713 10712 10709 ] final  -32.42 input   66.30 | X-H torsion
[ 10763 10752 10751 10750 ] final  167.63 input  -60.55 | X-H torsion
[ 11005 11000 10999 10996 ] final  164.34 input  -57.11 | X-H torsion

> <Gold.Protein.ActiveResidues>
 VAL166  LYS551  ARG553  GLY616  TRP617  ASP618  TYR619  PRO620  LYS621  CYS622 
 ASP623  PHE694  ASN695  SER759  ASP760  ASP761  ALA762  ILE779  LEU786  VAL792 
 PHE793  MET794  SER795  GLU796  ALA797  LYS798  CYS799  TRP800  GLU811  SER814 

> <Gold.Protein.RotatedAtoms>
  150.8383  134.7665  159.6910 H   0  0  0  0  0  0  0  0  0  0  0  0  # atno 6907 bound_to 6896
  152.4475  134.5460  159.9863 H   0  0  0  0  0  0  0  0  0  0  0  0  # atno 6908 bound_to 6896
  151.5605  133.3366  159.3006 H   0  0  0  0  0  0  0  0  0  0  0  0  # atno 6909 bound_to 6896
  146.2307  139.9055  142.8532 H   0  0  0  0  0  0  0  0  0  0  0  0  # atno 7974 bound_to 7965
  154.4010  140.1520  156.3059 H   0  0  0  0  0  0  0  0  0  0  0  0  # atno 8008 bound_to 7997
  155.8658  140.3451  155.5766 H   0  0  0  0  0  0  0  0  0  0  0  0  # atno 8009 bound_to 7997
  155.7829  140.0846  157.2040 H   0  0  0  0  0  0  0  0  0  0  0  0  # atno 8010 bound_to 7997
  139.5170  144.3055  152.0340 H   0  0  0  0  0  0  0  0  0  0  0  0  # atno 10167 bound_to 10162
  156.3751  130.4346  149.7514 H   0  0  0  0  0  0  0  0  0  0  0  0  # atno 10718 bound_to 10713
  154.3566  135.2753  155.2343 H   0  0  0  0  0  0  0  0  0  0  0  0  # atno 10763 bound_to 10752
  154.4549  135.5921  153.6220 H   0  0  0  0  0  0  0  0  0  0  0  0  # atno 10764 bound_to 10752
  152.9846  135.6051  154.3782 H   0  0  0  0  0  0  0  0  0  0  0  0  # atno 10765 bound_to 10752
  140.2449  134.8022  157.3447 H   0  0  0  0  0  0  0  0  0  0  0  0  # atno 11005 bound_to 11000
  145.2281  140.9962  143.4007 LP  0  0  0  0  0  0  0  0  0  0  0  0  # atno 17320 bound_to 7965
  144.9554  139.4038  143.6382 LP  0  0  0  0  0  0  0  0  0  0  0  0  # atno 17321 bound_to 7965
  140.2501  144.4178  150.6225 LP  0  0  0  0  0  0  0  0  0  0  0  0  # atno 17342 bound_to 10162
  140.6231  143.2178  151.6653 LP  0  0  0  0  0  0  0  0  0  0  0  0  # atno 17343 bound_to 10162
  156.4626  130.7959  151.2979 LP  0  0  0  0  0  0  0  0  0  0  0  0  # atno 17370 bound_to 10713
  157.7487  131.0061  150.3138 LP  0  0  0  0  0  0  0  0  0  0  0  0  # atno 17371 bound_to 10713
  140.1616  134.4722  155.7891 LP  0  0  0  0  0  0  0  0  0  0  0  0  # atno 17394 bound_to 11000
  141.2207  133.6903  156.7553 LP  0  0  0  0  0  0  0  0  0  0  0  0  # atno 17395 bound_to 11000

$$$$
