AV-unprocessed.smi:508|AV-procd|sdf|2758|dock4
  -GOLD-   2262023223D 1   1.00000     0.00000
 Structure written by MMmdl.
 49 51  0  0  0  0  0  0  0  0  1 V2000
  146.1452  141.9963  154.2100 C   0  0  0  0  0  0  0  0  0  0  0  0
  147.5888  141.4947  154.2895 C   0  0  0  0  0  0  0  0  0  0  0  0
  148.0134  141.5320  155.6413 O   0  0  0  0  0  0  0  0  0  0  0  0
  149.2790  140.9247  155.8374 C   0  0  0  0  0  0  0  0  0  0  0  0
  149.6320  141.0099  157.3312 C   0  0  0  0  0  0  0  0  0  0  0  0
  150.9029  140.3646  157.6462 N   0  0  0  0  0  0  0  0  0  0  0  0
  152.0548  140.8963  158.1579 C   0  0  0  0  0  0  0  0  0  0  0  0
  152.2100  142.2448  158.5263 N   0  0  0  0  0  0  0  0  0  0  0  0
  153.1514  142.8003  159.5003 C   0  0  0  0  0  0  0  0  0  0  0  0
  152.4920  143.5658  160.6669 C   0  0  0  0  0  0  0  0  0  0  0  0
  151.9984  144.9646  160.2694 C   0  0  0  0  0  0  0  0  0  0  0  0
  150.6167  144.9947  159.5924 C   0  0  0  0  0  0  0  0  0  0  0  0
  150.3167  143.8531  158.6036 C   0  0  0  0  0  0  0  0  0  0  0  0
  151.5314  143.3331  157.8174 C   0  0  0  0  0  0  0  0  0  0  0  0
  153.0564  140.0144  158.2558 N   0  0  0  0  0  0  0  0  0  0  0  0
  152.5060  138.8333  157.7912 C   0  0  0  0  0  0  0  0  0  0  0  0
  151.2176  139.0221  157.4159 C   0  0  0  0  0  0  0  0  0  0  0  0
  150.3978  137.9363  156.8568 C   0  0  0  0  0  0  0  0  0  0  0  0
  149.2346  138.0830  156.4883 O   0  0  0  0  0  0  0  0  0  0  0  0
  151.0554  136.7534  156.7868 N   0  0  0  0  0  0  0  0  0  0  0  0
  152.3470  136.4970  157.1563 C   0  0  0  0  0  0  0  0  0  0  0  0
  152.8070  135.3614  157.0386 O   0  0  0  0  0  0  0  0  0  0  0  0
  153.0861  137.5405  157.6510 N   0  0  0  0  0  0  0  0  0  0  0  0
  154.4774  137.3278  158.0549 C   0  0  0  0  0  0  0  0  0  0  0  0
  150.5329  135.9725  156.4173 H   0  0  0  0  0  0  0  0  0  0  0  0
  145.7834  141.9815  153.1820 H   0  0  0  0  0  0  0  0  0  0  0  0
  146.0661  143.0196  154.5782 H   0  0  0  0  0  0  0  0  0  0  0  0
  145.4805  141.3719  154.8076 H   0  0  0  0  0  0  0  0  0  0  0  0
  147.6494  140.4761  153.9036 H   0  0  0  0  0  0  0  0  0  0  0  0
  148.2360  142.1214  153.6744 H   0  0  0  0  0  0  0  0  0  0  0  0
  149.2518  139.8889  155.4995 H   0  0  0  0  0  0  0  0  0  0  0  0
  150.0318  141.4327  155.2344 H   0  0  0  0  0  0  0  0  0  0  0  0
  149.6832  142.0529  157.6429 H   0  0  0  0  0  0  0  0  0  0  0  0
  148.8425  140.5817  157.9402 H   0  0  0  0  0  0  0  0  0  0  0  0
  153.7698  142.0030  159.8994 H   0  0  0  0  0  0  0  0  0  0  0  0
  153.8550  143.4530  158.9819 H   0  0  0  0  0  0  0  0  0  0  0  0
  151.6863  142.9934  161.1260 H   0  0  0  0  0  0  0  0  0  0  0  0
  153.2478  143.6893  161.4427 H   0  0  0  0  0  0  0  0  0  0  0  0
  151.9533  145.5937  161.1590 H   0  0  0  0  0  0  0  0  0  0  0  0
  152.7369  145.4361  159.6196 H   0  0  0  0  0  0  0  0  0  0  0  0
  149.8406  144.9930  160.3588 H   0  0  0  0  0  0  0  0  0  0  0  0
  150.5145  145.9505  159.0771 H   0  0  0  0  0  0  0  0  0  0  0  0
  149.8424  143.0224  159.1287 H   0  0  0  0  0  0  0  0  0  0  0  0
  149.5656  144.2108  157.8986 H   0  0  0  0  0  0  0  0  0  0  0  0
  152.2215  144.1445  157.5818 H   0  0  0  0  0  0  0  0  0  0  0  0
  151.1815  142.9701  156.8512 H   0  0  0  0  0  0  0  0  0  0  0  0
  154.5204  136.6916  158.9395 H   0  0  0  0  0  0  0  0  0  0  0  0
  154.9909  138.2594  158.2932 H   0  0  0  0  0  0  0  0  0  0  0  0
  155.0450  136.8441  157.2585 H   0  0  0  0  0  0  0  0  0  0  0  0
  1  2  1  0  0  0  0
  1 26  1  0  0  0  0
  1 27  1  0  0  0  0
  1 28  1  0  0  0  0
  2  3  1  0  0  0  0
  2 29  1  0  0  0  0
  2 30  1  0  0  0  0
  3  4  1  0  0  0  0
  4  5  1  0  0  0  0
  4 31  1  0  0  0  0
  4 32  1  0  0  0  0
  5  6  1  0  0  0  0
  5 33  1  0  0  0  0
  5 34  1  0  0  0  0
  6 17  1  0  0  0  0
  6  7  1  0  0  0  0
  7  8  1  0  0  0  0
  7 15  2  0  0  0  0
  8 14  1  0  0  0  0
  8  9  1  0  0  0  0
  9 10  1  0  0  0  0
  9 35  1  0  0  0  0
  9 36  1  0  0  0  0
 10 11  1  0  0  0  0
 10 37  1  0  0  0  0
 10 38  1  0  0  0  0
 11 12  1  0  0  0  0
 11 39  1  0  0  0  0
 11 40  1  0  0  0  0
 12 13  1  0  0  0  0
 12 41  1  0  0  0  0
 12 42  1  0  0  0  0
 13 14  1  0  0  0  0
 13 43  1  0  0  0  0
 13 44  1  0  0  0  0
 14 45  1  0  0  0  0
 14 46  1  0  0  0  0
 15 16  1  0  0  0  0
 16 23  1  0  0  0  0
 16 17  2  0  0  0  0
 17 18  1  0  0  0  0
 18 19  2  0  0  0  0
 18 20  1  0  0  0  0
 20 25  1  0  0  0  0
 20 21  1  0  0  0  0
 21 22  2  0  0  0  0
 21 23  1  0  0  0  0
 23 24  1  0  0  0  0
 24 47  1  0  0  0  0
 24 48  1  0  0  0  0
 24 49  1  0  0  0  0
M  END
> <s_m_source_file>
AV-unprocessed.smi

> <i_m_source_file_index>
508

> <i_lp_mmshare_version>
43012

> <i_f3d_flags>
0

> <s_epik_input>
W0NIM11uMWMoPU8pW25IXWMoPU8pYyhjMTIpbihbQ0gyXVtDSDJdT1tDSDJdW0NIM10pYyhuMilOM1tDSDJdW0NIMl1bQ0gyXVtDSDJdW0NIMl1bQ0gyXTM=

> <s_epik_cmdline>
J2VwaWtfcHl0aG9uJywgJy1waCcsICc3LjAnLCAnLXRuJywgJzgnLCAnLW1hJywgJzIwMCcsICctbWV0YWxfYmluZGluZycsICctaW1hZScsICc8aW5maWxlLm1hZT4nLCAnLW9tYWUnLCAnPG91dGZpbGUubWFlPic=

> <r_lp_tautomer_probability>
1

> <r_epik_Ionization_Penalty>
0.000193589

> <r_epik_Ionization_Penalty_Charging>
2.00901e-05

> <r_epik_Ionization_Penalty_Neutral>
0.000173499

> <r_epik_State_Penalty>
-0

> <r_epik_Charging_Adjusted_Penalty>
2.00901e-05

> <i_epik_Tot_Q>
0

> <i_epik_Tot_abs_Q>
0

> <r_epik_Metal_State_Penalty>
0.0191145

> <b_epik_Metal_Only>
0

> <s_lp_Force_Field>
OPLS_2005

> <r_lp_Energy>
44.1417

> <b_lp_Chiralities_Consistent>
1

> <s_lp_Variant>
AV-unprocessed.smi:508-1

> <Gold.Version>
5.8.1

> <Gold.Id.Protein>
6NUR|6NUR_protein|mol2

> <Gold.PLP.Fitness>
46.4610

> <Gold.PLP.PLP>
-41.8114

> <Gold.PLP.part.hbond>
-2.0000

> <Gold.PLP.part.metal>
0.0000

> <Gold.PLP.part.buried>
-7.6244

> <Gold.PLP.part.nonpolar>
-33.8028

> <Gold.PLP.part.repulsive>
1.4102

> <Gold.PLP.ligand.clash>
0.0000

> <Gold.PLP.ligand.torsion>
0.3948

> <Gold.PLP.Chemscore.Hbond>
1.7740

> <Gold.PLP.Chemscore.CHOScore>
0.0000

> <Gold.PLP.Chemscore.Metal>
0.0000

> <Gold.Chemscore.Hbonds>
donor molecule, donor type, donor heavy atom, donor atom, acceptor molecule, acceptor atom, score
      P1  H  7997  8010       L1    15  0.90
      P1  H 10752 10764       L1    22  0.95

> <Gold.PLP.Chemscore.Internal.Correction>
0.1173

> <Gold.Rescore>
     Score         DG    S(hbond)    S(metal)    S(lipo)     H(rot)  DE(clash)    DE(int)     intcor
     13.04     -15.86       1.10        0.00      91.90       1.58       0.01       2.81       ----

> <Gold.Chemscore.Fitness>
13.0436

> <Gold.Chemscore.DG>
-15.8609

> <Gold.Chemscore.ZeroCoef>
-5.4800

> <Gold.Chemscore.Hbond>
1.1002

> <Gold.Chemscore.Metal>
0.0000

> <Gold.Chemscore.Lipo>
91.9011

> <Gold.Chemscore.Internal_Hbond>
0.0000

> <Gold.Chemscore.DEClash>
0.0106

> <Gold.Chemscore.DEInternal>
2.8066

> <Gold.Chemscore.Rot>
1.5806

> <Gold.Chemscore.Internal.Correction>
   9.000000E+99

> <Gold.Chemscore.Hbonds>
donor molecule, donor type, donor heavy atom, donor atom, acceptor molecule, acceptor atom, score
      P1  H  7997  8010       L1    15  0.16
      P1  H 10752 10764       L1    22  0.20

> <Gold.Chemscore.Hbond.Weighted>
-3.6747

> <Gold.Chemscore.Metal.Weighted>
-0.0000

> <Gold.Chemscore.Lipo.Weighted>
-10.7524

> <Gold.Chemscore.Internal_Hbond.Weighted>
0.0000

> <Gold.Chemscore.DEClash.Weighted>
0.0106

> <Gold.Chemscore.DEInternal.Weighted>
2.8066

> <Gold.Chemscore.Rot.Weighted>
4.0463

> <Gold.Chemscore.Internal.Correction.Weighted>
   9.000000E+99

> <Gold.Protein.RotatedTorsions>
[ 6907 6896 6895 6894 ] final  -42.20 input  -60.11 | X-H torsion
[ 7974 7965 7964 7962 ] final   -8.27 input  175.53 | X-H torsion
[ 8008 7997 7996 7995 ] final   27.15 input   59.86 | X-H torsion
[ 10167 10162 10161 10158 ] final  123.66 input  -65.29 | X-H torsion
[ 10718 10713 10712 10709 ] final   77.76 input   66.30 | X-H torsion
[ 10763 10752 10751 10750 ] final  -21.83 input  -60.55 | X-H torsion
[ 11005 11000 10999 10996 ] final   20.52 input  -57.11 | X-H torsion

> <Gold.Protein.ActiveResidues>
 VAL166  LYS551  ARG553  GLY616  TRP617  ASP618  TYR619  PRO620  LYS621  CYS622 
 ASP623  PHE694  ASN695  SER759  ASP760  ASP761  ALA762  ILE779  LEU786  VAL792 
 PHE793  MET794  SER795  GLU796  ALA797  LYS798  CYS799  TRP800  GLU811  SER814 

> <Gold.Protein.RotatedAtoms>
  150.9580  134.8972  159.7712 H   0  0  0  0  0  0  0  0  0  0  0  0  # atno 6907 bound_to 6896
  152.5145  134.3713  159.9329 H   0  0  0  0  0  0  0  0  0  0  0  0  # atno 6908 bound_to 6896
  151.3726  133.3809  159.2736 H   0  0  0  0  0  0  0  0  0  0  0  0  # atno 6909 bound_to 6896
  146.2285  140.2443  142.8344 H   0  0  0  0  0  0  0  0  0  0  0  0  # atno 7974 bound_to 7965
  155.0383  140.3166  155.4733 H   0  0  0  0  0  0  0  0  0  0  0  0  # atno 8008 bound_to 7997
  156.2860  140.2167  156.5450 H   0  0  0  0  0  0  0  0  0  0  0  0  # atno 8009 bound_to 7997
  154.7311  140.0481  157.0715 H   0  0  0  0  0  0  0  0  0  0  0  0  # atno 8010 bound_to 7997
  139.5786  144.6976  151.3586 H   0  0  0  0  0  0  0  0  0  0  0  0  # atno 10167 bound_to 10162
  157.6721  130.9836  150.1687 H   0  0  0  0  0  0  0  0  0  0  0  0  # atno 10718 bound_to 10713
  153.6424  135.6984  153.5237 H   0  0  0  0  0  0  0  0  0  0  0  0  # atno 10763 bound_to 10752
  153.2772  135.4197  155.1043 H   0  0  0  0  0  0  0  0  0  0  0  0  # atno 10764 bound_to 10752
  154.8496  135.3593  154.5968 H   0  0  0  0  0  0  0  0  0  0  0  0  # atno 10765 bound_to 10752
  140.4017  134.1711  155.7664 H   0  0  0  0  0  0  0  0  0  0  0  0  # atno 11005 bound_to 11000
  144.9461  140.8129  143.5601 LP  0  0  0  0  0  0  0  0  0  0  0  0  # atno 17320 bound_to 7965
  145.2399  139.2077  143.4998 LP  0  0  0  0  0  0  0  0  0  0  0  0  # atno 17321 bound_to 7965
  140.7067  143.7496  150.7494 LP  0  0  0  0  0  0  0  0  0  0  0  0  # atno 17342 bound_to 10162
  140.1022  143.4777  152.2418 LP  0  0  0  0  0  0  0  0  0  0  0  0  # atno 17343 bound_to 10162
  156.2446  130.3694  149.8299 LP  0  0  0  0  0  0  0  0  0  0  0  0  # atno 17370 bound_to 10713
  156.6089  130.8578  151.3449 LP  0  0  0  0  0  0  0  0  0  0  0  0  # atno 17371 bound_to 10713
  141.1854  133.8324  157.1106 LP  0  0  0  0  0  0  0  0  0  0  0  0  # atno 17394 bound_to 11000
  140.0331  134.9891  157.0819 LP  0  0  0  0  0  0  0  0  0  0  0  0  # atno 17395 bound_to 11000

$$$$
