AV-unprocessed.smi:936|AV-procd|sdf|4208|dock4
  -GOLD-   22720 2113D 1   1.00000     0.00000
 Structure written by MMmdl.
 40 41  0  0  0  0  0  0  0  0  1 V2000
  152.5964  144.3133  159.3050 C   0  0  0  0  0  0  0  0  0  0  0  0
  152.4144  142.7983  159.4783 C   0  0  0  0  0  0  0  0  0  0  0  0
  153.7310  142.0616  159.7627 C   0  0  0  0  0  0  0  0  0  0  0  0
  151.6651  142.1870  158.3364 C   0  0  0  0  0  0  0  0  0  0  0  0
  152.1396  141.1854  157.5890 N   0  0  0  0  0  0  0  0  0  0  0  0
  151.2464  140.7855  156.5905 C   0  0  0  0  0  0  0  0  0  0  0  0
  151.6148  139.6719  155.6582 C   0  0  0  0  0  0  0  0  0  0  0  0
  150.4362  139.2457  154.7673 C   0  0  0  0  0  0  0  0  0  0  0  0
  149.8810  137.9650  155.1900 N   0  0  0  0  0  0  0  0  0  0  0  0
  150.4803  136.7718  155.0350 C   0  0  0  0  0  0  0  0  0  0  0  0
  151.5760  136.6571  154.4834 O   0  0  0  0  0  0  0  0  0  0  0  0
  149.7736  135.7139  155.5084 N   0  0  0  0  0  0  0  0  0  0  0  0
  150.2602  134.3282  155.6146 C   0  0  0  0  0  0  0  0  0  0  0  0
  149.8030  133.5372  154.3775 C   0  0  0  0  0  0  0  0  0  0  0  0
  147.9868  133.4512  154.2946 S   0  0  0  0  0  0  0  0  0  0  0  0
  147.5876  135.2131  154.5180 C   0  0  0  0  0  0  0  0  0  0  0  0
  148.3256  135.7970  155.7347 C   0  0  0  0  0  0  0  0  0  0  0  0
  150.0774  141.5045  156.5911 C   0  0  0  0  0  0  0  0  0  0  0  0
  150.0573  142.7113  157.8471 S   0  0  0  0  0  0  0  0  0  0  0  0
  151.6347  144.8127  159.1837 H   0  0  0  0  0  0  0  0  0  0  0  0
  153.2033  144.5420  158.4283 H   0  0  0  0  0  0  0  0  0  0  0  0
  153.0892  144.7517  160.1730 H   0  0  0  0  0  0  0  0  0  0  0  0
  151.7900  142.6637  160.3623 H   0  0  0  0  0  0  0  0  0  0  0  0
  153.5524  141.0049  159.9642 H   0  0  0  0  0  0  0  0  0  0  0  0
  154.2374  142.4826  160.6316 H   0  0  0  0  0  0  0  0  0  0  0  0
  154.4136  142.1285  158.9151 H   0  0  0  0  0  0  0  0  0  0  0  0
  152.4542  139.9800  155.0336 H   0  0  0  0  0  0  0  0  0  0  0  0
  151.9688  138.8123  156.2289 H   0  0  0  0  0  0  0  0  0  0  0  0
  149.6425  139.9915  154.8188 H   0  0  0  0  0  0  0  0  0  0  0  0
  150.7456  139.1937  153.7221 H   0  0  0  0  0  0  0  0  0  0  0  0
  148.9767  137.9851  155.6382 H   0  0  0  0  0  0  0  0  0  0  0  0
  151.3430  134.2609  155.7190 H   0  0  0  0  0  0  0  0  0  0  0  0
  149.8634  133.8644  156.5186 H   0  0  0  0  0  0  0  0  0  0  0  0
  150.1809  134.0014  153.4658 H   0  0  0  0  0  0  0  0  0  0  0  0
  150.1988  132.5219  154.4073 H   0  0  0  0  0  0  0  0  0  0  0  0
  147.8583  135.7567  153.6122 H   0  0  0  0  0  0  0  0  0  0  0  0
  146.5095  135.3152  154.6420 H   0  0  0  0  0  0  0  0  0  0  0  0
  148.0535  135.2507  156.6388 H   0  0  0  0  0  0  0  0  0  0  0  0
  148.0000  136.8235  155.9099 H   0  0  0  0  0  0  0  0  0  0  0  0
  149.2294  141.3971  155.9308 H   0  0  0  0  0  0  0  0  0  0  0  0
  1  2  1  0  0  0  0
  1 20  1  0  0  0  0
  1 21  1  0  0  0  0
  1 22  1  0  0  0  0
  2  3  1  0  0  0  0
  2  4  1  0  0  0  0
  2 23  1  0  0  0  0
  3 24  1  0  0  0  0
  3 25  1  0  0  0  0
  3 26  1  0  0  0  0
  4 19  1  0  0  0  0
  4  5  2  0  0  0  0
  5  6  1  0  0  0  0
  6  7  1  0  0  0  0
  6 18  2  0  0  0  0
  7  8  1  0  0  0  0
  7 27  1  0  0  0  0
  7 28  1  0  0  0  0
  8  9  1  0  0  0  0
  8 29  1  0  0  0  0
  8 30  1  0  0  0  0
  9 10  1  0  0  0  0
  9 31  1  0  0  0  0
 10 11  2  0  0  0  0
 10 12  1  0  0  0  0
 12 17  1  0  0  0  0
 12 13  1  0  0  0  0
 13 14  1  0  0  0  0
 13 32  1  0  0  0  0
 13 33  1  0  0  0  0
 14 15  1  0  0  0  0
 14 34  1  0  0  0  0
 14 35  1  0  0  0  0
 15 16  1  0  0  0  0
 16 17  1  0  0  0  0
 16 36  1  0  0  0  0
 16 37  1  0  0  0  0
 17 38  1  0  0  0  0
 17 39  1  0  0  0  0
 18 19  1  0  0  0  0
 18 40  1  0  0  0  0
M  END
> <s_m_source_file>
AV-unprocessed.smi

> <i_m_source_file_index>
936

> <i_lp_mmshare_version>
43012

> <i_f3d_flags>
0

> <s_epik_input>
W0NIM11bQ0hdKFtDSDNdKWMxbmMoW2NIXXMxKVtDSDJdW0NIMl1bTkhdQyg9TylOMltDSDJdW0NIMl1TW0NIMl1bQ0gyXTI=

> <s_epik_cmdline>
J2VwaWtfcHl0aG9uJywgJy1waCcsICc3LjAnLCAnLXRuJywgJzgnLCAnLW1hJywgJzIwMCcsICctbWV0YWxfYmluZGluZycsICctaW1hZScsICc8aW5maWxlLm1hZT4nLCAnLW9tYWUnLCAnPG91dGZpbGUubWFlPic=

> <r_epik_Ionization_Penalty>
0.00156596

> <r_epik_Ionization_Penalty_Charging>
0

> <r_epik_Ionization_Penalty_Neutral>
0.00156596

> <r_epik_State_Penalty>
0.00101864

> <r_epik_Charging_Adjusted_Penalty>
0.00101864

> <i_epik_Tot_Q>
0

> <i_epik_Tot_abs_Q>
0

> <r_epik_Metal_State_Penalty>
-0

> <b_epik_Metal_Only>
0

> <s_lp_Force_Field>
OPLS_2005

> <r_lp_Energy>
11.6004

> <b_lp_Chiralities_Consistent>
1

> <s_lp_Variant>
AV-unprocessed.smi:936-1

> <Gold.Version>
5.8.1

> <Gold.Id.Protein>
6NUR|6NUR_protein|mol2

> <Gold.PLP.Fitness>
35.8837

> <Gold.PLP.PLP>
-34.9293

> <Gold.PLP.part.hbond>
-1.0000

> <Gold.PLP.part.metal>
0.0000

> <Gold.PLP.part.buried>
-3.3102

> <Gold.PLP.part.nonpolar>
-30.8272

> <Gold.PLP.part.repulsive>
0.8149

> <Gold.PLP.ligand.clash>
0.9675

> <Gold.PLP.ligand.torsion>
0.5968

> <Gold.PLP.Chemscore.Hbond>
1.0000

> <Gold.PLP.Chemscore.CHOScore>
0.0000

> <Gold.PLP.Chemscore.Metal>
0.0000

> <Gold.Chemscore.Hbonds>
donor molecule, donor type, donor heavy atom, donor atom, acceptor molecule, acceptor atom, score
      P1  H 10752 10764       L1    11  1.00

> <Gold.PLP.Chemscore.Internal.Correction>
0.1154

> <Gold.Rescore>
     Score         DG    S(hbond)    S(metal)    S(lipo)     H(rot)  DE(clash)    DE(int)     intcor
     15.86     -16.45       1.00        0.00      96.12       1.41       0.07       0.52       ----

> <Gold.Chemscore.Fitness>
15.8614

> <Gold.Chemscore.DG>
-16.4540

> <Gold.Chemscore.ZeroCoef>
-5.4800

> <Gold.Chemscore.Hbond>
0.9968

> <Gold.Chemscore.Metal>
0.0000

> <Gold.Chemscore.Lipo>
96.1203

> <Gold.Chemscore.Internal_Hbond>
0.0000

> <Gold.Chemscore.DEClash>
0.0701

> <Gold.Chemscore.DEInternal>
0.5225

> <Gold.Chemscore.Rot>
1.4068

> <Gold.Chemscore.Internal.Correction>
   9.000000E+99

> <Gold.Chemscore.Hbonds>
donor molecule, donor type, donor heavy atom, donor atom, acceptor molecule, acceptor atom, score
      P1  H 10752 10764       L1    11  0.99

> <Gold.Chemscore.Hbond.Weighted>
-3.3293

> <Gold.Chemscore.Metal.Weighted>
-0.0000

> <Gold.Chemscore.Lipo.Weighted>
-11.2461

> <Gold.Chemscore.Internal_Hbond.Weighted>
0.0000

> <Gold.Chemscore.DEClash.Weighted>
0.0701

> <Gold.Chemscore.DEInternal.Weighted>
0.5225

> <Gold.Chemscore.Rot.Weighted>
3.6014

> <Gold.Chemscore.Internal.Correction.Weighted>
   9.000000E+99

> <Gold.Protein.RotatedTorsions>
[ 6907 6896 6895 6894 ] final -119.06 input  -60.11 | X-H torsion
[ 7974 7965 7964 7962 ] final   59.96 input  175.53 | X-H torsion
[ 8008 7997 7996 7995 ] final  164.14 input   59.86 | X-H torsion
[ 10167 10162 10161 10158 ] final  129.85 input  -65.29 | X-H torsion
[ 10718 10713 10712 10709 ] final  -62.10 input   66.30 | X-H torsion
[ 10763 10752 10751 10750 ] final  -84.18 input  -60.55 | X-H torsion
[ 11005 11000 10999 10996 ] final -135.48 input  -57.11 | X-H torsion

> <Gold.Protein.ActiveResidues>
 VAL166  LYS551  ARG553  GLY616  TRP617  ASP618  TYR619  PRO620  LYS621  CYS622 
 ASP623  PHE694  ASN695  SER759  ASP760  ASP761  ALA762  ILE779  LEU786  VAL792 
 PHE793  MET794  SER795  GLU796  ALA797  LYS798  CYS799  TRP800  GLU811  SER814 

> <Gold.Protein.RotatedAtoms>
  150.8272  133.8151  159.3113 H   0  0  0  0  0  0  0  0  0  0  0  0  # atno 6907 bound_to 6896
  151.5892  135.1052  160.0044 H   0  0  0  0  0  0  0  0  0  0  0  0  # atno 6908 bound_to 6896
  152.4356  133.7314  159.6646 H   0  0  0  0  0  0  0  0  0  0  0  0  # atno 6909 bound_to 6896
  145.9013  139.3583  143.0591 H   0  0  0  0  0  0  0  0  0  0  0  0  # atno 7974 bound_to 7965
  156.1903  140.1705  156.8105 H   0  0  0  0  0  0  0  0  0  0  0  0  # atno 8008 bound_to 7997
  154.5463  140.0726  156.8627 H   0  0  0  0  0  0  0  0  0  0  0  0  # atno 8009 bound_to 7997
  155.3115  140.3368  155.4246 H   0  0  0  0  0  0  0  0  0  0  0  0  # atno 8010 bound_to 7997
  139.5458  144.6771  151.4479 H   0  0  0  0  0  0  0  0  0  0  0  0  # atno 10167 bound_to 10162
  156.0877  130.4205  150.1088 H   0  0  0  0  0  0  0  0  0  0  0  0  # atno 10718 bound_to 10713
  154.5964  135.5530  153.7330 H   0  0  0  0  0  0  0  0  0  0  0  0  # atno 10763 bound_to 10752
  153.0137  135.6356  154.1776 H   0  0  0  0  0  0  0  0  0  0  0  0  # atno 10764 bound_to 10752
  154.1716  135.2892  155.3059 H   0  0  0  0  0  0  0  0  0  0  0  0  # atno 10765 bound_to 10752
  140.8894  134.1830  157.4538 H   0  0  0  0  0  0  0  0  0  0  0  0  # atno 11005 bound_to 11000
  145.8787  140.9376  143.0612 LP  0  0  0  0  0  0  0  0  0  0  0  0  # atno 17320 bound_to 7965
  144.6736  140.0751  143.7471 LP  0  0  0  0  0  0  0  0  0  0  0  0  # atno 17321 bound_to 7965
  140.6705  143.8304  150.6993 LP  0  0  0  0  0  0  0  0  0  0  0  0  # atno 17342 bound_to 10162
  140.1727  143.4181  152.1989 LP  0  0  0  0  0  0  0  0  0  0  0  0  # atno 17343 bound_to 10162
  156.9105  130.9650  151.3563 LP  0  0  0  0  0  0  0  0  0  0  0  0  # atno 17370 bound_to 10713
  157.6017  130.8517  149.8812 LP  0  0  0  0  0  0  0  0  0  0  0  0  # atno 17371 bound_to 10713
  139.8728  134.9852  156.5272 LP  0  0  0  0  0  0  0  0  0  0  0  0  # atno 17394 bound_to 11000
  140.8365  133.8238  155.9033 LP  0  0  0  0  0  0  0  0  0  0  0  0  # atno 17395 bound_to 11000

$$$$
