AV-unprocessed.smi:1857|AV-procd|sdf|7541|dock6
  -GOLD-   22720 9253D 1   1.00000     0.00000
 Structure written by MMmdl.
 45 46  0  0  0  0  0  0  0  0  1 V2000
  146.3055  142.2364  156.7991 C   0  0  0  0  0  0  0  0  0  0  0  0
  147.4945  141.2828  157.0674 C   0  0  0  0  0  0  0  0  0  0  0  0
  148.3441  141.9094  158.1906 C   0  0  0  0  0  0  0  0  0  0  0  0
  146.8682  139.9513  157.5358 C   0  0  0  0  0  0  0  0  0  0  0  0
  148.3306  141.1129  155.8080 C   0  0  0  0  0  0  0  0  0  0  0  0
  148.1038  141.7752  154.6747 N   0  0  0  0  0  0  0  0  0  0  0  0
  149.1150  141.3821  153.8280 N   0  0  0  0  0  0  0  0  0  0  0  0
  149.9234  140.5579  154.4186 N   0  0  0  0  0  0  0  0  0  0  0  0
  149.4562  140.3758  155.6805 N   0  0  0  0  0  0  0  0  0  0  0  0
  150.2112  139.5132  156.5805 C   0  0  0  0  0  0  0  0  0  0  0  0
  151.4728  140.2054  157.1085 C   0  0  0  0  0  0  0  0  0  0  0  0
  152.5810  139.9042  156.6643 O   0  0  0  0  0  0  0  0  0  0  0  0
  151.2876  141.1362  158.0579 N   0  0  0  0  0  0  0  0  0  0  0  0
  152.3410  141.9285  158.6900 C   0  0  0  0  0  0  0  0  0  0  0  0
  152.4277  141.5741  160.1914 C   0  0  0  0  0  0  0  0  0  0  0  0
  153.2206  142.5659  161.0582 C   0  0  0  0  0  0  0  0  0  0  0  0
  152.3474  143.7154  161.5921 C   0  0  0  0  0  0  0  0  0  0  0  0
  151.9391  144.7598  160.5415 C   0  0  0  0  0  0  0  0  0  0  0  0
  151.2004  144.1919  159.3165 C   0  0  0  0  0  0  0  0  0  0  0  0
  152.1332  143.4233  158.3647 C   0  0  0  0  0  0  0  0  0  0  0  0
  145.6867  142.3643  157.6882 H   0  0  0  0  0  0  0  0  0  0  0  0
  145.6590  141.8568  156.0066 H   0  0  0  0  0  0  0  0  0  0  0  0
  146.6426  143.2306  156.5026 H   0  0  0  0  0  0  0  0  0  0  0  0
  148.7428  142.8784  157.8877 H   0  0  0  0  0  0  0  0  0  0  0  0
  149.1909  141.2838  158.4675 H   0  0  0  0  0  0  0  0  0  0  0  0
  147.7528  142.0671  159.0932 H   0  0  0  0  0  0  0  0  0  0  0  0
  146.1833  140.1110  158.3696 H   0  0  0  0  0  0  0  0  0  0  0  0
  147.6021  139.2311  157.8859 H   0  0  0  0  0  0  0  0  0  0  0  0
  146.2984  139.4805  156.7339 H   0  0  0  0  0  0  0  0  0  0  0  0
  149.5606  139.2368  157.4121 H   0  0  0  0  0  0  0  0  0  0  0  0
  150.4754  138.5812  156.0888 H   0  0  0  0  0  0  0  0  0  0  0  0
  150.3420  141.3182  158.3612 H   0  0  0  0  0  0  0  0  0  0  0  0
  153.2902  141.6533  158.2265 H   0  0  0  0  0  0  0  0  0  0  0  0
  151.4273  141.4526  160.6098 H   0  0  0  0  0  0  0  0  0  0  0  0
  152.8928  140.5910  160.2772 H   0  0  0  0  0  0  0  0  0  0  0  0
  153.6115  142.0221  161.9190 H   0  0  0  0  0  0  0  0  0  0  0  0
  154.0928  142.9458  160.5249 H   0  0  0  0  0  0  0  0  0  0  0  0
  151.4546  143.3076  162.0674 H   0  0  0  0  0  0  0  0  0  0  0  0
  152.8927  144.2274  162.3856 H   0  0  0  0  0  0  0  0  0  0  0  0
  151.2946  145.4941  161.0260 H   0  0  0  0  0  0  0  0  0  0  0  0
  152.8197  145.3143  160.2153 H   0  0  0  0  0  0  0  0  0  0  0  0
  150.3492  143.5793  159.6163 H   0  0  0  0  0  0  0  0  0  0  0  0
  150.7809  145.0345  158.7661 H   0  0  0  0  0  0  0  0  0  0  0  0
  153.1025  143.9226  158.3404 H   0  0  0  0  0  0  0  0  0  0  0  0
  151.7532  143.5126  157.3459 H   0  0  0  0  0  0  0  0  0  0  0  0
  1  2  1  0  0  0  0
  1 21  1  0  0  0  0
  1 22  1  0  0  0  0
  1 23  1  0  0  0  0
  2  3  1  0  0  0  0
  2  4  1  0  0  0  0
  2  5  1  0  0  0  0
  3 24  1  0  0  0  0
  3 25  1  0  0  0  0
  3 26  1  0  0  0  0
  4 27  1  0  0  0  0
  4 28  1  0  0  0  0
  4 29  1  0  0  0  0
  5  9  1  0  0  0  0
  5  6  2  0  0  0  0
  6  7  1  0  0  0  0
  7  8  2  0  0  0  0
  8  9  1  0  0  0  0
  9 10  1  0  0  0  0
 10 11  1  0  0  0  0
 10 30  1  0  0  0  0
 10 31  1  0  0  0  0
 11 12  2  0  0  0  0
 11 13  1  0  0  0  0
 13 14  1  0  0  0  0
 13 32  1  0  0  0  0
 14 20  1  0  0  0  0
 14 15  1  0  0  0  0
 14 33  1  0  0  0  0
 15 16  1  0  0  0  0
 15 34  1  0  0  0  0
 15 35  1  0  0  0  0
 16 17  1  0  0  0  0
 16 36  1  0  0  0  0
 16 37  1  0  0  0  0
 17 18  1  0  0  0  0
 17 38  1  0  0  0  0
 17 39  1  0  0  0  0
 18 19  1  0  0  0  0
 18 40  1  0  0  0  0
 18 41  1  0  0  0  0
 19 20  1  0  0  0  0
 19 42  1  0  0  0  0
 19 43  1  0  0  0  0
 20 44  1  0  0  0  0
 20 45  1  0  0  0  0
M  END
> <s_m_source_file>
AV-unprocessed.smi

> <i_m_source_file_index>
1857

> <i_lp_mmshare_version>
43012

> <i_f3d_flags>
0

> <s_epik_input>
W0NIM11DKFtDSDNdKShbQ0gzXSljMW5ubm4xW0NIMl1DKD1PKVtOSF1bQ0hdMltDSDJdW0NIMl1bQ0gyXVtDSDJdW0NIMl1bQ0gyXTI=

> <s_epik_cmdline>
J2VwaWtfcHl0aG9uJywgJy1waCcsICc3LjAnLCAnLXRuJywgJzgnLCAnLW1hJywgJzIwMCcsICctbWV0YWxfYmluZGluZycsICctaW1hZScsICc8aW5maWxlLm1hZT4nLCAnLW9tYWUnLCAnPG91dGZpbGUubWFlPic=

> <r_lp_tautomer_probability>
1

> <r_epik_Ionization_Penalty>
4.53904e-07

> <r_epik_Ionization_Penalty_Charging>
0

> <r_epik_Ionization_Penalty_Neutral>
4.53904e-07

> <r_epik_State_Penalty>
-0

> <r_epik_Charging_Adjusted_Penalty>
0

> <i_epik_Tot_Q>
0

> <i_epik_Tot_abs_Q>
0

> <r_epik_Metal_State_Penalty>
-0

> <b_epik_Metal_Only>
0

> <s_lp_Force_Field>
OPLS_2005

> <r_lp_Energy>
25.0233

> <b_lp_Chiralities_Consistent>
1

> <s_lp_Variant>
AV-unprocessed.smi:1857-1

> <Gold.Version>
5.8.1

> <Gold.Id.Protein>
6NUR|6NUR_protein|mol2

> <Gold.PLP.Fitness>
43.4425

> <Gold.PLP.PLP>
-36.3764

> <Gold.PLP.part.hbond>
-4.0000

> <Gold.PLP.part.metal>
0.0000

> <Gold.PLP.part.buried>
-7.4509

> <Gold.PLP.part.nonpolar>
-27.5823

> <Gold.PLP.part.repulsive>
1.8579

> <Gold.PLP.ligand.clash>
0.0000

> <Gold.PLP.ligand.torsion>
0.4680

> <Gold.PLP.Chemscore.Hbond>
2.6320

> <Gold.PLP.Chemscore.CHOScore>
0.0000

> <Gold.PLP.Chemscore.Metal>
0.0000

> <Gold.Chemscore.Hbonds>
donor molecule, donor type, donor heavy atom, donor atom, acceptor molecule, acceptor atom, score
      P1  H  7989  7998       L1     8  0.80
      P1  H  7997  8010       L1    12  1.00
      P1  H  8011  8017       L1     7  0.80

> <Gold.PLP.Chemscore.Internal.Correction>
0.1061

> <Gold.Rescore>
     Score         DG    S(hbond)    S(metal)    S(lipo)     H(rot)  DE(clash)    DE(int)     intcor
     18.21     -18.76       2.12        0.00      86.96       1.55       0.13       0.42       ----

> <Gold.Chemscore.Fitness>
18.2051

> <Gold.Chemscore.DG>
-18.7576

> <Gold.Chemscore.ZeroCoef>
-5.4800

> <Gold.Chemscore.Hbond>
2.1188

> <Gold.Chemscore.Metal>
0.0000

> <Gold.Chemscore.Lipo>
86.9572

> <Gold.Chemscore.Internal_Hbond>
0.0000

> <Gold.Chemscore.DEClash>
0.1311

> <Gold.Chemscore.DEInternal>
0.4215

> <Gold.Chemscore.Rot>
1.5520

> <Gold.Chemscore.Internal.Correction>
   9.000000E+99

> <Gold.Chemscore.Hbonds>
donor molecule, donor type, donor heavy atom, donor atom, acceptor molecule, acceptor atom, score
      P1  H  7989  7998       L1     8  0.27
      P1  H  7997  8010       L1    12  1.00
      P1  H  8011  8017       L1     7  0.75

> <Gold.Chemscore.Hbond.Weighted>
-7.0767

> <Gold.Chemscore.Metal.Weighted>
-0.0000

> <Gold.Chemscore.Lipo.Weighted>
-10.1740

> <Gold.Chemscore.Internal_Hbond.Weighted>
0.0000

> <Gold.Chemscore.DEClash.Weighted>
0.1311

> <Gold.Chemscore.DEInternal.Weighted>
0.4215

> <Gold.Chemscore.Rot.Weighted>
3.9731

> <Gold.Chemscore.Internal.Correction.Weighted>
   9.000000E+99

> <Gold.Protein.RotatedTorsions>
[ 6907 6896 6895 6894 ] final  -74.68 input  -60.11 | X-H torsion
[ 7974 7965 7964 7962 ] final -172.55 input  175.53 | X-H torsion
[ 8008 7997 7996 7995 ] final   77.24 input   59.86 | X-H torsion
[ 10167 10162 10161 10158 ] final  133.80 input  -65.29 | X-H torsion
[ 10718 10713 10712 10709 ] final  150.89 input   66.30 | X-H torsion
[ 10763 10752 10751 10750 ] final -170.89 input  -60.55 | X-H torsion
[ 11005 11000 10999 10996 ] final  -93.04 input  -57.11 | X-H torsion

> <Gold.Protein.ActiveResidues>
 VAL166  LYS551  ARG553  GLY616  TRP617  ASP618  TYR619  PRO620  LYS621  CYS622 
 ASP623  PHE694  ASN695  SER759  ASP760  ASP761  ALA762  ILE779  LEU786  VAL792 
 PHE793  MET794  SER795  GLU796  ALA797  LYS798  CYS799  TRP800  GLU811  SER814 

> <Gold.Protein.RotatedAtoms>
  150.7085  134.4834  159.5480 H   0  0  0  0  0  0  0  0  0  0  0  0  # atno 6907 bound_to 6896
  152.2466  134.8172  160.0461 H   0  0  0  0  0  0  0  0  0  0  0  0  # atno 6908 bound_to 6896
  151.8934  133.3486  159.3843 H   0  0  0  0  0  0  0  0  0  0  0  0  # atno 6909 bound_to 6896
  144.7145  140.1755  143.6363 H   0  0  0  0  0  0  0  0  0  0  0  0  # atno 7974 bound_to 7965
  155.8388  140.3463  155.5619 H   0  0  0  0  0  0  0  0  0  0  0  0  # atno 8008 bound_to 7997
  155.8163  140.0906  157.1895 H   0  0  0  0  0  0  0  0  0  0  0  0  # atno 8009 bound_to 7997
  154.4005  140.1438  156.3434 H   0  0  0  0  0  0  0  0  0  0  0  0  # atno 8010 bound_to 7997
  139.5282  144.6598  151.5048 H   0  0  0  0  0  0  0  0  0  0  0  0  # atno 10167 bound_to 10162
  157.2777  131.0829  151.1554 H   0  0  0  0  0  0  0  0  0  0  0  0  # atno 10718 bound_to 10713
  154.6365  135.2893  155.0154 H   0  0  0  0  0  0  0  0  0  0  0  0  # atno 10763 bound_to 10752
  154.1296  135.6535  153.4923 H   0  0  0  0  0  0  0  0  0  0  0  0  # atno 10764 bound_to 10752
  153.0305  135.5307  154.7214 H   0  0  0  0  0  0  0  0  0  0  0  0  # atno 10765 bound_to 10752
  141.1507  133.7861  157.0104 H   0  0  0  0  0  0  0  0  0  0  0  0  # atno 11005 bound_to 11000
  145.8904  139.2372  143.1553 LP  0  0  0  0  0  0  0  0  0  0  0  0  # atno 17320 bound_to 7965
  145.9909  140.8603  143.0067 LP  0  0  0  0  0  0  0  0  0  0  0  0  # atno 17321 bound_to 7965
  140.6441  143.8830  150.6720 LP  0  0  0  0  0  0  0  0  0  0  0  0  # atno 17342 bound_to 10162
  140.2173  143.3836  152.1670 LP  0  0  0  0  0  0  0  0  0  0  0  0  # atno 17343 bound_to 10162
  157.3001  130.6838  149.6159 LP  0  0  0  0  0  0  0  0  0  0  0  0  # atno 17370 bound_to 10713
  155.9664  130.4394  150.5259 LP  0  0  0  0  0  0  0  0  0  0  0  0  # atno 17371 bound_to 10713
  140.0881  134.9608  157.1733 LP  0  0  0  0  0  0  0  0  0  0  0  0  # atno 17394 bound_to 11000
  140.3483  134.2627  155.7202 LP  0  0  0  0  0  0  0  0  0  0  0  0  # atno 17395 bound_to 11000

$$$$
