AV-unprocessed.smi:3258|AV-procd|sdf|12471|dock1
  -GOLD-   2272018373D 1   1.00000     0.00000
 Structure written by MMmdl.
 38 39  0  0  0  0  0  0  0  0  1 V2000
  144.2398  136.9243  152.6358 C   0  0  0  0  0  0  0  0  0  0  0  0
  145.2961  135.8385  152.3752 C   0  0  1  0  0  0  0  0  0  0  0  0
  145.4552  135.4938  150.8737 C   0  0  0  0  0  0  0  0  0  0  0  0
  145.2437  134.0877  150.5687 N   0  0  0  0  0  0  0  0  0  0  0  0
  144.0522  133.4219  150.3707 C   0  0  0  0  0  0  0  0  0  0  0  0
  144.3539  132.1145  150.1169 C   0  0  0  0  0  0  0  0  0  0  0  0
  145.7745  132.0756  150.1875 C   0  0  0  0  0  0  0  0  0  0  0  0
  146.3038  133.2569  150.4596 N   0  0  0  0  0  0  0  0  0  0  0  0
  146.5662  136.2503  152.9697 N   0  0  0  0  0  0  0  0  0  0  0  0
  146.7307  136.6913  154.2243 C   0  0  0  0  0  0  0  0  0  0  0  0
  145.8103  136.8499  155.0267 O   0  0  0  0  0  0  0  0  0  0  0  0
  148.0223  136.9134  154.5048 N   0  0  0  0  0  0  0  0  0  0  0  0
  148.5449  137.3209  155.8046 C   0  0  0  0  0  0  0  0  0  0  0  0
  149.8370  138.1468  155.6616 C   0  0  1  0  0  0  0  0  0  0  0  0
  150.9408  137.4337  154.9081 C   0  0  0  0  0  0  0  0  0  0  0  0
  151.8640  138.5886  154.5308 C   0  0  0  0  0  0  0  0  0  0  0  0
  151.0233  139.7300  154.3849 O   0  0  0  0  0  0  0  0  0  0  0  0
  149.7064  139.4282  154.8358 C   0  0  0  0  0  0  0  0  0  0  0  0
  143.2782  136.6454  152.2045 H   0  0  0  0  0  0  0  0  0  0  0  0
  144.5310  137.8844  152.2088 H   0  0  0  0  0  0  0  0  0  0  0  0
  144.0889  137.0728  153.7056 H   0  0  0  0  0  0  0  0  0  0  0  0
  144.9650  134.9349  152.8899 H   0  0  0  0  0  0  0  0  0  0  0  0
  144.7752  136.0900  150.2633 H   0  0  0  0  0  0  0  0  0  0  0  0
  146.4604  135.7600  150.5453 H   0  0  0  0  0  0  0  0  0  0  0  0
  143.1001  133.9291  150.4237 H   0  0  0  0  0  0  0  0  0  0  0  0
  143.6650  131.3082  149.9140 H   0  0  0  0  0  0  0  0  0  0  0  0
  146.4322  131.2299  150.0510 H   0  0  0  0  0  0  0  0  0  0  0  0
  147.3885  136.1508  152.3925 H   0  0  0  0  0  0  0  0  0  0  0  0
  148.7000  136.7513  153.7741 H   0  0  0  0  0  0  0  0  0  0  0  0
  147.7806  137.9238  156.2952 H   0  0  0  0  0  0  0  0  0  0  0  0
  148.7096  136.4551  156.4486 H   0  0  0  0  0  0  0  0  0  0  0  0
  150.2109  138.4079  156.6534 H   0  0  0  0  0  0  0  0  0  0  0  0
  151.4410  136.6675  155.5011 H   0  0  0  0  0  0  0  0  0  0  0  0
  150.5445  136.9637  154.0067 H   0  0  0  0  0  0  0  0  0  0  0  0
  152.5762  138.7842  155.3334 H   0  0  0  0  0  0  0  0  0  0  0  0
  152.4279  138.3890  153.6193 H   0  0  0  0  0  0  0  0  0  0  0  0
  149.0743  139.2620  153.9623 H   0  0  0  0  0  0  0  0  0  0  0  0
  149.2830  140.2550  155.4068 H   0  0  0  0  0  0  0  0  0  0  0  0
  1  2  1  0  0  0  0
  1 19  1  0  0  0  0
  1 20  1  0  0  0  0
  1 21  1  0  0  0  0
  2  3  1  0  0  0  0
  2  9  1  0  0  0  0
  2 22  1  0  0  0  0
  3  4  1  0  0  0  0
  3 23  1  0  0  0  0
  3 24  1  0  0  0  0
  4  8  1  0  0  0  0
  4  5  1  0  0  0  0
  5  6  2  0  0  0  0
  5 25  1  0  0  0  0
  6  7  1  0  0  0  0
  6 26  1  0  0  0  0
  7  8  2  0  0  0  0
  7 27  1  0  0  0  0
  9 10  1  0  0  0  0
  9 28  1  0  0  0  0
 10 11  2  0  0  0  0
 10 12  1  0  0  0  0
 12 13  1  0  0  0  0
 12 29  1  0  0  0  0
 13 14  1  0  0  0  0
 13 30  1  0  0  0  0
 13 31  1  0  0  0  0
 14 18  1  0  0  0  0
 14 15  1  0  0  0  0
 14 32  1  0  0  0  0
 15 16  1  0  0  0  0
 15 33  1  0  0  0  0
 15 34  1  0  0  0  0
 16 17  1  0  0  0  0
 16 35  1  0  0  0  0
 16 36  1  0  0  0  0
 17 18  1  0  0  0  0
 18 37  1  0  0  0  0
 18 38  1  0  0  0  0
M  END
> <s_m_source_file>
AV-unprocessed.smi

> <i_m_source_file_index>
3258

> <i_lp_mmshare_version>
43012

> <i_f3d_flags>
0

> <s_epik_input>
bjFbY0hdW2NIXVtjSF1uMVtDSDJdW0NAQEhdKFtDSDNdKVtOSF1DKD1PKVtOSF1bQ0gyXVtDQEBIXTJbQ0gyXVtDSDJdT1tDSDJdMg==

> <s_epik_cmdline>
J2VwaWtfcHl0aG9uJywgJy1waCcsICc3LjAnLCAnLXRuJywgJzgnLCAnLW1hJywgJzIwMCcsICctbWV0YWxfYmluZGluZycsICctaW1hZScsICc8aW5maWxlLm1hZT4nLCAnLW9tYWUnLCAnPG91dGZpbGUubWFlPic=

> <r_lp_tautomer_probability>
1

> <r_epik_Ionization_Penalty>
6.85079e-05

> <r_epik_Ionization_Penalty_Charging>
0

> <r_epik_Ionization_Penalty_Neutral>
6.85079e-05

> <r_epik_State_Penalty>
-0

> <r_epik_Charging_Adjusted_Penalty>
0

> <i_epik_Tot_Q>
0

> <i_epik_Tot_abs_Q>
0

> <r_epik_Metal_State_Penalty>
-0

> <b_epik_Metal_Only>
0

> <s_lp_Force_Field>
OPLS_2005

> <r_lp_Energy>
16.3591

> <b_lp_Chiralities_Consistent>
1

> <s_lp_Variant>
AV-unprocessed.smi:3258-4

> <Gold.Version>
5.8.1

> <Gold.Id.Protein>
6NUR|6NUR_protein|mol2

> <Gold.PLP.Fitness>
42.6653

> <Gold.PLP.PLP>
-30.4342

> <Gold.PLP.part.hbond>
-3.0000

> <Gold.PLP.part.metal>
0.0000

> <Gold.PLP.part.buried>
-4.2042

> <Gold.PLP.part.nonpolar>
-23.4547

> <Gold.PLP.part.repulsive>
0.3706

> <Gold.PLP.ligand.clash>
0.0000

> <Gold.PLP.ligand.torsion>
1.3083

> <Gold.PLP.Chemscore.Hbond>
2.9120

> <Gold.PLP.Chemscore.CHOScore>
2.0000

> <Gold.PLP.Chemscore.Metal>
0.0000

> <Gold.Chemscore.Hbonds>
donor molecule, donor type, donor heavy atom, donor atom, acceptor molecule, acceptor atom, score
      L1  H     9    28       P1  7948  1.00
      L1  H    12    29       P1  7948  0.93
      P1  H  7989  7998       L1    17  1.00
      L1  C     5    25       P1 10186  1.00
      L1  C     7    27       P1 10747  0.91

> <Gold.PLP.Chemscore.Internal.Correction>
0.1118

> <Gold.Rescore>
     Score         DG    S(hbond)    S(metal)    S(lipo)     H(rot)  DE(clash)    DE(int)     intcor
     15.61     -18.31       2.87        0.00      68.80       1.87       0.05       2.65       ----

> <Gold.Chemscore.Fitness>
15.6095

> <Gold.Chemscore.DG>
-18.3111

> <Gold.Chemscore.ZeroCoef>
-5.4800

> <Gold.Chemscore.Hbond>
2.8667

> <Gold.Chemscore.Metal>
0.0000

> <Gold.Chemscore.Lipo>
68.7995

> <Gold.Chemscore.Internal_Hbond>
0.0000

> <Gold.Chemscore.DEClash>
0.0475

> <Gold.Chemscore.DEInternal>
2.6541

> <Gold.Chemscore.Rot>
1.8724

> <Gold.Chemscore.Internal.Correction>
   9.000000E+99

> <Gold.Chemscore.Hbonds>
donor molecule, donor type, donor heavy atom, donor atom, acceptor molecule, acceptor atom, score
      L1  H     9    28       P1  7948  1.00
      L1  H    12    29       P1  7948  0.87
      P1  H  7989  7998       L1    17  0.85

> <Gold.Chemscore.Hbond.Weighted>
-9.5748

> <Gold.Chemscore.Metal.Weighted>
-0.0000

> <Gold.Chemscore.Lipo.Weighted>
-8.0495

> <Gold.Chemscore.Internal_Hbond.Weighted>
0.0000

> <Gold.Chemscore.DEClash.Weighted>
0.0475

> <Gold.Chemscore.DEInternal.Weighted>
2.6541

> <Gold.Chemscore.Rot.Weighted>
4.7933

> <Gold.Chemscore.Internal.Correction.Weighted>
   9.000000E+99

> <Gold.Protein.RotatedTorsions>
[ 6907 6896 6895 6894 ] final  135.52 input  -60.11 | X-H torsion
[ 7974 7965 7964 7962 ] final   14.29 input  175.53 | X-H torsion
[ 8008 7997 7996 7995 ] final  -53.77 input   59.86 | X-H torsion
[ 10167 10162 10161 10158 ] final  163.10 input  -65.29 | X-H torsion
[ 10718 10713 10712 10709 ] final -178.62 input   66.30 | X-H torsion
[ 10763 10752 10751 10750 ] final    2.92 input  -60.55 | X-H torsion
[ 11005 11000 10999 10996 ] final -120.59 input  -57.11 | X-H torsion

> <Gold.Protein.ActiveResidues>
 VAL166  LYS551  ARG553  GLY616  TRP617  ASP618  TYR619  PRO620  LYS621  CYS622 
 ASP623  PHE694  ASN695  SER759  ASP760  ASP761  ALA762  ILE779  LEU786  VAL792 
 PHE793  MET794  SER795  GLU796  ALA797  LYS798  CYS799  TRP800  GLU811  SER814 

> <Gold.Protein.RotatedAtoms>
  152.2995  133.5641  159.5609 H   0  0  0  0  0  0  0  0  0  0  0  0  # atno 6907 bound_to 6896
  150.7271  134.0311  159.3743 H   0  0  0  0  0  0  0  0  0  0  0  0  # atno 6908 bound_to 6896
  151.8212  135.0651  160.0476 H   0  0  0  0  0  0  0  0  0  0  0  0  # atno 6909 bound_to 6896
  146.2308  139.9062  142.8531 H   0  0  0  0  0  0  0  0  0  0  0  0  # atno 7974 bound_to 7965
  154.4142  140.1192  156.5207 H   0  0  0  0  0  0  0  0  0  0  0  0  # atno 8008 bound_to 7997
  155.6706  140.3496  155.4797 H   0  0  0  0  0  0  0  0  0  0  0  0  # atno 8009 bound_to 7997
  155.9636  140.1128  157.0864 H   0  0  0  0  0  0  0  0  0  0  0  0  # atno 8010 bound_to 7997
  139.4869  144.4371  151.8999 H   0  0  0  0  0  0  0  0  0  0  0  0  # atno 10167 bound_to 10162
  156.8470  130.9706  151.3095 H   0  0  0  0  0  0  0  0  0  0  0  0  # atno 10718 bound_to 10713
  153.2896  135.6947  153.7306 H   0  0  0  0  0  0  0  0  0  0  0  0  # atno 10763 bound_to 10752
  153.6262  135.3418  155.3028 H   0  0  0  0  0  0  0  0  0  0  0  0  # atno 10764 bound_to 10752
  154.8520  135.4398  154.1974 H   0  0  0  0  0  0  0  0  0  0  0  0  # atno 10765 bound_to 10752
  141.0132  134.0234  157.3385 H   0  0  0  0  0  0  0  0  0  0  0  0  # atno 11005 bound_to 11000
  145.2274  140.9959  143.4010 LP  0  0  0  0  0  0  0  0  0  0  0  0  # atno 17320 bound_to 7965
  144.9559  139.4032  143.6380 LP  0  0  0  0  0  0  0  0  0  0  0  0  # atno 17321 bound_to 7965
  140.3821  144.2723  150.5907 LP  0  0  0  0  0  0  0  0  0  0  0  0  # atno 17342 bound_to 10162
  140.5224  143.2262  151.8368 LP  0  0  0  0  0  0  0  0  0  0  0  0  # atno 17343 bound_to 10162
  157.6324  130.8740  149.9298 LP  0  0  0  0  0  0  0  0  0  0  0  0  # atno 17370 bound_to 10713
  156.0849  130.3669  150.0507 LP  0  0  0  0  0  0  0  0  0  0  0  0  # atno 17371 bound_to 10713
  139.9102  135.0188  156.7658 LP  0  0  0  0  0  0  0  0  0  0  0  0  # atno 17394 bound_to 11000
  140.6698  133.9569  155.7850 LP  0  0  0  0  0  0  0  0  0  0  0  0  # atno 17395 bound_to 11000

$$$$
