AV-unprocessed.smi:2618|AV-procd|sdf|10221|dock3
  -GOLD-   2272014223D 1   1.00000     0.00000
 Structure written by MMmdl.
 38 39  0  0  0  0  0  0  0  0  2 V2000
  159.6024  140.5574  162.0751 C   0  0  0  0  0  0  0  0  0  0  0  0
  158.5217  140.7075  162.9790 O   0  0  0  0  0  0  0  0  0  0  0  0
  158.1813  139.4911  163.6235 C   0  0  0  0  0  0  0  0  0  0  0  0
  157.7939  138.4537  162.5550 C   0  0  0  0  0  0  0  0  0  0  0  0
  156.6312  138.8758  161.6908 C   0  0  0  0  0  0  0  0  0  0  0  0
  155.9488  139.9480  161.8646 N   0  0  0  0  0  0  0  0  0  0  0  0
  154.9814  140.0663  160.9531 N   0  0  0  0  0  0  0  0  0  0  0  0
  154.0553  141.1289  160.9953 C   0  0  0  0  0  0  0  0  0  0  0  0
  153.8694  141.8101  162.1409 N   0  0  0  0  0  0  0  0  0  0  0  0
  152.9711  142.8167  162.1433 C   0  0  0  0  0  0  0  0  0  0  0  0
  152.7994  143.5677  163.4459 C   0  0  0  0  0  0  0  0  0  0  0  0
  152.2288  143.1517  160.9937 C   0  0  0  0  0  0  0  0  0  0  0  0
  152.4858  142.3743  159.8473 C   0  0  0  0  0  0  0  0  0  0  0  0
  151.7548  142.6179  158.5446 C   0  0  0  0  0  0  0  0  0  0  0  0
  153.3917  141.3734  159.8533 N   0  0  0  0  0  0  0  0  0  0  0  0
  154.9810  138.9117  160.0275 C   0  0  2  0  0  0  0  0  0  0  0  0
  155.2428  139.2829  158.7941 O   0  5  0  0  0  0  0  0  0  0  0  0
  153.6463  138.1155  160.0722 C   0  0  0  0  0  0  0  0  0  0  0  0
  152.6471  138.8700  159.6103 F   0  0  0  0  0  0  0  0  0  0  0  0
  153.7009  137.0069  159.3321 F   0  0  0  0  0  0  0  0  0  0  0  0
  153.3544  137.7655  161.3269 F   0  0  0  0  0  0  0  0  0  0  0  0
  156.1609  138.0696  160.5339 C   0  0  0  0  0  0  0  0  0  0  0  0
  159.8248  141.5163  161.6070 H   0  0  0  0  0  0  0  0  0  0  0  0
  159.3597  139.8454  161.2853 H   0  0  0  0  0  0  0  0  0  0  0  0
  160.5019  140.2168  162.5894 H   0  0  0  0  0  0  0  0  0  0  0  0
  159.0315  139.1352  164.2086 H   0  0  0  0  0  0  0  0  0  0  0  0
  157.3502  139.6597  164.3109 H   0  0  0  0  0  0  0  0  0  0  0  0
  158.6551  138.2504  161.9181 H   0  0  0  0  0  0  0  0  0  0  0  0
  157.5455  137.5118  163.0450 H   0  0  0  0  0  0  0  0  0  0  0  0
  152.1774  144.4529  163.3110 H   0  0  0  0  0  0  0  0  0  0  0  0
  153.7682  143.8881  163.8308 H   0  0  0  0  0  0  0  0  0  0  0  0
  152.3279  142.9266  164.1909 H   0  0  0  0  0  0  0  0  0  0  0  0
  151.5060  143.9542  160.9925 H   0  0  0  0  0  0  0  0  0  0  0  0
  151.1018  143.4881  158.6160 H   0  0  0  0  0  0  0  0  0  0  0  0
  151.1441  141.7522  158.2868 H   0  0  0  0  0  0  0  0  0  0  0  0
  152.4660  142.7904  157.7363 H   0  0  0  0  0  0  0  0  0  0  0  0
  156.9635  137.9451  159.8040 H   0  0  0  0  0  0  0  0  0  0  0  0
  155.8528  137.0772  160.8639 H   0  0  0  0  0  0  0  0  0  0  0  0
  1  2  1  0  0  0  0
  1 23  1  0  0  0  0
  1 24  1  0  0  0  0
  1 25  1  0  0  0  0
  2  3  1  0  0  0  0
  3  4  1  0  0  0  0
  3 26  1  0  0  0  0
  3 27  1  0  0  0  0
  4  5  1  0  0  0  0
  4 28  1  0  0  0  0
  4 29  1  0  0  0  0
  5 22  1  0  0  0  0
  5  6  2  0  0  0  0
  6  7  1  0  0  0  0
  7  8  1  0  0  0  0
  7 16  1  0  0  0  0
  8 15  1  0  0  0  0
  8  9  2  0  0  0  0
  9 10  1  0  0  0  0
 10 11  1  0  0  0  0
 10 12  2  0  0  0  0
 11 30  1  0  0  0  0
 11 31  1  0  0  0  0
 11 32  1  0  0  0  0
 12 13  1  0  0  0  0
 12 33  1  0  0  0  0
 13 14  1  0  0  0  0
 13 15  2  0  0  0  0
 14 34  1  0  0  0  0
 14 35  1  0  0  0  0
 14 36  1  0  0  0  0
 16 17  1  0  0  0  0
 16 18  1  0  0  0  0
 16 22  1  0  0  0  0
 18 19  1  0  0  0  0
 18 20  1  0  0  0  0
 18 21  1  0  0  0  0
 22 37  1  0  0  0  0
 22 38  1  0  0  0  0
M  CHG  1  17  -1
M  END
> <s_m_source_file>
AV-unprocessed.smi

> <i_m_source_file_index>
2618

> <i_lp_mmshare_version>
43012

> <i_f3d_flags>
0

> <s_epik_input>
W0NIM11PW0NIMl1bQ0gyXUMoW0NIMl0xKT1OTihbQ0BAXTEoW09IXSlDKEYpKEYpRiljMm5jKFtDSDNdKVtjSF1jKG4yKVtDSDNd

> <s_epik_cmdline>
J2VwaWtfcHl0aG9uJywgJy1waCcsICc3LjAnLCAnLXRuJywgJzgnLCAnLW1hJywgJzIwMCcsICctbWV0YWxfYmluZGluZycsICctaW1hZScsICc8aW5maWxlLm1hZT4nLCAnLW9tYWUnLCAnPG91dGZpbGUubWFlPic=

> <r_lp_tautomer_probability>
1

> <r_epik_Ionization_Penalty>
1.35617

> <r_epik_Ionization_Penalty_Charging>
1.35566

> <r_epik_Ionization_Penalty_Neutral>
0.000506926

> <r_epik_State_Penalty>
1.43411

> <r_epik_Charging_Adjusted_Penalty>
2.78977

> <i_epik_Tot_Q>
-1

> <i_epik_Tot_abs_Q>
1

> <r_epik_Metal_State_Penalty>
1.43499

> <b_epik_Metal_Only>
0

> <s_epik_Chemistry_Notes>
This compound has an imine and may undergo hydrolysis.

> <s_lp_Force_Field>
OPLS_2005

> <r_lp_Energy>
21.8368

> <b_lp_Chiralities_Consistent>
1

> <s_lp_Variant>
AV-unprocessed.smi:2618-4

> <Gold.Version>
5.8.1

> <Gold.Id.Protein>
6NUR|6NUR_protein|mol2

> <Gold.PLP.Fitness>
40.6581

> <Gold.PLP.PLP>
-34.9793

> <Gold.PLP.part.hbond>
-4.0000

> <Gold.PLP.part.metal>
0.0000

> <Gold.PLP.part.buried>
-3.5673

> <Gold.PLP.part.nonpolar>
-27.3795

> <Gold.PLP.part.repulsive>
0.0081

> <Gold.PLP.ligand.clash>
0.0000

> <Gold.PLP.ligand.torsion>
0.2612

> <Gold.PLP.Chemscore.Hbond>
2.0000

> <Gold.PLP.Chemscore.CHOScore>
0.0000

> <Gold.PLP.Chemscore.Metal>
0.0000

> <Gold.Chemscore.Hbonds>
donor molecule, donor type, donor heavy atom, donor atom, acceptor molecule, acceptor atom, score
      P1  H  7997  8009       L1    17  2.00

> <Gold.PLP.Chemscore.Internal.Correction>
0.2012

> <Gold.Rescore>
     Score         DG    S(hbond)    S(metal)    S(lipo)     H(rot)  DE(clash)    DE(int)     intcor
     10.15     -13.42       1.00        0.00      71.60       1.47       0.12       3.14       ----

> <Gold.Chemscore.Fitness>
10.1469

> <Gold.Chemscore.DG>
-13.4153

> <Gold.Chemscore.ZeroCoef>
-5.4800

> <Gold.Chemscore.Hbond>
0.9978

> <Gold.Chemscore.Metal>
0.0000

> <Gold.Chemscore.Lipo>
71.5952

> <Gold.Chemscore.Internal_Hbond>
0.0000

> <Gold.Chemscore.DEClash>
0.1237

> <Gold.Chemscore.DEInternal>
3.1447

> <Gold.Chemscore.Rot>
1.4742

> <Gold.Chemscore.Internal.Correction>
   9.000000E+99

> <Gold.Chemscore.Hbonds>
donor molecule, donor type, donor heavy atom, donor atom, acceptor molecule, acceptor atom, score
      P1  H  7997  8009       L1    17  0.99

> <Gold.Chemscore.Hbond.Weighted>
-3.3327

> <Gold.Chemscore.Metal.Weighted>
-0.0000

> <Gold.Chemscore.Lipo.Weighted>
-8.3766

> <Gold.Chemscore.Internal_Hbond.Weighted>
0.0000

> <Gold.Chemscore.DEClash.Weighted>
0.1237

> <Gold.Chemscore.DEInternal.Weighted>
3.1447

> <Gold.Chemscore.Rot.Weighted>
3.7740

> <Gold.Chemscore.Internal.Correction.Weighted>
   9.000000E+99

> <Gold.Protein.RotatedTorsions>
[ 6907 6896 6895 6894 ] final  164.52 input  -60.11 | X-H torsion
[ 7974 7965 7964 7962 ] final  -57.49 input  175.53 | X-H torsion
[ 8008 7997 7996 7995 ] final  104.59 input   59.86 | X-H torsion
[ 10167 10162 10161 10158 ] final -155.87 input  -65.29 | X-H torsion
[ 10718 10713 10712 10709 ] final  120.87 input   66.30 | X-H torsion
[ 10763 10752 10751 10750 ] final -144.42 input  -60.55 | X-H torsion
[ 11005 11000 10999 10996 ] final -156.33 input  -57.11 | X-H torsion

> <Gold.Protein.ActiveResidues>
 VAL166  LYS551  ARG553  GLY616  TRP617  ASP618  TYR619  PRO620  LYS621  CYS622 
 ASP623  PHE694  ASN695  SER759  ASP760  ASP761  ALA762  ILE779  LEU786  VAL792 
 PHE793  MET794  SER795  GLU796  ALA797  LYS798  CYS799  TRP800  GLU811  SER814 

> <Gold.Protein.RotatedAtoms>
  151.9085  133.3555  159.3855 H   0  0  0  0  0  0  0  0  0  0  0  0  # atno 6907 bound_to 6896
  150.7063  134.4756  159.5455 H   0  0  0  0  0  0  0  0  0  0  0  0  # atno 6908 bound_to 6896
  152.2357  134.8278  160.0518 H   0  0  0  0  0  0  0  0  0  0  0  0  # atno 6909 bound_to 6896
  145.8504  140.8356  142.9988 H   0  0  0  0  0  0  0  0  0  0  0  0  # atno 7974 bound_to 7965
  156.1586  140.3145  155.8769 H   0  0  0  0  0  0  0  0  0  0  0  0  # atno 8008 bound_to 7997
  155.3828  140.0489  157.3060 H   0  0  0  0  0  0  0  0  0  0  0  0  # atno 8009 bound_to 7997
  154.5125  140.2169  155.9140 H   0  0  0  0  0  0  0  0  0  0  0  0  # atno 8010 bound_to 7997
  139.6896  143.9443  152.2378 H   0  0  0  0  0  0  0  0  0  0  0  0  # atno 10167 bound_to 10162
  157.5859  131.1070  150.8095 H   0  0  0  0  0  0  0  0  0  0  0  0  # atno 10718 bound_to 10713
  154.8428  135.3441  154.6343 H   0  0  0  0  0  0  0  0  0  0  0  0  # atno 10763 bound_to 10752
  153.6954  135.6972  153.5083 H   0  0  0  0  0  0  0  0  0  0  0  0  # atno 10764 bound_to 10752
  153.2563  135.4337  155.0804 H   0  0  0  0  0  0  0  0  0  0  0  0  # atno 10765 bound_to 10752
  140.6767  134.4189  157.5229 H   0  0  0  0  0  0  0  0  0  0  0  0  # atno 11005 bound_to 11000
  144.6729  140.0945  143.7463 LP  0  0  0  0  0  0  0  0  0  0  0  0  # atno 17320 bound_to 7965
  145.9364  139.2640  143.1295 LP  0  0  0  0  0  0  0  0  0  0  0  0  # atno 17321 bound_to 7965
  139.9256  144.6773  150.8416 LP  0  0  0  0  0  0  0  0  0  0  0  0  # atno 17342 bound_to 10162
  140.7678  143.3344  151.2340 LP  0  0  0  0  0  0  0  0  0  0  0  0  # atno 17343 bound_to 10162
  156.8529  130.5086  149.5310 LP  0  0  0  0  0  0  0  0  0  0  0  0  # atno 17370 bound_to 10713
  156.0909  130.5895  150.9730 LP  0  0  0  0  0  0  0  0  0  0  0  0  # atno 17371 bound_to 10713
  139.8964  134.8660  156.2088 LP  0  0  0  0  0  0  0  0  0  0  0  0  # atno 17394 bound_to 11000
  141.0349  133.6968  156.1496 LP  0  0  0  0  0  0  0  0  0  0  0  0  # atno 17395 bound_to 11000

$$$$
