AV-unprocessed.smi:2424|AV-procd|sdf|9559|dock4
  -GOLD-   2272013193D 1   1.00000     0.00000
 Structure written by MMmdl.
 50 51  0  0  0  0  0  0  0  0  1 V2000
  147.6815  140.3782  154.4073 C   0  0  0  0  0  0  0  0  0  0  0  0
  149.2089  140.2059  154.4293 C   0  0  0  0  0  0  0  0  0  0  0  0
  149.8273  139.9976  155.8371 C   0  0  0  0  0  0  0  0  0  0  0  0
  149.3318  141.1341  156.7654 C   0  0  0  0  0  0  0  0  0  0  0  0
  150.1161  141.3019  158.0777 C   0  0  0  0  0  0  0  0  0  0  0  0
  149.7262  138.5792  156.4720 C   0  0  1  0  0  0  0  0  0  0  0  0
  149.5862  137.5042  155.4879 N   0  0  0  0  0  0  0  0  0  0  0  0
  149.6976  136.1949  155.7446 C   0  0  0  0  0  0  0  0  0  0  0  0
  149.9559  135.7418  156.8590 O   0  0  0  0  0  0  0  0  0  0  0  0
  149.4704  135.4727  154.6331 N   0  0  0  0  0  0  0  0  0  0  0  0
  149.5470  134.0851  154.4578 C   0  0  0  0  0  0  0  0  0  0  0  0
  148.8311  133.5346  153.4622 C   0  0  0  0  0  0  0  0  0  0  0  0
  148.8545  132.1596  153.2177 N   0  0  0  0  0  0  0  0  0  0  0  0
  149.5839  131.2728  153.9321 C   0  0  0  0  0  0  0  0  0  0  0  0
  149.5450  130.0736  153.6626 O   0  0  0  0  0  0  0  0  0  0  0  0
  150.3989  131.8493  155.0139 C   0  0  0  0  0  0  0  0  0  0  0  0
  151.2673  130.9091  155.8306 C   0  0  0  0  0  0  0  0  0  0  0  0
  150.3714  133.1811  155.2525 C   0  0  0  0  0  0  0  0  0  0  0  0
  151.1773  138.7158  156.9642 C   0  0  1  0  0  0  0  0  0  0  0  0
  152.1027  137.5033  157.0496 C   0  0  0  0  0  0  0  0  0  0  0  0
  151.3669  139.7938  155.8806 C   0  0  1  0  0  0  0  0  0  0  0  0
  151.8693  139.2587  154.6604 O   0  0  0  0  0  0  0  0  0  0  0  0
  153.2586  138.9827  154.7035 C   0  0  0  0  0  0  0  0  0  0  0  0
  148.2793  131.8181  152.4614 H   0  0  0  0  0  0  0  0  0  0  0  0
  147.3438  140.6476  153.4065 H   0  0  0  0  0  0  0  0  0  0  0  0
  147.3596  141.1682  155.0859 H   0  0  0  0  0  0  0  0  0  0  0  0
  147.1628  139.4607  154.6830 H   0  0  0  0  0  0  0  0  0  0  0  0
  149.4933  139.3975  153.7568 H   0  0  0  0  0  0  0  0  0  0  0  0
  149.6226  141.0992  153.9621 H   0  0  0  0  0  0  0  0  0  0  0  0
  149.3841  142.0875  156.2398 H   0  0  0  0  0  0  0  0  0  0  0  0
  148.2730  141.0154  156.9927 H   0  0  0  0  0  0  0  0  0  0  0  0
  149.7854  142.1958  158.6064 H   0  0  0  0  0  0  0  0  0  0  0  0
  151.1860  141.4056  157.8982 H   0  0  0  0  0  0  0  0  0  0  0  0
  149.9661  140.4596  158.7522 H   0  0  0  0  0  0  0  0  0  0  0  0
  149.0196  138.5191  157.3009 H   0  0  0  0  0  0  0  0  0  0  0  0
  149.3686  137.7868  154.5433 H   0  0  0  0  0  0  0  0  0  0  0  0
  149.2053  135.9912  153.8085 H   0  0  0  0  0  0  0  0  0  0  0  0
  148.1885  134.0887  152.7932 H   0  0  0  0  0  0  0  0  0  0  0  0
  151.8310  131.4472  156.5934 H   0  0  0  0  0  0  0  0  0  0  0  0
  151.9801  130.3922  155.1871 H   0  0  0  0  0  0  0  0  0  0  0  0
  150.6518  130.1612  156.3314 H   0  0  0  0  0  0  0  0  0  0  0  0
  151.0007  133.5616  156.0409 H   0  0  0  0  0  0  0  0  0  0  0  0
  151.1550  139.2110  157.9361 H   0  0  0  0  0  0  0  0  0  0  0  0
  152.2272  137.0132  156.0840 H   0  0  0  0  0  0  0  0  0  0  0  0
  151.7109  136.7607  157.7448 H   0  0  0  0  0  0  0  0  0  0  0  0
  153.0937  137.7899  157.4014 H   0  0  0  0  0  0  0  0  0  0  0  0
  151.9034  140.6829  156.2177 H   0  0  0  0  0  0  0  0  0  0  0  0
  153.5708  138.5362  153.7599 H   0  0  0  0  0  0  0  0  0  0  0  0
  153.5069  138.2868  155.5049 H   0  0  0  0  0  0  0  0  0  0  0  0
  153.8329  139.8985  154.8481 H   0  0  0  0  0  0  0  0  0  0  0  0
  1  2  1  0  0  0  0
  1 25  1  0  0  0  0
  1 26  1  0  0  0  0
  1 27  1  0  0  0  0
  2  3  1  0  0  0  0
  2 28  1  0  0  0  0
  2 29  1  0  0  0  0
  3 21  1  0  0  0  0
  3  4  1  0  0  0  0
  3  6  1  0  0  0  0
  4  5  1  0  0  0  0
  4 30  1  0  0  0  0
  4 31  1  0  0  0  0
  5 32  1  0  0  0  0
  5 33  1  0  0  0  0
  5 34  1  0  0  0  0
  6  7  1  0  0  0  0
  6 19  1  0  0  0  0
  6 35  1  0  0  0  0
  7  8  1  0  0  0  0
  7 36  1  0  0  0  0
  8  9  2  0  0  0  0
  8 10  1  0  0  0  0
 10 11  1  0  0  0  0
 10 37  1  0  0  0  0
 11 18  1  0  0  0  0
 11 12  2  0  0  0  0
 12 13  1  0  0  0  0
 12 38  1  0  0  0  0
 13 24  1  0  0  0  0
 13 14  1  0  0  0  0
 14 15  2  0  0  0  0
 14 16  1  0  0  0  0
 16 17  1  0  0  0  0
 16 18  2  0  0  0  0
 17 39  1  0  0  0  0
 17 40  1  0  0  0  0
 17 41  1  0  0  0  0
 18 42  1  0  0  0  0
 19 20  1  0  0  0  0
 19 21  1  0  0  0  0
 19 43  1  0  0  0  0
 20 44  1  0  0  0  0
 20 45  1  0  0  0  0
 20 46  1  0  0  0  0
 21 22  1  0  0  0  0
 21 47  1  0  0  0  0
 22 23  1  0  0  0  0
 23 48  1  0  0  0  0
 23 49  1  0  0  0  0
 23 50  1  0  0  0  0
M  END
> <s_m_source_file>
AV-unprocessed.smi

> <i_m_source_file_index>
2424

> <i_lp_mmshare_version>
43012

> <i_f3d_flags>
0

> <s_epik_input>
W0NIM11PW0NAQEhdMVtDQEhdKFtDSDNdKVtDQEBIXShDMShbQ0gyXVtDSDNdKVtDSDJdW0NIM10pW05IXUMoPU8pW05IXWMyW2NIXVtuSF1jKD1PKWMoW0NIM10pW2NIXTI=

> <s_epik_cmdline>
J2VwaWtfcHl0aG9uJywgJy1waCcsICc3LjAnLCAnLXRuJywgJzgnLCAnLW1hJywgJzIwMCcsICctbWV0YWxfYmluZGluZycsICctaW1hZScsICc8aW5maWxlLm1hZT4nLCAnLW9tYWUnLCAnPG91dGZpbGUubWFlPic=

> <r_lp_tautomer_probability>
1

> <r_epik_Ionization_Penalty>
4.7326e-05

> <r_epik_Ionization_Penalty_Charging>
2.70169e-05

> <r_epik_Ionization_Penalty_Neutral>
2.0309e-05

> <r_epik_State_Penalty>
-0

> <r_epik_Charging_Adjusted_Penalty>
2.70169e-05

> <i_epik_Tot_Q>
0

> <i_epik_Tot_abs_Q>
0

> <r_epik_Metal_State_Penalty>
0.0198736

> <b_epik_Metal_Only>
0

> <s_lp_Force_Field>
OPLS_2005

> <r_lp_Energy>
37.8943

> <b_lp_Chiralities_Consistent>
1

> <s_lp_Variant>
AV-unprocessed.smi:2424-1

> <Gold.Version>
5.8.1

> <Gold.Id.Protein>
6NUR|6NUR_protein|mol2

> <Gold.PLP.Fitness>
38.8682

> <Gold.PLP.PLP>
-31.3605

> <Gold.PLP.part.hbond>
-2.0000

> <Gold.PLP.part.metal>
0.0000

> <Gold.PLP.part.buried>
-2.7524

> <Gold.PLP.part.nonpolar>
-26.7484

> <Gold.PLP.part.repulsive>
0.2092

> <Gold.PLP.ligand.clash>
0.0000

> <Gold.PLP.ligand.torsion>
0.6130

> <Gold.PLP.Chemscore.Hbond>
1.9424

> <Gold.PLP.Chemscore.CHOScore>
0.7644

> <Gold.PLP.Chemscore.Metal>
0.0000

> <Gold.Chemscore.Hbonds>
donor molecule, donor type, donor heavy atom, donor atom, acceptor molecule, acceptor atom, score
      L1  H    10    37       P1  7948  1.00
      P1  H  7989  7998       L1    22  0.99
      L1  C    12    38       P1  7948  0.73

> <Gold.PLP.Chemscore.Internal.Correction>
0.6134

> <Gold.Rescore>
     Score         DG    S(hbond)    S(metal)    S(lipo)     H(rot)  DE(clash)    DE(int)     intcor
     12.23     -14.10       0.93        0.00      81.19       1.55       0.08       1.79       ----

> <Gold.Chemscore.Fitness>
12.2334

> <Gold.Chemscore.DG>
-14.1014

> <Gold.Chemscore.ZeroCoef>
-5.4800

> <Gold.Chemscore.Hbond>
0.9255

> <Gold.Chemscore.Metal>
0.0000

> <Gold.Chemscore.Lipo>
81.1852

> <Gold.Chemscore.Internal_Hbond>
0.0000

> <Gold.Chemscore.DEClash>
0.0757

> <Gold.Chemscore.DEInternal>
1.7923

> <Gold.Chemscore.Rot>
1.5502

> <Gold.Chemscore.Internal.Correction>
   9.000000E+99

> <Gold.Chemscore.Hbonds>
donor molecule, donor type, donor heavy atom, donor atom, acceptor molecule, acceptor atom, score
      L1  H    10    37       P1  7948  0.82
      L1  H    13    24       P1 10747  0.01
      P1  H  7989  7998       L1    22  0.13

> <Gold.Chemscore.Hbond.Weighted>
-3.0912

> <Gold.Chemscore.Metal.Weighted>
-0.0000

> <Gold.Chemscore.Lipo.Weighted>
-9.4987

> <Gold.Chemscore.Internal_Hbond.Weighted>
0.0000

> <Gold.Chemscore.DEClash.Weighted>
0.0757

> <Gold.Chemscore.DEInternal.Weighted>
1.7923

> <Gold.Chemscore.Rot.Weighted>
3.9685

> <Gold.Chemscore.Internal.Correction.Weighted>
   9.000000E+99

> <Gold.Protein.RotatedTorsions>
[ 6907 6896 6895 6894 ] final   -5.46 input  -60.11 | X-H torsion
[ 7974 7965 7964 7962 ] final    7.79 input  175.53 | X-H torsion
[ 8008 7997 7996 7995 ] final   -4.75 input   59.86 | X-H torsion
[ 10167 10162 10161 10158 ] final  -36.01 input  -65.29 | X-H torsion
[ 10718 10713 10712 10709 ] final  -63.14 input   66.30 | X-H torsion
[ 10763 10752 10751 10750 ] final  102.82 input  -60.55 | X-H torsion
[ 11005 11000 10999 10996 ] final  148.85 input  -57.11 | X-H torsion

> <Gold.Protein.ActiveResidues>
 VAL166  LYS551  ARG553  GLY616  TRP617  ASP618  TYR619  PRO620  LYS621  CYS622 
 ASP623  PHE694  ASN695  SER759  ASP760  ASP761  ALA762  ILE779  LEU786  VAL792 
 PHE793  MET794  SER795  GLU796  ALA797  LYS798  CYS799  TRP800  GLU811  SER814 

> <Gold.Protein.RotatedAtoms>
  151.4813  135.1052  159.9778 H   0  0  0  0  0  0  0  0  0  0  0  0  # atno 6907 bound_to 6896
  152.4778  133.8176  159.7047 H   0  0  0  0  0  0  0  0  0  0  0  0  # atno 6908 bound_to 6896
  150.8828  133.7287  159.2953 H   0  0  0  0  0  0  0  0  0  0  0  0  # atno 6909 bound_to 6896
  146.2423  140.0030  142.8414 H   0  0  0  0  0  0  0  0  0  0  0  0  # atno 7974 bound_to 7965
  154.6111  140.2476  155.7668 H   0  0  0  0  0  0  0  0  0  0  0  0  # atno 8008 bound_to 7997
  156.2371  140.2946  156.0292 H   0  0  0  0  0  0  0  0  0  0  0  0  # atno 8009 bound_to 7997
  155.2051  140.0395  157.2914 H   0  0  0  0  0  0  0  0  0  0  0  0  # atno 8010 bound_to 7997
  140.7152  143.3438  151.2300 H   0  0  0  0  0  0  0  0  0  0  0  0  # atno 10167 bound_to 10162
  156.0810  130.4217  150.1235 H   0  0  0  0  0  0  0  0  0  0  0  0  # atno 10718 bound_to 10713
  153.3446  135.3997  155.1598 H   0  0  0  0  0  0  0  0  0  0  0  0  # atno 10763 bound_to 10752
  154.8650  135.3642  154.5301 H   0  0  0  0  0  0  0  0  0  0  0  0  # atno 10764 bound_to 10752
  153.5749  135.7078  153.5548 H   0  0  0  0  0  0  0  0  0  0  0  0  # atno 10765 bound_to 10752
  140.0994  134.8992  157.1773 H   0  0  0  0  0  0  0  0  0  0  0  0  # atno 11005 bound_to 11000
  145.1397  140.9565  143.4495 LP  0  0  0  0  0  0  0  0  0  0  0  0  # atno 17320 bound_to 7965
  145.0307  139.3343  143.6026 LP  0  0  0  0  0  0  0  0  0  0  0  0  # atno 17321 bound_to 7965
  139.6952  143.9625  152.2879 LP  0  0  0  0  0  0  0  0  0  0  0  0  # atno 17342 bound_to 10162
  139.9299  144.6747  150.8373 LP  0  0  0  0  0  0  0  0  0  0  0  0  # atno 17343 bound_to 10162
  156.9266  130.9700  151.3540 LP  0  0  0  0  0  0  0  0  0  0  0  0  # atno 17370 bound_to 10713
  157.5926  130.8455  149.8682 LP  0  0  0  0  0  0  0  0  0  0  0  0  # atno 17371 bound_to 10713
  140.3240  134.2884  155.7240 LP  0  0  0  0  0  0  0  0  0  0  0  0  # atno 17394 bound_to 11000
  141.2101  133.7728  156.9951 LP  0  0  0  0  0  0  0  0  0  0  0  0  # atno 17395 bound_to 11000

$$$$
