AV-unprocessed.smi:1484|AV-procd|sdf|5996|dock4
  -GOLD-   22720 6 93D 1   1.00000     0.00000
 Structure written by MMmdl.
 37 38  0  0  0  0  0  0  0  0  2 V2000
  152.9830  142.7755  162.6034 C   0  0  0  0  0  0  0  0  0  0  0  0
  152.3860  143.1021  161.2275 C   0  0  1  0  0  0  0  0  0  0  0  0
  152.1533  144.6161  161.0592 C   0  0  0  0  0  0  0  0  0  0  0  0
  151.5657  144.9503  159.6789 C   0  0  0  0  0  0  0  0  0  0  0  0
  152.4523  144.4032  158.5457 C   0  0  0  0  0  0  0  0  0  0  0  0
  152.7025  142.8897  158.6892 C   0  0  2  0  0  0  0  0  0  0  0  0
  151.4608  142.1630  158.4489 N   0  0  0  0  0  0  0  0  0  0  0  0
  151.3033  141.0654  157.6917 C   0  0  0  0  0  0  0  0  0  0  0  0
  152.2258  140.5464  157.0634 O   0  0  0  0  0  0  0  0  0  0  0  0
  149.8970  140.4423  157.6287 C   0  0  0  0  0  0  0  0  0  0  0  0
  149.1467  140.7600  156.4015 N   0  0  0  0  0  0  0  0  0  0  0  0
  147.8232  141.3270  156.6488 N   0  5  0  0  0  0  0  0  0  0  0  0
  147.0881  141.7763  155.5973 C   0  0  0  0  0  0  0  0  0  0  0  0
  145.9896  142.3100  155.7316 O   0  0  0  0  0  0  0  0  0  0  0  0
  147.6334  141.6079  154.2606 C   0  0  0  0  0  0  0  0  0  0  0  0
  148.8415  141.0458  154.0590 C   0  0  0  0  0  0  0  0  0  0  0  0
  149.6823  140.5892  155.1591 C   0  0  0  0  0  0  0  0  0  0  0  0
  150.8011  140.1066  154.9835 O   0  0  0  0  0  0  0  0  0  0  0  0
  153.2731  142.5610  160.0856 C   0  0  0  0  0  0  0  0  0  0  0  0
  153.9585  143.2446  162.7345 H   0  0  0  0  0  0  0  0  0  0  0  0
  153.1103  141.7000  162.7296 H   0  0  0  0  0  0  0  0  0  0  0  0
  152.3334  143.1258  163.4061 H   0  0  0  0  0  0  0  0  0  0  0  0
  151.4160  142.6053  161.1707 H   0  0  0  0  0  0  0  0  0  0  0  0
  151.4816  144.9783  161.8382 H   0  0  0  0  0  0  0  0  0  0  0  0
  153.0952  145.1505  161.1904 H   0  0  0  0  0  0  0  0  0  0  0  0
  150.5607  144.5329  159.5987 H   0  0  0  0  0  0  0  0  0  0  0  0
  151.4564  146.0301  159.5749 H   0  0  0  0  0  0  0  0  0  0  0  0
  151.9972  144.6199  157.5782 H   0  0  0  0  0  0  0  0  0  0  0  0
  153.4086  144.9272  158.5557 H   0  0  0  0  0  0  0  0  0  0  0  0
  153.4280  142.5907  157.9307 H   0  0  0  0  0  0  0  0  0  0  0  0
  150.6417  142.5004  158.9350 H   0  0  0  0  0  0  0  0  0  0  0  0
  149.9861  139.3617  157.7531 H   0  0  0  0  0  0  0  0  0  0  0  0
  149.3376  140.7862  158.5004 H   0  0  0  0  0  0  0  0  0  0  0  0
  147.0545  141.9357  153.4097 H   0  0  0  0  0  0  0  0  0  0  0  0
  149.2054  140.9374  153.0482 H   0  0  0  0  0  0  0  0  0  0  0  0
  154.2710  142.9933  160.1700 H   0  0  0  0  0  0  0  0  0  0  0  0
  153.4033  141.4833  160.1919 H   0  0  0  0  0  0  0  0  0  0  0  0
  1  2  1  0  0  0  0
  1 20  1  0  0  0  0
  1 21  1  0  0  0  0
  1 22  1  0  0  0  0
  2 19  1  0  0  0  0
  2  3  1  0  0  0  0
  2 23  1  0  0  0  0
  3  4  1  0  0  0  0
  3 24  1  0  0  0  0
  3 25  1  0  0  0  0
  4  5  1  0  0  0  0
  4 26  1  0  0  0  0
  4 27  1  0  0  0  0
  5  6  1  0  0  0  0
  5 28  1  0  0  0  0
  5 29  1  0  0  0  0
  6  7  1  0  0  0  0
  6 19  1  0  0  0  0
  6 30  1  0  0  0  0
  7  8  1  0  0  0  0
  7 31  1  0  0  0  0
  8  9  2  0  0  0  0
  8 10  1  0  0  0  0
 10 32  1  0  0  0  0
 10 33  1  0  0  0  0
 10 11  1  0  0  0  0
 11 12  1  0  0  0  0
 11 17  1  0  0  0  0
 12 13  1  0  0  0  0
 13 14  2  0  0  0  0
 13 15  1  0  0  0  0
 15 34  1  0  0  0  0
 15 16  2  0  0  0  0
 16 35  1  0  0  0  0
 16 17  1  0  0  0  0
 17 18  2  0  0  0  0
 19 36  1  0  0  0  0
 19 37  1  0  0  0  0
M  CHG  1  12  -1
M  END
> <s_m_source_file>
AV-unprocessed.smi

> <i_m_source_file_index>
1484

> <i_lp_mmshare_version>
43012

> <i_f3d_flags>
0

> <s_epik_input>
W0NIM11bQ0BASF0xW0NIMl1bQ0gyXVtDSDJdW0NASF0oW0NIMl0xKVtOSF1DKD1PKVtDSDJdbjJbbkhdYyg9TylbY0hdW2NIXWMyPU8=

> <s_epik_cmdline>
J2VwaWtfcHl0aG9uJywgJy1waCcsICc3LjAnLCAnLXRuJywgJzgnLCAnLW1hJywgJzIwMCcsICctbWV0YWxfYmluZGluZycsICctaW1hZScsICc8aW5maWxlLm1hZT4nLCAnLW9tYWUnLCAnPG91dGZpbGUubWFlPic=

> <r_lp_tautomer_probability>
1

> <r_epik_Ionization_Penalty>
0.101352

> <r_epik_Ionization_Penalty_Charging>
0.101352

> <r_epik_Ionization_Penalty_Neutral>
1.90469e-08

> <r_epik_State_Penalty>
0.0358555

> <r_epik_Charging_Adjusted_Penalty>
0.137208

> <i_epik_Tot_Q>
-1

> <i_epik_Tot_abs_Q>
1

> <r_epik_Metal_State_Penalty>
0.0358555

> <b_epik_Metal_Only>
0

> <s_lp_Force_Field>
OPLS_2005

> <r_lp_Energy>
21.3013

> <b_lp_Chiralities_Consistent>
1

> <s_lp_Variant>
AV-unprocessed.smi:1484-4

> <Gold.Version>
5.8.1

> <Gold.Id.Protein>
6NUR|6NUR_protein|mol2

> <Gold.PLP.Fitness>
47.0624

> <Gold.PLP.PLP>
-43.7931

> <Gold.PLP.part.hbond>
-1.7292

> <Gold.PLP.part.metal>
0.0000

> <Gold.PLP.part.buried>
-4.8958

> <Gold.PLP.part.nonpolar>
-36.8889

> <Gold.PLP.part.repulsive>
0.3377

> <Gold.PLP.ligand.clash>
0.0000

> <Gold.PLP.ligand.torsion>
0.5261

> <Gold.PLP.Chemscore.Hbond>
1.4368

> <Gold.PLP.Chemscore.CHOScore>
0.0000

> <Gold.PLP.Chemscore.Metal>
0.0000

> <Gold.Chemscore.Hbonds>
donor molecule, donor type, donor heavy atom, donor atom, acceptor molecule, acceptor atom, score
      P1  H  7989  7998       L1    18  1.00
      P1  H  7997  8008       L1     9  0.47

> <Gold.PLP.Chemscore.Internal.Correction>
0.0111

> <Gold.Rescore>
     Score         DG    S(hbond)    S(metal)    S(lipo)     H(rot)  DE(clash)    DE(int)     intcor
     15.43     -18.88       1.61        0.00     104.70       1.65       0.22       3.23       ----

> <Gold.Chemscore.Fitness>
15.4325

> <Gold.Chemscore.DG>
-18.8817

> <Gold.Chemscore.ZeroCoef>
-5.4800

> <Gold.Chemscore.Hbond>
1.6132

> <Gold.Chemscore.Metal>
0.0000

> <Gold.Chemscore.Lipo>
104.7007

> <Gold.Chemscore.Internal_Hbond>
0.0000

> <Gold.Chemscore.DEClash>
0.2214

> <Gold.Chemscore.DEInternal>
3.2278

> <Gold.Chemscore.Rot>
1.6549

> <Gold.Chemscore.Internal.Correction>
   9.000000E+99

> <Gold.Chemscore.Hbonds>
donor molecule, donor type, donor heavy atom, donor atom, acceptor molecule, acceptor atom, score
      P1  H  7989  7998       L1    18  0.78
      P1  H  7997  8008       L1     9  0.46

> <Gold.Chemscore.Hbond.Weighted>
-5.3882

> <Gold.Chemscore.Metal.Weighted>
-0.0000

> <Gold.Chemscore.Lipo.Weighted>
-12.2500

> <Gold.Chemscore.Internal_Hbond.Weighted>
0.0000

> <Gold.Chemscore.DEClash.Weighted>
0.2214

> <Gold.Chemscore.DEInternal.Weighted>
3.2278

> <Gold.Chemscore.Rot.Weighted>
4.2364

> <Gold.Chemscore.Internal.Correction.Weighted>
   9.000000E+99

> <Gold.Protein.RotatedTorsions>
[ 6907 6896 6895 6894 ] final  -93.19 input  -60.11 | X-H torsion
[ 7974 7965 7964 7962 ] final   76.08 input  175.53 | X-H torsion
[ 8008 7997 7996 7995 ] final  -55.42 input   59.86 | X-H torsion
[ 10167 10162 10161 10158 ] final  128.05 input  -65.29 | X-H torsion
[ 10718 10713 10712 10709 ] final  -47.11 input   66.30 | X-H torsion
[ 10763 10752 10751 10750 ] final   10.49 input  -60.55 | X-H torsion
[ 11005 11000 10999 10996 ] final  155.16 input  -57.11 | X-H torsion

> <Gold.Protein.ActiveResidues>
 VAL166  LYS551  ARG553  GLY616  TRP617  ASP618  TYR619  PRO620  LYS621  CYS622 
 ASP623  PHE694  ASN695  SER759  ASP760  ASP761  ALA762  ILE779  LEU786  VAL792 
 PHE793  MET794  SER795  GLU796  ALA797  LYS798  CYS799  TRP800  GLU811  SER814 

> <Gold.Protein.RotatedAtoms>
  150.6918  134.2005  159.4320 H   0  0  0  0  0  0  0  0  0  0  0  0  # atno 6907 bound_to 6896
  151.9972  134.9945  160.0573 H   0  0  0  0  0  0  0  0  0  0  0  0  # atno 6908 bound_to 6896
  152.1613  133.4548  159.4899 H   0  0  0  0  0  0  0  0  0  0  0  0  # atno 6909 bound_to 6896
  145.7074  139.2603  143.1670 H   0  0  0  0  0  0  0  0  0  0  0  0  # atno 7974 bound_to 7965
  154.4194  140.1153  156.5474 H   0  0  0  0  0  0  0  0  0  0  0  0  # atno 8008 bound_to 7997
  155.6446  140.3496  155.4707 H   0  0  0  0  0  0  0  0  0  0  0  0  # atno 8009 bound_to 7997
  155.9843  140.1166  157.0687 H   0  0  0  0  0  0  0  0  0  0  0  0  # atno 8010 bound_to 7997
  139.5547  144.6839  151.4219 H   0  0  0  0  0  0  0  0  0  0  0  0  # atno 10167 bound_to 10162
  156.2116  130.4161  149.9107 H   0  0  0  0  0  0  0  0  0  0  0  0  # atno 10718 bound_to 10713
  153.2027  135.6858  153.8212 H   0  0  0  0  0  0  0  0  0  0  0  0  # atno 10763 bound_to 10752
  153.7472  135.3229  155.3316 H   0  0  0  0  0  0  0  0  0  0  0  0  # atno 10764 bound_to 10752
  154.8180  135.4672  154.0800 H   0  0  0  0  0  0  0  0  0  0  0  0  # atno 10765 bound_to 10752
  140.1556  134.8645  157.2509 H   0  0  0  0  0  0  0  0  0  0  0  0  # atno 11005 bound_to 11000
  146.0744  140.7834  142.9672 LP  0  0  0  0  0  0  0  0  0  0  0  0  # atno 17320 bound_to 7965
  144.6951  140.3391  143.7202 LP  0  0  0  0  0  0  0  0  0  0  0  0  # atno 17321 bound_to 7965
  140.6817  143.8067  150.7130 LP  0  0  0  0  0  0  0  0  0  0  0  0  # atno 17342 bound_to 10162
  140.1522  143.4347  152.2123 LP  0  0  0  0  0  0  0  0  0  0  0  0  # atno 17343 bound_to 10162
  156.6783  130.8848  151.3572 LP  0  0  0  0  0  0  0  0  0  0  0  0  # atno 17370 bound_to 10713
  157.7041  130.9366  150.0877 LP  0  0  0  0  0  0  0  0  0  0  0  0  # atno 17371 bound_to 10713
  140.2552  134.3636  155.7427 LP  0  0  0  0  0  0  0  0  0  0  0  0  # atno 17394 bound_to 11000
  141.2204  133.7338  156.8996 LP  0  0  0  0  0  0  0  0  0  0  0  0  # atno 17395 bound_to 11000

$$$$
