AV-unprocessed.smi:2822|AV-procd|sdf|10879|dock6
  -GOLD-   2272015323D 1   1.00000     0.00000
 Structure written by MMmdl.
 40 42  0  0  0  0  0  0  0  0  2 V2000
  146.7146  139.4746  157.7173 Cl  0  0  0  0  0  0  0  0  0  0  0  0
  146.9348  140.1211  156.1288 C   0  0  0  0  0  0  0  0  0  0  0  0
  145.8022  140.4015  155.3367 C   0  0  0  0  0  0  0  0  0  0  0  0
  145.9544  140.9072  154.0944 N   0  3  0  0  0  0  0  0  0  0  0  0
  147.1650  141.1647  153.5558 C   0  0  0  0  0  0  0  0  0  0  0  0
  148.3347  140.9050  154.2983 C   0  0  0  0  0  0  0  0  0  0  0  0
  148.2284  140.3748  155.6086 C   0  0  0  0  0  0  0  0  0  0  0  0
  149.3543  140.0935  156.3973 N   0  0  0  0  0  0  0  0  0  0  0  0
  150.7016  140.3019  155.8887 C   0  0  0  0  0  0  0  0  0  0  0  0
  151.5618  141.0930  156.8831 C   0  0  1  0  0  0  0  0  0  0  0  0
  150.9986  142.5052  157.1274 C   0  0  0  0  0  0  0  0  0  0  0  0
  151.7735  143.2332  158.1239 N   0  0  0  0  0  0  0  0  0  0  0  0
  151.2280  144.5707  158.3490 C   0  0  0  0  0  0  0  0  0  0  0  0
  152.0486  145.3737  159.3705 C   0  0  0  0  0  0  0  0  0  0  0  0
  152.1458  144.6075  160.6976 C   0  0  0  0  0  0  0  0  0  0  0  0
  152.6667  143.1833  160.4493 C   0  0  0  0  0  0  0  0  0  0  0  0
  151.8249  142.4669  159.3729 C   0  0  2  0  0  0  0  0  0  0  0  0
  152.3603  141.0423  159.1214 C   0  0  0  0  0  0  0  0  0  0  0  0
  151.5730  140.3956  158.1261 O   0  0  0  0  0  0  0  0  0  0  0  0
  144.7842  140.2368  155.6587 H   0  0  0  0  0  0  0  0  0  0  0  0
  147.1628  141.5672  152.5533 H   0  0  0  0  0  0  0  0  0  0  0  0
  149.2941  141.1146  153.8495 H   0  0  0  0  0  0  0  0  0  0  0  0
  149.2372  139.9404  157.3896 H   0  0  0  0  0  0  0  0  0  0  0  0
  151.1583  139.3271  155.7132 H   0  0  0  0  0  0  0  0  0  0  0  0
  150.6618  140.8211  154.9301 H   0  0  0  0  0  0  0  0  0  0  0  0
  152.5809  141.1725  156.4993 H   0  0  0  0  0  0  0  0  0  0  0  0
  150.9935  143.0616  156.1894 H   0  0  0  0  0  0  0  0  0  0  0  0
  149.9591  142.4306  157.4510 H   0  0  0  0  0  0  0  0  0  0  0  0
  151.2015  145.1178  157.4059 H   0  0  0  0  0  0  0  0  0  0  0  0
  150.1949  144.4966  158.6920 H   0  0  0  0  0  0  0  0  0  0  0  0
  153.0489  145.5559  158.9753 H   0  0  0  0  0  0  0  0  0  0  0  0
  151.5938  146.3511  159.5332 H   0  0  0  0  0  0  0  0  0  0  0  0
  152.7986  145.1348  161.3937 H   0  0  0  0  0  0  0  0  0  0  0  0
  151.1615  144.5603  161.1652 H   0  0  0  0  0  0  0  0  0  0  0  0
  153.7098  143.2276  160.1329 H   0  0  0  0  0  0  0  0  0  0  0  0
  152.6484  142.6176  161.3814 H   0  0  0  0  0  0  0  0  0  0  0  0
  150.8087  142.3694  159.7593 H   0  0  0  0  0  0  0  0  0  0  0  0
  153.4037  141.0679  158.8032 H   0  0  0  0  0  0  0  0  0  0  0  0
  152.3202  140.4522  160.0372 H   0  0  0  0  0  0  0  0  0  0  0  0
  145.1201  141.1022  153.5401 H   0  0  0  0  0  0  0  0  0  0  0  0
  1  2  1  0  0  0  0
  2  7  1  0  0  0  0
  2  3  2  0  0  0  0
  3  4  1  0  0  0  0
  3 20  1  0  0  0  0
  4  5  2  0  0  0  0
  4 40  1  0  0  0  0
  5  6  1  0  0  0  0
  5 21  1  0  0  0  0
  6  7  2  0  0  0  0
  6 22  1  0  0  0  0
  7  8  1  0  0  0  0
  8  9  1  0  0  0  0
  8 23  1  0  0  0  0
  9 10  1  0  0  0  0
  9 24  1  0  0  0  0
  9 25  1  0  0  0  0
 10 19  1  0  0  0  0
 10 11  1  0  0  0  0
 10 26  1  0  0  0  0
 11 12  1  0  0  0  0
 11 27  1  0  0  0  0
 11 28  1  0  0  0  0
 12 17  1  0  0  0  0
 12 13  1  0  0  0  0
 13 14  1  0  0  0  0
 13 29  1  0  0  0  0
 13 30  1  0  0  0  0
 14 15  1  0  0  0  0
 14 31  1  0  0  0  0
 14 32  1  0  0  0  0
 15 16  1  0  0  0  0
 15 33  1  0  0  0  0
 15 34  1  0  0  0  0
 16 17  1  0  0  0  0
 16 35  1  0  0  0  0
 16 36  1  0  0  0  0
 17 18  1  0  0  0  0
 17 37  1  0  0  0  0
 18 19  1  0  0  0  0
 18 38  1  0  0  0  0
 18 39  1  0  0  0  0
M  CHG  1   4   1
M  END
> <s_m_source_file>
AV-unprocessed.smi

> <i_m_source_file_index>
2822

> <i_lp_mmshare_version>
43012

> <i_f3d_flags>
0

> <s_epik_input>
Q2xjMVtjSF1uW2NIXVtjSF1jMVtOSF1bQ0gyXVtDQEhdKFtDSDJdMilPW0NIMl1bQ0BASF0oTjIzKVtDSDJdW0NIMl1bQ0gyXVtDSDJdMw==

> <s_epik_cmdline>
J2VwaWtfcHl0aG9uJywgJy1waCcsICc3LjAnLCAnLXRuJywgJzgnLCAnLW1hJywgJzIwMCcsICctbWV0YWxfYmluZGluZycsICctaW1hZScsICc8aW5maWxlLm1hZT4nLCAnLW9tYWUnLCAnPG91dGZpbGUubWFlPic=

> <r_epik_Ionization_Penalty>
1.37653

> <r_epik_Ionization_Penalty_Charging>
0.152973

> <r_epik_Ionization_Penalty_Neutral>
1.22356

> <r_epik_State_Penalty>
1.42693

> <r_epik_Charging_Adjusted_Penalty>
1.5799

> <i_epik_Tot_Q>
1

> <i_epik_Tot_abs_Q>
1

> <r_epik_Metal_State_Penalty>
4.59822

> <b_epik_Metal_Only>
0

> <s_lp_Force_Field>
OPLS_2005

> <r_lp_Energy>
43.1838

> <b_lp_Chiralities_Consistent>
1

> <s_lp_Variant>
AV-unprocessed.smi:2822-20

> <Gold.Version>
5.8.1

> <Gold.Id.Protein>
6NUR|6NUR_protein|mol2

> <Gold.PLP.Fitness>
42.3663

> <Gold.PLP.PLP>
-36.4848

> <Gold.PLP.part.hbond>
-1.0000

> <Gold.PLP.part.metal>
0.0000

> <Gold.PLP.part.buried>
-6.7919

> <Gold.PLP.part.nonpolar>
-29.2430

> <Gold.PLP.part.repulsive>
0.0741

> <Gold.PLP.ligand.clash>
0.0000

> <Gold.PLP.ligand.torsion>
0.0596

> <Gold.PLP.Chemscore.Hbond>
2.0000

> <Gold.PLP.Chemscore.CHOScore>
0.0000

> <Gold.PLP.Chemscore.Metal>
0.0000

> <Gold.Chemscore.Hbonds>
donor molecule, donor type, donor heavy atom, donor atom, acceptor molecule, acceptor atom, score
      L1  H     4    40       P1 10175  2.00

> <Gold.PLP.Chemscore.Internal.Correction>
0.0006

> <Gold.Rescore>
     Score         DG    S(hbond)    S(metal)    S(lipo)     H(rot)  DE(clash)    DE(int)     intcor
     18.34     -18.45       1.00        0.00     108.27       1.18       0.02       0.10       ----

> <Gold.Chemscore.Fitness>
18.3365

> <Gold.Chemscore.DG>
-18.4544

> <Gold.Chemscore.ZeroCoef>
-5.4800

> <Gold.Chemscore.Hbond>
0.9954

> <Gold.Chemscore.Metal>
0.0000

> <Gold.Chemscore.Lipo>
108.2681

> <Gold.Chemscore.Internal_Hbond>
0.0000

> <Gold.Chemscore.DEClash>
0.0174

> <Gold.Chemscore.DEInternal>
0.1006

> <Gold.Chemscore.Rot>
1.1788

> <Gold.Chemscore.Internal.Correction>
   9.000000E+99

> <Gold.Chemscore.Hbonds>
donor molecule, donor type, donor heavy atom, donor atom, acceptor molecule, acceptor atom, score
      L1  H     4    40       P1 10175  0.53

> <Gold.Chemscore.Hbond.Weighted>
-3.3247

> <Gold.Chemscore.Metal.Weighted>
-0.0000

> <Gold.Chemscore.Lipo.Weighted>
-12.6674

> <Gold.Chemscore.Internal_Hbond.Weighted>
0.0000

> <Gold.Chemscore.DEClash.Weighted>
0.0174

> <Gold.Chemscore.DEInternal.Weighted>
0.1006

> <Gold.Chemscore.Rot.Weighted>
3.0177

> <Gold.Chemscore.Internal.Correction.Weighted>
   9.000000E+99

> <Gold.Protein.RotatedTorsions>
[ 6907 6896 6895 6894 ] final -111.80 input  -60.11 | X-H torsion
[ 7974 7965 7964 7962 ] final   -0.93 input  175.53 | X-H torsion
[ 8008 7997 7996 7995 ] final  112.83 input   59.86 | X-H torsion
[ 10167 10162 10161 10158 ] final  168.55 input  -65.29 | X-H torsion
[ 10718 10713 10712 10709 ] final  -22.16 input   66.30 | X-H torsion
[ 10763 10752 10751 10750 ] final   56.43 input  -60.55 | X-H torsion
[ 11005 11000 10999 10996 ] final  103.52 input  -57.11 | X-H torsion

> <Gold.Protein.ActiveResidues>
 VAL166  LYS551  ARG553  GLY616  TRP617  ASP618  TYR619  PRO620  LYS621  CYS622 
 ASP623  PHE694  ASN695  SER759  ASP760  ASP761  ALA762  ILE779  LEU786  VAL792 
 PHE793  MET794  SER795  GLU796  ALA797  LYS798  CYS799  TRP800  GLU811  SER814 

> <Gold.Protein.RotatedAtoms>
  150.7715  133.9182  159.3389 H   0  0  0  0  0  0  0  0  0  0  0  0  # atno 6907 bound_to 6896
  151.7067  135.0918  160.0270 H   0  0  0  0  0  0  0  0  0  0  0  0  # atno 6908 bound_to 6896
  152.3734  133.6411  159.6140 H   0  0  0  0  0  0  0  0  0  0  0  0  # atno 6909 bound_to 6896
  146.2422  140.1344  142.8337 H   0  0  0  0  0  0  0  0  0  0  0  0  # atno 7974 bound_to 7965
  156.2218  140.2991  155.9971 H   0  0  0  0  0  0  0  0  0  0  0  0  # atno 8008 bound_to 7997
  155.2461  140.0424  157.2998 H   0  0  0  0  0  0  0  0  0  0  0  0  # atno 8009 bound_to 7997
  154.5853  140.2386  155.8004 H   0  0  0  0  0  0  0  0  0  0  0  0  # atno 8010 bound_to 7997
  139.4970  144.3802  151.9630 H   0  0  0  0  0  0  0  0  0  0  0  0  # atno 10167 bound_to 10162
  156.5084  130.4604  149.6662 H   0  0  0  0  0  0  0  0  0  0  0  0  # atno 10718 bound_to 10713
  152.9832  135.5676  154.5228 H   0  0  0  0  0  0  0  0  0  0  0  0  # atno 10763 bound_to 10752
  154.4713  135.2785  155.1642 H   0  0  0  0  0  0  0  0  0  0  0  0  # atno 10764 bound_to 10752
  154.3189  135.6273  153.5552 H   0  0  0  0  0  0  0  0  0  0  0  0  # atno 10765 bound_to 10752
  139.8784  134.9266  156.5222 H   0  0  0  0  0  0  0  0  0  0  0  0  # atno 11005 bound_to 11000
  145.0299  140.8862  143.5116 LP  0  0  0  0  0  0  0  0  0  0  0  0  # atno 17320 bound_to 7965
  145.1407  139.2574  143.5492 LP  0  0  0  0  0  0  0  0  0  0  0  0  # atno 17321 bound_to 7965
  140.3238  144.3396  150.6003 LP  0  0  0  0  0  0  0  0  0  0  0  0  # atno 17342 bound_to 10162
  140.5701  143.2182  151.7615 LP  0  0  0  0  0  0  0  0  0  0  0  0  # atno 17343 bound_to 10162
  156.3264  130.7308  151.2230 LP  0  0  0  0  0  0  0  0  0  0  0  0  # atno 17370 bound_to 10713
  157.7454  131.0441  150.4779 LP  0  0  0  0  0  0  0  0  0  0  0  0  # atno 17371 bound_to 10713
  140.8442  133.8182  155.9105 LP  0  0  0  0  0  0  0  0  0  0  0  0  # atno 17394 bound_to 11000
  140.9208  134.2144  157.4928 LP  0  0  0  0  0  0  0  0  0  0  0  0  # atno 17395 bound_to 11000

$$$$
