AV-unprocessed.smi:3212|AV-procd|sdf|12279|dock3
  -GOLD-   2272018113D 1   1.00000     0.00000
 Structure written by MMmdl.
 40 40  0  0  0  0  0  0  0  0  2 V2000
  146.7892  139.1336  151.3479 C   0  0  0  0  0  0  0  0  0  0  0  0
  146.4109  138.3433  152.6100 C   0  0  1  0  0  0  0  0  0  0  0  0
  146.4971  136.8903  152.3362 N   0  3  0  0  0  0  0  0  0  0  0  0
  145.6928  136.4205  151.1881 C   0  0  0  0  0  0  0  0  0  0  0  0
  144.7193  135.3136  151.6160 C   0  0  0  0  0  0  0  0  0  0  0  0
  144.9803  134.0703  150.9170 N   0  0  0  0  0  0  0  0  0  0  0  0
  144.1033  133.2911  150.1922 C   0  0  0  0  0  0  0  0  0  0  0  0
  144.8068  132.2199  149.7208 C   0  0  0  0  0  0  0  0  0  0  0  0
  146.1241  132.4370  150.2130 C   0  0  0  0  0  0  0  0  0  0  0  0
  146.2245  133.5459  150.9284 N   0  0  0  0  0  0  0  0  0  0  0  0
  147.3154  138.7578  153.7788 C   0  0  0  0  0  0  0  0  0  0  0  0
  146.8374  139.3502  154.7464 O   0  0  0  0  0  0  0  0  0  0  0  0
  148.6142  138.4248  153.6686 N   0  0  0  0  0  0  0  0  0  0  0  0
  149.7055  138.6876  154.6146 C   0  0  0  0  0  0  0  0  0  0  0  0
  149.8504  140.2160  154.7183 C   0  0  0  0  0  0  0  0  0  0  0  0
  151.0315  138.0931  154.0950 C   0  0  0  0  0  0  0  0  0  0  0  0
  149.3650  138.1218  156.0096 C   0  0  0  0  0  0  0  0  0  0  0  0
  146.7125  140.2091  151.5135 H   0  0  0  0  0  0  0  0  0  0  0  0
  146.1264  138.8853  150.5183 H   0  0  0  0  0  0  0  0  0  0  0  0
  147.8110  138.9182  151.0313 H   0  0  0  0  0  0  0  0  0  0  0  0
  145.3752  138.5811  152.8600 H   0  0  0  0  0  0  0  0  0  0  0  0
  147.4628  136.6654  152.1451 H   0  0  0  0  0  0  0  0  0  0  0  0
  145.1383  137.2579  150.7624 H   0  0  0  0  0  0  0  0  0  0  0  0
  146.3600  136.0479  150.4096 H   0  0  0  0  0  0  0  0  0  0  0  0
  144.7970  135.1316  152.6888 H   0  0  0  0  0  0  0  0  0  0  0  0
  143.6888  135.6121  151.4176 H   0  0  0  0  0  0  0  0  0  0  0  0
  143.0636  133.5588  150.0735 H   0  0  0  0  0  0  0  0  0  0  0  0
  144.4374  131.4057  149.1151 H   0  0  0  0  0  0  0  0  0  0  0  0
  147.0040  131.8266  150.0725 H   0  0  0  0  0  0  0  0  0  0  0  0
  148.8835  137.9311  152.8298 H   0  0  0  0  0  0  0  0  0  0  0  0
  150.6489  140.4926  155.4078 H   0  0  0  0  0  0  0  0  0  0  0  0
  148.9319  140.6805  155.0797 H   0  0  0  0  0  0  0  0  0  0  0  0
  150.0855  140.6613  153.7506 H   0  0  0  0  0  0  0  0  0  0  0  0
  151.2666  138.4602  153.0952 H   0  0  0  0  0  0  0  0  0  0  0  0
  151.0044  137.0044  154.0490 H   0  0  0  0  0  0  0  0  0  0  0  0
  151.8633  138.3631  154.7465 H   0  0  0  0  0  0  0  0  0  0  0  0
  150.1260  138.3970  156.7406 H   0  0  0  0  0  0  0  0  0  0  0  0
  149.3044  137.0336  156.0090 H   0  0  0  0  0  0  0  0  0  0  0  0
  148.4104  138.5055  156.3720 H   0  0  0  0  0  0  0  0  0  0  0  0
  146.2080  136.3929  153.1668 H   0  0  0  0  0  0  0  0  0  0  0  0
  1  2  1  0  0  0  0
  1 18  1  0  0  0  0
  1 19  1  0  0  0  0
  1 20  1  0  0  0  0
  2  3  1  0  0  0  0
  2 11  1  0  0  0  0
  2 21  1  0  0  0  0
  3  4  1  0  0  0  0
  3 22  1  0  0  0  0
  3 40  1  0  0  0  0
  4  5  1  0  0  0  0
  4 23  1  0  0  0  0
  4 24  1  0  0  0  0
  5  6  1  0  0  0  0
  5 25  1  0  0  0  0
  5 26  1  0  0  0  0
  6 10  1  0  0  0  0
  6  7  1  0  0  0  0
  7  8  2  0  0  0  0
  7 27  1  0  0  0  0
  8  9  1  0  0  0  0
  8 28  1  0  0  0  0
  9 10  2  0  0  0  0
  9 29  1  0  0  0  0
 11 12  2  0  0  0  0
 11 13  1  0  0  0  0
 13 14  1  0  0  0  0
 13 30  1  0  0  0  0
 14 15  1  0  0  0  0
 14 16  1  0  0  0  0
 14 17  1  0  0  0  0
 15 31  1  0  0  0  0
 15 32  1  0  0  0  0
 15 33  1  0  0  0  0
 16 34  1  0  0  0  0
 16 35  1  0  0  0  0
 16 36  1  0  0  0  0
 17 37  1  0  0  0  0
 17 38  1  0  0  0  0
 17 39  1  0  0  0  0
M  CHG  1   3   1
M  END
> <s_m_source_file>
AV-unprocessed.smi

> <i_m_source_file_index>
3212

> <i_lp_mmshare_version>
43012

> <i_f3d_flags>
0

> <s_epik_input>
W0NIM11DKFtDSDNdKShbQ0gzXSlbTkhdQyg9TylbQ0BIXShbQ0gzXSlbTkhdW0NIMl1bQ0gyXW4xW2NIXVtjSF1bY0hdbjE=

> <s_epik_cmdline>
J2VwaWtfcHl0aG9uJywgJy1waCcsICc3LjAnLCAnLXRuJywgJzgnLCAnLW1hJywgJzIwMCcsICctbWV0YWxfYmluZGluZycsICctaW1hZScsICc8aW5maWxlLm1hZT4nLCAnLW9tYWUnLCAnPG91dGZpbGUubWFlPic=

> <r_lp_tautomer_probability>
1

> <r_epik_Ionization_Penalty>
0.198377

> <r_epik_Ionization_Penalty_Charging>
0.198374

> <r_epik_Ionization_Penalty_Neutral>
3.0924e-06

> <r_epik_State_Penalty>
0.188176

> <r_epik_Charging_Adjusted_Penalty>
0.38655

> <i_epik_Tot_Q>
1

> <i_epik_Tot_abs_Q>
1

> <r_epik_Metal_State_Penalty>
0.188456

> <b_epik_Metal_Only>
0

> <s_lp_Force_Field>
OPLS_2005

> <r_lp_Energy>
5.64446

> <b_lp_Chiralities_Consistent>
1

> <s_lp_Variant>
AV-unprocessed.smi:3212-2

> <Gold.Version>
5.8.1

> <Gold.Id.Protein>
6NUR|6NUR_protein|mol2

> <Gold.PLP.Fitness>
46.5766

> <Gold.PLP.PLP>
-33.2109

> <Gold.PLP.part.hbond>
-2.6518

> <Gold.PLP.part.metal>
0.0000

> <Gold.PLP.part.buried>
-1.0321

> <Gold.PLP.part.nonpolar>
-30.2996

> <Gold.PLP.part.repulsive>
0.3526

> <Gold.PLP.ligand.clash>
0.0000

> <Gold.PLP.ligand.torsion>
0.8861

> <Gold.PLP.Chemscore.Hbond>
2.9920

> <Gold.PLP.Chemscore.CHOScore>
2.0000

> <Gold.PLP.Chemscore.Metal>
0.0000

> <Gold.Chemscore.Hbonds>
donor molecule, donor type, donor heavy atom, donor atom, acceptor molecule, acceptor atom, score
      L1  H     3    22       P1  7948  2.00
      L1  H    13    30       P1  7948  0.98
      L1  C     7    27       P1 10186  1.00
      L1  C     9    29       P1 10747  1.00

> <Gold.PLP.Chemscore.Internal.Correction>
0.1619

> <Gold.Rescore>
     Score         DG    S(hbond)    S(metal)    S(lipo)     H(rot)  DE(clash)    DE(int)     intcor
     15.79     -16.72       1.97        0.00      84.89       2.07       0.08       0.85       ----

> <Gold.Chemscore.Fitness>
15.7856

> <Gold.Chemscore.DG>
-16.7173

> <Gold.Chemscore.ZeroCoef>
-5.4800

> <Gold.Chemscore.Hbond>
1.9743

> <Gold.Chemscore.Metal>
0.0000

> <Gold.Chemscore.Lipo>
84.8870

> <Gold.Chemscore.Internal_Hbond>
0.0000

> <Gold.Chemscore.DEClash>
0.0804

> <Gold.Chemscore.DEInternal>
0.8513

> <Gold.Chemscore.Rot>
2.0659

> <Gold.Chemscore.Internal.Correction>
   9.000000E+99

> <Gold.Chemscore.Hbonds>
donor molecule, donor type, donor heavy atom, donor atom, acceptor molecule, acceptor atom, score
      L1  H     3    22       P1  7948  0.96
      L1  H    13    30       P1  7948  0.93

> <Gold.Chemscore.Hbond.Weighted>
-6.5942

> <Gold.Chemscore.Metal.Weighted>
-0.0000

> <Gold.Chemscore.Lipo.Weighted>
-9.9318

> <Gold.Chemscore.Internal_Hbond.Weighted>
0.0000

> <Gold.Chemscore.DEClash.Weighted>
0.0804

> <Gold.Chemscore.DEInternal.Weighted>
0.8513

> <Gold.Chemscore.Rot.Weighted>
5.2886

> <Gold.Chemscore.Internal.Correction.Weighted>
   9.000000E+99

> <Gold.Protein.RotatedTorsions>
[ 6907 6896 6895 6894 ] final    2.44 input  -60.11 | X-H torsion
[ 7974 7965 7964 7962 ] final  115.87 input  175.53 | X-H torsion
[ 8008 7997 7996 7995 ] final  -30.88 input   59.86 | X-H torsion
[ 10167 10162 10161 10158 ] final   12.28 input  -65.29 | X-H torsion
[ 10718 10713 10712 10709 ] final -112.14 input   66.30 | X-H torsion
[ 10763 10752 10751 10750 ] final  120.39 input  -60.55 | X-H torsion
[ 11005 11000 10999 10996 ] final    7.99 input  -57.11 | X-H torsion

> <Gold.Protein.ActiveResidues>
 VAL166  LYS551  ARG553  GLY616  TRP617  ASP618  TYR619  PRO620  LYS621  CYS622 
 ASP623  PHE694  ASN695  SER759  ASP760  ASP761  ALA762  ILE779  LEU786  VAL792 
 PHE793  MET794  SER795  GLU796  ALA797  LYS798  CYS799  TRP800  GLU811  SER814 

> <Gold.Protein.RotatedAtoms>
  151.6089  135.1042  160.0076 H   0  0  0  0  0  0  0  0  0  0  0  0  # atno 6907 bound_to 6896
  152.4219  133.7126  159.6498 H   0  0  0  0  0  0  0  0  0  0  0  0  # atno 6908 bound_to 6896
  150.8106  133.8355  159.3206 H   0  0  0  0  0  0  0  0  0  0  0  0  # atno 6909 bound_to 6896
  145.1867  139.3021  143.4390 H   0  0  0  0  0  0  0  0  0  0  0  0  # atno 7974 bound_to 7965
  154.4234  140.1779  156.1478 H   0  0  0  0  0  0  0  0  0  0  0  0  # atno 8008 bound_to 7997
  155.9939  140.3366  155.6755 H   0  0  0  0  0  0  0  0  0  0  0  0  # atno 8009 bound_to 7997
  155.6334  140.0672  157.2632 H   0  0  0  0  0  0  0  0  0  0  0  0  # atno 8010 bound_to 7997
  140.6078  143.8471  150.7033 H   0  0  0  0  0  0  0  0  0  0  0  0  # atno 10167 bound_to 10162
  156.0688  130.5904  150.8468 H   0  0  0  0  0  0  0  0  0  0  0  0  # atno 10718 bound_to 10713
  153.5977  135.3454  155.2934 H   0  0  0  0  0  0  0  0  0  0  0  0  # atno 10763 bound_to 10752
  154.8641  135.4220  154.2446 H   0  0  0  0  0  0  0  0  0  0  0  0  # atno 10764 bound_to 10752
  153.3268  135.7041  153.7054 H   0  0  0  0  0  0  0  0  0  0  0  0  # atno 10765 bound_to 10752
  140.5420  134.0365  155.7907 H   0  0  0  0  0  0  0  0  0  0  0  0  # atno 11005 bound_to 11000
  146.3443  140.2065  142.8589 LP  0  0  0  0  0  0  0  0  0  0  0  0  # atno 17320 bound_to 7965
  145.0082  140.8691  143.5240 LP  0  0  0  0  0  0  0  0  0  0  0  0  # atno 17321 bound_to 7965
  140.2032  143.3942  152.1775 LP  0  0  0  0  0  0  0  0  0  0  0  0  # atno 17342 bound_to 10162
  139.5338  144.7188  151.4963 LP  0  0  0  0  0  0  0  0  0  0  0  0  # atno 17343 bound_to 10162
  157.5746  131.0946  150.9365 LP  0  0  0  0  0  0  0  0  0  0  0  0  # atno 17370 bound_to 10713
  156.9573  130.5442  149.5284 LP  0  0  0  0  0  0  0  0  0  0  0  0  # atno 17371 bound_to 10713
  141.1222  133.9443  157.2707 LP  0  0  0  0  0  0  0  0  0  0  0  0  # atno 17394 bound_to 11000
  139.9499  135.0177  156.8963 LP  0  0  0  0  0  0  0  0  0  0  0  0  # atno 17395 bound_to 11000

$$$$
