AV-unprocessed.smi:2144|AV-procd|sdf|8732|dock1
  -GOLD-   2272011503D 1   1.00000     0.00000
 Structure written by MMmdl.
 41 43  0  0  0  0  0  0  0  0  2 V2000
  146.5861  140.0360  152.1027 O   0  0  0  0  0  0  0  0  0  0  0  0
  147.1150  139.2710  153.1623 C   0  0  0  0  0  0  0  0  0  0  0  0
  146.6620  139.7642  154.4966 C   0  0  0  0  0  0  0  0  0  0  0  0
  145.3879  140.1175  154.8269 N   0  3  0  0  0  0  0  0  0  0  0  0
  145.3444  140.5406  156.1558 C   0  0  0  0  0  0  0  0  0  0  0  0
  144.2822  140.9916  156.9332 C   0  0  0  0  0  0  0  0  0  0  0  0
  144.5786  141.3465  158.2656 C   0  0  0  0  0  0  0  0  0  0  0  0
  145.8888  141.2469  158.7772 C   0  0  0  0  0  0  0  0  0  0  0  0
  146.9581  140.7899  157.9790 C   0  0  0  0  0  0  0  0  0  0  0  0
  146.6570  140.4415  156.6622 C   0  0  0  0  0  0  0  0  0  0  0  0
  147.4357  139.9593  155.6029 N   0  0  0  0  0  0  0  0  0  0  0  0
  148.8796  139.7469  155.7920 C   0  0  0  0  0  0  0  0  0  0  0  0
  149.7171  140.9937  155.4438 C   0  0  2  0  0  0  0  0  0  0  0  0
  150.0344  140.9939  154.0665 O   0  0  0  0  0  0  0  0  0  0  0  0
  151.0228  141.0672  156.2483 C   0  0  0  0  0  0  0  0  0  0  0  0
  150.8621  142.0201  157.2905 O   0  0  0  0  0  0  0  0  0  0  0  0
  151.7802  142.0283  158.3188 C   0  0  0  0  0  0  0  0  0  0  0  0
  152.6429  140.9446  158.6236 C   0  0  0  0  0  0  0  0  0  0  0  0
  153.5535  141.0367  159.6943 C   0  0  0  0  0  0  0  0  0  0  0  0
  153.6148  142.2081  160.4712 C   0  0  0  0  0  0  0  0  0  0  0  0
  152.7635  143.2887  160.1761 C   0  0  0  0  0  0  0  0  0  0  0  0
  151.8522  143.1976  159.1062 C   0  0  0  0  0  0  0  0  0  0  0  0
  151.0373  144.2447  158.8331 F   0  0  0  0  0  0  0  0  0  0  0  0
  147.2732  140.5839  151.7547 H   0  0  0  0  0  0  0  0  0  0  0  0
  146.8116  138.2313  153.0377 H   0  0  0  0  0  0  0  0  0  0  0  0
  148.2036  139.2955  153.1115 H   0  0  0  0  0  0  0  0  0  0  0  0
  143.2776  141.0687  156.5435 H   0  0  0  0  0  0  0  0  0  0  0  0
  143.7856  141.7015  158.9079 H   0  0  0  0  0  0  0  0  0  0  0  0
  146.0784  141.5261  159.8035 H   0  0  0  0  0  0  0  0  0  0  0  0
  147.9563  140.7148  158.3842 H   0  0  0  0  0  0  0  0  0  0  0  0
  149.0275  139.4785  156.8386 H   0  0  0  0  0  0  0  0  0  0  0  0
  149.1988  138.8799  155.2133 H   0  0  0  0  0  0  0  0  0  0  0  0
  149.1332  141.8936  155.6405 H   0  0  0  0  0  0  0  0  0  0  0  0
  150.3299  140.1286  153.8285 H   0  0  0  0  0  0  0  0  0  0  0  0
  151.2712  140.0848  156.6540 H   0  0  0  0  0  0  0  0  0  0  0  0
  151.8387  141.3809  155.5944 H   0  0  0  0  0  0  0  0  0  0  0  0
  152.6268  140.0303  158.0503 H   0  0  0  0  0  0  0  0  0  0  0  0
  154.2063  140.2059  159.9186 H   0  0  0  0  0  0  0  0  0  0  0  0
  154.3137  142.2776  161.2918 H   0  0  0  0  0  0  0  0  0  0  0  0
  152.8086  144.1891  160.7709 H   0  0  0  0  0  0  0  0  0  0  0  0
  144.6074  140.0757  154.1842 H   0  0  0  0  0  0  0  0  0  0  0  0
  1  2  1  0  0  0  0
  1 24  1  0  0  0  0
  2  3  1  0  0  0  0
  2 25  1  0  0  0  0
  2 26  1  0  0  0  0
  3 11  1  0  0  0  0
  3  4  2  0  0  0  0
  4  5  1  0  0  0  0
  4 41  1  0  0  0  0
  5 10  2  0  0  0  0
  5  6  1  0  0  0  0
  6  7  2  0  0  0  0
  6 27  1  0  0  0  0
  7  8  1  0  0  0  0
  7 28  1  0  0  0  0
  8  9  2  0  0  0  0
  8 29  1  0  0  0  0
  9 10  1  0  0  0  0
  9 30  1  0  0  0  0
 10 11  1  0  0  0  0
 11 12  1  0  0  0  0
 12 13  1  0  0  0  0
 12 31  1  0  0  0  0
 12 32  1  0  0  0  0
 13 14  1  0  0  0  0
 13 15  1  0  0  0  0
 13 33  1  0  0  0  0
 14 34  1  0  0  0  0
 15 16  1  0  0  0  0
 15 35  1  0  0  0  0
 15 36  1  0  0  0  0
 16 17  1  0  0  0  0
 17 22  1  0  0  0  0
 17 18  2  0  0  0  0
 18 19  1  0  0  0  0
 18 37  1  0  0  0  0
 19 20  2  0  0  0  0
 19 38  1  0  0  0  0
 20 21  1  0  0  0  0
 20 39  1  0  0  0  0
 21 22  2  0  0  0  0
 21 40  1  0  0  0  0
 22 23  1  0  0  0  0
M  CHG  1   4   1
M  END
> <s_m_source_file>
AV-unprocessed.smi

> <i_m_source_file_index>
2144

> <i_lp_mmshare_version>
43012

> <i_f3d_flags>
0

> <s_epik_input>
W2NIXTFbY0hdW2NIXVtjSF1jKGMxMiluKGMobjIpW0NIMl1bT0hdKVtDSDJdW0NASF0oW09IXSlbQ0gyXU9jM1tjSF1bY0hdW2NIXVtjSF1jM0Y=

> <s_epik_cmdline>
J2VwaWtfcHl0aG9uJywgJy1waCcsICc3LjAnLCAnLXRuJywgJzgnLCAnLW1hJywgJzIwMCcsICctbWV0YWxfYmluZGluZycsICctaW1hZScsICc8aW5maWxlLm1hZT4nLCAnLW9tYWUnLCAnPG91dGZpbGUubWFlPic=

> <r_lp_tautomer_probability>
1

> <r_epik_Ionization_Penalty>
1.44003

> <r_epik_Ionization_Penalty_Charging>
1.43917

> <r_epik_Ionization_Penalty_Neutral>
0.000858184

> <r_epik_State_Penalty>
1.52442

> <r_epik_Charging_Adjusted_Penalty>
2.96359

> <i_epik_Tot_Q>
1

> <i_epik_Tot_abs_Q>
1

> <r_epik_Metal_State_Penalty>
5.57019

> <b_epik_Metal_Only>
0

> <s_lp_Force_Field>
OPLS_2005

> <r_lp_Energy>
18.2987

> <b_lp_Chiralities_Consistent>
1

> <s_lp_Variant>
AV-unprocessed.smi:2144-3

> <Gold.Version>
5.8.1

> <Gold.Id.Protein>
6NUR|6NUR_protein|mol2

> <Gold.PLP.Fitness>
53.7140

> <Gold.PLP.PLP>
-44.9984

> <Gold.PLP.part.hbond>
-3.7219

> <Gold.PLP.part.metal>
0.0000

> <Gold.PLP.part.buried>
-6.8060

> <Gold.PLP.part.nonpolar>
-35.0058

> <Gold.PLP.part.repulsive>
0.0615

> <Gold.PLP.ligand.clash>
0.0000

> <Gold.PLP.ligand.torsion>
1.8298

> <Gold.PLP.Chemscore.Hbond>
3.9600

> <Gold.PLP.Chemscore.CHOScore>
0.0000

> <Gold.PLP.Chemscore.Metal>
0.0000

> <Gold.Chemscore.Hbonds>
donor molecule, donor type, donor heavy atom, donor atom, acceptor molecule, acceptor atom, score
      L1  H     4    41       P1 10175  2.00
      P1  H  8011  8017       L1    14  0.36

> <Gold.PLP.Chemscore.Internal.Correction>
0.4951

> <Gold.Rescore>
     Score         DG    S(hbond)    S(metal)    S(lipo)     H(rot)  DE(clash)    DE(int)     intcor
     17.00     -18.42       2.94        0.00      99.34       3.31       0.08       1.34       ----

> <Gold.Chemscore.Fitness>
17.0037

> <Gold.Chemscore.DG>
-18.4248

> <Gold.Chemscore.ZeroCoef>
-5.4800

> <Gold.Chemscore.Hbond>
2.9355

> <Gold.Chemscore.Metal>
0.0000

> <Gold.Chemscore.Lipo>
99.3386

> <Gold.Chemscore.Internal_Hbond>
0.0000

> <Gold.Chemscore.DEClash>
0.0816

> <Gold.Chemscore.DEInternal>
1.3395

> <Gold.Chemscore.Rot>
3.3134

> <Gold.Chemscore.Internal.Correction>
   9.000000E+99

> <Gold.Chemscore.Hbonds>
donor molecule, donor type, donor heavy atom, donor atom, acceptor molecule, acceptor atom, score
      L1  H     1    24       P1  7957  0.04
      L1  H     4    41       P1 10175  0.96
      P1  H  8011  8017       L1    14  0.32

> <Gold.Chemscore.Hbond.Weighted>
-9.8045

> <Gold.Chemscore.Metal.Weighted>
-0.0000

> <Gold.Chemscore.Lipo.Weighted>
-11.6226

> <Gold.Chemscore.Internal_Hbond.Weighted>
0.0000

> <Gold.Chemscore.DEClash.Weighted>
0.0816

> <Gold.Chemscore.DEInternal.Weighted>
1.3395

> <Gold.Chemscore.Rot.Weighted>
8.4823

> <Gold.Chemscore.Internal.Correction.Weighted>
   9.000000E+99

> <Gold.Protein.RotatedTorsions>
[ 6907 6896 6895 6894 ] final  -56.92 input  -60.11 | X-H torsion
[ 7974 7965 7964 7962 ] final   98.18 input  175.53 | X-H torsion
[ 8008 7997 7996 7995 ] final  -12.03 input   59.86 | X-H torsion
[ 10167 10162 10161 10158 ] final   30.25 input  -65.29 | X-H torsion
[ 10718 10713 10712 10709 ] final -165.20 input   66.30 | X-H torsion
[ 10763 10752 10751 10750 ] final -150.71 input  -60.55 | X-H torsion
[ 11005 11000 10999 10996 ] final  -89.38 input  -57.11 | X-H torsion

> <Gold.Protein.ActiveResidues>
 VAL166  LYS551  ARG553  GLY616  TRP617  ASP618  TYR619  PRO620  LYS621  CYS622 
 ASP623  PHE694  ASN695  SER759  ASP760  ASP761  ALA762  ILE779  LEU786  VAL792 
 PHE793  MET794  SER795  GLU796  ALA797  LYS798  CYS799  TRP800  GLU811  SER814 

> <Gold.Protein.RotatedAtoms>
  150.8128  134.7292  159.6702 H   0  0  0  0  0  0  0  0  0  0  0  0  # atno 6907 bound_to 6896
  152.4247  134.5887  159.9978 H   0  0  0  0  0  0  0  0  0  0  0  0  # atno 6908 bound_to 6896
  151.6092  133.3311  159.3100 H   0  0  0  0  0  0  0  0  0  0  0  0  # atno 6909 bound_to 6896
  145.4156  139.2328  143.3224 H   0  0  0  0  0  0  0  0  0  0  0  0  # atno 7974 bound_to 7965
  154.5412  140.2287  155.8637 H   0  0  0  0  0  0  0  0  0  0  0  0  # atno 8008 bound_to 7997
  156.1860  140.3088  155.9202 H   0  0  0  0  0  0  0  0  0  0  0  0  # atno 8009 bound_to 7997
  155.3253  140.0442  157.3031 H   0  0  0  0  0  0  0  0  0  0  0  0  # atno 8010 bound_to 7997
  140.4694  144.0786  150.6233 H   0  0  0  0  0  0  0  0  0  0  0  0  # atno 10167 bound_to 10162
  156.6499  130.9003  151.3011 H   0  0  0  0  0  0  0  0  0  0  0  0  # atno 10718 bound_to 10713
  154.8102  135.3277  154.7325 H   0  0  0  0  0  0  0  0  0  0  0  0  # atno 10763 bound_to 10752
  153.7975  135.6906  153.4865 H   0  0  0  0  0  0  0  0  0  0  0  0  # atno 10764 bound_to 10752
  153.1875  135.4563  155.0054 H   0  0  0  0  0  0  0  0  0  0  0  0  # atno 10765 bound_to 10752
  141.1586  133.7626  156.9586 H   0  0  0  0  0  0  0  0  0  0  0  0  # atno 11005 bound_to 11000
  146.2683  140.4873  142.8825 LP  0  0  0  0  0  0  0  0  0  0  0  0  # atno 17320 bound_to 7965
  144.8280  140.6660  143.6310 LP  0  0  0  0  0  0  0  0  0  0  0  0  # atno 17321 bound_to 7965
  140.3996  143.2711  151.9964 LP  0  0  0  0  0  0  0  0  0  0  0  0  # atno 17342 bound_to 10162
  139.4816  144.6009  151.7607 LP  0  0  0  0  0  0  0  0  0  0  0  0  # atno 17343 bound_to 10162
  157.7144  130.9479  150.1202 LP  0  0  0  0  0  0  0  0  0  0  0  0  # atno 17370 bound_to 10713
  156.2092  130.3665  149.8691 LP  0  0  0  0  0  0  0  0  0  0  0  0  # atno 17371 bound_to 10713
  140.1208  134.9418  157.2201 LP  0  0  0  0  0  0  0  0  0  0  0  0  # atno 17394 bound_to 11000
  140.3074  134.3062  155.7275 LP  0  0  0  0  0  0  0  0  0  0  0  0  # atno 17395 bound_to 11000

$$$$
