AV-unprocessed.smi:1687|AV-procd|sdf|6769|dock1
  -GOLD-   22720 7533D 1   1.00000     0.00000
 Structure written by MMmdl.
 45 46  0  0  0  0  0  0  0  0  2 V2000
  143.5236  142.9336  155.5600 C   0  0  0  0  0  0  0  0  0  0  0  0
  144.7884  143.8073  155.6317 C   0  0  2  0  0  0  0  0  0  0  0  0
  145.5665  143.8412  154.3030 C   0  0  0  0  0  0  0  0  0  0  0  0
  146.3194  142.5255  154.0376 C   0  0  0  0  0  0  0  0  0  0  0  0
  147.2315  142.1983  155.1680 N   0  3  2  0  0  0  0  0  0  0  0  0
  148.1714  141.0650  154.9226 C   0  0  1  0  0  0  0  0  0  0  0  0
  147.7286  140.1535  153.7569 C   0  0  0  0  0  0  0  0  0  0  0  0
  149.6209  141.5826  154.7642 C   0  0  0  0  0  0  0  0  0  0  0  0
  150.1303  142.2209  155.9742 N   0  0  0  0  0  0  0  0  0  0  0  0
  150.9540  141.6411  156.8593 C   0  0  0  0  0  0  0  0  0  0  0  0
  151.3750  140.4904  156.7360 O   0  0  0  0  0  0  0  0  0  0  0  0
  151.2484  142.4757  157.8716 N   0  0  0  0  0  0  0  0  0  0  0  0
  152.0953  142.2381  158.9871 C   0  0  0  0  0  0  0  0  0  0  0  0
  151.9687  143.1687  160.0431 C   0  0  0  0  0  0  0  0  0  0  0  0
  152.7662  143.0228  161.1947 C   0  0  0  0  0  0  0  0  0  0  0  0
  153.6714  141.9486  161.2604 C   0  0  0  0  0  0  0  0  0  0  0  0
  153.7352  141.0672  160.1654 C   0  0  0  0  0  0  0  0  0  0  0  0
  152.9719  141.2054  159.0605 N   0  0  0  0  0  0  0  0  0  0  0  0
  146.4959  142.0881  156.4554 C   0  0  0  0  0  0  0  0  0  0  0  0
  145.7360  143.3896  156.7717 C   0  0  0  0  0  0  0  0  0  0  0  0
  143.7552  141.8868  155.3653 H   0  0  0  0  0  0  0  0  0  0  0  0
  142.8571  143.2762  154.7682 H   0  0  0  0  0  0  0  0  0  0  0  0
  142.9664  142.9778  156.4960 H   0  0  0  0  0  0  0  0  0  0  0  0
  144.4492  144.8228  155.8404 H   0  0  0  0  0  0  0  0  0  0  0  0
  144.8913  144.0607  153.4751 H   0  0  0  0  0  0  0  0  0  0  0  0
  146.2859  144.6609  154.3306 H   0  0  0  0  0  0  0  0  0  0  0  0
  145.6051  141.7165  153.8833 H   0  0  0  0  0  0  0  0  0  0  0  0
  146.8841  142.6251  153.1114 H   0  0  0  0  0  0  0  0  0  0  0  0
  148.1619  140.4528  155.8255 H   0  0  0  0  0  0  0  0  0  0  0  0
  148.3483  139.2584  153.7009 H   0  0  0  0  0  0  0  0  0  0  0  0
  147.8057  140.6583  152.7938 H   0  0  0  0  0  0  0  0  0  0  0  0
  146.6993  139.8165  153.8781 H   0  0  0  0  0  0  0  0  0  0  0  0
  150.2992  140.7640  154.5268 H   0  0  0  0  0  0  0  0  0  0  0  0
  149.6836  142.2843  153.9305 H   0  0  0  0  0  0  0  0  0  0  0  0
  149.8302  143.1686  156.1518 H   0  0  0  0  0  0  0  0  0  0  0  0
  150.8201  143.3890  157.8405 H   0  0  0  0  0  0  0  0  0  0  0  0
  151.2679  143.9884  159.9766 H   0  0  0  0  0  0  0  0  0  0  0  0
  152.6841  143.7233  162.0127 H   0  0  0  0  0  0  0  0  0  0  0  0
  154.2999  141.8036  162.1264 H   0  0  0  0  0  0  0  0  0  0  0  0
  154.4168  140.2296  160.1767 H   0  0  0  0  0  0  0  0  0  0  0  0
  145.8064  141.2442  156.4211 H   0  0  0  0  0  0  0  0  0  0  0  0
  147.1969  141.8871  157.2663 H   0  0  0  0  0  0  0  0  0  0  0  0
  146.4600  144.1873  156.9430 H   0  0  0  0  0  0  0  0  0  0  0  0
  145.1812  143.2817  157.7043 H   0  0  0  0  0  0  0  0  0  0  0  0
  147.8277  143.0058  155.2814 H   0  0  0  0  0  0  0  0  0  0  0  0
  1  2  1  0  0  0  0
  1 21  1  0  0  0  0
  1 22  1  0  0  0  0
  1 23  1  0  0  0  0
  2 20  1  0  0  0  0
  2  3  1  0  0  0  0
  2 24  1  0  0  0  0
  3  4  1  0  0  0  0
  3 25  1  0  0  0  0
  3 26  1  0  0  0  0
  4  5  1  0  0  0  0
  4 27  1  0  0  0  0
  4 28  1  0  0  0  0
  5  6  1  0  0  0  0
  5 19  1  0  0  0  0
  5 45  1  0  0  0  0
  6  7  1  0  0  0  0
  6  8  1  0  0  0  0
  6 29  1  0  0  0  0
  7 30  1  0  0  0  0
  7 31  1  0  0  0  0
  7 32  1  0  0  0  0
  8  9  1  0  0  0  0
  8 33  1  0  0  0  0
  8 34  1  0  0  0  0
  9 10  1  0  0  0  0
  9 35  1  0  0  0  0
 10 11  2  0  0  0  0
 10 12  1  0  0  0  0
 12 13  1  0  0  0  0
 12 36  1  0  0  0  0
 13 18  1  0  0  0  0
 13 14  2  0  0  0  0
 14 15  1  0  0  0  0
 14 37  1  0  0  0  0
 15 16  2  0  0  0  0
 15 38  1  0  0  0  0
 16 17  1  0  0  0  0
 16 39  1  0  0  0  0
 17 18  2  0  0  0  0
 17 40  1  0  0  0  0
 19 20  1  0  0  0  0
 19 41  1  0  0  0  0
 19 42  1  0  0  0  0
 20 43  1  0  0  0  0
 20 44  1  0  0  0  0
M  CHG  1   5   1
M  END
> <s_m_source_file>
AV-unprocessed.smi

> <i_m_source_file_index>
1687

> <i_lp_mmshare_version>
43012

> <i_f3d_flags>
0

> <s_epik_input>
W0NIM11bQ0hdMVtDSDJdW0NIMl1OKFtDSDJdW0NIMl0xKVtDQEhdKFtDSDNdKVtDSDJdW05IXUMoPU8pW05IXWMyW2NIXVtjSF1bY0hdW2NIXW4y

> <s_epik_cmdline>
J2VwaWtfcHl0aG9uJywgJy1waCcsICc3LjAnLCAnLXRuJywgJzgnLCAnLW1hJywgJzIwMCcsICctbWV0YWxfYmluZGluZycsICctaW1hZScsICc8aW5maWxlLm1hZT4nLCAnLW9tYWUnLCAnPG91dGZpbGUubWFlPic=

> <r_epik_Ionization_Penalty>
0.00142891

> <r_epik_Ionization_Penalty_Charging>
0.00139388

> <r_epik_Ionization_Penalty_Neutral>
3.50347e-05

> <r_epik_State_Penalty>
0.000929204

> <r_epik_Charging_Adjusted_Penalty>
0.00232308

> <i_epik_Tot_Q>
1

> <i_epik_Tot_abs_Q>
1

> <r_epik_Metal_State_Penalty>
-0

> <b_epik_Metal_Only>
0

> <s_lp_Force_Field>
OPLS_2005

> <r_lp_Energy>
23.2941

> <b_lp_Chiralities_Consistent>
1

> <s_lp_Variant>
AV-unprocessed.smi:1687-4

> <Gold.Version>
5.8.1

> <Gold.Id.Protein>
6NUR|6NUR_protein|mol2

> <Gold.PLP.Fitness>
45.7622

> <Gold.PLP.PLP>
-39.7710

> <Gold.PLP.part.hbond>
-1.9971

> <Gold.PLP.part.metal>
0.0000

> <Gold.PLP.part.buried>
-5.8347

> <Gold.PLP.part.nonpolar>
-31.4344

> <Gold.PLP.part.repulsive>
0.2406

> <Gold.PLP.ligand.clash>
0.0000

> <Gold.PLP.ligand.torsion>
1.5813

> <Gold.PLP.Chemscore.Hbond>
3.0000

> <Gold.PLP.Chemscore.CHOScore>
0.0000

> <Gold.PLP.Chemscore.Metal>
0.0000

> <Gold.Chemscore.Hbonds>
donor molecule, donor type, donor heavy atom, donor atom, acceptor molecule, acceptor atom, score
      L1  H     5    45       P1  8028  2.00
      L1  H     9    35       P1  8028  1.00

> <Gold.PLP.Chemscore.Internal.Correction>
0.1539

> <Gold.Rescore>
     Score         DG    S(hbond)    S(metal)    S(lipo)     H(rot)  DE(clash)    DE(int)     intcor
     15.21     -18.08       1.73        0.00      91.10       1.50       0.10       2.77       ----

> <Gold.Chemscore.Fitness>
15.2081

> <Gold.Chemscore.DG>
-18.0784

> <Gold.Chemscore.ZeroCoef>
-5.4800

> <Gold.Chemscore.Hbond>
1.7270

> <Gold.Chemscore.Metal>
0.0000

> <Gold.Chemscore.Lipo>
91.1048

> <Gold.Chemscore.Internal_Hbond>
0.0000

> <Gold.Chemscore.DEClash>
0.1049

> <Gold.Chemscore.DEInternal>
2.7654

> <Gold.Chemscore.Rot>
1.4956

> <Gold.Chemscore.Internal.Correction>
   9.000000E+99

> <Gold.Chemscore.Hbonds>
donor molecule, donor type, donor heavy atom, donor atom, acceptor molecule, acceptor atom, score
      L1  H     5    45       P1  8028  0.66
      L1  H     9    35       P1  8028  0.95

> <Gold.Chemscore.Hbond.Weighted>
-5.7680

> <Gold.Chemscore.Metal.Weighted>
-0.0000

> <Gold.Chemscore.Lipo.Weighted>
-10.6593

> <Gold.Chemscore.Internal_Hbond.Weighted>
0.0000

> <Gold.Chemscore.DEClash.Weighted>
0.1049

> <Gold.Chemscore.DEInternal.Weighted>
2.7654

> <Gold.Chemscore.Rot.Weighted>
3.8289

> <Gold.Chemscore.Internal.Correction.Weighted>
   9.000000E+99

> <Gold.Protein.RotatedTorsions>
[ 6907 6896 6895 6894 ] final  150.54 input  -60.11 | X-H torsion
[ 7974 7965 7964 7962 ] final -166.61 input  175.53 | X-H torsion
[ 8008 7997 7996 7995 ] final  -92.14 input   59.86 | X-H torsion
[ 10167 10162 10161 10158 ] final  159.12 input  -65.29 | X-H torsion
[ 10718 10713 10712 10709 ] final -148.96 input   66.30 | X-H torsion
[ 10763 10752 10751 10750 ] final   62.41 input  -60.55 | X-H torsion
[ 11005 11000 10999 10996 ] final -158.35 input  -57.11 | X-H torsion

> <Gold.Protein.ActiveResidues>
 VAL166  LYS551  ARG553  GLY616  TRP617  ASP618  TYR619  PRO620  LYS621  CYS622 
 ASP623  PHE694  ASN695  SER759  ASP760  ASP761  ALA762  ILE779  LEU786  VAL792 
 PHE793  MET794  SER795  GLU796  ALA797  LYS798  CYS799  TRP800  GLU811  SER814 

> <Gold.Protein.RotatedAtoms>
  152.1131  133.4311  159.4639 H   0  0  0  0  0  0  0  0  0  0  0  0  # atno 6907 bound_to 6896
  150.6868  134.2625  159.4564 H   0  0  0  0  0  0  0  0  0  0  0  0  # atno 6908 bound_to 6896
  152.0495  134.9662  160.0625 H   0  0  0  0  0  0  0  0  0  0  0  0  # atno 6909 bound_to 6896
  144.7241  140.2641  143.6260 H   0  0  0  0  0  0  0  0  0  0  0  0  # atno 7974 bound_to 7965
  154.7195  140.0512  157.0626 H   0  0  0  0  0  0  0  0  0  0  0  0  # atno 8008 bound_to 7997
  155.0447  140.3172  155.4693 H   0  0  0  0  0  0  0  0  0  0  0  0  # atno 8009 bound_to 7997
  156.2812  140.2126  156.5571 H   0  0  0  0  0  0  0  0  0  0  0  0  # atno 8010 bound_to 7997
  139.4830  144.4760  151.8510 H   0  0  0  0  0  0  0  0  0  0  0  0  # atno 10167 bound_to 10162
  156.4270  130.8057  151.2282 H   0  0  0  0  0  0  0  0  0  0  0  0  # atno 10718 bound_to 10713
  152.9982  135.5466  154.6188 H   0  0  0  0  0  0  0  0  0  0  0  0  # atno 10763 bound_to 10752
  154.5492  135.2825  155.1026 H   0  0  0  0  0  0  0  0  0  0  0  0  # atno 10764 bound_to 10752
  154.2272  135.6440  153.5216 H   0  0  0  0  0  0  0  0  0  0  0  0  # atno 10765 bound_to 10752
  140.6546  134.4414  157.5235 H   0  0  0  0  0  0  0  0  0  0  0  0  # atno 11005 bound_to 11000
  145.8107  139.2002  143.1995 LP  0  0  0  0  0  0  0  0  0  0  0  0  # atno 17320 bound_to 7965
  146.0598  140.7982  142.9740 LP  0  0  0  0  0  0  0  0  0  0  0  0  # atno 17321 bound_to 7965
  140.4233  144.2214  150.5887 LP  0  0  0  0  0  0  0  0  0  0  0  0  # atno 17342 bound_to 10162
  140.4852  143.2365  151.8898 LP  0  0  0  0  0  0  0  0  0  0  0  0  # atno 17343 bound_to 10162
  157.7508  131.0210  150.3733 LP  0  0  0  0  0  0  0  0  0  0  0  0  # atno 17370 bound_to 10713
  156.4062  130.3925  149.6924 LP  0  0  0  0  0  0  0  0  0  0  0  0  # atno 17371 bound_to 10713
  139.9034  134.8504  156.1804 LP  0  0  0  0  0  0  0  0  0  0  0  0  # atno 17394 bound_to 11000
  141.0511  133.6888  156.1773 LP  0  0  0  0  0  0  0  0  0  0  0  0  # atno 17395 bound_to 11000

$$$$
