AV-unprocessed.smi:2620|AV-procd|sdf|10224|dock10
  -GOLD-   2272014233D 1   1.00000     0.00000
 Structure written by MMmdl.
 35 36  0  0  0  0  0  0  0  0  2 V2000
  152.5231  141.9163  159.4209 C   0  0  0  0  0  0  0  0  0  0  0  0
  151.2129  141.4823  159.1005 O   0  0  0  0  0  0  0  0  0  0  0  0
  150.5296  142.3956  158.2593 C   0  0  0  0  0  0  0  0  0  0  0  0
  151.1467  142.3332  156.8543 C   0  0  0  0  0  0  0  0  0  0  0  0
  150.5606  141.2457  156.0598 N   0  0  0  0  0  0  0  0  0  0  0  0
  149.3043  141.4934  155.4737 C   0  0  0  0  0  0  0  0  0  0  0  0
  148.6676  140.5741  154.7238 C   0  0  0  0  0  0  0  0  0  0  0  0
  147.3397  140.8745  154.1347 C   0  0  0  0  0  0  0  0  0  0  0  0
  146.9110  140.2319  153.1748 O   0  0  0  0  0  0  0  0  0  0  0  0
  146.5273  141.9628  154.7578 C   0  0  0  0  0  0  0  0  0  0  0  0
  145.8359  142.8676  153.9173 C   0  0  0  0  0  0  0  0  0  0  0  0
  145.0691  143.9145  154.4620 C   0  0  0  0  0  0  0  0  0  0  0  0
  144.9836  144.0704  155.8567 C   0  0  0  0  0  0  0  0  0  0  0  0
  145.6632  143.1767  156.7045 C   0  0  0  0  0  0  0  0  0  0  0  0
  146.4329  142.1246  156.1671 C   0  0  0  0  0  0  0  0  0  0  0  0
  147.0526  141.2733  157.0408 O   0  5  0  0  0  0  0  0  0  0  0  0
  149.3153  139.2892  154.5424 C   0  0  0  0  0  0  0  0  0  0  0  0
  150.5125  139.0422  155.1100 C   0  0  0  0  0  0  0  0  0  0  0  0
  151.1624  137.7835  154.9517 C   0  0  0  0  0  0  0  0  0  0  0  0
  151.6709  136.7522  154.8182 N   0  0  0  0  0  0  0  0  0  0  0  0
  151.2074  140.0484  155.9253 C   0  0  0  0  0  0  0  0  0  0  0  0
  152.2977  139.8348  156.4587 O   0  0  0  0  0  0  0  0  0  0  0  0
  153.0052  141.1812  160.0652 H   0  0  0  0  0  0  0  0  0  0  0  0
  152.5043  142.8687  159.9523 H   0  0  0  0  0  0  0  0  0  0  0  0
  153.1326  142.0279  158.5233 H   0  0  0  0  0  0  0  0  0  0  0  0
  149.4688  142.1426  158.2198 H   0  0  0  0  0  0  0  0  0  0  0  0
  150.6132  143.4065  158.6617 H   0  0  0  0  0  0  0  0  0  0  0  0
  150.9982  143.2887  156.3490 H   0  0  0  0  0  0  0  0  0  0  0  0
  152.2296  142.2189  156.9277 H   0  0  0  0  0  0  0  0  0  0  0  0
  148.8991  142.4749  155.6778 H   0  0  0  0  0  0  0  0  0  0  0  0
  145.8965  142.7703  152.8430 H   0  0  0  0  0  0  0  0  0  0  0  0
  144.5492  144.6000  153.8094 H   0  0  0  0  0  0  0  0  0  0  0  0
  144.3969  144.8736  156.2770 H   0  0  0  0  0  0  0  0  0  0  0  0
  145.5890  143.2996  157.7754 H   0  0  0  0  0  0  0  0  0  0  0  0
  148.8385  138.5121  153.9621 H   0  0  0  0  0  0  0  0  0  0  0  0
  1  2  1  0  0  0  0
  1 23  1  0  0  0  0
  1 24  1  0  0  0  0
  1 25  1  0  0  0  0
  2  3  1  0  0  0  0
  3  4  1  0  0  0  0
  3 26  1  0  0  0  0
  3 27  1  0  0  0  0
  4  5  1  0  0  0  0
  4 28  1  0  0  0  0
  4 29  1  0  0  0  0
  5 21  1  0  0  0  0
  5  6  1  0  0  0  0
  6  7  2  0  0  0  0
  6 30  1  0  0  0  0
  7  8  1  0  0  0  0
  7 17  1  0  0  0  0
  8  9  2  0  0  0  0
  8 10  1  0  0  0  0
 10 15  1  0  0  0  0
 10 11  2  0  0  0  0
 11 12  1  0  0  0  0
 11 31  1  0  0  0  0
 12 13  2  0  0  0  0
 12 32  1  0  0  0  0
 13 14  1  0  0  0  0
 13 33  1  0  0  0  0
 14 15  2  0  0  0  0
 14 34  1  0  0  0  0
 15 16  1  0  0  0  0
 17 18  2  0  0  0  0
 17 35  1  0  0  0  0
 18 19  1  0  0  0  0
 18 21  1  0  0  0  0
 19 20  3  0  0  0  0
 21 22  2  0  0  0  0
M  CHG  1  16  -1
M  END
> <s_m_source_file>
AV-unprocessed.smi

> <i_m_source_file_index>
2620

> <i_lp_mmshare_version>
43012

> <i_f3d_flags>
0

> <s_epik_input>
W0NIM11PW0NIMl1bQ0gyXW4xW2NIXWMoW2NIXWMoQyNOKWMxPU8pQyg9TyljMltjSF1bY0hdW2NIXVtjSF1jMltPSF0=

> <s_epik_cmdline>
J2VwaWtfcHl0aG9uJywgJy1waCcsICc3LjAnLCAnLXRuJywgJzgnLCAnLW1hJywgJzIwMCcsICctbWV0YWxfYmluZGluZycsICctaW1hZScsICc8aW5maWxlLm1hZT4nLCAnLW9tYWUnLCAnPG91dGZpbGUubWFlPic=

> <r_epik_Ionization_Penalty>
0.694682

> <r_epik_Ionization_Penalty_Charging>
0.694682

> <r_epik_Ionization_Penalty_Neutral>
1.08437e-11

> <r_epik_State_Penalty>
0.716871

> <r_epik_Charging_Adjusted_Penalty>
1.41155

> <i_epik_Tot_Q>
-1

> <i_epik_Tot_abs_Q>
1

> <r_epik_Metal_State_Penalty>
0.716871

> <b_epik_Metal_Only>
0

> <s_lp_Force_Field>
OPLS_2005

> <r_lp_Energy>
23.3851

> <b_lp_Chiralities_Consistent>
1

> <s_lp_Variant>
AV-unprocessed.smi:2620-2

> <Gold.Version>
5.8.1

> <Gold.Id.Protein>
6NUR|6NUR_protein|mol2

> <Gold.PLP.Fitness>
52.5441

> <Gold.PLP.PLP>
-44.5340

> <Gold.PLP.part.hbond>
-2.0185

> <Gold.PLP.part.metal>
0.0000

> <Gold.PLP.part.buried>
-5.3851

> <Gold.PLP.part.nonpolar>
-38.1094

> <Gold.PLP.part.repulsive>
1.4335

> <Gold.PLP.ligand.clash>
0.0000

> <Gold.PLP.ligand.torsion>
1.3361

> <Gold.PLP.Chemscore.Hbond>
2.0000

> <Gold.PLP.Chemscore.CHOScore>
1.0000

> <Gold.PLP.Chemscore.Metal>
0.0000

> <Gold.Chemscore.Hbonds>
donor molecule, donor type, donor heavy atom, donor atom, acceptor molecule, acceptor atom, score
      P1  H  7997  8009       L1    22  0.94
      P1  H 10752 10763       L1    20  1.00
      L1  C     6    30       P1  8028  1.00

> <Gold.PLP.Chemscore.Internal.Correction>
1.6823

> <Gold.Rescore>
     Score         DG    S(hbond)    S(metal)    S(lipo)     H(rot)  DE(clash)    DE(int)     intcor
     15.02     -17.22       1.80        0.00      80.35       1.44       0.40       1.80       ----

> <Gold.Chemscore.Fitness>
15.0181

> <Gold.Chemscore.DG>
-17.2196

> <Gold.Chemscore.ZeroCoef>
-5.4800

> <Gold.Chemscore.Hbond>
1.8018

> <Gold.Chemscore.Metal>
0.0000

> <Gold.Chemscore.Lipo>
80.3547

> <Gold.Chemscore.Internal_Hbond>
0.0000

> <Gold.Chemscore.DEClash>
0.4031

> <Gold.Chemscore.DEInternal>
1.7984

> <Gold.Chemscore.Rot>
1.4374

> <Gold.Chemscore.Internal.Correction>
   9.000000E+99

> <Gold.Chemscore.Hbonds>
donor molecule, donor type, donor heavy atom, donor atom, acceptor molecule, acceptor atom, score
      P1  H  7997  8009       L1    22  0.90
      P1  H 10752 10763       L1    20  0.95

> <Gold.Chemscore.Hbond.Weighted>
-6.0178

> <Gold.Chemscore.Metal.Weighted>
-0.0000

> <Gold.Chemscore.Lipo.Weighted>
-9.4015

> <Gold.Chemscore.Internal_Hbond.Weighted>
0.0000

> <Gold.Chemscore.DEClash.Weighted>
0.4031

> <Gold.Chemscore.DEInternal.Weighted>
1.7984

> <Gold.Chemscore.Rot.Weighted>
3.6797

> <Gold.Chemscore.Internal.Correction.Weighted>
   9.000000E+99

> <Gold.Protein.RotatedTorsions>
[ 6907 6896 6895 6894 ] final -118.37 input  -60.11 | X-H torsion
[ 7974 7965 7964 7962 ] final   69.48 input  175.53 | X-H torsion
[ 8008 7997 7996 7995 ] final -165.96 input   59.86 | X-H torsion
[ 10167 10162 10161 10158 ] final  -14.71 input  -65.29 | X-H torsion
[ 10718 10713 10712 10709 ] final  -16.65 input   66.30 | X-H torsion
[ 10763 10752 10751 10750 ] final   37.55 input  -60.55 | X-H torsion
[ 11005 11000 10999 10996 ] final   81.36 input  -57.11 | X-H torsion

> <Gold.Protein.ActiveResidues>
 VAL166  LYS551  ARG553  GLY616  TRP617  ASP618  TYR619  PRO620  LYS621  CYS622 
 ASP623  PHE694  ASN695  SER759  ASP760  ASP761  ALA762  ILE779  LEU786  VAL792 
 PHE793  MET794  SER795  GLU796  ALA797  LYS798  CYS799  TRP800  GLU811  SER814 

> <Gold.Protein.RotatedAtoms>
  150.8214  133.8247  159.3137 H   0  0  0  0  0  0  0  0  0  0  0  0  # atno 6907 bound_to 6896
  151.6004  135.1046  160.0068 H   0  0  0  0  0  0  0  0  0  0  0  0  # atno 6908 bound_to 6896
  152.4302  133.7224  159.6597 H   0  0  0  0  0  0  0  0  0  0  0  0  # atno 6909 bound_to 6896
  145.7899  139.2929  143.1216 H   0  0  0  0  0  0  0  0  0  0  0  0  # atno 7974 bound_to 7965
  155.8571  140.0972  157.1637 H   0  0  0  0  0  0  0  0  0  0  0  0  # atno 8008 bound_to 7997
  154.3988  140.1372  156.3978 H   0  0  0  0  0  0  0  0  0  0  0  0  # atno 8009 bound_to 7997
  155.7897  140.3456  155.5345 H   0  0  0  0  0  0  0  0  0  0  0  0  # atno 8010 bound_to 7997
  140.7206  143.5293  150.9539 H   0  0  0  0  0  0  0  0  0  0  0  0  # atno 10167 bound_to 10162
  156.5847  130.4783  149.6305 H   0  0  0  0  0  0  0  0  0  0  0  0  # atno 10718 bound_to 10713
  153.0033  135.6274  154.2163 H   0  0  0  0  0  0  0  0  0  0  0  0  # atno 10763 bound_to 10752
  154.1906  135.2809  155.3025 H   0  0  0  0  0  0  0  0  0  0  0  0  # atno 10764 bound_to 10752
  154.5762  135.5661  153.7201 H   0  0  0  0  0  0  0  0  0  0  0  0  # atno 10765 bound_to 10752
  139.9101  134.7990  156.2030 H   0  0  0  0  0  0  0  0  0  0  0  0  # atno 11005 bound_to 11000
  145.9987  140.8539  143.0029 LP  0  0  0  0  0  0  0  0  0  0  0  0  # atno 17320 bound_to 7965
  144.6783  140.2321  143.7354 LP  0  0  0  0  0  0  0  0  0  0  0  0  # atno 17321 bound_to 7965
  139.9013  143.6832  152.3131 LP  0  0  0  0  0  0  0  0  0  0  0  0  # atno 17342 bound_to 10162
  139.7183  144.7607  151.0998 LP  0  0  0  0  0  0  0  0  0  0  0  0  # atno 17343 bound_to 10162
  156.2601  130.6957  151.1723 LP  0  0  0  0  0  0  0  0  0  0  0  0  # atno 17370 bound_to 10713
  157.7318  131.0605  150.5659 LP  0  0  0  0  0  0  0  0  0  0  0  0  # atno 17371 bound_to 10713
  141.0513  133.6887  156.1776 LP  0  0  0  0  0  0  0  0  0  0  0  0  # atno 17394 bound_to 11000
  140.6806  134.4771  157.5589 LP  0  0  0  0  0  0  0  0  0  0  0  0  # atno 17395 bound_to 11000

$$$$
