AV-unprocessed.smi:2339|AV-procd|sdf|9338|dock3
  -GOLD-   2272012563D 1   1.00000     0.00000
 Structure written by MMmdl.
 49 52  0  0  0  0  0  0  0  0  1 V2000
  145.6070  131.1738  151.5070 C   0  0  0  0  0  0  0  0  0  0  0  0
  144.7771  132.1742  150.6947 C   0  0  0  0  0  0  0  0  0  0  0  0
  144.5845  133.4254  151.4133 N   0  0  0  0  0  0  0  0  0  0  0  0
  143.3124  133.9250  151.6725 C   0  0  0  0  0  0  0  0  0  0  0  0
  143.0735  135.1086  152.2699 C   0  0  0  0  0  0  0  0  0  0  0  0
  144.2122  135.9526  152.6848 C   0  0  0  0  0  0  0  0  0  0  0  0
  144.0315  137.0411  153.2313 O   0  0  0  0  0  0  0  0  0  0  0  0
  145.5713  135.4186  152.4070 C   0  0  0  0  0  0  0  0  0  0  0  0
  146.6464  136.2203  152.8201 N   0  0  0  0  0  0  0  0  0  0  0  0
  146.7816  136.9722  153.9315 C   0  0  0  0  0  0  0  0  0  0  0  0
  145.9519  137.0694  154.8327 O   0  0  0  0  0  0  0  0  0  0  0  0
  147.9565  137.6211  154.0008 N   0  0  0  0  0  0  0  0  0  0  0  0
  148.4181  138.5175  155.0732 C   0  0  2  0  0  0  0  0  0  0  0  0
  147.9284  139.9643  154.9400 C   0  0  2  0  0  0  0  0  0  0  0  0
  146.8154  140.6498  154.2321 C   0  0  0  0  0  0  0  0  0  0  0  0
  147.6275  141.8692  153.7211 C   0  0  0  0  0  0  0  0  0  0  0  0
  149.0186  141.5645  153.9945 O   0  0  0  0  0  0  0  0  0  0  0  0
  149.0754  140.1512  153.9694 C   0  0  1  0  0  0  0  0  0  0  0  0
  149.8516  139.1312  154.8360 C   0  0  0  0  0  0  0  0  0  0  0  0
  150.6100  139.6883  156.0580 C   0  0  0  0  0  0  0  0  0  0  0  0
  151.9894  139.0311  156.1077 C   0  0  0  0  0  0  0  0  0  0  0  0
  152.2678  138.6327  154.6661 C   0  0  0  0  0  0  0  0  0  0  0  0
  150.8922  138.2581  154.1219 C   0  0  0  0  0  0  0  0  0  0  0  0
  145.6698  134.2088  151.7996 C   0  0  0  0  0  0  0  0  0  0  0  0
  145.7525  130.2487  150.9491 H   0  0  0  0  0  0  0  0  0  0  0  0
  145.1145  130.9232  152.4470 H   0  0  0  0  0  0  0  0  0  0  0  0
  146.5921  131.5781  151.7413 H   0  0  0  0  0  0  0  0  0  0  0  0
  145.2686  132.3762  149.7422 H   0  0  0  0  0  0  0  0  0  0  0  0
  143.8072  131.7392  150.4513 H   0  0  0  0  0  0  0  0  0  0  0  0
  142.5068  133.2774  151.3576 H   0  0  0  0  0  0  0  0  0  0  0  0
  142.0670  135.4552  152.4529 H   0  0  0  0  0  0  0  0  0  0  0  0
  147.4384  136.2108  152.1935 H   0  0  0  0  0  0  0  0  0  0  0  0
  148.6154  137.4478  153.2554 H   0  0  0  0  0  0  0  0  0  0  0  0
  148.2952  138.1034  156.0753 H   0  0  0  0  0  0  0  0  0  0  0  0
  148.1066  140.4715  155.8938 H   0  0  0  0  0  0  0  0  0  0  0  0
  146.4165  140.0533  153.4108 H   0  0  0  0  0  0  0  0  0  0  0  0
  146.0003  140.9339  154.8983 H   0  0  0  0  0  0  0  0  0  0  0  0
  147.4748  142.0162  152.6512 H   0  0  0  0  0  0  0  0  0  0  0  0
  147.3471  142.7902  154.2330 H   0  0  0  0  0  0  0  0  0  0  0  0
  148.8758  139.7800  152.9589 H   0  0  0  0  0  0  0  0  0  0  0  0
  150.7347  140.7676  155.9613 H   0  0  0  0  0  0  0  0  0  0  0  0
  150.0731  139.5202  156.9922 H   0  0  0  0  0  0  0  0  0  0  0  0
  152.7558  139.6881  156.5198 H   0  0  0  0  0  0  0  0  0  0  0  0
  151.9462  138.1366  156.7308 H   0  0  0  0  0  0  0  0  0  0  0  0
  152.6599  139.4900  154.1173 H   0  0  0  0  0  0  0  0  0  0  0  0
  152.9910  137.8208  154.5828 H   0  0  0  0  0  0  0  0  0  0  0  0
  150.7040  137.2052  154.3353 H   0  0  0  0  0  0  0  0  0  0  0  0
  150.8569  138.3700  153.0378 H   0  0  0  0  0  0  0  0  0  0  0  0
  146.6136  133.7369  151.5783 H   0  0  0  0  0  0  0  0  0  0  0  0
  1  2  1  0  0  0  0
  1 25  1  0  0  0  0
  1 26  1  0  0  0  0
  1 27  1  0  0  0  0
  2  3  1  0  0  0  0
  2 28  1  0  0  0  0
  2 29  1  0  0  0  0
  3 24  1  0  0  0  0
  3  4  1  0  0  0  0
  4  5  2  0  0  0  0
  4 30  1  0  0  0  0
  5  6  1  0  0  0  0
  5 31  1  0  0  0  0
  6  7  2  0  0  0  0
  6  8  1  0  0  0  0
  8  9  1  0  0  0  0
  8 24  2  0  0  0  0
  9 10  1  0  0  0  0
  9 32  1  0  0  0  0
 10 11  2  0  0  0  0
 10 12  1  0  0  0  0
 12 13  1  0  0  0  0
 12 33  1  0  0  0  0
 13 19  1  0  0  0  0
 13 14  1  0  0  0  0
 13 34  1  0  0  0  0
 14 18  1  0  0  0  0
 14 15  1  0  0  0  0
 14 35  1  0  0  0  0
 15 16  1  0  0  0  0
 15 36  1  0  0  0  0
 15 37  1  0  0  0  0
 16 17  1  0  0  0  0
 16 38  1  0  0  0  0
 16 39  1  0  0  0  0
 17 18  1  0  0  0  0
 18 19  1  0  0  0  0
 18 40  1  0  0  0  0
 19 23  1  0  0  0  0
 19 20  1  0  0  0  0
 20 21  1  0  0  0  0
 20 41  1  0  0  0  0
 20 42  1  0  0  0  0
 21 22  1  0  0  0  0
 21 43  1  0  0  0  0
 21 44  1  0  0  0  0
 22 23  1  0  0  0  0
 22 45  1  0  0  0  0
 22 46  1  0  0  0  0
 23 47  1  0  0  0  0
 23 48  1  0  0  0  0
 24 49  1  0  0  0  0
M  END
> <s_m_source_file>
AV-unprocessed.smi

> <i_m_source_file_index>
2339

> <i_lp_mmshare_version>
43012

> <i_f3d_flags>
0

> <s_epik_input>
W0NIM11bQ0gyXW4xW2NIXVtjSF1jKD1PKWMoW2NIXTEpW05IXUMoPU8pW05IXVtDQEBIXTJbQ0BASF0oW0NIMl1bQ0gyXU8zKVtDQEBIXTNDMjRbQ0gyXVtDSDJdW0NIMl1bQ0gyXTQ=

> <s_epik_cmdline>
J2VwaWtfcHl0aG9uJywgJy1waCcsICc3LjAnLCAnLXRuJywgJzgnLCAnLW1hJywgJzIwMCcsICctbWV0YWxfYmluZGluZycsICctaW1hZScsICc8aW5maWxlLm1hZT4nLCAnLW9tYWUnLCAnPG91dGZpbGUubWFlPic=

> <r_lp_tautomer_probability>
1

> <r_epik_Ionization_Penalty>
0.00145966

> <r_epik_Ionization_Penalty_Charging>
0.00143969

> <r_epik_Ionization_Penalty_Neutral>
1.99697e-05

> <r_epik_State_Penalty>
0.000961843

> <r_epik_Charging_Adjusted_Penalty>
0.00240153

> <i_epik_Tot_Q>
0

> <i_epik_Tot_abs_Q>
0

> <r_epik_Metal_State_Penalty>
-0

> <b_epik_Metal_Only>
0

> <s_lp_Force_Field>
OPLS_2005

> <r_lp_Energy>
81.9731

> <b_lp_Chiralities_Consistent>
1

> <s_lp_Variant>
AV-unprocessed.smi:2339-3

> <Gold.Version>
5.8.1

> <Gold.Id.Protein>
6NUR|6NUR_protein|mol2

> <Gold.PLP.Fitness>
45.7187

> <Gold.PLP.PLP>
-37.1641

> <Gold.PLP.part.hbond>
-3.5031

> <Gold.PLP.part.metal>
0.0000

> <Gold.PLP.part.buried>
-3.2867

> <Gold.PLP.part.nonpolar>
-30.9877

> <Gold.PLP.part.repulsive>
0.3855

> <Gold.PLP.ligand.clash>
0.0000

> <Gold.PLP.ligand.torsion>
0.4682

> <Gold.PLP.Chemscore.Hbond>
2.4703

> <Gold.PLP.Chemscore.CHOScore>
0.6004

> <Gold.PLP.Chemscore.Metal>
0.0000

> <Gold.Chemscore.Hbonds>
donor molecule, donor type, donor heavy atom, donor atom, acceptor molecule, acceptor atom, score
      L1  H     9    32       P1  7948  1.00
      L1  H    12    33       P1  7948  0.85
      P1  H  8011  8017       L1    17  0.56
      L1  C     4    30       P1 10186  0.52

> <Gold.PLP.Chemscore.Internal.Correction>
0.2792

> <Gold.Rescore>
     Score         DG    S(hbond)    S(metal)    S(lipo)     H(rot)  DE(clash)    DE(int)     intcor
     16.04     -19.77       1.98        0.00      91.29       1.17       0.19       3.54       ----

> <Gold.Chemscore.Fitness>
16.0435

> <Gold.Chemscore.DG>
-19.7702

> <Gold.Chemscore.ZeroCoef>
-5.4800

> <Gold.Chemscore.Hbond>
1.9750

> <Gold.Chemscore.Metal>
0.0000

> <Gold.Chemscore.Lipo>
91.2913

> <Gold.Chemscore.Internal_Hbond>
0.0000

> <Gold.Chemscore.DEClash>
0.1904

> <Gold.Chemscore.DEInternal>
3.5363

> <Gold.Chemscore.Rot>
1.1670

> <Gold.Chemscore.Internal.Correction>
   9.000000E+99

> <Gold.Chemscore.Hbonds>
donor molecule, donor type, donor heavy atom, donor atom, acceptor molecule, acceptor atom, score
      L1  H     9    32       P1  7948  0.92
      L1  H    12    33       P1  7948  0.83
      P1  H  8011  8017       L1    17  0.08

> <Gold.Chemscore.Hbond.Weighted>
-6.5965

> <Gold.Chemscore.Metal.Weighted>
-0.0000

> <Gold.Chemscore.Lipo.Weighted>
-10.6811

> <Gold.Chemscore.Internal_Hbond.Weighted>
0.0000

> <Gold.Chemscore.DEClash.Weighted>
0.1904

> <Gold.Chemscore.DEInternal.Weighted>
3.5363

> <Gold.Chemscore.Rot.Weighted>
2.9874

> <Gold.Chemscore.Internal.Correction.Weighted>
   9.000000E+99

> <Gold.Protein.RotatedTorsions>
[ 6907 6896 6895 6894 ] final   84.05 input  -60.11 | X-H torsion
[ 7974 7965 7964 7962 ] final -118.27 input  175.53 | X-H torsion
[ 8008 7997 7996 7995 ] final   58.03 input   59.86 | X-H torsion
[ 10167 10162 10161 10158 ] final  -54.18 input  -65.29 | X-H torsion
[ 10718 10713 10712 10709 ] final   90.00 input   66.30 | X-H torsion
[ 10763 10752 10751 10750 ] final  -59.47 input  -60.55 | X-H torsion
[ 11005 11000 10999 10996 ] final  -15.79 input  -57.11 | X-H torsion

> <Gold.Protein.ActiveResidues>
 VAL166  LYS551  ARG553  GLY616  TRP617  ASP618  TYR619  PRO620  LYS621  CYS622 
 ASP623  PHE694  ASN695  SER759  ASP760  ASP761  ALA762  ILE779  LEU786  VAL792 
 PHE793  MET794  SER795  GLU796  ALA797  LYS798  CYS799  TRP800  GLU811  SER814 

> <Gold.Protein.RotatedAtoms>
  152.5343  134.2801  159.9003 H   0  0  0  0  0  0  0  0  0  0  0  0  # atno 6907 bound_to 6896
  151.2755  133.4228  159.2631 H   0  0  0  0  0  0  0  0  0  0  0  0  # atno 6908 bound_to 6896
  151.0329  134.9567  159.8177 H   0  0  0  0  0  0  0  0  0  0  0  0  # atno 6909 bound_to 6896
  145.0758  140.8391  143.4068 H   0  0  0  0  0  0  0  0  0  0  0  0  # atno 7974 bound_to 7965
  155.5434  140.3485  155.4452 H   0  0  0  0  0  0  0  0  0  0  0  0  # atno 8008 bound_to 7997
  156.0635  140.1346  156.9939 H   0  0  0  0  0  0  0  0  0  0  0  0  # atno 8009 bound_to 7997
  154.4491  140.0980  156.6537 H   0  0  0  0  0  0  0  0  0  0  0  0  # atno 8010 bound_to 7997
  140.6444  143.2526  151.4899 H   0  0  0  0  0  0  0  0  0  0  0  0  # atno 10167 bound_to 10162
  157.6957  131.0354  150.3511 H   0  0  0  0  0  0  0  0  0  0  0  0  # atno 10718 bound_to 10713
  154.2541  135.6320  153.5251 H   0  0  0  0  0  0  0  0  0  0  0  0  # atno 10763 bound_to 10752
  152.9907  135.5572  154.5775 H   0  0  0  0  0  0  0  0  0  0  0  0  # atno 10764 bound_to 10752
  154.5309  135.2888  155.1155 H   0  0  0  0  0  0  0  0  0  0  0  0  # atno 10765 bound_to 10752
  140.8002  133.8220  155.9463 H   0  0  0  0  0  0  0  0  0  0  0  0  # atno 11005 bound_to 11000
  145.1238  139.2676  143.5575 LP  0  0  0  0  0  0  0  0  0  0  0  0  # atno 17320 bound_to 7965
  146.3530  140.0869  142.8614 LP  0  0  0  0  0  0  0  0  0  0  0  0  # atno 17321 bound_to 7965
  139.5654  144.2054  152.1757 LP  0  0  0  0  0  0  0  0  0  0  0  0  # atno 17342 bound_to 10162
  140.1335  144.5267  150.6788 LP  0  0  0  0  0  0  0  0  0  0  0  0  # atno 17343 bound_to 10162
  156.3959  130.3906  149.6995 LP  0  0  0  0  0  0  0  0  0  0  0  0  # atno 17370 bound_to 10713
  156.4329  130.7824  151.2844 LP  0  0  0  0  0  0  0  0  0  0  0  0  # atno 17371 bound_to 10713
  140.9302  134.2031  157.4869 LP  0  0  0  0  0  0  0  0  0  0  0  0  # atno 17394 bound_to 11000
  139.8722  134.9829  156.5178 LP  0  0  0  0  0  0  0  0  0  0  0  0  # atno 17395 bound_to 11000

$$$$
