AV-unprocessed.smi:1407|AV-procd|sdf|5725|dock8
  -GOLD-   22720 5363D 1   1.00000     0.00000
 Structure written by MMmdl.
 50 51  0  0  0  0  0  0  0  0  2 V2000
  149.1043  135.3399  155.3382 C   0  0  0  0  0  0  0  0  0  0  0  0
  148.4439  136.4727  154.6351 N   0  3  0  0  0  0  0  0  0  0  0  0
  146.9881  136.1939  154.4859 C   0  0  0  0  0  0  0  0  0  0  0  0
  148.8110  137.8579  155.1241 C   0  0  0  0  0  0  0  0  0  0  0  0
  148.0855  138.0968  156.4910 C   0  0  0  0  0  0  0  0  0  0  0  0
  148.6344  137.2937  157.5820 N   0  0  0  0  0  0  0  0  0  0  0  0
  148.2671  137.3246  158.8735 C   0  0  0  0  0  0  0  0  0  0  0  0
  147.3758  138.0588  159.2962 O   0  0  0  0  0  0  0  0  0  0  0  0
  149.0198  136.4149  159.8598 C   0  0  0  0  0  0  0  0  0  0  0  0
  148.1520  135.6314  160.7581 N   0  0  0  0  0  0  0  0  0  0  0  0
  148.0586  134.2480  160.5054 C   0  0  0  0  0  0  0  0  0  0  0  0
  147.2802  133.4421  161.2445 C   0  0  0  0  0  0  0  0  0  0  0  0
  146.5275  134.0273  162.3285 C   0  0  0  0  0  0  0  0  0  0  0  0
  146.6078  135.3495  162.5777 C   0  0  0  0  0  0  0  0  0  0  0  0
  147.4489  136.2359  161.7652 C   0  0  0  0  0  0  0  0  0  0  0  0
  147.5082  137.4484  161.9687 O   0  0  0  0  0  0  0  0  0  0  0  0
  150.3598  137.9328  155.3489 C   0  0  0  0  0  0  0  0  0  0  0  0
  151.1178  139.2334  155.0195 C   0  0  0  0  0  0  0  0  0  0  0  0
  150.5366  140.5336  155.5880 C   0  0  0  0  0  0  0  0  0  0  0  0
  149.5063  141.1686  154.6469 C   0  0  0  0  0  0  0  0  0  0  0  0
  148.1856  140.3993  154.5315 C   0  0  0  0  0  0  0  0  0  0  0  0
  148.3080  138.9230  154.0834 C   0  0  0  0  0  0  0  0  0  0  0  0
  148.8979  135.3556  156.4084 H   0  0  0  0  0  0  0  0  0  0  0  0
  150.1838  135.3351  155.1940 H   0  0  0  0  0  0  0  0  0  0  0  0
  148.7476  134.3858  154.9481 H   0  0  0  0  0  0  0  0  0  0  0  0
  146.4966  136.0600  155.4492 H   0  0  0  0  0  0  0  0  0  0  0  0
  146.8477  135.2700  153.9240 H   0  0  0  0  0  0  0  0  0  0  0  0
  146.4492  136.9640  153.9401 H   0  0  0  0  0  0  0  0  0  0  0  0
  148.0651  139.1473  156.7758 H   0  0  0  0  0  0  0  0  0  0  0  0
  147.0308  137.8431  156.4147 H   0  0  0  0  0  0  0  0  0  0  0  0
  149.3731  136.6523  157.3300 H   0  0  0  0  0  0  0  0  0  0  0  0
  149.6531  135.7409  159.2810 H   0  0  0  0  0  0  0  0  0  0  0  0
  149.7166  137.0288  160.4333 H   0  0  0  0  0  0  0  0  0  0  0  0
  148.6500  133.8924  159.6739 H   0  0  0  0  0  0  0  0  0  0  0  0
  147.2181  132.3846  161.0335 H   0  0  0  0  0  0  0  0  0  0  0  0
  145.8986  133.4014  162.9449 H   0  0  0  0  0  0  0  0  0  0  0  0
  146.0388  135.7692  163.3944 H   0  0  0  0  0  0  0  0  0  0  0  0
  150.5857  137.6521  156.3786 H   0  0  0  0  0  0  0  0  0  0  0  0
  150.8604  137.1749  154.7478 H   0  0  0  0  0  0  0  0  0  0  0  0
  152.1325  139.1210  155.4036 H   0  0  0  0  0  0  0  0  0  0  0  0
  151.2376  139.3263  153.9394 H   0  0  0  0  0  0  0  0  0  0  0  0
  150.1369  140.3902  156.5909 H   0  0  0  0  0  0  0  0  0  0  0  0
  151.3555  141.2454  155.7010 H   0  0  0  0  0  0  0  0  0  0  0  0
  149.2870  142.1782  154.9962 H   0  0  0  0  0  0  0  0  0  0  0  0
  149.9446  141.2904  153.6556 H   0  0  0  0  0  0  0  0  0  0  0  0
  147.6154  140.5000  155.4529 H   0  0  0  0  0  0  0  0  0  0  0  0
  147.5800  140.9180  153.7872 H   0  0  0  0  0  0  0  0  0  0  0  0
  148.9196  138.8906  153.1810 H   0  0  0  0  0  0  0  0  0  0  0  0
  147.3061  138.6336  153.7624 H   0  0  0  0  0  0  0  0  0  0  0  0
  148.8088  136.4363  153.6937 H   0  0  0  0  0  0  0  0  0  0  0  0
  1  2  1  0  0  0  0
  1 23  1  0  0  0  0
  1 24  1  0  0  0  0
  1 25  1  0  0  0  0
  2  3  1  0  0  0  0
  2  4  1  0  0  0  0
  2 50  1  0  0  0  0
  3 26  1  0  0  0  0
  3 27  1  0  0  0  0
  3 28  1  0  0  0  0
  4 22  1  0  0  0  0
  4  5  1  0  0  0  0
  4 17  1  0  0  0  0
  5  6  1  0  0  0  0
  5 29  1  0  0  0  0
  5 30  1  0  0  0  0
  6  7  1  0  0  0  0
  6 31  1  0  0  0  0
  7  8  2  0  0  0  0
  7  9  1  0  0  0  0
  9 10  1  0  0  0  0
  9 32  1  0  0  0  0
  9 33  1  0  0  0  0
 10 15  1  0  0  0  0
 10 11  1  0  0  0  0
 11 12  2  0  0  0  0
 11 34  1  0  0  0  0
 12 13  1  0  0  0  0
 12 35  1  0  0  0  0
 13 14  2  0  0  0  0
 13 36  1  0  0  0  0
 14 15  1  0  0  0  0
 14 37  1  0  0  0  0
 15 16  2  0  0  0  0
 17 18  1  0  0  0  0
 17 38  1  0  0  0  0
 17 39  1  0  0  0  0
 18 19  1  0  0  0  0
 18 40  1  0  0  0  0
 18 41  1  0  0  0  0
 19 20  1  0  0  0  0
 19 42  1  0  0  0  0
 19 43  1  0  0  0  0
 20 21  1  0  0  0  0
 20 44  1  0  0  0  0
 20 45  1  0  0  0  0
 21 22  1  0  0  0  0
 21 46  1  0  0  0  0
 21 47  1  0  0  0  0
 22 48  1  0  0  0  0
 22 49  1  0  0  0  0
M  CHG  1   2   1
M  END
> <s_m_source_file>
AV-unprocessed.smi

> <i_m_source_file_index>
1407

> <i_lp_mmshare_version>
43012

> <i_f3d_flags>
0

> <s_epik_input>
W0NIMl0xW0NIMl1bQ0gyXVtDSDJdW0NIMl1bQ0gyXUMxKE4oW0NIM10pW0NIM10pW0NIMl1bTkhdQyg9TylbQ0gyXW4yW2NIXVtjSF1bY0hdW2NIXWMyPU8=

> <s_epik_cmdline>
J2VwaWtfcHl0aG9uJywgJy1waCcsICc3LjAnLCAnLXRuJywgJzgnLCAnLW1hJywgJzIwMCcsICctbWV0YWxfYmluZGluZycsICctaW1hZScsICc8aW5maWxlLm1hZT4nLCAnLW9tYWUnLCAnPG91dGZpbGUubWFlPic=

> <r_lp_tautomer_probability>
1

> <r_epik_Ionization_Penalty>
0.00225809

> <r_epik_Ionization_Penalty_Charging>
0.00225802

> <r_epik_Ionization_Penalty_Neutral>
7.38919e-08

> <r_epik_State_Penalty>
0.00155497

> <r_epik_Charging_Adjusted_Penalty>
0.00381299

> <i_epik_Tot_Q>
1

> <i_epik_Tot_abs_Q>
1

> <r_epik_Metal_State_Penalty>
-0

> <b_epik_Metal_Only>
0

> <s_lp_Force_Field>
OPLS_2005

> <r_lp_Energy>
50.9808

> <b_lp_Chiralities_Consistent>
1

> <s_lp_Variant>
AV-unprocessed.smi:1407-1

> <Gold.Version>
5.8.1

> <Gold.Id.Protein>
6NUR|6NUR_protein|mol2

> <Gold.PLP.Fitness>
47.2316

> <Gold.PLP.PLP>
-37.2985

> <Gold.PLP.part.hbond>
-4.0000

> <Gold.PLP.part.metal>
0.0000

> <Gold.PLP.part.buried>
-3.1988

> <Gold.PLP.part.nonpolar>
-30.4578

> <Gold.PLP.part.repulsive>
0.0228

> <Gold.PLP.ligand.clash>
0.0000

> <Gold.PLP.ligand.torsion>
0.5036

> <Gold.PLP.Chemscore.Hbond>
3.6000

> <Gold.PLP.Chemscore.CHOScore>
0.0000

> <Gold.PLP.Chemscore.Metal>
0.0000

> <Gold.Chemscore.Hbonds>
donor molecule, donor type, donor heavy atom, donor atom, acceptor molecule, acceptor atom, score
      L1  H     2    50       P1  7948  2.00
      P1  H  6931  6943       L1    16  0.80
      P1  H  6934  6947       L1    16  0.62

> <Gold.PLP.Chemscore.Internal.Correction>
0.1403

> <Gold.Rescore>
     Score         DG    S(hbond)    S(metal)    S(lipo)     H(rot)  DE(clash)    DE(int)     intcor
     16.58     -18.69       2.55        0.00      79.74       1.81       0.03       2.09       ----

> <Gold.Chemscore.Fitness>
16.5753

> <Gold.Chemscore.DG>
-18.6941

> <Gold.Chemscore.ZeroCoef>
-5.4800

> <Gold.Chemscore.Hbond>
2.5536

> <Gold.Chemscore.Metal>
0.0000

> <Gold.Chemscore.Lipo>
79.7433

> <Gold.Chemscore.Internal_Hbond>
0.0000

> <Gold.Chemscore.DEClash>
0.0272

> <Gold.Chemscore.DEInternal>
2.0916

> <Gold.Chemscore.Rot>
1.8145

> <Gold.Chemscore.Internal.Correction>
   9.000000E+99

> <Gold.Chemscore.Hbonds>
donor molecule, donor type, donor heavy atom, donor atom, acceptor molecule, acceptor atom, score
      L1  H     2    50       P1  7948  1.00
      P1  H  6931  6943       L1    16  0.78
      P1  H  6934  6947       L1    16  0.62

> <Gold.Chemscore.Hbond.Weighted>
-8.5292

> <Gold.Chemscore.Metal.Weighted>
-0.0000

> <Gold.Chemscore.Lipo.Weighted>
-9.3300

> <Gold.Chemscore.Internal_Hbond.Weighted>
0.0000

> <Gold.Chemscore.DEClash.Weighted>
0.0272

> <Gold.Chemscore.DEInternal.Weighted>
2.0916

> <Gold.Chemscore.Rot.Weighted>
4.6451

> <Gold.Chemscore.Internal.Correction.Weighted>
   9.000000E+99

> <Gold.Protein.RotatedTorsions>
[ 6907 6896 6895 6894 ] final    9.55 input  -60.11 | X-H torsion
[ 7974 7965 7964 7962 ] final -124.27 input  175.53 | X-H torsion
[ 8008 7997 7996 7995 ] final  -14.74 input   59.86 | X-H torsion
[ 10167 10162 10161 10158 ] final   59.39 input  -65.29 | X-H torsion
[ 10718 10713 10712 10709 ] final  136.98 input   66.30 | X-H torsion
[ 10763 10752 10751 10750 ] final  -16.66 input  -60.55 | X-H torsion
[ 11005 11000 10999 10996 ] final  -69.44 input  -57.11 | X-H torsion

> <Gold.Protein.ActiveResidues>
 VAL166  LYS551  ARG553  GLY616  TRP617  ASP618  TYR619  PRO620  LYS621  CYS622 
 ASP623  PHE694  ASN695  SER759  ASP760  ASP761  ALA762  ILE779  LEU786  VAL792 
 PHE793  MET794  SER795  GLU796  ALA797  LYS798  CYS799  TRP800  GLU811  SER814 

> <Gold.Protein.RotatedAtoms>
  151.7240  135.0888  160.0288 H   0  0  0  0  0  0  0  0  0  0  0  0  # atno 6907 bound_to 6896
  152.3583  133.6261  159.6005 H   0  0  0  0  0  0  0  0  0  0  0  0  # atno 6908 bound_to 6896
  150.7587  133.9380  159.3489 H   0  0  0  0  0  0  0  0  0  0  0  0  # atno 6909 bound_to 6896
  145.0098  140.7896  143.4445 H   0  0  0  0  0  0  0  0  0  0  0  0  # atno 7974 bound_to 7965
  154.5186  140.2215  155.9018 H   0  0  0  0  0  0  0  0  0  0  0  0  # atno 8008 bound_to 7997
  156.1636  140.3137  155.8815 H   0  0  0  0  0  0  0  0  0  0  0  0  # atno 8009 bound_to 7997
  155.3701  140.0466  157.3036 H   0  0  0  0  0  0  0  0  0  0  0  0  # atno 8010 bound_to 7997
  140.1770  144.4220  150.6634 H   0  0  0  0  0  0  0  0  0  0  0  0  # atno 10167 bound_to 10162
  157.4409  131.1057  151.0144 H   0  0  0  0  0  0  0  0  0  0  0  0  # atno 10718 bound_to 10713
  153.5619  135.7009  153.5543 H   0  0  0  0  0  0  0  0  0  0  0  0  # atno 10763 bound_to 10752
  153.3421  135.4018  155.1580 H   0  0  0  0  0  0  0  0  0  0  0  0  # atno 10764 bound_to 10752
  154.8646  135.3745  154.5137 H   0  0  0  0  0  0  0  0  0  0  0  0  # atno 10765 bound_to 10752
  141.1554  133.6764  156.6599 H   0  0  0  0  0  0  0  0  0  0  0  0  # atno 11005 bound_to 11000
  145.2038  139.2238  143.5179 LP  0  0  0  0  0  0  0  0  0  0  0  0  # atno 17320 bound_to 7965
  146.3468  140.1862  142.8589 LP  0  0  0  0  0  0  0  0  0  0  0  0  # atno 17321 bound_to 7965
  140.6545  143.2234  151.6001 LP  0  0  0  0  0  0  0  0  0  0  0  0  # atno 17342 bound_to 10162
  139.5313  144.2909  152.1153 LP  0  0  0  0  0  0  0  0  0  0  0  0  # atno 17343 bound_to 10162
  157.1007  130.5981  149.5459 LP  0  0  0  0  0  0  0  0  0  0  0  0  # atno 17370 bound_to 10713
  155.9948  130.5013  150.7435 LP  0  0  0  0  0  0  0  0  0  0  0  0  # atno 17371 bound_to 10713
  140.3255  134.7972  157.4286 LP  0  0  0  0  0  0  0  0  0  0  0  0  # atno 17394 bound_to 11000
  140.1061  134.5408  155.8308 LP  0  0  0  0  0  0  0  0  0  0  0  0  # atno 17395 bound_to 11000

$$$$
