AV-unprocessed.smi:178|AV-procd|sdf|1446|dock8
  -GOLD-   2262019243D 1   1.00000     0.00000
 Structure written by MMmdl.
 50 52  0  0  0  0  0  0  0  0  1 V2000
  151.9765  144.7144  160.1336 C   0  0  0  0  0  0  0  0  0  0  0  0
  151.6948  143.5699  160.9197 O   0  0  0  0  0  0  0  0  0  0  0  0
  152.3195  142.4007  160.4194 C   0  0  0  0  0  0  0  0  0  0  0  0
  151.9101  142.2160  158.9500 C   0  0  0  0  0  0  0  0  0  0  0  0
  152.0767  140.8373  158.4835 N   0  0  0  0  0  0  0  0  0  0  0  0
  152.8463  139.9104  159.3097 C   0  0  0  0  0  0  0  0  0  0  0  0
  152.2426  138.4998  159.3332 C   0  0  0  0  0  0  0  0  0  0  0  0
  152.8071  137.6319  158.2898 C   0  0  0  0  0  0  0  0  0  0  0  0
  153.2514  136.9489  157.4685 N   0  0  0  0  0  0  0  0  0  0  0  0
  151.6469  140.4845  157.2364 C   0  0  0  0  0  0  0  0  0  0  0  0
  152.4946  139.7668  156.4509 N   0  0  0  0  0  0  0  0  0  0  0  0
  152.1438  139.3967  155.2173 C   0  0  0  0  0  0  0  0  0  0  0  0
  151.0029  139.6323  154.5711 N   0  0  0  0  0  0  0  0  0  0  0  0
  150.1366  140.3438  155.3459 C   0  0  0  0  0  0  0  0  0  0  0  0
  150.3710  140.8069  156.6750 C   0  0  0  0  0  0  0  0  0  0  0  0
  149.2416  141.4837  157.1271 N   0  0  0  0  0  0  0  0  0  0  0  0
  148.4039  141.4342  156.1291 C   0  0  0  0  0  0  0  0  0  0  0  0
  148.8593  140.7640  155.0189 N   0  0  0  0  0  0  0  0  0  0  0  0
  148.1383  140.5581  153.7721 C   0  0  0  0  0  0  0  0  0  0  0  0
  147.3855  139.2079  153.7115 C   0  0  2  0  0  0  0  0  0  0  0  0
  148.3352  138.1573  153.8027 O   0  0  0  0  0  0  0  0  0  0  0  0
  146.5660  139.0104  152.4451 C   0  0  0  0  0  0  0  0  0  0  0  0
  145.5215  137.9921  152.8837 C   0  0  0  0  0  0  0  0  0  0  0  0
  145.2231  138.3367  154.2301 O   0  0  0  0  0  0  0  0  0  0  0  0
  146.3057  139.0656  154.8074 C   0  0  1  0  0  0  0  0  0  0  0  0
  146.7489  138.4268  156.1335 C   0  0  0  0  0  0  0  0  0  0  0  0
  151.4791  145.5845  160.5618 H   0  0  0  0  0  0  0  0  0  0  0  0
  151.6158  144.5891  159.1119 H   0  0  0  0  0  0  0  0  0  0  0  0
  153.0474  144.9194  160.1045 H   0  0  0  0  0  0  0  0  0  0  0  0
  153.4030  142.4931  160.5061 H   0  0  0  0  0  0  0  0  0  0  0  0
  152.0160  141.5376  161.0125 H   0  0  0  0  0  0  0  0  0  0  0  0
  150.8633  142.4997  158.8382 H   0  0  0  0  0  0  0  0  0  0  0  0
  152.4668  142.9030  158.3118 H   0  0  0  0  0  0  0  0  0  0  0  0
  153.8602  139.8550  158.9122 H   0  0  0  0  0  0  0  0  0  0  0  0
  152.9642  140.3020  160.3193 H   0  0  0  0  0  0  0  0  0  0  0  0
  152.4128  138.0164  160.2947 H   0  0  0  0  0  0  0  0  0  0  0  0
  151.1650  138.5409  159.1774 H   0  0  0  0  0  0  0  0  0  0  0  0
  152.8842  138.8321  154.6702 H   0  0  0  0  0  0  0  0  0  0  0  0
  147.4222  141.8829  156.1775 H   0  0  0  0  0  0  0  0  0  0  0  0
  147.4394  141.3850  153.6396 H   0  0  0  0  0  0  0  0  0  0  0  0
  148.8529  140.6300  152.9512 H   0  0  0  0  0  0  0  0  0  0  0  0
  148.3589  137.7049  152.9730 H   0  0  0  0  0  0  0  0  0  0  0  0
  146.0644  139.9401  152.1733 H   0  0  0  0  0  0  0  0  0  0  0  0
  147.1531  138.6829  151.5858 H   0  0  0  0  0  0  0  0  0  0  0  0
  144.6284  138.0085  152.2588 H   0  0  0  0  0  0  0  0  0  0  0  0
  145.9351  136.9830  152.8602 H   0  0  0  0  0  0  0  0  0  0  0  0
  145.9016  140.0548  155.0272 H   0  0  0  0  0  0  0  0  0  0  0  0
  147.5821  138.9749  156.5737 H   0  0  0  0  0  0  0  0  0  0  0  0
  147.0587  137.3902  155.9991 H   0  0  0  0  0  0  0  0  0  0  0  0
  145.9311  138.4312  156.8544 H   0  0  0  0  0  0  0  0  0  0  0  0
  1  2  1  0  0  0  0
  1 27  1  0  0  0  0
  1 28  1  0  0  0  0
  1 29  1  0  0  0  0
  2  3  1  0  0  0  0
  3  4  1  0  0  0  0
  3 30  1  0  0  0  0
  3 31  1  0  0  0  0
  4  5  1  0  0  0  0
  4 32  1  0  0  0  0
  4 33  1  0  0  0  0
  5  6  1  0  0  0  0
  5 10  1  0  0  0  0
  6  7  1  0  0  0  0
  6 34  1  0  0  0  0
  6 35  1  0  0  0  0
  7  8  1  0  0  0  0
  7 36  1  0  0  0  0
  7 37  1  0  0  0  0
  8  9  3  0  0  0  0
 10 15  1  0  0  0  0
 10 11  2  0  0  0  0
 11 12  1  0  0  0  0
 12 13  2  0  0  0  0
 12 38  1  0  0  0  0
 13 14  1  0  0  0  0
 14 18  1  0  0  0  0
 14 15  2  0  0  0  0
 15 16  1  0  0  0  0
 16 17  2  0  0  0  0
 17 18  1  0  0  0  0
 17 39  1  0  0  0  0
 18 19  1  0  0  0  0
 19 20  1  0  0  0  0
 19 40  1  0  0  0  0
 19 41  1  0  0  0  0
 20 25  1  0  0  0  0
 20 21  1  0  0  0  0
 20 22  1  0  0  0  0
 21 42  1  0  0  0  0
 22 23  1  0  0  0  0
 22 43  1  0  0  0  0
 22 44  1  0  0  0  0
 23 24  1  0  0  0  0
 23 45  1  0  0  0  0
 23 46  1  0  0  0  0
 24 25  1  0  0  0  0
 25 26  1  0  0  0  0
 25 47  1  0  0  0  0
 26 48  1  0  0  0  0
 26 49  1  0  0  0  0
 26 50  1  0  0  0  0
M  END
> <s_m_source_file>
AV-unprocessed.smi

> <i_m_source_file_index>
178

> <i_lp_mmshare_version>
43012

> <i_f3d_flags>
0

> <s_epik_input>
W0NIM11PW0NIMl1bQ0gyXU4oW0NIMl1bQ0gyXUMjTiljKG5bY0hdbjEpYyhjMTIpbltjSF1uMltDSDJdW0NAQF0zKFtPSF0pW0NIMl1bQ0gyXU9bQ0BIXTNbQ0gzXQ==

> <s_epik_cmdline>
J2VwaWtfcHl0aG9uJywgJy1waCcsICc3LjAnLCAnLXRuJywgJzgnLCAnLW1hJywgJzIwMCcsICctbWV0YWxfYmluZGluZycsICctaW1hZScsICc8aW5maWxlLm1hZT4nLCAnLW9tYWUnLCAnPG91dGZpbGUubWFlPic=

> <r_lp_tautomer_probability>
1

> <r_epik_Ionization_Penalty>
0.000885317

> <r_epik_Ionization_Penalty_Charging>
0

> <r_epik_Ionization_Penalty_Neutral>
0.000885317

> <r_epik_State_Penalty>
0.00047273

> <r_epik_Charging_Adjusted_Penalty>
0.00047273

> <i_epik_Tot_Q>
0

> <i_epik_Tot_abs_Q>
0

> <r_epik_Metal_State_Penalty>
-0

> <b_epik_Metal_Only>
0

> <s_lp_Force_Field>
OPLS_2005

> <r_lp_Energy>
29.3608

> <b_lp_Chiralities_Consistent>
1

> <s_lp_Variant>
AV-unprocessed.smi:178-2

> <Gold.Version>
5.8.1

> <Gold.Id.Protein>
6NUR|6NUR_protein|mol2

> <Gold.PLP.Fitness>
46.7605

> <Gold.PLP.PLP>
-41.1395

> <Gold.PLP.part.hbond>
-3.2675

> <Gold.PLP.part.metal>
0.0000

> <Gold.PLP.part.buried>
-3.8473

> <Gold.PLP.part.nonpolar>
-35.5751

> <Gold.PLP.part.repulsive>
0.4368

> <Gold.PLP.ligand.clash>
0.0000

> <Gold.PLP.ligand.torsion>
1.7122

> <Gold.PLP.Chemscore.Hbond>
2.9120

> <Gold.PLP.Chemscore.CHOScore>
0.0000

> <Gold.PLP.Chemscore.Metal>
0.0000

> <Gold.Chemscore.Hbonds>
donor molecule, donor type, donor heavy atom, donor atom, acceptor molecule, acceptor atom, score
      L1  H    21    42       P1  7948  1.00
      P1  H  7989  7998       L1    13  0.80
      P1  H  7997  8009       L1    11  0.86

> <Gold.PLP.Chemscore.Internal.Correction>
0.3094

> <Gold.Rescore>
     Score         DG    S(hbond)    S(metal)    S(lipo)     H(rot)  DE(clash)    DE(int)     intcor
     12.98     -16.33       3.25        0.00      73.66       3.37       0.30       3.05       ----

> <Gold.Chemscore.Fitness>
12.9836

> <Gold.Chemscore.DG>
-16.3283

> <Gold.Chemscore.ZeroCoef>
-5.4800

> <Gold.Chemscore.Hbond>
3.2529

> <Gold.Chemscore.Metal>
0.0000

> <Gold.Chemscore.Lipo>
73.6646

> <Gold.Chemscore.Internal_Hbond>
0.0000

> <Gold.Chemscore.DEClash>
0.2965

> <Gold.Chemscore.DEInternal>
3.0481

> <Gold.Chemscore.Rot>
3.3732

> <Gold.Chemscore.Internal.Correction>
   9.000000E+99

> <Gold.Chemscore.Hbonds>
donor molecule, donor type, donor heavy atom, donor atom, acceptor molecule, acceptor atom, score
      L1  H    21    42       P1  7948  0.95
      P1  H  7989  7998       L1    13  0.05
      P1  H  7997  8009       L1    11  0.72

> <Gold.Chemscore.Hbond.Weighted>
-10.8648

> <Gold.Chemscore.Metal.Weighted>
-0.0000

> <Gold.Chemscore.Lipo.Weighted>
-8.6188

> <Gold.Chemscore.Internal_Hbond.Weighted>
0.0000

> <Gold.Chemscore.DEClash.Weighted>
0.2965

> <Gold.Chemscore.DEInternal.Weighted>
3.0481

> <Gold.Chemscore.Rot.Weighted>
8.6354

> <Gold.Chemscore.Internal.Correction.Weighted>
   9.000000E+99

> <Gold.Protein.RotatedTorsions>
[ 6907 6896 6895 6894 ] final -155.04 input  -60.11 | X-H torsion
[ 7974 7965 7964 7962 ] final   89.50 input  175.53 | X-H torsion
[ 8008 7997 7996 7995 ] final  169.09 input   59.86 | X-H torsion
[ 10167 10162 10161 10158 ] final   22.26 input  -65.29 | X-H torsion
[ 10718 10713 10712 10709 ] final  -88.82 input   66.30 | X-H torsion
[ 10763 10752 10751 10750 ] final  131.79 input  -60.55 | X-H torsion
[ 11005 11000 10999 10996 ] final   71.57 input  -57.11 | X-H torsion

> <Gold.Protein.ActiveResidues>
 VAL166  LYS551  ARG553  GLY616  TRP617  ASP618  TYR619  PRO620  LYS621  CYS622 
 ASP623  PHE694  ASN695  SER759  ASP760  ASP761  ALA762  ILE779  LEU786  VAL792 
 PHE793  MET794  SER795  GLU796  ALA797  LYS798  CYS799  TRP800  GLU811  SER814 

> <Gold.Protein.RotatedAtoms>
  151.2666  133.4276  159.2618 H   0  0  0  0  0  0  0  0  0  0  0  0  # atno 6907 bound_to 6896
  151.0483  134.9655  159.8208 H   0  0  0  0  0  0  0  0  0  0  0  0  # atno 6908 bound_to 6896
  152.5378  134.2621  159.8992 H   0  0  0  0  0  0  0  0  0  0  0  0  # atno 6909 bound_to 6896
  145.5315  139.2283  143.2616 H   0  0  0  0  0  0  0  0  0  0  0  0  # atno 7974 bound_to 7965
  156.1489  140.1573  156.8802 H   0  0  0  0  0  0  0  0  0  0  0  0  # atno 8008 bound_to 7997
  154.5053  140.0815  156.7918 H   0  0  0  0  0  0  0  0  0  0  0  0  # atno 8009 bound_to 7997
  155.3935  140.3411  155.4255 H   0  0  0  0  0  0  0  0  0  0  0  0  # atno 8010 bound_to 7997
  140.5362  143.9756  150.6493 H   0  0  0  0  0  0  0  0  0  0  0  0  # atno 10167 bound_to 10162
  155.9983  130.4850  150.5078 H   0  0  0  0  0  0  0  0  0  0  0  0  # atno 10718 bound_to 10713
  153.7802  135.3169  155.3364 H   0  0  0  0  0  0  0  0  0  0  0  0  # atno 10763 bound_to 10752
  154.8164  135.4633  154.0659 H   0  0  0  0  0  0  0  0  0  0  0  0  # atno 10764 bound_to 10752
  153.1945  135.6913  153.8395 H   0  0  0  0  0  0  0  0  0  0  0  0  # atno 10765 bound_to 10752
  139.9536  134.7182  156.0804 H   0  0  0  0  0  0  0  0  0  0  0  0  # atno 11005 bound_to 11000
  146.2041  140.6132  142.9089 LP  0  0  0  0  0  0  0  0  0  0  0  0  # atno 17320 bound_to 7965
  144.7623  140.5451  143.6727 LP  0  0  0  0  0  0  0  0  0  0  0  0  # atno 17321 bound_to 7965
  140.3144  143.3177  152.0847 LP  0  0  0  0  0  0  0  0  0  0  0  0  # atno 17342 bound_to 10162
  139.4972  144.6615  151.6453 LP  0  0  0  0  0  0  0  0  0  0  0  0  # atno 17343 bound_to 10162
  157.3054  131.0653  151.2038 LP  0  0  0  0  0  0  0  0  0  0  0  0  # atno 17370 bound_to 10713
  157.3003  130.6839  149.6160 LP  0  0  0  0  0  0  0  0  0  0  0  0  # atno 17371 bound_to 10713
  141.1204  133.6614  156.3201 LP  0  0  0  0  0  0  0  0  0  0  0  0  # atno 17394 bound_to 11000
  140.5660  134.5887  157.5446 LP  0  0  0  0  0  0  0  0  0  0  0  0  # atno 17395 bound_to 11000

$$$$
