AV-unprocessed.smi:861|AV-procd|sdf|3969|dock3
  -GOLD-   22720 1443D 1   1.00000     0.00000
 Structure written by MMmdl.
 44 45  0  0  0  0  0  0  0  0  2 V2000
  152.9517  143.1874  160.1052 C   0  0  0  0  0  0  0  0  0  0  0  0
  152.2268  144.2856  159.3075 C   0  0  0  0  0  0  0  0  0  0  0  0
  151.8919  145.4730  160.2239 C   0  0  0  0  0  0  0  0  0  0  0  0
  150.9572  143.7640  158.6019 C   0  0  0  0  0  0  0  0  0  0  0  0
  151.2394  142.7542  157.4714 C   0  0  0  0  0  0  0  0  0  0  0  0
  150.0079  142.3413  156.7515 N   0  3  2  0  0  0  0  0  0  0  0  0
  149.0188  141.7037  157.6529 C   0  0  0  0  0  0  0  0  0  0  0  0
  147.7403  141.3417  156.8808 C   0  0  0  0  0  0  0  0  0  0  0  0
  148.0714  140.4965  155.7868 O   0  0  0  0  0  0  0  0  0  0  0  0
  148.9400  141.1347  154.8562 C   0  0  2  0  0  0  0  0  0  0  0  0
  149.1624  140.1827  153.6728 C   0  0  0  0  0  0  0  0  0  0  0  0
  149.4986  138.8384  154.1210 N   0  0  0  0  0  0  0  0  0  0  0  0
  150.7268  138.5774  154.7429 C   0  0  0  0  0  0  0  0  0  0  0  0
  150.8464  137.4396  155.5657 C   0  0  0  0  0  0  0  0  0  0  0  0
  152.0920  137.2005  156.1714 C   0  0  0  0  0  0  0  0  0  0  0  0
  153.1246  138.1190  155.9080 C   0  0  0  0  0  0  0  0  0  0  0  0
  152.9539  139.1966  155.1092 N   0  0  0  0  0  0  0  0  0  0  0  0
  151.7676  139.4227  154.5333 N   0  0  0  0  0  0  0  0  0  0  0  0
  150.2618  141.4751  155.5728 C   0  0  0  0  0  0  0  0  0  0  0  0
  152.2993  142.7521  160.8631 H   0  0  0  0  0  0  0  0  0  0  0  0
  153.8271  143.5894  160.6159 H   0  0  0  0  0  0  0  0  0  0  0  0
  153.3020  142.3803  159.4630 H   0  0  0  0  0  0  0  0  0  0  0  0
  152.9128  144.6539  158.5436 H   0  0  0  0  0  0  0  0  0  0  0  0
  151.1987  145.1813  161.0136 H   0  0  0  0  0  0  0  0  0  0  0  0
  151.4343  146.2885  159.6631 H   0  0  0  0  0  0  0  0  0  0  0  0
  152.7900  145.8688  160.6992 H   0  0  0  0  0  0  0  0  0  0  0  0
  150.2879  143.3179  159.3388 H   0  0  0  0  0  0  0  0  0  0  0  0
  150.4231  144.6191  158.1887 H   0  0  0  0  0  0  0  0  0  0  0  0
  151.9660  143.1577  156.7645 H   0  0  0  0  0  0  0  0  0  0  0  0
  151.6925  141.8628  157.9042 H   0  0  0  0  0  0  0  0  0  0  0  0
  149.4539  140.8063  158.0962 H   0  0  0  0  0  0  0  0  0  0  0  0
  148.7710  142.3791  158.4726 H   0  0  0  0  0  0  0  0  0  0  0  0
  147.0419  140.8178  157.5340 H   0  0  0  0  0  0  0  0  0  0  0  0
  147.2314  142.2385  156.5239 H   0  0  0  0  0  0  0  0  0  0  0  0
  148.4795  142.0553  154.4919 H   0  0  0  0  0  0  0  0  0  0  0  0
  148.2515  140.1284  153.0750 H   0  0  0  0  0  0  0  0  0  0  0  0
  149.9520  140.5635  153.0235 H   0  0  0  0  0  0  0  0  0  0  0  0
  148.8041  138.1085  154.0531 H   0  0  0  0  0  0  0  0  0  0  0  0
  150.0138  136.7707  155.7276 H   0  0  0  0  0  0  0  0  0  0  0  0
  152.2506  136.3463  156.8126 H   0  0  0  0  0  0  0  0  0  0  0  0
  154.1041  137.9884  156.3441 H   0  0  0  0  0  0  0  0  0  0  0  0
  150.9270  141.9760  154.8706 H   0  0  0  0  0  0  0  0  0  0  0  0
  150.7645  140.5605  155.8924 H   0  0  0  0  0  0  0  0  0  0  0  0
  149.5753  143.1877  156.4095 H   0  0  0  0  0  0  0  0  0  0  0  0
  1  2  1  0  0  0  0
  1 20  1  0  0  0  0
  1 21  1  0  0  0  0
  1 22  1  0  0  0  0
  2  3  1  0  0  0  0
  2  4  1  0  0  0  0
  2 23  1  0  0  0  0
  3 24  1  0  0  0  0
  3 25  1  0  0  0  0
  3 26  1  0  0  0  0
  4  5  1  0  0  0  0
  4 27  1  0  0  0  0
  4 28  1  0  0  0  0
  5  6  1  0  0  0  0
  5 29  1  0  0  0  0
  5 30  1  0  0  0  0
  6 19  1  0  0  0  0
  6  7  1  0  0  0  0
  6 44  1  0  0  0  0
  7  8  1  0  0  0  0
  7 31  1  0  0  0  0
  7 32  1  0  0  0  0
  8  9  1  0  0  0  0
  8 33  1  0  0  0  0
  8 34  1  0  0  0  0
  9 10  1  0  0  0  0
 10 11  1  0  0  0  0
 10 19  1  0  0  0  0
 10 35  1  0  0  0  0
 11 12  1  0  0  0  0
 11 36  1  0  0  0  0
 11 37  1  0  0  0  0
 12 13  1  0  0  0  0
 12 38  1  0  0  0  0
 13 18  1  0  0  0  0
 13 14  2  0  0  0  0
 14 15  1  0  0  0  0
 14 39  1  0  0  0  0
 15 16  2  0  0  0  0
 15 40  1  0  0  0  0
 16 17  1  0  0  0  0
 16 41  1  0  0  0  0
 17 18  2  0  0  0  0
 19 42  1  0  0  0  0
 19 43  1  0  0  0  0
M  CHG  1   6   1
M  END
> <s_m_source_file>
AV-unprocessed.smi

> <i_m_source_file_index>
861

> <i_lp_mmshare_version>
43012

> <i_f3d_flags>
0

> <s_epik_input>
W0NIM11bQ0hdKFtDSDNdKVtDSDJdW0NIMl1OMVtDSDJdW0NIMl1PW0NASF0oW0NIMl0xKVtDSDJdW05IXWMyW2NIXVtjSF1bY0hdbm4y

> <s_epik_cmdline>
J2VwaWtfcHl0aG9uJywgJy1waCcsICc3LjAnLCAnLXRuJywgJzgnLCAnLW1hJywgJzIwMCcsICctbWV0YWxfYmluZGluZycsICctaW1hZScsICc8aW5maWxlLm1hZT4nLCAnLW9tYWUnLCAnPG91dGZpbGUubWFlPic=

> <r_lp_tautomer_probability>
0.999978

> <r_epik_Ionization_Penalty>
0.114704

> <r_epik_Ionization_Penalty_Charging>
0.0953451

> <r_epik_Ionization_Penalty_Neutral>
0.0193593

> <r_epik_State_Penalty>
0.104983

> <r_epik_Charging_Adjusted_Penalty>
0.200328

> <i_epik_Tot_Q>
1

> <i_epik_Tot_abs_Q>
1

> <r_epik_Metal_State_Penalty>
0.100113

> <b_epik_Metal_Only>
0

> <s_lp_Force_Field>
OPLS_2005

> <r_lp_Energy>
25.0457

> <b_lp_Chiralities_Consistent>
1

> <s_lp_Variant>
AV-unprocessed.smi:861-4

> <Gold.Version>
5.8.1

> <Gold.Id.Protein>
6NUR|6NUR_protein|mol2

> <Gold.PLP.Fitness>
48.0461

> <Gold.PLP.PLP>
-36.4940

> <Gold.PLP.part.hbond>
-3.0000

> <Gold.PLP.part.metal>
0.0000

> <Gold.PLP.part.buried>
-2.8638

> <Gold.PLP.part.nonpolar>
-30.7640

> <Gold.PLP.part.repulsive>
0.1898

> <Gold.PLP.ligand.clash>
0.0119

> <Gold.PLP.ligand.torsion>
0.2681

> <Gold.PLP.Chemscore.Hbond>
4.0000

> <Gold.PLP.Chemscore.CHOScore>
0.0000

> <Gold.PLP.Chemscore.Metal>
0.0000

> <Gold.Chemscore.Hbonds>
donor molecule, donor type, donor heavy atom, donor atom, acceptor molecule, acceptor atom, score
      L1  H     6    44       P1  8028  2.00
      P1  H  7989  7998       L1    18  1.00
      P1  H  7997  8008       L1    17  0.85

> <Gold.PLP.Chemscore.Internal.Correction>
0.1001

> <Gold.Rescore>
     Score         DG    S(hbond)    S(metal)    S(lipo)     H(rot)  DE(clash)    DE(int)     intcor
     18.43     -21.87       2.57        0.00     104.30       1.71       1.74       1.70       ----

> <Gold.Chemscore.Fitness>
18.4341

> <Gold.Chemscore.DG>
-21.8670

> <Gold.Chemscore.ZeroCoef>
-5.4800

> <Gold.Chemscore.Hbond>
2.5653

> <Gold.Chemscore.Metal>
0.0000

> <Gold.Chemscore.Lipo>
104.3019

> <Gold.Chemscore.Internal_Hbond>
0.0000

> <Gold.Chemscore.DEClash>
1.7378

> <Gold.Chemscore.DEInternal>
1.6951

> <Gold.Chemscore.Rot>
1.7127

> <Gold.Chemscore.Internal.Correction>
   9.000000E+99

> <Gold.Chemscore.Hbonds>
donor molecule, donor type, donor heavy atom, donor atom, acceptor molecule, acceptor atom, score
      L1  H     6    44       P1  8028  1.00
      P1  H  7989  7998       L1    18  0.89
      P1  H  7997  8008       L1    17  0.14

> <Gold.Chemscore.Hbond.Weighted>
-8.5681

> <Gold.Chemscore.Metal.Weighted>
-0.0000

> <Gold.Chemscore.Lipo.Weighted>
-12.2033

> <Gold.Chemscore.Internal_Hbond.Weighted>
0.0000

> <Gold.Chemscore.DEClash.Weighted>
1.7378

> <Gold.Chemscore.DEInternal.Weighted>
1.6951

> <Gold.Chemscore.Rot.Weighted>
4.3844

> <Gold.Chemscore.Internal.Correction.Weighted>
   9.000000E+99

> <Gold.Protein.RotatedTorsions>
[ 6907 6896 6895 6894 ] final  131.77 input  -60.11 | X-H torsion
[ 7974 7965 7964 7962 ] final -125.91 input  175.53 | X-H torsion
[ 8008 7997 7996 7995 ] final   -4.59 input   59.86 | X-H torsion
[ 10167 10162 10161 10158 ] final   62.64 input  -65.29 | X-H torsion
[ 10718 10713 10712 10709 ] final   58.13 input   66.30 | X-H torsion
[ 10763 10752 10751 10750 ] final -112.45 input  -60.55 | X-H torsion
[ 11005 11000 10999 10996 ] final  -51.71 input  -57.11 | X-H torsion

> <Gold.Protein.ActiveResidues>
 VAL166  LYS551  ARG553  GLY616  TRP617  ASP618  TYR619  PRO620  LYS621  CYS622 
 ASP623  PHE694  ASN695  SER759  ASP760  ASP761  ALA762  ILE779  LEU786  VAL792 
 PHE793  MET794  SER795  GLU796  ALA797  LYS798  CYS799  TRP800  GLU811  SER814 

> <Gold.Protein.RotatedAtoms>
  152.3392  133.6047  159.5864 H   0  0  0  0  0  0  0  0  0  0  0  0  # atno 6907 bound_to 6896
  150.7468  133.9748  159.3566 H   0  0  0  0  0  0  0  0  0  0  0  0  # atno 6908 bound_to 6896
  151.7614  135.0810  160.0397 H   0  0  0  0  0  0  0  0  0  0  0  0  # atno 6909 bound_to 6896
  144.9927  140.7747  143.4544 H   0  0  0  0  0  0  0  0  0  0  0  0  # atno 7974 bound_to 7965
  154.6127  140.2480  155.7648 H   0  0  0  0  0  0  0  0  0  0  0  0  # atno 8008 bound_to 7997
  156.2380  140.2943  156.0316 H   0  0  0  0  0  0  0  0  0  0  0  0  # atno 8009 bound_to 7997
  155.2025  140.0395  157.2910 H   0  0  0  0  0  0  0  0  0  0  0  0  # atno 8010 bound_to 7997
  140.1417  144.4547  150.6807 H   0  0  0  0  0  0  0  0  0  0  0  0  # atno 10167 bound_to 10162
  157.5571  130.8808  149.9053 H   0  0  0  0  0  0  0  0  0  0  0  0  # atno 10718 bound_to 10713
  154.8350  135.4490  154.1196 H   0  0  0  0  0  0  0  0  0  0  0  0  # atno 10763 bound_to 10752
  153.2436  135.6919  153.7762 H   0  0  0  0  0  0  0  0  0  0  0  0  # atno 10764 bound_to 10752
  153.7101  135.3358  155.3220 H   0  0  0  0  0  0  0  0  0  0  0  0  # atno 10765 bound_to 10752
  141.0886  133.6637  156.3918 H   0  0  0  0  0  0  0  0  0  0  0  0  # atno 11005 bound_to 11000
  145.2263  139.2135  143.5066 LP  0  0  0  0  0  0  0  0  0  0  0  0  # atno 17320 bound_to 7965
  146.3435  140.2132  142.8590 LP  0  0  0  0  0  0  0  0  0  0  0  0  # atno 17321 bound_to 7965
  140.6756  143.2304  151.5515 LP  0  0  0  0  0  0  0  0  0  0  0  0  # atno 17342 bound_to 10162
  139.5469  144.2498  152.1458 LP  0  0  0  0  0  0  0  0  0  0  0  0  # atno 17343 bound_to 10162
  156.0629  130.3697  150.0943 LP  0  0  0  0  0  0  0  0  0  0  0  0  # atno 17370 bound_to 10713
  156.9110  130.9652  151.3563 LP  0  0  0  0  0  0  0  0  0  0  0  0  # atno 17371 bound_to 10713
  140.5306  134.6217  157.5348 LP  0  0  0  0  0  0  0  0  0  0  0  0  # atno 17394 bound_to 11000
  139.9708  134.7297  156.0046 LP  0  0  0  0  0  0  0  0  0  0  0  0  # atno 17395 bound_to 11000

$$$$
