AV-unprocessed.smi:1239|AV-procd|sdf|5185|dock7
  -GOLD-   22720 4263D 1   1.00000     0.00000
 Structure written by MMmdl.
 48 49  0  0  0  0  0  0  0  0  2 V2000
  139.2270  137.9428  155.4571 C   0  0  0  0  0  0  0  0  0  0  0  0
  139.7532  139.3656  155.1594 C   0  0  2  0  0  0  0  0  0  0  0  0
  141.2441  139.4219  155.5781 C   0  0  0  0  0  0  0  0  0  0  0  0
  142.1115  138.8132  154.5720 N   0  0  0  0  0  0  0  0  0  0  0  0
  142.2421  137.4977  154.3526 C   0  0  0  0  0  0  0  0  0  0  0  0
  141.6240  136.6393  154.9813 O   0  0  0  0  0  0  0  0  0  0  0  0
  143.1368  137.2549  153.3787 N   0  0  0  0  0  0  0  0  0  0  0  0
  143.5693  136.0048  152.8550 C   0  0  0  0  0  0  0  0  0  0  0  0
  143.9649  135.9633  151.5015 C   0  0  0  0  0  0  0  0  0  0  0  0
  144.3957  134.7479  150.9310 C   0  0  0  0  0  0  0  0  0  0  0  0
  144.4236  133.5706  151.7181 C   0  0  0  0  0  0  0  0  0  0  0  0
  144.8429  132.3173  151.2218 N   0  0  0  0  0  0  0  0  0  0  0  0
  144.6828  132.0080  149.8053 C   0  0  0  0  0  0  0  0  0  0  0  0
  145.4110  131.3304  152.1310 C   0  0  0  0  0  0  0  0  0  0  0  0
  144.0242  133.6575  153.0102 N   0  3  0  0  0  0  0  0  0  0  0  0
  143.6046  134.7995  153.5965 C   0  0  0  0  0  0  0  0  0  0  0  0
  138.9180  140.4382  155.7437 N   0  0  0  0  0  0  0  0  0  0  0  0
  139.4543  141.7766  155.4777 C   0  0  0  0  0  0  0  0  0  0  0  0
  138.5742  142.8943  156.0635 C   0  0  0  0  0  0  0  0  0  0  0  0
  137.2539  142.7835  155.5487 O   0  0  0  0  0  0  0  0  0  0  0  0
  136.6666  141.5230  155.8432 C   0  0  0  0  0  0  0  0  0  0  0  0
  137.5356  140.3968  155.2575 C   0  0  0  0  0  0  0  0  0  0  0  0
  139.9248  137.1819  155.1064 H   0  0  0  0  0  0  0  0  0  0  0  0
  138.2818  137.7406  154.9544 H   0  0  0  0  0  0  0  0  0  0  0  0
  139.0807  137.7857  156.5262 H   0  0  0  0  0  0  0  0  0  0  0  0
  139.7354  139.4819  154.0746 H   0  0  0  0  0  0  0  0  0  0  0  0
  141.5243  140.4624  155.7515 H   0  0  0  0  0  0  0  0  0  0  0  0
  141.4110  138.9272  156.5343 H   0  0  0  0  0  0  0  0  0  0  0  0
  142.6623  139.4483  154.0127 H   0  0  0  0  0  0  0  0  0  0  0  0
  143.5967  138.0669  152.9936 H   0  0  0  0  0  0  0  0  0  0  0  0
  143.9439  136.8598  150.8990 H   0  0  0  0  0  0  0  0  0  0  0  0
  144.6992  134.7405  149.8948 H   0  0  0  0  0  0  0  0  0  0  0  0
  145.2562  132.7054  149.1936 H   0  0  0  0  0  0  0  0  0  0  0  0
  143.6337  132.0725  149.5148 H   0  0  0  0  0  0  0  0  0  0  0  0
  145.0308  131.0006  149.5764 H   0  0  0  0  0  0  0  0  0  0  0  0
  144.6838  131.0478  152.8930 H   0  0  0  0  0  0  0  0  0  0  0  0
  146.2978  131.7290  152.6244 H   0  0  0  0  0  0  0  0  0  0  0  0
  145.7059  130.4253  151.5997 H   0  0  0  0  0  0  0  0  0  0  0  0
  143.3096  134.6903  154.6287 H   0  0  0  0  0  0  0  0  0  0  0  0
  140.4474  141.8843  155.9106 H   0  0  0  0  0  0  0  0  0  0  0  0
  139.5601  141.9257  154.4020 H   0  0  0  0  0  0  0  0  0  0  0  0
  138.5547  142.8397  157.1531 H   0  0  0  0  0  0  0  0  0  0  0  0
  138.9776  143.8719  155.7990 H   0  0  0  0  0  0  0  0  0  0  0  0
  136.5583  141.4064  156.9228 H   0  0  0  0  0  0  0  0  0  0  0  0
  135.6644  141.4891  155.4157 H   0  0  0  0  0  0  0  0  0  0  0  0
  137.5248  140.4620  154.1683 H   0  0  0  0  0  0  0  0  0  0  0  0
  137.0654  139.4506  155.5214 H   0  0  0  0  0  0  0  0  0  0  0  0
  144.0388  132.8085  153.5755 H   0  0  0  0  0  0  0  0  0  0  0  0
  1  2  1  0  0  0  0
  1 23  1  0  0  0  0
  1 24  1  0  0  0  0
  1 25  1  0  0  0  0
  2  3  1  0  0  0  0
  2 17  1  0  0  0  0
  2 26  1  0  0  0  0
  3  4  1  0  0  0  0
  3 27  1  0  0  0  0
  3 28  1  0  0  0  0
  4  5  1  0  0  0  0
  4 29  1  0  0  0  0
  5  6  2  0  0  0  0
  5  7  1  0  0  0  0
  7  8  1  0  0  0  0
  7 30  1  0  0  0  0
  8 16  1  0  0  0  0
  8  9  2  0  0  0  0
  9 10  1  0  0  0  0
  9 31  1  0  0  0  0
 10 11  2  0  0  0  0
 10 32  1  0  0  0  0
 11 12  1  0  0  0  0
 11 15  1  0  0  0  0
 12 13  1  0  0  0  0
 12 14  1  0  0  0  0
 13 33  1  0  0  0  0
 13 34  1  0  0  0  0
 13 35  1  0  0  0  0
 14 36  1  0  0  0  0
 14 37  1  0  0  0  0
 14 38  1  0  0  0  0
 15 16  2  0  0  0  0
 15 48  1  0  0  0  0
 16 39  1  0  0  0  0
 17 22  1  0  0  0  0
 17 18  1  0  0  0  0
 18 19  1  0  0  0  0
 18 40  1  0  0  0  0
 18 41  1  0  0  0  0
 19 20  1  0  0  0  0
 19 42  1  0  0  0  0
 19 43  1  0  0  0  0
 20 21  1  0  0  0  0
 21 22  1  0  0  0  0
 21 44  1  0  0  0  0
 21 45  1  0  0  0  0
 22 46  1  0  0  0  0
 22 47  1  0  0  0  0
M  CHG  1  15   1
M  END
> <s_m_source_file>
AV-unprocessed.smi

> <i_m_source_file_index>
1239

> <i_lp_mmshare_version>
43012

> <i_f3d_flags>
0

> <s_epik_input>
W0NIMl0xW0NIMl1PW0NIMl1bQ0gyXU4xW0NASF0oW0NIM10pW0NIMl1bTkhdQyg9TylbTkhdYzJbY0hdW2NIXWMoTihbQ0gzXSlbQ0gzXSluW2NIXTI=

> <s_epik_cmdline>
J2VwaWtfcHl0aG9uJywgJy1waCcsICc3LjAnLCAnLXRuJywgJzgnLCAnLW1hJywgJzIwMCcsICctbWV0YWxfYmluZGluZycsICctaW1hZScsICc8aW5maWxlLm1hZT4nLCAnLW9tYWUnLCAnPG91dGZpbGUubWFlPic=

> <r_lp_tautomer_probability>
0.999994

> <r_epik_Ionization_Penalty>
0.528791

> <r_epik_Ionization_Penalty_Charging>
0.26278

> <r_epik_Ionization_Penalty_Neutral>
0.26601

> <r_epik_State_Penalty>
0.520375

> <r_epik_Charging_Adjusted_Penalty>
0.783156

> <i_epik_Tot_Q>
1

> <i_epik_Tot_abs_Q>
1

> <r_epik_Metal_State_Penalty>
0.806531

> <b_epik_Metal_Only>
0

> <s_lp_Force_Field>
OPLS_2005

> <r_lp_Energy>
44.5879

> <b_lp_Chiralities_Consistent>
1

> <s_lp_Variant>
AV-unprocessed.smi:1239-1

> <Gold.Version>
5.8.1

> <Gold.Id.Protein>
6NUR|6NUR_protein|mol2

> <Gold.PLP.Fitness>
42.8342

> <Gold.PLP.PLP>
-35.3140

> <Gold.PLP.part.hbond>
-2.2475

> <Gold.PLP.part.metal>
0.0000

> <Gold.PLP.part.buried>
-6.2811

> <Gold.PLP.part.nonpolar>
-28.8351

> <Gold.PLP.part.repulsive>
0.1469

> <Gold.PLP.ligand.clash>
0.0000

> <Gold.PLP.ligand.torsion>
0.8626

> <Gold.PLP.Chemscore.Hbond>
3.0509

> <Gold.PLP.Chemscore.CHOScore>
0.0000

> <Gold.PLP.Chemscore.Metal>
0.0000

> <Gold.Chemscore.Hbonds>
donor molecule, donor type, donor heavy atom, donor atom, acceptor molecule, acceptor atom, score
      L1  H     4    29       P1 10175  0.94
      L1  H     7    30       P1 10175  0.02
      L1  H    15    48       P1 10957  1.22

> <Gold.PLP.Chemscore.Internal.Correction>
0.0928

> <Gold.Rescore>
     Score         DG    S(hbond)    S(metal)    S(lipo)     H(rot)  DE(clash)    DE(int)     intcor
     16.21     -17.57       2.12        0.00      74.68       1.46       0.40       0.96       ----

> <Gold.Chemscore.Fitness>
16.2102

> <Gold.Chemscore.DG>
-17.5671

> <Gold.Chemscore.ZeroCoef>
-5.4800

> <Gold.Chemscore.Hbond>
2.1221

> <Gold.Chemscore.Metal>
0.0000

> <Gold.Chemscore.Lipo>
74.6822

> <Gold.Chemscore.Internal_Hbond>
0.0000

> <Gold.Chemscore.DEClash>
0.3955

> <Gold.Chemscore.DEInternal>
0.9614

> <Gold.Chemscore.Rot>
1.4604

> <Gold.Chemscore.Internal.Correction>
   9.000000E+99

> <Gold.Chemscore.Hbonds>
donor molecule, donor type, donor heavy atom, donor atom, acceptor molecule, acceptor atom, score
      L1  H     4    29       P1 10175  0.90
      L1  H     7    30       P1 10175  0.07
      L1  H    15    48       P1 10957  0.43

> <Gold.Chemscore.Hbond.Weighted>
-7.0878

> <Gold.Chemscore.Metal.Weighted>
-0.0000

> <Gold.Chemscore.Lipo.Weighted>
-8.7378

> <Gold.Chemscore.Internal_Hbond.Weighted>
0.0000

> <Gold.Chemscore.DEClash.Weighted>
0.3955

> <Gold.Chemscore.DEInternal.Weighted>
0.9614

> <Gold.Chemscore.Rot.Weighted>
3.7385

> <Gold.Chemscore.Internal.Correction.Weighted>
   9.000000E+99

> <Gold.Protein.RotatedTorsions>
[ 6907 6896 6895 6894 ] final  118.83 input  -60.11 | X-H torsion
[ 7974 7965 7964 7962 ] final   29.65 input  175.53 | X-H torsion
[ 8008 7997 7996 7995 ] final  166.70 input   59.86 | X-H torsion
[ 10167 10162 10161 10158 ] final  -82.23 input  -65.29 | X-H torsion
[ 10718 10713 10712 10709 ] final   88.21 input   66.30 | X-H torsion
[ 10763 10752 10751 10750 ] final  139.21 input  -60.55 | X-H torsion
[ 11005 11000 10999 10996 ] final  124.56 input  -57.11 | X-H torsion

> <Gold.Protein.ActiveResidues>
 VAL166  LYS551  ARG553  GLY616  TRP617  ASP618  TYR619  PRO620  LYS621  CYS622 
 ASP623  PHE694  ASN695  SER759  ASP760  ASP761  ALA762  ILE779  LEU786  VAL792 
 PHE793  MET794  SER795  GLU796  ALA797  LYS798  CYS799  TRP800  GLU811  SER814 

> <Gold.Protein.RotatedAtoms>
  152.4515  133.7639  159.6761 H   0  0  0  0  0  0  0  0  0  0  0  0  # atno 6907 bound_to 6896
  150.8429  133.7898  159.3060 H   0  0  0  0  0  0  0  0  0  0  0  0  # atno 6908 bound_to 6896
  151.5517  135.1070  160.0003 H   0  0  0  0  0  0  0  0  0  0  0  0  # atno 6909 bound_to 6896
  146.1659  139.6894  142.9001 H   0  0  0  0  0  0  0  0  0  0  0  0  # atno 7974 bound_to 7965
  156.1696  140.1636  156.8471 H   0  0  0  0  0  0  0  0  0  0  0  0  # atno 8008 bound_to 7997
  154.5243  140.0771  156.8264 H   0  0  0  0  0  0  0  0  0  0  0  0  # atno 8009 bound_to 7997
  155.3540  140.3391  155.4242 H   0  0  0  0  0  0  0  0  0  0  0  0  # atno 8010 bound_to 7997
  140.4339  143.2539  151.8721 H   0  0  0  0  0  0  0  0  0  0  0  0  # atno 10167 bound_to 10162
  157.6947  131.0286  150.3240 H   0  0  0  0  0  0  0  0  0  0  0  0  # atno 10718 bound_to 10713
  153.9024  135.3020  155.3448 H   0  0  0  0  0  0  0  0  0  0  0  0  # atno 10763 bound_to 10752
  154.7664  135.4908  153.9565 H   0  0  0  0  0  0  0  0  0  0  0  0  # atno 10764 bound_to 10752
  153.1238  135.6788  153.9392 H   0  0  0  0  0  0  0  0  0  0  0  0  # atno 10765 bound_to 10752
  139.9364  134.9639  156.8427 H   0  0  0  0  0  0  0  0  0  0  0  0  # atno 11005 bound_to 11000
  145.4468  141.0426  143.2826 LP  0  0  0  0  0  0  0  0  0  0  0  0  # atno 17320 bound_to 7965
  144.8092  139.5994  143.7037 LP  0  0  0  0  0  0  0  0  0  0  0  0  # atno 17321 bound_to 7965
  139.4786  144.5305  151.8674 LP  0  0  0  0  0  0  0  0  0  0  0  0  # atno 17342 bound_to 10162
  140.4396  144.2004  150.5891 LP  0  0  0  0  0  0  0  0  0  0  0  0  # atno 17343 bound_to 10162
  156.3724  130.3866  149.7165 LP  0  0  0  0  0  0  0  0  0  0  0  0  # atno 17370 bound_to 10713
  156.4575  130.7936  151.2957 LP  0  0  0  0  0  0  0  0  0  0  0  0  # atno 17371 bound_to 10713
  140.6064  134.0123  155.7558 LP  0  0  0  0  0  0  0  0  0  0  0  0  # atno 17394 bound_to 11000
  141.0980  133.9813  157.3128 LP  0  0  0  0  0  0  0  0  0  0  0  0  # atno 17395 bound_to 11000

$$$$
