AV-unprocessed.smi:35|AV-procd|sdf|256|dock9
  -GOLD-   2262016 23D 1   1.00000     0.00000
 Structure written by MMmdl.
 29 30  0  0  0  0  0  0  0  0  1 V2000
  152.9813  139.4772  157.8695 O   0  0  0  0  0  0  0  0  0  0  0  0
  152.0942  139.9707  157.1766 C   0  0  0  0  0  0  0  0  0  0  0  0
  151.1959  140.8880  157.7268 N   0  0  0  0  0  0  0  0  0  0  0  0
  150.1459  141.5055  157.0445 C   0  0  0  0  0  0  0  0  0  0  0  0
  149.4480  142.3356  157.6249 O   0  0  0  0  0  0  0  0  0  0  0  0
  149.9429  141.1410  155.6921 N   0  0  0  0  0  0  0  0  0  0  0  0
  148.8335  141.8217  154.9041 C   0  0  1  0  0  0  0  0  0  0  0  0
  148.7974  141.2988  153.6047 O   0  0  0  0  0  0  0  0  0  0  0  0
  147.7011  140.4034  153.4254 C   0  0  1  0  0  0  0  0  0  0  0  0
  148.0926  138.9602  153.8214 C   0  0  0  0  0  0  0  0  0  0  0  0
  149.2850  138.5876  153.1642 O   0  0  0  0  0  0  0  0  0  0  0  0
  146.6362  141.0564  154.3129 C   0  0  1  0  0  0  0  0  0  0  0  0
  145.6127  140.1628  154.7058 O   0  0  0  0  0  0  0  0  0  0  0  0
  147.4297  141.5686  155.5081 C   0  0  2  0  0  0  0  0  0  0  0  0
  146.8356  142.7582  155.9898 O   0  0  0  0  0  0  0  0  0  0  0  0
  150.8557  140.2806  155.0886 C   0  0  0  0  0  0  0  0  0  0  0  0
  151.8753  139.6978  155.7615 C   0  0  0  0  0  0  0  0  0  0  0  0
  153.0473  138.4888  154.7178 Br  0  0  0  0  0  0  0  0  0  0  0  0
  151.3262  141.1353  158.6972 H   0  0  0  0  0  0  0  0  0  0  0  0
  149.1277  142.8724  154.8676 H   0  0  0  0  0  0  0  0  0  0  0  0
  147.3753  140.4160  152.3843 H   0  0  0  0  0  0  0  0  0  0  0  0
  148.1909  138.8307  154.8980 H   0  0  0  0  0  0  0  0  0  0  0  0
  147.3306  138.2542  153.4923 H   0  0  0  0  0  0  0  0  0  0  0  0
  149.0728  137.9617  152.4885 H   0  0  0  0  0  0  0  0  0  0  0  0
  146.1934  141.8911  153.7662 H   0  0  0  0  0  0  0  0  0  0  0  0
  144.9912  140.0928  153.9972 H   0  0  0  0  0  0  0  0  0  0  0  0
  147.4822  140.8083  156.2893 H   0  0  0  0  0  0  0  0  0  0  0  0
  147.4836  143.4463  155.9619 H   0  0  0  0  0  0  0  0  0  0  0  0
  150.7731  140.0502  154.0376 H   0  0  0  0  0  0  0  0  0  0  0  0
  1  2  2  0  0  0  0
  2 17  1  0  0  0  0
  2  3  1  0  0  0  0
  3 19  1  0  0  0  0
  3  4  1  0  0  0  0
  4  5  2  0  0  0  0
  4  6  1  0  0  0  0
  6  7  1  0  0  0  0
  6 16  1  0  0  0  0
  7 14  1  0  0  0  0
  7  8  1  0  0  0  0
  7 20  1  0  0  0  0
  8  9  1  0  0  0  0
  9 10  1  0  0  0  0
  9 12  1  0  0  0  0
  9 21  1  0  0  0  0
 10 11  1  0  0  0  0
 10 22  1  0  0  0  0
 10 23  1  0  0  0  0
 11 24  1  0  0  0  0
 12 13  1  0  0  0  0
 12 14  1  0  0  0  0
 12 25  1  0  0  0  0
 13 26  1  0  0  0  0
 14 15  1  0  0  0  0
 14 27  1  0  0  0  0
 15 28  1  0  0  0  0
 16 17  2  0  0  0  0
 16 29  1  0  0  0  0
 17 18  1  0  0  0  0
M  END
> <s_m_source_file>
AV-unprocessed.smi

> <i_m_source_file_index>
35

> <i_lp_mmshare_version>
43012

> <i_f3d_flags>
0

> <s_epik_input>
Tz1jMVtuSF1jKD1PKW4oW2NIXWMxQnIpW0NAQEhdMk9bQ0BASF0oW0NIMl1bT0hdKVtDQEBIXShbT0hdKVtDQEhdMltPSF0=

> <s_epik_cmdline>
J2VwaWtfcHl0aG9uJywgJy1waCcsICc3LjAnLCAnLXRuJywgJzgnLCAnLW1hJywgJzIwMCcsICctbWV0YWxfYmluZGluZycsICctaW1hZScsICc8aW5maWxlLm1hZT4nLCAnLW9tYWUnLCAnPG91dGZpbGUubWFlPic=

> <r_lp_tautomer_probability>
0.999537

> <r_epik_Ionization_Penalty>
0.10812

> <r_epik_Ionization_Penalty_Charging>
0.108119

> <r_epik_Ionization_Penalty_Neutral>
4.93006e-07

> <r_epik_State_Penalty>
0.0979238

> <r_epik_Charging_Adjusted_Penalty>
0.206043

> <i_epik_Tot_Q>
0

> <i_epik_Tot_abs_Q>
0

> <r_epik_Metal_State_Penalty>
3.07911

> <b_epik_Metal_Only>
0

> <s_epik_Chemistry_Notes>
This compound contains an acetal/aminal-like group ( X-CH(R)-Y where X, Y are N, S, or O) that may be acid/base labile, releasing an aldehyde.

> <s_lp_Force_Field>
OPLS_2005

> <r_lp_Energy>
30.5173

> <b_lp_Chiralities_Consistent>
1

> <s_lp_Variant>
AV-unprocessed.smi:35-10

> <Gold.Version>
5.8.1

> <Gold.Id.Protein>
6NUR|6NUR_protein|mol2

> <Gold.PLP.Fitness>
38.9989

> <Gold.PLP.PLP>
-26.2278

> <Gold.PLP.part.hbond>
-5.8231

> <Gold.PLP.part.metal>
0.0000

> <Gold.PLP.part.buried>
2.9321

> <Gold.PLP.part.nonpolar>
-25.0076

> <Gold.PLP.part.repulsive>
2.0676

> <Gold.PLP.ligand.clash>
0.0000

> <Gold.PLP.ligand.torsion>
0.1181

> <Gold.PLP.Chemscore.Hbond>
4.3140

> <Gold.PLP.Chemscore.CHOScore>
0.0000

> <Gold.PLP.Chemscore.Metal>
0.0000

> <Gold.Chemscore.Hbonds>
donor molecule, donor type, donor heavy atom, donor atom, acceptor molecule, acceptor atom, score
      L1  H    11    24       P1  7948  1.00
      L1  H    13    26       P1 10175  0.98
      L1  H    15    28       P1  8028  0.45
      P1  H  7997  8009       L1     1  1.00
      P1  H  8011  8017       L1     8  0.86

> <Gold.PLP.Chemscore.Internal.Correction>
0.0653

> <Gold.Rescore>
     Score         DG    S(hbond)    S(metal)    S(lipo)     H(rot)  DE(clash)    DE(int)     intcor
      8.29     -12.76       3.32        0.00      47.82       3.67       3.44       1.03       ----

> <Gold.Chemscore.Fitness>
8.2949

> <Gold.Chemscore.DG>
-12.7625

> <Gold.Chemscore.ZeroCoef>
-5.4800

> <Gold.Chemscore.Hbond>
3.3183

> <Gold.Chemscore.Metal>
0.0000

> <Gold.Chemscore.Lipo>
47.8195

> <Gold.Chemscore.Internal_Hbond>
0.0000

> <Gold.Chemscore.DEClash>
3.4404

> <Gold.Chemscore.DEInternal>
1.0272

> <Gold.Chemscore.Rot>
3.6701

> <Gold.Chemscore.Internal.Correction>
   9.000000E+99

> <Gold.Chemscore.Hbonds>
donor molecule, donor type, donor heavy atom, donor atom, acceptor molecule, acceptor atom, score
      L1  H    11    24       P1  7948  0.94
      L1  H    13    26       P1 10175  0.91
      L1  H    15    28       P1  8028  0.02
      P1  H  7997  8009       L1     1  0.63
      P1  H  8011  8017       L1     8  0.69

> <Gold.Chemscore.Hbond.Weighted>
-11.0831

> <Gold.Chemscore.Metal.Weighted>
-0.0000

> <Gold.Chemscore.Lipo.Weighted>
-5.5949

> <Gold.Chemscore.Internal_Hbond.Weighted>
0.0000

> <Gold.Chemscore.DEClash.Weighted>
3.4404

> <Gold.Chemscore.DEInternal.Weighted>
1.0272

> <Gold.Chemscore.Rot.Weighted>
9.3955

> <Gold.Chemscore.Internal.Correction.Weighted>
   9.000000E+99

> <Gold.Protein.RotatedTorsions>
[ 6907 6896 6895 6894 ] final    6.93 input  -60.11 | X-H torsion
[ 7974 7965 7964 7962 ] final  143.96 input  175.53 | X-H torsion
[ 8008 7997 7996 7995 ] final  145.51 input   59.86 | X-H torsion
[ 10167 10162 10161 10158 ] final  119.27 input  -65.29 | X-H torsion
[ 10718 10713 10712 10709 ] final   -1.38 input   66.30 | X-H torsion
[ 10763 10752 10751 10750 ] final   22.85 input  -60.55 | X-H torsion
[ 11005 11000 10999 10996 ] final  -41.28 input  -57.11 | X-H torsion

> <Gold.Protein.ActiveResidues>
 VAL166  LYS551  ARG553  GLY616  TRP617  ASP618  TYR619  PRO620  LYS621  CYS622 
 ASP623  PHE694  ASN695  SER759  ASP760  ASP761  ALA762  ILE779  LEU786  VAL792 
 PHE793  MET794  SER795  GLU796  ALA797  LYS798  CYS799  TRP800  GLU811  SER814 

> <Gold.Protein.RotatedAtoms>
  151.6816  135.0961  160.0216 H   0  0  0  0  0  0  0  0  0  0  0  0  # atno 6907 bound_to 6896
  152.3832  133.6570  159.6186 H   0  0  0  0  0  0  0  0  0  0  0  0  # atno 6908 bound_to 6896
  150.7764  133.8996  159.3378 H   0  0  0  0  0  0  0  0  0  0  0  0  # atno 6909 bound_to 6896
  144.8876  139.5605  143.5813 H   0  0  0  0  0  0  0  0  0  0  0  0  # atno 7974 bound_to 7965
  156.2881  140.2207  156.5227 H   0  0  0  0  0  0  0  0  0  0  0  0  # atno 8008 bound_to 7997
  154.7515  140.0480  157.0919 H   0  0  0  0  0  0  0  0  0  0  0  0  # atno 8009 bound_to 7997
  155.0104  140.3112  155.4835 H   0  0  0  0  0  0  0  0  0  0  0  0  # atno 8010 bound_to 7997
  139.6057  144.7069  151.2959 H   0  0  0  0  0  0  0  0  0  0  0  0  # atno 10167 bound_to 10162
  156.8065  130.5410  149.5714 H   0  0  0  0  0  0  0  0  0  0  0  0  # atno 10718 bound_to 10713
  153.0883  135.6639  153.9905 H   0  0  0  0  0  0  0  0  0  0  0  0  # atno 10763 bound_to 10752
  153.9508  135.2984  155.3440 H   0  0  0  0  0  0  0  0  0  0  0  0  # atno 10764 bound_to 10752
  154.7294  135.5129  153.9012 H   0  0  0  0  0  0  0  0  0  0  0  0  # atno 10765 bound_to 10752
  141.0234  133.6852  156.2435 H   0  0  0  0  0  0  0  0  0  0  0  0  # atno 11005 bound_to 11000
  146.3034  139.7500  142.9074 LP  0  0  0  0  0  0  0  0  0  0  0  0  # atno 17320 bound_to 7965
  145.3840  141.0362  143.3161 LP  0  0  0  0  0  0  0  0  0  0  0  0  # atno 17321 bound_to 7965
  140.7283  143.6939  150.7899 LP  0  0  0  0  0  0  0  0  0  0  0  0  # atno 17342 bound_to 10162
  140.0524  143.5236  152.2667 LP  0  0  0  0  0  0  0  0  0  0  0  0  # atno 17343 bound_to 10162
  156.1070  130.6012  150.9986 LP  0  0  0  0  0  0  0  0  0  0  0  0  # atno 17370 bound_to 10713
  157.6527  131.0894  150.8015 LP  0  0  0  0  0  0  0  0  0  0  0  0  # atno 17371 bound_to 10713
  140.6533  134.5044  157.5579 LP  0  0  0  0  0  0  0  0  0  0  0  0  # atno 17394 bound_to 11000
  139.9161  134.8244  156.1363 LP  0  0  0  0  0  0  0  0  0  0  0  0  # atno 17395 bound_to 11000

$$$$
