AV-unprocessed.smi:3338|AV-procd|sdf|12870|dock3
  -GOLD-   2272019273D 1   1.00000     0.00000
 Structure written by MMmdl.
 44 45  0  0  0  0  0  0  0  0  2 V2000
  147.7725  138.7337  149.3653 C   0  0  0  0  0  0  0  0  0  0  0  0
  146.8118  137.5797  149.0295 C   0  0  1  0  0  0  0  0  0  0  0  0
  147.2535  136.7736  147.7939 C   0  0  0  0  0  0  0  0  0  0  0  0
  148.4538  135.8721  148.1158 C   0  0  0  0  0  0  0  0  0  0  0  0
  148.1661  134.9853  149.3375 C   0  0  0  0  0  0  0  0  0  0  0  0
  147.7834  135.8056  150.5155 N   0  3  2  0  0  0  0  0  0  0  0  0
  147.6494  134.9927  151.7500 C   0  0  0  0  0  0  0  0  0  0  0  0
  147.2907  135.8506  152.9740 C   0  0  0  0  0  0  0  0  0  0  0  0
  148.4293  136.6675  153.3693 N   0  0  0  0  0  0  0  0  0  0  0  0
  148.4836  137.4250  154.4753 C   0  0  0  0  0  0  0  0  0  0  0  0
  147.5626  137.4865  155.2908 O   0  0  0  0  0  0  0  0  0  0  0  0
  149.7782  138.2290  154.6797 C   0  0  2  0  0  0  0  0  0  0  0  0
  150.5735  137.7913  155.9247 C   0  0  0  0  0  0  0  0  0  0  0  0
  149.4837  139.6565  154.7160 N   0  0  0  0  0  0  0  0  0  0  0  0
  148.8179  140.4289  153.7840 C   0  0  0  0  0  0  0  0  0  0  0  0
  148.8195  141.7150  154.2420 C   0  0  0  0  0  0  0  0  0  0  0  0
  149.5246  141.6337  155.4746 C   0  0  0  0  0  0  0  0  0  0  0  0
  149.9263  140.4039  155.7519 N   0  0  0  0  0  0  0  0  0  0  0  0
  146.5855  136.6429  150.2339 C   0  0  0  0  0  0  0  0  0  0  0  0
  148.7594  138.3723  149.6541 H   0  0  0  0  0  0  0  0  0  0  0  0
  147.3882  139.3331  150.1908 H   0  0  0  0  0  0  0  0  0  0  0  0
  147.8998  139.3991  148.5108 H   0  0  0  0  0  0  0  0  0  0  0  0
  145.8528  138.0405  148.7891 H   0  0  0  0  0  0  0  0  0  0  0  0
  146.4232  136.1517  147.4564 H   0  0  0  0  0  0  0  0  0  0  0  0
  147.4911  137.4409  146.9647 H   0  0  0  0  0  0  0  0  0  0  0  0
  148.6909  135.2489  147.2529 H   0  0  0  0  0  0  0  0  0  0  0  0
  149.3384  136.4814  148.3033 H   0  0  0  0  0  0  0  0  0  0  0  0
  147.3694  134.2748  149.1109 H   0  0  0  0  0  0  0  0  0  0  0  0
  149.0576  134.4004  149.5671 H   0  0  0  0  0  0  0  0  0  0  0  0
  146.9133  134.2018  151.5961 H   0  0  0  0  0  0  0  0  0  0  0  0
  148.5971  134.4937  151.9582 H   0  0  0  0  0  0  0  0  0  0  0  0
  146.4362  136.4866  152.7362 H   0  0  0  0  0  0  0  0  0  0  0  0
  147.0048  135.2315  153.8240 H   0  0  0  0  0  0  0  0  0  0  0  0
  149.2306  136.6729  152.7539 H   0  0  0  0  0  0  0  0  0  0  0  0
  150.4103  138.0369  153.8104 H   0  0  0  0  0  0  0  0  0  0  0  0
  150.8355  136.7337  155.8742 H   0  0  0  0  0  0  0  0  0  0  0  0
  150.0104  137.9504  156.8451 H   0  0  0  0  0  0  0  0  0  0  0  0
  151.5045  138.3529  156.0068 H   0  0  0  0  0  0  0  0  0  0  0  0
  148.4043  140.0040  152.8813 H   0  0  0  0  0  0  0  0  0  0  0  0
  148.3851  142.5824  153.7676 H   0  0  0  0  0  0  0  0  0  0  0  0
  149.7587  142.4267  156.1694 H   0  0  0  0  0  0  0  0  0  0  0  0
  146.3183  137.2379  151.1068 H   0  0  0  0  0  0  0  0  0  0  0  0
  145.7348  135.9891  150.0356 H   0  0  0  0  0  0  0  0  0  0  0  0
  148.5538  136.4389  150.6753 H   0  0  0  0  0  0  0  0  0  0  0  0
  1  2  1  0  0  0  0
  1 20  1  0  0  0  0
  1 21  1  0  0  0  0
  1 22  1  0  0  0  0
  2 19  1  0  0  0  0
  2  3  1  0  0  0  0
  2 23  1  0  0  0  0
  3  4  1  0  0  0  0
  3 24  1  0  0  0  0
  3 25  1  0  0  0  0
  4  5  1  0  0  0  0
  4 26  1  0  0  0  0
  4 27  1  0  0  0  0
  5  6  1  0  0  0  0
  5 28  1  0  0  0  0
  5 29  1  0  0  0  0
  6  7  1  0  0  0  0
  6 19  1  0  0  0  0
  6 44  1  0  0  0  0
  7  8  1  0  0  0  0
  7 30  1  0  0  0  0
  7 31  1  0  0  0  0
  8  9  1  0  0  0  0
  8 32  1  0  0  0  0
  8 33  1  0  0  0  0
  9 10  1  0  0  0  0
  9 34  1  0  0  0  0
 10 11  2  0  0  0  0
 10 12  1  0  0  0  0
 12 13  1  0  0  0  0
 12 14  1  0  0  0  0
 12 35  1  0  0  0  0
 13 36  1  0  0  0  0
 13 37  1  0  0  0  0
 13 38  1  0  0  0  0
 14 18  1  0  0  0  0
 14 15  1  0  0  0  0
 15 16  2  0  0  0  0
 15 39  1  0  0  0  0
 16 17  1  0  0  0  0
 16 40  1  0  0  0  0
 17 18  2  0  0  0  0
 17 41  1  0  0  0  0
 19 42  1  0  0  0  0
 19 43  1  0  0  0  0
M  CHG  1   6   1
M  END
> <s_m_source_file>
AV-unprocessed.smi

> <i_m_source_file_index>
3338

> <i_lp_mmshare_version>
43012

> <i_f3d_flags>
0

> <s_epik_input>
W0NIM11bQ0BASF0xW0NIMl1bQ0gyXVtDSDJdTihbQ0gyXTEpW0NIMl1bQ0gyXVtOSF1DKD1PKVtDQEhdKFtDSDNdKW4yW2NIXVtjSF1bY0hdbjI=

> <s_epik_cmdline>
J2VwaWtfcHl0aG9uJywgJy1waCcsICc3LjAnLCAnLXRuJywgJzgnLCAnLW1hJywgJzIwMCcsICctbWV0YWxfYmluZGluZycsICctaW1hZScsICc8aW5maWxlLm1hZT4nLCAnLW9tYWUnLCAnPG91dGZpbGUubWFlPic=

> <r_lp_tautomer_probability>
1

> <r_epik_Ionization_Penalty>
0.00225707

> <r_epik_Ionization_Penalty_Charging>
0.00223709

> <r_epik_Ionization_Penalty_Neutral>
1.99775e-05

> <r_epik_State_Penalty>
0.00153978

> <r_epik_Charging_Adjusted_Penalty>
0.00377687

> <i_epik_Tot_Q>
1

> <i_epik_Tot_abs_Q>
1

> <r_epik_Metal_State_Penalty>
-0

> <b_epik_Metal_Only>
0

> <s_lp_Force_Field>
OPLS_2005

> <r_lp_Energy>
22.9717

> <b_lp_Chiralities_Consistent>
1

> <s_lp_Variant>
AV-unprocessed.smi:3338-2

> <Gold.Version>
5.8.1

> <Gold.Id.Protein>
6NUR|6NUR_protein|mol2

> <Gold.PLP.Fitness>
48.9079

> <Gold.PLP.PLP>
-34.0469

> <Gold.PLP.part.hbond>
-3.0000

> <Gold.PLP.part.metal>
0.0000

> <Gold.PLP.part.buried>
-2.5618

> <Gold.PLP.part.nonpolar>
-28.7101

> <Gold.PLP.part.repulsive>
0.1249

> <Gold.PLP.ligand.clash>
0.0000

> <Gold.PLP.ligand.torsion>
0.1248

> <Gold.PLP.Chemscore.Hbond>
3.9920

> <Gold.PLP.Chemscore.CHOScore>
1.0000

> <Gold.PLP.Chemscore.Metal>
0.0000

> <Gold.Chemscore.Hbonds>
donor molecule, donor type, donor heavy atom, donor atom, acceptor molecule, acceptor atom, score
      L1  C    15    39       P1  7957  0.76
      L1  C    17    41       P1  8028  0.75

> <Gold.PLP.Chemscore.Internal.Correction>
0.1346

> <Gold.Rescore>
     Score         DG    S(hbond)    S(metal)    S(lipo)     H(rot)  DE(clash)    DE(int)     intcor
     17.37     -17.89       2.56        0.00      71.53       1.76       0.01       0.51       ----

> <Gold.Chemscore.Fitness>
17.3745

> <Gold.Chemscore.DG>
-17.8870

> <Gold.Chemscore.ZeroCoef>
-5.4800

> <Gold.Chemscore.Hbond>
2.5556

> <Gold.Chemscore.Metal>
0.0000

> <Gold.Chemscore.Lipo>
71.5313

> <Gold.Chemscore.Internal_Hbond>
0.0000

> <Gold.Chemscore.DEClash>
0.0073

> <Gold.Chemscore.DEInternal>
0.5051

> <Gold.Chemscore.Rot>
1.7570

> <Gold.Chemscore.Internal.Correction>
   9.000000E+99

> <Gold.Chemscore.Hbond.Weighted>
-8.5357

> <Gold.Chemscore.Metal.Weighted>
-0.0000

> <Gold.Chemscore.Lipo.Weighted>
-8.3692

> <Gold.Chemscore.Internal_Hbond.Weighted>
0.0000

> <Gold.Chemscore.DEClash.Weighted>
0.0073

> <Gold.Chemscore.DEInternal.Weighted>
0.5051

> <Gold.Chemscore.Rot.Weighted>
4.4979

> <Gold.Chemscore.Internal.Correction.Weighted>
   9.000000E+99

> <Gold.Protein.RotatedTorsions>
[ 6907 6896 6895 6894 ] final   79.95 input  -60.11 | X-H torsion
[ 7974 7965 7964 7962 ] final  114.52 input  175.53 | X-H torsion
[ 8008 7997 7996 7995 ] final -130.12 input   59.86 | X-H torsion
[ 10167 10162 10161 10158 ] final   35.06 input  -65.29 | X-H torsion
[ 10718 10713 10712 10709 ] final   -6.19 input   66.30 | X-H torsion
[ 10763 10752 10751 10750 ] final -145.17 input  -60.55 | X-H torsion
[ 11005 11000 10999 10996 ] final  -52.94 input  -57.11 | X-H torsion

> <Gold.Protein.ActiveResidues>
 VAL166  LYS551  ARG553  GLY616  TRP617  ASP618  TYR619  PRO620  LYS621  CYS622 
 ASP623  PHE694  ASN695  SER759  ASP760  ASP761  ALA762  ILE779  LEU786  VAL792 
 PHE793  MET794  SER795  GLU796  ALA797  LYS798  CYS799  TRP800  GLU811  SER814 

> <Gold.Protein.RotatedAtoms>
  152.5217  134.3432  159.9224 H   0  0  0  0  0  0  0  0  0  0  0  0  # atno 6907 bound_to 6896
  151.3382  133.3966  159.2676 H   0  0  0  0  0  0  0  0  0  0  0  0  # atno 6908 bound_to 6896
  150.9825  134.9195  159.7910 H   0  0  0  0  0  0  0  0  0  0  0  0  # atno 6909 bound_to 6896
  145.2034  139.2941  143.4306 H   0  0  0  0  0  0  0  0  0  0  0  0  # atno 7974 bound_to 7965
  155.2904  140.0448  157.3022 H   0  0  0  0  0  0  0  0  0  0  0  0  # atno 8008 bound_to 7997
  154.5544  140.2327  155.8401 H   0  0  0  0  0  0  0  0  0  0  0  0  # atno 8009 bound_to 7997
  156.1995  140.3029  155.9503 H   0  0  0  0  0  0  0  0  0  0  0  0  # atno 8010 bound_to 7997
  140.4257  144.1396  150.6153 H   0  0  0  0  0  0  0  0  0  0  0  0  # atno 10167 bound_to 10162
  156.7355  130.5193  149.5836 H   0  0  0  0  0  0  0  0  0  0  0  0  # atno 10718 bound_to 10713
  154.8395  135.3420  154.6462 H   0  0  0  0  0  0  0  0  0  0  0  0  # atno 10763 bound_to 10752
  153.7074  135.6966  153.5051 H   0  0  0  0  0  0  0  0  0  0  0  0  # atno 10764 bound_to 10752
  153.2477  135.4363  155.0719 H   0  0  0  0  0  0  0  0  0  0  0  0  # atno 10765 bound_to 10752
  141.0950  133.6626  156.4099 H   0  0  0  0  0  0  0  0  0  0  0  0  # atno 11005 bound_to 11000
  146.3413  140.2287  142.8593 LP  0  0  0  0  0  0  0  0  0  0  0  0  # atno 17320 bound_to 7965
  144.9925  140.8560  143.5331 LP  0  0  0  0  0  0  0  0  0  0  0  0  # atno 17321 bound_to 7965
  140.4483  143.2497  151.9381 LP  0  0  0  0  0  0  0  0  0  0  0  0  # atno 17342 bound_to 10162
  139.4783  144.5587  151.8273 LP  0  0  0  0  0  0  0  0  0  0  0  0  # atno 17343 bound_to 10162
  156.1500  130.6303  151.0582 LP  0  0  0  0  0  0  0  0  0  0  0  0  # atno 17370 bound_to 10713
  157.6841  131.0830  150.7291 LP  0  0  0  0  0  0  0  0  0  0  0  0  # atno 17371 bound_to 10713
  140.5160  134.6349  157.5301 LP  0  0  0  0  0  0  0  0  0  0  0  0  # atno 17394 bound_to 11000
  139.9785  134.7176  155.9904 LP  0  0  0  0  0  0  0  0  0  0  0  0  # atno 17395 bound_to 11000

$$$$
