AV-unprocessed.smi:213|AV-procd|sdf|1647|dock1
  -GOLD-   2262020 23D 1   1.00000     0.00000
 Structure written by MMmdl.
 58 61  0  0  0  0  0  0  0  0  1 V2000
  144.8463  139.5136  156.1030 C   0  0  0  0  0  0  0  0  0  0  0  0
  146.3358  139.2274  156.3630 C   0  0  2  0  0  0  0  0  0  0  0  0
  147.2254  139.6241  155.1634 C   0  0  0  0  0  0  0  0  0  0  0  0
  148.6671  139.4946  155.3791 N   0  0  0  0  0  0  0  0  0  0  0  0
  149.2844  140.8008  155.5838 C   0  0  0  0  0  0  0  0  0  0  0  0
  150.8008  140.6901  155.8177 C   0  0  0  0  0  0  0  0  0  0  0  0
  151.4039  140.0175  154.7176 O   0  0  0  0  0  0  0  0  0  0  0  0
  150.8622  138.7180  154.5057 C   0  0  0  0  0  0  0  0  0  0  0  0
  149.3446  138.8200  154.2728 C   0  0  0  0  0  0  0  0  0  0  0  0
  146.5440  137.8228  156.7257 N   0  0  0  0  0  0  0  0  0  0  0  0
  147.2762  137.4536  157.9353 C   0  0  0  0  0  0  0  0  0  0  0  0
  145.9735  136.8314  155.9909 C   0  0  0  0  0  0  0  0  0  0  0  0
  145.8341  135.6057  156.5628 N   0  0  0  0  0  0  0  0  0  0  0  0
  145.2735  134.5999  155.8858 C   0  0  0  0  0  0  0  0  0  0  0  0
  144.7946  134.5973  154.6412 N   0  0  0  0  0  0  0  0  0  0  0  0
  144.9451  135.8175  154.0518 C   0  0  0  0  0  0  0  0  0  0  0  0
  145.5181  136.9788  154.6464 C   0  0  0  0  0  0  0  0  0  0  0  0
  145.5137  138.0226  153.7259 N   0  0  0  0  0  0  0  0  0  0  0  0
  144.9616  137.5133  152.6595 C   0  0  0  0  0  0  0  0  0  0  0  0
  144.5919  136.1934  152.7676 N   0  0  0  0  0  0  0  0  0  0  0  0
  143.9710  135.3815  151.7357 C   0  0  0  0  0  0  0  0  0  0  0  0
  143.6851  133.9438  152.2125 C   0  0  1  0  0  0  0  0  0  0  0  0
  142.3276  133.6064  151.9961 O   0  0  0  0  0  0  0  0  0  0  0  0
  144.6182  132.9009  151.5625 C   0  0  1  0  0  0  0  0  0  0  0  0
  144.3829  132.6013  150.0788 C   0  0  0  0  0  0  0  0  0  0  0  0
  145.7357  132.0632  149.6689 C   0  0  0  0  0  0  0  0  0  0  0  0
  146.6802  132.9534  150.4727 C   0  0  0  0  0  0  0  0  0  0  0  0
  145.9923  133.2615  151.6820 O   0  0  0  0  0  0  0  0  0  0  0  0
  144.6763  140.5766  155.9315 H   0  0  0  0  0  0  0  0  0  0  0  0
  144.2352  139.2210  156.9569 H   0  0  0  0  0  0  0  0  0  0  0  0
  144.4765  138.9766  155.2297 H   0  0  0  0  0  0  0  0  0  0  0  0
  146.6499  139.8398  157.2042 H   0  0  0  0  0  0  0  0  0  0  0  0
  146.9401  139.0318  154.2924 H   0  0  0  0  0  0  0  0  0  0  0  0
  147.0005  140.6592  154.9030 H   0  0  0  0  0  0  0  0  0  0  0  0
  149.0987  141.4382  154.7177 H   0  0  0  0  0  0  0  0  0  0  0  0
  148.8255  141.2972  156.4395 H   0  0  0  0  0  0  0  0  0  0  0  0
  151.2429  141.6816  155.9160 H   0  0  0  0  0  0  0  0  0  0  0  0
  151.0113  140.1513  156.7431 H   0  0  0  0  0  0  0  0  0  0  0  0
  151.3488  138.2653  153.6415 H   0  0  0  0  0  0  0  0  0  0  0  0
  151.0786  138.0814  155.3650 H   0  0  0  0  0  0  0  0  0  0  0  0
  148.9493  137.8141  154.1378 H   0  0  0  0  0  0  0  0  0  0  0  0
  149.1583  139.3573  153.3416 H   0  0  0  0  0  0  0  0  0  0  0  0
  147.8811  136.5617  157.7668 H   0  0  0  0  0  0  0  0  0  0  0  0
  146.5827  137.2510  158.7520 H   0  0  0  0  0  0  0  0  0  0  0  0
  147.9463  138.2519  158.2526 H   0  0  0  0  0  0  0  0  0  0  0  0
  145.1974  133.6631  156.4176 H   0  0  0  0  0  0  0  0  0  0  0  0
  144.8133  138.0884  151.7571 H   0  0  0  0  0  0  0  0  0  0  0  0
  143.0511  135.8705  151.4126 H   0  0  0  0  0  0  0  0  0  0  0  0
  144.6349  135.3655  150.8705 H   0  0  0  0  0  0  0  0  0  0  0  0
  143.8432  133.9014  153.2909 H   0  0  0  0  0  0  0  0  0  0  0  0
  142.1047  133.8145  151.1019 H   0  0  0  0  0  0  0  0  0  0  0  0
  144.5119  131.9625  152.1095 H   0  0  0  0  0  0  0  0  0  0  0  0
  143.5714  131.8929  149.9111 H   0  0  0  0  0  0  0  0  0  0  0  0
  144.1672  133.5073  149.5115 H   0  0  0  0  0  0  0  0  0  0  0  0
  145.8379  131.0237  149.9840 H   0  0  0  0  0  0  0  0  0  0  0  0
  145.9125  132.1147  148.5942 H   0  0  0  0  0  0  0  0  0  0  0  0
  147.6395  132.4745  150.6698 H   0  0  0  0  0  0  0  0  0  0  0  0
  146.8704  133.8846  149.9378 H   0  0  0  0  0  0  0  0  0  0  0  0
  1  2  1  0  0  0  0
  1 29  1  0  0  0  0
  1 30  1  0  0  0  0
  1 31  1  0  0  0  0
  2  3  1  0  0  0  0
  2 10  1  0  0  0  0
  2 32  1  0  0  0  0
  3  4  1  0  0  0  0
  3 33  1  0  0  0  0
  3 34  1  0  0  0  0
  4  9  1  0  0  0  0
  4  5  1  0  0  0  0
  5  6  1  0  0  0  0
  5 35  1  0  0  0  0
  5 36  1  0  0  0  0
  6  7  1  0  0  0  0
  6 37  1  0  0  0  0
  6 38  1  0  0  0  0
  7  8  1  0  0  0  0
  8  9  1  0  0  0  0
  8 39  1  0  0  0  0
  8 40  1  0  0  0  0
  9 41  1  0  0  0  0
  9 42  1  0  0  0  0
 10 11  1  0  0  0  0
 10 12  1  0  0  0  0
 11 43  1  0  0  0  0
 11 44  1  0  0  0  0
 11 45  1  0  0  0  0
 12 17  1  0  0  0  0
 12 13  2  0  0  0  0
 13 14  1  0  0  0  0
 14 15  2  0  0  0  0
 14 46  1  0  0  0  0
 15 16  1  0  0  0  0
 16 20  1  0  0  0  0
 16 17  2  0  0  0  0
 17 18  1  0  0  0  0
 18 19  2  0  0  0  0
 19 20  1  0  0  0  0
 19 47  1  0  0  0  0
 20 21  1  0  0  0  0
 21 22  1  0  0  0  0
 21 48  1  0  0  0  0
 21 49  1  0  0  0  0
 22 23  1  0  0  0  0
 22 24  1  0  0  0  0
 22 50  1  0  0  0  0
 23 51  1  0  0  0  0
 24 28  1  0  0  0  0
 24 25  1  0  0  0  0
 24 52  1  0  0  0  0
 25 26  1  0  0  0  0
 25 53  1  0  0  0  0
 25 54  1  0  0  0  0
 26 27  1  0  0  0  0
 26 55  1  0  0  0  0
 26 56  1  0  0  0  0
 27 28  1  0  0  0  0
 27 57  1  0  0  0  0
 27 58  1  0  0  0  0
M  END
> <s_m_source_file>
AV-unprocessed.smi

> <i_m_source_file_index>
213

> <i_lp_mmshare_version>
43012

> <i_f3d_flags>
0

> <s_epik_input>
W0NIMl0xW0NIMl1PW0NIMl1bQ0gyXU4xW0NIMl1bQ0BASF0oW0NIM10pTihbQ0gzXSljKG5bY0hdbjIpYyhjMjMpbltjSF1uM1tDSDJdW0NASF0oW09IXSlbQ0BASF00W0NIMl1bQ0gyXVtDSDJdTzQ=

> <s_epik_cmdline>
J2VwaWtfcHl0aG9uJywgJy1waCcsICc3LjAnLCAnLXRuJywgJzgnLCAnLW1hJywgJzIwMCcsICctbWV0YWxfYmluZGluZycsICctaW1hZScsICc8aW5maWxlLm1hZT4nLCAnLW9tYWUnLCAnPG91dGZpbGUubWFlPic=

> <r_lp_tautomer_probability>
1

> <r_epik_Ionization_Penalty>
0.423322

> <r_epik_Ionization_Penalty_Charging>
0

> <r_epik_Ionization_Penalty_Neutral>
0.423322

> <r_epik_State_Penalty>
0.569486

> <r_epik_Charging_Adjusted_Penalty>
0.569486

> <i_epik_Tot_Q>
0

> <i_epik_Tot_abs_Q>
0

> <r_epik_Metal_State_Penalty>
0.568671

> <b_epik_Metal_Only>
0

> <s_lp_Force_Field>
OPLS_2005

> <r_lp_Energy>
53.6453

> <b_lp_Chiralities_Consistent>
1

> <s_lp_Variant>
AV-unprocessed.smi:213-15

> <Gold.Version>
5.8.1

> <Gold.Id.Protein>
6NUR|6NUR_protein|mol2

> <Gold.PLP.Fitness>
39.8023

> <Gold.PLP.PLP>
-32.3962

> <Gold.PLP.part.hbond>
-1.9844

> <Gold.PLP.part.metal>
0.0000

> <Gold.PLP.part.buried>
-5.5763

> <Gold.PLP.part.nonpolar>
-25.2203

> <Gold.PLP.part.repulsive>
0.4836

> <Gold.PLP.ligand.clash>
0.0574

> <Gold.PLP.ligand.torsion>
1.8676

> <Gold.PLP.Chemscore.Hbond>
2.0000

> <Gold.PLP.Chemscore.CHOScore>
1.3969

> <Gold.PLP.Chemscore.Metal>
0.0000

> <Gold.Chemscore.Hbonds>
donor molecule, donor type, donor heavy atom, donor atom, acceptor molecule, acceptor atom, score
      L1  H    23    51       P1 10186  1.00
      P1  H  7989  7998       L1     7  0.93
      L1  C    19    47       P1 10171  1.00
      L1  C    19    47       P1 10175  0.32

> <Gold.PLP.Chemscore.Internal.Correction>
1.0080

> <Gold.Rescore>
     Score         DG    S(hbond)    S(metal)    S(lipo)     H(rot)  DE(clash)    DE(int)     intcor
      7.73     -13.00       1.76        0.00      73.84       2.74       0.22       5.06       ----

> <Gold.Chemscore.Fitness>
7.7294

> <Gold.Chemscore.DG>
-13.0035

> <Gold.Chemscore.ZeroCoef>
-5.4800

> <Gold.Chemscore.Hbond>
1.7644

> <Gold.Chemscore.Metal>
0.0000

> <Gold.Chemscore.Lipo>
73.8370

> <Gold.Chemscore.Internal_Hbond>
0.0000

> <Gold.Chemscore.DEClash>
0.2156

> <Gold.Chemscore.DEInternal>
5.0585

> <Gold.Chemscore.Rot>
2.7378

> <Gold.Chemscore.Internal.Correction>
   9.000000E+99

> <Gold.Chemscore.Hbonds>
donor molecule, donor type, donor heavy atom, donor atom, acceptor molecule, acceptor atom, score
      L1  H    23    51       P1 10186  0.29
      P1  H  7989  7998       L1     7  0.76

> <Gold.Chemscore.Hbond.Weighted>
-5.8932

> <Gold.Chemscore.Metal.Weighted>
-0.0000

> <Gold.Chemscore.Lipo.Weighted>
-8.6389

> <Gold.Chemscore.Internal_Hbond.Weighted>
0.0000

> <Gold.Chemscore.DEClash.Weighted>
0.2156

> <Gold.Chemscore.DEInternal.Weighted>
5.0585

> <Gold.Chemscore.Rot.Weighted>
7.0087

> <Gold.Chemscore.Internal.Correction.Weighted>
   9.000000E+99

> <Gold.Protein.RotatedTorsions>
[ 6907 6896 6895 6894 ] final  -78.49 input  -60.11 | X-H torsion
[ 7974 7965 7964 7962 ] final  126.13 input  175.53 | X-H torsion
[ 8008 7997 7996 7995 ] final -146.75 input   59.86 | X-H torsion
[ 10167 10162 10161 10158 ] final  -64.02 input  -65.29 | X-H torsion
[ 10718 10713 10712 10709 ] final -140.14 input   66.30 | X-H torsion
[ 10763 10752 10751 10750 ] final  -60.87 input  -60.55 | X-H torsion
[ 11005 11000 10999 10996 ] final    4.54 input  -57.11 | X-H torsion

> <Gold.Protein.ActiveResidues>
 VAL166  LYS551  ARG553  GLY616  TRP617  ASP618  TYR619  PRO620  LYS621  CYS622 
 ASP623  PHE694  ASN695  SER759  ASP760  ASP761  ALA762  ILE779  LEU786  VAL792 
 PHE793  MET794  SER795  GLU796  ALA797  LYS798  CYS799  TRP800  GLU811  SER814 

> <Gold.Protein.RotatedAtoms>
  150.6971  134.4264  159.5227 H   0  0  0  0  0  0  0  0  0  0  0  0  # atno 6907 bound_to 6896
  152.1998  134.8595  160.0518 H   0  0  0  0  0  0  0  0  0  0  0  0  # atno 6908 bound_to 6896
  151.9520  133.3634  159.4040 H   0  0  0  0  0  0  0  0  0  0  0  0  # atno 6909 bound_to 6896
  145.0652  139.3773  143.4986 H   0  0  0  0  0  0  0  0  0  0  0  0  # atno 7974 bound_to 7965
  155.5644  140.0628  157.2821 H   0  0  0  0  0  0  0  0  0  0  0  0  # atno 8008 bound_to 7997
  154.4380  140.1880  156.0861 H   0  0  0  0  0  0  0  0  0  0  0  0  # atno 8009 bound_to 7997
  156.0423  140.3294  155.7261 H   0  0  0  0  0  0  0  0  0  0  0  0  # atno 8010 bound_to 7997
  140.5830  143.2330  151.6302 H   0  0  0  0  0  0  0  0  0  0  0  0  # atno 10167 bound_to 10162
  156.3189  130.7523  151.1616 H   0  0  0  0  0  0  0  0  0  0  0  0  # atno 10718 bound_to 10713
  154.2758  135.6281  153.5328 H   0  0  0  0  0  0  0  0  0  0  0  0  # atno 10763 bound_to 10752
  152.9873  135.5621  154.5549 H   0  0  0  0  0  0  0  0  0  0  0  0  # atno 10764 bound_to 10752
  154.5129  135.2878  155.1303 H   0  0  0  0  0  0  0  0  0  0  0  0  # atno 10765 bound_to 10752
  140.5808  134.0015  155.8047 H   0  0  0  0  0  0  0  0  0  0  0  0  # atno 11005 bound_to 11000
  146.3526  140.0369  142.8646 LP  0  0  0  0  0  0  0  0  0  0  0  0  # atno 17320 bound_to 7965
  145.1360  140.9545  143.4516 LP  0  0  0  0  0  0  0  0  0  0  0  0  # atno 17321 bound_to 7965
  139.5181  144.3295  152.0839 LP  0  0  0  0  0  0  0  0  0  0  0  0  # atno 17342 bound_to 10162
  140.2448  144.4231  150.6245 LP  0  0  0  0  0  0  0  0  0  0  0  0  # atno 17343 bound_to 10162
  157.7407  131.0513  150.5145 LP  0  0  0  0  0  0  0  0  0  0  0  0  # atno 17370 bound_to 10713
  156.5294  130.4181  149.6209 LP  0  0  0  0  0  0  0  0  0  0  0  0  # atno 17371 bound_to 10713
  141.0998  133.9787  157.3099 LP  0  0  0  0  0  0  0  0  0  0  0  0  # atno 17394 bound_to 11000
  139.9318  135.0199  156.8426 LP  0  0  0  0  0  0  0  0  0  0  0  0  # atno 17395 bound_to 11000

$$$$
