AV-unprocessed.smi:3290|AV-procd|sdf|12611|dock8
  -GOLD-   2272018543D 1   1.00000     0.00000
 Structure written by MMmdl.
 43 44  0  0  0  0  0  0  0  0  2 V2000
  151.8335  144.9040  160.4259 C   0  0  0  0  0  0  0  0  0  0  0  0
  151.9649  143.3733  160.3254 C   0  0  2  0  0  0  0  0  0  0  0  0
  153.2584  142.9217  161.0367 C   0  0  0  0  0  0  0  0  0  0  0  0
  153.4264  141.3966  161.0171 C   0  0  0  0  0  0  0  0  0  0  0  0
  153.3927  140.8647  159.5806 C   0  0  0  0  0  0  0  0  0  0  0  0
  152.1024  141.2957  158.8703 C   0  0  0  0  0  0  0  0  0  0  0  0
  151.9191  142.8304  158.8656 C   0  0  1  0  0  0  0  0  0  0  0  0
  150.6157  143.1837  158.1137 C   0  0  0  0  0  0  0  0  0  0  0  0
  150.5892  142.6281  156.7458 N   0  3  0  0  0  0  0  0  0  0  0  0
  149.6962  141.4628  156.5875 C   0  0  0  0  0  0  0  0  0  0  0  0
  149.7446  140.9024  155.1557 C   0  0  2  0  0  0  0  0  0  0  0  0
  148.4398  140.5080  154.7767 O   0  0  0  0  0  0  0  0  0  0  0  0
  150.7347  139.7528  155.0527 C   0  0  0  0  0  0  0  0  0  0  0  0
  150.3801  138.5606  154.3868 C   0  0  0  0  0  0  0  0  0  0  0  0
  151.3324  137.5247  154.3057 C   0  0  0  0  0  0  0  0  0  0  0  0
  152.5724  137.6149  154.8318 N   0  0  0  0  0  0  0  0  0  0  0  0
  152.9079  138.7581  155.4668 C   0  0  0  0  0  0  0  0  0  0  0  0
  152.0312  139.8528  155.6034 C   0  0  0  0  0  0  0  0  0  0  0  0
  152.5871  145.4094  159.8208 H   0  0  0  0  0  0  0  0  0  0  0  0
  151.9593  145.2396  161.4557 H   0  0  0  0  0  0  0  0  0  0  0  0
  150.8507  145.2486  160.1065 H   0  0  0  0  0  0  0  0  0  0  0  0
  151.1249  142.9415  160.8722 H   0  0  0  0  0  0  0  0  0  0  0  0
  154.1229  143.3872  160.5607 H   0  0  0  0  0  0  0  0  0  0  0  0
  153.2561  143.2666  162.0714 H   0  0  0  0  0  0  0  0  0  0  0  0
  154.3661  141.1188  161.4955 H   0  0  0  0  0  0  0  0  0  0  0  0
  152.6313  140.9314  161.6013 H   0  0  0  0  0  0  0  0  0  0  0  0
  154.2582  141.2354  159.0298 H   0  0  0  0  0  0  0  0  0  0  0  0
  153.4707  139.7770  159.5851 H   0  0  0  0  0  0  0  0  0  0  0  0
  152.1194  140.9173  157.8475 H   0  0  0  0  0  0  0  0  0  0  0  0
  151.2470  140.8243  159.3567 H   0  0  0  0  0  0  0  0  0  0  0  0
  152.7599  143.2510  158.3109 H   0  0  0  0  0  0  0  0  0  0  0  0
  149.7541  142.7724  158.6417 H   0  0  0  0  0  0  0  0  0  0  0  0
  150.4769  144.2654  158.0845 H   0  0  0  0  0  0  0  0  0  0  0  0
  150.2729  143.3511  156.1149 H   0  0  0  0  0  0  0  0  0  0  0  0
  150.0042  140.6921  157.2958 H   0  0  0  0  0  0  0  0  0  0  0  0
  148.6756  141.7480  156.8483 H   0  0  0  0  0  0  0  0  0  0  0  0
  150.0584  141.6907  154.4698 H   0  0  0  0  0  0  0  0  0  0  0  0
  147.9274  141.2857  154.6132 H   0  0  0  0  0  0  0  0  0  0  0  0
  149.4023  138.4366  153.9449 H   0  0  0  0  0  0  0  0  0  0  0  0
  151.0915  136.5998  153.8026 H   0  0  0  0  0  0  0  0  0  0  0  0
  153.9062  138.8036  155.8761 H   0  0  0  0  0  0  0  0  0  0  0  0
  152.3520  140.7466  156.1183 H   0  0  0  0  0  0  0  0  0  0  0  0
  151.5269  142.3598  156.4842 H   0  0  0  0  0  0  0  0  0  0  0  0
  1  2  1  0  0  0  0
  1 19  1  0  0  0  0
  1 20  1  0  0  0  0
  1 21  1  0  0  0  0
  2  7  1  0  0  0  0
  2  3  1  0  0  0  0
  2 22  1  0  0  0  0
  3  4  1  0  0  0  0
  3 23  1  0  0  0  0
  3 24  1  0  0  0  0
  4  5  1  0  0  0  0
  4 25  1  0  0  0  0
  4 26  1  0  0  0  0
  5  6  1  0  0  0  0
  5 27  1  0  0  0  0
  5 28  1  0  0  0  0
  6  7  1  0  0  0  0
  6 29  1  0  0  0  0
  6 30  1  0  0  0  0
  7  8  1  0  0  0  0
  7 31  1  0  0  0  0
  8  9  1  0  0  0  0
  8 32  1  0  0  0  0
  8 33  1  0  0  0  0
  9 10  1  0  0  0  0
  9 34  1  0  0  0  0
  9 43  1  0  0  0  0
 10 11  1  0  0  0  0
 10 35  1  0  0  0  0
 10 36  1  0  0  0  0
 11 12  1  0  0  0  0
 11 13  1  0  0  0  0
 11 37  1  0  0  0  0
 12 38  1  0  0  0  0
 13 18  1  0  0  0  0
 13 14  2  0  0  0  0
 14 15  1  0  0  0  0
 14 39  1  0  0  0  0
 15 16  2  0  0  0  0
 15 40  1  0  0  0  0
 16 17  1  0  0  0  0
 17 18  2  0  0  0  0
 17 41  1  0  0  0  0
 18 42  1  0  0  0  0
M  CHG  1   9   1
M  END
> <s_m_source_file>
AV-unprocessed.smi

> <i_m_source_file_index>
3290

> <i_lp_mmshare_version>
43012

> <i_f3d_flags>
0

> <s_epik_input>
W0NIM11bQ0BASF0xW0NIMl1bQ0gyXVtDSDJdW0NIMl1bQ0BIXTFbQ0gyXVtOSF1bQ0gyXVtDQEhdKFtPSF0pYzJbY0hdW2NIXW5bY0hdW2NIXTI=

> <s_epik_cmdline>
J2VwaWtfcHl0aG9uJywgJy1waCcsICc3LjAnLCAnLXRuJywgJzgnLCAnLW1hJywgJzIwMCcsICctbWV0YWxfYmluZGluZycsICctaW1hZScsICc8aW5maWxlLm1hZT4nLCAnLW9tYWUnLCAnPG91dGZpbGUubWFlPic=

> <r_lp_tautomer_probability>
1

> <r_epik_Ionization_Penalty>
0.00420552

> <r_epik_Ionization_Penalty_Charging>
0.00207255

> <r_epik_Ionization_Penalty_Neutral>
0.00213297

> <r_epik_State_Penalty>
-0

> <r_epik_Charging_Adjusted_Penalty>
0.00207255

> <i_epik_Tot_Q>
1

> <i_epik_Tot_abs_Q>
1

> <r_epik_Metal_State_Penalty>
-0

> <b_epik_Metal_Only>
0

> <s_lp_Force_Field>
OPLS_2005

> <r_lp_Energy>
17.3626

> <b_lp_Chiralities_Consistent>
1

> <s_lp_Variant>
AV-unprocessed.smi:3290-1

> <Gold.Version>
5.8.1

> <Gold.Id.Protein>
6NUR|6NUR_protein|mol2

> <Gold.PLP.Fitness>
51.4825

> <Gold.PLP.PLP>
-43.0453

> <Gold.PLP.part.hbond>
-2.0000

> <Gold.PLP.part.metal>
0.0000

> <Gold.PLP.part.buried>
-3.7052

> <Gold.PLP.part.nonpolar>
-38.0781

> <Gold.PLP.part.repulsive>
0.1202

> <Gold.PLP.ligand.clash>
0.0000

> <Gold.PLP.ligand.torsion>
1.1166

> <Gold.PLP.Chemscore.Hbond>
2.5440

> <Gold.PLP.Chemscore.CHOScore>
0.9906

> <Gold.PLP.Chemscore.Metal>
0.0000

> <Gold.Chemscore.Hbonds>
donor molecule, donor type, donor heavy atom, donor atom, acceptor molecule, acceptor atom, score
      L1  H     9    34       P1  8028  1.95
      P1  H 10752 10765       L1    16  0.36
      L1  C    15    40       P1  7948  0.01
      L1  C    15    40       P1  7949  1.00

> <Gold.PLP.Chemscore.Internal.Correction>
0.0667

> <Gold.Rescore>
     Score         DG    S(hbond)    S(metal)    S(lipo)     H(rot)  DE(clash)    DE(int)     intcor
     19.68     -20.83       1.68        0.00     128.05       2.05       0.06       1.09       ----

> <Gold.Chemscore.Fitness>
19.6815

> <Gold.Chemscore.DG>
-20.8296

> <Gold.Chemscore.ZeroCoef>
-5.4800

> <Gold.Chemscore.Hbond>
1.6811

> <Gold.Chemscore.Metal>
0.0000

> <Gold.Chemscore.Lipo>
128.0547

> <Gold.Chemscore.Internal_Hbond>
0.0000

> <Gold.Chemscore.DEClash>
0.0573

> <Gold.Chemscore.DEInternal>
1.0909

> <Gold.Chemscore.Rot>
2.0498

> <Gold.Chemscore.Internal.Correction>
   9.000000E+99

> <Gold.Chemscore.Hbonds>
donor molecule, donor type, donor heavy atom, donor atom, acceptor molecule, acceptor atom, score
      L1  H     9    34       P1  8028  0.90
      P1  H 10752 10765       L1    16  0.04

> <Gold.Chemscore.Hbond.Weighted>
-5.6147

> <Gold.Chemscore.Metal.Weighted>
-0.0000

> <Gold.Chemscore.Lipo.Weighted>
-14.9824

> <Gold.Chemscore.Internal_Hbond.Weighted>
0.0000

> <Gold.Chemscore.DEClash.Weighted>
0.0573

> <Gold.Chemscore.DEInternal.Weighted>
1.0909

> <Gold.Chemscore.Rot.Weighted>
5.2475

> <Gold.Chemscore.Internal.Correction.Weighted>
   9.000000E+99

> <Gold.Protein.RotatedTorsions>
[ 6907 6896 6895 6894 ] final   51.76 input  -60.11 | X-H torsion
[ 7974 7965 7964 7962 ] final   92.98 input  175.53 | X-H torsion
[ 8008 7997 7996 7995 ] final   -2.59 input   59.86 | X-H torsion
[ 10167 10162 10161 10158 ] final  101.13 input  -65.29 | X-H torsion
[ 10718 10713 10712 10709 ] final  -21.83 input   66.30 | X-H torsion
[ 10763 10752 10751 10750 ] final  178.47 input  -60.55 | X-H torsion
[ 11005 11000 10999 10996 ] final -169.19 input  -57.11 | X-H torsion

> <Gold.Protein.ActiveResidues>
 VAL166  LYS551  ARG553  GLY616  TRP617  ASP618  TYR619  PRO620  LYS621  CYS622 
 ASP623  PHE694  ASN695  SER759  ASP760  ASP761  ALA762  ILE779  LEU786  VAL792 
 PHE793  MET794  SER795  GLU796  ALA797  LYS798  CYS799  TRP800  GLU811  SER814 

> <Gold.Protein.RotatedAtoms>
  152.3161  134.7437  160.0324 H   0  0  0  0  0  0  0  0  0  0  0  0  # atno 6907 bound_to 6896
  151.7902  133.3353  159.3505 H   0  0  0  0  0  0  0  0  0  0  0  0  # atno 6908 bound_to 6896
  150.7345  134.5781  159.5969 H   0  0  0  0  0  0  0  0  0  0  0  0  # atno 6909 bound_to 6896
  145.4851  139.2277  143.2861 H   0  0  0  0  0  0  0  0  0  0  0  0  # atno 7974 bound_to 7965
  154.6341  140.2530  155.7399 H   0  0  0  0  0  0  0  0  0  0  0  0  # atno 8008 bound_to 7997
  156.2495  140.2901  156.0626 H   0  0  0  0  0  0  0  0  0  0  0  0  # atno 8009 bound_to 7997
  155.1699  140.0386  157.2851 H   0  0  0  0  0  0  0  0  0  0  0  0  # atno 8010 bound_to 7997
  139.7466  144.6996  151.0495 H   0  0  0  0  0  0  0  0  0  0  0  0  # atno 10167 bound_to 10162
  156.5127  130.4614  149.6639 H   0  0  0  0  0  0  0  0  0  0  0  0  # atno 10718 bound_to 10713
  154.5081  135.2787  155.1365 H   0  0  0  0  0  0  0  0  0  0  0  0  # atno 10763 bound_to 10752
  154.2971  135.6255  153.5413 H   0  0  0  0  0  0  0  0  0  0  0  0  # atno 10764 bound_to 10752
  152.9914  135.5688  154.5540 H   0  0  0  0  0  0  0  0  0  0  0  0  # atno 10765 bound_to 10752
  140.5336  134.5592  157.5081 H   0  0  0  0  0  0  0  0  0  0  0  0  # atno 11005 bound_to 11000
  146.2318  140.5640  142.8972 LP  0  0  0  0  0  0  0  0  0  0  0  0  # atno 17320 bound_to 7965
  144.7866  140.5949  143.6569 LP  0  0  0  0  0  0  0  0  0  0  0  0  # atno 17321 bound_to 7965
  140.7793  143.4860  150.9956 LP  0  0  0  0  0  0  0  0  0  0  0  0  # atno 17342 bound_to 10162
  139.8548  143.7391  152.3176 LP  0  0  0  0  0  0  0  0  0  0  0  0  # atno 17343 bound_to 10162
  156.3224  130.7288  151.2202 LP  0  0  0  0  0  0  0  0  0  0  0  0  # atno 17370 bound_to 10713
  157.7448  131.0452  150.4831 LP  0  0  0  0  0  0  0  0  0  0  0  0  # atno 17371 bound_to 10713
  139.9541  134.7565  156.0381 LP  0  0  0  0  0  0  0  0  0  0  0  0  # atno 17394 bound_to 11000
  141.1267  133.6597  156.3356 LP  0  0  0  0  0  0  0  0  0  0  0  0  # atno 17395 bound_to 11000

$$$$
