AV-unprocessed.smi:2410|AV-procd|sdf|9528|dock8
  -GOLD-   2272013163D 1   1.00000     0.00000
 Structure written by MMmdl.
 47 49  0  0  0  0  0  0  0  0  2 V2000
  152.0217  143.6388  161.2828 C   0  0  0  0  0  0  0  0  0  0  0  0
  151.9493  142.8336  159.9965 C   0  0  0  0  0  0  0  0  0  0  0  0
  151.0070  143.2145  159.0140 C   0  0  0  0  0  0  0  0  0  0  0  0
  150.9668  142.4603  157.8470 C   0  0  0  0  0  0  0  0  0  0  0  0
  150.1685  142.5763  156.7063 N   0  3  0  0  0  0  0  0  0  0  0  0
  150.5020  141.6000  155.8165 C   0  0  0  0  0  0  0  0  0  0  0  0
  151.5005  140.8629  156.3738 N   0  0  0  0  0  0  0  0  0  0  0  0
  152.2314  139.7020  155.8514 C   0  0  0  0  0  0  0  0  0  0  0  0
  151.2984  138.6644  155.1971 C   0  0  2  0  0  0  0  0  0  0  0  0
  150.7899  139.2198  153.9998 O   0  0  0  0  0  0  0  0  0  0  0  0
  150.1181  138.2849  156.1181 C   0  0  0  0  0  0  0  0  0  0  0  0
  149.3902  137.1076  155.6175 N   0  0  0  0  0  0  0  0  0  0  0  0
  148.0050  137.2581  155.4441 C   0  0  0  0  0  0  0  0  0  0  0  0
  147.2667  136.2902  155.0084 N   0  0  0  0  0  0  0  0  0  0  0  0
  147.8466  135.0577  154.6932 C   0  0  0  0  0  0  0  0  0  0  0  0
  146.8881  133.9896  154.1971 C   0  0  0  0  0  0  0  0  0  0  0  0
  149.1854  134.8510  154.8279 C   0  0  0  0  0  0  0  0  0  0  0  0
  149.8727  133.5313  154.5005 C   0  0  0  0  0  0  0  0  0  0  0  0
  150.0396  135.9457  155.3155 C   0  0  0  0  0  0  0  0  0  0  0  0
  151.2615  135.8368  155.4417 O   0  0  0  0  0  0  0  0  0  0  0  0
  151.8216  141.3609  157.6405 C   0  0  0  0  0  0  0  0  0  0  0  0
  152.7541  140.9700  158.5982 C   0  0  0  0  0  0  0  0  0  0  0  0
  152.8118  141.7252  159.7909 C   0  0  0  0  0  0  0  0  0  0  0  0
  153.8234  141.3255  160.8516 C   0  0  0  0  0  0  0  0  0  0  0  0
  151.3110  144.4658  161.2764 H   0  0  0  0  0  0  0  0  0  0  0  0
  153.0190  144.0584  161.4174 H   0  0  0  0  0  0  0  0  0  0  0  0
  151.7916  143.0086  162.1421 H   0  0  0  0  0  0  0  0  0  0  0  0
  150.3478  144.0570  159.1636 H   0  0  0  0  0  0  0  0  0  0  0  0
  150.0583  141.4427  154.8439 H   0  0  0  0  0  0  0  0  0  0  0  0
  152.9712  140.0665  155.1375 H   0  0  0  0  0  0  0  0  0  0  0  0
  152.7892  139.2564  156.6763 H   0  0  0  0  0  0  0  0  0  0  0  0
  151.8793  137.7778  154.9412 H   0  0  0  0  0  0  0  0  0  0  0  0
  150.0755  138.6803  153.6972 H   0  0  0  0  0  0  0  0  0  0  0  0
  150.4934  138.0458  157.1150 H   0  0  0  0  0  0  0  0  0  0  0  0
  149.4626  139.1426  156.2833 H   0  0  0  0  0  0  0  0  0  0  0  0
  147.6030  138.2404  155.6976 H   0  0  0  0  0  0  0  0  0  0  0  0
  146.9017  133.1253  154.8615 H   0  0  0  0  0  0  0  0  0  0  0  0
  147.1644  133.6641  153.1938 H   0  0  0  0  0  0  0  0  0  0  0  0
  145.8641  134.3634  154.1560 H   0  0  0  0  0  0  0  0  0  0  0  0
  150.6313  133.6824  153.7317 H   0  0  0  0  0  0  0  0  0  0  0  0
  149.1860  132.7686  154.1367 H   0  0  0  0  0  0  0  0  0  0  0  0
  150.3646  133.1332  155.3887 H   0  0  0  0  0  0  0  0  0  0  0  0
  153.4121  140.1277  158.4394 H   0  0  0  0  0  0  0  0  0  0  0  0
  154.3827  140.4375  160.5551 H   0  0  0  0  0  0  0  0  0  0  0  0
  153.3240  141.1038  161.7949 H   0  0  0  0  0  0  0  0  0  0  0  0
  154.5401  142.1300  161.0184 H   0  0  0  0  0  0  0  0  0  0  0  0
  149.4504  143.2706  156.5434 H   0  0  0  0  0  0  0  0  0  0  0  0
  1  2  1  0  0  0  0
  1 25  1  0  0  0  0
  1 26  1  0  0  0  0
  1 27  1  0  0  0  0
  2 23  1  0  0  0  0
  2  3  2  0  0  0  0
  3  4  1  0  0  0  0
  3 28  1  0  0  0  0
  4 21  2  0  0  0  0
  4  5  1  0  0  0  0
  5  6  2  0  0  0  0
  5 47  1  0  0  0  0
  6  7  1  0  0  0  0
  6 29  1  0  0  0  0
  7  8  1  0  0  0  0
  7 21  1  0  0  0  0
  8  9  1  0  0  0  0
  8 30  1  0  0  0  0
  8 31  1  0  0  0  0
  9 10  1  0  0  0  0
  9 11  1  0  0  0  0
  9 32  1  0  0  0  0
 10 33  1  0  0  0  0
 11 12  1  0  0  0  0
 11 34  1  0  0  0  0
 11 35  1  0  0  0  0
 12 19  1  0  0  0  0
 12 13  1  0  0  0  0
 13 14  2  0  0  0  0
 13 36  1  0  0  0  0
 14 15  1  0  0  0  0
 15 16  1  0  0  0  0
 15 17  2  0  0  0  0
 16 37  1  0  0  0  0
 16 38  1  0  0  0  0
 16 39  1  0  0  0  0
 17 18  1  0  0  0  0
 17 19  1  0  0  0  0
 18 40  1  0  0  0  0
 18 41  1  0  0  0  0
 18 42  1  0  0  0  0
 19 20  2  0  0  0  0
 21 22  1  0  0  0  0
 22 23  2  0  0  0  0
 22 43  1  0  0  0  0
 23 24  1  0  0  0  0
 24 44  1  0  0  0  0
 24 45  1  0  0  0  0
 24 46  1  0  0  0  0
M  CHG  1   5   1
M  END
> <s_m_source_file>
AV-unprocessed.smi

> <i_m_source_file_index>
2410

> <i_lp_mmshare_version>
43012

> <i_f3d_flags>
0

> <s_epik_input>
W0NIM11jKFtjSF0xKWMoW0NIM10pW2NIXWMoYzEyKW4oW2NIXW4yKVtDSDJdW0NASF0oW09IXSlbQ0gyXW4zW2NIXW5jKFtDSDNdKWMoW0NIM10pYzM9Tw==

> <s_epik_cmdline>
J2VwaWtfcHl0aG9uJywgJy1waCcsICc3LjAnLCAnLXRuJywgJzgnLCAnLW1hJywgJzIwMCcsICctbWV0YWxfYmluZGluZycsICctaW1hZScsICc8aW5maWxlLm1hZT4nLCAnLW9tYWUnLCAnPG91dGZpbGUubWFlPic=

> <r_lp_tautomer_probability>
1

> <r_epik_Ionization_Penalty>
1.03571

> <r_epik_Ionization_Penalty_Charging>
1.03568

> <r_epik_Ionization_Penalty_Neutral>
3.18232e-05

> <r_epik_State_Penalty>
1.08724

> <r_epik_Charging_Adjusted_Penalty>
2.12292

> <i_epik_Tot_Q>
1

> <i_epik_Tot_abs_Q>
1

> <r_epik_Metal_State_Penalty>
1.18374

> <b_epik_Metal_Only>
0

> <s_lp_Force_Field>
OPLS_2005

> <r_lp_Energy>
24.5371

> <b_lp_Chiralities_Consistent>
1

> <s_lp_Variant>
AV-unprocessed.smi:2410-3

> <Gold.Version>
5.8.1

> <Gold.Id.Protein>
6NUR|6NUR_protein|mol2

> <Gold.PLP.Fitness>
53.1612

> <Gold.PLP.PLP>
-41.9022

> <Gold.PLP.part.hbond>
-3.3568

> <Gold.PLP.part.metal>
0.0000

> <Gold.PLP.part.buried>
-4.6525

> <Gold.PLP.part.nonpolar>
-32.8768

> <Gold.PLP.part.repulsive>
0.1910

> <Gold.PLP.ligand.clash>
0.0000

> <Gold.PLP.ligand.torsion>
0.3549

> <Gold.PLP.Chemscore.Hbond>
3.9840

> <Gold.PLP.Chemscore.CHOScore>
0.0000

> <Gold.PLP.Chemscore.Metal>
0.0000

> <Gold.Chemscore.Hbonds>
donor molecule, donor type, donor heavy atom, donor atom, acceptor molecule, acceptor atom, score
      L1  H     5    47       P1  8028  1.98
      P1  H  7989  7998       L1    10  1.00
      P1  H 10752 10764       L1    20  1.00

> <Gold.PLP.Chemscore.Internal.Correction>
0.0168

> <Gold.Rescore>
     Score         DG    S(hbond)    S(metal)    S(lipo)     H(rot)  DE(clash)    DE(int)     intcor
     18.74     -21.86       2.93        0.00     109.08       2.41       0.71       2.42       ----

> <Gold.Chemscore.Fitness>
18.7359

> <Gold.Chemscore.DG>
-21.8646

> <Gold.Chemscore.ZeroCoef>
-5.4800

> <Gold.Chemscore.Hbond>
2.9280

> <Gold.Chemscore.Metal>
0.0000

> <Gold.Chemscore.Lipo>
109.0800

> <Gold.Chemscore.Internal_Hbond>
0.0000

> <Gold.Chemscore.DEClash>
0.7091

> <Gold.Chemscore.DEInternal>
2.4196

> <Gold.Chemscore.Rot>
2.4052

> <Gold.Chemscore.Internal.Correction>
   9.000000E+99

> <Gold.Chemscore.Hbonds>
donor molecule, donor type, donor heavy atom, donor atom, acceptor molecule, acceptor atom, score
      L1  H     5    47       P1  8028  0.94
      P1  H  7989  7998       L1    10  0.87
      P1  H 10752 10764       L1    20  1.00

> <Gold.Chemscore.Hbond.Weighted>
-9.7796

> <Gold.Chemscore.Metal.Weighted>
-0.0000

> <Gold.Chemscore.Lipo.Weighted>
-12.7624

> <Gold.Chemscore.Internal_Hbond.Weighted>
0.0000

> <Gold.Chemscore.DEClash.Weighted>
0.7091

> <Gold.Chemscore.DEInternal.Weighted>
2.4196

> <Gold.Chemscore.Rot.Weighted>
6.1573

> <Gold.Chemscore.Internal.Correction.Weighted>
   9.000000E+99

> <Gold.Protein.RotatedTorsions>
[ 6907 6896 6895 6894 ] final  144.02 input  -60.11 | X-H torsion
[ 7974 7965 7964 7962 ] final   11.41 input  175.53 | X-H torsion
[ 8008 7997 7996 7995 ] final -102.30 input   59.86 | X-H torsion
[ 10167 10162 10161 10158 ] final  109.52 input  -65.29 | X-H torsion
[ 10718 10713 10712 10709 ] final   43.94 input   66.30 | X-H torsion
[ 10763 10752 10751 10750 ] final  -44.58 input  -60.55 | X-H torsion
[ 11005 11000 10999 10996 ] final -134.61 input  -57.11 | X-H torsion

> <Gold.Protein.ActiveResidues>
 VAL166  LYS551  ARG553  GLY616  TRP617  ASP618  TYR619  PRO620  LYS621  CYS622 
 ASP623  PHE694  ASN695  SER759  ASP760  ASP761  ALA762  ILE779  LEU786  VAL792 
 PHE793  MET794  SER795  GLU796  ALA797  LYS798  CYS799  TRP800  GLU811  SER814 

> <Gold.Protein.RotatedAtoms>
  152.1990  133.4827  159.5047 H   0  0  0  0  0  0  0  0  0  0  0  0  # atno 6907 bound_to 6896
  150.6966  134.1615  159.4187 H   0  0  0  0  0  0  0  0  0  0  0  0  # atno 6908 bound_to 6896
  151.9532  135.0159  160.0594 H   0  0  0  0  0  0  0  0  0  0  0  0  # atno 6909 bound_to 6896
  146.2371  139.9489  142.8473 H   0  0  0  0  0  0  0  0  0  0  0  0  # atno 7974 bound_to 7965
  154.8547  140.0429  157.1626 H   0  0  0  0  0  0  0  0  0  0  0  0  # atno 8008 bound_to 7997
  154.8905  140.2986  155.5353 H   0  0  0  0  0  0  0  0  0  0  0  0  # atno 8009 bound_to 7997
  156.2997  140.2394  156.3920 H   0  0  0  0  0  0  0  0  0  0  0  0  # atno 8010 bound_to 7997
  139.6760  144.7122  151.1602 H   0  0  0  0  0  0  0  0  0  0  0  0  # atno 10167 bound_to 10162
  157.4214  130.7971  149.7519 H   0  0  0  0  0  0  0  0  0  0  0  0  # atno 10718 bound_to 10713
  154.0144  135.6677  153.4767 H   0  0  0  0  0  0  0  0  0  0  0  0  # atno 10763 bound_to 10752
  153.0607  135.5029  154.8083 H   0  0  0  0  0  0  0  0  0  0  0  0  # atno 10764 bound_to 10752
  154.6976  135.3073  154.9353 H   0  0  0  0  0  0  0  0  0  0  0  0  # atno 10765 bound_to 10752
  140.8974  134.1734  157.4485 H   0  0  0  0  0  0  0  0  0  0  0  0  # atno 11005 bound_to 11000
  145.1880  140.9798  143.4227 LP  0  0  0  0  0  0  0  0  0  0  0  0  # atno 17320 bound_to 7965
  144.9882  139.3715  143.6228 LP  0  0  0  0  0  0  0  0  0  0  0  0  # atno 17321 bound_to 7965
  140.7635  143.5772  150.8933 LP  0  0  0  0  0  0  0  0  0  0  0  0  # atno 17342 bound_to 10162
  139.9440  143.6349  152.3046 LP  0  0  0  0  0  0  0  0  0  0  0  0  # atno 17343 bound_to 10162
  155.9882  130.3961  150.3130 LP  0  0  0  0  0  0  0  0  0  0  0  0  # atno 17370 bound_to 10713
  157.1278  131.0264  151.2982 LP  0  0  0  0  0  0  0  0  0  0  0  0  # atno 17371 bound_to 10713
  139.8737  134.9884  156.5410 LP  0  0  0  0  0  0  0  0  0  0  0  0  # atno 17394 bound_to 11000
  140.8272  133.8307  155.8950 LP  0  0  0  0  0  0  0  0  0  0  0  0  # atno 17395 bound_to 11000

$$$$
