AV-unprocessed.smi:1718|AV-procd|sdf|6923|dock10
  -GOLD-   22720 8133D 1   1.00000     0.00000
 Structure written by MMmdl.
 40 41  0  0  0  0  0  0  0  0  1 V2000
  149.6955  133.4525  155.1671 C   0  0  0  0  0  0  0  0  0  0  0  0
  148.6008  134.5298  155.1945 C   0  0  1  0  0  0  0  0  0  0  0  0
  149.1958  135.7553  154.7762 O   0  0  0  0  0  0  0  0  0  0  0  0
  150.3080  136.1922  155.5496 C   0  0  0  0  0  0  0  0  0  0  0  0
  150.9102  137.4369  154.8872 C   0  0  2  0  0  0  0  0  0  0  0  0
  152.2272  137.9012  155.5032 C   0  0  0  0  0  0  0  0  0  0  0  0
  152.2693  139.3477  155.0646 C   0  0  0  0  0  0  0  0  0  0  0  0
  150.7983  139.7559  155.1414 C   0  0  0  0  0  0  0  0  0  0  0  0
  150.0392  138.5528  155.0363 O   0  0  0  0  0  0  0  0  0  0  0  0
  147.4272  134.1629  154.2712 C   0  0  0  0  0  0  0  0  0  0  0  0
  146.7637  133.1533  154.5071 O   0  0  0  0  0  0  0  0  0  0  0  0
  147.2131  135.0092  153.2442 N   0  0  0  0  0  0  0  0  0  0  0  0
  146.2707  134.9293  152.2053 C   0  0  0  0  0  0  0  0  0  0  0  0
  145.9446  133.7907  151.5394 C   0  0  0  0  0  0  0  0  0  0  0  0
  144.9713  133.7799  150.4602 C   0  0  0  0  0  0  0  0  0  0  0  0
  144.5554  132.4866  149.7768 C   0  0  0  0  0  0  0  0  0  0  0  0
  143.8602  132.7284  148.6644 F   0  0  0  0  0  0  0  0  0  0  0  0
  145.6366  131.7820  149.4458 F   0  0  0  0  0  0  0  0  0  0  0  0
  143.8043  131.7383  150.5853 F   0  0  0  0  0  0  0  0  0  0  0  0
  144.3993  134.9596  150.1560 C   0  0  0  0  0  0  0  0  0  0  0  0
  144.7458  136.1385  150.8201 N   0  0  0  0  0  0  0  0  0  0  0  0
  145.6474  136.2078  151.8250 C   0  0  0  0  0  0  0  0  0  0  0  0
  145.9005  137.2871  152.3591 O   0  0  0  0  0  0  0  0  0  0  0  0
  144.2844  136.9858  150.5217 H   0  0  0  0  0  0  0  0  0  0  0  0
  149.3026  132.4804  155.4675 H   0  0  0  0  0  0  0  0  0  0  0  0
  150.5040  133.7069  155.8527 H   0  0  0  0  0  0  0  0  0  0  0  0
  150.1307  133.3466  154.1726 H   0  0  0  0  0  0  0  0  0  0  0  0
  148.2485  134.6317  156.2230 H   0  0  0  0  0  0  0  0  0  0  0  0
  149.9951  136.4429  156.5636 H   0  0  0  0  0  0  0  0  0  0  0  0
  151.0572  135.4026  155.6246 H   0  0  0  0  0  0  0  0  0  0  0  0
  151.0462  137.2632  153.8184 H   0  0  0  0  0  0  0  0  0  0  0  0
  152.1875  137.8408  156.5918 H   0  0  0  0  0  0  0  0  0  0  0  0
  153.0853  137.3238  155.1577 H   0  0  0  0  0  0  0  0  0  0  0  0
  152.9167  139.9665  155.6864 H   0  0  0  0  0  0  0  0  0  0  0  0
  152.6228  139.4122  154.0347 H   0  0  0  0  0  0  0  0  0  0  0  0
  150.5765  140.2233  156.1011 H   0  0  0  0  0  0  0  0  0  0  0  0
  150.5305  140.4602  154.3533 H   0  0  0  0  0  0  0  0  0  0  0  0
  147.7906  135.8378  153.2231 H   0  0  0  0  0  0  0  0  0  0  0  0
  146.4198  132.8530  151.7769 H   0  0  0  0  0  0  0  0  0  0  0  0
  143.6421  135.0909  149.3970 H   0  0  0  0  0  0  0  0  0  0  0  0
  1  2  1  0  0  0  0
  1 25  1  0  0  0  0
  1 26  1  0  0  0  0
  1 27  1  0  0  0  0
  2  3  1  0  0  0  0
  2 10  1  0  0  0  0
  2 28  1  0  0  0  0
  3  4  1  0  0  0  0
  4  5  1  0  0  0  0
  4 29  1  0  0  0  0
  4 30  1  0  0  0  0
  5  9  1  0  0  0  0
  5  6  1  0  0  0  0
  5 31  1  0  0  0  0
  6  7  1  0  0  0  0
  6 32  1  0  0  0  0
  6 33  1  0  0  0  0
  7  8  1  0  0  0  0
  7 34  1  0  0  0  0
  7 35  1  0  0  0  0
  8  9  1  0  0  0  0
  8 36  1  0  0  0  0
  8 37  1  0  0  0  0
 10 11  2  0  0  0  0
 10 12  1  0  0  0  0
 12 13  1  0  0  0  0
 12 38  1  0  0  0  0
 13 22  1  0  0  0  0
 13 14  2  0  0  0  0
 14 15  1  0  0  0  0
 14 39  1  0  0  0  0
 15 16  1  0  0  0  0
 15 20  2  0  0  0  0
 16 17  1  0  0  0  0
 16 18  1  0  0  0  0
 16 19  1  0  0  0  0
 20 21  1  0  0  0  0
 20 40  1  0  0  0  0
 21 24  1  0  0  0  0
 21 22  1  0  0  0  0
 22 23  2  0  0  0  0
M  END
> <s_m_source_file>
AV-unprocessed.smi

> <i_m_source_file_index>
1718

> <i_lp_mmshare_version>
43012

> <i_f3d_flags>
0

> <s_epik_input>
TzFbQ0gyXVtDSDJdW0NIMl1bQ0BIXTFbQ0gyXU9bQ0BASF0oW0NIM10pQyg9TylbTkhdYzJbY0hdYyhDKEYpKEYpRilbY0hdW25IXWMyPU8=

> <s_epik_cmdline>
J2VwaWtfcHl0aG9uJywgJy1waCcsICc3LjAnLCAnLXRuJywgJzgnLCAnLW1hJywgJzIwMCcsICctbWV0YWxfYmluZGluZycsICctaW1hZScsICc8aW5maWxlLm1hZT4nLCAnLW9tYWUnLCAnPG91dGZpbGUubWFlPic=

> <r_lp_tautomer_probability>
0.999

> <r_epik_Ionization_Penalty>
0.00894336

> <r_epik_Ionization_Penalty_Charging>
0.00894326

> <r_epik_Ionization_Penalty_Neutral>
1.00145e-07

> <r_epik_State_Penalty>
0.00676626

> <r_epik_Charging_Adjusted_Penalty>
0.0157095

> <i_epik_Tot_Q>
0

> <i_epik_Tot_abs_Q>
0

> <r_epik_Metal_State_Penalty>
0.321145

> <b_epik_Metal_Only>
0

> <s_lp_Force_Field>
OPLS_2005

> <r_lp_Energy>
34.2201

> <b_lp_Chiralities_Consistent>
1

> <s_lp_Variant>
AV-unprocessed.smi:1718-2

> <Gold.Version>
5.8.1

> <Gold.Id.Protein>
6NUR|6NUR_protein|mol2

> <Gold.PLP.Fitness>
45.6822

> <Gold.PLP.PLP>
-40.5519

> <Gold.PLP.part.hbond>
-1.9492

> <Gold.PLP.part.metal>
0.0000

> <Gold.PLP.part.buried>
-2.8517

> <Gold.PLP.part.nonpolar>
-38.3737

> <Gold.PLP.part.repulsive>
2.1203

> <Gold.PLP.ligand.clash>
0.4526

> <Gold.PLP.ligand.torsion>
0.8676

> <Gold.PLP.Chemscore.Hbond>
1.4160

> <Gold.PLP.Chemscore.CHOScore>
0.9887

> <Gold.PLP.Chemscore.Metal>
0.0000

> <Gold.Chemscore.Hbonds>
donor molecule, donor type, donor heavy atom, donor atom, acceptor molecule, acceptor atom, score
      L1  H    12    38       P1  7948  0.46
      L1  H    21    24       P1 10171  1.00
      L1  C    20    40       P1 10186  0.54

> <Gold.PLP.Chemscore.Internal.Correction>
0.1039

> <Gold.Rescore>
     Score         DG    S(hbond)    S(metal)    S(lipo)     H(rot)  DE(clash)    DE(int)     intcor
     13.61     -14.30       1.55        0.00      72.21       1.88       0.12       0.57       ----

> <Gold.Chemscore.Fitness>
13.6143

> <Gold.Chemscore.DG>
-14.2998

> <Gold.Chemscore.ZeroCoef>
-5.4800

> <Gold.Chemscore.Hbond>
1.5513

> <Gold.Chemscore.Metal>
0.0000

> <Gold.Chemscore.Lipo>
72.2116

> <Gold.Chemscore.Internal_Hbond>
0.0000

> <Gold.Chemscore.DEClash>
0.1190

> <Gold.Chemscore.DEInternal>
0.5665

> <Gold.Chemscore.Rot>
1.8790

> <Gold.Chemscore.Internal.Correction>
   9.000000E+99

> <Gold.Chemscore.Hbonds>
donor molecule, donor type, donor heavy atom, donor atom, acceptor molecule, acceptor atom, score
      L1  H    12    38       P1  7948  0.46
      L1  H    21    24       P1 10171  1.00

> <Gold.Chemscore.Hbond.Weighted>
-5.1813

> <Gold.Chemscore.Metal.Weighted>
-0.0000

> <Gold.Chemscore.Lipo.Weighted>
-8.4488

> <Gold.Chemscore.Internal_Hbond.Weighted>
0.0000

> <Gold.Chemscore.DEClash.Weighted>
0.1190

> <Gold.Chemscore.DEInternal.Weighted>
0.5665

> <Gold.Chemscore.Rot.Weighted>
4.8102

> <Gold.Chemscore.Internal.Correction.Weighted>
   9.000000E+99

> <Gold.Protein.RotatedTorsions>
[ 6907 6896 6895 6894 ] final  179.08 input  -60.11 | X-H torsion
[ 7974 7965 7964 7962 ] final   43.53 input  175.53 | X-H torsion
[ 8008 7997 7996 7995 ] final   72.49 input   59.86 | X-H torsion
[ 10167 10162 10161 10158 ] final  -62.46 input  -65.29 | X-H torsion
[ 10718 10713 10712 10709 ] final  -46.13 input   66.30 | X-H torsion
[ 10763 10752 10751 10750 ] final   93.01 input  -60.55 | X-H torsion
[ 11005 11000 10999 10996 ] final   32.25 input  -57.11 | X-H torsion

> <Gold.Protein.ActiveResidues>
 VAL166  LYS551  ARG553  GLY616  TRP617  ASP618  TYR619  PRO620  LYS621  CYS622 
 ASP623  PHE694  ASN695  SER759  ASP760  ASP761  ALA762  ILE779  LEU786  VAL792 
 PHE793  MET794  SER795  GLU796  ALA797  LYS798  CYS799  TRP800  GLU811  SER814 

> <Gold.Protein.RotatedAtoms>
  151.6774  133.3312  159.3211 H   0  0  0  0  0  0  0  0  0  0  0  0  # atno 6907 bound_to 6896
  150.7839  134.6810  159.6453 H   0  0  0  0  0  0  0  0  0  0  0  0  # atno 6908 bound_to 6896
  152.3903  134.6455  160.0162 H   0  0  0  0  0  0  0  0  0  0  0  0  # atno 6909 bound_to 6896
  146.0647  139.5176  142.9636 H   0  0  0  0  0  0  0  0  0  0  0  0  # atno 7974 bound_to 7965
  155.7697  140.3484  155.5240 H   0  0  0  0  0  0  0  0  0  0  0  0  # atno 8008 bound_to 7997
  155.8834  140.1006  157.1490 H   0  0  0  0  0  0  0  0  0  0  0  0  # atno 8009 bound_to 7997
  154.4027  140.1318  156.4212 H   0  0  0  0  0  0  0  0  0  0  0  0  # atno 8010 bound_to 7997
  140.5937  143.2346  151.6083 H   0  0  0  0  0  0  0  0  0  0  0  0  # atno 10167 bound_to 10162
  156.2213  130.4166  149.8989 H   0  0  0  0  0  0  0  0  0  0  0  0  # atno 10718 bound_to 10713
  153.2255  135.4341  155.0537 H   0  0  0  0  0  0  0  0  0  0  0  0  # atno 10763 bound_to 10752
  154.8271  135.3367  154.6864 H   0  0  0  0  0  0  0  0  0  0  0  0  # atno 10764 bound_to 10752
  153.7293  135.7012  153.5049 H   0  0  0  0  0  0  0  0  0  0  0  0  # atno 10765 bound_to 10752
  140.2755  134.3033  155.7815 H   0  0  0  0  0  0  0  0  0  0  0  0  # atno 11005 bound_to 11000
  145.6498  141.0265  143.1766 LP  0  0  0  0  0  0  0  0  0  0  0  0  # atno 17320 bound_to 7965
  144.7195  139.8078  143.7387 LP  0  0  0  0  0  0  0  0  0  0  0  0  # atno 17321 bound_to 7965
  139.5244  144.3105  152.0997 LP  0  0  0  0  0  0  0  0  0  0  0  0  # atno 17342 bound_to 10162
  140.2273  144.4404  150.6315 LP  0  0  0  0  0  0  0  0  0  0  0  0  # atno 17343 bound_to 10162
  156.6634  130.8791  151.3551 LP  0  0  0  0  0  0  0  0  0  0  0  0  # atno 17370 bound_to 10713
  157.7089  130.9417  150.1022 LP  0  0  0  0  0  0  0  0  0  0  0  0  # atno 17371 bound_to 10713
  141.2171  133.7493  156.9400 LP  0  0  0  0  0  0  0  0  0  0  0  0  # atno 17394 bound_to 11000
  140.1333  134.9342  157.2367 LP  0  0  0  0  0  0  0  0  0  0  0  0  # atno 17395 bound_to 11000

$$$$
