AV-unprocessed.smi:1757|AV-procd|sdf|7075|dock7
  -GOLD-   22720 8293D 1   1.00000     0.00000
 Structure written by MMmdl.
 40 41  0  0  0  0  0  0  0  0  2 V2000
  148.4543  133.3230  153.6393 C   0  0  0  0  0  0  0  0  0  0  0  0
  148.8117  134.6707  154.1315 N   0  3  2  0  0  0  0  0  0  0  0  0
  150.0521  134.6637  154.9463 C   0  0  0  0  0  0  0  0  0  0  0  0
  150.4673  136.0931  155.3332 C   0  0  0  0  0  0  0  0  0  0  0  0
  149.3312  136.8205  156.0713 C   0  0  1  0  0  0  0  0  0  0  0  0
  149.7114  138.2073  156.3279 N   0  0  0  0  0  0  0  0  0  0  0  0
  150.5336  138.6295  157.2995 C   0  0  0  0  0  0  0  0  0  0  0  0
  151.0729  137.8746  158.1082 O   0  0  0  0  0  0  0  0  0  0  0  0
  150.6598  139.9687  157.2700 N   0  0  0  0  0  0  0  0  0  0  0  0
  151.4470  140.7998  158.0838 C   0  0  0  0  0  0  0  0  0  0  0  0
  151.0459  141.9992  158.5801 C   0  0  0  0  0  0  0  0  0  0  0  0
  151.9058  142.8068  159.4304 C   0  0  0  0  0  0  0  0  0  0  0  0
  151.4771  144.1606  159.9735 C   0  0  0  0  0  0  0  0  0  0  0  0
  151.6642  144.2054  161.2923 F   0  0  0  0  0  0  0  0  0  0  0  0
  152.2057  145.1308  159.4217 F   0  0  0  0  0  0  0  0  0  0  0  0
  150.1911  144.4085  159.7243 F   0  0  0  0  0  0  0  0  0  0  0  0
  153.1199  142.3000  159.7108 C   0  0  0  0  0  0  0  0  0  0  0  0
  153.5338  141.0610  159.2163 N   0  0  0  0  0  0  0  0  0  0  0  0
  152.7785  140.2700  158.4217 C   0  0  0  0  0  0  0  0  0  0  0  0
  153.2126  139.1876  158.0287 O   0  0  0  0  0  0  0  0  0  0  0  0
  148.0473  136.7752  155.2256 C   0  0  0  0  0  0  0  0  0  0  0  0
  147.6861  135.3312  154.8385 C   0  0  0  0  0  0  0  0  0  0  0  0
  154.4576  140.7479  159.4772 H   0  0  0  0  0  0  0  0  0  0  0  0
  148.2268  132.6513  154.4682 H   0  0  0  0  0  0  0  0  0  0  0  0
  149.2754  132.8928  153.0650 H   0  0  0  0  0  0  0  0  0  0  0  0
  147.5820  133.3700  152.9867 H   0  0  0  0  0  0  0  0  0  0  0  0
  149.8975  134.0618  155.8435 H   0  0  0  0  0  0  0  0  0  0  0  0
  150.8580  134.1919  154.3828 H   0  0  0  0  0  0  0  0  0  0  0  0
  151.3598  136.0607  155.9595 H   0  0  0  0  0  0  0  0  0  0  0  0
  150.7411  136.6464  154.4334 H   0  0  0  0  0  0  0  0  0  0  0  0
  149.1435  136.2937  157.0090 H   0  0  0  0  0  0  0  0  0  0  0  0
  149.3137  138.9054  155.7163 H   0  0  0  0  0  0  0  0  0  0  0  0
  150.0864  140.4607  156.6000 H   0  0  0  0  0  0  0  0  0  0  0  0
  150.0586  142.3769  158.3703 H   0  0  0  0  0  0  0  0  0  0  0  0
  153.8554  142.7978  160.3259 H   0  0  0  0  0  0  0  0  0  0  0  0
  147.2208  137.2270  155.7758 H   0  0  0  0  0  0  0  0  0  0  0  0
  148.1777  137.3701  154.3202 H   0  0  0  0  0  0  0  0  0  0  0  0
  146.8043  135.3373  154.1965 H   0  0  0  0  0  0  0  0  0  0  0  0
  147.4262  134.7574  155.7296 H   0  0  0  0  0  0  0  0  0  0  0  0
  149.0070  135.2309  153.3139 H   0  0  0  0  0  0  0  0  0  0  0  0
  1  2  1  0  0  0  0
  1 24  1  0  0  0  0
  1 25  1  0  0  0  0
  1 26  1  0  0  0  0
  2 22  1  0  0  0  0
  2  3  1  0  0  0  0
  2 40  1  0  0  0  0
  3  4  1  0  0  0  0
  3 27  1  0  0  0  0
  3 28  1  0  0  0  0
  4  5  1  0  0  0  0
  4 29  1  0  0  0  0
  4 30  1  0  0  0  0
  5  6  1  0  0  0  0
  5 21  1  0  0  0  0
  5 31  1  0  0  0  0
  6  7  1  0  0  0  0
  6 32  1  0  0  0  0
  7  8  2  0  0  0  0
  7  9  1  0  0  0  0
  9 10  1  0  0  0  0
  9 33  1  0  0  0  0
 10 19  1  0  0  0  0
 10 11  2  0  0  0  0
 11 12  1  0  0  0  0
 11 34  1  0  0  0  0
 12 13  1  0  0  0  0
 12 17  2  0  0  0  0
 13 14  1  0  0  0  0
 13 15  1  0  0  0  0
 13 16  1  0  0  0  0
 17 18  1  0  0  0  0
 17 35  1  0  0  0  0
 18 23  1  0  0  0  0
 18 19  1  0  0  0  0
 19 20  2  0  0  0  0
 21 22  1  0  0  0  0
 21 36  1  0  0  0  0
 21 37  1  0  0  0  0
 22 38  1  0  0  0  0
 22 39  1  0  0  0  0
M  CHG  1   2   1
M  END
> <s_m_source_file>
AV-unprocessed.smi

> <i_m_source_file_index>
1757

> <i_lp_mmshare_version>
43012

> <i_f3d_flags>
0

> <s_epik_input>
W0NIM11OMVtDSDJdW0NIMl1bQ0hdKFtDSDJdW0NIMl0xKVtOSF1DKD1PKVtOSF1jMltjSF1jKEMoRikoRilGKVtjSF1bbkhdYzI9Tw==

> <s_epik_cmdline>
J2VwaWtfcHl0aG9uJywgJy1waCcsICc3LjAnLCAnLXRuJywgJzgnLCAnLW1hJywgJzIwMCcsICctbWV0YWxfYmluZGluZycsICctaW1hZScsICc8aW5maWxlLm1hZT4nLCAnLW9tYWUnLCAnPG91dGZpbGUubWFlPic=

> <r_lp_tautomer_probability>
1

> <r_epik_Ionization_Penalty>
0.00859077

> <r_epik_Ionization_Penalty_Charging>
0.00857233

> <r_epik_Ionization_Penalty_Neutral>
1.84472e-05

> <r_epik_State_Penalty>
-0

> <r_epik_Charging_Adjusted_Penalty>
0.00857233

> <i_epik_Tot_Q>
1

> <i_epik_Tot_abs_Q>
1

> <r_epik_Metal_State_Penalty>
0.377538

> <b_epik_Metal_Only>
0

> <s_lp_Force_Field>
OPLS_2005

> <r_lp_Energy>
26.9081

> <b_lp_Chiralities_Consistent>
1

> <s_lp_Variant>
AV-unprocessed.smi:1757-1

> <Gold.Version>
5.8.1

> <Gold.Id.Protein>
6NUR|6NUR_protein|mol2

> <Gold.PLP.Fitness>
42.5090

> <Gold.PLP.PLP>
-36.0466

> <Gold.PLP.part.hbond>
-2.0000

> <Gold.PLP.part.metal>
0.0000

> <Gold.PLP.part.buried>
-3.9945

> <Gold.PLP.part.nonpolar>
-29.6791

> <Gold.PLP.part.repulsive>
0.1116

> <Gold.PLP.ligand.clash>
0.0000

> <Gold.PLP.ligand.torsion>
0.7469

> <Gold.PLP.Chemscore.Hbond>
2.6500

> <Gold.PLP.Chemscore.CHOScore>
0.0000

> <Gold.PLP.Chemscore.Metal>
0.0000

> <Gold.Chemscore.Hbonds>
donor molecule, donor type, donor heavy atom, donor atom, acceptor molecule, acceptor atom, score
      L1  H     2    40       P1  7948  2.00
      P1  H  7997  8009       L1    20  0.60

> <Gold.PLP.Chemscore.Internal.Correction>
0.0063

> <Gold.Rescore>
     Score         DG    S(hbond)    S(metal)    S(lipo)     H(rot)  DE(clash)    DE(int)     intcor
     11.44     -16.92       1.89        0.00      65.63       1.00       0.73       4.75       ----

> <Gold.Chemscore.Fitness>
11.4383

> <Gold.Chemscore.DG>
-16.9163

> <Gold.Chemscore.ZeroCoef>
-5.4800

> <Gold.Chemscore.Hbond>
1.8914

> <Gold.Chemscore.Metal>
0.0000

> <Gold.Chemscore.Lipo>
65.6310

> <Gold.Chemscore.Internal_Hbond>
0.0000

> <Gold.Chemscore.DEClash>
0.7287

> <Gold.Chemscore.DEInternal>
4.7493

> <Gold.Chemscore.Rot>
1.0000

> <Gold.Chemscore.Internal.Correction>
   9.000000E+99

> <Gold.Chemscore.Hbonds>
donor molecule, donor type, donor heavy atom, donor atom, acceptor molecule, acceptor atom, score
      L1  H     2    40       P1  7948  0.40
      P1  H  7997  8009       L1    20  0.04

> <Gold.Chemscore.Hbond.Weighted>
-6.3174

> <Gold.Chemscore.Metal.Weighted>
-0.0000

> <Gold.Chemscore.Lipo.Weighted>
-7.6788

> <Gold.Chemscore.Internal_Hbond.Weighted>
0.0000

> <Gold.Chemscore.DEClash.Weighted>
0.7287

> <Gold.Chemscore.DEInternal.Weighted>
4.7493

> <Gold.Chemscore.Rot.Weighted>
2.5600

> <Gold.Chemscore.Internal.Correction.Weighted>
   9.000000E+99

> <Gold.Protein.RotatedTorsions>
[ 6907 6896 6895 6894 ] final   10.56 input  -60.11 | X-H torsion
[ 7974 7965 7964 7962 ] final   53.61 input  175.53 | X-H torsion
[ 8008 7997 7996 7995 ] final  147.01 input   59.86 | X-H torsion
[ 10167 10162 10161 10158 ] final -131.04 input  -65.29 | X-H torsion
[ 10718 10713 10712 10709 ] final  -67.53 input   66.30 | X-H torsion
[ 10763 10752 10751 10750 ] final  -52.35 input  -60.55 | X-H torsion
[ 11005 11000 10999 10996 ] final   80.75 input  -57.11 | X-H torsion

> <Gold.Protein.ActiveResidues>
 VAL166  LYS551  ARG553  GLY616  TRP617  ASP618  TYR619  PRO620  LYS621  CYS622 
 ASP623  PHE694  ASN695  SER759  ASP760  ASP761  ALA762  ILE779  LEU786  VAL792 
 PHE793  MET794  SER795  GLU796  ALA797  LYS798  CYS799  TRP800  GLU811  SER814 

> <Gold.Protein.RotatedAtoms>
  151.7401  135.0856  160.0314 H   0  0  0  0  0  0  0  0  0  0  0  0  # atno 6907 bound_to 6896
  152.3485  133.6146  159.5936 H   0  0  0  0  0  0  0  0  0  0  0  0  # atno 6908 bound_to 6896
  150.7524  133.9528  159.3533 H   0  0  0  0  0  0  0  0  0  0  0  0  # atno 6909 bound_to 6896
  145.9694  139.4135  143.0199 H   0  0  0  0  0  0  0  0  0  0  0  0  # atno 7974 bound_to 7965
  156.2838  140.2167  156.5468 H   0  0  0  0  0  0  0  0  0  0  0  0  # atno 8008 bound_to 7997
  154.7324  140.0494  157.0761 H   0  0  0  0  0  0  0  0  0  0  0  0  # atno 8009 bound_to 7997
  155.0336  140.3138  155.4752 H   0  0  0  0  0  0  0  0  0  0  0  0  # atno 8010 bound_to 7997
  139.9231  143.6360  152.2549 H   0  0  0  0  0  0  0  0  0  0  0  0  # atno 10167 bound_to 10162
  156.0552  130.4279  150.1868 H   0  0  0  0  0  0  0  0  0  0  0  0  # atno 10718 bound_to 10713
  154.1413  135.6504  153.4943 H   0  0  0  0  0  0  0  0  0  0  0  0  # atno 10763 bound_to 10752
  153.0165  135.5316  154.6902 H   0  0  0  0  0  0  0  0  0  0  0  0  # atno 10764 bound_to 10752
  154.6164  135.2959  155.0346 H   0  0  0  0  0  0  0  0  0  0  0  0  # atno 10765 bound_to 10752
  139.9123  134.7944  156.1951 H   0  0  0  0  0  0  0  0  0  0  0  0  # atno 11005 bound_to 11000
  145.7927  140.9807  143.1040 LP  0  0  0  0  0  0  0  0  0  0  0  0  # atno 17320 bound_to 7965
  144.6833  139.9703  143.7482 LP  0  0  0  0  0  0  0  0  0  0  0  0  # atno 17321 bound_to 7965
  139.6845  144.7653  151.1548 LP  0  0  0  0  0  0  0  0  0  0  0  0  # atno 17342 bound_to 10162
  140.7657  143.5677  150.9030 LP  0  0  0  0  0  0  0  0  0  0  0  0  # atno 17343 bound_to 10162
  156.9946  130.9904  151.3406 LP  0  0  0  0  0  0  0  0  0  0  0  0  # atno 17370 bound_to 10713
  157.5516  130.8186  149.8152 LP  0  0  0  0  0  0  0  0  0  0  0  0  # atno 17371 bound_to 10713
  141.0560  133.6865  156.1861 LP  0  0  0  0  0  0  0  0  0  0  0  0  # atno 17394 bound_to 11000
  140.6737  134.4841  157.5588 LP  0  0  0  0  0  0  0  0  0  0  0  0  # atno 17395 bound_to 11000

$$$$
