AV-unprocessed.smi:252|AV-procd|sdf|1938|dock4
  -GOLD-   2262021 63D 1   1.00000     0.00000
 Structure written by MMmdl.
 56 59  0  0  0  0  0  0  0  0  1 V2000
  150.4109  145.8249  160.0031 C   0  0  0  0  0  0  0  0  0  0  0  0
  150.9706  145.5803  158.5927 C   0  0  0  0  0  0  0  0  0  0  0  0
  151.1851  144.0999  158.2606 C   0  0  0  0  0  0  0  0  0  0  0  0
  151.8638  143.3765  158.9907 O   0  0  0  0  0  0  0  0  0  0  0  0
  150.5909  143.6626  157.1401 N   0  0  0  0  0  0  0  0  0  0  0  0
  150.6452  142.2950  156.6340 C   0  0  2  0  0  0  0  0  0  0  0  0
  149.7061  142.1209  155.4235 C   0  0  0  0  0  0  0  0  0  0  0  0
  149.6877  140.6546  154.9658 C   0  0  0  0  0  0  0  0  0  0  0  0
  149.3271  139.7178  156.1298 C   0  0  0  0  0  0  0  0  0  0  0  0
  150.2175  139.9409  157.2698 N   0  0  0  0  0  0  0  0  0  0  0  0
  150.2519  138.9934  158.2404 C   0  0  0  0  0  0  0  0  0  0  0  0
  151.3221  138.9151  159.0762 N   0  0  0  0  0  0  0  0  0  0  0  0
  151.3665  137.9806  160.0301 C   0  0  0  0  0  0  0  0  0  0  0  0
  150.4649  137.0409  160.3204 N   0  0  0  0  0  0  0  0  0  0  0  0
  149.3871  137.1147  159.4881 C   0  0  0  0  0  0  0  0  0  0  0  0
  149.2001  138.0537  158.4342 C   0  0  0  0  0  0  0  0  0  0  0  0
  147.9720  137.8366  157.8203 N   0  0  0  0  0  0  0  0  0  0  0  0
  147.4656  136.8248  158.4699 C   0  0  0  0  0  0  0  0  0  0  0  0
  148.2538  136.3197  159.4793 N   0  0  0  0  0  0  0  0  0  0  0  0
  147.9314  135.2060  160.3586 C   0  0  0  0  0  0  0  0  0  0  0  0
  146.6729  135.4253  161.2421 C   0  0  2  0  0  0  0  0  0  0  0  0
  145.5324  135.4408  160.4014 O   0  0  0  0  0  0  0  0  0  0  0  0
  146.7000  136.7166  162.0538 C   0  0  0  0  0  0  0  0  0  0  0  0
  147.4668  136.2982  163.2976 C   0  0  0  0  0  0  0  0  0  0  0  0
  146.9658  134.9988  163.5708 O   0  0  0  0  0  0  0  0  0  0  0  0
  146.5846  134.3495  162.3567 C   0  0  1  0  0  0  0  0  0  0  0  0
  145.1917  133.7426  162.5971 C   0  0  0  0  0  0  0  0  0  0  0  0
  150.2627  141.3178  157.7605 C   0  0  0  0  0  0  0  0  0  0  0  0
  150.2838  146.8921  160.1859 H   0  0  0  0  0  0  0  0  0  0  0  0
  151.0812  145.4374  160.7713 H   0  0  0  0  0  0  0  0  0  0  0  0
  149.4369  145.3516  160.1339 H   0  0  0  0  0  0  0  0  0  0  0  0
  150.2920  146.0067  157.8532 H   0  0  0  0  0  0  0  0  0  0  0  0
  151.9215  146.1034  158.4848 H   0  0  0  0  0  0  0  0  0  0  0  0
  150.0532  144.3254  156.6006 H   0  0  0  0  0  0  0  0  0  0  0  0
  151.6679  142.0686  156.3253 H   0  0  0  0  0  0  0  0  0  0  0  0
  148.6946  142.4310  155.6900 H   0  0  0  0  0  0  0  0  0  0  0  0
  150.0222  142.7607  154.5990 H   0  0  0  0  0  0  0  0  0  0  0  0
  148.9772  140.5255  154.1491 H   0  0  0  0  0  0  0  0  0  0  0  0
  150.6679  140.3844  154.5707 H   0  0  0  0  0  0  0  0  0  0  0  0
  148.2952  139.8892  156.4395 H   0  0  0  0  0  0  0  0  0  0  0  0
  149.3971  138.6819  155.7953 H   0  0  0  0  0  0  0  0  0  0  0  0
  152.2519  137.9860  160.6487 H   0  0  0  0  0  0  0  0  0  0  0  0
  146.4973  136.4121  158.2260 H   0  0  0  0  0  0  0  0  0  0  0  0
  147.8031  134.3142  159.7434 H   0  0  0  0  0  0  0  0  0  0  0  0
  148.8042  135.0127  160.9834 H   0  0  0  0  0  0  0  0  0  0  0  0
  145.1947  134.5605  160.3380 H   0  0  0  0  0  0  0  0  0  0  0  0
  147.1426  137.5701  161.5425 H   0  0  0  0  0  0  0  0  0  0  0  0
  145.6883  137.0034  162.3462 H   0  0  0  0  0  0  0  0  0  0  0  0
  148.5378  136.2441  163.0986 H   0  0  0  0  0  0  0  0  0  0  0  0
  147.3079  136.9735  164.1387 H   0  0  0  0  0  0  0  0  0  0  0  0
  147.2878  133.5386  162.1612 H   0  0  0  0  0  0  0  0  0  0  0  0
  144.8421  133.1903  161.7244 H   0  0  0  0  0  0  0  0  0  0  0  0
  144.4562  134.5138  162.8281 H   0  0  0  0  0  0  0  0  0  0  0  0
  145.2142  133.0466  163.4358 H   0  0  0  0  0  0  0  0  0  0  0  0
  150.9679  141.4227  158.5847 H   0  0  0  0  0  0  0  0  0  0  0  0
  149.2794  141.5725  158.1590 H   0  0  0  0  0  0  0  0  0  0  0  0
  1  2  1  0  0  0  0
  1 29  1  0  0  0  0
  1 30  1  0  0  0  0
  1 31  1  0  0  0  0
  2  3  1  0  0  0  0
  2 32  1  0  0  0  0
  2 33  1  0  0  0  0
  3  4  2  0  0  0  0
  3  5  1  0  0  0  0
  5  6  1  0  0  0  0
  5 34  1  0  0  0  0
  6 28  1  0  0  0  0
  6  7  1  0  0  0  0
  6 35  1  0  0  0  0
  7  8  1  0  0  0  0
  7 36  1  0  0  0  0
  7 37  1  0  0  0  0
  8  9  1  0  0  0  0
  8 38  1  0  0  0  0
  8 39  1  0  0  0  0
  9 10  1  0  0  0  0
  9 40  1  0  0  0  0
  9 41  1  0  0  0  0
 10 11  1  0  0  0  0
 10 28  1  0  0  0  0
 11 16  1  0  0  0  0
 11 12  2  0  0  0  0
 12 13  1  0  0  0  0
 13 14  2  0  0  0  0
 13 42  1  0  0  0  0
 14 15  1  0  0  0  0
 15 19  1  0  0  0  0
 15 16  2  0  0  0  0
 16 17  1  0  0  0  0
 17 18  2  0  0  0  0
 18 19  1  0  0  0  0
 18 43  1  0  0  0  0
 19 20  1  0  0  0  0
 20 21  1  0  0  0  0
 20 44  1  0  0  0  0
 20 45  1  0  0  0  0
 21 26  1  0  0  0  0
 21 22  1  0  0  0  0
 21 23  1  0  0  0  0
 22 46  1  0  0  0  0
 23 24  1  0  0  0  0
 23 47  1  0  0  0  0
 23 48  1  0  0  0  0
 24 25  1  0  0  0  0
 24 49  1  0  0  0  0
 24 50  1  0  0  0  0
 25 26  1  0  0  0  0
 26 27  1  0  0  0  0
 26 51  1  0  0  0  0
 27 52  1  0  0  0  0
 27 53  1  0  0  0  0
 27 54  1  0  0  0  0
 28 55  1  0  0  0  0
 28 56  1  0  0  0  0
M  END
> <s_m_source_file>
AV-unprocessed.smi

> <i_m_source_file_index>
252

> <i_lp_mmshare_version>
43012

> <i_f3d_flags>
0

> <s_epik_input>
W0NIM11bQ0gyXUMoPU8pW05IXVtDQEBIXTFbQ0gyXVtDSDJdW0NIMl1OKFtDSDJdMSljKG5bY0hdbjIpYyhjMjMpbltjSF1uM1tDSDJdW0NAQF00KFtPSF0pW0NIMl1bQ0gyXU9bQ0BIXTRbQ0gzXQ==

> <s_epik_cmdline>
J2VwaWtfcHl0aG9uJywgJy1waCcsICc3LjAnLCAnLXRuJywgJzgnLCAnLW1hJywgJzIwMCcsICctbWV0YWxfYmluZGluZycsICctaW1hZScsICc8aW5maWxlLm1hZT4nLCAnLW9tYWUnLCAnPG91dGZpbGUubWFlPic=

> <r_lp_tautomer_probability>
1

> <r_epik_Ionization_Penalty>
0.00182575

> <r_epik_Ionization_Penalty_Charging>
0

> <r_epik_Ionization_Penalty_Neutral>
0.00182575

> <r_epik_State_Penalty>
0.00104524

> <r_epik_Charging_Adjusted_Penalty>
0.00104524

> <i_epik_Tot_Q>
0

> <i_epik_Tot_abs_Q>
0

> <r_epik_Metal_State_Penalty>
-0

> <b_epik_Metal_Only>
0

> <s_lp_Force_Field>
OPLS_2005

> <r_lp_Energy>
36.3421

> <b_lp_Chiralities_Consistent>
1

> <s_lp_Variant>
AV-unprocessed.smi:252-3

> <Gold.Version>
5.8.1

> <Gold.Id.Protein>
6NUR|6NUR_protein|mol2

> <Gold.PLP.Fitness>
52.8394

> <Gold.PLP.PLP>
-47.6968

> <Gold.PLP.part.hbond>
-2.9957

> <Gold.PLP.part.metal>
0.0000

> <Gold.PLP.part.buried>
-5.3926

> <Gold.PLP.part.nonpolar>
-40.9297

> <Gold.PLP.part.repulsive>
0.0197

> <Gold.PLP.ligand.clash>
0.0000

> <Gold.PLP.ligand.torsion>
0.4701

> <Gold.PLP.Chemscore.Hbond>
1.8880

> <Gold.PLP.Chemscore.CHOScore>
0.0000

> <Gold.PLP.Chemscore.Metal>
0.0000

> <Gold.Chemscore.Hbonds>
donor molecule, donor type, donor heavy atom, donor atom, acceptor molecule, acceptor atom, score
      L1  H     5    34       P1  8028  0.99
      P1  H  6896  6909       L1    14  0.23

> <Gold.PLP.Chemscore.Internal.Correction>
0.4189

> <Gold.Rescore>
     Score         DG    S(hbond)    S(metal)    S(lipo)     H(rot)  DE(clash)    DE(int)     intcor
     11.61     -13.44       1.12        0.00      95.36       2.70       0.85       0.98       ----

> <Gold.Chemscore.Fitness>
11.6079

> <Gold.Chemscore.DG>
-13.4428

> <Gold.Chemscore.ZeroCoef>
-5.4800

> <Gold.Chemscore.Hbond>
1.1164

> <Gold.Chemscore.Metal>
0.0000

> <Gold.Chemscore.Lipo>
95.3554

> <Gold.Chemscore.Internal_Hbond>
0.0000

> <Gold.Chemscore.DEClash>
0.8538

> <Gold.Chemscore.DEInternal>
0.9811

> <Gold.Chemscore.Rot>
2.7041

> <Gold.Chemscore.Internal.Correction>
   9.000000E+99

> <Gold.Chemscore.Hbonds>
donor molecule, donor type, donor heavy atom, donor atom, acceptor molecule, acceptor atom, score
      L1  H     5    34       P1  8028  0.89
      P1  H  6896  6909       L1    14  0.02

> <Gold.Chemscore.Hbond.Weighted>
-3.7287

> <Gold.Chemscore.Metal.Weighted>
-0.0000

> <Gold.Chemscore.Lipo.Weighted>
-11.1566

> <Gold.Chemscore.Internal_Hbond.Weighted>
0.0000

> <Gold.Chemscore.DEClash.Weighted>
0.8538

> <Gold.Chemscore.DEInternal.Weighted>
0.9811

> <Gold.Chemscore.Rot.Weighted>
6.9225

> <Gold.Chemscore.Internal.Correction.Weighted>
   9.000000E+99

> <Gold.Protein.RotatedTorsions>
[ 6907 6896 6895 6894 ] final   72.26 input  -60.11 | X-H torsion
[ 7974 7965 7964 7962 ] final -110.43 input  175.53 | X-H torsion
[ 8008 7997 7996 7995 ] final -112.81 input   59.86 | X-H torsion
[ 10167 10162 10161 10158 ] final  137.95 input  -65.29 | X-H torsion
[ 10718 10713 10712 10709 ] final   23.10 input   66.30 | X-H torsion
[ 10763 10752 10751 10750 ] final -126.86 input  -60.55 | X-H torsion
[ 11005 11000 10999 10996 ] final  162.16 input  -57.11 | X-H torsion

> <Gold.Protein.ActiveResidues>
 VAL166  LYS551  ARG553  GLY616  TRP617  ASP618  TYR619  PRO620  LYS621  CYS622 
 ASP623  PHE694  ASN695  SER759  ASP760  ASP761  ALA762  ILE779  LEU786  VAL792 
 PHE793  MET794  SER795  GLU796  ALA797  LYS798  CYS799  TRP800  GLU811  SER814 

> <Gold.Protein.RotatedAtoms>
  152.4858  134.4597  159.9600 H   0  0  0  0  0  0  0  0  0  0  0  0  # atno 6907 bound_to 6896
  151.4594  133.3590  159.2815 H   0  0  0  0  0  0  0  0  0  0  0  0  # atno 6908 bound_to 6896
  150.8967  134.8401  159.7392 H   0  0  0  0  0  0  0  0  0  0  0  0  # atno 6909 bound_to 6896
  145.1684  140.8913  143.3550 H   0  0  0  0  0  0  0  0  0  0  0  0  # atno 7974 bound_to 7965
  155.0109  140.0393  157.2399 H   0  0  0  0  0  0  0  0  0  0  0  0  # atno 8008 bound_to 7997
  154.7461  140.2758  155.6309 H   0  0  0  0  0  0  0  0  0  0  0  0  # atno 8009 bound_to 7997
  156.2875  140.2656  156.2202 H   0  0  0  0  0  0  0  0  0  0  0  0  # atno 8010 bound_to 7997
  139.5127  144.6381  151.5642 H   0  0  0  0  0  0  0  0  0  0  0  0  # atno 10167 bound_to 10162
  157.1614  130.6718  149.6045 H   0  0  0  0  0  0  0  0  0  0  0  0  # atno 10718 bound_to 10713
  154.8748  135.3981  154.3500 H   0  0  0  0  0  0  0  0  0  0  0  0  # atno 10763 bound_to 10752
  153.4287  135.7024  153.6250 H   0  0  0  0  0  0  0  0  0  0  0  0  # atno 10764 bound_to 10752
  153.4882  135.3754  155.2447 H   0  0  0  0  0  0  0  0  0  0  0  0  # atno 10765 bound_to 10752
  140.2230  134.8182  157.3240 H   0  0  0  0  0  0  0  0  0  0  0  0  # atno 11005 bound_to 11000
  145.0258  139.3384  143.6049 LP  0  0  0  0  0  0  0  0  0  0  0  0  # atno 17320 bound_to 7965
  146.3472  139.9577  142.8721 LP  0  0  0  0  0  0  0  0  0  0  0  0  # atno 17321 bound_to 7965
  140.6137  143.9388  150.6473 LP  0  0  0  0  0  0  0  0  0  0  0  0  # atno 17342 bound_to 10162
  140.2639  143.3504  152.1298 LP  0  0  0  0  0  0  0  0  0  0  0  0  # atno 17343 bound_to 10162
  155.9753  130.4710  150.6450 LP  0  0  0  0  0  0  0  0  0  0  0  0  # atno 17370 bound_to 10713
  157.4129  131.0826  151.1204 LP  0  0  0  0  0  0  0  0  0  0  0  0  # atno 17371 bound_to 10713
  140.1830  134.4466  155.7761 LP  0  0  0  0  0  0  0  0  0  0  0  0  # atno 17394 bound_to 11000
  141.2222  133.6992  156.7900 LP  0  0  0  0  0  0  0  0  0  0  0  0  # atno 17395 bound_to 11000

$$$$
