AV-unprocessed.smi:35|AV-procd|sdf|264|dock2
  -GOLD-   2262016 33D 1   1.00000     0.00000
 Structure written by MMmdl.
 28 29  0  0  0  0  0  0  0  0  2 V2000
  151.6097  136.9385  159.4361 O   0  0  0  0  0  0  0  0  0  0  0  0
  151.3686  137.6382  158.4538 C   0  0  0  0  0  0  0  0  0  0  0  0
  152.3463  138.1521  157.6525 N   0  5  0  0  0  0  0  0  0  0  0  0
  152.0740  138.9284  156.5623 C   0  0  0  0  0  0  0  0  0  0  0  0
  152.9507  139.4223  155.8530 O   0  0  0  0  0  0  0  0  0  0  0  0
  150.7170  139.1993  156.2336 N   0  0  0  0  0  0  0  0  0  0  0  0
  150.3909  140.0565  155.0283 C   0  0  1  0  0  0  0  0  0  0  0  0
  149.5048  139.3568  154.2050 O   0  0  0  0  0  0  0  0  0  0  0  0
  148.4820  140.2328  153.7414 C   0  0  1  0  0  0  0  0  0  0  0  0
  147.2265  139.4495  153.3186 C   0  0  0  0  0  0  0  0  0  0  0  0
  147.4640  138.7642  152.1072 O   0  0  0  0  0  0  0  0  0  0  0  0
  148.2914  141.2059  154.9126 C   0  0  1  0  0  0  0  0  0  0  0  0
  147.4477  140.6430  155.9039 O   0  0  0  0  0  0  0  0  0  0  0  0
  149.7213  141.3951  155.4058 C   0  0  1  0  0  0  0  0  0  0  0  0
  149.7926  141.7656  156.7728 O   0  0  0  0  0  0  0  0  0  0  0  0
  149.7042  138.7031  157.0361 C   0  0  0  0  0  0  0  0  0  0  0  0
  149.9811  137.9454  158.1161 C   0  0  0  0  0  0  0  0  0  0  0  0
  148.4327  137.3067  159.1750 Br  0  0  0  0  0  0  0  0  0  0  0  0
  151.3251  140.1885  154.4809 H   0  0  0  0  0  0  0  0  0  0  0  0
  148.8740  140.7988  152.8939 H   0  0  0  0  0  0  0  0  0  0  0  0
  146.9143  138.7499  154.0948 H   0  0  0  0  0  0  0  0  0  0  0  0
  146.3971  140.1359  153.1455 H   0  0  0  0  0  0  0  0  0  0  0  0
  148.0357  138.0329  152.2837 H   0  0  0  0  0  0  0  0  0  0  0  0
  147.8513  142.1496  154.5888 H   0  0  0  0  0  0  0  0  0  0  0  0
  147.5016  139.7018  155.8361 H   0  0  0  0  0  0  0  0  0  0  0  0
  150.2046  142.1714  154.8113 H   0  0  0  0  0  0  0  0  0  0  0  0
  148.9936  142.2184  156.9984 H   0  0  0  0  0  0  0  0  0  0  0  0
  148.6737  138.9259  156.8033 H   0  0  0  0  0  0  0  0  0  0  0  0
  1  2  2  0  0  0  0
  2 17  1  0  0  0  0
  2  3  1  0  0  0  0
  3  4  1  0  0  0  0
  4  5  2  0  0  0  0
  4  6  1  0  0  0  0
  6  7  1  0  0  0  0
  6 16  1  0  0  0  0
  7 14  1  0  0  0  0
  7  8  1  0  0  0  0
  7 19  1  0  0  0  0
  8  9  1  0  0  0  0
  9 10  1  0  0  0  0
  9 12  1  0  0  0  0
  9 20  1  0  0  0  0
 10 11  1  0  0  0  0
 10 21  1  0  0  0  0
 10 22  1  0  0  0  0
 11 23  1  0  0  0  0
 12 13  1  0  0  0  0
 12 14  1  0  0  0  0
 12 24  1  0  0  0  0
 13 25  1  0  0  0  0
 14 15  1  0  0  0  0
 14 26  1  0  0  0  0
 15 27  1  0  0  0  0
 16 17  2  0  0  0  0
 16 28  1  0  0  0  0
 17 18  1  0  0  0  0
M  CHG  1   3  -1
M  END
> <s_m_source_file>
AV-unprocessed.smi

> <i_m_source_file_index>
35

> <i_lp_mmshare_version>
43012

> <i_f3d_flags>
0

> <s_epik_input>
Tz1jMVtuSF1jKD1PKW4oW2NIXWMxQnIpW0NAQEhdMk9bQ0BASF0oW0NIMl1bT0hdKVtDQEBIXShbT0hdKVtDQEhdMltPSF0=

> <s_epik_cmdline>
J2VwaWtfcHl0aG9uJywgJy1waCcsICc3LjAnLCAnLXRuJywgJzgnLCAnLW1hJywgJzIwMCcsICctbWV0YWxfYmluZGluZycsICctaW1hZScsICc8aW5maWxlLm1hZT4nLCAnLW9tYWUnLCAnPG91dGZpbGUubWFlPic=

> <r_epik_Ionization_Penalty>
1.06112

> <r_epik_Ionization_Penalty_Charging>
2.1796e-09

> <r_epik_Ionization_Penalty_Neutral>
1.06112

> <r_epik_State_Penalty>
1.11484

> <r_epik_Charging_Adjusted_Penalty>
1.11484

> <i_epik_Tot_Q>
-1

> <i_epik_Tot_abs_Q>
1

> <r_epik_Metal_State_Penalty>
0.0032876

> <b_epik_Metal_Only>
0

> <s_epik_Chemistry_Notes>
This compound contains an acetal/aminal-like group ( X-CH(R)-Y where X, Y are N, S, or O) that may be acid/base labile, releasing an aldehyde.

> <s_lp_Force_Field>
OPLS_2005

> <r_lp_Energy>
48.9456

> <b_lp_Chiralities_Consistent>
1

> <s_lp_Variant>
AV-unprocessed.smi:35-18

> <Gold.Version>
5.8.1

> <Gold.Id.Protein>
6NUR|6NUR_protein|mol2

> <Gold.PLP.Fitness>
32.0828

> <Gold.PLP.PLP>
-23.3120

> <Gold.PLP.part.hbond>
-4.0453

> <Gold.PLP.part.metal>
0.0000

> <Gold.PLP.part.buried>
-1.9164

> <Gold.PLP.part.nonpolar>
-17.9708

> <Gold.PLP.part.repulsive>
0.2092

> <Gold.PLP.ligand.clash>
0.0000

> <Gold.PLP.ligand.torsion>
0.1182

> <Gold.PLP.Chemscore.Hbond>
3.0000

> <Gold.PLP.Chemscore.CHOScore>
0.0000

> <Gold.PLP.Chemscore.Metal>
0.0000

> <Gold.Chemscore.Hbonds>
donor molecule, donor type, donor heavy atom, donor atom, acceptor molecule, acceptor atom, score
      L1  H    11    23       P1  7948  0.98
      P1  H  6896  6909       L1     1  1.00
      P1  H  7997  8010       L1     5  1.00

> <Gold.PLP.Chemscore.Internal.Correction>
0.0072

> <Gold.Rescore>
     Score         DG    S(hbond)    S(metal)    S(lipo)     H(rot)  DE(clash)    DE(int)     intcor
      8.88      -9.83       2.90        0.00      33.61       3.63       0.19       0.76       ----

> <Gold.Chemscore.Fitness>
8.8785

> <Gold.Chemscore.DG>
-9.8253

> <Gold.Chemscore.ZeroCoef>
-5.4800

> <Gold.Chemscore.Hbond>
2.9030

> <Gold.Chemscore.Metal>
0.0000

> <Gold.Chemscore.Lipo>
33.6083

> <Gold.Chemscore.Internal_Hbond>
0.0000

> <Gold.Chemscore.DEClash>
0.1889

> <Gold.Chemscore.DEInternal>
0.7579

> <Gold.Chemscore.Rot>
3.6261

> <Gold.Chemscore.Internal.Correction>
   9.000000E+99

> <Gold.Chemscore.Hbonds>
donor molecule, donor type, donor heavy atom, donor atom, acceptor molecule, acceptor atom, score
      L1  H    11    23       P1  7948  0.90
      P1  H  6896  6909       L1     1  0.99
      P1  H  7997  8010       L1     5  0.99

> <Gold.Chemscore.Hbond.Weighted>
-9.6959

> <Gold.Chemscore.Metal.Weighted>
-0.0000

> <Gold.Chemscore.Lipo.Weighted>
-3.9322

> <Gold.Chemscore.Internal_Hbond.Weighted>
0.0000

> <Gold.Chemscore.DEClash.Weighted>
0.1889

> <Gold.Chemscore.DEInternal.Weighted>
0.7579

> <Gold.Chemscore.Rot.Weighted>
9.2828

> <Gold.Chemscore.Internal.Correction.Weighted>
   9.000000E+99

> <Gold.Protein.RotatedTorsions>
[ 6907 6896 6895 6894 ] final  126.32 input  -60.11 | X-H torsion
[ 7974 7965 7964 7962 ] final -138.70 input  175.53 | X-H torsion
[ 8008 7997 7996 7995 ] final   76.09 input   59.86 | X-H torsion
[ 10167 10162 10161 10158 ] final   22.54 input  -65.29 | X-H torsion
[ 10718 10713 10712 10709 ] final -154.14 input   66.30 | X-H torsion
[ 10763 10752 10751 10750 ] final  174.63 input  -60.55 | X-H torsion
[ 11005 11000 10999 10996 ] final  -75.09 input  -57.11 | X-H torsion

> <Gold.Protein.ActiveResidues>
 VAL166  LYS551  ARG553  GLY616  TRP617  ASP618  TYR619  PRO620  LYS621  CYS622 
 ASP623  PHE694  ASN695  SER759  ASP760  ASP761  ALA762  ILE779  LEU786  VAL792 
 PHE793  MET794  SER795  GLU796  ALA797  LYS798  CYS799  TRP800  GLU811  SER814 

> <Gold.Protein.RotatedAtoms>
  152.3914  133.6684  159.6240 H   0  0  0  0  0  0  0  0  0  0  0  0  # atno 6907 bound_to 6896
  150.7821  133.8948  159.3333 H   0  0  0  0  0  0  0  0  0  0  0  0  # atno 6908 bound_to 6896
  151.6734  135.0974  160.0253 H   0  0  0  0  0  0  0  0  0  0  0  0  # atno 6909 bound_to 6896
  144.8736  140.6404  143.5251 H   0  0  0  0  0  0  0  0  0  0  0  0  # atno 7974 bound_to 7965
  155.8224  140.3469  155.5522 H   0  0  0  0  0  0  0  0  0  0  0  0  # atno 8008 bound_to 7997
  155.8328  140.0929  157.1802 H   0  0  0  0  0  0  0  0  0  0  0  0  # atno 8009 bound_to 7997
  154.4004  140.1409  156.3622 H   0  0  0  0  0  0  0  0  0  0  0  0  # atno 8010 bound_to 7997
  140.5340  143.9792  150.6481 H   0  0  0  0  0  0  0  0  0  0  0  0  # atno 10167 bound_to 10162
  156.4953  130.8366  151.2587 H   0  0  0  0  0  0  0  0  0  0  0  0  # atno 10718 bound_to 10713
  154.4566  135.2766  155.1743 H   0  0  0  0  0  0  0  0  0  0  0  0  # atno 10763 bound_to 10752
  154.3548  135.6142  153.5664 H   0  0  0  0  0  0  0  0  0  0  0  0  # atno 10764 bound_to 10752
  152.9851  135.5820  154.4920 H   0  0  0  0  0  0  0  0  0  0  0  0  # atno 10765 bound_to 10752
  141.1642  133.6934  156.7463 H   0  0  0  0  0  0  0  0  0  0  0  0  # atno 11005 bound_to 11000
  145.4083  139.1584  143.4139 LP  0  0  0  0  0  0  0  0  0  0  0  0  # atno 17320 bound_to 7965
  146.2947  140.4186  142.8726 LP  0  0  0  0  0  0  0  0  0  0  0  0  # atno 17321 bound_to 7965
  140.3175  143.3158  152.0817 LP  0  0  0  0  0  0  0  0  0  0  0  0  # atno 17342 bound_to 10162
  139.4964  144.6596  151.6495 LP  0  0  0  0  0  0  0  0  0  0  0  0  # atno 17343 bound_to 10162
  157.7469  131.0000  150.2909 LP  0  0  0  0  0  0  0  0  0  0  0  0  # atno 17370 bound_to 10713
  156.3386  130.3811  149.7429 LP  0  0  0  0  0  0  0  0  0  0  0  0  # atno 17371 bound_to 10713
  140.2637  134.8447  157.3782 LP  0  0  0  0  0  0  0  0  0  0  0  0  # atno 17394 bound_to 11000
  140.1587  134.4756  155.7910 LP  0  0  0  0  0  0  0  0  0  0  0  0  # atno 17395 bound_to 11000

$$$$
