AV-unprocessed.smi:1434|AV-procd|sdf|5849|dock2
  -GOLD-   22720 5513D 1   1.00000     0.00000
 Structure written by MMmdl.
 44 45  0  0  0  0  0  0  0  0  1 V2000
  145.3520  136.9027  152.3411 C   0  0  0  0  0  0  0  0  0  0  0  0
  146.2792  136.8960  153.9278 S   0  0  0  0  0  0  0  0  0  0  0  0
  145.4778  137.6019  154.9392 O   0  0  0  0  0  0  0  0  0  0  0  0
  146.7686  135.5347  154.1919 O   0  0  0  0  0  0  0  0  0  0  0  0
  147.6508  137.8762  153.5621 N   0  0  0  0  0  0  0  0  0  0  0  0
  147.8625  139.1010  154.3355 C   0  0  2  0  0  0  0  0  0  0  0  0
  146.6749  140.0691  154.1443 C   0  0  0  0  0  0  0  0  0  0  0  0
  146.9528  141.4454  154.7778 C   0  0  0  0  0  0  0  0  0  0  0  0
  148.3190  141.9920  154.3279 C   0  0  0  0  0  0  0  0  0  0  0  0
  149.3585  141.0065  154.6726 N   0  0  0  0  0  0  0  0  0  0  0  0
  150.2883  141.1243  155.6542 C   0  0  0  0  0  0  0  0  0  0  0  0
  150.9949  140.1874  156.0280 O   0  0  0  0  0  0  0  0  0  0  0  0
  150.3809  142.3519  156.1948 N   0  0  0  0  0  0  0  0  0  0  0  0
  151.3239  142.7649  157.2314 C   0  0  0  0  0  0  0  0  0  0  0  0
  151.5173  141.6767  158.3041 C   0  0  0  0  0  0  0  0  0  0  0  0
  152.0392  142.2119  159.6266 C   0  0  0  0  0  0  0  0  0  0  0  0
  153.0693  141.5410  160.3207 C   0  0  0  0  0  0  0  0  0  0  0  0
  153.4976  142.0654  161.5553 C   0  0  0  0  0  0  0  0  0  0  0  0
  152.8852  143.2352  162.0441 C   0  0  0  0  0  0  0  0  0  0  0  0
  151.8673  143.8314  161.2733 C   0  0  0  0  0  0  0  0  0  0  0  0
  151.4486  143.3367  160.0887 N   0  0  0  0  0  0  0  0  0  0  0  0
  149.1863  139.7651  153.9072 C   0  0  0  0  0  0  0  0  0  0  0  0
  144.4450  136.3082  152.4498 H   0  0  0  0  0  0  0  0  0  0  0  0
  145.9720  136.4755  151.5532 H   0  0  0  0  0  0  0  0  0  0  0  0
  145.0846  137.9265  152.0798 H   0  0  0  0  0  0  0  0  0  0  0  0
  148.5018  137.3155  153.5281 H   0  0  0  0  0  0  0  0  0  0  0  0
  147.9403  138.8350  155.3913 H   0  0  0  0  0  0  0  0  0  0  0  0
  146.4883  140.2055  153.0781 H   0  0  0  0  0  0  0  0  0  0  0  0
  145.7622  139.6462  154.5642 H   0  0  0  0  0  0  0  0  0  0  0  0
  146.1606  142.1452  154.5103 H   0  0  0  0  0  0  0  0  0  0  0  0
  146.9358  141.3576  155.8648 H   0  0  0  0  0  0  0  0  0  0  0  0
  148.3189  142.1461  153.2478 H   0  0  0  0  0  0  0  0  0  0  0  0
  148.4843  142.9807  154.7558 H   0  0  0  0  0  0  0  0  0  0  0  0
  149.7578  143.0636  155.8426 H   0  0  0  0  0  0  0  0  0  0  0  0
  152.2796  142.9756  156.7517 H   0  0  0  0  0  0  0  0  0  0  0  0
  151.0080  143.6990  157.6983 H   0  0  0  0  0  0  0  0  0  0  0  0
  150.5725  141.1595  158.4769 H   0  0  0  0  0  0  0  0  0  0  0  0
  152.2100  140.9198  157.9338 H   0  0  0  0  0  0  0  0  0  0  0  0
  153.5138  140.6406  159.9229 H   0  0  0  0  0  0  0  0  0  0  0  0
  154.2802  141.5778  162.1177 H   0  0  0  0  0  0  0  0  0  0  0  0
  153.1874  143.6657  162.9873 H   0  0  0  0  0  0  0  0  0  0  0  0
  151.3767  144.7299  161.6169 H   0  0  0  0  0  0  0  0  0  0  0  0
  150.0153  139.0686  154.0425 H   0  0  0  0  0  0  0  0  0  0  0  0
  149.1682  139.9989  152.8415 H   0  0  0  0  0  0  0  0  0  0  0  0
  1  2  1  0  0  0  0
  1 23  1  0  0  0  0
  1 24  1  0  0  0  0
  1 25  1  0  0  0  0
  2  3  2  0  0  0  0
  2  4  2  0  0  0  0
  2  5  1  0  0  0  0
  5  6  1  0  0  0  0
  5 26  1  0  0  0  0
  6 22  1  0  0  0  0
  6  7  1  0  0  0  0
  6 27  1  0  0  0  0
  7  8  1  0  0  0  0
  7 28  1  0  0  0  0
  7 29  1  0  0  0  0
  8  9  1  0  0  0  0
  8 30  1  0  0  0  0
  8 31  1  0  0  0  0
  9 10  1  0  0  0  0
  9 32  1  0  0  0  0
  9 33  1  0  0  0  0
 10 11  1  0  0  0  0
 10 22  1  0  0  0  0
 11 12  2  0  0  0  0
 11 13  1  0  0  0  0
 13 14  1  0  0  0  0
 13 34  1  0  0  0  0
 14 15  1  0  0  0  0
 14 35  1  0  0  0  0
 14 36  1  0  0  0  0
 15 16  1  0  0  0  0
 15 37  1  0  0  0  0
 15 38  1  0  0  0  0
 16 21  1  0  0  0  0
 16 17  2  0  0  0  0
 17 18  1  0  0  0  0
 17 39  1  0  0  0  0
 18 19  2  0  0  0  0
 18 40  1  0  0  0  0
 19 20  1  0  0  0  0
 19 41  1  0  0  0  0
 20 21  2  0  0  0  0
 20 42  1  0  0  0  0
 22 43  1  0  0  0  0
 22 44  1  0  0  0  0
M  END
> <s_m_source_file>
AV-unprocessed.smi

> <i_m_source_file_index>
1434

> <i_lp_mmshare_version>
43012

> <i_f3d_flags>
0

> <s_epik_input>
W0NIM11TKD1PKSg9TylbTkhdW0NAQEhdMVtDSDJdW0NIMl1bQ0gyXU4oW0NIMl0xKUMoPU8pW05IXVtDSDJdW0NIMl1jMltjSF1bY0hdW2NIXVtjSF1uMg==

> <s_epik_cmdline>
J2VwaWtfcHl0aG9uJywgJy1waCcsICc3LjAnLCAnLXRuJywgJzgnLCAnLW1hJywgJzIwMCcsICctbWV0YWxfYmluZGluZycsICctaW1hZScsICc8aW5maWxlLm1hZT4nLCAnLW9tYWUnLCAnPG91dGZpbGUubWFlPic=

> <r_epik_Ionization_Penalty>
0.0449488

> <r_epik_Ionization_Penalty_Charging>
0

> <r_epik_Ionization_Penalty_Neutral>
0.0449488

> <r_epik_State_Penalty>
0.0380669

> <r_epik_Charging_Adjusted_Penalty>
0.0380669

> <i_epik_Tot_Q>
0

> <i_epik_Tot_abs_Q>
0

> <r_epik_Metal_State_Penalty>
0.0441384

> <b_epik_Metal_Only>
0

> <s_lp_Force_Field>
OPLS_2005

> <r_lp_Energy>
23.2159

> <b_lp_Chiralities_Consistent>
1

> <s_lp_Variant>
AV-unprocessed.smi:1434-1

> <Gold.Version>
5.8.1

> <Gold.Id.Protein>
6NUR|6NUR_protein|mol2

> <Gold.PLP.Fitness>
44.3343

> <Gold.PLP.PLP>
-40.9598

> <Gold.PLP.part.hbond>
-2.1489

> <Gold.PLP.part.metal>
0.0000

> <Gold.PLP.part.buried>
-1.6202

> <Gold.PLP.part.nonpolar>
-36.7653

> <Gold.PLP.part.repulsive>
0.2943

> <Gold.PLP.ligand.clash>
0.0000

> <Gold.PLP.ligand.torsion>
0.5165

> <Gold.PLP.Chemscore.Hbond>
1.4160

> <Gold.PLP.Chemscore.CHOScore>
0.0000

> <Gold.PLP.Chemscore.Metal>
0.0000

> <Gold.Chemscore.Hbonds>
donor molecule, donor type, donor heavy atom, donor atom, acceptor molecule, acceptor atom, score
      L1  H     5    26       P1  7948  0.42
      L1  H    13    34       P1  8028  1.00

> <Gold.PLP.Chemscore.Internal.Correction>
0.1594

> <Gold.Rescore>
     Score         DG    S(hbond)    S(metal)    S(lipo)     H(rot)  DE(clash)    DE(int)     intcor
     14.10     -17.77       1.57        0.00     104.62       2.03       1.47       2.20       ----

> <Gold.Chemscore.Fitness>
14.1040

> <Gold.Chemscore.DG>
-17.7734

> <Gold.Chemscore.ZeroCoef>
-5.4800

> <Gold.Chemscore.Hbond>
1.5749

> <Gold.Chemscore.Metal>
0.0000

> <Gold.Chemscore.Lipo>
104.6171

> <Gold.Chemscore.Internal_Hbond>
0.0000

> <Gold.Chemscore.DEClash>
1.4697

> <Gold.Chemscore.DEInternal>
2.1997

> <Gold.Chemscore.Rot>
2.0340

> <Gold.Chemscore.Internal.Correction>
   9.000000E+99

> <Gold.Chemscore.Hbonds>
donor molecule, donor type, donor heavy atom, donor atom, acceptor molecule, acceptor atom, score
      L1  H     5    26       P1  7948  0.39
      L1  H    13    34       P1  8028  0.99

> <Gold.Chemscore.Hbond.Weighted>
-5.2602

> <Gold.Chemscore.Metal.Weighted>
-0.0000

> <Gold.Chemscore.Lipo.Weighted>
-12.2402

> <Gold.Chemscore.Internal_Hbond.Weighted>
0.0000

> <Gold.Chemscore.DEClash.Weighted>
1.4697

> <Gold.Chemscore.DEInternal.Weighted>
2.1997

> <Gold.Chemscore.Rot.Weighted>
5.2071

> <Gold.Chemscore.Internal.Correction.Weighted>
   9.000000E+99

> <Gold.Protein.RotatedTorsions>
[ 6907 6896 6895 6894 ] final -151.02 input  -60.11 | X-H torsion
[ 7974 7965 7964 7962 ] final   84.63 input  175.53 | X-H torsion
[ 8008 7997 7996 7995 ] final   70.61 input   59.86 | X-H torsion
[ 10167 10162 10161 10158 ] final -126.99 input  -65.29 | X-H torsion
[ 10718 10713 10712 10709 ] final  -56.21 input   66.30 | X-H torsion
[ 10763 10752 10751 10750 ] final   18.01 input  -60.55 | X-H torsion
[ 11005 11000 10999 10996 ] final  169.16 input  -57.11 | X-H torsion

> <Gold.Protein.ActiveResidues>
 VAL166  LYS551  ARG553  GLY616  TRP617  ASP618  TYR619  PRO620  LYS621  CYS622 
 ASP623  PHE694  ASN695  SER759  ASP760  ASP761  ALA762  ILE779  LEU786  VAL792 
 PHE793  MET794  SER795  GLU796  ALA797  LYS798  CYS799  TRP800  GLU811  SER814 

> <Gold.Protein.RotatedAtoms>
  151.2070  133.4578  159.2597 H   0  0  0  0  0  0  0  0  0  0  0  0  # atno 6907 bound_to 6896
  151.1013  134.9974  159.8460 H   0  0  0  0  0  0  0  0  0  0  0  0  # atno 6908 bound_to 6896
  152.5443  134.1996  159.8760 H   0  0  0  0  0  0  0  0  0  0  0  0  # atno 6909 bound_to 6896
  145.5962  139.2345  143.2271 H   0  0  0  0  0  0  0  0  0  0  0  0  # atno 7974 bound_to 7965
  155.7414  140.3490  155.5106 H   0  0  0  0  0  0  0  0  0  0  0  0  # atno 8008 bound_to 7997
  155.9090  140.1047  157.1314 H   0  0  0  0  0  0  0  0  0  0  0  0  # atno 8009 bound_to 7997
  154.4053  140.1271  156.4520 H   0  0  0  0  0  0  0  0  0  0  0  0  # atno 8010 bound_to 7997
  139.9656  143.5902  152.2430 H   0  0  0  0  0  0  0  0  0  0  0  0  # atno 10167 bound_to 10162
  156.1307  130.4159  150.0274 H   0  0  0  0  0  0  0  0  0  0  0  0  # atno 10718 bound_to 10713
  153.1287  135.6735  153.9213 H   0  0  0  0  0  0  0  0  0  0  0  0  # atno 10763 bound_to 10752
  153.8706  135.3070  155.3443 H   0  0  0  0  0  0  0  0  0  0  0  0  # atno 10764 bound_to 10752
  154.7688  135.4950  153.9689 H   0  0  0  0  0  0  0  0  0  0  0  0  # atno 10765 bound_to 10752
  140.2948  134.7644  157.3868 H   0  0  0  0  0  0  0  0  0  0  0  0  # atno 11005 bound_to 11000
  146.1610  140.6788  142.9277 LP  0  0  0  0  0  0  0  0  0  0  0  0  # atno 17320 bound_to 7965
  144.7329  140.4725  143.6924 LP  0  0  0  0  0  0  0  0  0  0  0  0  # atno 17321 bound_to 7965
  139.6520  144.7661  151.2128 LP  0  0  0  0  0  0  0  0  0  0  0  0  # atno 17342 bound_to 10162
  140.7539  143.6145  150.8573 LP  0  0  0  0  0  0  0  0  0  0  0  0  # atno 17343 bound_to 10162
  156.8188  130.9351  151.3642 LP  0  0  0  0  0  0  0  0  0  0  0  0  # atno 17370 bound_to 10713
  157.6485  130.8864  149.9585 LP  0  0  0  0  0  0  0  0  0  0  0  0  # atno 17371 bound_to 10713
  140.1163  134.5279  155.8222 LP  0  0  0  0  0  0  0  0  0  0  0  0  # atno 17394 bound_to 11000
  141.2139  133.6741  156.6782 LP  0  0  0  0  0  0  0  0  0  0  0  0  # atno 17395 bound_to 11000

$$$$
