AV-unprocessed.smi:3032|AV-procd|sdf|11571|dock4
  -GOLD-   2272016533D 1   1.00000     0.00000
 Structure written by MMmdl.
 36 37  0  0  0  0  0  0  0  0  2 V2000
  152.9215  143.3723  162.2627 C   0  0  0  0  0  0  0  0  0  0  0  0
  152.8025  143.2343  160.7380 C   0  0  2  0  0  0  0  0  0  0  0  0
  151.7231  144.1758  160.1697 C   0  0  0  0  0  0  0  0  0  0  0  0
  151.5971  144.0334  158.6447 C   0  0  0  0  0  0  0  0  0  0  0  0
  151.3155  142.5772  158.2433 C   0  0  0  0  0  0  0  0  0  0  0  0
  152.3987  141.6267  158.7935 C   0  0  2  0  0  0  0  0  0  0  0  0
  152.0971  140.1734  158.4040 C   0  0  0  0  0  0  0  0  0  0  0  0
  152.8689  139.5531  157.6712 O   0  0  0  0  0  0  0  0  0  0  0  0
  150.9725  139.6413  158.9051 N   0  0  0  0  0  0  0  0  0  0  0  0
  150.5371  138.2626  158.7070 C   0  0  0  0  0  0  0  0  0  0  0  0
  149.0052  138.1386  158.6120 C   0  0  0  0  0  0  0  0  0  0  0  0
  148.4303  137.0949  159.5493 C   0  0  0  0  0  0  0  0  0  0  0  0
  147.6816  137.3508  160.6419 N   0  5  0  0  0  0  0  0  0  0  0  0
  147.3733  136.2248  161.2551 N   0  0  0  0  0  0  0  0  0  0  0  0
  147.9596  135.2775  160.5138 C   0  0  0  0  0  0  0  0  0  0  0  0
  148.6197  135.7799  159.4652 N   0  0  0  0  0  0  0  0  0  0  0  0
  152.5168  141.7764  160.3259 C   0  0  0  0  0  0  0  0  0  0  0  0
  151.9940  143.0866  162.7602 H   0  0  0  0  0  0  0  0  0  0  0  0
  153.1502  144.3995  162.5478 H   0  0  0  0  0  0  0  0  0  0  0  0
  153.7177  142.7375  162.6532 H   0  0  0  0  0  0  0  0  0  0  0  0
  153.7618  143.5237  160.3064 H   0  0  0  0  0  0  0  0  0  0  0  0
  150.7607  143.9575  160.6350 H   0  0  0  0  0  0  0  0  0  0  0  0
  151.9593  145.2103  160.4207 H   0  0  0  0  0  0  0  0  0  0  0  0
  150.8009  144.6804  158.2756 H   0  0  0  0  0  0  0  0  0  0  0  0
  152.5174  144.3727  158.1676 H   0  0  0  0  0  0  0  0  0  0  0  0
  150.3325  142.2856  158.6171 H   0  0  0  0  0  0  0  0  0  0  0  0
  151.2669  142.5017  157.1559 H   0  0  0  0  0  0  0  0  0  0  0  0
  153.3555  141.9093  158.3498 H   0  0  0  0  0  0  0  0  0  0  0  0
  150.4035  140.2149  159.5108 H   0  0  0  0  0  0  0  0  0  0  0  0
  150.9883  137.9019  157.7823 H   0  0  0  0  0  0  0  0  0  0  0  0
  150.9203  137.6254  159.5054 H   0  0  0  0  0  0  0  0  0  0  0  0
  148.5430  139.1002  158.8363 H   0  0  0  0  0  0  0  0  0  0  0  0
  148.7129  137.8877  157.5918 H   0  0  0  0  0  0  0  0  0  0  0  0
  147.9073  134.2200  160.7410 H   0  0  0  0  0  0  0  0  0  0  0  0
  153.3124  141.1292  160.6983 H   0  0  0  0  0  0  0  0  0  0  0  0
  151.5968  141.4392  160.8069 H   0  0  0  0  0  0  0  0  0  0  0  0
  1  2  1  0  0  0  0
  1 18  1  0  0  0  0
  1 19  1  0  0  0  0
  1 20  1  0  0  0  0
  2 17  1  0  0  0  0
  2  3  1  0  0  0  0
  2 21  1  0  0  0  0
  3  4  1  0  0  0  0
  3 22  1  0  0  0  0
  3 23  1  0  0  0  0
  4  5  1  0  0  0  0
  4 24  1  0  0  0  0
  4 25  1  0  0  0  0
  5  6  1  0  0  0  0
  5 26  1  0  0  0  0
  5 27  1  0  0  0  0
  6  7  1  0  0  0  0
  6 17  1  0  0  0  0
  6 28  1  0  0  0  0
  7  8  2  0  0  0  0
  7  9  1  0  0  0  0
  9 10  1  0  0  0  0
  9 29  1  0  0  0  0
 10 11  1  0  0  0  0
 10 30  1  0  0  0  0
 10 31  1  0  0  0  0
 11 32  1  0  0  0  0
 11 33  1  0  0  0  0
 11 12  1  0  0  0  0
 12 16  2  0  0  0  0
 12 13  1  0  0  0  0
 13 14  1  0  0  0  0
 14 15  2  0  0  0  0
 15 16  1  0  0  0  0
 15 34  1  0  0  0  0
 17 35  1  0  0  0  0
 17 36  1  0  0  0  0
M  CHG  1  13  -1
M  END
> <s_m_source_file>
AV-unprocessed.smi

> <i_m_source_file_index>
3032

> <i_lp_mmshare_version>
43012

> <i_f3d_flags>
0

> <s_epik_input>
W0NIM11bQ0BASF0xW0NIMl1bQ0gyXVtDSDJdW0NASF0oW0NIMl0xKUMoPU8pW05IXVtDSDJdW0NIMl1jMm5uW2NIXVtuSF0y

> <s_epik_cmdline>
J2VwaWtfcHl0aG9uJywgJy1waCcsICc3LjAnLCAnLXRuJywgJzgnLCAnLW1hJywgJzIwMCcsICctbWV0YWxfYmluZGluZycsICctaW1hZScsICc8aW5maWxlLm1hZT4nLCAnLW9tYWUnLCAnPG91dGZpbGUubWFlPic=

> <r_lp_tautomer_probability>
0.948284

> <r_epik_Ionization_Penalty>
12.042

> <r_epik_Ionization_Penalty_Charging>
12.042

> <r_epik_Ionization_Penalty_Neutral>
4.36781e-08

> <r_epik_State_Penalty>
4.67286

> <r_epik_Charging_Adjusted_Penalty>
16.7149

> <i_epik_Tot_Q>
-1

> <i_epik_Tot_abs_Q>
1

> <r_epik_Metal_State_Penalty>
0.981637

> <b_epik_Metal_Only>
1

> <s_lp_Force_Field>
OPLS_2005

> <r_lp_Energy>
10.3443

> <b_lp_Chiralities_Consistent>
1

> <s_lp_Variant>
AV-unprocessed.smi:3032-15

> <Gold.Version>
5.8.1

> <Gold.Id.Protein>
6NUR|6NUR_protein|mol2

> <Gold.PLP.Fitness>
48.7015

> <Gold.PLP.PLP>
-34.2612

> <Gold.PLP.part.hbond>
-4.0000

> <Gold.PLP.part.metal>
0.0000

> <Gold.PLP.part.buried>
-5.6238

> <Gold.PLP.part.nonpolar>
-25.3514

> <Gold.PLP.part.repulsive>
0.1798

> <Gold.PLP.ligand.clash>
0.0000

> <Gold.PLP.ligand.torsion>
0.6181

> <Gold.PLP.Chemscore.Hbond>
5.2183

> <Gold.PLP.Chemscore.CHOScore>
0.0000

> <Gold.PLP.Chemscore.Metal>
0.0000

> <Gold.Chemscore.Hbonds>
donor molecule, donor type, donor heavy atom, donor atom, acceptor molecule, acceptor atom, score
      P1  H  6896  6908       L1    16  0.16
      P1  H  6931  6943       L1    13  1.36
      P1  H  6934  6947       L1    13  1.82
      P1  H  7997  8008       L1     8  1.00

> <Gold.PLP.Chemscore.Internal.Correction>
0.0217

> <Gold.Rescore>
     Score         DG    S(hbond)    S(metal)    S(lipo)     H(rot)  DE(clash)    DE(int)     intcor
     18.65     -19.20       2.83        0.00      84.97       2.21       0.01       0.53       ----

> <Gold.Chemscore.Fitness>
18.6534

> <Gold.Chemscore.DG>
-19.1993

> <Gold.Chemscore.ZeroCoef>
-5.4800

> <Gold.Chemscore.Hbond>
2.8289

> <Gold.Chemscore.Metal>
0.0000

> <Gold.Chemscore.Lipo>
84.9654

> <Gold.Chemscore.Internal_Hbond>
0.0000

> <Gold.Chemscore.DEClash>
0.0144

> <Gold.Chemscore.DEInternal>
0.5314

> <Gold.Chemscore.Rot>
2.2149

> <Gold.Chemscore.Internal.Correction>
   9.000000E+99

> <Gold.Chemscore.Hbonds>
donor molecule, donor type, donor heavy atom, donor atom, acceptor molecule, acceptor atom, score
      P1  H  6896  6908       L1    16  0.06
      P1  H  6931  6943       L1    13  0.11
      P1  H  6934  6947       L1    13  0.83
      P1  H  7997  8008       L1     8  0.97

> <Gold.Chemscore.Hbond.Weighted>
-9.4485

> <Gold.Chemscore.Metal.Weighted>
-0.0000

> <Gold.Chemscore.Lipo.Weighted>
-9.9410

> <Gold.Chemscore.Internal_Hbond.Weighted>
0.0000

> <Gold.Chemscore.DEClash.Weighted>
0.0144

> <Gold.Chemscore.DEInternal.Weighted>
0.5314

> <Gold.Chemscore.Rot.Weighted>
5.6702

> <Gold.Chemscore.Internal.Correction.Weighted>
   9.000000E+99

> <Gold.Protein.RotatedTorsions>
[ 6907 6896 6895 6894 ] final  172.01 input  -60.11 | X-H torsion
[ 7974 7965 7964 7962 ] final  147.98 input  175.53 | X-H torsion
[ 8008 7997 7996 7995 ] final  -89.32 input   59.86 | X-H torsion
[ 10167 10162 10161 10158 ] final   10.19 input  -65.29 | X-H torsion
[ 10718 10713 10712 10709 ] final -145.99 input   66.30 | X-H torsion
[ 10763 10752 10751 10750 ] final  125.98 input  -60.55 | X-H torsion
[ 11005 11000 10999 10996 ] final -123.16 input  -57.11 | X-H torsion

> <Gold.Protein.ActiveResidues>
 VAL166  LYS551  ARG553  GLY616  TRP617  ASP618  TYR619  PRO620  LYS621  CYS622 
 ASP623  PHE694  ASN695  SER759  ASP760  ASP761  ALA762  ILE779  LEU786  VAL792 
 PHE793  MET794  SER795  GLU796  ALA797  LYS798  CYS799  TRP800  GLU811  SER814 

> <Gold.Protein.RotatedAtoms>
  151.7912  133.3359  159.3499 H   0  0  0  0  0  0  0  0  0  0  0  0  # atno 6907 bound_to 6896
  150.7391  134.5841  159.5963 H   0  0  0  0  0  0  0  0  0  0  0  0  # atno 6908 bound_to 6896
  152.3209  134.7383  160.0365 H   0  0  0  0  0  0  0  0  0  0  0  0  # atno 6909 bound_to 6896
  144.8549  139.6097  143.5957 H   0  0  0  0  0  0  0  0  0  0  0  0  # atno 7974 bound_to 7965
  154.6852  140.0543  157.0307 H   0  0  0  0  0  0  0  0  0  0  0  0  # atno 8008 bound_to 7997
  155.0894  140.3218  155.4559 H   0  0  0  0  0  0  0  0  0  0  0  0  # atno 8009 bound_to 7997
  156.2709  140.2050  156.6022 H   0  0  0  0  0  0  0  0  0  0  0  0  # atno 8010 bound_to 7997
  140.6209  143.8206  150.7174 H   0  0  0  0  0  0  0  0  0  0  0  0  # atno 10167 bound_to 10162
  156.3893  130.7877  151.2078 H   0  0  0  0  0  0  0  0  0  0  0  0  # atno 10718 bound_to 10713
  153.6861  135.3306  155.3190 H   0  0  0  0  0  0  0  0  0  0  0  0  # atno 10763 bound_to 10752
  154.8453  135.4420  154.1557 H   0  0  0  0  0  0  0  0  0  0  0  0  # atno 10764 bound_to 10752
  153.2586  135.6989  153.7680 H   0  0  0  0  0  0  0  0  0  0  0  0  # atno 10765 bound_to 10752
  140.9940  134.0498  157.3620 H   0  0  0  0  0  0  0  0  0  0  0  0  # atno 11005 bound_to 11000
  146.2815  139.6889  142.9226 LP  0  0  0  0  0  0  0  0  0  0  0  0  # atno 17320 bound_to 7965
  145.4426  141.0423  143.2849 LP  0  0  0  0  0  0  0  0  0  0  0  0  # atno 17321 bound_to 7965
  140.1796  143.4126  152.1943 LP  0  0  0  0  0  0  0  0  0  0  0  0  # atno 17342 bound_to 10162
  139.5438  144.7280  151.4648 LP  0  0  0  0  0  0  0  0  0  0  0  0  # atno 17343 bound_to 10162
  157.7498  131.0320  150.4208 LP  0  0  0  0  0  0  0  0  0  0  0  0  # atno 17370 bound_to 10713
  156.4467  130.4003  149.6662 LP  0  0  0  0  0  0  0  0  0  0  0  0  # atno 17371 bound_to 10713
  139.9006  135.0163  156.7248 LP  0  0  0  0  0  0  0  0  0  0  0  0  # atno 17394 bound_to 11000
  140.6995  133.9319  155.8015 LP  0  0  0  0  0  0  0  0  0  0  0  0  # atno 17395 bound_to 11000

$$$$
