AV-unprocessed.smi:2845|AV-procd|sdf|10944|dock1
  -GOLD-   2272015393D 1   1.00000     0.00000
 Structure written by MMmdl.
 42 44  0  0  0  0  0  0  0  0  1 V2000
  152.9083  142.7827  161.0981 C   0  0  0  0  0  0  0  0  0  0  0  0
  152.2759  142.4514  159.7580 C   0  0  0  0  0  0  0  0  0  0  0  0
  152.7160  141.3072  159.0538 C   0  0  0  0  0  0  0  0  0  0  0  0
  152.1538  140.9647  157.8043 C   0  0  0  0  0  0  0  0  0  0  0  0
  152.4258  139.9078  156.9512 N   0  0  0  0  0  0  0  0  0  0  0  0
  151.5736  140.1386  155.9558 C   0  0  0  0  0  0  0  0  0  0  0  0
  150.7835  141.2239  156.0635 N   0  0  0  0  0  0  0  0  0  0  0  0
  149.7796  141.6891  155.1271 C   0  0  0  0  0  0  0  0  0  0  0  0
  148.8043  140.5627  154.7228 C   0  0  1  0  0  0  0  0  0  0  0  0
  148.2088  140.0185  155.8830 O   0  0  0  0  0  0  0  0  0  0  0  0
  147.6956  141.0220  153.7538 C   0  0  0  0  0  0  0  0  0  0  0  0
  147.1807  139.9355  152.9373 N   0  0  0  0  0  0  0  0  0  0  0  0
  147.1704  139.7734  151.6108 C   0  0  0  0  0  0  0  0  0  0  0  0
  146.6240  138.6319  151.2106 N   0  0  0  0  0  0  0  0  0  0  0  0
  146.2870  138.1191  152.4295 C   0  0  0  0  0  0  0  0  0  0  0  0
  145.5216  136.4758  152.5951 S   0  0  1  0  0  0  0  0  0  0  0  0
  145.6935  136.0110  150.8075 C   0  0  0  0  0  0  0  0  0  0  0  0
  146.5164  135.6141  153.3759 O   0  0  0  0  0  0  0  0  0  0  0  0
  146.5723  138.8617  153.4958 N   0  0  0  0  0  0  0  0  0  0  0  0
  151.1312  141.8051  157.2768 C   0  0  0  0  0  0  0  0  0  0  0  0
  150.6851  142.9458  157.9666 C   0  0  0  0  0  0  0  0  0  0  0  0
  151.2575  143.2741  159.2125 C   0  0  0  0  0  0  0  0  0  0  0  0
  150.7693  144.5103  159.9467 C   0  0  0  0  0  0  0  0  0  0  0  0
  153.6802  142.0599  161.3640 H   0  0  0  0  0  0  0  0  0  0  0  0
  152.1562  142.7747  161.8874 H   0  0  0  0  0  0  0  0  0  0  0  0
  153.3705  143.7696  161.0694 H   0  0  0  0  0  0  0  0  0  0  0  0
  153.4921  140.6811  159.4690 H   0  0  0  0  0  0  0  0  0  0  0  0
  151.5211  139.4830  155.0989 H   0  0  0  0  0  0  0  0  0  0  0  0
  149.2420  142.5328  155.5624 H   0  0  0  0  0  0  0  0  0  0  0  0
  150.3101  142.0784  154.2581 H   0  0  0  0  0  0  0  0  0  0  0  0
  149.3640  139.7568  154.2457 H   0  0  0  0  0  0  0  0  0  0  0  0
  147.5421  140.6163  156.1856 H   0  0  0  0  0  0  0  0  0  0  0  0
  146.8614  141.4547  154.3076 H   0  0  0  0  0  0  0  0  0  0  0  0
  148.0742  141.8016  153.0909 H   0  0  0  0  0  0  0  0  0  0  0  0
  147.5858  140.4974  150.9250 H   0  0  0  0  0  0  0  0  0  0  0  0
  144.7797  136.2566  150.2667 H   0  0  0  0  0  0  0  0  0  0  0  0
  145.8731  134.9402  150.7145 H   0  0  0  0  0  0  0  0  0  0  0  0
  146.5254  136.5391  150.3411 H   0  0  0  0  0  0  0  0  0  0  0  0
  149.9109  143.5651  157.5384 H   0  0  0  0  0  0  0  0  0  0  0  0
  149.9860  145.0215  159.3866 H   0  0  0  0  0  0  0  0  0  0  0  0
  151.5873  145.2154  160.0945 H   0  0  0  0  0  0  0  0  0  0  0  0
  150.3621  144.2408  160.9213 H   0  0  0  0  0  0  0  0  0  0  0  0
  1  2  1  0  0  0  0
  1 24  1  0  0  0  0
  1 25  1  0  0  0  0
  1 26  1  0  0  0  0
  2 22  1  0  0  0  0
  2  3  2  0  0  0  0
  3  4  1  0  0  0  0
  3 27  1  0  0  0  0
  4 20  2  0  0  0  0
  4  5  1  0  0  0  0
  5  6  2  0  0  0  0
  6  7  1  0  0  0  0
  6 28  1  0  0  0  0
  7  8  1  0  0  0  0
  7 20  1  0  0  0  0
  8  9  1  0  0  0  0
  8 29  1  0  0  0  0
  8 30  1  0  0  0  0
  9 10  1  0  0  0  0
  9 11  1  0  0  0  0
  9 31  1  0  0  0  0
 10 32  1  0  0  0  0
 11 12  1  0  0  0  0
 11 33  1  0  0  0  0
 11 34  1  0  0  0  0
 12 19  1  0  0  0  0
 12 13  1  0  0  0  0
 13 14  2  0  0  0  0
 13 35  1  0  0  0  0
 14 15  1  0  0  0  0
 15 16  1  0  0  0  0
 15 19  2  0  0  0  0
 16 17  1  0  0  0  0
 16 18  2  0  0  0  0
 17 36  1  0  0  0  0
 17 37  1  0  0  0  0
 17 38  1  0  0  0  0
 20 21  1  0  0  0  0
 21 22  2  0  0  0  0
 21 39  1  0  0  0  0
 22 23  1  0  0  0  0
 23 40  1  0  0  0  0
 23 41  1  0  0  0  0
 23 42  1  0  0  0  0
M  END
> <s_m_source_file>
AV-unprocessed.smi

> <i_m_source_file_index>
2845

> <i_lp_mmshare_version>
43012

> <i_f3d_flags>
0

> <s_epik_input>
W0NIM11jKFtjSF0xKWMoW0NIM10pW2NIXWMoYzEyKW4oW2NIXW4yKVtDSDJdW0NASF0oW09IXSlbQ0gyXW4zW2NIXW5jKG4zKVtTQF0oPU8pW0NIM10=

> <s_epik_cmdline>
J2VwaWtfcHl0aG9uJywgJy1waCcsICc3LjAnLCAnLXRuJywgJzgnLCAnLW1hJywgJzIwMCcsICctbWV0YWxfYmluZGluZycsICctaW1hZScsICc8aW5maWxlLm1hZT4nLCAnLW9tYWUnLCAnPG91dGZpbGUubWFlPic=

> <r_lp_tautomer_probability>
1

> <r_epik_Ionization_Penalty>
0.0968684

> <r_epik_Ionization_Penalty_Charging>
0

> <r_epik_Ionization_Penalty_Neutral>
0.0968684

> <r_epik_State_Penalty>
0.0870047

> <r_epik_Charging_Adjusted_Penalty>
0.0870047

> <i_epik_Tot_Q>
0

> <i_epik_Tot_abs_Q>
0

> <r_epik_Metal_State_Penalty>
0.0746849

> <b_epik_Metal_Only>
0

> <s_lp_Force_Field>
OPLS_2005

> <r_lp_Energy>
8.02323

> <b_lp_Chiralities_Consistent>
1

> <s_lp_Variant>
AV-unprocessed.smi:2845-2

> <Gold.Version>
5.8.1

> <Gold.Id.Protein>
6NUR|6NUR_protein|mol2

> <Gold.PLP.Fitness>
49.3547

> <Gold.PLP.PLP>
-44.4222

> <Gold.PLP.part.hbond>
-1.5688

> <Gold.PLP.part.metal>
0.0000

> <Gold.PLP.part.buried>
-0.4431

> <Gold.PLP.part.nonpolar>
-43.3817

> <Gold.PLP.part.repulsive>
1.5931

> <Gold.PLP.ligand.clash>
0.0000

> <Gold.PLP.ligand.torsion>
0.9680

> <Gold.PLP.Chemscore.Hbond>
1.4940

> <Gold.PLP.Chemscore.CHOScore>
0.4434

> <Gold.PLP.Chemscore.Metal>
0.0000

> <Gold.Chemscore.Hbonds>
donor molecule, donor type, donor heavy atom, donor atom, acceptor molecule, acceptor atom, score
      P1  H  7954  7966       L1    14  0.67
      P1  H  7997  8010       L1     5  1.00
      L1  C    13    35       P1  7957  0.40

> <Gold.PLP.Chemscore.Internal.Correction>
1.0563

> <Gold.Rescore>
     Score         DG    S(hbond)    S(metal)    S(lipo)     H(rot)  DE(clash)    DE(int)     intcor
     11.94     -12.92       0.84        0.00      99.08       2.71       0.08       0.90       ----

> <Gold.Chemscore.Fitness>
11.9425

> <Gold.Chemscore.DG>
-12.9220

> <Gold.Chemscore.ZeroCoef>
-5.4800

> <Gold.Chemscore.Hbond>
0.8352

> <Gold.Chemscore.Metal>
0.0000

> <Gold.Chemscore.Lipo>
99.0766

> <Gold.Chemscore.Internal_Hbond>
0.0000

> <Gold.Chemscore.DEClash>
0.0789

> <Gold.Chemscore.DEInternal>
0.9005

> <Gold.Chemscore.Rot>
2.7108

> <Gold.Chemscore.Internal.Correction>
   9.000000E+99

> <Gold.Chemscore.Hbonds>
donor molecule, donor type, donor heavy atom, donor atom, acceptor molecule, acceptor atom, score
      P1  H  7954  7966       L1    14  0.19
      P1  H  7997  8010       L1     5  0.33

> <Gold.Chemscore.Hbond.Weighted>
-2.7897

> <Gold.Chemscore.Metal.Weighted>
-0.0000

> <Gold.Chemscore.Lipo.Weighted>
-11.5920

> <Gold.Chemscore.Internal_Hbond.Weighted>
0.0000

> <Gold.Chemscore.DEClash.Weighted>
0.0789

> <Gold.Chemscore.DEInternal.Weighted>
0.9005

> <Gold.Chemscore.Rot.Weighted>
6.9396

> <Gold.Chemscore.Internal.Correction.Weighted>
   9.000000E+99

> <Gold.Protein.RotatedTorsions>
[ 6907 6896 6895 6894 ] final  114.06 input  -60.11 | X-H torsion
[ 7974 7965 7964 7962 ] final   60.79 input  175.53 | X-H torsion
[ 8008 7997 7996 7995 ] final   55.82 input   59.86 | X-H torsion
[ 10167 10162 10161 10158 ] final  176.37 input  -65.29 | X-H torsion
[ 10718 10713 10712 10709 ] final   52.67 input   66.30 | X-H torsion
[ 10763 10752 10751 10750 ] final   62.93 input  -60.55 | X-H torsion
[ 11005 11000 10999 10996 ] final  -57.10 input  -57.11 | X-H torsion

> <Gold.Protein.ActiveResidues>
 VAL166  LYS551  ARG553  GLY616  TRP617  ASP618  TYR619  PRO620  LYS621  CYS622 
 ASP623  PHE694  ASN695  SER759  ASP760  ASP761  ALA762  ILE779  LEU786  VAL792 
 PHE793  MET794  SER795  GLU796  ALA797  LYS798  CYS799  TRP800  GLU811  SER814 

> <Gold.Protein.RotatedAtoms>
  152.4825  133.8289  159.7092 H   0  0  0  0  0  0  0  0  0  0  0  0  # atno 6907 bound_to 6896
  150.8885  133.7265  159.2918 H   0  0  0  0  0  0  0  0  0  0  0  0  # atno 6908 bound_to 6896
  151.4746  135.1052  159.9813 H   0  0  0  0  0  0  0  0  0  0  0  0  # atno 6909 bound_to 6896
  145.8921  139.3518  143.0643 H   0  0  0  0  0  0  0  0  0  0  0  0  # atno 7974 bound_to 7965
  155.5073  140.3476  155.4382 H   0  0  0  0  0  0  0  0  0  0  0  0  # atno 8008 bound_to 7997
  156.0873  140.1401  156.9664 H   0  0  0  0  0  0  0  0  0  0  0  0  # atno 8009 bound_to 7997
  154.4614  140.0933  156.6880 H   0  0  0  0  0  0  0  0  0  0  0  0  # atno 8010 bound_to 7997
  139.5212  144.2923  152.0453 H   0  0  0  0  0  0  0  0  0  0  0  0  # atno 10167 bound_to 10162
  157.5096  130.8492  149.8418 H   0  0  0  0  0  0  0  0  0  0  0  0  # atno 10718 bound_to 10713
  153.0000  135.5447  154.6271 H   0  0  0  0  0  0  0  0  0  0  0  0  # atno 10763 bound_to 10752
  154.5557  135.2830  155.0969 H   0  0  0  0  0  0  0  0  0  0  0  0  # atno 10764 bound_to 10752
  154.2191  135.6454  153.5191 H   0  0  0  0  0  0  0  0  0  0  0  0  # atno 10765 bound_to 10752
  141.1149  133.6610  156.4718 H   0  0  0  0  0  0  0  0  0  0  0  0  # atno 11005 bound_to 11000
  145.8896  140.9312  143.0559 LP  0  0  0  0  0  0  0  0  0  0  0  0  # atno 17320 bound_to 7965
  144.6731  140.0888  143.7466 LP  0  0  0  0  0  0  0  0  0  0  0  0  # atno 17321 bound_to 7965
  140.2374  144.4305  150.6274 LP  0  0  0  0  0  0  0  0  0  0  0  0  # atno 17342 bound_to 10162
  140.6314  143.2188  151.6487 LP  0  0  0  0  0  0  0  0  0  0  0  0  # atno 17343 bound_to 10162
  156.0280  130.3773  150.1767 LP  0  0  0  0  0  0  0  0  0  0  0  0  # atno 17370 bound_to 10713
  156.9956  130.9907  151.3404 LP  0  0  0  0  0  0  0  0  0  0  0  0  # atno 17371 bound_to 10713
  140.4672  134.6787  157.5113 LP  0  0  0  0  0  0  0  0  0  0  0  0  # atno 17394 bound_to 11000
  140.0066  134.6755  155.9446 LP  0  0  0  0  0  0  0  0  0  0  0  0  # atno 17395 bound_to 11000

$$$$
