AV-unprocessed.smi:2446|AV-procd|sdf|9645|dock4
  -GOLD-   2272013283D 1   1.00000     0.00000
 Structure written by MMmdl.
 40 41  0  0  0  0  0  0  0  0  2 V2000
  145.5855  135.4899  150.8386 C   0  0  0  0  0  0  0  0  0  0  0  0
  145.4408  133.9917  151.0448 C   0  0  0  0  0  0  0  0  0  0  0  0
  144.4094  133.2954  150.3779 C   0  0  0  0  0  0  0  0  0  0  0  0
  144.2705  131.9638  150.5477 N   0  3  0  0  0  0  0  0  0  0  0  0
  145.0902  131.2398  151.3377 C   0  0  0  0  0  0  0  0  0  0  0  0
  146.1395  131.8745  152.0313 C   0  0  0  0  0  0  0  0  0  0  0  0
  146.3177  133.2758  151.8998 C   0  0  0  0  0  0  0  0  0  0  0  0
  147.3602  133.9920  152.5523 N   0  0  0  0  0  0  0  0  0  0  0  0
  147.9024  133.7840  153.7683 C   0  0  0  0  0  0  0  0  0  0  0  0
  147.5890  132.8703  154.5278 O   0  0  0  0  0  0  0  0  0  0  0  0
  148.8394  134.6853  154.1154 N   0  0  0  0  0  0  0  0  0  0  0  0
  149.6254  134.7620  155.3519 C   0  0  2  0  0  0  0  0  0  0  0  0
  148.6916  134.9625  156.5608 C   0  0  0  0  0  0  0  0  0  0  0  0
  148.0671  136.3679  156.5861 C   0  0  0  0  0  0  0  0  0  0  0  0
  149.1450  137.4617  156.5317 C   0  0  0  0  0  0  0  0  0  0  0  0
  150.0595  137.2998  155.2996 C   0  0  1  0  0  0  0  0  0  0  0  0
  151.1332  138.4048  155.2254 C   0  0  0  0  0  0  0  0  0  0  0  0
  150.5740  139.5966  155.0140 F   0  0  0  0  0  0  0  0  0  0  0  0
  151.8217  138.4477  156.3662 F   0  0  0  0  0  0  0  0  0  0  0  0
  151.9867  138.1469  154.2345 F   0  0  0  0  0  0  0  0  0  0  0  0
  150.6843  135.8861  155.2861 C   0  0  0  0  0  0  0  0  0  0  0  0
  144.8559  135.8629  150.1192 H   0  0  0  0  0  0  0  0  0  0  0  0
  146.5808  135.7306  150.4635 H   0  0  0  0  0  0  0  0  0  0  0  0
  145.4324  136.0197  151.7790 H   0  0  0  0  0  0  0  0  0  0  0  0
  143.6942  133.7602  149.7147 H   0  0  0  0  0  0  0  0  0  0  0  0
  144.8876  130.1798  151.3871 H   0  0  0  0  0  0  0  0  0  0  0  0
  146.7936  131.2697  152.6400 H   0  0  0  0  0  0  0  0  0  0  0  0
  147.6763  134.8221  152.0725 H   0  0  0  0  0  0  0  0  0  0  0  0
  149.0436  135.3986  153.4299 H   0  0  0  0  0  0  0  0  0  0  0  0
  150.1357  133.8083  155.4963 H   0  0  0  0  0  0  0  0  0  0  0  0
  147.9072  134.2044  156.5636 H   0  0  0  0  0  0  0  0  0  0  0  0
  149.2600  134.8113  157.4794 H   0  0  0  0  0  0  0  0  0  0  0  0
  147.3842  136.4854  155.7439 H   0  0  0  0  0  0  0  0  0  0  0  0
  147.4646  136.4871  157.4871 H   0  0  0  0  0  0  0  0  0  0  0  0
  148.6639  138.4401  156.5157 H   0  0  0  0  0  0  0  0  0  0  0  0
  149.7425  137.4281  157.4437 H   0  0  0  0  0  0  0  0  0  0  0  0
  149.4358  137.3994  154.4099 H   0  0  0  0  0  0  0  0  0  0  0  0
  151.3559  135.7847  156.1393 H   0  0  0  0  0  0  0  0  0  0  0  0
  151.3090  135.7627  154.4016 H   0  0  0  0  0  0  0  0  0  0  0  0
  143.5177  131.4836  150.0539 H   0  0  0  0  0  0  0  0  0  0  0  0
  1  2  1  0  0  0  0
  1 22  1  0  0  0  0
  1 23  1  0  0  0  0
  1 24  1  0  0  0  0
  2  7  1  0  0  0  0
  2  3  2  0  0  0  0
  3  4  1  0  0  0  0
  3 25  1  0  0  0  0
  4  5  2  0  0  0  0
  4 40  1  0  0  0  0
  5  6  1  0  0  0  0
  5 26  1  0  0  0  0
  6  7  2  0  0  0  0
  6 27  1  0  0  0  0
  7  8  1  0  0  0  0
  8  9  1  0  0  0  0
  8 28  1  0  0  0  0
  9 10  2  0  0  0  0
  9 11  1  0  0  0  0
 11 12  1  0  0  0  0
 11 29  1  0  0  0  0
 12 21  1  0  0  0  0
 12 13  1  0  0  0  0
 12 30  1  0  0  0  0
 13 14  1  0  0  0  0
 13 31  1  0  0  0  0
 13 32  1  0  0  0  0
 14 15  1  0  0  0  0
 14 33  1  0  0  0  0
 14 34  1  0  0  0  0
 15 16  1  0  0  0  0
 15 35  1  0  0  0  0
 15 36  1  0  0  0  0
 16 17  1  0  0  0  0
 16 21  1  0  0  0  0
 16 37  1  0  0  0  0
 17 18  1  0  0  0  0
 17 19  1  0  0  0  0
 17 20  1  0  0  0  0
 21 38  1  0  0  0  0
 21 39  1  0  0  0  0
M  CHG  1   4   1
M  END
> <s_m_source_file>
AV-unprocessed.smi

> <i_m_source_file_index>
2446

> <i_lp_mmshare_version>
43012

> <i_f3d_flags>
0

> <s_epik_input>
W0NIM11jMVtjSF1uW2NIXVtjSF1jMVtOSF1DKD1PKVtOSF1bQ0BASF0yW0NIMl1bQ0gyXVtDSDJdW0NAQEhdKEMoRikoRilGKVtDSDJdMg==

> <s_epik_cmdline>
J2VwaWtfcHl0aG9uJywgJy1waCcsICc3LjAnLCAnLXRuJywgJzgnLCAnLW1hJywgJzIwMCcsICctbWV0YWxfYmluZGluZycsICctaW1hZScsICc8aW5maWxlLm1hZT4nLCAnLW9tYWUnLCAnPG91dGZpbGUubWFlPic=

> <r_epik_Ionization_Penalty>
0.736582

> <r_epik_Ionization_Penalty_Charging>
0.736562

> <r_epik_Ionization_Penalty_Neutral>
1.98379e-05

> <r_epik_State_Penalty>
0.762314

> <r_epik_Charging_Adjusted_Penalty>
1.49888

> <i_epik_Tot_Q>
1

> <i_epik_Tot_abs_Q>
1

> <r_epik_Metal_State_Penalty>
0.914579

> <b_epik_Metal_Only>
0

> <s_lp_Force_Field>
OPLS_2005

> <r_lp_Energy>
31.0639

> <b_lp_Chiralities_Consistent>
1

> <s_lp_Variant>
AV-unprocessed.smi:2446-5

> <Gold.Version>
5.8.1

> <Gold.Id.Protein>
6NUR|6NUR_protein|mol2

> <Gold.PLP.Fitness>
37.9799

> <Gold.PLP.PLP>
-32.6863

> <Gold.PLP.part.hbond>
-2.0000

> <Gold.PLP.part.metal>
0.0000

> <Gold.PLP.part.buried>
-5.5083

> <Gold.PLP.part.nonpolar>
-24.4527

> <Gold.PLP.part.repulsive>
0.1165

> <Gold.PLP.ligand.clash>
0.0000

> <Gold.PLP.ligand.torsion>
0.3640

> <Gold.PLP.Chemscore.Hbond>
2.0000

> <Gold.PLP.Chemscore.CHOScore>
0.0000

> <Gold.PLP.Chemscore.Metal>
0.0000

> <Gold.Chemscore.Hbonds>
donor molecule, donor type, donor heavy atom, donor atom, acceptor molecule, acceptor atom, score
      L1  H     8    28       P1  7948  1.00
      L1  H    11    29       P1  7948  1.00

> <Gold.PLP.Chemscore.Internal.Correction>
0.0215

> <Gold.Rescore>
     Score         DG    S(hbond)    S(metal)    S(lipo)     H(rot)  DE(clash)    DE(int)     intcor
     14.85     -16.05       1.76        0.00      62.10       1.00       0.08       1.13       ----

> <Gold.Chemscore.Fitness>
14.8485

> <Gold.Chemscore.DG>
-16.0511

> <Gold.Chemscore.ZeroCoef>
-5.4800

> <Gold.Chemscore.Hbond>
1.7560

> <Gold.Chemscore.Metal>
0.0000

> <Gold.Chemscore.Lipo>
62.1033

> <Gold.Chemscore.Internal_Hbond>
0.0000

> <Gold.Chemscore.DEClash>
0.0772

> <Gold.Chemscore.DEInternal>
1.1254

> <Gold.Chemscore.Rot>
1.0000

> <Gold.Chemscore.Internal.Correction>
   9.000000E+99

> <Gold.Chemscore.Hbonds>
donor molecule, donor type, donor heavy atom, donor atom, acceptor molecule, acceptor atom, score
      L1  H     8    28       P1  7948  0.70
      L1  H    11    29       P1  7948  0.55

> <Gold.Chemscore.Hbond.Weighted>
-5.8651

> <Gold.Chemscore.Metal.Weighted>
-0.0000

> <Gold.Chemscore.Lipo.Weighted>
-7.2661

> <Gold.Chemscore.Internal_Hbond.Weighted>
0.0000

> <Gold.Chemscore.DEClash.Weighted>
0.0772

> <Gold.Chemscore.DEInternal.Weighted>
1.1254

> <Gold.Chemscore.Rot.Weighted>
2.5600

> <Gold.Chemscore.Internal.Correction.Weighted>
   9.000000E+99

> <Gold.Protein.RotatedTorsions>
[ 6907 6896 6895 6894 ] final -144.58 input  -60.11 | X-H torsion
[ 7974 7965 7964 7962 ] final  128.42 input  175.53 | X-H torsion
[ 8008 7997 7996 7995 ] final  -39.71 input   59.86 | X-H torsion
[ 10167 10162 10161 10158 ] final  171.57 input  -65.29 | X-H torsion
[ 10718 10713 10712 10709 ] final   21.97 input   66.30 | X-H torsion
[ 10763 10752 10751 10750 ] final -130.23 input  -60.55 | X-H torsion
[ 11005 11000 10999 10996 ] final  -79.15 input  -57.11 | X-H torsion

> <Gold.Protein.ActiveResidues>
 VAL166  LYS551  ARG553  GLY616  TRP617  ASP618  TYR619  PRO620  LYS621  CYS622 
 ASP623  PHE694  ASN695  SER759  ASP760  ASP761  ALA762  ILE779  LEU786  VAL792 
 PHE793  MET794  SER795  GLU796  ALA797  LYS798  CYS799  TRP800  GLU811  SER814 

> <Gold.Protein.RotatedAtoms>
  151.1160  133.5138  159.2603 H   0  0  0  0  0  0  0  0  0  0  0  0  # atno 6907 bound_to 6896
  151.1914  135.0403  159.8844 H   0  0  0  0  0  0  0  0  0  0  0  0  # atno 6908 bound_to 6896
  152.5453  134.1000  159.8367 H   0  0  0  0  0  0  0  0  0  0  0  0  # atno 6909 bound_to 6896
  145.0397  139.3974  143.5108 H   0  0  0  0  0  0  0  0  0  0  0  0  # atno 7974 bound_to 7965
  154.4020  140.1544  156.2908 H   0  0  0  0  0  0  0  0  0  0  0  0  # atno 8008 bound_to 7997
  155.8787  140.3445  155.5850 H   0  0  0  0  0  0  0  0  0  0  0  0  # atno 8009 bound_to 7997
  155.7692  140.0828  157.2107 H   0  0  0  0  0  0  0  0  0  0  0  0  # atno 8010 bound_to 7997
  139.5050  144.3471  151.9960 H   0  0  0  0  0  0  0  0  0  0  0  0  # atno 10167 bound_to 10162
  157.1458  130.6653  149.5996 H   0  0  0  0  0  0  0  0  0  0  0  0  # atno 10718 bound_to 10713
  154.8756  135.3869  154.4049 H   0  0  0  0  0  0  0  0  0  0  0  0  # atno 10763 bound_to 10752
  153.4770  135.7030  153.5965 H   0  0  0  0  0  0  0  0  0  0  0  0  # atno 10764 bound_to 10752
  153.4398  135.3859  155.2188 H   0  0  0  0  0  0  0  0  0  0  0  0  # atno 10765 bound_to 10752
  141.1667  133.7093  156.8078 H   0  0  0  0  0  0  0  0  0  0  0  0  # atno 11005 bound_to 11000
  146.3508  139.9991  142.8678 LP  0  0  0  0  0  0  0  0  0  0  0  0  # atno 17320 bound_to 7965
  145.1663  140.9698  143.4347 LP  0  0  0  0  0  0  0  0  0  0  0  0  # atno 17321 bound_to 7965
  140.2908  144.3756  150.6089 LP  0  0  0  0  0  0  0  0  0  0  0  0  # atno 17342 bound_to 10162
  140.5948  143.2167  151.7185 LP  0  0  0  0  0  0  0  0  0  0  0  0  # atno 17343 bound_to 10162
  155.9780  130.4761  150.6626 LP  0  0  0  0  0  0  0  0  0  0  0  0  # atno 17370 bound_to 10713
  157.4265  131.0844  151.1080 LP  0  0  0  0  0  0  0  0  0  0  0  0  # atno 17371 bound_to 10713
  140.2209  134.8757  157.3376 LP  0  0  0  0  0  0  0  0  0  0  0  0  # atno 17394 bound_to 11000
  140.1989  134.4279  155.7674 LP  0  0  0  0  0  0  0  0  0  0  0  0  # atno 17395 bound_to 11000

$$$$
