AV-unprocessed.smi:1762|AV-procd|sdf|7109|dock3
  -GOLD-   22720 8333D 1   1.00000     0.00000
 Structure written by MMmdl.
 53 54  0  0  0  0  0  0  0  0  2 V2000
  149.4919  133.7861  156.3235 C   0  0  0  0  0  0  0  0  0  0  0  0
  150.1044  135.0504  156.9522 C   0  0  1  0  0  0  0  0  0  0  0  0
  150.1081  136.2647  156.0023 C   0  0  0  0  0  0  0  0  0  0  0  0
  148.7801  136.8613  155.8099 N   0  0  0  0  0  0  0  0  0  0  0  0
  148.7929  138.0134  154.8647 C   0  0  2  0  0  0  0  0  0  0  0  0
  149.8549  139.0805  155.2207 C   0  0  0  0  0  0  0  0  0  0  0  0
  150.7353  139.3790  154.4130 O   0  0  0  0  0  0  0  0  0  0  0  0
  149.7382  139.6689  156.4218 N   0  0  0  0  0  0  0  0  0  0  0  0
  150.6150  140.7187  156.9249 C   0  0  0  0  0  0  0  0  0  0  0  0
  149.8141  141.8502  157.5917 C   0  0  0  0  0  0  0  0  0  0  0  0
  150.7086  142.8368  158.3160 C   0  0  0  0  0  0  0  0  0  0  0  0
  151.5848  142.4370  159.3482 C   0  0  0  0  0  0  0  0  0  0  0  0
  152.3864  143.4070  159.9858 C   0  0  0  0  0  0  0  0  0  0  0  0
  152.2935  144.7544  159.5798 C   0  0  0  0  0  0  0  0  0  0  0  0
  151.4001  145.0984  158.5449 C   0  0  0  0  0  0  0  0  0  0  0  0
  150.6493  144.1402  157.9583 N   0  3  0  0  0  0  0  0  0  0  0  0
  147.3983  138.6805  154.6142 C   0  0  0  0  0  0  0  0  0  0  0  0
  146.2524  137.6632  154.4397 C   0  0  0  0  0  0  0  0  0  0  0  0
  147.3915  139.6995  153.4576 C   0  0  0  0  0  0  0  0  0  0  0  0
  148.2101  137.1652  157.1333 C   0  0  0  0  0  0  0  0  0  0  0  0
  148.1702  135.9375  158.0615 C   0  0  2  0  0  0  0  0  0  0  0  0
  147.6693  136.2896  159.4668 C   0  0  0  0  0  0  0  0  0  0  0  0
  149.4774  135.3888  158.1868 O   0  0  0  0  0  0  0  0  0  0  0  0
  150.0655  133.4707  155.4516 H   0  0  0  0  0  0  0  0  0  0  0  0
  148.4655  133.9463  155.9939 H   0  0  0  0  0  0  0  0  0  0  0  0
  149.4908  132.9597  157.0343 H   0  0  0  0  0  0  0  0  0  0  0  0
  151.1407  134.8123  157.1940 H   0  0  0  0  0  0  0  0  0  0  0  0
  150.7921  137.0185  156.3958 H   0  0  0  0  0  0  0  0  0  0  0  0
  150.5307  135.9292  155.0575 H   0  0  0  0  0  0  0  0  0  0  0  0
  149.0996  137.6129  153.8959 H   0  0  0  0  0  0  0  0  0  0  0  0
  148.9850  139.3701  157.0246 H   0  0  0  0  0  0  0  0  0  0  0  0
  151.3009  140.2705  157.6442 H   0  0  0  0  0  0  0  0  0  0  0  0
  151.2290  141.1111  156.1123 H   0  0  0  0  0  0  0  0  0  0  0  0
  149.2274  142.3895  156.8466 H   0  0  0  0  0  0  0  0  0  0  0  0
  149.0978  141.4335  158.3015 H   0  0  0  0  0  0  0  0  0  0  0  0
  151.6429  141.4008  159.6493 H   0  0  0  0  0  0  0  0  0  0  0  0
  153.0640  143.1208  160.7768 H   0  0  0  0  0  0  0  0  0  0  0  0
  152.8991  145.5124  160.0552 H   0  0  0  0  0  0  0  0  0  0  0  0
  151.2647  146.1030  158.1715 H   0  0  0  0  0  0  0  0  0  0  0  0
  147.1259  139.2257  155.5164 H   0  0  0  0  0  0  0  0  0  0  0  0
  146.3282  137.1154  153.5000 H   0  0  0  0  0  0  0  0  0  0  0  0
  145.2846  138.1654  154.4417 H   0  0  0  0  0  0  0  0  0  0  0  0
  146.2434  136.9365  155.2525 H   0  0  0  0  0  0  0  0  0  0  0  0
  147.5548  139.2215  152.4921 H   0  0  0  0  0  0  0  0  0  0  0  0
  148.1611  140.4602  153.5879 H   0  0  0  0  0  0  0  0  0  0  0  0
  146.4335  140.2171  153.4041 H   0  0  0  0  0  0  0  0  0  0  0  0
  148.7843  137.9645  157.6053 H   0  0  0  0  0  0  0  0  0  0  0  0
  147.1847  137.5241  157.0539 H   0  0  0  0  0  0  0  0  0  0  0  0
  147.4998  135.1871  157.6413 H   0  0  0  0  0  0  0  0  0  0  0  0
  146.6616  136.7045  159.4329 H   0  0  0  0  0  0  0  0  0  0  0  0
  148.3183  137.0234  159.9455 H   0  0  0  0  0  0  0  0  0  0  0  0
  147.6420  135.4045  160.1024 H   0  0  0  0  0  0  0  0  0  0  0  0
  150.0095  144.4117  157.2114 H   0  0  0  0  0  0  0  0  0  0  0  0
  1  2  1  0  0  0  0
  1 24  1  0  0  0  0
  1 25  1  0  0  0  0
  1 26  1  0  0  0  0
  2 23  1  0  0  0  0
  2  3  1  0  0  0  0
  2 27  1  0  0  0  0
  3  4  1  0  0  0  0
  3 28  1  0  0  0  0
  3 29  1  0  0  0  0
  4  5  1  0  0  0  0
  4 20  1  0  0  0  0
  5  6  1  0  0  0  0
  5 17  1  0  0  0  0
  5 30  1  0  0  0  0
  6  7  2  0  0  0  0
  6  8  1  0  0  0  0
  8  9  1  0  0  0  0
  8 31  1  0  0  0  0
  9 10  1  0  0  0  0
  9 32  1  0  0  0  0
  9 33  1  0  0  0  0
 10 11  1  0  0  0  0
 10 34  1  0  0  0  0
 10 35  1  0  0  0  0
 11 16  1  0  0  0  0
 11 12  2  0  0  0  0
 12 13  1  0  0  0  0
 12 36  1  0  0  0  0
 13 14  2  0  0  0  0
 13 37  1  0  0  0  0
 14 15  1  0  0  0  0
 14 38  1  0  0  0  0
 15 16  2  0  0  0  0
 15 39  1  0  0  0  0
 16 53  1  0  0  0  0
 17 18  1  0  0  0  0
 17 19  1  0  0  0  0
 17 40  1  0  0  0  0
 18 41  1  0  0  0  0
 18 42  1  0  0  0  0
 18 43  1  0  0  0  0
 19 44  1  0  0  0  0
 19 45  1  0  0  0  0
 19 46  1  0  0  0  0
 20 21  1  0  0  0  0
 20 47  1  0  0  0  0
 20 48  1  0  0  0  0
 21 22  1  0  0  0  0
 21 23  1  0  0  0  0
 21 49  1  0  0  0  0
 22 50  1  0  0  0  0
 22 51  1  0  0  0  0
 22 52  1  0  0  0  0
M  CHG  1  16   1
M  END
> <s_m_source_file>
AV-unprocessed.smi

> <i_m_source_file_index>
1762

> <i_lp_mmshare_version>
43012

> <i_f3d_flags>
0

> <s_epik_input>
W0NIM11bQ0BASF0xW0NIMl1OKFtDSDJdW0NASF0oTzEpW0NIM10pW0NAQEhdKFtDSF0oW0NIM10pW0NIM10pQyg9TylbTkhdW0NIMl1bQ0gyXWMyW2NIXVtjSF1bY0hdW2NIXW4y

> <s_epik_cmdline>
J2VwaWtfcHl0aG9uJywgJy1waCcsICc3LjAnLCAnLXRuJywgJzgnLCAnLW1hJywgJzIwMCcsICctbWV0YWxfYmluZGluZycsICctaW1hZScsICc8aW5maWxlLm1hZT4nLCAnLW9tYWUnLCAnPG91dGZpbGUubWFlPic=

> <r_epik_Ionization_Penalty>
1.86475

> <r_epik_Ionization_Penalty_Charging>
1.85347

> <r_epik_Ionization_Penalty_Neutral>
0.0112771

> <r_epik_State_Penalty>
1.99714

> <r_epik_Charging_Adjusted_Penalty>
3.85061

> <i_epik_Tot_Q>
1

> <i_epik_Tot_abs_Q>
1

> <r_epik_Metal_State_Penalty>
2.02271

> <b_epik_Metal_Only>
0

> <s_lp_Force_Field>
OPLS_2005

> <r_lp_Energy>
35.2583

> <b_lp_Chiralities_Consistent>
1

> <s_lp_Variant>
AV-unprocessed.smi:1762-11

> <Gold.Version>
5.8.1

> <Gold.Id.Protein>
6NUR|6NUR_protein|mol2

> <Gold.PLP.Fitness>
46.0752

> <Gold.PLP.PLP>
-35.3790

> <Gold.PLP.part.hbond>
-3.3600

> <Gold.PLP.part.metal>
0.0000

> <Gold.PLP.part.buried>
-5.7585

> <Gold.PLP.part.nonpolar>
-27.3647

> <Gold.PLP.part.repulsive>
0.3351

> <Gold.PLP.ligand.clash>
0.0000

> <Gold.PLP.ligand.torsion>
0.4182

> <Gold.PLP.Chemscore.Hbond>
3.7040

> <Gold.PLP.Chemscore.CHOScore>
0.0000

> <Gold.PLP.Chemscore.Metal>
0.0000

> <Gold.Chemscore.Hbonds>
donor molecule, donor type, donor heavy atom, donor atom, acceptor molecule, acceptor atom, score
      L1  H    16    53       P1  8028  2.00
      P1  H  6896  6908       L1    23  1.00
      P1  H  7989  7998       L1     7  1.00

> <Gold.PLP.Chemscore.Internal.Correction>
0.4206

> <Gold.Rescore>
     Score         DG    S(hbond)    S(metal)    S(lipo)     H(rot)  DE(clash)    DE(int)     intcor
     20.67     -22.31       2.84        0.00     100.27       1.72       0.05       1.59       ----

> <Gold.Chemscore.Fitness>
20.6718

> <Gold.Chemscore.DG>
-22.3110

> <Gold.Chemscore.ZeroCoef>
-5.4800

> <Gold.Chemscore.Hbond>
2.8431

> <Gold.Chemscore.Metal>
0.0000

> <Gold.Chemscore.Lipo>
100.2706

> <Gold.Chemscore.Internal_Hbond>
0.0000

> <Gold.Chemscore.DEClash>
0.0533

> <Gold.Chemscore.DEInternal>
1.5858

> <Gold.Chemscore.Rot>
1.7174

> <Gold.Chemscore.Internal.Correction>
   9.000000E+99

> <Gold.Chemscore.Hbonds>
donor molecule, donor type, donor heavy atom, donor atom, acceptor molecule, acceptor atom, score
      L1  H    16    53       P1  8028  0.50
      P1  H  6896  6908       L1    23  0.25
      P1  H  7989  7998       L1     7  0.99

> <Gold.Chemscore.Hbond.Weighted>
-9.4959

> <Gold.Chemscore.Metal.Weighted>
-0.0000

> <Gold.Chemscore.Lipo.Weighted>
-11.7317

> <Gold.Chemscore.Internal_Hbond.Weighted>
0.0000

> <Gold.Chemscore.DEClash.Weighted>
0.0533

> <Gold.Chemscore.DEInternal.Weighted>
1.5858

> <Gold.Chemscore.Rot.Weighted>
4.3966

> <Gold.Chemscore.Internal.Correction.Weighted>
   9.000000E+99

> <Gold.Protein.RotatedTorsions>
[ 6907 6896 6895 6894 ] final  157.10 input  -60.11 | X-H torsion
[ 7974 7965 7964 7962 ] final  -32.81 input  175.53 | X-H torsion
[ 8008 7997 7996 7995 ] final -126.49 input   59.86 | X-H torsion
[ 10167 10162 10161 10158 ] final -122.63 input  -65.29 | X-H torsion
[ 10718 10713 10712 10709 ] final   20.49 input   66.30 | X-H torsion
[ 10763 10752 10751 10750 ] final   57.85 input  -60.55 | X-H torsion
[ 11005 11000 10999 10996 ] final   96.15 input  -57.11 | X-H torsion

> <Gold.Protein.ActiveResidues>
 VAL166  LYS551  ARG553  GLY616  TRP617  ASP618  TYR619  PRO620  LYS621  CYS622 
 ASP623  PHE694  ASN695  SER759  ASP760  ASP761  ALA762  ILE779  LEU786  VAL792 
 PHE793  MET794  SER795  GLU796  ALA797  LYS798  CYS799  TRP800  GLU811  SER814 

> <Gold.Protein.RotatedAtoms>
  152.0200  133.3895  159.4254 H   0  0  0  0  0  0  0  0  0  0  0  0  # atno 6907 bound_to 6896
  150.6891  134.3636  159.4970 H   0  0  0  0  0  0  0  0  0  0  0  0  # atno 6908 bound_to 6896
  152.1408  134.9063  160.0604 H   0  0  0  0  0  0  0  0  0  0  0  0  # atno 6909 bound_to 6896
  146.0960  140.5839  142.8842 H   0  0  0  0  0  0  0  0  0  0  0  0  # atno 7974 bound_to 7965
  155.2305  140.0425  157.2961 H   0  0  0  0  0  0  0  0  0  0  0  0  # atno 8008 bound_to 7997
  154.5891  140.2422  155.7916 H   0  0  0  0  0  0  0  0  0  0  0  0  # atno 8009 bound_to 7997
  156.2247  140.2958  156.0046 H   0  0  0  0  0  0  0  0  0  0  0  0  # atno 8010 bound_to 7997
  140.0122  143.5430  152.2258 H   0  0  0  0  0  0  0  0  0  0  0  0  # atno 10167 bound_to 10162
  157.1252  130.6567  149.5935 H   0  0  0  0  0  0  0  0  0  0  0  0  # atno 10718 bound_to 10713
  152.9858  135.5627  154.5457 H   0  0  0  0  0  0  0  0  0  0  0  0  # atno 10763 bound_to 10752
  154.4903  135.2792  155.1503 H   0  0  0  0  0  0  0  0  0  0  0  0  # atno 10764 bound_to 10752
  154.2975  135.6314  153.5464 H   0  0  0  0  0  0  0  0  0  0  0  0  # atno 10765 bound_to 10752
  139.8783  134.8936  156.4117 H   0  0  0  0  0  0  0  0  0  0  0  0  # atno 11005 bound_to 11000
  144.7396  140.4905  143.6879 LP  0  0  0  0  0  0  0  0  0  0  0  0  # atno 17320 bound_to 7965
  145.5946  139.1498  143.3163 LP  0  0  0  0  0  0  0  0  0  0  0  0  # atno 17321 bound_to 7965
  139.6197  144.7626  151.2767 LP  0  0  0  0  0  0  0  0  0  0  0  0  # atno 17342 bound_to 10162
  140.7377  143.6670  150.8114 LP  0  0  0  0  0  0  0  0  0  0  0  0  # atno 17343 bound_to 10162
  155.9820  130.4830  150.6856 LP  0  0  0  0  0  0  0  0  0  0  0  0  # atno 17370 bound_to 10713
  157.4441  131.0865  151.0914 LP  0  0  0  0  0  0  0  0  0  0  0  0  # atno 17371 bound_to 10713
  140.9196  133.7654  155.9890 LP  0  0  0  0  0  0  0  0  0  0  0  0  # atno 17394 bound_to 11000
  140.8454  134.3016  157.5297 LP  0  0  0  0  0  0  0  0  0  0  0  0  # atno 17395 bound_to 11000

$$$$
