AV-unprocessed.smi:2158|AV-procd|sdf|8790|dock4
  -GOLD-   2272011573D 1   1.00000     0.00000
 Structure written by MMmdl.
 30 30  0  0  0  0  0  0  0  0  2 V2000
  149.4516  144.7868  160.0203 C   0  0  0  0  0  0  0  0  0  0  0  0
  150.9604  144.7170  159.7430 C   0  0  0  0  0  0  0  0  0  0  0  0
  151.3112  144.6634  158.2445 C   0  0  1  0  0  0  0  0  0  0  0  0
  152.8312  144.6656  158.0175 C   0  0  0  0  0  0  0  0  0  0  0  0
  150.7159  143.4784  157.6324 N   0  0  0  0  0  0  0  0  0  0  0  0
  151.0061  142.2074  157.9486 C   0  0  0  0  0  0  0  0  0  0  0  0
  151.8053  141.8954  158.8324 O   0  0  0  0  0  0  0  0  0  0  0  0
  150.2493  141.1294  157.1614 C   0  0  0  0  0  0  0  0  0  0  0  0
  151.0084  139.8753  157.0365 N   0  0  0  0  0  0  0  0  0  0  0  0
  151.3802  139.2144  158.2206 C   0  0  0  0  0  0  0  0  0  0  0  0
  152.0791  138.0635  158.2022 C   0  0  0  0  0  0  0  0  0  0  0  0
  152.4519  137.5029  156.9094 C   0  0  0  0  0  0  0  0  0  0  0  0
  153.0871  136.4509  156.8739 O   0  0  0  0  0  0  0  0  0  0  0  0
  152.0713  138.1837  155.7887 N   0  5  0  0  0  0  0  0  0  0  0  0
  151.3628  139.3550  155.8227 C   0  0  0  0  0  0  0  0  0  0  0  0
  151.0320  139.9553  154.7993 O   0  0  0  0  0  0  0  0  0  0  0  0
  149.2588  144.8705  161.0899 H   0  0  0  0  0  0  0  0  0  0  0  0
  148.9345  143.8964  159.6615 H   0  0  0  0  0  0  0  0  0  0  0  0
  149.0031  145.6530  159.5334 H   0  0  0  0  0  0  0  0  0  0  0  0
  151.4357  145.5902  160.1911 H   0  0  0  0  0  0  0  0  0  0  0  0
  151.3807  143.8488  160.2526 H   0  0  0  0  0  0  0  0  0  0  0  0
  150.8957  145.5567  157.7739 H   0  0  0  0  0  0  0  0  0  0  0  0
  153.2905  145.5537  158.4519 H   0  0  0  0  0  0  0  0  0  0  0  0
  153.0720  144.6615  156.9538 H   0  0  0  0  0  0  0  0  0  0  0  0
  153.3020  143.7919  158.4694 H   0  0  0  0  0  0  0  0  0  0  0  0
  150.0450  143.6371  156.8949 H   0  0  0  0  0  0  0  0  0  0  0  0
  149.2975  140.9504  157.6630 H   0  0  0  0  0  0  0  0  0  0  0  0
  149.9847  141.5073  156.1719 H   0  0  0  0  0  0  0  0  0  0  0  0
  151.0714  139.6996  159.1348 H   0  0  0  0  0  0  0  0  0  0  0  0
  152.3595  137.5699  159.1209 H   0  0  0  0  0  0  0  0  0  0  0  0
  1  2  1  0  0  0  0
  1 17  1  0  0  0  0
  1 18  1  0  0  0  0
  1 19  1  0  0  0  0
  2  3  1  0  0  0  0
  2 20  1  0  0  0  0
  2 21  1  0  0  0  0
  3  4  1  0  0  0  0
  3  5  1  0  0  0  0
  3 22  1  0  0  0  0
  4 23  1  0  0  0  0
  4 24  1  0  0  0  0
  4 25  1  0  0  0  0
  5  6  1  0  0  0  0
  5 26  1  0  0  0  0
  6  7  2  0  0  0  0
  6  8  1  0  0  0  0
  8  9  1  0  0  0  0
  8 27  1  0  0  0  0
  8 28  1  0  0  0  0
  9 15  1  0  0  0  0
  9 10  1  0  0  0  0
 10 11  2  0  0  0  0
 10 29  1  0  0  0  0
 11 12  1  0  0  0  0
 11 30  1  0  0  0  0
 12 13  2  0  0  0  0
 12 14  1  0  0  0  0
 14 15  1  0  0  0  0
 15 16  2  0  0  0  0
M  CHG  1  14  -1
M  END
> <s_m_source_file>
AV-unprocessed.smi

> <i_m_source_file_index>
2158

> <i_lp_mmshare_version>
43012

> <i_f3d_flags>
0

> <s_epik_input>
W0NIM11bQ0gyXVtDQEhdKFtDSDNdKVtOSF1DKD1PKVtDSDJdbjFbY0hdW2NIXWMoPU8pW25IXWMxPU8=

> <s_epik_cmdline>
J2VwaWtfcHl0aG9uJywgJy1waCcsICc3LjAnLCAnLXRuJywgJzgnLCAnLW1hJywgJzIwMCcsICctbWV0YWxfYmluZGluZycsICctaW1hZScsICc8aW5maWxlLm1hZT4nLCAnLW9tYWUnLCAnPG91dGZpbGUubWFlPic=

> <r_lp_tautomer_probability>
0.999537

> <r_epik_Ionization_Penalty>
3.08395

> <r_epik_Ionization_Penalty_Charging>
2.76809e-08

> <r_epik_Ionization_Penalty_Neutral>
3.08395

> <r_epik_State_Penalty>
3.08299

> <r_epik_Charging_Adjusted_Penalty>
3.08299

> <i_epik_Tot_Q>
-1

> <i_epik_Tot_abs_Q>
1

> <r_epik_Metal_State_Penalty>
0.460296

> <b_epik_Metal_Only>
1

> <s_lp_Force_Field>
OPLS_2005

> <r_lp_Energy>
11.8207

> <b_lp_Chiralities_Consistent>
1

> <s_lp_Variant>
AV-unprocessed.smi:2158-4

> <Gold.Version>
5.8.1

> <Gold.Id.Protein>
6NUR|6NUR_protein|mol2

> <Gold.PLP.Fitness>
38.3854

> <Gold.PLP.PLP>
-30.2046

> <Gold.PLP.part.hbond>
-3.0000

> <Gold.PLP.part.metal>
0.0000

> <Gold.PLP.part.buried>
-7.0160

> <Gold.PLP.part.nonpolar>
-21.1463

> <Gold.PLP.part.repulsive>
0.0755

> <Gold.PLP.ligand.clash>
0.0000

> <Gold.PLP.ligand.torsion>
0.3804

> <Gold.PLP.Chemscore.Hbond>
2.9760

> <Gold.PLP.Chemscore.CHOScore>
0.0000

> <Gold.PLP.Chemscore.Metal>
0.0000

> <Gold.Chemscore.Hbonds>
donor molecule, donor type, donor heavy atom, donor atom, acceptor molecule, acceptor atom, score
      L1  H     5    26       P1  8028  1.00
      P1  H  7989  7998       L1    16  1.00
      P1  H 10752 10764       L1    13  1.00

> <Gold.PLP.Chemscore.Internal.Correction>
0.0136

> <Gold.Rescore>
     Score         DG    S(hbond)    S(metal)    S(lipo)     H(rot)  DE(clash)    DE(int)     intcor
     14.48     -17.14       2.90        0.00      59.29       1.94       0.01       2.65       ----

> <Gold.Chemscore.Fitness>
14.4811

> <Gold.Chemscore.DG>
-17.1405

> <Gold.Chemscore.ZeroCoef>
-5.4800

> <Gold.Chemscore.Hbond>
2.9050

> <Gold.Chemscore.Metal>
0.0000

> <Gold.Chemscore.Lipo>
59.2899

> <Gold.Chemscore.Internal_Hbond>
0.0000

> <Gold.Chemscore.DEClash>
0.0075

> <Gold.Chemscore.DEInternal>
2.6520

> <Gold.Chemscore.Rot>
1.9449

> <Gold.Chemscore.Internal.Correction>
   9.000000E+99

> <Gold.Chemscore.Hbonds>
donor molecule, donor type, donor heavy atom, donor atom, acceptor molecule, acceptor atom, score
      L1  H     5    26       P1  8028  0.94
      P1  H  7989  7998       L1    16  1.00
      P1  H 10752 10764       L1    13  0.96

> <Gold.Chemscore.Hbond.Weighted>
-9.7026

> <Gold.Chemscore.Metal.Weighted>
-0.0000

> <Gold.Chemscore.Lipo.Weighted>
-6.9369

> <Gold.Chemscore.Internal_Hbond.Weighted>
0.0000

> <Gold.Chemscore.DEClash.Weighted>
0.0075

> <Gold.Chemscore.DEInternal.Weighted>
2.6520

> <Gold.Chemscore.Rot.Weighted>
4.9791

> <Gold.Chemscore.Internal.Correction.Weighted>
   9.000000E+99

> <Gold.Protein.RotatedTorsions>
[ 6907 6896 6895 6894 ] final -122.95 input  -60.11 | X-H torsion
[ 7974 7965 7964 7962 ] final   22.07 input  175.53 | X-H torsion
[ 8008 7997 7996 7995 ] final  -60.73 input   59.86 | X-H torsion
[ 10167 10162 10161 10158 ] final   91.16 input  -65.29 | X-H torsion
[ 10718 10713 10712 10709 ] final  -56.59 input   66.30 | X-H torsion
[ 10763 10752 10751 10750 ] final    8.37 input  -60.55 | X-H torsion
[ 11005 11000 10999 10996 ] final  155.05 input  -57.11 | X-H torsion

> <Gold.Protein.ActiveResidues>
 VAL166  LYS551  ARG553  GLY616  TRP617  ASP618  TYR619  PRO620  LYS621  CYS622 
 ASP623  PHE694  ASN695  SER759  ASP760  ASP761  ALA762  ILE779  LEU786  VAL792 
 PHE793  MET794  SER795  GLU796  ALA797  LYS798  CYS799  TRP800  GLU811  SER814 

> <Gold.Protein.RotatedAtoms>
  150.8624  133.7624  159.2987 H   0  0  0  0  0  0  0  0  0  0  0  0  # atno 6907 bound_to 6896
  151.5262  135.1066  159.9900 H   0  0  0  0  0  0  0  0  0  0  0  0  # atno 6908 bound_to 6896
  152.4636  133.7830  159.6917 H   0  0  0  0  0  0  0  0  0  0  0  0  # atno 6909 bound_to 6896
  146.2044  139.7937  142.8737 H   0  0  0  0  0  0  0  0  0  0  0  0  # atno 7974 bound_to 7965
  154.4413  140.1033  156.6320 H   0  0  0  0  0  0  0  0  0  0  0  0  # atno 8008 bound_to 7997
  155.5594  140.3487  155.4469 H   0  0  0  0  0  0  0  0  0  0  0  0  # atno 8009 bound_to 7997
  156.0471  140.1295  157.0081 H   0  0  0  0  0  0  0  0  0  0  0  0  # atno 8010 bound_to 7997
  139.8402  144.6645  150.9293 H   0  0  0  0  0  0  0  0  0  0  0  0  # atno 10167 bound_to 10162
  156.1276  130.4161  150.0326 H   0  0  0  0  0  0  0  0  0  0  0  0  # atno 10718 bound_to 10713
  153.2258  135.6887  153.7947 H   0  0  0  0  0  0  0  0  0  0  0  0  # atno 10763 bound_to 10752
  153.7129  135.3279  155.3251 H   0  0  0  0  0  0  0  0  0  0  0  0  # atno 10764 bound_to 10752
  154.8291  135.4595  154.1124 H   0  0  0  0  0  0  0  0  0  0  0  0  # atno 10765 bound_to 10752
  140.1546  134.8651  157.2498 H   0  0  0  0  0  0  0  0  0  0  0  0  # atno 11005 bound_to 11000
  145.3370  141.0279  143.3414 LP  0  0  0  0  0  0  0  0  0  0  0  0  # atno 17320 bound_to 7965
  144.8759  139.4972  143.6746 LP  0  0  0  0  0  0  0  0  0  0  0  0  # atno 17321 bound_to 7965
  140.7799  143.3920  151.1294 LP  0  0  0  0  0  0  0  0  0  0  0  0  # atno 17342 bound_to 10162
  139.7567  143.8697  152.3090 LP  0  0  0  0  0  0  0  0  0  0  0  0  # atno 17343 bound_to 10162
  156.8247  130.9371  151.3640 LP  0  0  0  0  0  0  0  0  0  0  0  0  # atno 17370 bound_to 10713
  157.6457  130.8842  149.9534 LP  0  0  0  0  0  0  0  0  0  0  0  0  # atno 17371 bound_to 10713
  140.2563  134.3623  155.7423 LP  0  0  0  0  0  0  0  0  0  0  0  0  # atno 17394 bound_to 11000
  141.2203  133.7344  156.9012 LP  0  0  0  0  0  0  0  0  0  0  0  0  # atno 17395 bound_to 11000

$$$$
