AV-unprocessed.smi:2961|AV-procd|sdf|11313|dock2
  -GOLD-   2272016213D 1   1.00000     0.00000
 Structure written by MMmdl.
 48 50  0  0  0  0  0  0  0  0  1 V2000
  150.0725  136.4265  155.0083 C   0  0  0  0  0  0  0  0  0  0  0  0
  151.1271  137.4379  155.4441 C   0  0  0  0  0  0  0  0  0  0  0  0
  152.2609  137.0605  155.7390 O   0  0  0  0  0  0  0  0  0  0  0  0
  150.7403  138.7221  155.4784 N   0  0  0  0  0  0  0  0  0  0  0  0
  151.5969  139.8401  155.8562 C   0  0  0  0  0  0  0  0  0  0  0  0
  152.1932  139.6501  157.2607 C   0  0  0  0  0  0  0  0  0  0  0  0
  152.0922  140.8889  158.0971 C   0  0  0  0  0  0  0  0  0  0  0  0
  151.4670  141.9837  157.6632 N   0  0  0  0  0  0  0  0  0  0  0  0
  151.6298  142.8632  158.7159 C   0  0  0  0  0  0  0  0  0  0  0  0
  151.1894  144.1966  158.8748 C   0  0  0  0  0  0  0  0  0  0  0  0
  151.4808  144.9084  160.0570 C   0  0  0  0  0  0  0  0  0  0  0  0
  152.2142  144.2983  161.0953 C   0  0  0  0  0  0  0  0  0  0  0  0
  152.6630  142.9706  160.9573 C   0  0  0  0  0  0  0  0  0  0  0  0
  152.3708  142.2651  159.7747 C   0  0  0  0  0  0  0  0  0  0  0  0
  152.6606  140.9808  159.3256 N   0  0  0  0  0  0  0  0  0  0  0  0
  153.4182  139.9691  160.0461 C   0  0  0  0  0  0  0  0  0  0  0  0
  154.8777  140.3908  160.2540 C   0  0  0  0  0  0  0  0  0  0  0  0
  155.0267  140.8347  161.5949 O   0  0  0  0  0  0  0  0  0  0  0  0
  155.1036  139.8871  162.5930 C   0  0  0  0  0  0  0  0  0  0  0  0
  155.6814  140.2918  163.8138 C   0  0  0  0  0  0  0  0  0  0  0  0
  155.8031  139.3897  164.8875 C   0  0  0  0  0  0  0  0  0  0  0  0
  155.3448  138.0668  164.7505 C   0  0  0  0  0  0  0  0  0  0  0  0
  154.7648  137.6453  163.5375 C   0  0  0  0  0  0  0  0  0  0  0  0
  154.2672  136.2223  163.3862 C   0  0  0  0  0  0  0  0  0  0  0  0
  154.6425  138.5522  162.4640 C   0  0  0  0  0  0  0  0  0  0  0  0
  149.1507  136.5640  155.5744 H   0  0  0  0  0  0  0  0  0  0  0  0
  150.4232  135.4068  155.1713 H   0  0  0  0  0  0  0  0  0  0  0  0
  149.8489  136.5457  153.9478 H   0  0  0  0  0  0  0  0  0  0  0  0
  149.7888  138.9409  155.2205 H   0  0  0  0  0  0  0  0  0  0  0  0
  152.3883  139.9634  155.1152 H   0  0  0  0  0  0  0  0  0  0  0  0
  151.0017  140.7530  155.8262 H   0  0  0  0  0  0  0  0  0  0  0  0
  151.6690  138.8428  157.7737 H   0  0  0  0  0  0  0  0  0  0  0  0
  153.2348  139.3355  157.2017 H   0  0  0  0  0  0  0  0  0  0  0  0
  150.6266  144.6728  158.0853 H   0  0  0  0  0  0  0  0  0  0  0  0
  151.1396  145.9274  160.1673 H   0  0  0  0  0  0  0  0  0  0  0  0
  152.4330  144.8500  161.9977 H   0  0  0  0  0  0  0  0  0  0  0  0
  153.2250  142.5012  161.7508 H   0  0  0  0  0  0  0  0  0  0  0  0
  152.9374  139.7705  161.0040 H   0  0  0  0  0  0  0  0  0  0  0  0
  153.3751  139.0355  159.4844 H   0  0  0  0  0  0  0  0  0  0  0  0
  155.5399  139.5454  160.0595 H   0  0  0  0  0  0  0  0  0  0  0  0
  155.1349  141.1927  159.5607 H   0  0  0  0  0  0  0  0  0  0  0  0
  156.0369  141.3055  163.9276 H   0  0  0  0  0  0  0  0  0  0  0  0
  156.2488  139.7131  165.8166 H   0  0  0  0  0  0  0  0  0  0  0  0
  155.4403  137.3791  165.5782 H   0  0  0  0  0  0  0  0  0  0  0  0
  154.4748  135.8464  162.3838 H   0  0  0  0  0  0  0  0  0  0  0  0
  153.1907  136.1804  163.5534 H   0  0  0  0  0  0  0  0  0  0  0  0
  154.7524  135.5581  164.1020 H   0  0  0  0  0  0  0  0  0  0  0  0
  154.1892  138.2018  161.5490 H   0  0  0  0  0  0  0  0  0  0  0  0
  1  2  1  0  0  0  0
  1 26  1  0  0  0  0
  1 27  1  0  0  0  0
  1 28  1  0  0  0  0
  2  3  2  0  0  0  0
  2  4  1  0  0  0  0
  4  5  1  0  0  0  0
  4 29  1  0  0  0  0
  5  6  1  0  0  0  0
  5 30  1  0  0  0  0
  5 31  1  0  0  0  0
  6  7  1  0  0  0  0
  6 32  1  0  0  0  0
  6 33  1  0  0  0  0
  7 15  1  0  0  0  0
  7  8  2  0  0  0  0
  8  9  1  0  0  0  0
  9 14  2  0  0  0  0
  9 10  1  0  0  0  0
 10 11  2  0  0  0  0
 10 34  1  0  0  0  0
 11 12  1  0  0  0  0
 11 35  1  0  0  0  0
 12 13  2  0  0  0  0
 12 36  1  0  0  0  0
 13 14  1  0  0  0  0
 13 37  1  0  0  0  0
 14 15  1  0  0  0  0
 15 16  1  0  0  0  0
 16 17  1  0  0  0  0
 16 38  1  0  0  0  0
 16 39  1  0  0  0  0
 17 18  1  0  0  0  0
 17 40  1  0  0  0  0
 17 41  1  0  0  0  0
 18 19  1  0  0  0  0
 19 25  1  0  0  0  0
 19 20  2  0  0  0  0
 20 21  1  0  0  0  0
 20 42  1  0  0  0  0
 21 22  2  0  0  0  0
 21 43  1  0  0  0  0
 22 23  1  0  0  0  0
 22 44  1  0  0  0  0
 23 24  1  0  0  0  0
 23 25  2  0  0  0  0
 24 45  1  0  0  0  0
 24 46  1  0  0  0  0
 24 47  1  0  0  0  0
 25 48  1  0  0  0  0
M  END
> <s_m_source_file>
AV-unprocessed.smi

> <i_m_source_file_index>
2961

> <i_lp_mmshare_version>
43012

> <i_f3d_flags>
0

> <s_epik_input>
W0NIM11DKD1PKVtOSF1bQ0gyXVtDSDJdYyhuMSluKGMoYzEyKVtjSF1bY0hdW2NIXVtjSF0yKVtDSDJdW0NIMl1PYzNbY0hdW2NIXVtjSF1jKFtDSDNdKVtjSF0z

> <s_epik_cmdline>
J2VwaWtfcHl0aG9uJywgJy1waCcsICc3LjAnLCAnLXRuJywgJzgnLCAnLW1hJywgJzIwMCcsICctbWV0YWxfYmluZGluZycsICctaW1hZScsICc8aW5maWxlLm1hZT4nLCAnLW9tYWUnLCAnPG91dGZpbGUubWFlPic=

> <r_lp_tautomer_probability>
1

> <r_epik_Ionization_Penalty>
0.0984942

> <r_epik_Ionization_Penalty_Charging>
0

> <r_epik_Ionization_Penalty_Neutral>
0.0984942

> <r_epik_State_Penalty>
0.0885769

> <r_epik_Charging_Adjusted_Penalty>
0.0885769

> <i_epik_Tot_Q>
0

> <i_epik_Tot_abs_Q>
0

> <r_epik_Metal_State_Penalty>
0.0758518

> <b_epik_Metal_Only>
0

> <s_lp_Force_Field>
OPLS_2005

> <r_lp_Energy>
13.474

> <b_lp_Chiralities_Consistent>
1

> <s_lp_Variant>
AV-unprocessed.smi:2961-1

> <Gold.Version>
5.8.1

> <Gold.Id.Protein>
6NUR|6NUR_protein|mol2

> <Gold.PLP.Fitness>
54.1160

> <Gold.PLP.PLP>
-53.3122

> <Gold.PLP.part.hbond>
-2.0000

> <Gold.PLP.part.metal>
0.0000

> <Gold.PLP.part.buried>
-7.4387

> <Gold.PLP.part.nonpolar>
-45.3569

> <Gold.PLP.part.repulsive>
0.1157

> <Gold.PLP.ligand.clash>
0.0000

> <Gold.PLP.ligand.torsion>
1.0426

> <Gold.PLP.Chemscore.Hbond>
0.8960

> <Gold.PLP.Chemscore.CHOScore>
0.0000

> <Gold.PLP.Chemscore.Metal>
0.0000

> <Gold.Chemscore.Hbonds>
donor molecule, donor type, donor heavy atom, donor atom, acceptor molecule, acceptor atom, score
      P1  H 10752 10763       L1     3  0.90

> <Gold.PLP.Chemscore.Internal.Correction>
0.2010

> <Gold.Rescore>
     Score         DG    S(hbond)    S(metal)    S(lipo)     H(rot)  DE(clash)    DE(int)     intcor
     18.77     -20.99       0.98        0.00     150.60       2.11       0.33       1.88       ----

> <Gold.Chemscore.Fitness>
18.7713

> <Gold.Chemscore.DG>
-20.9872

> <Gold.Chemscore.ZeroCoef>
-5.4800

> <Gold.Chemscore.Hbond>
0.9829

> <Gold.Chemscore.Metal>
0.0000

> <Gold.Chemscore.Lipo>
150.6021

> <Gold.Chemscore.Internal_Hbond>
0.0000

> <Gold.Chemscore.DEClash>
0.3341

> <Gold.Chemscore.DEInternal>
1.8819

> <Gold.Chemscore.Rot>
2.1078

> <Gold.Chemscore.Internal.Correction>
   9.000000E+99

> <Gold.Chemscore.Hbonds>
donor molecule, donor type, donor heavy atom, donor atom, acceptor molecule, acceptor atom, score
      P1  H 10752 10763       L1     3  0.85

> <Gold.Chemscore.Hbond.Weighted>
-3.2829

> <Gold.Chemscore.Metal.Weighted>
-0.0000

> <Gold.Chemscore.Lipo.Weighted>
-17.6204

> <Gold.Chemscore.Internal_Hbond.Weighted>
0.0000

> <Gold.Chemscore.DEClash.Weighted>
0.3341

> <Gold.Chemscore.DEInternal.Weighted>
1.8819

> <Gold.Chemscore.Rot.Weighted>
5.3961

> <Gold.Chemscore.Internal.Correction.Weighted>
   9.000000E+99

> <Gold.Protein.RotatedTorsions>
[ 6907 6896 6895 6894 ] final   72.80 input  -60.11 | X-H torsion
[ 7974 7965 7964 7962 ] final  -85.99 input  175.53 | X-H torsion
[ 8008 7997 7996 7995 ] final   83.52 input   59.86 | X-H torsion
[ 10167 10162 10161 10158 ] final -143.25 input  -65.29 | X-H torsion
[ 10718 10713 10712 10709 ] final  -79.26 input   66.30 | X-H torsion
[ 10763 10752 10751 10750 ] final   79.57 input  -60.55 | X-H torsion
[ 11005 11000 10999 10996 ] final  -87.22 input  -57.11 | X-H torsion

> <Gold.Protein.ActiveResidues>
 VAL166  LYS551  ARG553  GLY616  TRP617  ASP618  TYR619  PRO620  LYS621  CYS622 
 ASP623  PHE694  ASN695  SER759  ASP760  ASP761  ALA762  ILE779  LEU786  VAL792 
 PHE793  MET794  SER795  GLU796  ALA797  LYS798  CYS799  TRP800  GLU811  SER814 

> <Gold.Protein.RotatedAtoms>
  152.4888  134.4516  159.9576 H   0  0  0  0  0  0  0  0  0  0  0  0  # atno 6907 bound_to 6896
  151.4507  133.3612  159.2802 H   0  0  0  0  0  0  0  0  0  0  0  0  # atno 6908 bound_to 6896
  150.9023  134.8460  159.7429 H   0  0  0  0  0  0  0  0  0  0  0  0  # atno 6909 bound_to 6896
  145.4859  140.9555  143.1838 H   0  0  0  0  0  0  0  0  0  0  0  0  # atno 7974 bound_to 7965
  155.9250  140.3418  155.6203 H   0  0  0  0  0  0  0  0  0  0  0  0  # atno 8008 bound_to 7997
  155.7227  140.0785  157.2342 H   0  0  0  0  0  0  0  0  0  0  0  0  # atno 8009 bound_to 7997
  154.4076  140.1602  156.2407 H   0  0  0  0  0  0  0  0  0  0  0  0  # atno 8010 bound_to 7997
  139.8011  143.7831  152.2658 H   0  0  0  0  0  0  0  0  0  0  0  0  # atno 10167 bound_to 10162
  156.0097  130.4540  150.3621 H   0  0  0  0  0  0  0  0  0  0  0  0  # atno 10718 bound_to 10713
  153.0963  135.4835  154.8785 H   0  0  0  0  0  0  0  0  0  0  0  0  # atno 10763 bound_to 10752
  154.7328  135.3064  154.8864 H   0  0  0  0  0  0  0  0  0  0  0  0  # atno 10764 bound_to 10752
  153.9495  135.6825  153.4797 H   0  0  0  0  0  0  0  0  0  0  0  0  # atno 10765 bound_to 10752
  141.1620  133.7499  156.9275 H   0  0  0  0  0  0  0  0  0  0  0  0  # atno 11005 bound_to 11000
  144.7862  139.6423  143.7133 LP  0  0  0  0  0  0  0  0  0  0  0  0  # atno 17320 bound_to 7965
  146.2313  139.5819  142.9553 LP  0  0  0  0  0  0  0  0  0  0  0  0  # atno 17321 bound_to 7965
  139.7952  144.7395  150.9900 LP  0  0  0  0  0  0  0  0  0  0  0  0  # atno 17342 bound_to 10162
  140.7820  143.4401  151.0564 LP  0  0  0  0  0  0  0  0  0  0  0  0  # atno 17343 bound_to 10162
  157.1709  131.0368  151.2796 LP  0  0  0  0  0  0  0  0  0  0  0  0  # atno 17370 bound_to 10713
  157.4230  130.7448  149.6928 LP  0  0  0  0  0  0  0  0  0  0  0  0  # atno 17371 bound_to 10713
  140.1409  134.9294  157.2465 LP  0  0  0  0  0  0  0  0  0  0  0  0  # atno 17394 bound_to 11000
  140.2838  134.3319  155.7335 LP  0  0  0  0  0  0  0  0  0  0  0  0  # atno 17395 bound_to 11000

$$$$
