AV-unprocessed.smi:3238|AV-procd|sdf|12375|dock7
  -GOLD-   2272018233D 1   1.00000     0.00000
 Structure written by MMmdl.
 37 39  0  0  0  0  0  0  0  0  1 V2000
  149.8897  135.2860  154.9576 C   0  0  0  0  0  0  0  0  0  0  0  0
  150.5429  136.5461  154.6399 N   0  0  0  0  0  0  0  0  0  0  0  0
  151.5129  137.1029  155.3808 C   0  0  0  0  0  0  0  0  0  0  0  0
  151.9605  136.5879  156.4054 O   0  0  0  0  0  0  0  0  0  0  0  0
  152.0692  138.4414  154.8905 C   0  0  0  0  0  0  0  0  0  0  0  0
  151.7378  139.5370  155.8530 C   0  0  0  0  0  0  0  0  0  0  0  0
  150.9763  140.5649  155.4959 N   0  0  0  0  0  0  0  0  0  0  0  0
  150.9273  141.3507  156.6562 O   0  0  0  0  0  0  0  0  0  0  0  0
  151.6536  140.6842  157.5849 C   0  0  0  0  0  0  0  0  0  0  0  0
  151.8509  141.3034  158.9284 C   0  0  0  0  0  0  0  0  0  0  0  0
  152.6262  142.6334  158.8579 C   0  0  2  0  0  0  0  0  0  0  0  0
  152.7026  143.4221  160.1837 C   0  0  0  0  0  0  0  0  0  0  0  0
  152.2594  144.8369  159.7657 C   0  0  2  0  0  0  0  0  0  0  0  0
  150.7388  144.8364  159.5252 C   0  0  0  0  0  0  0  0  0  0  0  0
  150.6072  144.0606  158.2015 C   0  0  0  0  0  0  0  0  0  0  0  0
  152.0681  143.6879  157.8743 C   0  0  1  0  0  0  0  0  0  0  0  0
  152.8020  144.9403  158.3439 C   0  0  0  0  0  0  0  0  0  0  0  0
  152.1893  139.5513  157.1383 N   0  0  0  0  0  0  0  0  0  0  0  0
  149.1635  135.0384  154.1834 H   0  0  0  0  0  0  0  0  0  0  0  0
  149.3632  135.3527  155.9105 H   0  0  0  0  0  0  0  0  0  0  0  0
  150.6157  134.4739  155.0164 H   0  0  0  0  0  0  0  0  0  0  0  0
  150.2303  137.0339  153.8126 H   0  0  0  0  0  0  0  0  0  0  0  0
  153.1513  138.3705  154.7700 H   0  0  0  0  0  0  0  0  0  0  0  0
  151.6561  138.6770  153.9088 H   0  0  0  0  0  0  0  0  0  0  0  0
  150.8700  141.4705  159.3744 H   0  0  0  0  0  0  0  0  0  0  0  0
  152.3655  140.5828  159.5640 H   0  0  0  0  0  0  0  0  0  0  0  0
  153.6439  142.4043  158.5360 H   0  0  0  0  0  0  0  0  0  0  0  0
  152.0612  143.0104  160.9640 H   0  0  0  0  0  0  0  0  0  0  0  0
  153.7243  143.4271  160.5654 H   0  0  0  0  0  0  0  0  0  0  0  0
  152.5936  145.6198  160.4470 H   0  0  0  0  0  0  0  0  0  0  0  0
  150.1904  144.3638  160.3408 H   0  0  0  0  0  0  0  0  0  0  0  0
  150.3608  145.8533  159.4124 H   0  0  0  0  0  0  0  0  0  0  0  0
  149.9456  143.1989  158.2797 H   0  0  0  0  0  0  0  0  0  0  0  0
  150.1992  144.7094  157.4254 H   0  0  0  0  0  0  0  0  0  0  0  0
  152.2290  143.4331  156.8264 H   0  0  0  0  0  0  0  0  0  0  0  0
  152.4873  145.8475  157.8250 H   0  0  0  0  0  0  0  0  0  0  0  0
  153.8889  144.8558  158.2877 H   0  0  0  0  0  0  0  0  0  0  0  0
  1  2  1  0  0  0  0
  1 19  1  0  0  0  0
  1 20  1  0  0  0  0
  1 21  1  0  0  0  0
  2  3  1  0  0  0  0
  2 22  1  0  0  0  0
  3  4  2  0  0  0  0
  3  5  1  0  0  0  0
  5  6  1  0  0  0  0
  5 23  1  0  0  0  0
  5 24  1  0  0  0  0
  6 18  1  0  0  0  0
  6  7  2  0  0  0  0
  7  8  1  0  0  0  0
  8  9  1  0  0  0  0
  9 10  1  0  0  0  0
  9 18  2  0  0  0  0
 10 11  1  0  0  0  0
 10 25  1  0  0  0  0
 10 26  1  0  0  0  0
 11 16  1  0  0  0  0
 11 12  1  0  0  0  0
 11 27  1  0  0  0  0
 12 13  1  0  0  0  0
 12 28  1  0  0  0  0
 12 29  1  0  0  0  0
 13 17  1  0  0  0  0
 13 14  1  0  0  0  0
 13 30  1  0  0  0  0
 14 15  1  0  0  0  0
 14 31  1  0  0  0  0
 14 32  1  0  0  0  0
 15 16  1  0  0  0  0
 15 33  1  0  0  0  0
 15 34  1  0  0  0  0
 16 17  1  0  0  0  0
 16 35  1  0  0  0  0
 17 36  1  0  0  0  0
 17 37  1  0  0  0  0
M  END
> <s_m_source_file>
AV-unprocessed.smi

> <i_m_source_file_index>
3238

> <i_lp_mmshare_version>
43012

> <i_f3d_flags>
0

> <s_epik_input>
W0NIM11bTkhdQyg9TylbQ0gyXWMxbm9jKG4xKVtDSDJdW0NASF0oW0NIMl1bQ0BIXTIzKVtDQEhdKFtDSDJdMylbQ0gyXVtDSDJdMg==

> <s_epik_cmdline>
J2VwaWtfcHl0aG9uJywgJy1waCcsICc3LjAnLCAnLXRuJywgJzgnLCAnLW1hJywgJzIwMCcsICctbWV0YWxfYmluZGluZycsICctaW1hZScsICc8aW5maWxlLm1hZT4nLCAnLW9tYWUnLCAnPG91dGZpbGUubWFlPic=

> <r_lp_tautomer_probability>
1

> <r_epik_Ionization_Penalty>
1.02915e-07

> <r_epik_Ionization_Penalty_Charging>
0

> <r_epik_Ionization_Penalty_Neutral>
1.02915e-07

> <r_epik_State_Penalty>
-0

> <r_epik_Charging_Adjusted_Penalty>
0

> <i_epik_Tot_Q>
0

> <i_epik_Tot_abs_Q>
0

> <r_epik_Metal_State_Penalty>
-0

> <b_epik_Metal_Only>
0

> <s_lp_Force_Field>
OPLS_2005

> <r_lp_Energy>
47.7222

> <b_lp_Chiralities_Consistent>
1

> <s_lp_Variant>
AV-unprocessed.smi:3238-1

> <Gold.Version>
5.8.1

> <Gold.Id.Protein>
6NUR|6NUR_protein|mol2

> <Gold.PLP.Fitness>
48.5592

> <Gold.PLP.PLP>
-42.4604

> <Gold.PLP.part.hbond>
-4.3712

> <Gold.PLP.part.metal>
0.0000

> <Gold.PLP.part.buried>
-4.6343

> <Gold.PLP.part.nonpolar>
-34.3256

> <Gold.PLP.part.repulsive>
0.1859

> <Gold.PLP.ligand.clash>
0.0000

> <Gold.PLP.ligand.torsion>
0.1018

> <Gold.PLP.Chemscore.Hbond>
2.0959

> <Gold.PLP.Chemscore.CHOScore>
0.0000

> <Gold.PLP.Chemscore.Metal>
0.0000

> <Gold.Chemscore.Hbonds>
donor molecule, donor type, donor heavy atom, donor atom, acceptor molecule, acceptor atom, score
      L1  H     2    22       P1  7948  0.01
      P1  H  7989  7998       L1     7  0.71
      P1  H  7997  8010       L1    18  0.28
      P1  H 10752 10764       L1     4  0.27

> <Gold.PLP.Chemscore.Internal.Correction>
0.0145

> <Gold.Rescore>
     Score         DG    S(hbond)    S(metal)    S(lipo)     H(rot)  DE(clash)    DE(int)     intcor
     16.20     -17.69       1.41        0.00     104.59       1.85       0.00       1.49       ----

> <Gold.Chemscore.Fitness>
16.1974

> <Gold.Chemscore.DG>
-17.6896

> <Gold.Chemscore.ZeroCoef>
-5.4800

> <Gold.Chemscore.Hbond>
1.4090

> <Gold.Chemscore.Metal>
0.0000

> <Gold.Chemscore.Lipo>
104.5923

> <Gold.Chemscore.Internal_Hbond>
0.0000

> <Gold.Chemscore.DEClash>
0.0000

> <Gold.Chemscore.DEInternal>
1.4921

> <Gold.Chemscore.Rot>
1.8492

> <Gold.Chemscore.Internal.Correction>
   9.000000E+99

> <Gold.Chemscore.Hbonds>
donor molecule, donor type, donor heavy atom, donor atom, acceptor molecule, acceptor atom, score
      L1  H     2    22       P1  7948  0.01
      P1  H  7989  7998       L1     7  0.20
      P1  H  7997  8010       L1    18  0.03
      P1  H 10752 10764       L1     4  0.01

> <Gold.Chemscore.Hbond.Weighted>
-4.7062

> <Gold.Chemscore.Metal.Weighted>
-0.0000

> <Gold.Chemscore.Lipo.Weighted>
-12.2373

> <Gold.Chemscore.Internal_Hbond.Weighted>
0.0000

> <Gold.Chemscore.DEClash.Weighted>
0.0000

> <Gold.Chemscore.DEInternal.Weighted>
1.4921

> <Gold.Chemscore.Rot.Weighted>
4.7340

> <Gold.Chemscore.Internal.Correction.Weighted>
   9.000000E+99

> <Gold.Protein.RotatedTorsions>
[ 6907 6896 6895 6894 ] final   16.30 input  -60.11 | X-H torsion
[ 7974 7965 7964 7962 ] final  153.03 input  175.53 | X-H torsion
[ 8008 7997 7996 7995 ] final   56.36 input   59.86 | X-H torsion
[ 10167 10162 10161 10158 ] final   82.25 input  -65.29 | X-H torsion
[ 10718 10713 10712 10709 ] final  -39.09 input   66.30 | X-H torsion
[ 10763 10752 10751 10750 ] final  -22.39 input  -60.55 | X-H torsion
[ 11005 11000 10999 10996 ] final -139.15 input  -57.11 | X-H torsion

> <Gold.Protein.ActiveResidues>
 VAL166  LYS551  ARG553  GLY616  TRP617  ASP618  TYR619  PRO620  LYS621  CYS622 
 ASP623  PHE694  ASN695  SER759  ASP760  ASP761  ALA762  ILE779  LEU786  VAL792 
 PHE793  MET794  SER795  GLU796  ALA797  LYS798  CYS799  TRP800  GLU811  SER814 

> <Gold.Protein.RotatedAtoms>
  151.8317  135.0619  160.0437 H   0  0  0  0  0  0  0  0  0  0  0  0  # atno 6907 bound_to 6896
  152.2875  133.5525  159.5545 H   0  0  0  0  0  0  0  0  0  0  0  0  # atno 6908 bound_to 6896
  150.7216  134.0392  159.3802 H   0  0  0  0  0  0  0  0  0  0  0  0  # atno 6909 bound_to 6896
  144.8182  139.6746  143.6112 H   0  0  0  0  0  0  0  0  0  0  0  0  # atno 7974 bound_to 7965
  155.5162  140.3478  155.4398 H   0  0  0  0  0  0  0  0  0  0  0  0  # atno 8008 bound_to 7997
  156.0816  140.1388  156.9733 H   0  0  0  0  0  0  0  0  0  0  0  0  # atno 8009 bound_to 7997
  154.4583  140.0945  156.6796 H   0  0  0  0  0  0  0  0  0  0  0  0  # atno 8010 bound_to 7997
  139.9308  144.6153  150.8347 H   0  0  0  0  0  0  0  0  0  0  0  0  # atno 10167 bound_to 10162
  156.2963  130.4234  149.8187 H   0  0  0  0  0  0  0  0  0  0  0  0  # atno 10718 bound_to 10713
  153.6512  135.6981  153.5208 H   0  0  0  0  0  0  0  0  0  0  0  0  # atno 10763 bound_to 10752
  153.2705  135.4216  155.0982 H   0  0  0  0  0  0  0  0  0  0  0  0  # atno 10764 bound_to 10752
  154.8476  135.3577  154.6056 H   0  0  0  0  0  0  0  0  0  0  0  0  # atno 10765 bound_to 10752
  140.8547  134.2242  157.4741 H   0  0  0  0  0  0  0  0  0  0  0  0  # atno 11005 bound_to 11000
  146.2486  139.6152  142.9442 LP  0  0  0  0  0  0  0  0  0  0  0  0  # atno 17320 bound_to 7965
  145.5165  141.0433  143.2459 LP  0  0  0  0  0  0  0  0  0  0  0  0  # atno 17321 bound_to 7965
  140.7638  143.3232  151.2575 LP  0  0  0  0  0  0  0  0  0  0  0  0  # atno 17342 bound_to 10162
  139.6784  143.9897  152.2794 LP  0  0  0  0  0  0  0  0  0  0  0  0  # atno 17343 bound_to 10162
  156.5582  130.8372  151.3320 LP  0  0  0  0  0  0  0  0  0  0  0  0  # atno 17370 bound_to 10713
  157.7356  130.9765  150.2091 LP  0  0  0  0  0  0  0  0  0  0  0  0  # atno 17371 bound_to 10713
  139.8705  134.9701  156.4688 LP  0  0  0  0  0  0  0  0  0  0  0  0  # atno 17394 bound_to 11000
  140.8750  133.7960  155.9405 LP  0  0  0  0  0  0  0  0  0  0  0  0  # atno 17395 bound_to 11000

$$$$
