AV-unprocessed.smi:338|AV-procd|sdf|2377|dock2
  -GOLD-   2262022303D 1   1.00000     0.00000
 Structure written by MMmdl.
 42 44  0  0  0  0  0  0  0  0  2 V2000
  147.3923  134.2998  161.4373 C   0  0  0  0  0  0  0  0  0  0  0  0
  147.6910  135.6567  160.8019 C   0  0  0  0  0  0  0  0  0  0  0  0
  147.4518  136.6761  161.4486 O   0  0  0  0  0  0  0  0  0  0  0  0
  148.2628  135.6698  159.4247 C   0  0  0  0  0  0  0  0  0  0  0  0
  148.0248  134.6154  158.5126 C   0  0  0  0  0  0  0  0  0  0  0  0
  148.5761  134.6573  157.2191 C   0  0  0  0  0  0  0  0  0  0  0  0
  149.3689  135.7499  156.8244 C   0  0  0  0  0  0  0  0  0  0  0  0
  149.6209  136.8128  157.7134 C   0  0  0  0  0  0  0  0  0  0  0  0
  150.4078  137.8432  157.2449 O   0  0  0  0  0  0  0  0  0  0  0  0
  150.6730  138.9386  158.1113 C   0  0  0  0  0  0  0  0  0  0  0  0
  152.1929  139.1268  158.2176 C   0  0  1  0  0  0  0  0  0  0  0  0
  152.7144  139.3561  156.9234 O   0  0  0  0  0  0  0  0  0  0  0  0
  152.5777  140.2967  159.1453 C   0  0  0  0  0  0  0  0  0  0  0  0
  151.9062  141.5515  158.7850 N   0  0  0  0  0  0  0  0  0  0  0  0
  151.2583  141.9014  157.6409 C   0  0  0  0  0  0  0  0  0  0  0  0
  150.8108  143.1785  157.7967 N   0  3  0  0  0  0  0  0  0  0  0  0
  151.1787  143.6510  159.0588 C   0  0  0  0  0  0  0  0  0  0  0  0
  150.9563  144.8789  159.6743 C   0  0  0  0  0  0  0  0  0  0  0  0
  151.4708  145.0355  160.9784 C   0  0  0  0  0  0  0  0  0  0  0  0
  152.1747  143.9959  161.6209 C   0  0  0  0  0  0  0  0  0  0  0  0
  152.3943  142.7547  160.9876 C   0  0  0  0  0  0  0  0  0  0  0  0
  151.8822  142.6092  159.6991 C   0  0  0  0  0  0  0  0  0  0  0  0
  149.0606  136.7640  159.0151 C   0  0  0  0  0  0  0  0  0  0  0  0
  146.6447  133.7613  160.8548 H   0  0  0  0  0  0  0  0  0  0  0  0
  147.0073  134.4288  162.4493 H   0  0  0  0  0  0  0  0  0  0  0  0
  148.2980  133.6957  161.4928 H   0  0  0  0  0  0  0  0  0  0  0  0
  147.4202  133.7626  158.7826 H   0  0  0  0  0  0  0  0  0  0  0  0
  148.3902  133.8489  156.5274 H   0  0  0  0  0  0  0  0  0  0  0  0
  149.7884  135.7722  155.8293 H   0  0  0  0  0  0  0  0  0  0  0  0
  150.2202  139.8423  157.6996 H   0  0  0  0  0  0  0  0  0  0  0  0
  150.2461  138.7642  159.1006 H   0  0  0  0  0  0  0  0  0  0  0  0
  152.6362  138.2018  158.5876 H   0  0  0  0  0  0  0  0  0  0  0  0
  153.6440  139.1849  156.9400 H   0  0  0  0  0  0  0  0  0  0  0  0
  152.3112  140.0662  160.1777 H   0  0  0  0  0  0  0  0  0  0  0  0
  153.6547  140.4696  159.1349 H   0  0  0  0  0  0  0  0  0  0  0  0
  151.1268  141.2797  156.7670 H   0  0  0  0  0  0  0  0  0  0  0  0
  150.4182  145.6773  159.1847 H   0  0  0  0  0  0  0  0  0  0  0  0
  151.3231  145.9722  161.4961 H   0  0  0  0  0  0  0  0  0  0  0  0
  152.5545  144.1532  162.6201 H   0  0  0  0  0  0  0  0  0  0  0  0
  152.9352  141.9637  161.4860 H   0  0  0  0  0  0  0  0  0  0  0  0
  149.2372  137.5663  159.7153 H   0  0  0  0  0  0  0  0  0  0  0  0
  150.2941  143.6878  157.0913 H   0  0  0  0  0  0  0  0  0  0  0  0
  1  2  1  0  0  0  0
  1 24  1  0  0  0  0
  1 25  1  0  0  0  0
  1 26  1  0  0  0  0
  2  3  2  0  0  0  0
  2  4  1  0  0  0  0
  4 23  1  0  0  0  0
  4  5  2  0  0  0  0
  5  6  1  0  0  0  0
  5 27  1  0  0  0  0
  6  7  2  0  0  0  0
  6 28  1  0  0  0  0
  7  8  1  0  0  0  0
  7 29  1  0  0  0  0
  8  9  1  0  0  0  0
  8 23  2  0  0  0  0
  9 10  1  0  0  0  0
 10 11  1  0  0  0  0
 10 30  1  0  0  0  0
 10 31  1  0  0  0  0
 11 12  1  0  0  0  0
 11 13  1  0  0  0  0
 11 32  1  0  0  0  0
 12 33  1  0  0  0  0
 13 14  1  0  0  0  0
 13 34  1  0  0  0  0
 13 35  1  0  0  0  0
 14 22  1  0  0  0  0
 14 15  1  0  0  0  0
 15 16  2  0  0  0  0
 15 36  1  0  0  0  0
 16 17  1  0  0  0  0
 16 42  1  0  0  0  0
 17 22  2  0  0  0  0
 17 18  1  0  0  0  0
 18 19  2  0  0  0  0
 18 37  1  0  0  0  0
 19 20  1  0  0  0  0
 19 38  1  0  0  0  0
 20 21  2  0  0  0  0
 20 39  1  0  0  0  0
 21 22  1  0  0  0  0
 21 40  1  0  0  0  0
 23 41  1  0  0  0  0
M  CHG  1  16   1
M  END
> <s_m_source_file>
AV-unprocessed.smi

> <i_m_source_file_index>
338

> <i_lp_mmshare_version>
43012

> <i_f3d_flags>
0

> <s_epik_input>
W0NIM11DKD1PKWMxW2NIXVtjSF1bY0hdYyhbY0hdMSlPW0NIMl1bQ0BIXShbT0hdKVtDSDJdbihbY0hdbjIpYyhjMjMpW2NIXVtjSF1bY0hdW2NIXTM=

> <s_epik_cmdline>
J2VwaWtfcHl0aG9uJywgJy1waCcsICc3LjAnLCAnLXRuJywgJzgnLCAnLW1hJywgJzIwMCcsICctbWV0YWxfYmluZGluZycsICctaW1hZScsICc8aW5maWxlLm1hZT4nLCAnLW9tYWUnLCAnPG91dGZpbGUubWFlPic=

> <r_lp_tautomer_probability>
0.99995

> <r_epik_Ionization_Penalty>
1.35015

> <r_epik_Ionization_Penalty_Charging>
1.35015

> <r_epik_Ionization_Penalty_Neutral>
2.3993e-06

> <r_epik_State_Penalty>
1.42814

> <r_epik_Charging_Adjusted_Penalty>
2.77829

> <i_epik_Tot_Q>
1

> <i_epik_Tot_abs_Q>
1

> <r_epik_Metal_State_Penalty>
5.46522

> <b_epik_Metal_Only>
0

> <s_lp_Force_Field>
OPLS_2005

> <r_lp_Energy>
25.8652

> <b_lp_Chiralities_Consistent>
1

> <s_lp_Variant>
AV-unprocessed.smi:338-4

> <Gold.Version>
5.8.1

> <Gold.Id.Protein>
6NUR|6NUR_protein|mol2

> <Gold.PLP.Fitness>
57.9366

> <Gold.PLP.PLP>
-48.5929

> <Gold.PLP.part.hbond>
-4.0000

> <Gold.PLP.part.metal>
0.0000

> <Gold.PLP.part.buried>
-7.4053

> <Gold.PLP.part.nonpolar>
-37.1542

> <Gold.PLP.part.repulsive>
0.0099

> <Gold.PLP.ligand.clash>
0.0000

> <Gold.PLP.ligand.torsion>
0.9027

> <Gold.PLP.Chemscore.Hbond>
3.6734

> <Gold.PLP.Chemscore.CHOScore>
0.0000

> <Gold.PLP.Chemscore.Metal>
0.0000

> <Gold.Chemscore.Hbonds>
donor molecule, donor type, donor heavy atom, donor atom, acceptor molecule, acceptor atom, score
      L1  H    16    42       P1  8028  0.94
      P1  H  6931  6943       L1     3  0.39
      P1  H  6934  6947       L1     3  0.03

> <Gold.PLP.Chemscore.Internal.Correction>
0.1289

> <Gold.Rescore>
     Score         DG    S(hbond)    S(metal)    S(lipo)     H(rot)  DE(clash)    DE(int)     intcor
     18.29     -20.21       2.73        0.00     102.39       2.48       0.01       1.91       ----

> <Gold.Chemscore.Fitness>
18.2887

> <Gold.Chemscore.DG>
-20.2108

> <Gold.Chemscore.ZeroCoef>
-5.4800

> <Gold.Chemscore.Hbond>
2.7279

> <Gold.Chemscore.Metal>
0.0000

> <Gold.Chemscore.Lipo>
102.3867

> <Gold.Chemscore.Internal_Hbond>
0.0000

> <Gold.Chemscore.DEClash>
0.0144

> <Gold.Chemscore.DEInternal>
1.9077

> <Gold.Chemscore.Rot>
2.4842

> <Gold.Chemscore.Internal.Correction>
   9.000000E+99

> <Gold.Chemscore.Hbonds>
donor molecule, donor type, donor heavy atom, donor atom, acceptor molecule, acceptor atom, score
      L1  H    16    42       P1  8028  0.47
      P1  H  6931  6943       L1     3  0.39
      P1  H  6934  6947       L1     3  0.08

> <Gold.Chemscore.Hbond.Weighted>
-9.1110

> <Gold.Chemscore.Metal.Weighted>
-0.0000

> <Gold.Chemscore.Lipo.Weighted>
-11.9792

> <Gold.Chemscore.Internal_Hbond.Weighted>
0.0000

> <Gold.Chemscore.DEClash.Weighted>
0.0144

> <Gold.Chemscore.DEInternal.Weighted>
1.9077

> <Gold.Chemscore.Rot.Weighted>
6.3594

> <Gold.Chemscore.Internal.Correction.Weighted>
   9.000000E+99

> <Gold.Protein.RotatedTorsions>
[ 6907 6896 6895 6894 ] final    6.44 input  -60.11 | X-H torsion
[ 7974 7965 7964 7962 ] final  160.64 input  175.53 | X-H torsion
[ 8008 7997 7996 7995 ] final -164.03 input   59.86 | X-H torsion
[ 10167 10162 10161 10158 ] final   92.52 input  -65.29 | X-H torsion
[ 10718 10713 10712 10709 ] final  165.45 input   66.30 | X-H torsion
[ 10763 10752 10751 10750 ] final  107.13 input  -60.55 | X-H torsion
[ 11005 11000 10999 10996 ] final  -84.73 input  -57.11 | X-H torsion

> <Gold.Protein.ActiveResidues>
 VAL166  LYS551  ARG553  GLY616  TRP617  ASP618  TYR619  PRO620  LYS621  CYS622 
 ASP623  PHE694  ASN695  SER759  ASP760  ASP761  ALA762  ILE779  LEU786  VAL792 
 PHE793  MET794  SER795  GLU796  ALA797  LYS798  CYS799  TRP800  GLU811  SER814 

> <Gold.Protein.RotatedAtoms>
  151.6737  135.0972  160.0202 H   0  0  0  0  0  0  0  0  0  0  0  0  # atno 6907 bound_to 6896
  152.3876  133.6629  159.6220 H   0  0  0  0  0  0  0  0  0  0  0  0  # atno 6908 bound_to 6896
  150.7798  133.8925  159.3359 H   0  0  0  0  0  0  0  0  0  0  0  0  # atno 6909 bound_to 6896
  144.7727  139.7785  143.6291 H   0  0  0  0  0  0  0  0  0  0  0  0  # atno 7974 bound_to 7965
  155.8298  140.0932  157.1799 H   0  0  0  0  0  0  0  0  0  0  0  0  # atno 8008 bound_to 7997
  154.3979  140.1421  156.3661 H   0  0  0  0  0  0  0  0  0  0  0  0  # atno 8009 bound_to 7997
  155.8178  140.3447  155.5498 H   0  0  0  0  0  0  0  0  0  0  0  0  # atno 8010 bound_to 7997
  139.8268  144.6705  150.9449 H   0  0  0  0  0  0  0  0  0  0  0  0  # atno 10167 bound_to 10162
  157.0799  131.0389  151.2579 H   0  0  0  0  0  0  0  0  0  0  0  0  # atno 10718 bound_to 10713
  153.4024  135.3854  155.1996 H   0  0  0  0  0  0  0  0  0  0  0  0  # atno 10763 bound_to 10752
  154.8730  135.3774  154.4602 H   0  0  0  0  0  0  0  0  0  0  0  0  # atno 10764 bound_to 10752
  153.5101  135.7087  153.5847 H   0  0  0  0  0  0  0  0  0  0  0  0  # atno 10765 bound_to 10752
  141.1648  133.7361  156.8910 H   0  0  0  0  0  0  0  0  0  0  0  0  # atno 11005 bound_to 11000
  146.1884  139.5112  142.9821 LP  0  0  0  0  0  0  0  0  0  0  0  0  # atno 17320 bound_to 7965
  145.6277  141.0310  143.1880 LP  0  0  0  0  0  0  0  0  0  0  0  0  # atno 17321 bound_to 7965
  140.7809  143.4038  151.1104 LP  0  0  0  0  0  0  0  0  0  0  0  0  # atno 17342 bound_to 10162
  139.7695  143.8515  152.3117 LP  0  0  0  0  0  0  0  0  0  0  0  0  # atno 17343 bound_to 10162
  157.4808  130.7764  149.7412 LP  0  0  0  0  0  0  0  0  0  0  0  0  # atno 17370 bound_to 10713
  155.9926  130.3929  150.2934 LP  0  0  0  0  0  0  0  0  0  0  0  0  # atno 17371 bound_to 10713
  140.1648  134.9140  157.2760 LP  0  0  0  0  0  0  0  0  0  0  0  0  # atno 17394 bound_to 11000
  140.2569  134.3617  155.7421 LP  0  0  0  0  0  0  0  0  0  0  0  0  # atno 17395 bound_to 11000

$$$$
