AV-unprocessed.smi:1623|AV-procd|sdf|6501|dock5
  -GOLD-   22720 7163D 1   1.00000     0.00000
 Structure written by MMmdl.
 42 43  0  0  0  0  0  0  0  0  1 V2000
  146.5964  137.2611  162.7271 C   0  0  0  0  0  0  0  0  0  0  0  0
  147.1917  136.3768  161.6650 C   0  0  0  0  0  0  0  0  0  0  0  0
  148.0164  136.9354  160.8412 N   0  0  0  0  0  0  0  0  0  0  0  0
  148.6165  136.2165  159.8256 N   0  0  0  0  0  0  0  0  0  0  0  0
  149.5205  137.0104  158.9857 C   0  0  0  0  0  0  0  0  0  0  0  0
  148.7772  138.1397  158.2385 C   0  0  2  0  0  0  0  0  0  0  0  0
  147.8209  137.6102  157.3431 O   0  0  0  0  0  0  0  0  0  0  0  0
  149.7259  139.0367  157.4275 C   0  0  0  0  0  0  0  0  0  0  0  0
  150.0594  140.1902  158.1883 O   0  0  0  0  0  0  0  0  0  0  0  0
  151.0489  141.0160  157.5922 C   0  0  0  0  0  0  0  0  0  0  0  0
  151.5200  142.1399  158.5043 C   0  0  0  0  0  0  0  0  0  0  0  0
  150.9886  143.4366  158.3342 C   0  0  0  0  0  0  0  0  0  0  0  0
  151.4054  144.4927  159.1667 C   0  0  0  0  0  0  0  0  0  0  0  0
  152.3601  144.2596  160.1738 C   0  0  0  0  0  0  0  0  0  0  0  0
  152.8989  142.9706  160.3457 C   0  0  0  0  0  0  0  0  0  0  0  0
  152.4854  141.9101  159.5145 C   0  0  0  0  0  0  0  0  0  0  0  0
  153.1772  140.3441  159.7561 Cl  0  0  0  0  0  0  0  0  0  0  0  0
  148.4048  134.8922  159.5811 C   0  0  0  0  0  0  0  0  0  0  0  0
  148.9518  134.2917  158.6550 O   0  0  0  0  0  0  0  0  0  0  0  0
  147.4733  134.2643  160.5210 C   0  0  0  0  0  0  0  0  0  0  0  0
  147.2241  132.8760  160.3035 C   0  0  0  0  0  0  0  0  0  0  0  0
  147.0367  131.7448  160.1435 N   0  0  0  0  0  0  0  0  0  0  0  0
  146.8864  134.9559  161.5296 C   0  0  0  0  0  0  0  0  0  0  0  0
  145.9122  134.3481  162.5295 C   0  0  0  0  0  0  0  0  0  0  0  0
  145.5099  137.1754  162.7408 H   0  0  0  0  0  0  0  0  0  0  0  0
  146.8386  138.3125  162.5634 H   0  0  0  0  0  0  0  0  0  0  0  0
  146.9708  136.9847  163.7129 H   0  0  0  0  0  0  0  0  0  0  0  0
  150.2739  137.4549  159.6392 H   0  0  0  0  0  0  0  0  0  0  0  0
  150.0895  136.3879  158.2925 H   0  0  0  0  0  0  0  0  0  0  0  0
  148.2444  138.7715  158.9504 H   0  0  0  0  0  0  0  0  0  0  0  0
  148.1457  136.7864  157.0127 H   0  0  0  0  0  0  0  0  0  0  0  0
  150.6257  138.4957  157.1301 H   0  0  0  0  0  0  0  0  0  0  0  0
  149.2162  139.3348  156.5105 H   0  0  0  0  0  0  0  0  0  0  0  0
  151.9100  140.3918  157.3521 H   0  0  0  0  0  0  0  0  0  0  0  0
  150.6837  141.4102  156.6425 H   0  0  0  0  0  0  0  0  0  0  0  0
  150.2541  143.6261  157.5653 H   0  0  0  0  0  0  0  0  0  0  0  0
  150.9925  145.4817  159.0322 H   0  0  0  0  0  0  0  0  0  0  0  0
  152.6806  145.0690  160.8130 H   0  0  0  0  0  0  0  0  0  0  0  0
  153.6333  142.7958  161.1183 H   0  0  0  0  0  0  0  0  0  0  0  0
  145.8784  133.2612  162.4609 H   0  0  0  0  0  0  0  0  0  0  0  0
  144.9044  134.7242  162.3520 H   0  0  0  0  0  0  0  0  0  0  0  0
  146.1977  134.5962  163.5523 H   0  0  0  0  0  0  0  0  0  0  0  0
  1  2  1  0  0  0  0
  1 25  1  0  0  0  0
  1 26  1  0  0  0  0
  1 27  1  0  0  0  0
  2 23  1  0  0  0  0
  2  3  2  0  0  0  0
  3  4  1  0  0  0  0
  4  5  1  0  0  0  0
  4 18  1  0  0  0  0
  5  6  1  0  0  0  0
  5 28  1  0  0  0  0
  5 29  1  0  0  0  0
  6  7  1  0  0  0  0
  6  8  1  0  0  0  0
  6 30  1  0  0  0  0
  7 31  1  0  0  0  0
  8  9  1  0  0  0  0
  8 32  1  0  0  0  0
  8 33  1  0  0  0  0
  9 10  1  0  0  0  0
 10 11  1  0  0  0  0
 10 34  1  0  0  0  0
 10 35  1  0  0  0  0
 11 16  1  0  0  0  0
 11 12  2  0  0  0  0
 12 13  1  0  0  0  0
 12 36  1  0  0  0  0
 13 14  2  0  0  0  0
 13 37  1  0  0  0  0
 14 15  1  0  0  0  0
 14 38  1  0  0  0  0
 15 16  2  0  0  0  0
 15 39  1  0  0  0  0
 16 17  1  0  0  0  0
 18 19  2  0  0  0  0
 18 20  1  0  0  0  0
 20 21  1  0  0  0  0
 20 23  2  0  0  0  0
 21 22  3  0  0  0  0
 23 24  1  0  0  0  0
 24 40  1  0  0  0  0
 24 41  1  0  0  0  0
 24 42  1  0  0  0  0
M  END
> <s_m_source_file>
AV-unprocessed.smi

> <i_m_source_file_index>
1623

> <i_lp_mmshare_version>
43012

> <i_f3d_flags>
0

> <s_epik_input>
TiNDYyhjMVtDSDNdKWMoPU8pbihuYzFbQ0gzXSlbQ0gyXVtDQEhdKFtPSF0pW0NIMl1PW0NIMl1jMltjSF1bY0hdW2NIXVtjSF1jMkNs

> <s_epik_cmdline>
J2VwaWtfcHl0aG9uJywgJy1waCcsICc3LjAnLCAnLXRuJywgJzgnLCAnLW1hJywgJzIwMCcsICctbWV0YWxfYmluZGluZycsICctaW1hZScsICc8aW5maWxlLm1hZT4nLCAnLW9tYWUnLCAnPG91dGZpbGUubWFlPic=

> <r_lp_tautomer_probability>
1

> <r_epik_Ionization_Penalty>
6.50533e-08

> <r_epik_Ionization_Penalty_Charging>
2.19172e-10

> <r_epik_Ionization_Penalty_Neutral>
6.48342e-08

> <r_epik_State_Penalty>
-0

> <r_epik_Charging_Adjusted_Penalty>
2.19172e-10

> <i_epik_Tot_Q>
0

> <i_epik_Tot_abs_Q>
0

> <r_epik_Metal_State_Penalty>
-0

> <b_epik_Metal_Only>
0

> <s_lp_Force_Field>
OPLS_2005

> <r_lp_Energy>
31.4415

> <b_lp_Chiralities_Consistent>
1

> <s_lp_Variant>
AV-unprocessed.smi:1623-1

> <Gold.Version>
5.8.1

> <Gold.Id.Protein>
6NUR|6NUR_protein|mol2

> <Gold.PLP.Fitness>
52.7128

> <Gold.PLP.PLP>
-46.2262

> <Gold.PLP.part.hbond>
-3.0000

> <Gold.PLP.part.metal>
0.0000

> <Gold.PLP.part.buried>
-4.7333

> <Gold.PLP.part.nonpolar>
-39.3524

> <Gold.PLP.part.repulsive>
0.0000

> <Gold.PLP.ligand.clash>
0.0000

> <Gold.PLP.ligand.torsion>
0.8536

> <Gold.PLP.Chemscore.Hbond>
2.7120

> <Gold.PLP.Chemscore.CHOScore>
0.0000

> <Gold.PLP.Chemscore.Metal>
0.0000

> <Gold.Chemscore.Hbonds>
donor molecule, donor type, donor heavy atom, donor atom, acceptor molecule, acceptor atom, score
      P1  H  6896  6909       L1    19  0.65
      P1  H  6931  6943       L1     3  0.99
      P1  H  6934  6947       L1     3  0.34

> <Gold.PLP.Chemscore.Internal.Correction>
0.0579

> <Gold.Rescore>
     Score         DG    S(hbond)    S(metal)    S(lipo)     H(rot)  DE(clash)    DE(int)     intcor
     19.02     -20.00       1.87        0.00     125.08       2.48       0.12       0.86       ----

> <Gold.Chemscore.Fitness>
19.0249

> <Gold.Chemscore.DG>
-20.0036

> <Gold.Chemscore.ZeroCoef>
-5.4800

> <Gold.Chemscore.Hbond>
1.8661

> <Gold.Chemscore.Metal>
0.0000

> <Gold.Chemscore.Lipo>
125.0759

> <Gold.Chemscore.Internal_Hbond>
0.0000

> <Gold.Chemscore.DEClash>
0.1208

> <Gold.Chemscore.DEInternal>
0.8579

> <Gold.Chemscore.Rot>
2.4777

> <Gold.Chemscore.Internal.Correction>
   9.000000E+99

> <Gold.Chemscore.Hbonds>
donor molecule, donor type, donor heavy atom, donor atom, acceptor molecule, acceptor atom, score
      P1  H  6896  6909       L1    19  0.06
      P1  H  6931  6943       L1     3  0.50
      P1  H  6934  6947       L1     3  0.06

> <Gold.Chemscore.Hbond.Weighted>
-6.2326

> <Gold.Chemscore.Metal.Weighted>
-0.0000

> <Gold.Chemscore.Lipo.Weighted>
-14.6339

> <Gold.Chemscore.Internal_Hbond.Weighted>
0.0000

> <Gold.Chemscore.DEClash.Weighted>
0.1208

> <Gold.Chemscore.DEInternal.Weighted>
0.8579

> <Gold.Chemscore.Rot.Weighted>
6.3428

> <Gold.Chemscore.Internal.Correction.Weighted>
   9.000000E+99

> <Gold.Protein.RotatedTorsions>
[ 6907 6896 6895 6894 ] final   35.90 input  -60.11 | X-H torsion
[ 7974 7965 7964 7962 ] final -164.17 input  175.53 | X-H torsion
[ 8008 7997 7996 7995 ] final   48.37 input   59.86 | X-H torsion
[ 10167 10162 10161 10158 ] final  -40.79 input  -65.29 | X-H torsion
[ 10718 10713 10712 10709 ] final -143.56 input   66.30 | X-H torsion
[ 10763 10752 10751 10750 ] final  -19.28 input  -60.55 | X-H torsion
[ 11005 11000 10999 10996 ] final  123.50 input  -57.11 | X-H torsion

> <Gold.Protein.ActiveResidues>
 VAL166  LYS551  ARG553  GLY616  TRP617  ASP618  TYR619  PRO620  LYS621  CYS622 
 ASP623  PHE694  ASN695  SER759  ASP760  ASP761  ALA762  ILE779  LEU786  VAL792 
 PHE793  MET794  SER795  GLU796  ALA797  LYS798  CYS799  TRP800  GLU811  SER814 

> <Gold.Protein.RotatedAtoms>
  152.1224  134.9196  160.0562 H   0  0  0  0  0  0  0  0  0  0  0  0  # atno 6907 bound_to 6896
  152.0331  133.3941  159.4314 H   0  0  0  0  0  0  0  0  0  0  0  0  # atno 6908 bound_to 6896
  150.6850  134.3419  159.4915 H   0  0  0  0  0  0  0  0  0  0  0  0  # atno 6909 bound_to 6896
  144.7304  140.3000  143.6206 H   0  0  0  0  0  0  0  0  0  0  0  0  # atno 7974 bound_to 7965
  155.3844  140.3430  155.4248 H   0  0  0  0  0  0  0  0  0  0  0  0  # atno 8008 bound_to 7997
  156.1592  140.1595  156.8674 H   0  0  0  0  0  0  0  0  0  0  0  0  # atno 8009 bound_to 7997
  154.5124  140.0787  156.7997 H   0  0  0  0  0  0  0  0  0  0  0  0  # atno 8010 bound_to 7997
  140.7023  143.3132  151.2974 H   0  0  0  0  0  0  0  0  0  0  0  0  # atno 10167 bound_to 10162
  156.3595  130.7730  151.1896 H   0  0  0  0  0  0  0  0  0  0  0  0  # atno 10718 bound_to 10713
  153.6023  135.6999  153.5379 H   0  0  0  0  0  0  0  0  0  0  0  0  # atno 10763 bound_to 10752
  153.3086  135.4108  155.1316 H   0  0  0  0  0  0  0  0  0  0  0  0  # atno 10764 bound_to 10752
  154.8580  135.3666  154.5559 H   0  0  0  0  0  0  0  0  0  0  0  0  # atno 10765 bound_to 10752
  139.9315  134.9641  156.8268 H   0  0  0  0  0  0  0  0  0  0  0  0  # atno 11005 bound_to 11000
  145.7770  139.1877  143.2179 LP  0  0  0  0  0  0  0  0  0  0  0  0  # atno 17320 bound_to 7965
  146.0865  140.7705  142.9616 LP  0  0  0  0  0  0  0  0  0  0  0  0  # atno 17321 bound_to 7965
  139.6562  144.0271  152.2661 LP  0  0  0  0  0  0  0  0  0  0  0  0  # atno 17342 bound_to 10162
  139.9824  144.6419  150.7889 LP  0  0  0  0  0  0  0  0  0  0  0  0  # atno 17343 bound_to 10162
  157.7471  131.0404  150.4597 LP  0  0  0  0  0  0  0  0  0  0  0  0  # atno 17370 bound_to 10713
  156.4805  130.4073  149.6464 LP  0  0  0  0  0  0  0  0  0  0  0  0  # atno 17371 bound_to 10713
  140.6189  134.0013  155.7609 LP  0  0  0  0  0  0  0  0  0  0  0  0  # atno 17394 bound_to 11000
  141.0906  133.9922  157.3242 LP  0  0  0  0  0  0  0  0  0  0  0  0  # atno 17395 bound_to 11000

$$$$
