AV-unprocessed.smi:359|AV-procd|sdf|2418|dock5
  -GOLD-   2262022353D 1   1.00000     0.00000
 Structure written by MMmdl.
 33 34  0  0  0  0  0  0  0  0  1 V2000
  146.5873  138.7748  151.7102 C   0  0  0  0  0  0  0  0  0  0  0  0
  146.5163  139.6871  152.8385 N   0  0  0  0  0  0  0  0  0  0  0  0
  147.4937  139.9339  153.7938 C   0  0  0  0  0  0  0  0  0  0  0  0
  148.7863  139.2669  153.7789 C   0  0  0  0  0  0  0  0  0  0  0  0
  149.6974  139.4919  154.6610 N   0  0  0  0  0  0  0  0  0  0  0  0
  149.4599  140.4049  155.6688 N   0  0  0  0  0  0  0  0  0  0  0  0
  150.5902  140.5889  156.5868 C   0  0  0  0  0  0  0  0  0  0  0  0
  151.3269  141.9132  156.3267 C   0  0  0  0  0  0  0  0  0  0  0  0
  151.0178  142.8280  157.3704 O   0  0  0  0  0  0  0  0  0  0  0  0
  151.6382  142.6637  158.5899 C   0  0  0  0  0  0  0  0  0  0  0  0
  151.4046  143.6564  159.5640 C   0  0  0  0  0  0  0  0  0  0  0  0
  151.9940  143.5679  160.8398 C   0  0  0  0  0  0  0  0  0  0  0  0
  152.8293  142.4798  161.1546 C   0  0  0  0  0  0  0  0  0  0  0  0
  153.5501  142.3663  162.7182 Cl  0  0  0  0  0  0  0  0  0  0  0  0
  153.0753  141.4846  160.1901 C   0  0  0  0  0  0  0  0  0  0  0  0
  152.4847  141.5733  158.9141 C   0  0  0  0  0  0  0  0  0  0  0  0
  148.3003  141.1103  155.8219 C   0  0  0  0  0  0  0  0  0  0  0  0
  148.1357  141.9188  156.7365 O   0  0  0  0  0  0  0  0  0  0  0  0
  147.2821  140.8233  154.8009 C   0  0  0  0  0  0  0  0  0  0  0  0
  145.7766  141.6726  154.9155 Cl  0  0  0  0  0  0  0  0  0  0  0  0
  145.6629  138.8199  151.1344 H   0  0  0  0  0  0  0  0  0  0  0  0
  146.7293  137.7492  152.0519 H   0  0  0  0  0  0  0  0  0  0  0  0
  147.4143  139.0429  151.0522 H   0  0  0  0  0  0  0  0  0  0  0  0
  145.6579  140.2152  152.9127 H   0  0  0  0  0  0  0  0  0  0  0  0
  148.9486  138.5545  152.9705 H   0  0  0  0  0  0  0  0  0  0  0  0
  150.2403  140.5593  157.6201 H   0  0  0  0  0  0  0  0  0  0  0  0
  151.2916  139.7572  156.4972 H   0  0  0  0  0  0  0  0  0  0  0  0
  152.4029  141.7426  156.2671 H   0  0  0  0  0  0  0  0  0  0  0  0
  150.9994  142.3242  155.3707 H   0  0  0  0  0  0  0  0  0  0  0  0
  150.7641  144.4944  159.3312 H   0  0  0  0  0  0  0  0  0  0  0  0
  151.8030  144.3354  161.5753 H   0  0  0  0  0  0  0  0  0  0  0  0
  153.7182  140.6496  160.4273 H   0  0  0  0  0  0  0  0  0  0  0  0
  152.6981  140.7916  158.2011 H   0  0  0  0  0  0  0  0  0  0  0  0
  1  2  1  0  0  0  0
  1 21  1  0  0  0  0
  1 22  1  0  0  0  0
  1 23  1  0  0  0  0
  2  3  1  0  0  0  0
  2 24  1  0  0  0  0
  3 19  2  0  0  0  0
  3  4  1  0  0  0  0
  4  5  2  0  0  0  0
  4 25  1  0  0  0  0
  5  6  1  0  0  0  0
  6  7  1  0  0  0  0
  6 17  1  0  0  0  0
  7  8  1  0  0  0  0
  7 26  1  0  0  0  0
  7 27  1  0  0  0  0
  8  9  1  0  0  0  0
  8 28  1  0  0  0  0
  8 29  1  0  0  0  0
  9 10  1  0  0  0  0
 10 16  1  0  0  0  0
 10 11  2  0  0  0  0
 11 12  1  0  0  0  0
 11 30  1  0  0  0  0
 12 13  2  0  0  0  0
 12 31  1  0  0  0  0
 13 14  1  0  0  0  0
 13 15  1  0  0  0  0
 15 16  2  0  0  0  0
 15 32  1  0  0  0  0
 16 33  1  0  0  0  0
 17 18  2  0  0  0  0
 17 19  1  0  0  0  0
 19 20  1  0  0  0  0
M  END
> <s_m_source_file>
AV-unprocessed.smi

> <i_m_source_file_index>
359

> <i_lp_mmshare_version>
43012

> <i_f3d_flags>
0

> <s_epik_input>
W0NIM11bTkhdYzFbY0hdbm4oYyg9TyljMUNsKVtDSDJdW0NIMl1PYzJbY0hdW2NIXWMoQ2wpW2NIXVtjSF0y

> <s_epik_cmdline>
J2VwaWtfcHl0aG9uJywgJy1waCcsICc3LjAnLCAnLXRuJywgJzgnLCAnLW1hJywgJzIwMCcsICctbWV0YWxfYmluZGluZycsICctaW1hZScsICc8aW5maWxlLm1hZT4nLCAnLW9tYWUnLCAnPG91dGZpbGUubWFlPic=

> <r_lp_tautomer_probability>
1

> <r_epik_Ionization_Penalty>
1.57682e-05

> <r_epik_Ionization_Penalty_Charging>
1.04488e-09

> <r_epik_Ionization_Penalty_Neutral>
1.57671e-05

> <r_epik_State_Penalty>
-0

> <r_epik_Charging_Adjusted_Penalty>
1.04488e-09

> <i_epik_Tot_Q>
0

> <i_epik_Tot_abs_Q>
0

> <r_epik_Metal_State_Penalty>
-0

> <b_epik_Metal_Only>
0

> <s_lp_Force_Field>
OPLS_2005

> <r_lp_Energy>
30.271

> <b_lp_Chiralities_Consistent>
1

> <s_lp_Variant>
AV-unprocessed.smi:359-1

> <Gold.Version>
5.8.1

> <Gold.Id.Protein>
6NUR|6NUR_protein|mol2

> <Gold.PLP.Fitness>
44.0756

> <Gold.PLP.PLP>
-38.1561

> <Gold.PLP.part.hbond>
-1.0000

> <Gold.PLP.part.metal>
0.0000

> <Gold.PLP.part.buried>
-5.4401

> <Gold.PLP.part.nonpolar>
-33.9996

> <Gold.PLP.part.repulsive>
1.3728

> <Gold.PLP.ligand.clash>
0.0000

> <Gold.PLP.ligand.torsion>
0.6147

> <Gold.PLP.Chemscore.Hbond>
1.0000

> <Gold.PLP.Chemscore.CHOScore>
1.3813

> <Gold.PLP.Chemscore.Metal>
0.0000

> <Gold.Chemscore.Hbonds>
donor molecule, donor type, donor heavy atom, donor atom, acceptor molecule, acceptor atom, score
      L1  H     2    24       P1 10175  0.99
      L1  C     4    25       P1  7948  0.97
      L1  C     4    25       P1  7957  0.44

> <Gold.PLP.Chemscore.Internal.Correction>
0.0052

> <Gold.Rescore>
     Score         DG    S(hbond)    S(metal)    S(lipo)     H(rot)  DE(clash)    DE(int)     intcor
     17.52     -18.45       0.97        0.00     117.66       1.58       0.34       0.59       ----

> <Gold.Chemscore.Fitness>
17.5228

> <Gold.Chemscore.DG>
-18.4508

> <Gold.Chemscore.ZeroCoef>
-5.4800

> <Gold.Chemscore.Hbond>
0.9718

> <Gold.Chemscore.Metal>
0.0000

> <Gold.Chemscore.Lipo>
117.6579

> <Gold.Chemscore.Internal_Hbond>
0.0000

> <Gold.Chemscore.DEClash>
0.3375

> <Gold.Chemscore.DEInternal>
0.5905

> <Gold.Chemscore.Rot>
1.5785

> <Gold.Chemscore.Internal.Correction>
   9.000000E+99

> <Gold.Chemscore.Hbonds>
donor molecule, donor type, donor heavy atom, donor atom, acceptor molecule, acceptor atom, score
      L1  H     2    24       P1 10175  0.84

> <Gold.Chemscore.Hbond.Weighted>
-3.2459

> <Gold.Chemscore.Metal.Weighted>
-0.0000

> <Gold.Chemscore.Lipo.Weighted>
-13.7660

> <Gold.Chemscore.Internal_Hbond.Weighted>
0.0000

> <Gold.Chemscore.DEClash.Weighted>
0.3375

> <Gold.Chemscore.DEInternal.Weighted>
0.5905

> <Gold.Chemscore.Rot.Weighted>
4.0411

> <Gold.Chemscore.Internal.Correction.Weighted>
   9.000000E+99

> <Gold.Protein.RotatedTorsions>
[ 6907 6896 6895 6894 ] final -159.76 input  -60.11 | X-H torsion
[ 7974 7965 7964 7962 ] final   29.95 input  175.53 | X-H torsion
[ 8008 7997 7996 7995 ] final -128.27 input   59.86 | X-H torsion
[ 10167 10162 10161 10158 ] final   53.44 input  -65.29 | X-H torsion
[ 10718 10713 10712 10709 ] final -140.39 input   66.30 | X-H torsion
[ 10763 10752 10751 10750 ] final -144.35 input  -60.55 | X-H torsion
[ 11005 11000 10999 10996 ] final  -39.14 input  -57.11 | X-H torsion

> <Gold.Protein.ActiveResidues>
 VAL166  LYS551  ARG553  GLY616  TRP617  ASP618  TYR619  PRO620  LYS621  CYS622 
 ASP623  PHE694  ASN695  SER759  ASP760  ASP761  ALA762  ILE779  LEU786  VAL792 
 PHE793  MET794  SER795  GLU796  ALA797  LYS798  CYS799  TRP800  GLU811  SER814 

> <Gold.Protein.RotatedAtoms>
  151.3386  133.3971  159.2668 H   0  0  0  0  0  0  0  0  0  0  0  0  # atno 6907 bound_to 6896
  150.9896  134.9235  159.7902 H   0  0  0  0  0  0  0  0  0  0  0  0  # atno 6908 bound_to 6896
  152.5243  134.3351  159.9249 H   0  0  0  0  0  0  0  0  0  0  0  0  # atno 6909 bound_to 6896
  146.1641  139.6853  142.9013 H   0  0  0  0  0  0  0  0  0  0  0  0  # atno 7974 bound_to 7965
  155.2598  140.0435  157.2996 H   0  0  0  0  0  0  0  0  0  0  0  0  # atno 8008 bound_to 7997
  154.5717  140.2376  155.8151 H   0  0  0  0  0  0  0  0  0  0  0  0  # atno 8009 bound_to 7997
  156.2128  140.2994  155.9778 H   0  0  0  0  0  0  0  0  0  0  0  0  # atno 8010 bound_to 7997
  140.2407  144.3587  150.6381 H   0  0  0  0  0  0  0  0  0  0  0  0  # atno 10167 bound_to 10162
  156.3218  130.7538  151.1638 H   0  0  0  0  0  0  0  0  0  0  0  0  # atno 10718 bound_to 10713
  154.8432  135.3443  154.6332 H   0  0  0  0  0  0  0  0  0  0  0  0  # atno 10763 bound_to 10752
  153.6942  135.6973  153.5086 H   0  0  0  0  0  0  0  0  0  0  0  0  # atno 10764 bound_to 10752
  153.2572  135.4334  155.0812 H   0  0  0  0  0  0  0  0  0  0  0  0  # atno 10765 bound_to 10752
  141.0080  133.6922  156.2147 H   0  0  0  0  0  0  0  0  0  0  0  0  # atno 11005 bound_to 11000
  145.4514  141.0428  143.2802 LP  0  0  0  0  0  0  0  0  0  0  0  0  # atno 17320 bound_to 7965
  144.8067  139.6038  143.7047 LP  0  0  0  0  0  0  0  0  0  0  0  0  # atno 17321 bound_to 7965
  140.6116  143.2170  151.6875 LP  0  0  0  0  0  0  0  0  0  0  0  0  # atno 17342 bound_to 10162
  139.5078  144.3633  152.0541 LP  0  0  0  0  0  0  0  0  0  0  0  0  # atno 17343 bound_to 10162
  157.7413  131.0505  150.5105 LP  0  0  0  0  0  0  0  0  0  0  0  0  # atno 17370 bound_to 10713
  156.5258  130.4173  149.6227 LP  0  0  0  0  0  0  0  0  0  0  0  0  # atno 17371 bound_to 10713
  140.6781  134.4797  157.5588 LP  0  0  0  0  0  0  0  0  0  0  0  0  # atno 17394 bound_to 11000
  139.9074  134.8419  156.1655 LP  0  0  0  0  0  0  0  0  0  0  0  0  # atno 17395 bound_to 11000

$$$$
