AV-unprocessed.smi:1381|AV-procd|sdf|5606|dock1
  -GOLD-   22720 5213D 1   1.00000     0.00000
 Structure written by MMmdl.
 43 44  0  0  0  0  0  0  0  0  2 V2000
  151.8637  140.9838  156.1204 C   0  0  0  0  0  0  0  0  0  0  0  0
  151.7044  139.6108  155.5636 C   0  0  0  0  0  0  0  0  0  0  0  0
  150.6121  138.8773  155.1941 C   0  0  0  0  0  0  0  0  0  0  0  0
  151.1833  137.6558  154.7483 C   0  0  0  0  0  0  0  0  0  0  0  0
  150.3649  136.6014  154.2687 N   0  0  0  0  0  0  0  0  0  0  0  0
  150.1600  135.4016  154.8382 C   0  0  0  0  0  0  0  0  0  0  0  0
  150.6681  135.0187  155.8926 O   0  0  0  0  0  0  0  0  0  0  0  0
  149.3227  134.6499  154.1088 N   0  0  0  0  0  0  0  0  0  0  0  0
  148.8978  133.3005  154.4626 C   0  0  0  0  0  0  0  0  0  0  0  0
  149.2814  132.2825  153.3716 C   0  0  0  0  0  0  0  0  0  0  0  0
  148.0931  131.7251  152.6795 N   0  3  1  0  0  0  0  0  0  0  0  0
  147.3897  130.7066  153.4946 C   0  0  0  0  0  0  0  0  0  0  0  0
  146.1994  130.1005  152.7251 C   0  0  2  0  0  0  0  0  0  0  0  0
  146.6199  129.1271  151.6096 C   0  0  0  0  0  0  0  0  0  0  0  0
  145.3430  131.1369  152.2450 O   0  0  0  0  0  0  0  0  0  0  0  0
  145.9841  132.1154  151.4307 C   0  0  1  0  0  0  0  0  0  0  0  0
  144.9279  133.1435  151.0099 C   0  0  0  0  0  0  0  0  0  0  0  0
  147.1380  132.7614  152.2183 C   0  0  0  0  0  0  0  0  0  0  0  0
  152.5043  137.6439  154.8386 N   0  0  0  0  0  0  0  0  0  0  0  0
  152.8449  138.8966  155.3625 O   0  0  0  0  0  0  0  0  0  0  0  0
  150.9313  141.5439  156.0478 H   0  0  0  0  0  0  0  0  0  0  0  0
  152.6314  141.5353  155.5775 H   0  0  0  0  0  0  0  0  0  0  0  0
  152.1541  140.9432  157.1701 H   0  0  0  0  0  0  0  0  0  0  0  0
  149.5738  139.1714  155.2365 H   0  0  0  0  0  0  0  0  0  0  0  0
  149.8844  136.7817  153.3996 H   0  0  0  0  0  0  0  0  0  0  0  0
  148.9483  135.0403  153.2562 H   0  0  0  0  0  0  0  0  0  0  0  0
  149.3274  133.0337  155.4287 H   0  0  0  0  0  0  0  0  0  0  0  0
  147.8157  133.3099  154.5968 H   0  0  0  0  0  0  0  0  0  0  0  0
  149.9144  132.7918  152.6435 H   0  0  0  0  0  0  0  0  0  0  0  0
  149.8802  131.4679  153.7820 H   0  0  0  0  0  0  0  0  0  0  0  0
  148.0809  129.9162  153.7902 H   0  0  0  0  0  0  0  0  0  0  0  0
  147.0327  131.1732  154.4143 H   0  0  0  0  0  0  0  0  0  0  0  0
  145.6054  129.5246  153.4354 H   0  0  0  0  0  0  0  0  0  0  0  0
  147.1594  128.2751  152.0238 H   0  0  0  0  0  0  0  0  0  0  0  0
  147.2727  129.5957  150.8737 H   0  0  0  0  0  0  0  0  0  0  0  0
  145.7472  128.7386  151.0840 H   0  0  0  0  0  0  0  0  0  0  0  0
  146.3749  131.6457  150.5279 H   0  0  0  0  0  0  0  0  0  0  0  0
  145.3625  133.9171  150.3766 H   0  0  0  0  0  0  0  0  0  0  0  0
  144.4832  133.6319  151.8774 H   0  0  0  0  0  0  0  0  0  0  0  0
  144.1239  132.6680  150.4478 H   0  0  0  0  0  0  0  0  0  0  0  0
  146.7488  133.3074  153.0796 H   0  0  0  0  0  0  0  0  0  0  0  0
  147.6426  133.4887  151.5833 H   0  0  0  0  0  0  0  0  0  0  0  0
  148.4342  131.2461  151.8584 H   0  0  0  0  0  0  0  0  0  0  0  0
  1  2  1  0  0  0  0
  1 21  1  0  0  0  0
  1 22  1  0  0  0  0
  1 23  1  0  0  0  0
  2 20  1  0  0  0  0
  2  3  2  0  0  0  0
  3  4  1  0  0  0  0
  3 24  1  0  0  0  0
  4  5  1  0  0  0  0
  4 19  2  0  0  0  0
  5  6  1  0  0  0  0
  5 25  1  0  0  0  0
  6  7  2  0  0  0  0
  6  8  1  0  0  0  0
  8  9  1  0  0  0  0
  8 26  1  0  0  0  0
  9 10  1  0  0  0  0
  9 27  1  0  0  0  0
  9 28  1  0  0  0  0
 10 11  1  0  0  0  0
 10 29  1  0  0  0  0
 10 30  1  0  0  0  0
 11 18  1  0  0  0  0
 11 12  1  0  0  0  0
 11 43  1  0  0  0  0
 12 13  1  0  0  0  0
 12 31  1  0  0  0  0
 12 32  1  0  0  0  0
 13 14  1  0  0  0  0
 13 15  1  0  0  0  0
 13 33  1  0  0  0  0
 14 34  1  0  0  0  0
 14 35  1  0  0  0  0
 14 36  1  0  0  0  0
 15 16  1  0  0  0  0
 16 17  1  0  0  0  0
 16 18  1  0  0  0  0
 16 37  1  0  0  0  0
 17 38  1  0  0  0  0
 17 39  1  0  0  0  0
 17 40  1  0  0  0  0
 18 41  1  0  0  0  0
 18 42  1  0  0  0  0
 19 20  1  0  0  0  0
M  CHG  1  11   1
M  END
> <s_m_source_file>
AV-unprocessed.smi

> <i_m_source_file_index>
1381

> <i_lp_mmshare_version>
43012

> <i_f3d_flags>
0

> <s_epik_input>
W0NIM11jMVtjSF1jKG5vMSlbTkhdQyg9TylbTkhdW0NIMl1bQ0gyXU4yW0NIMl1bQ0BASF0oW0NIM10pT1tDQEBIXShbQ0gzXSlbQ0gyXTI=

> <s_epik_cmdline>
J2VwaWtfcHl0aG9uJywgJy1waCcsICc3LjAnLCAnLXRuJywgJzgnLCAnLW1hJywgJzIwMCcsICctbWV0YWxfYmluZGluZycsICctaW1hZScsICc8aW5maWxlLm1hZT4nLCAnLW9tYWUnLCAnPG91dGZpbGUubWFlPic=

> <r_epik_Ionization_Penalty>
0.707076

> <r_epik_Ionization_Penalty_Charging>
0.707039

> <r_epik_Ionization_Penalty_Neutral>
3.6548e-05

> <r_epik_State_Penalty>
0.730276

> <r_epik_Charging_Adjusted_Penalty>
1.43732

> <i_epik_Tot_Q>
1

> <i_epik_Tot_abs_Q>
1

> <r_epik_Metal_State_Penalty>
0.743132

> <b_epik_Metal_Only>
0

> <s_lp_Force_Field>
OPLS_2005

> <r_lp_Energy>
14.5355

> <b_lp_Chiralities_Consistent>
1

> <s_lp_Variant>
AV-unprocessed.smi:1381-5

> <Gold.Version>
5.8.1

> <Gold.Id.Protein>
6NUR|6NUR_protein|mol2

> <Gold.PLP.Fitness>
46.0638

> <Gold.PLP.PLP>
-35.1024

> <Gold.PLP.part.hbond>
-5.8358

> <Gold.PLP.part.metal>
0.0000

> <Gold.PLP.part.buried>
-6.0104

> <Gold.PLP.part.nonpolar>
-23.9406

> <Gold.PLP.part.repulsive>
0.3520

> <Gold.PLP.ligand.clash>
0.0000

> <Gold.PLP.ligand.torsion>
1.0953

> <Gold.PLP.Chemscore.Hbond>
4.3716

> <Gold.PLP.Chemscore.CHOScore>
0.0000

> <Gold.PLP.Chemscore.Metal>
0.0000

> <Gold.Chemscore.Hbonds>
donor molecule, donor type, donor heavy atom, donor atom, acceptor molecule, acceptor atom, score
      L1  H     5    25       P1  7948  1.00
      L1  H     8    26       P1  7948  1.00
      L1  H    11    43       P1 10747  1.00
      P1  H  7997  8009       L1    20  0.81
      P1  H 10752 10765       L1    19  0.51

> <Gold.PLP.Chemscore.Internal.Correction>
0.0372

> <Gold.Rescore>
     Score         DG    S(hbond)    S(metal)    S(lipo)     H(rot)  DE(clash)    DE(int)     intcor
     19.21     -20.33       3.19        0.00      71.00       1.61       0.06       1.05       ----

> <Gold.Chemscore.Fitness>
19.2150

> <Gold.Chemscore.DG>
-20.3319

> <Gold.Chemscore.ZeroCoef>
-5.4800

> <Gold.Chemscore.Hbond>
3.1922

> <Gold.Chemscore.Metal>
0.0000

> <Gold.Chemscore.Lipo>
70.9967

> <Gold.Chemscore.Internal_Hbond>
0.0000

> <Gold.Chemscore.DEClash>
0.0627

> <Gold.Chemscore.DEInternal>
1.0543

> <Gold.Chemscore.Rot>
1.6081

> <Gold.Chemscore.Internal.Correction>
   9.000000E+99

> <Gold.Chemscore.Hbonds>
donor molecule, donor type, donor heavy atom, donor atom, acceptor molecule, acceptor atom, score
      L1  H     5    25       P1  7948  0.25
      L1  H     8    26       P1  7948  0.29
      L1  H    11    43       P1 10747  1.00
      P1  H  7997  8009       L1    20  0.36
      P1  H 10752 10765       L1    19  0.20

> <Gold.Chemscore.Hbond.Weighted>
-10.6620

> <Gold.Chemscore.Metal.Weighted>
-0.0000

> <Gold.Chemscore.Lipo.Weighted>
-8.3066

> <Gold.Chemscore.Internal_Hbond.Weighted>
0.0000

> <Gold.Chemscore.DEClash.Weighted>
0.0627

> <Gold.Chemscore.DEInternal.Weighted>
1.0543

> <Gold.Chemscore.Rot.Weighted>
4.1167

> <Gold.Chemscore.Internal.Correction.Weighted>
   9.000000E+99

> <Gold.Protein.RotatedTorsions>
[ 6907 6896 6895 6894 ] final  117.53 input  -60.11 | X-H torsion
[ 7974 7965 7964 7962 ] final -125.60 input  175.53 | X-H torsion
[ 8008 7997 7996 7995 ] final -148.84 input   59.86 | X-H torsion
[ 10167 10162 10161 10158 ] final  -76.93 input  -65.29 | X-H torsion
[ 10718 10713 10712 10709 ] final -173.37 input   66.30 | X-H torsion
[ 10763 10752 10751 10750 ] final  167.39 input  -60.55 | X-H torsion
[ 11005 11000 10999 10996 ] final  -54.66 input  -57.11 | X-H torsion

> <Gold.Protein.ActiveResidues>
 VAL166  LYS551  ARG553  GLY616  TRP617  ASP618  TYR619  PRO620  LYS621  CYS622 
 ASP623  PHE694  ASN695  SER759  ASP760  ASP761  ALA762  ILE779  LEU786  VAL792 
 PHE793  MET794  SER795  GLU796  ALA797  LYS798  CYS799  TRP800  GLU811  SER814 

> <Gold.Protein.RotatedAtoms>
  152.4605  133.7812  159.6851 H   0  0  0  0  0  0  0  0  0  0  0  0  # atno 6907 bound_to 6896
  150.8547  133.7723  159.3019 H   0  0  0  0  0  0  0  0  0  0  0  0  # atno 6908 bound_to 6896
  151.5307  135.1071  159.9954 H   0  0  0  0  0  0  0  0  0  0  0  0  # atno 6909 bound_to 6896
  144.9959  140.7776  143.4525 H   0  0  0  0  0  0  0  0  0  0  0  0  # atno 7974 bound_to 7965
  155.5981  140.0659  157.2740 H   0  0  0  0  0  0  0  0  0  0  0  0  # atno 8008 bound_to 7997
  154.4286  140.1823  156.1192 H   0  0  0  0  0  0  0  0  0  0  0  0  # atno 8009 bound_to 7997
  156.0180  140.3320  155.7013 H   0  0  0  0  0  0  0  0  0  0  0  0  # atno 8010 bound_to 7997
  140.4814  143.2401  151.8052 H   0  0  0  0  0  0  0  0  0  0  0  0  # atno 10167 bound_to 10162
  156.7693  130.9442  151.3119 H   0  0  0  0  0  0  0  0  0  0  0  0  # atno 10718 bound_to 10713
  154.3532  135.2753  155.2361 H   0  0  0  0  0  0  0  0  0  0  0  0  # atno 10763 bound_to 10752
  154.4581  135.5914  153.6240 H   0  0  0  0  0  0  0  0  0  0  0  0  # atno 10764 bound_to 10752
  152.9848  135.6058  154.3744 H   0  0  0  0  0  0  0  0  0  0  0  0  # atno 10765 bound_to 10752
  141.1036  133.6615  156.4353 H   0  0  0  0  0  0  0  0  0  0  0  0  # atno 11005 bound_to 11000
  145.2220  139.2154  143.5088 LP  0  0  0  0  0  0  0  0  0  0  0  0  # atno 17320 bound_to 7965
  146.3442  140.2080  142.8590 LP  0  0  0  0  0  0  0  0  0  0  0  0  # atno 17321 bound_to 7965
  139.4834  144.4767  151.9358 LP  0  0  0  0  0  0  0  0  0  0  0  0  # atno 17342 bound_to 10162
  140.3853  144.2685  150.5904 LP  0  0  0  0  0  0  0  0  0  0  0  0  # atno 17343 bound_to 10162
  157.6699  130.9041  150.0015 LP  0  0  0  0  0  0  0  0  0  0  0  0  # atno 17370 bound_to 10713
  156.1288  130.3644  149.9765 LP  0  0  0  0  0  0  0  0  0  0  0  0  # atno 17371 bound_to 10713
  140.4958  134.6532  157.5229 LP  0  0  0  0  0  0  0  0  0  0  0  0  # atno 17394 bound_to 11000
  139.9897  134.7004  155.9710 LP  0  0  0  0  0  0  0  0  0  0  0  0  # atno 17395 bound_to 11000

$$$$
