AV-unprocessed.smi:1071|AV-procd|sdf|4679|dock4
  -GOLD-   22720 3193D 1   1.00000     0.00000
 Structure written by MMmdl.
 47 48  0  0  0  0  0  0  0  0  2 V2000
  152.5032  139.0175  154.8332 C   0  0  0  0  0  0  0  0  0  0  0  0
  151.5481  140.0652  154.8948 O   0  0  0  0  0  0  0  0  0  0  0  0
  150.6389  139.9542  155.9810 C   0  0  0  0  0  0  0  0  0  0  0  0
  149.6330  141.1142  156.0068 C   0  0  0  0  0  0  0  0  0  0  0  0
  149.2040  141.3729  154.6736 O   0  0  0  0  0  0  0  0  0  0  0  0
  148.3252  140.4893  154.0810 C   0  0  0  0  0  0  0  0  0  0  0  0
  147.4933  140.9595  153.0453 C   0  0  0  0  0  0  0  0  0  0  0  0
  146.5945  140.0647  152.4336 C   0  0  0  0  0  0  0  0  0  0  0  0
  146.5626  138.7201  152.8739 C   0  0  0  0  0  0  0  0  0  0  0  0
  145.6881  137.7287  152.3530 N   0  0  0  0  0  0  0  0  0  0  0  0
  145.3156  136.5577  152.9073 C   0  0  0  0  0  0  0  0  0  0  0  0
  145.6336  136.2321  154.0513 O   0  0  0  0  0  0  0  0  0  0  0  0
  144.4832  135.8079  152.1334 N   0  0  0  0  0  0  0  0  0  0  0  0
  144.2371  136.0311  150.6920 C   0  0  0  0  0  0  0  0  0  0  0  0
  144.4810  134.7539  149.8745 C   0  0  0  0  0  0  0  0  0  0  0  0
  143.6769  133.6284  150.3972 N   0  3  1  0  0  0  0  0  0  0  0  0
  143.8097  132.4067  149.5750 C   0  0  0  0  0  0  0  0  0  0  0  0
  143.9434  133.3782  151.8314 C   0  0  0  0  0  0  0  0  0  0  0  0
  143.7582  134.6455  152.6930 C   0  0  2  0  0  0  0  0  0  0  0  0
  142.2825  134.9940  152.9558 C   0  0  0  0  0  0  0  0  0  0  0  0
  147.4244  138.3543  153.9284 C   0  0  0  0  0  0  0  0  0  0  0  0
  148.2884  139.2063  154.5183 N   0  0  0  0  0  0  0  0  0  0  0  0
  153.1840  139.1965  154.0012 H   0  0  0  0  0  0  0  0  0  0  0  0
  152.0333  138.0475  154.6719 H   0  0  0  0  0  0  0  0  0  0  0  0
  153.0976  138.9712  155.7466 H   0  0  0  0  0  0  0  0  0  0  0  0
  150.1300  138.9891  155.9722 H   0  0  0  0  0  0  0  0  0  0  0  0
  151.2308  139.9829  156.8963 H   0  0  0  0  0  0  0  0  0  0  0  0
  148.7772  140.8399  156.6260 H   0  0  0  0  0  0  0  0  0  0  0  0
  150.0908  142.0062  156.4354 H   0  0  0  0  0  0  0  0  0  0  0  0
  147.5403  141.9908  152.7282 H   0  0  0  0  0  0  0  0  0  0  0  0
  145.9425  140.4290  151.6549 H   0  0  0  0  0  0  0  0  0  0  0  0
  145.2594  137.9544  151.4673 H   0  0  0  0  0  0  0  0  0  0  0  0
  143.2064  136.3628  150.5625 H   0  0  0  0  0  0  0  0  0  0  0  0
  144.8521  136.8168  150.2534 H   0  0  0  0  0  0  0  0  0  0  0  0
  144.2229  134.9335  148.8303 H   0  0  0  0  0  0  0  0  0  0  0  0
  145.5397  134.4901  149.9005 H   0  0  0  0  0  0  0  0  0  0  0  0
  144.8342  132.0324  149.5920 H   0  0  0  0  0  0  0  0  0  0  0  0
  143.5363  132.6079  148.5386 H   0  0  0  0  0  0  0  0  0  0  0  0
  143.1521  131.6193  149.9450 H   0  0  0  0  0  0  0  0  0  0  0  0
  143.2954  132.5793  152.1952 H   0  0  0  0  0  0  0  0  0  0  0  0
  144.9684  133.0181  151.9366 H   0  0  0  0  0  0  0  0  0  0  0  0
  144.1646  134.3751  153.6684 H   0  0  0  0  0  0  0  0  0  0  0  0
  141.7693  134.1687  153.4496 H   0  0  0  0  0  0  0  0  0  0  0  0
  141.7444  135.2090  152.0327 H   0  0  0  0  0  0  0  0  0  0  0  0
  142.1950  135.8670  153.6035 H   0  0  0  0  0  0  0  0  0  0  0  0
  147.4256  137.3435  154.3096 H   0  0  0  0  0  0  0  0  0  0  0  0
  142.7103  133.9147  150.3335 H   0  0  0  0  0  0  0  0  0  0  0  0
  1  2  1  0  0  0  0
  1 23  1  0  0  0  0
  1 24  1  0  0  0  0
  1 25  1  0  0  0  0
  2  3  1  0  0  0  0
  3  4  1  0  0  0  0
  3 26  1  0  0  0  0
  3 27  1  0  0  0  0
  4  5  1  0  0  0  0
  4 28  1  0  0  0  0
  4 29  1  0  0  0  0
  5  6  1  0  0  0  0
  6 22  1  0  0  0  0
  6  7  2  0  0  0  0
  7  8  1  0  0  0  0
  7 30  1  0  0  0  0
  8  9  2  0  0  0  0
  8 31  1  0  0  0  0
  9 10  1  0  0  0  0
  9 21  1  0  0  0  0
 10 11  1  0  0  0  0
 10 32  1  0  0  0  0
 11 12  2  0  0  0  0
 11 13  1  0  0  0  0
 13 19  1  0  0  0  0
 13 14  1  0  0  0  0
 14 15  1  0  0  0  0
 14 33  1  0  0  0  0
 14 34  1  0  0  0  0
 15 16  1  0  0  0  0
 15 35  1  0  0  0  0
 15 36  1  0  0  0  0
 16 17  1  0  0  0  0
 16 18  1  0  0  0  0
 16 47  1  0  0  0  0
 17 37  1  0  0  0  0
 17 38  1  0  0  0  0
 17 39  1  0  0  0  0
 18 19  1  0  0  0  0
 18 40  1  0  0  0  0
 18 41  1  0  0  0  0
 19 20  1  0  0  0  0
 19 42  1  0  0  0  0
 20 43  1  0  0  0  0
 20 44  1  0  0  0  0
 20 45  1  0  0  0  0
 21 22  2  0  0  0  0
 21 46  1  0  0  0  0
M  CHG  1  16   1
M  END
> <s_m_source_file>
AV-unprocessed.smi

> <i_m_source_file_index>
1071

> <i_lp_mmshare_version>
43012

> <i_f3d_flags>
0

> <s_epik_input>
W0NIM11PW0NIMl1bQ0gyXU9jMVtjSF1bY0hdYyhbY0hdbjEpW05IXUMoPU8pTjJbQ0gyXVtDSDJdTihbQ0gzXSlbQ0gyXVtDQEhdMltDSDNd

> <s_epik_cmdline>
J2VwaWtfcHl0aG9uJywgJy1waCcsICc3LjAnLCAnLXRuJywgJzgnLCAnLW1hJywgJzIwMCcsICctbWV0YWxfYmluZGluZycsICctaW1hZScsICc8aW5maWxlLm1hZT4nLCAnLW9tYWUnLCAnPG91dGZpbGUubWFlPic=

> <r_lp_tautomer_probability>
1

> <r_epik_Ionization_Penalty>
0.25455

> <r_epik_Ionization_Penalty_Charging>
0.254506

> <r_epik_Ionization_Penalty_Neutral>
4.43365e-05

> <r_epik_State_Penalty>
0.245983

> <r_epik_Charging_Adjusted_Penalty>
0.500488

> <i_epik_Tot_Q>
1

> <i_epik_Tot_abs_Q>
1

> <r_epik_Metal_State_Penalty>
0.245987

> <b_epik_Metal_Only>
0

> <s_lp_Force_Field>
OPLS_2005

> <r_lp_Energy>
58.5188

> <b_lp_Chiralities_Consistent>
1

> <s_lp_Variant>
AV-unprocessed.smi:1071-3

> <Gold.Version>
5.8.1

> <Gold.Id.Protein>
6NUR|6NUR_protein|mol2

> <Gold.PLP.Fitness>
40.9143

> <Gold.PLP.PLP>
-31.7861

> <Gold.PLP.part.hbond>
-2.2934

> <Gold.PLP.part.metal>
0.0000

> <Gold.PLP.part.buried>
2.9211

> <Gold.PLP.part.nonpolar>
-32.9350

> <Gold.PLP.part.repulsive>
0.3988

> <Gold.PLP.ligand.clash>
0.0000

> <Gold.PLP.ligand.torsion>
0.6170

> <Gold.PLP.Chemscore.Hbond>
3.4388

> <Gold.PLP.Chemscore.CHOScore>
0.0000

> <Gold.PLP.Chemscore.Metal>
0.0000

> <Gold.Chemscore.Hbonds>
donor molecule, donor type, donor heavy atom, donor atom, acceptor molecule, acceptor atom, score
      L1  H    10    32       P1 10171  0.46
      L1  H    16    47       P1 10186  2.00
      P1  H  7989  7998       L1     2  1.00

> <Gold.PLP.Chemscore.Internal.Correction>
0.0460

> <Gold.Rescore>
     Score         DG    S(hbond)    S(metal)    S(lipo)     H(rot)  DE(clash)    DE(int)     intcor
     13.67     -21.67       2.79        0.00      93.81       1.60       4.62       3.38       ----

> <Gold.Chemscore.Fitness>
13.6728

> <Gold.Chemscore.DG>
-21.6678

> <Gold.Chemscore.ZeroCoef>
-5.4800

> <Gold.Chemscore.Hbond>
2.7904

> <Gold.Chemscore.Metal>
0.0000

> <Gold.Chemscore.Lipo>
93.8081

> <Gold.Chemscore.Internal_Hbond>
0.0000

> <Gold.Chemscore.DEClash>
4.6151

> <Gold.Chemscore.DEInternal>
3.3799

> <Gold.Chemscore.Rot>
1.6045

> <Gold.Chemscore.Internal.Correction>
   9.000000E+99

> <Gold.Chemscore.Hbonds>
donor molecule, donor type, donor heavy atom, donor atom, acceptor molecule, acceptor atom, score
      L1  H    10    32       P1 10171  0.46
      L1  H    16    47       P1 10186  0.96
      P1  H  7989  7998       L1     2  0.59

> <Gold.Chemscore.Hbond.Weighted>
-9.3198

> <Gold.Chemscore.Metal.Weighted>
-0.0000

> <Gold.Chemscore.Lipo.Weighted>
-10.9756

> <Gold.Chemscore.Internal_Hbond.Weighted>
0.0000

> <Gold.Chemscore.DEClash.Weighted>
4.6151

> <Gold.Chemscore.DEInternal.Weighted>
3.3799

> <Gold.Chemscore.Rot.Weighted>
4.1075

> <Gold.Chemscore.Internal.Correction.Weighted>
   9.000000E+99

> <Gold.Protein.RotatedTorsions>
[ 6907 6896 6895 6894 ] final   68.11 input  -60.11 | X-H torsion
[ 7974 7965 7964 7962 ] final    7.17 input  175.53 | X-H torsion
[ 8008 7997 7996 7995 ] final   83.85 input   59.86 | X-H torsion
[ 10167 10162 10161 10158 ] final -140.50 input  -65.29 | X-H torsion
[ 10718 10713 10712 10709 ] final  121.02 input   66.30 | X-H torsion
[ 10763 10752 10751 10750 ] final -165.35 input  -60.55 | X-H torsion
[ 11005 11000 10999 10996 ] final   35.80 input  -57.11 | X-H torsion

> <Gold.Protein.ActiveResidues>
 VAL166  LYS551  ARG553  GLY616  TRP617  ASP618  TYR619  PRO620  LYS621  CYS622 
 ASP623  PHE694  ASN695  SER759  ASP760  ASP761  ALA762  ILE779  LEU786  VAL792 
 PHE793  MET794  SER795  GLU796  ALA797  LYS798  CYS799  TRP800  GLU811  SER814 

> <Gold.Protein.RotatedAtoms>
  152.4598  134.5210  159.9782 H   0  0  0  0  0  0  0  0  0  0  0  0  # atno 6907 bound_to 6896
  151.5262  133.3451  159.2918 H   0  0  0  0  0  0  0  0  0  0  0  0  # atno 6908 bound_to 6896
  150.8556  134.7924  159.7105 H   0  0  0  0  0  0  0  0  0  0  0  0  # atno 6909 bound_to 6896
  146.2429  140.0123  142.8405 H   0  0  0  0  0  0  0  0  0  0  0  0  # atno 7974 bound_to 7965
  155.9293  140.3416  155.6236 H   0  0  0  0  0  0  0  0  0  0  0  0  # atno 8008 bound_to 7997
  155.7177  140.0779  157.2362 H   0  0  0  0  0  0  0  0  0  0  0  0  # atno 8009 bound_to 7997
  154.4082  140.1611  156.2355 H   0  0  0  0  0  0  0  0  0  0  0  0  # atno 8010 bound_to 7997
  139.8276  143.7490  152.2666 H   0  0  0  0  0  0  0  0  0  0  0  0  # atno 10167 bound_to 10162
  157.5848  131.1071  150.8116 H   0  0  0  0  0  0  0  0  0  0  0  0  # atno 10718 bound_to 10713
  154.6940  135.2976  154.9438 H   0  0  0  0  0  0  0  0  0  0  0  0  # atno 10763 bound_to 10752
  154.0392  135.6659  153.4792 H   0  0  0  0  0  0  0  0  0  0  0  0  # atno 10764 bound_to 10752
  153.0632  135.5103  154.8048 H   0  0  0  0  0  0  0  0  0  0  0  0  # atno 10765 bound_to 10752
  140.2390  134.3438  155.7933 H   0  0  0  0  0  0  0  0  0  0  0  0  # atno 11005 bound_to 11000
  145.1316  140.9521  143.4541 LP  0  0  0  0  0  0  0  0  0  0  0  0  # atno 17320 bound_to 7965
  145.0382  139.3283  143.5990 LP  0  0  0  0  0  0  0  0  0  0  0  0  # atno 17321 bound_to 7965
  139.7688  144.7483  151.0255 LP  0  0  0  0  0  0  0  0  0  0  0  0  # atno 17342 bound_to 10162
  140.7809  143.4668  151.0201 LP  0  0  0  0  0  0  0  0  0  0  0  0  # atno 17343 bound_to 10162
  156.8552  130.5094  149.5308 LP  0  0  0  0  0  0  0  0  0  0  0  0  # atno 17370 bound_to 10713
  156.0897  130.5886  150.9710 LP  0  0  0  0  0  0  0  0  0  0  0  0  # atno 17371 bound_to 10713
  141.2212  133.7288  156.8854 LP  0  0  0  0  0  0  0  0  0  0  0  0  # atno 17394 bound_to 11000
  140.1673  134.9124  157.2790 LP  0  0  0  0  0  0  0  0  0  0  0  0  # atno 17395 bound_to 11000

$$$$
