AV-unprocessed.smi:1919|AV-procd|sdf|7773|dock6
  -GOLD-   22720 9513D 1   1.00000     0.00000
 Structure written by MMmdl.
 36 38  0  0  0  0  0  0  0  0  1 V2000
  153.3139  139.4563  154.7472 O   0  0  0  0  0  0  0  0  0  0  0  0
  152.2283  138.9110  155.4648 C   0  0  0  0  0  0  0  0  0  0  0  0
  150.9619  139.6960  155.3004 C   0  0  0  0  0  0  0  0  0  0  0  0
  150.3495  139.7941  154.1197 N   0  0  0  0  0  0  0  0  0  0  0  0
  149.2392  140.5603  154.4142 C   0  0  0  0  0  0  0  0  0  0  0  0
  148.1885  141.0120  153.5839 C   0  0  0  0  0  0  0  0  0  0  0  0
  147.1384  141.7866  154.1190 C   0  0  0  0  0  0  0  0  0  0  0  0
  147.1233  142.1194  155.4889 C   0  0  0  0  0  0  0  0  0  0  0  0
  148.1616  141.6811  156.3330 C   0  0  0  0  0  0  0  0  0  0  0  0
  149.2098  140.9110  155.7932 C   0  0  0  0  0  0  0  0  0  0  0  0
  150.3588  140.3406  156.3328 N   0  0  0  0  0  0  0  0  0  0  0  0
  150.7776  140.4275  157.7268 C   0  0  0  0  0  0  0  0  0  0  0  0
  152.2053  140.9893  157.8885 C   0  0  2  0  0  0  0  0  0  0  0  0
  153.0803  139.9742  158.3396 O   0  0  0  0  0  0  0  0  0  0  0  0
  152.2149  142.2090  158.7962 C   0  0  0  0  0  0  0  0  0  0  0  0
  151.9556  143.4974  158.2783 C   0  0  0  0  0  0  0  0  0  0  0  0
  151.9794  144.6214  159.1269 C   0  0  0  0  0  0  0  0  0  0  0  0
  152.2652  144.4644  160.4967 C   0  0  0  0  0  0  0  0  0  0  0  0
  152.5297  143.1831  161.0172 C   0  0  0  0  0  0  0  0  0  0  0  0
  152.8095  143.0316  162.3331 F   0  0  0  0  0  0  0  0  0  0  0  0
  152.5054  142.0589  160.1692 C   0  0  0  0  0  0  0  0  0  0  0  0
  153.0179  140.2344  154.3006 H   0  0  0  0  0  0  0  0  0  0  0  0
  152.0658  137.8900  155.1176 H   0  0  0  0  0  0  0  0  0  0  0  0
  152.4833  138.8404  156.5221 H   0  0  0  0  0  0  0  0  0  0  0  0
  148.1896  140.7605  152.5336 H   0  0  0  0  0  0  0  0  0  0  0  0
  146.3395  142.1249  153.4755 H   0  0  0  0  0  0  0  0  0  0  0  0
  146.3143  142.7110  155.8914 H   0  0  0  0  0  0  0  0  0  0  0  0
  148.1516  141.9331  157.3828 H   0  0  0  0  0  0  0  0  0  0  0  0
  150.0667  141.0717  158.2458 H   0  0  0  0  0  0  0  0  0  0  0  0
  150.7022  139.4501  158.2016 H   0  0  0  0  0  0  0  0  0  0  0  0
  152.5789  141.2979  156.9117 H   0  0  0  0  0  0  0  0  0  0  0  0
  152.9854  139.8900  159.2759 H   0  0  0  0  0  0  0  0  0  0  0  0
  151.7409  143.6283  157.2276 H   0  0  0  0  0  0  0  0  0  0  0  0
  151.7803  145.6046  158.7265 H   0  0  0  0  0  0  0  0  0  0  0  0
  152.2837  145.3263  161.1471 H   0  0  0  0  0  0  0  0  0  0  0  0
  152.7139  141.0805  160.5768 H   0  0  0  0  0  0  0  0  0  0  0  0
  1  2  1  0  0  0  0
  1 22  1  0  0  0  0
  2  3  1  0  0  0  0
  2 23  1  0  0  0  0
  2 24  1  0  0  0  0
  3 11  1  0  0  0  0
  3  4  2  0  0  0  0
  4  5  1  0  0  0  0
  5 10  2  0  0  0  0
  5  6  1  0  0  0  0
  6  7  2  0  0  0  0
  6 25  1  0  0  0  0
  7  8  1  0  0  0  0
  7 26  1  0  0  0  0
  8  9  2  0  0  0  0
  8 27  1  0  0  0  0
  9 10  1  0  0  0  0
  9 28  1  0  0  0  0
 10 11  1  0  0  0  0
 11 12  1  0  0  0  0
 12 13  1  0  0  0  0
 12 29  1  0  0  0  0
 12 30  1  0  0  0  0
 13 14  1  0  0  0  0
 13 15  1  0  0  0  0
 13 31  1  0  0  0  0
 14 32  1  0  0  0  0
 15 21  1  0  0  0  0
 15 16  2  0  0  0  0
 16 17  1  0  0  0  0
 16 33  1  0  0  0  0
 17 18  2  0  0  0  0
 17 34  1  0  0  0  0
 18 19  1  0  0  0  0
 18 35  1  0  0  0  0
 19 20  1  0  0  0  0
 19 21  2  0  0  0  0
 21 36  1  0  0  0  0
M  END
> <s_m_source_file>
AV-unprocessed.smi

> <i_m_source_file_index>
1919

> <i_lp_mmshare_version>
43012

> <i_f3d_flags>
0

> <s_epik_input>
W2NIXTFbY0hdW2NIXVtjSF1jKGMxMiluKGMobjIpW0NIMl1bT0hdKVtDSDJdW0NASF0oW09IXSljM1tjSF1bY0hdW2NIXWMoRilbY0hdMw==

> <s_epik_cmdline>
J2VwaWtfcHl0aG9uJywgJy1waCcsICc3LjAnLCAnLXRuJywgJzgnLCAnLW1hJywgJzIwMCcsICctbWV0YWxfYmluZGluZycsICctaW1hZScsICc8aW5maWxlLm1hZT4nLCAnLW9tYWUnLCAnPG91dGZpbGUubWFlPic=

> <r_epik_Ionization_Penalty>
0.0634732

> <r_epik_Ionization_Penalty_Charging>
0

> <r_epik_Ionization_Penalty_Neutral>
0.0634732

> <r_epik_State_Penalty>
0.0551572

> <r_epik_Charging_Adjusted_Penalty>
0.0551572

> <i_epik_Tot_Q>
0

> <i_epik_Tot_abs_Q>
0

> <r_epik_Metal_State_Penalty>
5.78034e-05

> <b_epik_Metal_Only>
0

> <s_lp_Force_Field>
OPLS_2005

> <r_lp_Energy>
10.9146

> <b_lp_Chiralities_Consistent>
1

> <s_lp_Variant>
AV-unprocessed.smi:1919-1

> <Gold.Version>
5.8.1

> <Gold.Id.Protein>
6NUR|6NUR_protein|mol2

> <Gold.PLP.Fitness>
57.2589

> <Gold.PLP.PLP>
-53.0826

> <Gold.PLP.part.hbond>
-4.0000

> <Gold.PLP.part.metal>
0.0000

> <Gold.PLP.part.buried>
-2.2178

> <Gold.PLP.part.nonpolar>
-45.3405

> <Gold.PLP.part.repulsive>
0.6954

> <Gold.PLP.ligand.clash>
0.0000

> <Gold.PLP.ligand.torsion>
1.4961

> <Gold.PLP.Chemscore.Hbond>
2.3760

> <Gold.PLP.Chemscore.CHOScore>
0.0000

> <Gold.PLP.Chemscore.Metal>
0.0000

> <Gold.Chemscore.Hbonds>
donor molecule, donor type, donor heavy atom, donor atom, acceptor molecule, acceptor atom, score
      P1  H  7989  7998       L1     4  0.60
      P1  H  7997  8009       L1    14  0.80
      P1  H  7997  8010       L1     1  0.66

> <Gold.PLP.Chemscore.Internal.Correction>
0.0404

> <Gold.Rescore>
     Score         DG    S(hbond)    S(metal)    S(lipo)     H(rot)  DE(clash)    DE(int)     intcor
     16.25     -18.05       1.56        0.00     123.20       2.75       0.32       1.49       ----

> <Gold.Chemscore.Fitness>
16.2504

> <Gold.Chemscore.DG>
-18.0536

> <Gold.Chemscore.ZeroCoef>
-5.4800

> <Gold.Chemscore.Hbond>
1.5567

> <Gold.Chemscore.Metal>
0.0000

> <Gold.Chemscore.Lipo>
123.1988

> <Gold.Chemscore.Internal_Hbond>
0.0000

> <Gold.Chemscore.DEClash>
0.3179

> <Gold.Chemscore.DEInternal>
1.4852

> <Gold.Chemscore.Rot>
2.7500

> <Gold.Chemscore.Internal.Correction>
   9.000000E+99

> <Gold.Chemscore.Hbonds>
donor molecule, donor type, donor heavy atom, donor atom, acceptor molecule, acceptor atom, score
      P1  H  7989  7998       L1     4  0.03
      P1  H  7997  8009       L1    14  0.54
      P1  H  7997  8010       L1     1  0.08

> <Gold.Chemscore.Hbond.Weighted>
-5.1992

> <Gold.Chemscore.Metal.Weighted>
-0.0000

> <Gold.Chemscore.Lipo.Weighted>
-14.4143

> <Gold.Chemscore.Internal_Hbond.Weighted>
0.0000

> <Gold.Chemscore.DEClash.Weighted>
0.3179

> <Gold.Chemscore.DEInternal.Weighted>
1.4852

> <Gold.Chemscore.Rot.Weighted>
7.0399

> <Gold.Chemscore.Internal.Correction.Weighted>
   9.000000E+99

> <Gold.Protein.RotatedTorsions>
[ 6907 6896 6895 6894 ] final  176.52 input  -60.11 | X-H torsion
[ 7974 7965 7964 7962 ] final   24.51 input  175.53 | X-H torsion
[ 8008 7997 7996 7995 ] final  137.28 input   59.86 | X-H torsion
[ 10167 10162 10161 10158 ] final   28.15 input  -65.29 | X-H torsion
[ 10718 10713 10712 10709 ] final -133.53 input   66.30 | X-H torsion
[ 10763 10752 10751 10750 ] final  136.21 input  -60.55 | X-H torsion
[ 11005 11000 10999 10996 ] final  -74.10 input  -57.11 | X-H torsion

> <Gold.Protein.ActiveResidues>
 VAL166  LYS551  ARG553  GLY616  TRP617  ASP618  TYR619  PRO620  LYS621  CYS622 
 ASP623  PHE694  ASN695  SER759  ASP760  ASP761  ALA762  ILE779  LEU786  VAL792 
 PHE793  MET794  SER795  GLU796  ALA797  LYS798  CYS799  TRP800  GLU811  SER814 

> <Gold.Protein.RotatedAtoms>
  151.7188  133.3314  159.3309 H   0  0  0  0  0  0  0  0  0  0  0  0  # atno 6907 bound_to 6896
  150.7662  134.6466  159.6275 H   0  0  0  0  0  0  0  0  0  0  0  0  # atno 6908 bound_to 6896
  152.3665  134.6799  160.0242 H   0  0  0  0  0  0  0  0  0  0  0  0  # atno 6909 bound_to 6896
  146.1934  139.7595  142.8815 H   0  0  0  0  0  0  0  0  0  0  0  0  # atno 7974 bound_to 7965
  156.3002  140.2423  156.3884 H   0  0  0  0  0  0  0  0  0  0  0  0  # atno 8008 bound_to 7997
  154.8636  140.0419  157.1700 H   0  0  0  0  0  0  0  0  0  0  0  0  # atno 8009 bound_to 7997
  154.8870  140.2957  155.5396 H   0  0  0  0  0  0  0  0  0  0  0  0  # atno 8010 bound_to 7997
  140.4877  144.0516  150.6286 H   0  0  0  0  0  0  0  0  0  0  0  0  # atno 10167 bound_to 10162
  156.2459  130.7124  151.1003 H   0  0  0  0  0  0  0  0  0  0  0  0  # atno 10718 bound_to 10713
  153.8528  135.3077  155.3433 H   0  0  0  0  0  0  0  0  0  0  0  0  # atno 10763 bound_to 10752
  154.7884  135.4797  153.9999 H   0  0  0  0  0  0  0  0  0  0  0  0  # atno 10764 bound_to 10752
  153.1508  135.6842  153.8978 H   0  0  0  0  0  0  0  0  0  0  0  0  # atno 10765 bound_to 10752
  141.1631  133.6900  156.7312 H   0  0  0  0  0  0  0  0  0  0  0  0  # atno 11005 bound_to 11000
  145.3721  141.0344  143.3225 LP  0  0  0  0  0  0  0  0  0  0  0  0  # atno 17320 bound_to 7965
  144.8532  139.5290  143.6847 LP  0  0  0  0  0  0  0  0  0  0  0  0  # atno 17321 bound_to 7965
  140.3776  143.2820  152.0207 LP  0  0  0  0  0  0  0  0  0  0  0  0  # atno 17342 bound_to 10162
  139.4845  144.6180  151.7309 LP  0  0  0  0  0  0  0  0  0  0  0  0  # atno 17343 bound_to 10162
  157.7194  131.0690  150.6195 LP  0  0  0  0  0  0  0  0  0  0  0  0  # atno 17370 bound_to 10713
  156.6272  130.4422  149.5800 LP  0  0  0  0  0  0  0  0  0  0  0  0  # atno 17371 bound_to 10713
  140.2743  134.8367  157.3876 LP  0  0  0  0  0  0  0  0  0  0  0  0  # atno 17394 bound_to 11000
  140.1492  134.4872  155.7974 LP  0  0  0  0  0  0  0  0  0  0  0  0  # atno 17395 bound_to 11000

$$$$
