AV-unprocessed.smi:564|AV-procd|sdf|2949|dock10
  -GOLD-   2262023453D 1   1.00000     0.00000
 Structure written by MMmdl.
 50 51  0  0  0  0  0  0  0  0  2 V2000
  148.7007  137.2687  158.7321 C   0  0  0  0  0  0  0  0  0  0  0  0
  148.2521  136.5093  159.9480 C   0  0  0  0  0  0  0  0  0  0  0  0
  148.0162  137.1777  161.0642 N   0  0  0  0  0  0  0  0  0  0  0  0
  147.6290  136.2416  161.9532 N   0  0  0  0  0  0  0  0  0  0  0  0
  147.2831  136.6456  163.3021 C   0  0  0  0  0  0  0  0  0  0  0  0
  147.6164  134.9777  161.3959 C   0  0  0  0  0  0  0  0  0  0  0  0
  147.2132  133.7651  162.1711 C   0  0  0  0  0  0  0  0  0  0  0  0
  148.0206  135.1085  160.0940 C   0  0  0  0  0  0  0  0  0  0  0  0
  148.1791  134.0287  159.0495 C   0  0  0  0  0  0  0  0  0  0  0  0
  147.4726  134.3972  157.7385 C   0  0  0  0  0  0  0  0  0  0  0  0
  146.2461  134.3422  157.6334 O   0  0  0  0  0  0  0  0  0  0  0  0
  148.2725  134.7752  156.7300 N   0  0  0  0  0  0  0  0  0  0  0  0
  147.8128  135.1623  155.4015 C   0  0  0  0  0  0  0  0  0  0  0  0
  147.5184  133.9274  154.5265 C   0  0  0  0  0  0  0  0  0  0  0  0
  147.0592  134.2673  153.1522 N   0  3  2  0  0  0  0  0  0  0  0  0
  145.9103  135.2133  153.1710 C   0  0  0  0  0  0  0  0  0  0  0  0
  145.5801  135.7281  151.7610 C   0  0  0  0  0  0  0  0  0  0  0  0
  145.3132  134.5655  150.7996 C   0  0  0  0  0  0  0  0  0  0  0  0
  146.5054  133.5993  150.8090 C   0  0  0  0  0  0  0  0  0  0  0  0
  146.8460  133.1056  152.2318 C   0  0  2  0  0  0  0  0  0  0  0  0
  145.8157  132.0817  152.7550 C   0  0  0  0  0  0  0  0  0  0  0  0
  148.9186  136.6029  157.8979 H   0  0  0  0  0  0  0  0  0  0  0  0
  149.6036  137.8432  158.9398 H   0  0  0  0  0  0  0  0  0  0  0  0
  147.9306  137.9662  158.4024 H   0  0  0  0  0  0  0  0  0  0  0  0
  147.7144  135.9482  164.0203 H   0  0  0  0  0  0  0  0  0  0  0  0
  146.1988  136.6494  163.4146 H   0  0  0  0  0  0  0  0  0  0  0  0
  147.6659  137.6451  163.5130 H   0  0  0  0  0  0  0  0  0  0  0  0
  146.9878  132.9307  161.5071 H   0  0  0  0  0  0  0  0  0  0  0  0
  146.3231  133.9600  162.7693 H   0  0  0  0  0  0  0  0  0  0  0  0
  148.0127  133.4539  162.8435 H   0  0  0  0  0  0  0  0  0  0  0  0
  149.2304  133.8396  158.8329 H   0  0  0  0  0  0  0  0  0  0  0  0
  147.7747  133.0813  159.4075 H   0  0  0  0  0  0  0  0  0  0  0  0
  149.2683  134.7999  156.8973 H   0  0  0  0  0  0  0  0  0  0  0  0
  146.9299  135.7993  155.4797 H   0  0  0  0  0  0  0  0  0  0  0  0
  148.6021  135.7705  154.9611 H   0  0  0  0  0  0  0  0  0  0  0  0
  148.3874  133.2704  154.4843 H   0  0  0  0  0  0  0  0  0  0  0  0
  146.7302  133.3471  155.0080 H   0  0  0  0  0  0  0  0  0  0  0  0
  145.0373  134.7329  153.6142 H   0  0  0  0  0  0  0  0  0  0  0  0
  146.1494  136.0665  153.8070 H   0  0  0  0  0  0  0  0  0  0  0  0
  144.7121  136.3874  151.7988 H   0  0  0  0  0  0  0  0  0  0  0  0
  146.4094  136.3300  151.3869 H   0  0  0  0  0  0  0  0  0  0  0  0
  144.4017  134.0430  151.0913 H   0  0  0  0  0  0  0  0  0  0  0  0
  145.1437  134.9437  149.7909 H   0  0  0  0  0  0  0  0  0  0  0  0
  146.3052  132.7527  150.1512 H   0  0  0  0  0  0  0  0  0  0  0  0
  147.3749  134.1071  150.3890 H   0  0  0  0  0  0  0  0  0  0  0  0
  147.7950  132.5790  152.1369 H   0  0  0  0  0  0  0  0  0  0  0  0
  145.6822  131.2707  152.0385 H   0  0  0  0  0  0  0  0  0  0  0  0
  144.8360  132.5274  152.9239 H   0  0  0  0  0  0  0  0  0  0  0  0
  146.1390  131.6226  153.6889 H   0  0  0  0  0  0  0  0  0  0  0  0
  147.8203  134.7915  152.7439 H   0  0  0  0  0  0  0  0  0  0  0  0
  1  2  1  0  0  0  0
  1 22  1  0  0  0  0
  1 23  1  0  0  0  0
  1 24  1  0  0  0  0
  2  8  1  0  0  0  0
  2  3  2  0  0  0  0
  3  4  1  0  0  0  0
  4  5  1  0  0  0  0
  4  6  1  0  0  0  0
  5 25  1  0  0  0  0
  5 26  1  0  0  0  0
  5 27  1  0  0  0  0
  6  7  1  0  0  0  0
  6  8  2  0  0  0  0
  7 28  1  0  0  0  0
  7 29  1  0  0  0  0
  7 30  1  0  0  0  0
  8  9  1  0  0  0  0
  9 10  1  0  0  0  0
  9 31  1  0  0  0  0
  9 32  1  0  0  0  0
 10 11  2  0  0  0  0
 10 12  1  0  0  0  0
 12 13  1  0  0  0  0
 12 33  1  0  0  0  0
 13 14  1  0  0  0  0
 13 34  1  0  0  0  0
 13 35  1  0  0  0  0
 14 15  1  0  0  0  0
 14 36  1  0  0  0  0
 14 37  1  0  0  0  0
 15 20  1  0  0  0  0
 15 16  1  0  0  0  0
 15 50  1  0  0  0  0
 16 17  1  0  0  0  0
 16 38  1  0  0  0  0
 16 39  1  0  0  0  0
 17 18  1  0  0  0  0
 17 40  1  0  0  0  0
 17 41  1  0  0  0  0
 18 19  1  0  0  0  0
 18 42  1  0  0  0  0
 18 43  1  0  0  0  0
 19 20  1  0  0  0  0
 19 44  1  0  0  0  0
 19 45  1  0  0  0  0
 20 21  1  0  0  0  0
 20 46  1  0  0  0  0
 21 47  1  0  0  0  0
 21 48  1  0  0  0  0
 21 49  1  0  0  0  0
M  CHG  1  15   1
M  END
> <s_m_source_file>
AV-unprocessed.smi

> <i_m_source_file_index>
564

> <i_lp_mmshare_version>
43012

> <i_f3d_flags>
0

> <s_epik_input>
W0NIM11jMW5uKFtDSDNdKWMoW0NIM10pYzFbQ0gyXUMoPU8pW05IXVtDSDJdW0NIMl1OMltDSDJdW0NIMl1bQ0gyXVtDSDJdW0NASF0yW0NIM10=

> <s_epik_cmdline>
J2VwaWtfcHl0aG9uJywgJy1waCcsICc3LjAnLCAnLXRuJywgJzgnLCAnLW1hJywgJzIwMCcsICctbWV0YWxfYmluZGluZycsICctaW1hZScsICc8aW5maWxlLm1hZT4nLCAnLW9tYWUnLCAnPG91dGZpbGUubWFlPic=

> <r_lp_tautomer_probability>
1

> <r_epik_Ionization_Penalty>
0.00456826

> <r_epik_Ionization_Penalty_Charging>
0.00240401

> <r_epik_Ionization_Penalty_Neutral>
0.00216425

> <r_epik_State_Penalty>
-0

> <r_epik_Charging_Adjusted_Penalty>
0.00240401

> <i_epik_Tot_Q>
1

> <i_epik_Tot_abs_Q>
1

> <r_epik_Metal_State_Penalty>
-0

> <b_epik_Metal_Only>
0

> <s_lp_Force_Field>
OPLS_2005

> <r_lp_Energy>
15.7718

> <b_lp_Chiralities_Consistent>
1

> <s_lp_Variant>
AV-unprocessed.smi:564-3

> <Gold.Version>
5.8.1

> <Gold.Id.Protein>
6NUR|6NUR_protein|mol2

> <Gold.PLP.Fitness>
44.4017

> <Gold.PLP.PLP>
-34.2456

> <Gold.PLP.part.hbond>
-3.0000

> <Gold.PLP.part.metal>
0.0000

> <Gold.PLP.part.buried>
-4.1064

> <Gold.PLP.part.nonpolar>
-27.1185

> <Gold.PLP.part.repulsive>
0.0208

> <Gold.PLP.ligand.clash>
0.0000

> <Gold.PLP.ligand.torsion>
0.4476

> <Gold.PLP.Chemscore.Hbond>
3.6640

> <Gold.PLP.Chemscore.CHOScore>
0.0000

> <Gold.PLP.Chemscore.Metal>
0.0000

> <Gold.Chemscore.Hbonds>
donor molecule, donor type, donor heavy atom, donor atom, acceptor molecule, acceptor atom, score
      L1  H    15    50       P1  7948  2.00
      P1  H  6931  6943       L1     3  0.98
      P1  H  6934  6947       L1     3  0.72

> <Gold.PLP.Chemscore.Internal.Correction>
0.0593

> <Gold.Rescore>
     Score         DG    S(hbond)    S(metal)    S(lipo)     H(rot)  DE(clash)    DE(int)     intcor
     17.72     -18.34       2.40        0.00      76.61       1.61       0.28       0.33       ----

> <Gold.Chemscore.Fitness>
17.7244

> <Gold.Chemscore.DG>
-18.3361

> <Gold.Chemscore.ZeroCoef>
-5.4800

> <Gold.Chemscore.Hbond>
2.4028

> <Gold.Chemscore.Metal>
0.0000

> <Gold.Chemscore.Lipo>
76.6089

> <Gold.Chemscore.Internal_Hbond>
0.0000

> <Gold.Chemscore.DEClash>
0.2811

> <Gold.Chemscore.DEInternal>
0.3307

> <Gold.Chemscore.Rot>
1.6142

> <Gold.Chemscore.Internal.Correction>
   9.000000E+99

> <Gold.Chemscore.Hbonds>
donor molecule, donor type, donor heavy atom, donor atom, acceptor molecule, acceptor atom, score
      L1  H    15    50       P1  7948  0.87
      P1  H  6931  6943       L1     3  0.56
      P1  H  6934  6947       L1     3  0.65

> <Gold.Chemscore.Hbond.Weighted>
-8.0253

> <Gold.Chemscore.Metal.Weighted>
-0.0000

> <Gold.Chemscore.Lipo.Weighted>
-8.9632

> <Gold.Chemscore.Internal_Hbond.Weighted>
0.0000

> <Gold.Chemscore.DEClash.Weighted>
0.2811

> <Gold.Chemscore.DEInternal.Weighted>
0.3307

> <Gold.Chemscore.Rot.Weighted>
4.1324

> <Gold.Chemscore.Internal.Correction.Weighted>
   9.000000E+99

> <Gold.Protein.RotatedTorsions>
[ 6907 6896 6895 6894 ] final -114.14 input  -60.11 | X-H torsion
[ 7974 7965 7964 7962 ] final  102.89 input  175.53 | X-H torsion
[ 8008 7997 7996 7995 ] final -135.81 input   59.86 | X-H torsion
[ 10167 10162 10161 10158 ] final -134.33 input  -65.29 | X-H torsion
[ 10718 10713 10712 10709 ] final  -60.60 input   66.30 | X-H torsion
[ 10763 10752 10751 10750 ] final    9.80 input  -60.55 | X-H torsion
[ 11005 11000 10999 10996 ] final   36.68 input  -57.11 | X-H torsion

> <Gold.Protein.ActiveResidues>
 VAL166  LYS551  ARG553  GLY616  TRP617  ASP618  TYR619  PRO620  LYS621  CYS622 
 ASP623  PHE694  ASN695  SER759  ASP760  ASP761  ALA762  ILE779  LEU786  VAL792 
 PHE793  MET794  SER795  GLU796  ALA797  LYS798  CYS799  TRP800  GLU811  SER814 

> <Gold.Protein.RotatedAtoms>
  150.7880  133.8843  159.3294 H   0  0  0  0  0  0  0  0  0  0  0  0  # atno 6907 bound_to 6896
  151.6689  135.0977  160.0203 H   0  0  0  0  0  0  0  0  0  0  0  0  # atno 6908 bound_to 6896
  152.3949  133.6693  159.6303 H   0  0  0  0  0  0  0  0  0  0  0  0  # atno 6909 bound_to 6896
  145.3531  139.2434  143.3547 H   0  0  0  0  0  0  0  0  0  0  0  0  # atno 7974 bound_to 7965
  155.3848  140.0496  157.3042 H   0  0  0  0  0  0  0  0  0  0  0  0  # atno 8008 bound_to 7997
  154.5065  140.2176  155.9203 H   0  0  0  0  0  0  0  0  0  0  0  0  # atno 8009 bound_to 7997
  156.1531  140.3132  155.8687 H   0  0  0  0  0  0  0  0  0  0  0  0  # atno 8010 bound_to 7997
  139.8891  143.6744  152.2615 H   0  0  0  0  0  0  0  0  0  0  0  0  # atno 10167 bound_to 10162
  156.0979  130.4190  150.0877 H   0  0  0  0  0  0  0  0  0  0  0  0  # atno 10718 bound_to 10713
  153.2101  135.6868  153.8125 H   0  0  0  0  0  0  0  0  0  0  0  0  # atno 10763 bound_to 10752
  153.7360  135.3245  155.3296 H   0  0  0  0  0  0  0  0  0  0  0  0  # atno 10764 bound_to 10752
  154.8217  135.4647  154.0904 H   0  0  0  0  0  0  0  0  0  0  0  0  # atno 10765 bound_to 10752
  140.2302  134.3537  155.7967 H   0  0  0  0  0  0  0  0  0  0  0  0  # atno 11005 bound_to 11000
  146.2959  140.4151  142.8722 LP  0  0  0  0  0  0  0  0  0  0  0  0  # atno 17320 bound_to 7965
  144.8702  140.7262  143.6051 LP  0  0  0  0  0  0  0  0  0  0  0  0  # atno 17321 bound_to 7965
  139.7126  144.7617  151.1087 LP  0  0  0  0  0  0  0  0  0  0  0  0  # atno 17342 bound_to 10162
  140.7730  143.5311  150.9422 LP  0  0  0  0  0  0  0  0  0  0  0  0  # atno 17343 bound_to 10162
  156.8871  130.9576  151.3593 LP  0  0  0  0  0  0  0  0  0  0  0  0  # atno 17370 bound_to 10713
  157.6144  130.8607  149.9004 LP  0  0  0  0  0  0  0  0  0  0  0  0  # atno 17371 bound_to 10713
  141.2218  133.7241  156.8718 LP  0  0  0  0  0  0  0  0  0  0  0  0  # atno 17394 bound_to 11000
  140.1759  134.9067  157.2890 LP  0  0  0  0  0  0  0  0  0  0  0  0  # atno 17395 bound_to 11000

$$$$
