AV-unprocessed.smi:290|AV-procd|sdf|2245|dock1
  -GOLD-   2262022123D 1   1.00000     0.00000
 Structure written by MMmdl.
 59 62  0  0  0  0  0  0  0  0  2 V2000
  133.7941  139.6429  153.7431 C   0  0  0  0  0  0  0  0  0  0  0  0
  134.8913  138.6414  154.1359 C   0  0  2  0  0  0  0  0  0  0  0  0
  134.3287  137.4075  154.5807 O   0  0  0  0  0  0  0  0  0  0  0  0
  134.9505  136.9847  155.7885 C   0  0  0  0  0  0  0  0  0  0  0  0
  136.2611  137.7611  155.8540 C   0  0  0  0  0  0  0  0  0  0  0  0
  135.8827  139.0980  155.2310 C   0  0  2  0  0  0  0  0  0  0  0  0
  135.2128  139.8760  156.2091 O   0  0  0  0  0  0  0  0  0  0  0  0
  137.0715  139.9634  154.7375 C   0  0  0  0  0  0  0  0  0  0  0  0
  138.2503  139.2156  154.3274 N   0  0  0  0  0  0  0  0  0  0  0  0
  138.7680  139.1242  153.0567 C   0  0  0  0  0  0  0  0  0  0  0  0
  139.8410  138.3910  152.9470 N   0  0  0  0  0  0  0  0  0  0  0  0
  140.1033  137.9583  154.2429 C   0  0  0  0  0  0  0  0  0  0  0  0
  141.1076  137.1423  154.8473 C   0  0  0  0  0  0  0  0  0  0  0  0
  142.1375  136.5501  154.1833 N   0  0  0  0  0  0  0  0  0  0  0  0
  142.9062  137.2493  153.1596 C   0  0  0  0  0  0  0  0  0  0  0  0
  143.8049  136.1855  152.5158 C   0  0  0  0  0  0  0  0  0  0  0  0
  143.7674  135.0122  153.5112 C   0  0  2  0  0  0  0  0  0  0  0  0
  144.1355  133.6730  152.9607 N   0  3  2  0  0  0  0  0  0  0  0  0
  145.5896  133.4006  153.1032 C   0  0  0  0  0  0  0  0  0  0  0  0
  143.6632  133.4491  151.5645 C   0  0  0  0  0  0  0  0  0  0  0  0
  143.7834  131.9828  151.1109 C   0  0  0  0  0  0  0  0  0  0  0  0
  143.0623  131.7849  149.9129 O   0  0  0  0  0  0  0  0  0  0  0  0
  142.3312  135.1116  154.0691 C   0  0  2  0  0  0  0  0  0  0  0  0
  141.2583  134.4797  153.1512 C   0  0  0  0  0  0  0  0  0  0  0  0
  141.0099  136.9346  156.1873 N   0  0  0  0  0  0  0  0  0  0  0  0
  140.0222  137.4891  156.8947 C   0  0  0  0  0  0  0  0  0  0  0  0
  139.0314  138.2719  156.4685 N   0  0  0  0  0  0  0  0  0  0  0  0
  139.1087  138.4769  155.1231 C   0  0  0  0  0  0  0  0  0  0  0  0
  144.4653  135.2443  154.3187 H   0  0  0  0  0  0  0  0  0  0  0  0
  142.3032  134.6487  155.0542 H   0  0  0  0  0  0  0  0  0  0  0  0
  134.2264  140.5857  153.4070 H   0  0  0  0  0  0  0  0  0  0  0  0
  133.1246  139.8553  154.5769 H   0  0  0  0  0  0  0  0  0  0  0  0
  133.1862  139.2486  152.9289 H   0  0  0  0  0  0  0  0  0  0  0  0
  135.4459  138.3790  153.2365 H   0  0  0  0  0  0  0  0  0  0  0  0
  134.3056  137.2492  156.6273 H   0  0  0  0  0  0  0  0  0  0  0  0
  135.1010  135.9053  155.8045 H   0  0  0  0  0  0  0  0  0  0  0  0
  136.6624  137.8444  156.8647 H   0  0  0  0  0  0  0  0  0  0  0  0
  136.9981  137.2394  155.2444 H   0  0  0  0  0  0  0  0  0  0  0  0
  134.3314  139.5481  156.3013 H   0  0  0  0  0  0  0  0  0  0  0  0
  136.7560  140.5807  153.8951 H   0  0  0  0  0  0  0  0  0  0  0  0
  137.3747  140.6584  155.5220 H   0  0  0  0  0  0  0  0  0  0  0  0
  138.3167  139.6154  152.2065 H   0  0  0  0  0  0  0  0  0  0  0  0
  142.2596  137.7204  152.4180 H   0  0  0  0  0  0  0  0  0  0  0  0
  143.5079  138.0263  153.6328 H   0  0  0  0  0  0  0  0  0  0  0  0
  143.3876  135.8846  151.5539 H   0  0  0  0  0  0  0  0  0  0  0  0
  144.8118  136.5654  152.3406 H   0  0  0  0  0  0  0  0  0  0  0  0
  146.1743  134.0733  152.4746 H   0  0  0  0  0  0  0  0  0  0  0  0
  145.8380  132.3771  152.8279 H   0  0  0  0  0  0  0  0  0  0  0  0
  145.9280  133.5276  154.1306 H   0  0  0  0  0  0  0  0  0  0  0  0
  142.6163  133.7263  151.4553 H   0  0  0  0  0  0  0  0  0  0  0  0
  144.2192  134.0992  150.8875 H   0  0  0  0  0  0  0  0  0  0  0  0
  144.8302  131.7467  150.9180 H   0  0  0  0  0  0  0  0  0  0  0  0
  143.4451  131.2787  151.8696 H   0  0  0  0  0  0  0  0  0  0  0  0
  142.1416  131.7262  150.1206 H   0  0  0  0  0  0  0  0  0  0  0  0
  141.3976  133.4040  153.0488 H   0  0  0  0  0  0  0  0  0  0  0  0
  141.2721  134.9106  152.1499 H   0  0  0  0  0  0  0  0  0  0  0  0
  140.2563  134.6307  153.5518 H   0  0  0  0  0  0  0  0  0  0  0  0
  140.0258  137.2732  157.9531 H   0  0  0  0  0  0  0  0  0  0  0  0
  143.6493  132.9950  153.5307 H   0  0  0  0  0  0  0  0  0  0  0  0
  1  2  1  0  0  0  0
  1 31  1  0  0  0  0
  1 32  1  0  0  0  0
  1 33  1  0  0  0  0
  2  6  1  0  0  0  0
  2  3  1  0  0  0  0
  2 34  1  0  0  0  0
  3  4  1  0  0  0  0
  4  5  1  0  0  0  0
  4 35  1  0  0  0  0
  4 36  1  0  0  0  0
  5  6  1  0  0  0  0
  5 37  1  0  0  0  0
  5 38  1  0  0  0  0
  6  7  1  0  0  0  0
  6  8  1  0  0  0  0
  7 39  1  0  0  0  0
  8  9  1  0  0  0  0
  8 40  1  0  0  0  0
  8 41  1  0  0  0  0
  9 28  1  0  0  0  0
  9 10  1  0  0  0  0
 10 11  2  0  0  0  0
 10 42  1  0  0  0  0
 11 12  1  0  0  0  0
 12 28  2  0  0  0  0
 12 13  1  0  0  0  0
 13 14  1  0  0  0  0
 13 25  2  0  0  0  0
 14 23  1  0  0  0  0
 14 15  1  0  0  0  0
 15 16  1  0  0  0  0
 15 43  1  0  0  0  0
 15 44  1  0  0  0  0
 16 17  1  0  0  0  0
 16 45  1  0  0  0  0
 16 46  1  0  0  0  0
 17 29  1  0  0  0  0
 17 18  1  0  0  0  0
 17 23  1  0  0  0  0
 18 19  1  0  0  0  0
 18 20  1  0  0  0  0
 18 59  1  0  0  0  0
 19 47  1  0  0  0  0
 19 48  1  0  0  0  0
 19 49  1  0  0  0  0
 20 21  1  0  0  0  0
 20 50  1  0  0  0  0
 20 51  1  0  0  0  0
 21 22  1  0  0  0  0
 21 52  1  0  0  0  0
 21 53  1  0  0  0  0
 22 54  1  0  0  0  0
 23 30  1  0  0  0  0
 23 24  1  0  0  0  0
 24 55  1  0  0  0  0
 24 56  1  0  0  0  0
 24 57  1  0  0  0  0
 25 26  1  0  0  0  0
 26 27  2  0  0  0  0
 26 58  1  0  0  0  0
 27 28  1  0  0  0  0
M  CHG  1  18   1
M  END
> <s_m_source_file>
AV-unprocessed.smi

> <i_m_source_file_index>
290

> <i_lp_mmshare_version>
43012

> <i_f3d_flags>
0

> <s_epik_input>
W0NIMl0xW0NIMl1PW0NAQEhdKFtDSDNdKVtDQEBdMShbT0hdKVtDSDJdbihbY0hdbjIpYyhjMjMpbltjSF1uYzNONFtDSDJdW0NIMl1bQ0BIXShbQ0BIXTRbQ0gzXSlOKFtDSDNdKVtDSDJdW0NIMl1bT0hd

> <s_epik_cmdline>
J2VwaWtfcHl0aG9uJywgJy1waCcsICc3LjAnLCAnLXRuJywgJzgnLCAnLW1hJywgJzIwMCcsICctbWV0YWxfYmluZGluZycsICctaW1hZScsICc8aW5maWxlLm1hZT4nLCAnLW9tYWUnLCAnPG91dGZpbGUubWFlPic=

> <r_lp_tautomer_probability>
1

> <r_epik_Ionization_Penalty>
0.0036983

> <r_epik_Ionization_Penalty_Charging>
0.0032725

> <r_epik_Ionization_Penalty_Neutral>
0.000425798

> <r_epik_State_Penalty>
-0

> <r_epik_Charging_Adjusted_Penalty>
0.0032725

> <i_epik_Tot_Q>
1

> <i_epik_Tot_abs_Q>
1

> <r_epik_Metal_State_Penalty>
-0

> <b_epik_Metal_Only>
0

> <s_lp_Force_Field>
OPLS_2005

> <r_lp_Energy>
66.7181

> <b_lp_Chiralities_Consistent>
1

> <s_lp_Variant>
AV-unprocessed.smi:290-31

> <Gold.Version>
5.8.1

> <Gold.Id.Protein>
6NUR|6NUR_protein|mol2

> <Gold.PLP.Fitness>
45.0146

> <Gold.PLP.PLP>
-38.0401

> <Gold.PLP.part.hbond>
-3.9734

> <Gold.PLP.part.metal>
0.0000

> <Gold.PLP.part.buried>
-5.5657

> <Gold.PLP.part.nonpolar>
-30.6726

> <Gold.PLP.part.repulsive>
0.9086

> <Gold.PLP.ligand.clash>
0.0000

> <Gold.PLP.ligand.torsion>
2.2697

> <Gold.PLP.Chemscore.Hbond>
3.4754

> <Gold.PLP.Chemscore.CHOScore>
0.2838

> <Gold.PLP.Chemscore.Metal>
0.0000

> <Gold.Chemscore.Hbonds>
donor molecule, donor type, donor heavy atom, donor atom, acceptor molecule, acceptor atom, score
      L1  H    18    59       P1 10957  2.00
      L1  H    22    54       P1 10952  0.59
      P1  H 10785 10796       L1    22  0.90
      P1  H 11000 11005       L1    25  0.02
      L1  C    10    42       P1 10160  0.31

> <Gold.PLP.Chemscore.Internal.Correction>
0.2365

> <Gold.Rescore>
     Score         DG    S(hbond)    S(metal)    S(lipo)     H(rot)  DE(clash)    DE(int)     intcor
      9.48     -12.35       1.81        0.00      80.39       3.35       0.21       2.66       ----

> <Gold.Chemscore.Fitness>
9.4793

> <Gold.Chemscore.DG>
-12.3545

> <Gold.Chemscore.ZeroCoef>
-5.4800

> <Gold.Chemscore.Hbond>
1.8112

> <Gold.Chemscore.Metal>
0.0000

> <Gold.Chemscore.Lipo>
80.3896

> <Gold.Chemscore.Internal_Hbond>
0.0000

> <Gold.Chemscore.DEClash>
0.2122

> <Gold.Chemscore.DEInternal>
2.6631

> <Gold.Chemscore.Rot>
3.3518

> <Gold.Chemscore.Internal.Correction>
   9.000000E+99

> <Gold.Chemscore.Hbonds>
donor molecule, donor type, donor heavy atom, donor atom, acceptor molecule, acceptor atom, score
      L1  H    18    59       P1 10957  0.84
      L1  H    22    54       P1 10952  0.48
      P1  H 10785 10796       L1    22  0.17

> <Gold.Chemscore.Hbond.Weighted>
-6.0495

> <Gold.Chemscore.Metal.Weighted>
-0.0000

> <Gold.Chemscore.Lipo.Weighted>
-9.4056

> <Gold.Chemscore.Internal_Hbond.Weighted>
0.0000

> <Gold.Chemscore.DEClash.Weighted>
0.2122

> <Gold.Chemscore.DEInternal.Weighted>
2.6631

> <Gold.Chemscore.Rot.Weighted>
8.5806

> <Gold.Chemscore.Internal.Correction.Weighted>
   9.000000E+99

> <Gold.Protein.RotatedTorsions>
[ 6907 6896 6895 6894 ] final  128.11 input  -60.11 | X-H torsion
[ 7974 7965 7964 7962 ] final   -5.27 input  175.53 | X-H torsion
[ 8008 7997 7996 7995 ] final    2.11 input   59.86 | X-H torsion
[ 10167 10162 10161 10158 ] final -135.66 input  -65.29 | X-H torsion
[ 10718 10713 10712 10709 ] final  -82.55 input   66.30 | X-H torsion
[ 10763 10752 10751 10750 ] final  150.44 input  -60.55 | X-H torsion
[ 11005 11000 10999 10996 ] final   70.54 input  -57.11 | X-H torsion

> <Gold.Protein.ActiveResidues>
 VAL166  LYS551  ARG553  GLY616  TRP617  ASP618  TYR619  PRO620  LYS621  CYS622 
 ASP623  PHE694  ASN695  SER759  ASP760  ASP761  ALA762  ILE779  LEU786  VAL792 
 PHE793  MET794  SER795  GLU796  ALA797  LYS798  CYS799  TRP800  GLU811  SER814 

> <Gold.Protein.RotatedAtoms>
  152.3750  133.6469  159.6116 H   0  0  0  0  0  0  0  0  0  0  0  0  # atno 6907 bound_to 6896
  150.7697  133.9208  159.3406 H   0  0  0  0  0  0  0  0  0  0  0  0  # atno 6908 bound_to 6896
  151.7024  135.0929  160.0304 H   0  0  0  0  0  0  0  0  0  0  0  0  # atno 6909 bound_to 6896
  146.2356  140.1995  142.8333 H   0  0  0  0  0  0  0  0  0  0  0  0  # atno 7974 bound_to 7965
  154.6877  140.2646  155.6844 H   0  0  0  0  0  0  0  0  0  0  0  0  # atno 8008 bound_to 7997
  156.2720  140.2797  156.1366 H   0  0  0  0  0  0  0  0  0  0  0  0  # atno 8009 bound_to 7997
  155.0941  140.0374  157.2667 H   0  0  0  0  0  0  0  0  0  0  0  0  # atno 8010 bound_to 7997
  139.8756  143.6902  152.2634 H   0  0  0  0  0  0  0  0  0  0  0  0  # atno 10167 bound_to 10162
  156.0031  130.4638  150.4122 H   0  0  0  0  0  0  0  0  0  0  0  0  # atno 10718 bound_to 10713
  154.0875  135.2855  155.3278 H   0  0  0  0  0  0  0  0  0  0  0  0  # atno 10763 bound_to 10752
  154.6642  135.5323  153.8059 H   0  0  0  0  0  0  0  0  0  0  0  0  # atno 10764 bound_to 10752
  153.0425  135.6541  154.1046 H   0  0  0  0  0  0  0  0  0  0  0  0  # atno 10765 bound_to 10752
  139.9592  134.7091  156.0684 H   0  0  0  0  0  0  0  0  0  0  0  0  # atno 11005 bound_to 11000
  144.9793  140.8444  143.5407 LP  0  0  0  0  0  0  0  0  0  0  0  0  # atno 17320 bound_to 7965
  145.1987  139.2263  143.5204 LP  0  0  0  0  0  0  0  0  0  0  0  0  # atno 17321 bound_to 7965
  139.7243  144.7596  151.0905 LP  0  0  0  0  0  0  0  0  0  0  0  0  # atno 17342 bound_to 10162
  140.7753  143.5168  150.9585 LP  0  0  0  0  0  0  0  0  0  0  0  0  # atno 17343 bound_to 10162
  157.2184  131.0477  151.2560 LP  0  0  0  0  0  0  0  0  0  0  0  0  # atno 17370 bound_to 10713
  157.3823  130.7238  149.6639 LP  0  0  0  0  0  0  0  0  0  0  0  0  # atno 17371 bound_to 10713
  141.1267  133.6597  156.3356 LP  0  0  0  0  0  0  0  0  0  0  0  0  # atno 17394 bound_to 11000
  140.5539  134.6000  157.5415 LP  0  0  0  0  0  0  0  0  0  0  0  0  # atno 17395 bound_to 11000

$$$$
