AV-unprocessed.smi:550|AV-procd|sdf|2894|dock7
  -GOLD-   2262023393D 1   1.00000     0.00000
 Structure written by MMmdl.
 45 47  0  0  0  0  0  0  0  0  1 V2000
  146.9968  140.2112  153.6669 O   0  0  0  0  0  0  0  0  0  0  0  0
  147.8008  139.3568  153.2951 C   0  0  0  0  0  0  0  0  0  0  0  0
  147.5109  138.4117  152.3895 N   0  0  0  0  0  0  0  0  0  0  0  0
  146.2221  138.2405  151.7250 C   0  0  0  0  0  0  0  0  0  0  0  0
  145.6124  136.8518  151.9977 C   0  0  2  0  0  0  0  0  0  0  0  0
  146.0831  136.2619  153.3416 C   0  0  0  0  0  0  0  0  0  0  0  0
  145.6446  134.7961  153.4139 C   0  0  0  0  0  0  0  0  0  0  0  0
  145.7456  134.1673  151.6974 S   0  0  0  0  0  0  0  0  0  0  0  0
  147.0014  133.4224  151.5212 O   0  0  0  0  0  0  0  0  0  0  0  0
  144.4527  133.5703  151.3299 O   0  0  0  0  0  0  0  0  0  0  0  0
  145.9117  135.8114  150.9036 C   0  0  0  0  0  0  0  0  0  0  0  0
  149.0725  139.2507  153.7168 N   0  0  0  0  0  0  0  0  0  0  0  0
  149.7460  140.0295  154.6960 C   0  0  0  0  0  0  0  0  0  0  0  0
  150.9598  139.5382  155.2141 C   0  0  0  0  0  0  0  0  0  0  0  0
  151.6383  140.2790  156.2001 C   0  0  0  0  0  0  0  0  0  0  0  0
  151.0785  141.4978  156.6504 C   0  0  0  0  0  0  0  0  0  0  0  0
  151.7214  142.2688  157.6391 N   0  0  0  0  0  0  0  0  0  0  0  0
  152.0089  141.7338  158.9612 C   0  0  0  0  0  0  0  0  0  0  0  0
  152.5625  142.9218  159.7461 C   0  0  0  0  0  0  0  0  0  0  0  0
  151.8130  144.1116  159.1467 C   0  0  0  0  0  0  0  0  0  0  0  0
  151.5987  143.7194  157.6801 C   0  0  0  0  0  0  0  0  0  0  0  0
  149.9011  141.9606  156.1677 N   0  0  0  0  0  0  0  0  0  0  0  0
  149.2547  141.2483  155.2209 C   0  0  0  0  0  0  0  0  0  0  0  0
  148.2376  137.7564  152.1414 H   0  0  0  0  0  0  0  0  0  0  0  0
  145.5250  139.0291  152.0139 H   0  0  0  0  0  0  0  0  0  0  0  0
  146.3868  138.3616  150.6541 H   0  0  0  0  0  0  0  0  0  0  0  0
  144.5283  136.9591  152.0590 H   0  0  0  0  0  0  0  0  0  0  0  0
  147.1721  136.3064  153.3912 H   0  0  0  0  0  0  0  0  0  0  0  0
  145.7023  136.8322  154.1895 H   0  0  0  0  0  0  0  0  0  0  0  0
  146.2671  134.1937  154.0756 H   0  0  0  0  0  0  0  0  0  0  0  0
  144.6076  134.7179  153.7412 H   0  0  0  0  0  0  0  0  0  0  0  0
  145.2395  135.8849  150.0484 H   0  0  0  0  0  0  0  0  0  0  0  0
  146.9374  135.9029  150.5453 H   0  0  0  0  0  0  0  0  0  0  0  0
  149.6382  138.5552  153.2531 H   0  0  0  0  0  0  0  0  0  0  0  0
  151.3715  138.6040  154.8611 H   0  0  0  0  0  0  0  0  0  0  0  0
  152.5671  139.9010  156.6003 H   0  0  0  0  0  0  0  0  0  0  0  0
  151.0863  141.3691  159.4151 H   0  0  0  0  0  0  0  0  0  0  0  0
  152.7230  140.9109  158.9174 H   0  0  0  0  0  0  0  0  0  0  0  0
  152.4189  142.8230  160.8222 H   0  0  0  0  0  0  0  0  0  0  0  0
  153.6315  143.0258  159.5548 H   0  0  0  0  0  0  0  0  0  0  0  0
  150.8462  144.2170  159.6408 H   0  0  0  0  0  0  0  0  0  0  0  0
  152.3504  145.0536  159.2585 H   0  0  0  0  0  0  0  0  0  0  0  0
  152.3711  144.1560  157.0464 H   0  0  0  0  0  0  0  0  0  0  0  0
  150.6266  144.0621  157.3236 H   0  0  0  0  0  0  0  0  0  0  0  0
  148.3133  141.6701  154.9056 H   0  0  0  0  0  0  0  0  0  0  0  0
  1  2  2  0  0  0  0
  2  3  1  0  0  0  0
  2 12  1  0  0  0  0
  3  4  1  0  0  0  0
  3 24  1  0  0  0  0
  4  5  1  0  0  0  0
  4 25  1  0  0  0  0
  4 26  1  0  0  0  0
  5 11  1  0  0  0  0
  5  6  1  0  0  0  0
  5 27  1  0  0  0  0
  6  7  1  0  0  0  0
  6 28  1  0  0  0  0
  6 29  1  0  0  0  0
  7  8  1  0  0  0  0
  7 30  1  0  0  0  0
  7 31  1  0  0  0  0
  8  9  2  0  0  0  0
  8 10  2  0  0  0  0
  8 11  1  0  0  0  0
 11 32  1  0  0  0  0
 11 33  1  0  0  0  0
 12 13  1  0  0  0  0
 12 34  1  0  0  0  0
 13 23  1  0  0  0  0
 13 14  2  0  0  0  0
 14 15  1  0  0  0  0
 14 35  1  0  0  0  0
 15 16  2  0  0  0  0
 15 36  1  0  0  0  0
 16 17  1  0  0  0  0
 16 22  1  0  0  0  0
 17 21  1  0  0  0  0
 17 18  1  0  0  0  0
 18 19  1  0  0  0  0
 18 37  1  0  0  0  0
 18 38  1  0  0  0  0
 19 20  1  0  0  0  0
 19 39  1  0  0  0  0
 19 40  1  0  0  0  0
 20 21  1  0  0  0  0
 20 41  1  0  0  0  0
 20 42  1  0  0  0  0
 21 43  1  0  0  0  0
 21 44  1  0  0  0  0
 22 23  2  0  0  0  0
 23 45  1  0  0  0  0
M  END
> <s_m_source_file>
AV-unprocessed.smi

> <i_m_source_file_index>
550

> <i_lp_mmshare_version>
43012

> <i_f3d_flags>
0

> <s_epik_input>
Tz1TMSg9TylbQ0gyXVtDSDJdW0NASF0oW0NIMl0xKVtDSDJdW05IXUMoPU8pW05IXWMyW2NIXVtjSF1jKG5bY0hdMilOM1tDSDJdW0NIMl1bQ0gyXVtDSDJdMw==

> <s_epik_cmdline>
J2VwaWtfcHl0aG9uJywgJy1waCcsICc3LjAnLCAnLXRuJywgJzgnLCAnLW1hJywgJzIwMCcsICctbWV0YWxfYmluZGluZycsICctaW1hZScsICc8aW5maWxlLm1hZT4nLCAnLW9tYWUnLCAnPG91dGZpbGUubWFlPic=

> <r_lp_tautomer_probability>
1

> <r_epik_Ionization_Penalty>
0.0965651

> <r_epik_Ionization_Penalty_Charging>
0

> <r_epik_Ionization_Penalty_Neutral>
0.0965651

> <r_epik_State_Penalty>
0.0861592

> <r_epik_Charging_Adjusted_Penalty>
0.0861592

> <i_epik_Tot_Q>
0

> <i_epik_Tot_abs_Q>
0

> <r_epik_Metal_State_Penalty>
0.0740405

> <b_epik_Metal_Only>
0

> <s_lp_Force_Field>
OPLS_2005

> <r_lp_Energy>
29.4066

> <b_lp_Chiralities_Consistent>
1

> <s_lp_Variant>
AV-unprocessed.smi:550-1

> <Gold.Version>
5.8.1

> <Gold.Id.Protein>
6NUR|6NUR_protein|mol2

> <Gold.PLP.Fitness>
43.2842

> <Gold.PLP.PLP>
-42.5982

> <Gold.PLP.part.hbond>
-3.0000

> <Gold.PLP.part.metal>
0.0000

> <Gold.PLP.part.buried>
-2.3872

> <Gold.PLP.part.nonpolar>
-38.6869

> <Gold.PLP.part.repulsive>
2.0348

> <Gold.PLP.ligand.clash>
0.0000

> <Gold.PLP.ligand.torsion>
1.2541

> <Gold.PLP.Chemscore.Hbond>
1.0000

> <Gold.PLP.Chemscore.CHOScore>
0.0000

> <Gold.PLP.Chemscore.Metal>
0.0000

> <Gold.Chemscore.Hbonds>
donor molecule, donor type, donor heavy atom, donor atom, acceptor molecule, acceptor atom, score
      L1  H     3    24       P1  7948  1.00

> <Gold.PLP.Chemscore.Internal.Correction>
0.1942

> <Gold.Rescore>
     Score         DG    S(hbond)    S(metal)    S(lipo)     H(rot)  DE(clash)    DE(int)     intcor
     14.25     -16.59       1.00        0.00      93.85       1.25       0.10       2.24       ----

> <Gold.Chemscore.Fitness>
14.2502

> <Gold.Chemscore.DG>
-16.5924

> <Gold.Chemscore.ZeroCoef>
-5.4800

> <Gold.Chemscore.Hbond>
0.9981

> <Gold.Chemscore.Metal>
0.0000

> <Gold.Chemscore.Lipo>
93.8485

> <Gold.Chemscore.Internal_Hbond>
0.0000

> <Gold.Chemscore.DEClash>
0.1029

> <Gold.Chemscore.DEInternal>
2.2393

> <Gold.Chemscore.Rot>
1.2506

> <Gold.Chemscore.Internal.Correction>
   9.000000E+99

> <Gold.Chemscore.Hbonds>
donor molecule, donor type, donor heavy atom, donor atom, acceptor molecule, acceptor atom, score
      L1  H     3    24       P1  7948  0.99

> <Gold.Chemscore.Hbond.Weighted>
-3.3337

> <Gold.Chemscore.Metal.Weighted>
-0.0000

> <Gold.Chemscore.Lipo.Weighted>
-10.9803

> <Gold.Chemscore.Internal_Hbond.Weighted>
0.0000

> <Gold.Chemscore.DEClash.Weighted>
0.1029

> <Gold.Chemscore.DEInternal.Weighted>
2.2393

> <Gold.Chemscore.Rot.Weighted>
3.2016

> <Gold.Chemscore.Internal.Correction.Weighted>
   9.000000E+99

> <Gold.Protein.RotatedTorsions>
[ 6907 6896 6895 6894 ] final  -58.05 input  -60.11 | X-H torsion
[ 7974 7965 7964 7962 ] final   -0.22 input  175.53 | X-H torsion
[ 8008 7997 7996 7995 ] final  124.34 input   59.86 | X-H torsion
[ 10167 10162 10161 10158 ] final  -85.91 input  -65.29 | X-H torsion
[ 10718 10713 10712 10709 ] final    6.44 input   66.30 | X-H torsion
[ 10763 10752 10751 10750 ] final   10.48 input  -60.55 | X-H torsion
[ 11005 11000 10999 10996 ] final  -47.85 input  -57.11 | X-H torsion

> <Gold.Protein.ActiveResidues>
 VAL166  LYS551  ARG553  GLY616  TRP617  ASP618  TYR619  PRO620  LYS621  CYS622 
 ASP623  PHE694  ASN695  SER759  ASP760  ASP761  ALA762  ILE779  LEU786  VAL792 
 PHE793  MET794  SER795  GLU796  ALA797  LYS798  CYS799  TRP800  GLU811  SER814 

> <Gold.Protein.RotatedAtoms>
  150.8037  134.7148  159.6623 H   0  0  0  0  0  0  0  0  0  0  0  0  # atno 6907 bound_to 6896
  152.4155  134.6045  160.0019 H   0  0  0  0  0  0  0  0  0  0  0  0  # atno 6908 bound_to 6896
  151.6276  133.3297  159.3137 H   0  0  0  0  0  0  0  0  0  0  0  0  # atno 6909 bound_to 6896
  146.2429  140.1236  142.8340 H   0  0  0  0  0  0  0  0  0  0  0  0  # atno 7974 bound_to 7965
  156.2798  140.2742  156.1772 H   0  0  0  0  0  0  0  0  0  0  0  0  # atno 8008 bound_to 7997
  155.0594  140.0386  157.2589 H   0  0  0  0  0  0  0  0  0  0  0  0  # atno 8009 bound_to 7997
  154.7130  140.2672  155.6617 H   0  0  0  0  0  0  0  0  0  0  0  0  # atno 8010 bound_to 7997
  140.3992  143.2670  151.9165 H   0  0  0  0  0  0  0  0  0  0  0  0  # atno 10167 bound_to 10162
  156.9222  130.5795  149.5648 H   0  0  0  0  0  0  0  0  0  0  0  0  # atno 10718 bound_to 10713
  153.2028  135.6858  153.8210 H   0  0  0  0  0  0  0  0  0  0  0  0  # atno 10763 bound_to 10752
  153.7470  135.3229  155.3315 H   0  0  0  0  0  0  0  0  0  0  0  0  # atno 10764 bound_to 10752
  154.8181  135.4672  154.0802 H   0  0  0  0  0  0  0  0  0  0  0  0  # atno 10765 bound_to 10752
  141.0665  133.6692  156.3356 H   0  0  0  0  0  0  0  0  0  0  0  0  # atno 11005 bound_to 11000
  145.0385  140.8927  143.5066 LP  0  0  0  0  0  0  0  0  0  0  0  0  # atno 17320 bound_to 7965
  145.1313  139.2630  143.5538 LP  0  0  0  0  0  0  0  0  0  0  0  0  # atno 17321 bound_to 7965
  139.4785  144.5651  151.8178 LP  0  0  0  0  0  0  0  0  0  0  0  0  # atno 17342 bound_to 10162
  140.4758  144.1521  150.5924 LP  0  0  0  0  0  0  0  0  0  0  0  0  # atno 17343 bound_to 10162
  156.0486  130.5558  150.8937 LP  0  0  0  0  0  0  0  0  0  0  0  0  # atno 17370 bound_to 10713
  157.5900  131.0944  150.9133 LP  0  0  0  0  0  0  0  0  0  0  0  0  # atno 17371 bound_to 10713
  140.5762  134.5791  157.5469 LP  0  0  0  0  0  0  0  0  0  0  0  0  # atno 17394 bound_to 11000
  139.9482  134.7664  156.0512 LP  0  0  0  0  0  0  0  0  0  0  0  0  # atno 17395 bound_to 11000

$$$$
