AV-unprocessed.smi:3127|AV-procd|sdf|11915|dock3
  -GOLD-   2272017293D 1   1.00000     0.00000
 Structure written by MMmdl.
 34 35  0  0  0  0  0  0  0  0  2 V2000
  152.0230  144.5486  157.7465 C   0  0  0  0  0  0  0  0  0  0  0  0
  151.5469  143.3565  158.5998 C   0  0  0  0  0  0  0  0  0  0  0  0
  152.4943  143.1583  159.7995 C   0  0  0  0  0  0  0  0  0  0  0  0
  150.1450  143.6946  159.1515 C   0  0  0  0  0  0  0  0  0  0  0  0
  151.5138  142.0981  157.7551 C   0  0  0  0  0  0  0  0  0  0  0  0
  152.2147  140.9288  157.9444 C   0  0  0  0  0  0  0  0  0  0  0  0
  151.8568  139.7372  156.7252 S   0  0  0  0  0  0  0  0  0  0  0  0
  150.7615  140.8842  155.9689 C   0  0  0  0  0  0  0  0  0  0  0  0
  149.9539  140.5588  154.7537 C   0  0  1  0  0  0  0  0  0  0  0  0
  150.1318  139.0959  154.3054 C   0  0  0  0  0  0  0  0  0  0  0  0
  149.2452  138.8076  153.1613 N   0  3  0  0  0  0  0  0  0  0  0  0
  147.8388  139.1343  153.4711 C   0  0  0  0  0  0  0  0  0  0  0  0
  147.7265  140.5915  153.9534 C   0  0  0  0  0  0  0  0  0  0  0  0
  148.5839  140.7956  155.0715 O   0  0  0  0  0  0  0  0  0  0  0  0
  150.6837  142.0437  156.6276 N   0  0  0  0  0  0  0  0  0  0  0  0
  152.0369  145.4720  158.3266 H   0  0  0  0  0  0  0  0  0  0  0  0
  151.3675  144.7082  156.8895 H   0  0  0  0  0  0  0  0  0  0  0  0
  153.0323  144.3924  157.3640 H   0  0  0  0  0  0  0  0  0  0  0  0
  153.5173  142.9612  159.4767 H   0  0  0  0  0  0  0  0  0  0  0  0
  152.1780  142.3183  160.4191 H   0  0  0  0  0  0  0  0  0  0  0  0
  152.5213  144.0440  160.4355 H   0  0  0  0  0  0  0  0  0  0  0  0
  150.1662  144.5983  159.7619 H   0  0  0  0  0  0  0  0  0  0  0  0
  149.7573  142.8908  159.7789 H   0  0  0  0  0  0  0  0  0  0  0  0
  149.4272  143.8651  158.3479 H   0  0  0  0  0  0  0  0  0  0  0  0
  152.9186  140.6896  158.7278 H   0  0  0  0  0  0  0  0  0  0  0  0
  150.2594  141.2362  153.9540 H   0  0  0  0  0  0  0  0  0  0  0  0
  151.1660  138.9023  154.0192 H   0  0  0  0  0  0  0  0  0  0  0  0
  149.8901  138.4144  155.1227 H   0  0  0  0  0  0  0  0  0  0  0  0
  149.5415  139.3660  152.3734 H   0  0  0  0  0  0  0  0  0  0  0  0
  147.2262  138.9744  152.5836 H   0  0  0  0  0  0  0  0  0  0  0  0
  147.4738  138.4539  154.2417 H   0  0  0  0  0  0  0  0  0  0  0  0
  147.9834  141.2877  153.1534 H   0  0  0  0  0  0  0  0  0  0  0  0
  146.7009  140.8120  154.2498 H   0  0  0  0  0  0  0  0  0  0  0  0
  149.3173  137.8297  152.9180 H   0  0  0  0  0  0  0  0  0  0  0  0
  1  2  1  0  0  0  0
  1 16  1  0  0  0  0
  1 17  1  0  0  0  0
  1 18  1  0  0  0  0
  2  3  1  0  0  0  0
  2  4  1  0  0  0  0
  2  5  1  0  0  0  0
  3 19  1  0  0  0  0
  3 20  1  0  0  0  0
  3 21  1  0  0  0  0
  4 22  1  0  0  0  0
  4 23  1  0  0  0  0
  4 24  1  0  0  0  0
  5 15  1  0  0  0  0
  5  6  2  0  0  0  0
  6  7  1  0  0  0  0
  6 25  1  0  0  0  0
  7  8  1  0  0  0  0
  8  9  1  0  0  0  0
  8 15  2  0  0  0  0
  9 14  1  0  0  0  0
  9 10  1  0  0  0  0
  9 26  1  0  0  0  0
 10 11  1  0  0  0  0
 10 27  1  0  0  0  0
 10 28  1  0  0  0  0
 11 12  1  0  0  0  0
 11 29  1  0  0  0  0
 11 34  1  0  0  0  0
 12 13  1  0  0  0  0
 12 30  1  0  0  0  0
 12 31  1  0  0  0  0
 13 14  1  0  0  0  0
 13 32  1  0  0  0  0
 13 33  1  0  0  0  0
M  CHG  1  11   1
M  END
> <s_m_source_file>
AV-unprocessed.smi

> <i_m_source_file_index>
3127

> <i_lp_mmshare_version>
43012

> <i_f3d_flags>
0

> <s_epik_input>
W0NIM11DKFtDSDNdKShbQ0gzXSljMVtjSF1zYyhuMSlbQ0BASF0yW0NIMl1bTkhdW0NIMl1bQ0gyXU8y

> <s_epik_cmdline>
J2VwaWtfcHl0aG9uJywgJy1waCcsICc3LjAnLCAnLXRuJywgJzgnLCAnLW1hJywgJzIwMCcsICctbWV0YWxfYmluZGluZycsICctaW1hZScsICc8aW5maWxlLm1hZT4nLCAnLW9tYWUnLCAnPG91dGZpbGUubWFlPic=

> <r_epik_Ionization_Penalty>
0.125708

> <r_epik_Ionization_Penalty_Charging>
0.125708

> <r_epik_Ionization_Penalty_Neutral>
5.37588e-07

> <r_epik_State_Penalty>
0.0155352

> <r_epik_Charging_Adjusted_Penalty>
0.141243

> <i_epik_Tot_Q>
1

> <i_epik_Tot_abs_Q>
1

> <r_epik_Metal_State_Penalty>
0.0155796

> <b_epik_Metal_Only>
0

> <s_lp_Force_Field>
OPLS_2005

> <r_lp_Energy>
5.69117

> <b_lp_Chiralities_Consistent>
1

> <s_lp_Variant>
AV-unprocessed.smi:3127-2

> <Gold.Version>
5.8.1

> <Gold.Id.Protein>
6NUR|6NUR_protein|mol2

> <Gold.PLP.Fitness>
41.5425

> <Gold.PLP.PLP>
-32.6557

> <Gold.PLP.part.hbond>
-1.9501

> <Gold.PLP.part.metal>
0.0000

> <Gold.PLP.part.buried>
-3.3395

> <Gold.PLP.part.nonpolar>
-27.6442

> <Gold.PLP.part.repulsive>
0.2885

> <Gold.PLP.ligand.clash>
0.0000

> <Gold.PLP.ligand.torsion>
0.0629

> <Gold.PLP.Chemscore.Hbond>
3.0000

> <Gold.PLP.Chemscore.CHOScore>
0.0000

> <Gold.PLP.Chemscore.Metal>
0.0000

> <Gold.Chemscore.Hbonds>
donor molecule, donor type, donor heavy atom, donor atom, acceptor molecule, acceptor atom, score
      L1  H    11    29       P1  7957  0.63
      L1  H    11    34       P1  7948  2.00

> <Gold.PLP.Chemscore.Internal.Correction>
0.0126

> <Gold.Rescore>
     Score         DG    S(hbond)    S(metal)    S(lipo)     H(rot)  DE(clash)    DE(int)     intcor
     20.41     -20.45       1.92        0.00      98.01       1.14       0.01       0.03       ----

> <Gold.Chemscore.Fitness>
20.4129

> <Gold.Chemscore.DG>
-20.4549

> <Gold.Chemscore.ZeroCoef>
-5.4800

> <Gold.Chemscore.Hbond>
1.9235

> <Gold.Chemscore.Metal>
0.0000

> <Gold.Chemscore.Lipo>
98.0091

> <Gold.Chemscore.Internal_Hbond>
0.0000

> <Gold.Chemscore.DEClash>
0.0149

> <Gold.Chemscore.DEInternal>
0.0271

> <Gold.Chemscore.Rot>
1.1393

> <Gold.Chemscore.Internal.Correction>
   9.000000E+99

> <Gold.Chemscore.Hbonds>
donor molecule, donor type, donor heavy atom, donor atom, acceptor molecule, acceptor atom, score
      L1  H    11    29       P1  7957  0.62
      L1  H    11    34       P1  7948  0.93

> <Gold.Chemscore.Hbond.Weighted>
-6.4246

> <Gold.Chemscore.Metal.Weighted>
-0.0000

> <Gold.Chemscore.Lipo.Weighted>
-11.4671

> <Gold.Chemscore.Internal_Hbond.Weighted>
0.0000

> <Gold.Chemscore.DEClash.Weighted>
0.0149

> <Gold.Chemscore.DEInternal.Weighted>
0.0271

> <Gold.Chemscore.Rot.Weighted>
2.9167

> <Gold.Chemscore.Internal.Correction.Weighted>
   9.000000E+99

> <Gold.Protein.RotatedTorsions>
[ 6907 6896 6895 6894 ] final   37.69 input  -60.11 | X-H torsion
[ 7974 7965 7964 7962 ] final   56.38 input  175.53 | X-H torsion
[ 8008 7997 7996 7995 ] final   70.22 input   59.86 | X-H torsion
[ 10167 10162 10161 10158 ] final  -38.14 input  -65.29 | X-H torsion
[ 10718 10713 10712 10709 ] final   30.09 input   66.30 | X-H torsion
[ 10763 10752 10751 10750 ] final -167.47 input  -60.55 | X-H torsion
[ 11005 11000 10999 10996 ] final  159.60 input  -57.11 | X-H torsion

> <Gold.Protein.ActiveResidues>
 VAL166  LYS551  ARG553  GLY616  TRP617  ASP618  TYR619  PRO620  LYS621  CYS622 
 ASP623  PHE694  ASN695  SER759  ASP760  ASP761  ALA762  ILE779  LEU786  VAL792 
 PHE793  MET794  SER795  GLU796  ALA797  LYS798  CYS799  TRP800  GLU811  SER814 

> <Gold.Protein.RotatedAtoms>
  152.1465  134.9022  160.0550 H   0  0  0  0  0  0  0  0  0  0  0  0  # atno 6907 bound_to 6896
  152.0070  133.3842  159.4212 H   0  0  0  0  0  0  0  0  0  0  0  0  # atno 6908 bound_to 6896
  150.6871  134.3694  159.5029 H   0  0  0  0  0  0  0  0  0  0  0  0  # atno 6909 bound_to 6896
  145.9404  139.3884  143.0367 H   0  0  0  0  0  0  0  0  0  0  0  0  # atno 7974 bound_to 7965
  155.7355  140.3491  155.5079 H   0  0  0  0  0  0  0  0  0  0  0  0  # atno 8008 bound_to 7997
  155.9143  140.1056  157.1277 H   0  0  0  0  0  0  0  0  0  0  0  0  # atno 8009 bound_to 7997
  154.4060  140.1262  156.4584 H   0  0  0  0  0  0  0  0  0  0  0  0  # atno 8010 bound_to 7997
  140.7100  143.3296  151.2600 H   0  0  0  0  0  0  0  0  0  0  0  0  # atno 10167 bound_to 10162
  157.2551  130.7134  149.6425 H   0  0  0  0  0  0  0  0  0  0  0  0  # atno 10718 bound_to 10713
  154.6729  135.2942  154.9718 H   0  0  0  0  0  0  0  0  0  0  0  0  # atno 10763 bound_to 10752
  154.0739  135.6614  153.4832 H   0  0  0  0  0  0  0  0  0  0  0  0  # atno 10764 bound_to 10752
  153.0498  135.5181  154.7733 H   0  0  0  0  0  0  0  0  0  0  0  0  # atno 10765 bound_to 10752
  140.1978  134.8360  157.2984 H   0  0  0  0  0  0  0  0  0  0  0  0  # atno 11005 bound_to 11000
  145.8307  140.9632  143.0850 LP  0  0  0  0  0  0  0  0  0  0  0  0  # atno 17320 bound_to 7965
  144.6778  140.0159  143.7484 LP  0  0  0  0  0  0  0  0  0  0  0  0  # atno 17321 bound_to 7965
  139.6774  143.9914  152.2789 LP  0  0  0  0  0  0  0  0  0  0  0  0  # atno 17342 bound_to 10162
  139.9532  144.6606  150.8151 LP  0  0  0  0  0  0  0  0  0  0  0  0  # atno 17343 bound_to 10162
  155.9665  130.4415  150.5344 LP  0  0  0  0  0  0  0  0  0  0  0  0  # atno 17370 bound_to 10713
  157.3236  131.0686  151.1913 LP  0  0  0  0  0  0  0  0  0  0  0  0  # atno 17371 bound_to 10713
  140.2088  134.4164  155.7623 LP  0  0  0  0  0  0  0  0  0  0  0  0  # atno 17394 bound_to 11000
  141.2227  133.7108  156.8304 LP  0  0  0  0  0  0  0  0  0  0  0  0  # atno 17395 bound_to 11000

$$$$
