AV-unprocessed.smi:224|AV-procd|sdf|1711|dock5
  -GOLD-   2262020173D 1   1.00000     0.00000
 Structure written by MMmdl.
 56 59  0  0  0  0  0  0  0  0  2 V2000
  146.0055  136.3591  157.3895 C   0  0  0  0  0  0  0  0  0  0  0  0
  147.1666  137.0884  156.6972 C   0  0  2  0  0  0  0  0  0  0  0  0
  146.9354  138.4780  156.7939 O   0  0  0  0  0  0  0  0  0  0  0  0
  147.3035  136.7190  155.2064 C   0  0  0  0  0  0  0  0  0  0  0  0
  148.6584  137.0278  154.6657 N   0  3  2  0  0  0  0  0  0  0  0  0
  149.7106  136.2613  155.3938 C   0  0  0  0  0  0  0  0  0  0  0  0
  151.1247  136.5441  154.8585 C   0  0  0  0  0  0  0  0  0  0  0  0
  151.3941  137.9768  154.8158 N   0  0  0  0  0  0  0  0  0  0  0  0
  151.8924  138.6005  155.9179 C   0  0  0  0  0  0  0  0  0  0  0  0
  152.7007  137.9191  156.7734 N   0  0  0  0  0  0  0  0  0  0  0  0
  153.1784  138.5093  157.8725 C   0  0  0  0  0  0  0  0  0  0  0  0
  152.9786  139.7556  158.3022 N   0  0  0  0  0  0  0  0  0  0  0  0
  152.1818  140.4528  157.4434 C   0  0  0  0  0  0  0  0  0  0  0  0
  151.6074  139.9597  156.2373 C   0  0  0  0  0  0  0  0  0  0  0  0
  150.8767  140.9682  155.6191 N   0  0  0  0  0  0  0  0  0  0  0  0
  150.9978  141.9906  156.4208 C   0  0  0  0  0  0  0  0  0  0  0  0
  151.7539  141.7645  157.5483 N   0  0  0  0  0  0  0  0  0  0  0  0
  152.0405  142.7137  158.6123 C   0  0  0  0  0  0  0  0  0  0  0  0
  150.9979  143.8517  158.7126 C   0  0  2  0  0  0  0  0  0  0  0  0
  151.1722  144.7385  157.6209 O   0  0  0  0  0  0  0  0  0  0  0  0
  151.0778  144.6576  160.0069 C   0  0  0  0  0  0  0  0  0  0  0  0
  149.6274  145.0464  160.2565 C   0  0  0  0  0  0  0  0  0  0  0  0
  148.9272  143.8751  159.8750 O   0  0  0  0  0  0  0  0  0  0  0  0
  149.5412  143.3460  158.7044 C   0  0  0  0  0  0  0  0  0  0  0  0
  150.4056  138.7178  154.0430 C   0  0  0  0  0  0  0  0  0  0  0  0
  148.9712  138.4909  154.5727 C   0  0  1  0  0  0  0  0  0  0  0  0
  147.9989  139.2559  153.6505 C   0  0  0  0  0  0  0  0  0  0  0  0
  146.1547  135.2791  157.3789 H   0  0  0  0  0  0  0  0  0  0  0  0
  145.0540  136.5669  156.8983 H   0  0  0  0  0  0  0  0  0  0  0  0
  145.9156  136.6650  158.4324 H   0  0  0  0  0  0  0  0  0  0  0  0
  148.0927  136.8850  157.2336 H   0  0  0  0  0  0  0  0  0  0  0  0
  147.1521  138.8828  155.9677 H   0  0  0  0  0  0  0  0  0  0  0  0
  147.0563  135.6651  155.1101 H   0  0  0  0  0  0  0  0  0  0  0  0
  146.5531  137.2433  154.6121 H   0  0  0  0  0  0  0  0  0  0  0  0
  149.6617  136.5101  156.4545 H   0  0  0  0  0  0  0  0  0  0  0  0
  149.5207  135.1914  155.3210 H   0  0  0  0  0  0  0  0  0  0  0  0
  151.8762  136.0223  155.4526 H   0  0  0  0  0  0  0  0  0  0  0  0
  151.2170  136.1519  153.8451 H   0  0  0  0  0  0  0  0  0  0  0  0
  153.8083  137.8946  158.4986 H   0  0  0  0  0  0  0  0  0  0  0  0
  150.5304  142.9420  156.2128 H   0  0  0  0  0  0  0  0  0  0  0  0
  152.0982  142.1694  159.5560 H   0  0  0  0  0  0  0  0  0  0  0  0
  153.0343  143.1282  158.4381 H   0  0  0  0  0  0  0  0  0  0  0  0
  150.4414  144.6352  157.0306 H   0  0  0  0  0  0  0  0  0  0  0  0
  151.4134  144.0222  160.8273 H   0  0  0  0  0  0  0  0  0  0  0  0
  151.7510  145.5143  159.9535 H   0  0  0  0  0  0  0  0  0  0  0  0
  149.4333  145.3125  161.2956 H   0  0  0  0  0  0  0  0  0  0  0  0
  149.3273  145.8811  159.6210 H   0  0  0  0  0  0  0  0  0  0  0  0
  148.9942  143.6845  157.8228 H   0  0  0  0  0  0  0  0  0  0  0  0
  149.4780  142.2576  158.7282 H   0  0  0  0  0  0  0  0  0  0  0  0
  150.6251  139.7839  154.0263 H   0  0  0  0  0  0  0  0  0  0  0  0
  150.4729  138.3838  153.0067 H   0  0  0  0  0  0  0  0  0  0  0  0
  148.9055  138.9141  155.5766 H   0  0  0  0  0  0  0  0  0  0  0  0
  148.3554  140.2708  153.4711 H   0  0  0  0  0  0  0  0  0  0  0  0
  147.0023  139.3625  154.0754 H   0  0  0  0  0  0  0  0  0  0  0  0
  147.9051  138.7676  152.6798 H   0  0  0  0  0  0  0  0  0  0  0  0
  148.6671  136.6935  153.7128 H   0  0  0  0  0  0  0  0  0  0  0  0
  1  2  1  0  0  0  0
  1 28  1  0  0  0  0
  1 29  1  0  0  0  0
  1 30  1  0  0  0  0
  2  3  1  0  0  0  0
  2  4  1  0  0  0  0
  2 31  1  0  0  0  0
  3 32  1  0  0  0  0
  4  5  1  0  0  0  0
  4 33  1  0  0  0  0
  4 34  1  0  0  0  0
  5 26  1  0  0  0  0
  5  6  1  0  0  0  0
  5 56  1  0  0  0  0
  6  7  1  0  0  0  0
  6 35  1  0  0  0  0
  6 36  1  0  0  0  0
  7  8  1  0  0  0  0
  7 37  1  0  0  0  0
  7 38  1  0  0  0  0
  8  9  1  0  0  0  0
  8 25  1  0  0  0  0
  9 14  1  0  0  0  0
  9 10  2  0  0  0  0
 10 11  1  0  0  0  0
 11 12  2  0  0  0  0
 11 39  1  0  0  0  0
 12 13  1  0  0  0  0
 13 17  1  0  0  0  0
 13 14  2  0  0  0  0
 14 15  1  0  0  0  0
 15 16  2  0  0  0  0
 16 17  1  0  0  0  0
 16 40  1  0  0  0  0
 17 18  1  0  0  0  0
 18 19  1  0  0  0  0
 18 41  1  0  0  0  0
 18 42  1  0  0  0  0
 19 24  1  0  0  0  0
 19 20  1  0  0  0  0
 19 21  1  0  0  0  0
 20 43  1  0  0  0  0
 21 22  1  0  0  0  0
 21 44  1  0  0  0  0
 21 45  1  0  0  0  0
 22 23  1  0  0  0  0
 22 46  1  0  0  0  0
 22 47  1  0  0  0  0
 23 24  1  0  0  0  0
 24 48  1  0  0  0  0
 24 49  1  0  0  0  0
 25 26  1  0  0  0  0
 25 50  1  0  0  0  0
 25 51  1  0  0  0  0
 26 27  1  0  0  0  0
 26 52  1  0  0  0  0
 27 53  1  0  0  0  0
 27 54  1  0  0  0  0
 27 55  1  0  0  0  0
M  CHG  1   5   1
M  END
> <s_m_source_file>
AV-unprocessed.smi

> <i_m_source_file_index>
224

> <i_lp_mmshare_version>
43012

> <i_f3d_flags>
0

> <s_epik_input>
W0NIM11bQ0BIXShbT0hdKVtDSDJdTjFbQ0gyXVtDSDJdTihbQ0gyXVtDQEhdMVtDSDNdKWMobltjSF1uMiljKGMyMyluW2NIXW4zW0NIMl1bQ0BAXTQoW09IXSlbQ0gyXVtDSDJdT1tDSDJdNA==

> <s_epik_cmdline>
J2VwaWtfcHl0aG9uJywgJy1waCcsICc3LjAnLCAnLXRuJywgJzgnLCAnLW1hJywgJzIwMCcsICctbWV0YWxfYmluZGluZycsICctaW1hZScsICc8aW5maWxlLm1hZT4nLCAnLW9tYWUnLCAnPG91dGZpbGUubWFlPic=

> <r_lp_tautomer_probability>
1

> <r_epik_Ionization_Penalty>
0.00516958

> <r_epik_Ionization_Penalty_Charging>
0.00509693

> <r_epik_Ionization_Penalty_Neutral>
7.26542e-05

> <r_epik_State_Penalty>
-0

> <r_epik_Charging_Adjusted_Penalty>
0.00509693

> <i_epik_Tot_Q>
1

> <i_epik_Tot_abs_Q>
1

> <r_epik_Metal_State_Penalty>
-0

> <b_epik_Metal_Only>
0

> <s_lp_Force_Field>
OPLS_2005

> <r_lp_Energy>
47.9311

> <b_lp_Chiralities_Consistent>
1

> <s_lp_Variant>
AV-unprocessed.smi:224-5

> <Gold.Version>
5.8.1

> <Gold.Id.Protein>
6NUR|6NUR_protein|mol2

> <Gold.PLP.Fitness>
47.3304

> <Gold.PLP.PLP>
-34.1113

> <Gold.PLP.part.hbond>
-4.8519

> <Gold.PLP.part.metal>
0.0000

> <Gold.PLP.part.buried>
-2.2060

> <Gold.PLP.part.nonpolar>
-26.5611

> <Gold.PLP.part.repulsive>
0.3248

> <Gold.PLP.ligand.clash>
0.0000

> <Gold.PLP.ligand.torsion>
1.0801

> <Gold.PLP.Chemscore.Hbond>
3.9009

> <Gold.PLP.Chemscore.CHOScore>
1.0000

> <Gold.PLP.Chemscore.Metal>
0.0000

> <Gold.Chemscore.Hbonds>
donor molecule, donor type, donor heavy atom, donor atom, acceptor molecule, acceptor atom, score
      L1  H     5    56       P1  7948  2.00
      L1  H    20    43       P1  8028  0.98
      P1  H  6933  6944       L1    23  0.35
      P1  H  7989  7998       L1    15  0.34
      L1  C    16    40       P1  8028  1.00

> <Gold.PLP.Chemscore.Internal.Correction>
0.6765

> <Gold.Rescore>
     Score         DG    S(hbond)    S(metal)    S(lipo)     H(rot)  DE(clash)    DE(int)     intcor
      9.94     -13.82       2.29        0.00      79.49       3.36       0.14       3.73       ----

> <Gold.Chemscore.Fitness>
9.9392

> <Gold.Chemscore.DG>
-13.8164

> <Gold.Chemscore.ZeroCoef>
-5.4800

> <Gold.Chemscore.Hbond>
2.2876

> <Gold.Chemscore.Metal>
0.0000

> <Gold.Chemscore.Lipo>
79.4890

> <Gold.Chemscore.Internal_Hbond>
0.0000

> <Gold.Chemscore.DEClash>
0.1429

> <Gold.Chemscore.DEInternal>
3.7342

> <Gold.Chemscore.Rot>
3.3611

> <Gold.Chemscore.Internal.Correction>
   9.000000E+99

> <Gold.Chemscore.Hbonds>
donor molecule, donor type, donor heavy atom, donor atom, acceptor molecule, acceptor atom, score
      L1  H     5    56       P1  7948  1.00
      L1  H    20    43       P1  8028  0.65
      P1  H  6933  6944       L1    23  0.30
      P1  H  7989  7998       L1    15  0.14

> <Gold.Chemscore.Hbond.Weighted>
-7.6407

> <Gold.Chemscore.Metal.Weighted>
-0.0000

> <Gold.Chemscore.Lipo.Weighted>
-9.3002

> <Gold.Chemscore.Internal_Hbond.Weighted>
0.0000

> <Gold.Chemscore.DEClash.Weighted>
0.1429

> <Gold.Chemscore.DEInternal.Weighted>
3.7342

> <Gold.Chemscore.Rot.Weighted>
8.6045

> <Gold.Chemscore.Internal.Correction.Weighted>
   9.000000E+99

> <Gold.Protein.RotatedTorsions>
[ 6907 6896 6895 6894 ] final  -54.50 input  -60.11 | X-H torsion
[ 7974 7965 7964 7962 ] final -117.09 input  175.53 | X-H torsion
[ 8008 7997 7996 7995 ] final  159.43 input   59.86 | X-H torsion
[ 10167 10162 10161 10158 ] final  157.99 input  -65.29 | X-H torsion
[ 10718 10713 10712 10709 ] final   80.94 input   66.30 | X-H torsion
[ 10763 10752 10751 10750 ] final -162.67 input  -60.55 | X-H torsion
[ 11005 11000 10999 10996 ] final  -10.86 input  -57.11 | X-H torsion

> <Gold.Protein.ActiveResidues>
 VAL166  LYS551  ARG553  GLY616  TRP617  ASP618  TYR619  PRO620  LYS621  CYS622 
 ASP623  PHE694  ASN695  SER759  ASP760  ASP761  ALA762  ILE779  LEU786  VAL792 
 PHE793  MET794  SER795  GLU796  ALA797  LYS798  CYS799  TRP800  GLU811  SER814 

> <Gold.Protein.RotatedAtoms>
  150.8333  134.7595  159.6871 H   0  0  0  0  0  0  0  0  0  0  0  0  # atno 6907 bound_to 6896
  152.4434  134.5541  159.9885 H   0  0  0  0  0  0  0  0  0  0  0  0  # atno 6908 bound_to 6896
  151.5697  133.3354  159.3023 H   0  0  0  0  0  0  0  0  0  0  0  0  # atno 6909 bound_to 6896
  145.0892  140.8478  143.3993 H   0  0  0  0  0  0  0  0  0  0  0  0  # atno 7974 bound_to 7965
  156.2239  140.1831  156.7411 H   0  0  0  0  0  0  0  0  0  0  0  0  # atno 8008 bound_to 7997
  154.5909  140.0651  156.9265 H   0  0  0  0  0  0  0  0  0  0  0  0  # atno 8009 bound_to 7997
  155.2338  140.3317  155.4302 H   0  0  0  0  0  0  0  0  0  0  0  0  # atno 8010 bound_to 7997
  139.4825  144.4866  151.8369 H   0  0  0  0  0  0  0  0  0  0  0  0  # atno 10167 bound_to 10162
  157.6820  130.9982  150.2154 H   0  0  0  0  0  0  0  0  0  0  0  0  # atno 10718 bound_to 10713
  154.7193  135.3022  154.9073 H   0  0  0  0  0  0  0  0  0  0  0  0  # atno 10763 bound_to 10752
  153.9950  135.6714  153.4760 H   0  0  0  0  0  0  0  0  0  0  0  0  # atno 10764 bound_to 10752
  153.0820  135.5004  154.8439 H   0  0  0  0  0  0  0  0  0  0  0  0  # atno 10765 bound_to 10752
  140.7491  133.8607  155.9030 H   0  0  0  0  0  0  0  0  0  0  0  0  # atno 11005 bound_to 11000
  145.1086  139.2772  143.5649 LP  0  0  0  0  0  0  0  0  0  0  0  0  # atno 17320 bound_to 7965
  146.3531  140.0675  142.8625 LP  0  0  0  0  0  0  0  0  0  0  0  0  # atno 17321 bound_to 7965
  140.4346  144.2069  150.5889 LP  0  0  0  0  0  0  0  0  0  0  0  0  # atno 17342 bound_to 10162
  140.4745  143.2401  151.9043 LP  0  0  0  0  0  0  0  0  0  0  0  0  # atno 17343 bound_to 10162
  156.2816  130.3734  149.7929 LP  0  0  0  0  0  0  0  0  0  0  0  0  # atno 17370 bound_to 10713
  156.5616  130.8386  151.3330 LP  0  0  0  0  0  0  0  0  0  0  0  0  # atno 17371 bound_to 10713
  140.9767  134.1460  157.4530 LP  0  0  0  0  0  0  0  0  0  0  0  0  # atno 17394 bound_to 11000
  139.8791  134.9997  156.5968 LP  0  0  0  0  0  0  0  0  0  0  0  0  # atno 17395 bound_to 11000

$$$$
