AV-unprocessed.smi:2011|AV-procd|sdf|8153|dock3
  -GOLD-   2272010393D 1   1.00000     0.00000
 Structure written by MMmdl.
 26 27  0  0  0  0  0  0  0  0  1 V2000
  148.6683  144.4320  161.5166 O   0  0  0  0  0  0  0  0  0  0  0  0
  148.4361  144.8510  160.3823 C   0  0  0  0  0  0  0  0  0  0  0  0
  149.3923  145.2578  159.5349 N   0  0  0  0  0  0  0  0  0  0  0  0
  150.8203  145.2738  159.8298 C   0  0  0  0  0  0  0  0  0  0  0  0
  151.5757  144.2589  158.9756 C   0  0  0  0  0  0  0  0  0  0  0  0
  151.1488  142.7828  158.9832 C   0  0  0  0  0  0  0  0  0  0  0  0
  152.6248  142.4042  158.8344 C   0  0  0  0  0  0  0  0  0  0  0  0
  152.9656  143.7782  159.4182 C   0  0  0  0  0  0  0  0  0  0  0  0
  147.2152  144.9672  159.8305 N   0  0  0  0  0  0  0  0  0  0  0  0
  145.9575  144.6270  160.3953 C   0  0  0  0  0  0  0  0  0  0  0  0
  144.7791  144.9636  159.8474 N   0  0  0  0  0  0  0  0  0  0  0  0
  143.7059  144.5095  160.6034 N   0  0  0  0  0  0  0  0  0  0  0  0
  144.1164  143.8504  161.6905 C   0  0  0  0  0  0  0  0  0  0  0  0
  145.8544  143.7191  161.8970 S   0  0  0  0  0  0  0  0  0  0  0  0
  149.1136  145.5866  158.6220 H   0  0  0  0  0  0  0  0  0  0  0  0
  151.2233  146.2772  159.6833 H   0  0  0  0  0  0  0  0  0  0  0  0
  150.9471  145.0485  160.8890 H   0  0  0  0  0  0  0  0  0  0  0  0
  151.6447  144.5980  157.9396 H   0  0  0  0  0  0  0  0  0  0  0  0
  150.7276  142.4677  159.9395 H   0  0  0  0  0  0  0  0  0  0  0  0
  150.5135  142.4881  158.1476 H   0  0  0  0  0  0  0  0  0  0  0  0
  152.9441  141.5565  159.4410 H   0  0  0  0  0  0  0  0  0  0  0  0
  152.9319  142.2988  157.7925 H   0  0  0  0  0  0  0  0  0  0  0  0
  153.8000  144.2865  158.9337 H   0  0  0  0  0  0  0  0  0  0  0  0
  153.0829  143.7570  160.5028 H   0  0  0  0  0  0  0  0  0  0  0  0
  147.1812  145.3398  158.8933 H   0  0  0  0  0  0  0  0  0  0  0  0
  143.3904  143.4390  162.3761 H   0  0  0  0  0  0  0  0  0  0  0  0
  1  2  2  0  0  0  0
  2  3  1  0  0  0  0
  2  9  1  0  0  0  0
  3  4  1  0  0  0  0
  3 15  1  0  0  0  0
  4  5  1  0  0  0  0
  4 16  1  0  0  0  0
  4 17  1  0  0  0  0
  5  8  1  0  0  0  0
  5  6  1  0  0  0  0
  5 18  1  0  0  0  0
  6  7  1  0  0  0  0
  6 19  1  0  0  0  0
  6 20  1  0  0  0  0
  7  8  1  0  0  0  0
  7 21  1  0  0  0  0
  7 22  1  0  0  0  0
  8 23  1  0  0  0  0
  8 24  1  0  0  0  0
  9 10  1  0  0  0  0
  9 25  1  0  0  0  0
 10 14  1  0  0  0  0
 10 11  2  0  0  0  0
 11 12  1  0  0  0  0
 12 13  2  0  0  0  0
 13 14  1  0  0  0  0
 13 26  1  0  0  0  0
M  END
> <s_m_source_file>
AV-unprocessed.smi

> <i_m_source_file_index>
2011

> <i_lp_mmshare_version>
43012

> <i_f3d_flags>
0

> <s_epik_input>
czFbY0hdbm5jMVtOSF1DKD1PKVtOSF1bQ0gyXVtDSF0yW0NIMl1bQ0gyXVtDSDJdMg==

> <s_epik_cmdline>
J2VwaWtfcHl0aG9uJywgJy1waCcsICc3LjAnLCAnLXRuJywgJzgnLCAnLW1hJywgJzIwMCcsICctbWV0YWxfYmluZGluZycsICctaW1hZScsICc8aW5maWxlLm1hZT4nLCAnLW9tYWUnLCAnPG91dGZpbGUubWFlPic=

> <r_lp_tautomer_probability>
1

> <r_epik_Ionization_Penalty>
0.000339164

> <r_epik_Ionization_Penalty_Charging>
0

> <r_epik_Ionization_Penalty_Neutral>
0.000339164

> <r_epik_State_Penalty>
-0

> <r_epik_Charging_Adjusted_Penalty>
0

> <i_epik_Tot_Q>
0

> <i_epik_Tot_abs_Q>
0

> <r_epik_Metal_State_Penalty>
0.176475

> <b_epik_Metal_Only>
0

> <s_lp_Force_Field>
OPLS_2005

> <r_lp_Energy>
11.4486

> <b_lp_Chiralities_Consistent>
1

> <s_lp_Variant>
AV-unprocessed.smi:2011-1

> <Gold.Version>
5.8.1

> <Gold.Id.Protein>
6NUR|6NUR_protein|mol2

> <Gold.PLP.Fitness>
38.5947

> <Gold.PLP.PLP>
-30.6923

> <Gold.PLP.part.hbond>
-3.0000

> <Gold.PLP.part.metal>
0.0000

> <Gold.PLP.part.buried>
-6.3391

> <Gold.PLP.part.nonpolar>
-22.4201

> <Gold.PLP.part.repulsive>
0.7684

> <Gold.PLP.ligand.clash>
0.0000

> <Gold.PLP.ligand.torsion>
0.1482

> <Gold.PLP.Chemscore.Hbond>
2.7137

> <Gold.PLP.Chemscore.CHOScore>
0.0000

> <Gold.PLP.Chemscore.Metal>
0.0000

> <Gold.Chemscore.Hbonds>
donor molecule, donor type, donor heavy atom, donor atom, acceptor molecule, acceptor atom, score
      L1  H     3    15       P1  8029  1.00
      L1  H     9    25       P1  8029  1.00
      P1  H  6933  6944       L1     1  0.68

> <Gold.PLP.Chemscore.Internal.Correction>
0.0578

> <Gold.Rescore>
     Score         DG    S(hbond)    S(metal)    S(lipo)     H(rot)  DE(clash)    DE(int)     intcor
     17.74     -19.12       2.68        0.00      69.28       1.34       0.01       1.36       ----

> <Gold.Chemscore.Fitness>
17.7432

> <Gold.Chemscore.DG>
-19.1160

> <Gold.Chemscore.ZeroCoef>
-5.4800

> <Gold.Chemscore.Hbond>
2.6808

> <Gold.Chemscore.Metal>
0.0000

> <Gold.Chemscore.Lipo>
69.2821

> <Gold.Chemscore.Internal_Hbond>
0.0000

> <Gold.Chemscore.DEClash>
0.0108

> <Gold.Chemscore.DEInternal>
1.3621

> <Gold.Chemscore.Rot>
1.3375

> <Gold.Chemscore.Internal.Correction>
   9.000000E+99

> <Gold.Chemscore.Hbonds>
donor molecule, donor type, donor heavy atom, donor atom, acceptor molecule, acceptor atom, score
      L1  H     3    15       P1  8029  0.97
      L1  H     9    25       P1  8029  0.99
      P1  H  6933  6944       L1     1  0.42

> <Gold.Chemscore.Hbond.Weighted>
-8.9540

> <Gold.Chemscore.Metal.Weighted>
-0.0000

> <Gold.Chemscore.Lipo.Weighted>
-8.1060

> <Gold.Chemscore.Internal_Hbond.Weighted>
0.0000

> <Gold.Chemscore.DEClash.Weighted>
0.0108

> <Gold.Chemscore.DEInternal.Weighted>
1.3621

> <Gold.Chemscore.Rot.Weighted>
3.4240

> <Gold.Chemscore.Internal.Correction.Weighted>
   9.000000E+99

> <Gold.Protein.RotatedTorsions>
[ 6907 6896 6895 6894 ] final   63.40 input  -60.11 | X-H torsion
[ 7974 7965 7964 7962 ] final   57.83 input  175.53 | X-H torsion
[ 8008 7997 7996 7995 ] final   21.95 input   59.86 | X-H torsion
[ 10167 10162 10161 10158 ] final   -0.90 input  -65.29 | X-H torsion
[ 10718 10713 10712 10709 ] final  151.24 input   66.30 | X-H torsion
[ 10763 10752 10751 10750 ] final -128.98 input  -60.55 | X-H torsion
[ 11005 11000 10999 10996 ] final  -53.32 input  -57.11 | X-H torsion

> <Gold.Protein.ActiveResidues>
 VAL166  LYS551  ARG553  GLY616  TRP617  ASP618  TYR619  PRO620  LYS621  CYS622 
 ASP623  PHE694  ASN695  SER759  ASP760  ASP761  ALA762  ILE779  LEU786  VAL792 
 PHE793  MET794  SER795  GLU796  ALA797  LYS798  CYS799  TRP800  GLU811  SER814 

> <Gold.Protein.RotatedAtoms>
  152.4250  134.5885  159.9967 H   0  0  0  0  0  0  0  0  0  0  0  0  # atno 6907 bound_to 6896
  151.6024  133.3349  159.3058 H   0  0  0  0  0  0  0  0  0  0  0  0  # atno 6908 bound_to 6896
  150.8139  134.7347  159.6778 H   0  0  0  0  0  0  0  0  0  0  0  0  # atno 6909 bound_to 6896
  145.9248  139.3759  143.0456 H   0  0  0  0  0  0  0  0  0  0  0  0  # atno 7974 bound_to 7965
  154.9584  140.3075  155.5042 H   0  0  0  0  0  0  0  0  0  0  0  0  # atno 8008 bound_to 7997
  156.2980  140.2306  156.4605 H   0  0  0  0  0  0  0  0  0  0  0  0  # atno 8009 bound_to 7997
  154.7989  140.0435  157.1246 H   0  0  0  0  0  0  0  0  0  0  0  0  # atno 8010 bound_to 7997
  140.6787  143.6839  150.8082 H   0  0  0  0  0  0  0  0  0  0  0  0  # atno 10167 bound_to 10162
  157.2732  131.0821  151.1584 H   0  0  0  0  0  0  0  0  0  0  0  0  # atno 10718 bound_to 10713
  154.8757  135.3910  154.3845 H   0  0  0  0  0  0  0  0  0  0  0  0  # atno 10763 bound_to 10752
  153.4588  135.7029  153.6068 H   0  0  0  0  0  0  0  0  0  0  0  0  # atno 10764 bound_to 10752
  153.4576  135.3819  155.2288 H   0  0  0  0  0  0  0  0  0  0  0  0  # atno 10765 bound_to 10752
  141.0970  133.6623  156.4154 H   0  0  0  0  0  0  0  0  0  0  0  0  # atno 11005 bound_to 11000
  145.8503  140.9533  143.0753 LP  0  0  0  0  0  0  0  0  0  0  0  0  # atno 17320 bound_to 7965
  144.6757  140.0398  143.7481 LP  0  0  0  0  0  0  0  0  0  0  0  0  # atno 17321 bound_to 7965
  140.0536  143.5224  152.2661 LP  0  0  0  0  0  0  0  0  0  0  0  0  # atno 17342 bound_to 10162
  139.6095  144.7605  151.2983 LP  0  0  0  0  0  0  0  0  0  0  0  0  # atno 17343 bound_to 10162
  157.3048  130.6860  149.6183 LP  0  0  0  0  0  0  0  0  0  0  0  0  # atno 17370 bound_to 10713
  155.9663  130.4381  150.5204 LP  0  0  0  0  0  0  0  0  0  0  0  0  # atno 17371 bound_to 10713
  140.5116  134.6389  157.5286 LP  0  0  0  0  0  0  0  0  0  0  0  0  # atno 17394 bound_to 11000
  139.9809  134.7138  155.9861 LP  0  0  0  0  0  0  0  0  0  0  0  0  # atno 17395 bound_to 11000

$$$$
