AV-unprocessed.smi:1520|AV-procd|sdf|6129|dock4
  -GOLD-   22720 6273D 1   1.00000     0.00000
 Structure written by MMmdl.
 37 38  0  0  0  0  0  0  0  0  1 V2000
  151.0682  141.7119  158.4045 O   0  0  0  0  0  0  0  0  0  0  0  0
  150.5973  142.6207  157.7205 C   0  0  0  0  0  0  0  0  0  0  0  0
  150.2853  143.9915  158.3336 C   0  0  0  0  0  0  0  0  0  0  0  0
  151.5084  144.7455  158.8942 C   0  0  0  0  0  0  0  0  0  0  0  0
  151.1030  145.8980  159.4261 F   0  0  0  0  0  0  0  0  0  0  0  0
  152.1143  144.0300  159.8429 F   0  0  0  0  0  0  0  0  0  0  0  0
  152.3862  145.0103  157.9254 F   0  0  0  0  0  0  0  0  0  0  0  0
  150.3277  142.4896  156.4122 N   0  0  0  0  0  0  0  0  0  0  0  0
  150.5738  141.2907  155.6196 C   0  0  0  0  0  0  0  0  0  0  0  0
  149.3274  140.8082  154.9015 C   0  0  0  0  0  0  0  0  0  0  0  0
  149.3345  139.5993  154.1769 C   0  0  0  0  0  0  0  0  0  0  0  0
  148.1549  139.2065  153.5157 C   0  0  0  0  0  0  0  0  0  0  0  0
  147.0149  139.9292  153.5433 N   0  0  0  0  0  0  0  0  0  0  0  0
  147.0083  141.0909  154.2405 C   0  0  0  0  0  0  0  0  0  0  0  0
  145.8235  141.8397  154.2785 N   0  0  0  0  0  0  0  0  0  0  0  0
  145.2387  141.9418  155.6100 C   0  0  0  0  0  0  0  0  0  0  0  0
  143.8869  142.6735  155.5361 C   0  0  0  0  0  0  0  0  0  0  0  0
  144.0648  143.9472  154.9227 O   0  0  0  0  0  0  0  0  0  0  0  0
  144.5691  143.8360  153.5946 C   0  0  0  0  0  0  0  0  0  0  0  0
  145.9381  143.1349  153.6196 C   0  0  0  0  0  0  0  0  0  0  0  0
  148.1414  141.5701  154.9310 C   0  0  0  0  0  0  0  0  0  0  0  0
  149.8045  144.6048  157.5703 H   0  0  0  0  0  0  0  0  0  0  0  0
  149.5502  143.8516  159.1272 H   0  0  0  0  0  0  0  0  0  0  0  0
  149.9420  143.2852  155.9243 H   0  0  0  0  0  0  0  0  0  0  0  0
  151.3736  141.4603  154.8965 H   0  0  0  0  0  0  0  0  0  0  0  0
  150.9310  140.5061  156.2870 H   0  0  0  0  0  0  0  0  0  0  0  0
  150.2229  138.9872  154.1241 H   0  0  0  0  0  0  0  0  0  0  0  0
  148.1263  138.2871  152.9499 H   0  0  0  0  0  0  0  0  0  0  0  0
  145.1031  140.9452  156.0322 H   0  0  0  0  0  0  0  0  0  0  0  0
  145.9162  142.4836  156.2716 H   0  0  0  0  0  0  0  0  0  0  0  0
  143.1572  142.0872  154.9755 H   0  0  0  0  0  0  0  0  0  0  0  0
  143.4804  142.8154  156.5375 H   0  0  0  0  0  0  0  0  0  0  0  0
  143.8621  143.2874  152.9702 H   0  0  0  0  0  0  0  0  0  0  0  0
  144.6658  144.8337  153.1663 H   0  0  0  0  0  0  0  0  0  0  0  0
  146.6615  143.7563  154.1492 H   0  0  0  0  0  0  0  0  0  0  0  0
  146.3098  143.0009  152.6030 H   0  0  0  0  0  0  0  0  0  0  0  0
  148.0999  142.5032  155.4740 H   0  0  0  0  0  0  0  0  0  0  0  0
  1  2  2  0  0  0  0
  2  3  1  0  0  0  0
  2  8  1  0  0  0  0
  3  4  1  0  0  0  0
  3 22  1  0  0  0  0
  3 23  1  0  0  0  0
  4  5  1  0  0  0  0
  4  6  1  0  0  0  0
  4  7  1  0  0  0  0
  8  9  1  0  0  0  0
  8 24  1  0  0  0  0
  9 10  1  0  0  0  0
  9 25  1  0  0  0  0
  9 26  1  0  0  0  0
 10 21  1  0  0  0  0
 10 11  2  0  0  0  0
 11 12  1  0  0  0  0
 11 27  1  0  0  0  0
 12 13  2  0  0  0  0
 12 28  1  0  0  0  0
 13 14  1  0  0  0  0
 14 15  1  0  0  0  0
 14 21  2  0  0  0  0
 15 20  1  0  0  0  0
 15 16  1  0  0  0  0
 16 17  1  0  0  0  0
 16 29  1  0  0  0  0
 16 30  1  0  0  0  0
 17 18  1  0  0  0  0
 17 31  1  0  0  0  0
 17 32  1  0  0  0  0
 18 19  1  0  0  0  0
 19 20  1  0  0  0  0
 19 33  1  0  0  0  0
 19 34  1  0  0  0  0
 20 35  1  0  0  0  0
 20 36  1  0  0  0  0
 21 37  1  0  0  0  0
M  END
> <s_m_source_file>
AV-unprocessed.smi

> <i_m_source_file_index>
1520

> <i_lp_mmshare_version>
43012

> <i_f3d_flags>
0

> <s_epik_input>
RkMoRikoRilbQ0gyXUMoPU8pW05IXVtDSDJdYzFbY0hdW2NIXW5jKFtjSF0xKU4yW0NIMl1bQ0gyXU9bQ0gyXVtDSDJdMg==

> <s_epik_cmdline>
J2VwaWtfcHl0aG9uJywgJy1waCcsICc3LjAnLCAnLXRuJywgJzgnLCAnLW1hJywgJzIwMCcsICctbWV0YWxfYmluZGluZycsICctaW1hZScsICc8aW5maWxlLm1hZT4nLCAnLW9tYWUnLCAnPG91dGZpbGUubWFlPic=

> <r_lp_tautomer_probability>
1

> <r_epik_Ionization_Penalty>
0.00358568

> <r_epik_Ionization_Penalty_Charging>
0

> <r_epik_Ionization_Penalty_Neutral>
0.00358568

> <r_epik_State_Penalty>
0.00254794

> <r_epik_Charging_Adjusted_Penalty>
0.00254794

> <i_epik_Tot_Q>
0

> <i_epik_Tot_abs_Q>
0

> <r_epik_Metal_State_Penalty>
-0

> <b_epik_Metal_Only>
0

> <s_lp_Force_Field>
OPLS_2005

> <r_lp_Energy>
12.9291

> <b_lp_Chiralities_Consistent>
1

> <s_lp_Variant>
AV-unprocessed.smi:1520-1

> <Gold.Version>
5.8.1

> <Gold.Id.Protein>
6NUR|6NUR_protein|mol2

> <Gold.PLP.Fitness>
49.6916

> <Gold.PLP.PLP>
-44.3592

> <Gold.PLP.part.hbond>
-1.0000

> <Gold.PLP.part.metal>
0.0000

> <Gold.PLP.part.buried>
-0.9758

> <Gold.PLP.part.nonpolar>
-41.9802

> <Gold.PLP.part.repulsive>
0.5577

> <Gold.PLP.ligand.clash>
0.0000

> <Gold.PLP.ligand.torsion>
0.1077

> <Gold.PLP.Chemscore.Hbond>
0.9100

> <Gold.PLP.Chemscore.CHOScore>
0.8992

> <Gold.PLP.Chemscore.Metal>
0.0000

> <Gold.Chemscore.Hbonds>
donor molecule, donor type, donor heavy atom, donor atom, acceptor molecule, acceptor atom, score
      L1  H     8    24       P1  8028  1.00
      L1  C    12    28       P1  7948  1.00

> <Gold.PLP.Chemscore.Internal.Correction>
0.1203

> <Gold.Rescore>
     Score         DG    S(hbond)    S(metal)    S(lipo)     H(rot)  DE(clash)    DE(int)     intcor
     10.03     -11.94       0.99        0.00      70.97       2.01       0.20       1.71       ----

> <Gold.Chemscore.Fitness>
10.0318

> <Gold.Chemscore.DG>
-11.9402

> <Gold.Chemscore.ZeroCoef>
-5.4800

> <Gold.Chemscore.Hbond>
0.9888

> <Gold.Chemscore.Metal>
0.0000

> <Gold.Chemscore.Lipo>
70.9693

> <Gold.Chemscore.Internal_Hbond>
0.0000

> <Gold.Chemscore.DEClash>
0.2022

> <Gold.Chemscore.DEInternal>
1.7062

> <Gold.Chemscore.Rot>
2.0101

> <Gold.Chemscore.Internal.Correction>
   9.000000E+99

> <Gold.Chemscore.Hbonds>
donor molecule, donor type, donor heavy atom, donor atom, acceptor molecule, acceptor atom, score
      L1  H     8    24       P1  8028  0.99

> <Gold.Chemscore.Hbond.Weighted>
-3.3025

> <Gold.Chemscore.Metal.Weighted>
-0.0000

> <Gold.Chemscore.Lipo.Weighted>
-8.3034

> <Gold.Chemscore.Internal_Hbond.Weighted>
0.0000

> <Gold.Chemscore.DEClash.Weighted>
0.2022

> <Gold.Chemscore.DEInternal.Weighted>
1.7062

> <Gold.Chemscore.Rot.Weighted>
5.1458

> <Gold.Chemscore.Internal.Correction.Weighted>
   9.000000E+99

> <Gold.Protein.RotatedTorsions>
[ 6907 6896 6895 6894 ] final   -9.72 input  -60.11 | X-H torsion
[ 7974 7965 7964 7962 ] final  -54.94 input  175.53 | X-H torsion
[ 8008 7997 7996 7995 ] final  -55.29 input   59.86 | X-H torsion
[ 10167 10162 10161 10158 ] final  -11.84 input  -65.29 | X-H torsion
[ 10718 10713 10712 10709 ] final  138.09 input   66.30 | X-H torsion
[ 10763 10752 10751 10750 ] final  -18.13 input  -60.55 | X-H torsion
[ 11005 11000 10999 10996 ] final -134.63 input  -57.11 | X-H torsion

> <Gold.Protein.ActiveResidues>
 VAL166  LYS551  ARG553  GLY616  TRP617  ASP618  TYR619  PRO620  LYS621  CYS622 
 ASP623  PHE694  ASN695  SER759  ASP760  ASP761  ALA762  ILE779  LEU786  VAL792 
 PHE793  MET794  SER795  GLU796  ALA797  LYS798  CYS799  TRP800  GLU811  SER814 

> <Gold.Protein.RotatedAtoms>
  151.4133  135.0988  159.9591 H   0  0  0  0  0  0  0  0  0  0  0  0  # atno 6907 bound_to 6896
  152.5013  133.8776  159.7341 H   0  0  0  0  0  0  0  0  0  0  0  0  # atno 6908 bound_to 6896
  150.9276  133.6748  159.2846 H   0  0  0  0  0  0  0  0  0  0  0  0  # atno 6909 bound_to 6896
  145.8798  140.8153  142.9845 H   0  0  0  0  0  0  0  0  0  0  0  0  # atno 7974 bound_to 7965
  154.4190  140.1156  156.5453 H   0  0  0  0  0  0  0  0  0  0  0  0  # atno 8008 bound_to 7997
  155.6466  140.3496  155.4714 H   0  0  0  0  0  0  0  0  0  0  0  0  # atno 8009 bound_to 7997
  155.9827  140.1163  157.0701 H   0  0  0  0  0  0  0  0  0  0  0  0  # atno 8010 bound_to 7997
  140.7148  143.5597  150.9209 H   0  0  0  0  0  0  0  0  0  0  0  0  # atno 10167 bound_to 10162
  157.4290  131.1046  151.0270 H   0  0  0  0  0  0  0  0  0  0  0  0  # atno 10718 bound_to 10713
  153.5846  135.7004  153.5449 H   0  0  0  0  0  0  0  0  0  0  0  0  # atno 10763 bound_to 10752
  153.3231  135.4068  155.1433 H   0  0  0  0  0  0  0  0  0  0  0  0  # atno 10764 bound_to 10752
  154.8611  135.3700  154.5375 H   0  0  0  0  0  0  0  0  0  0  0  0  # atno 10765 bound_to 10752
  140.8972  134.1736  157.4486 H   0  0  0  0  0  0  0  0  0  0  0  0  # atno 11005 bound_to 11000
  144.6727  140.1367  143.7440 LP  0  0  0  0  0  0  0  0  0  0  0  0  # atno 17320 bound_to 7965
  145.9037  139.2445  143.1479 LP  0  0  0  0  0  0  0  0  0  0  0  0  # atno 17321 bound_to 7965
  139.9322  143.6480  152.3073 LP  0  0  0  0  0  0  0  0  0  0  0  0  # atno 17342 bound_to 10162
  139.6935  144.7644  151.1398 LP  0  0  0  0  0  0  0  0  0  0  0  0  # atno 17343 bound_to 10162
  157.1174  130.6047  149.5496 LP  0  0  0  0  0  0  0  0  0  0  0  0  # atno 17370 bound_to 10713
  155.9906  130.4958  150.7266 LP  0  0  0  0  0  0  0  0  0  0  0  0  # atno 17371 bound_to 10713
  139.8737  134.9883  156.5407 LP  0  0  0  0  0  0  0  0  0  0  0  0  # atno 17394 bound_to 11000
  140.8274  133.8306  155.8952 LP  0  0  0  0  0  0  0  0  0  0  0  0  # atno 17395 bound_to 11000

$$$$
