AV-unprocessed.smi:2907|AV-procd|sdf|11166|dock4
  -GOLD-   2272016 53D 1   1.00000     0.00000
 Structure written by MMmdl.
 45 46  0  0  0  0  0  0  0  0  1 V2000
  145.8881  143.4345  153.7954 C   0  0  0  0  0  0  0  0  0  0  0  0
  145.4827  142.3304  154.7828 C   0  0  0  0  0  0  0  0  0  0  0  0
  146.4832  141.1600  154.8612 C   0  0  0  0  0  0  0  0  0  0  0  0
  145.8819  139.9519  155.6065 C   0  0  0  0  0  0  0  0  0  0  0  0
  145.5072  140.2446  157.0674 C   0  0  0  0  0  0  0  0  0  0  0  0
  147.7151  141.5816  155.5264 N   0  0  0  0  0  0  0  0  0  0  0  0
  148.9399  141.6148  154.9768 C   0  0  0  0  0  0  0  0  0  0  0  0
  149.1654  141.3710  153.7919 O   0  0  0  0  0  0  0  0  0  0  0  0
  150.0947  141.9538  155.9200 C   0  0  0  0  0  0  0  0  0  0  0  0
  151.0781  140.8817  155.9351 N   0  0  0  0  0  0  0  0  0  0  0  0
  151.3021  140.1367  154.8241 N   0  0  0  0  0  0  0  0  0  0  0  0
  152.2528  139.2990  155.1189 N   0  0  0  0  0  0  0  0  0  0  0  0
  152.6831  139.4664  156.4207 N   0  0  0  0  0  0  0  0  0  0  0  0
  151.9173  140.4456  156.8882 C   0  0  0  0  0  0  0  0  0  0  0  0
  152.0179  141.0397  158.2641 C   0  0  0  0  0  0  0  0  0  0  0  0
  152.1102  142.5772  158.2182 C   0  0  0  0  0  0  0  0  0  0  0  0
  152.1837  143.1776  159.6312 C   0  0  0  0  0  0  0  0  0  0  0  0
  153.3491  142.5763  160.4328 C   0  0  0  0  0  0  0  0  0  0  0  0
  153.2532  141.0431  160.4881 C   0  0  0  0  0  0  0  0  0  0  0  0
  153.1812  140.4367  159.0769 C   0  0  0  0  0  0  0  0  0  0  0  0
  145.1153  144.2009  153.7352 H   0  0  0  0  0  0  0  0  0  0  0  0
  146.0350  143.0309  152.7933 H   0  0  0  0  0  0  0  0  0  0  0  0
  146.8129  143.9251  154.0991 H   0  0  0  0  0  0  0  0  0  0  0  0
  145.3448  142.7660  155.7733 H   0  0  0  0  0  0  0  0  0  0  0  0
  144.5071  141.9451  154.4847 H   0  0  0  0  0  0  0  0  0  0  0  0
  146.7013  140.8369  153.8417 H   0  0  0  0  0  0  0  0  0  0  0  0
  144.9985  139.5936  155.0763 H   0  0  0  0  0  0  0  0  0  0  0  0
  146.5977  139.1293  155.5913 H   0  0  0  0  0  0  0  0  0  0  0  0
  145.1338  139.3456  157.5577 H   0  0  0  0  0  0  0  0  0  0  0  0
  144.7278  141.0038  157.1402 H   0  0  0  0  0  0  0  0  0  0  0  0
  146.3718  140.5950  157.6316 H   0  0  0  0  0  0  0  0  0  0  0  0
  147.6389  141.8067  156.5081 H   0  0  0  0  0  0  0  0  0  0  0  0
  150.5809  142.8809  155.6146 H   0  0  0  0  0  0  0  0  0  0  0  0
  149.7106  142.1132  156.9289 H   0  0  0  0  0  0  0  0  0  0  0  0
  151.1037  140.7902  158.8023 H   0  0  0  0  0  0  0  0  0  0  0  0
  152.9888  142.8803  157.6471 H   0  0  0  0  0  0  0  0  0  0  0  0
  151.2446  142.9861  157.6964 H   0  0  0  0  0  0  0  0  0  0  0  0
  152.2932  144.2606  159.5691 H   0  0  0  0  0  0  0  0  0  0  0  0
  151.2453  142.9914  160.1551 H   0  0  0  0  0  0  0  0  0  0  0  0
  154.2955  142.8677  159.9756 H   0  0  0  0  0  0  0  0  0  0  0  0
  153.3549  142.9850  161.4435 H   0  0  0  0  0  0  0  0  0  0  0  0
  154.1115  140.6362  161.0235 H   0  0  0  0  0  0  0  0  0  0  0  0
  152.3685  140.7529  161.0561 H   0  0  0  0  0  0  0  0  0  0  0  0
  153.0651  139.3546  159.1486 H   0  0  0  0  0  0  0  0  0  0  0  0
  154.1263  140.6131  158.5614 H   0  0  0  0  0  0  0  0  0  0  0  0
  1  2  1  0  0  0  0
  1 21  1  0  0  0  0
  1 22  1  0  0  0  0
  1 23  1  0  0  0  0
  2  3  1  0  0  0  0
  2 24  1  0  0  0  0
  2 25  1  0  0  0  0
  3  4  1  0  0  0  0
  3  6  1  0  0  0  0
  3 26  1  0  0  0  0
  4  5  1  0  0  0  0
  4 27  1  0  0  0  0
  4 28  1  0  0  0  0
  5 29  1  0  0  0  0
  5 30  1  0  0  0  0
  5 31  1  0  0  0  0
  6  7  1  0  0  0  0
  6 32  1  0  0  0  0
  7  8  2  0  0  0  0
  7  9  1  0  0  0  0
  9 10  1  0  0  0  0
  9 33  1  0  0  0  0
  9 34  1  0  0  0  0
 10 14  1  0  0  0  0
 10 11  1  0  0  0  0
 11 12  2  0  0  0  0
 12 13  1  0  0  0  0
 13 14  2  0  0  0  0
 14 15  1  0  0  0  0
 15 20  1  0  0  0  0
 15 16  1  0  0  0  0
 15 35  1  0  0  0  0
 16 17  1  0  0  0  0
 16 36  1  0  0  0  0
 16 37  1  0  0  0  0
 17 18  1  0  0  0  0
 17 38  1  0  0  0  0
 17 39  1  0  0  0  0
 18 19  1  0  0  0  0
 18 40  1  0  0  0  0
 18 41  1  0  0  0  0
 19 20  1  0  0  0  0
 19 42  1  0  0  0  0
 19 43  1  0  0  0  0
 20 44  1  0  0  0  0
 20 45  1  0  0  0  0
M  END
> <s_m_source_file>
AV-unprocessed.smi

> <i_m_source_file_index>
2907

> <i_lp_mmshare_version>
43012

> <i_f3d_flags>
0

> <s_epik_input>
W0NIM11bQ0gyXVtDSF0oW0NIMl1bQ0gzXSlbTkhdQyg9TylbQ0gyXW4xbm5uYzFbQ0hdMltDSDJdW0NIMl1bQ0gyXVtDSDJdW0NIMl0y

> <s_epik_cmdline>
J2VwaWtfcHl0aG9uJywgJy1waCcsICc3LjAnLCAnLXRuJywgJzgnLCAnLW1hJywgJzIwMCcsICctbWV0YWxfYmluZGluZycsICctaW1hZScsICc8aW5maWxlLm1hZT4nLCAnLW9tYWUnLCAnPG91dGZpbGUubWFlPic=

> <r_lp_tautomer_probability>
1

> <r_epik_Ionization_Penalty>
4.92512e-07

> <r_epik_Ionization_Penalty_Charging>
0

> <r_epik_Ionization_Penalty_Neutral>
4.92512e-07

> <r_epik_State_Penalty>
-0

> <r_epik_Charging_Adjusted_Penalty>
0

> <i_epik_Tot_Q>
0

> <i_epik_Tot_abs_Q>
0

> <r_epik_Metal_State_Penalty>
-0

> <b_epik_Metal_Only>
0

> <s_lp_Force_Field>
OPLS_2005

> <r_lp_Energy>
10.8377

> <b_lp_Chiralities_Consistent>
1

> <s_lp_Variant>
AV-unprocessed.smi:2907-1

> <Gold.Version>
5.8.1

> <Gold.Id.Protein>
6NUR|6NUR_protein|mol2

> <Gold.PLP.Fitness>
45.0951

> <Gold.PLP.PLP>
-37.7207

> <Gold.PLP.part.hbond>
-4.5396

> <Gold.PLP.part.metal>
0.0000

> <Gold.PLP.part.buried>
-4.4438

> <Gold.PLP.part.nonpolar>
-29.3916

> <Gold.PLP.part.repulsive>
1.2369

> <Gold.PLP.ligand.clash>
0.0000

> <Gold.PLP.ligand.torsion>
0.5859

> <Gold.PLP.Chemscore.Hbond>
2.8160

> <Gold.PLP.Chemscore.CHOScore>
0.0000

> <Gold.PLP.Chemscore.Metal>
0.0000

> <Gold.Chemscore.Hbonds>
donor molecule, donor type, donor heavy atom, donor atom, acceptor molecule, acceptor atom, score
      P1  H  7989  7998       L1    11  1.00
      P1  H  7997  8009       L1    13  1.00
      P1  H  8011  8017       L1     8  0.82

> <Gold.PLP.Chemscore.Internal.Correction>
0.0980

> <Gold.Rescore>
     Score         DG    S(hbond)    S(metal)    S(lipo)     H(rot)  DE(clash)    DE(int)     intcor
     14.14     -17.31       2.04        0.00      82.04       1.79       1.09       2.08       ----

> <Gold.Chemscore.Fitness>
14.1358

> <Gold.Chemscore.DG>
-17.3108

> <Gold.Chemscore.ZeroCoef>
-5.4800

> <Gold.Chemscore.Hbond>
2.0437

> <Gold.Chemscore.Metal>
0.0000

> <Gold.Chemscore.Lipo>
82.0409

> <Gold.Chemscore.Internal_Hbond>
0.0000

> <Gold.Chemscore.DEClash>
1.0922

> <Gold.Chemscore.DEInternal>
2.0828

> <Gold.Chemscore.Rot>
1.7944

> <Gold.Chemscore.Internal.Correction>
   9.000000E+99

> <Gold.Chemscore.Hbonds>
donor molecule, donor type, donor heavy atom, donor atom, acceptor molecule, acceptor atom, score
      P1  H  7989  7998       L1    11  0.68
      P1  H  7997  8009       L1    13  0.24
      P1  H  8011  8017       L1     8  0.81

> <Gold.Chemscore.Hbond.Weighted>
-6.8258

> <Gold.Chemscore.Metal.Weighted>
-0.0000

> <Gold.Chemscore.Lipo.Weighted>
-9.5988

> <Gold.Chemscore.Internal_Hbond.Weighted>
0.0000

> <Gold.Chemscore.DEClash.Weighted>
1.0922

> <Gold.Chemscore.DEInternal.Weighted>
2.0828

> <Gold.Chemscore.Rot.Weighted>
4.5938

> <Gold.Chemscore.Internal.Correction.Weighted>
   9.000000E+99

> <Gold.Protein.RotatedTorsions>
[ 6907 6896 6895 6894 ] final -165.07 input  -60.11 | X-H torsion
[ 7974 7965 7964 7962 ] final   -0.05 input  175.53 | X-H torsion
[ 8008 7997 7996 7995 ] final -153.48 input   59.86 | X-H torsion
[ 10167 10162 10161 10158 ] final -117.58 input  -65.29 | X-H torsion
[ 10718 10713 10712 10709 ] final -153.74 input   66.30 | X-H torsion
[ 10763 10752 10751 10750 ] final  -80.29 input  -60.55 | X-H torsion
[ 11005 11000 10999 10996 ] final  109.06 input  -57.11 | X-H torsion

> <Gold.Protein.ActiveResidues>
 VAL166  LYS551  ARG553  GLY616  TRP617  ASP618  TYR619  PRO620  LYS621  CYS622 
 ASP623  PHE694  ASN695  SER759  ASP760  ASP761  ALA762  ILE779  LEU786  VAL792 
 PHE793  MET794  SER795  GLU796  ALA797  LYS798  CYS799  TRP800  GLU811  SER814 

> <Gold.Protein.RotatedAtoms>
  151.4219  133.3696  159.2756 H   0  0  0  0  0  0  0  0  0  0  0  0  # atno 6907 bound_to 6896
  150.9287  134.8705  159.7548 H   0  0  0  0  0  0  0  0  0  0  0  0  # atno 6908 bound_to 6896
  152.5018  134.4162  159.9517 H   0  0  0  0  0  0  0  0  0  0  0  0  # atno 6909 bound_to 6896
  146.2430  140.1212  142.8340 H   0  0  0  0  0  0  0  0  0  0  0  0  # atno 7974 bound_to 7965
  155.6715  140.0734  157.2518 H   0  0  0  0  0  0  0  0  0  0  0  0  # atno 8008 bound_to 7997
  154.4122  140.1698  156.1936 H   0  0  0  0  0  0  0  0  0  0  0  0  # atno 8009 bound_to 7997
  155.9612  140.3369  155.6495 H   0  0  0  0  0  0  0  0  0  0  0  0  # atno 8010 bound_to 7997
  140.0668  143.4915  152.2001 H   0  0  0  0  0  0  0  0  0  0  0  0  # atno 10167 bound_to 10162
  156.4898  130.8342  151.2566 H   0  0  0  0  0  0  0  0  0  0  0  0  # atno 10718 bound_to 10713
  154.5493  135.5666  153.6908 H   0  0  0  0  0  0  0  0  0  0  0  0  # atno 10763 bound_to 10752
  152.9985  135.6247  154.2395 H   0  0  0  0  0  0  0  0  0  0  0  0  # atno 10764 bound_to 10752
  154.2330  135.2865  155.2863 H   0  0  0  0  0  0  0  0  0  0  0  0  # atno 10765 bound_to 10752
  139.8855  134.9448  156.6068 H   0  0  0  0  0  0  0  0  0  0  0  0  # atno 11005 bound_to 11000
  145.0405  140.8941  143.5055 LP  0  0  0  0  0  0  0  0  0  0  0  0  # atno 17320 bound_to 7965
  145.1291  139.2643  143.5548 LP  0  0  0  0  0  0  0  0  0  0  0  0  # atno 17321 bound_to 7965
  139.5860  144.7531  151.3520 LP  0  0  0  0  0  0  0  0  0  0  0  0  # atno 17342 bound_to 10162
  140.7145  143.7303  150.7628 LP  0  0  0  0  0  0  0  0  0  0  0  0  # atno 17343 bound_to 10162
  157.7475  131.0017  150.2973 LP  0  0  0  0  0  0  0  0  0  0  0  0  # atno 17370 bound_to 10713
  156.3437  130.3819  149.7387 LP  0  0  0  0  0  0  0  0  0  0  0  0  # atno 17371 bound_to 10713
  140.7842  133.8635  155.8592 LP  0  0  0  0  0  0  0  0  0  0  0  0  # atno 17394 bound_to 11000
  140.9734  134.1501  157.4557 LP  0  0  0  0  0  0  0  0  0  0  0  0  # atno 17395 bound_to 11000

$$$$
