AV-unprocessed.smi:1284|AV-procd|sdf|5365|dock4
  -GOLD-   22720 4503D 1   1.00000     0.00000
 Structure written by MMmdl.
 40 42  0  0  0  0  0  0  0  0  2 V2000
  150.7588  135.5727  154.6722 N   0  0  0  0  0  0  0  0  0  0  0  0
  150.8375  136.6521  155.4547 C   0  0  0  0  0  0  0  0  0  0  0  0
  150.5043  136.6318  156.6379 O   0  0  0  0  0  0  0  0  0  0  0  0
  151.3621  137.9431  154.8218 C   0  0  0  0  0  0  0  0  0  0  0  0
  150.2360  138.8835  154.5100 C   0  0  0  0  0  0  0  0  0  0  0  0
  149.1886  138.6201  153.6752 N   0  3  0  0  0  0  0  0  0  0  0  0
  148.3352  139.7213  153.6186 C   0  0  0  0  0  0  0  0  0  0  0  0
  147.1572  139.9260  152.9068 C   0  0  0  0  0  0  0  0  0  0  0  0
  146.5274  141.1771  153.0727 C   0  0  0  0  0  0  0  0  0  0  0  0
  147.0700  142.1656  153.9194 C   0  0  0  0  0  0  0  0  0  0  0  0
  148.2638  141.9449  154.6376 C   0  0  0  0  0  0  0  0  0  0  0  0
  148.8800  140.7050  154.4681 C   0  0  0  0  0  0  0  0  0  0  0  0
  150.0445  140.1435  155.0045 N   0  0  0  0  0  0  0  0  0  0  0  0
  150.8368  140.9370  155.9590 C   0  0  0  0  0  0  0  0  0  0  0  0
  150.3465  140.8000  157.4140 C   0  0  2  0  0  0  0  0  0  0  0  0
  148.9374  140.9111  157.4601 O   0  0  0  0  0  0  0  0  0  0  0  0
  151.0337  141.8078  158.3213 C   0  0  0  0  0  0  0  0  0  0  0  0
  150.8907  143.1900  158.0736 C   0  0  0  0  0  0  0  0  0  0  0  0
  151.5162  144.1307  158.9152 C   0  0  0  0  0  0  0  0  0  0  0  0
  152.2866  143.6945  160.0101 C   0  0  0  0  0  0  0  0  0  0  0  0
  152.4299  142.3171  160.2645 C   0  0  0  0  0  0  0  0  0  0  0  0
  151.8042  141.3761  159.4240 C   0  0  0  0  0  0  0  0  0  0  0  0
  150.4118  134.7030  155.0508 H   0  0  0  0  0  0  0  0  0  0  0  0
  151.0398  135.6284  153.7032 H   0  0  0  0  0  0  0  0  0  0  0  0
  152.0523  138.4304  155.5113 H   0  0  0  0  0  0  0  0  0  0  0  0
  151.9294  137.7084  153.9215 H   0  0  0  0  0  0  0  0  0  0  0  0
  146.7406  139.1701  152.2572 H   0  0  0  0  0  0  0  0  0  0  0  0
  145.6105  141.3827  152.5393 H   0  0  0  0  0  0  0  0  0  0  0  0
  146.5602  143.1127  154.0206 H   0  0  0  0  0  0  0  0  0  0  0  0
  148.6712  142.7092  155.2826 H   0  0  0  0  0  0  0  0  0  0  0  0
  151.8805  140.6317  155.8742 H   0  0  0  0  0  0  0  0  0  0  0  0
  150.8079  141.9789  155.6408 H   0  0  0  0  0  0  0  0  0  0  0  0
  150.5877  139.7997  157.7753 H   0  0  0  0  0  0  0  0  0  0  0  0
  148.6193  140.3691  158.1664 H   0  0  0  0  0  0  0  0  0  0  0  0
  150.2996  143.5353  157.2380 H   0  0  0  0  0  0  0  0  0  0  0  0
  151.4047  145.1873  158.7211 H   0  0  0  0  0  0  0  0  0  0  0  0
  152.7659  144.4161  160.6552 H   0  0  0  0  0  0  0  0  0  0  0  0
  153.0193  141.9823  161.1054 H   0  0  0  0  0  0  0  0  0  0  0  0
  151.9162  140.3218  159.6304 H   0  0  0  0  0  0  0  0  0  0  0  0
  149.0760  137.7481  153.1735 H   0  0  0  0  0  0  0  0  0  0  0  0
  1  2  1  0  0  0  0
  1 23  1  0  0  0  0
  1 24  1  0  0  0  0
  2  3  2  0  0  0  0
  2  4  1  0  0  0  0
  4  5  1  0  0  0  0
  4 25  1  0  0  0  0
  4 26  1  0  0  0  0
  5 13  1  0  0  0  0
  5  6  2  0  0  0  0
  6  7  1  0  0  0  0
  6 40  1  0  0  0  0
  7 12  2  0  0  0  0
  7  8  1  0  0  0  0
  8  9  2  0  0  0  0
  8 27  1  0  0  0  0
  9 10  1  0  0  0  0
  9 28  1  0  0  0  0
 10 11  2  0  0  0  0
 10 29  1  0  0  0  0
 11 12  1  0  0  0  0
 11 30  1  0  0  0  0
 12 13  1  0  0  0  0
 13 14  1  0  0  0  0
 14 15  1  0  0  0  0
 14 31  1  0  0  0  0
 14 32  1  0  0  0  0
 15 16  1  0  0  0  0
 15 17  1  0  0  0  0
 15 33  1  0  0  0  0
 16 34  1  0  0  0  0
 17 22  1  0  0  0  0
 17 18  2  0  0  0  0
 18 19  1  0  0  0  0
 18 35  1  0  0  0  0
 19 20  2  0  0  0  0
 19 36  1  0  0  0  0
 20 21  1  0  0  0  0
 20 37  1  0  0  0  0
 21 22  2  0  0  0  0
 21 38  1  0  0  0  0
 22 39  1  0  0  0  0
M  CHG  1   6   1
M  END
> <s_m_source_file>
AV-unprocessed.smi

> <i_m_source_file_index>
1284

> <i_lp_mmshare_version>
43012

> <i_f3d_flags>
0

> <s_epik_input>
W2NIXTFbY0hdW2NIXVtjSF1jKGMxMiluKGMobjIpW0NIMl1DKD1PKVtOSDJdKVtDSDJdW0NASF0oW09IXSljM1tjSF1bY0hdW2NIXVtjSF1bY0hdMw==

> <s_epik_cmdline>
J2VwaWtfcHl0aG9uJywgJy1waCcsICc3LjAnLCAnLXRuJywgJzgnLCAnLW1hJywgJzIwMCcsICctbWV0YWxfYmluZGluZycsICctaW1hZScsICc8aW5maWxlLm1hZT4nLCAnLW9tYWUnLCAnPG91dGZpbGUubWFlPic=

> <r_epik_Ionization_Penalty>
1.66646

> <r_epik_Ionization_Penalty_Charging>
1.66645

> <r_epik_Ionization_Penalty_Neutral>
1.67657e-06

> <r_epik_State_Penalty>
1.76975

> <r_epik_Charging_Adjusted_Penalty>
3.43621

> <i_epik_Tot_Q>
1

> <i_epik_Tot_abs_Q>
1

> <r_epik_Metal_State_Penalty>
1.80493

> <b_epik_Metal_Only>
0

> <s_lp_Force_Field>
OPLS_2005

> <r_lp_Energy>
13.978

> <b_lp_Chiralities_Consistent>
1

> <s_lp_Variant>
AV-unprocessed.smi:1284-3

> <Gold.Version>
5.8.1

> <Gold.Id.Protein>
6NUR|6NUR_protein|mol2

> <Gold.PLP.Fitness>
54.5616

> <Gold.PLP.PLP>
-47.7462

> <Gold.PLP.part.hbond>
-3.7990

> <Gold.PLP.part.metal>
0.0000

> <Gold.PLP.part.buried>
2.9625

> <Gold.PLP.part.nonpolar>
-46.7222

> <Gold.PLP.part.repulsive>
0.1686

> <Gold.PLP.ligand.clash>
0.0122

> <Gold.PLP.ligand.torsion>
0.6857

> <Gold.PLP.Chemscore.Hbond>
2.7000

> <Gold.PLP.Chemscore.CHOScore>
0.0000

> <Gold.PLP.Chemscore.Metal>
0.0000

> <Gold.Chemscore.Hbonds>
donor molecule, donor type, donor heavy atom, donor atom, acceptor molecule, acceptor atom, score
      L1  H     1    24       P1  7949  0.45
      L1  H     6    40       P1  7948  2.00

> <Gold.PLP.Chemscore.Internal.Correction>
0.0990

> <Gold.Rescore>
     Score         DG    S(hbond)    S(metal)    S(lipo)     H(rot)  DE(clash)    DE(int)     intcor
     13.47     -16.32       1.05        0.00     126.79       2.92       2.19       0.66       ----

> <Gold.Chemscore.Fitness>
13.4748

> <Gold.Chemscore.DG>
-16.3238

> <Gold.Chemscore.ZeroCoef>
-5.4800

> <Gold.Chemscore.Hbond>
1.0451

> <Gold.Chemscore.Metal>
0.0000

> <Gold.Chemscore.Lipo>
126.7909

> <Gold.Chemscore.Internal_Hbond>
0.0000

> <Gold.Chemscore.DEClash>
2.1882

> <Gold.Chemscore.DEInternal>
0.6608

> <Gold.Chemscore.Rot>
2.9223

> <Gold.Chemscore.Internal.Correction>
   9.000000E+99

> <Gold.Chemscore.Hbonds>
donor molecule, donor type, donor heavy atom, donor atom, acceptor molecule, acceptor atom, score
      L1  H     1    24       P1  7949  0.09
      L1  H     6    40       P1  7948  0.97

> <Gold.Chemscore.Hbond.Weighted>
-3.4905

> <Gold.Chemscore.Metal.Weighted>
-0.0000

> <Gold.Chemscore.Lipo.Weighted>
-14.8345

> <Gold.Chemscore.Internal_Hbond.Weighted>
0.0000

> <Gold.Chemscore.DEClash.Weighted>
2.1882

> <Gold.Chemscore.DEInternal.Weighted>
0.6608

> <Gold.Chemscore.Rot.Weighted>
7.4812

> <Gold.Chemscore.Internal.Correction.Weighted>
   9.000000E+99

> <Gold.Protein.RotatedTorsions>
[ 6907 6896 6895 6894 ] final -164.96 input  -60.11 | X-H torsion
[ 7974 7965 7964 7962 ] final   89.62 input  175.53 | X-H torsion
[ 8008 7997 7996 7995 ] final  113.35 input   59.86 | X-H torsion
[ 10167 10162 10161 10158 ] final   66.53 input  -65.29 | X-H torsion
[ 10718 10713 10712 10709 ] final   92.95 input   66.30 | X-H torsion
[ 10763 10752 10751 10750 ] final  -69.18 input  -60.55 | X-H torsion
[ 11005 11000 10999 10996 ] final -171.69 input  -57.11 | X-H torsion

> <Gold.Protein.ActiveResidues>
 VAL166  LYS551  ARG553  GLY616  TRP617  ASP618  TYR619  PRO620  LYS621  CYS622 
 ASP623  PHE694  ASN695  SER759  ASP760  ASP761  ALA762  ILE779  LEU786  VAL792 
 PHE793  MET794  SER795  GLU796  ALA797  LYS798  CYS799  TRP800  GLU811  SER814 

> <Gold.Protein.RotatedAtoms>
  151.4201  133.3701  159.2754 H   0  0  0  0  0  0  0  0  0  0  0  0  # atno 6907 bound_to 6896
  150.9300  134.8716  159.7555 H   0  0  0  0  0  0  0  0  0  0  0  0  # atno 6908 bound_to 6896
  152.5023  134.4145  159.9512 H   0  0  0  0  0  0  0  0  0  0  0  0  # atno 6909 bound_to 6896
  145.5300  139.2283  143.2624 H   0  0  0  0  0  0  0  0  0  0  0  0  # atno 7974 bound_to 7965
  156.2252  140.2981  156.0050 H   0  0  0  0  0  0  0  0  0  0  0  0  # atno 8008 bound_to 7997
  155.2375  140.0421  157.2987 H   0  0  0  0  0  0  0  0  0  0  0  0  # atno 8009 bound_to 7997
  154.5904  140.2400  155.7936 H   0  0  0  0  0  0  0  0  0  0  0  0  # atno 8010 bound_to 7997
  140.0995  144.4917  150.7047 H   0  0  0  0  0  0  0  0  0  0  0  0  # atno 10167 bound_to 10162
  157.6957  131.0461  150.3960 H   0  0  0  0  0  0  0  0  0  0  0  0  # atno 10718 bound_to 10713
  154.3997  135.6034  153.5890 H   0  0  0  0  0  0  0  0  0  0  0  0  # atno 10763 bound_to 10752
  152.9788  135.5903  154.4199 H   0  0  0  0  0  0  0  0  0  0  0  0  # atno 10764 bound_to 10752
  154.3996  135.2843  155.2083 H   0  0  0  0  0  0  0  0  0  0  0  0  # atno 10765 bound_to 10752
  140.5054  134.5853  157.5001 H   0  0  0  0  0  0  0  0  0  0  0  0  # atno 11005 bound_to 11000
  146.2050  140.6116  142.9085 LP  0  0  0  0  0  0  0  0  0  0  0  0  # atno 17320 bound_to 7965
  144.7631  140.5468  143.6722 LP  0  0  0  0  0  0  0  0  0  0  0  0  # atno 17321 bound_to 7965
  140.6986  143.2419  151.4931 LP  0  0  0  0  0  0  0  0  0  0  0  0  # atno 17342 bound_to 10162
  139.5679  144.1997  152.1793 LP  0  0  0  0  0  0  0  0  0  0  0  0  # atno 17343 bound_to 10162
  156.4358  130.3981  149.6730 LP  0  0  0  0  0  0  0  0  0  0  0  0  # atno 17370 bound_to 10713
  156.3931  130.7637  151.2639 LP  0  0  0  0  0  0  0  0  0  0  0  0  # atno 17371 bound_to 10713
  139.9689  134.7326  156.0081 LP  0  0  0  0  0  0  0  0  0  0  0  0  # atno 17394 bound_to 11000
  141.1414  133.6564  156.3740 LP  0  0  0  0  0  0  0  0  0  0  0  0  # atno 17395 bound_to 11000

$$$$
