AV-unprocessed.smi:581|AV-procd|sdf|2994|dock1
  -GOLD-   2262023503D 1   1.00000     0.00000
 Structure written by MMmdl.
 34 35  0  0  0  0  0  0  0  0  3 V2000
  153.2528  138.1876  158.0910 C   0  0  0  0  0  0  0  0  0  0  0  0
  152.4627  139.3582  157.5332 C   0  0  0  0  0  0  0  0  0  0  0  0
  152.4767  140.5296  158.3054 N   0  0  0  0  0  0  0  0  0  0  0  0
  151.8326  141.5844  157.9048 C   0  0  0  0  0  0  0  0  0  0  0  0
  151.8240  142.7720  158.6421 N   0  0  0  0  0  0  0  0  0  0  0  0
  151.7266  144.0746  157.9788 C   0  0  0  0  0  0  0  0  0  0  0  0
  151.1684  145.1459  158.9301 C   0  0  0  0  0  0  0  0  0  0  0  0
  151.9698  145.2108  160.1021 O   0  0  0  0  0  0  0  0  0  0  0  0
  151.9574  143.9756  160.8046 C   0  0  0  0  0  0  0  0  0  0  0  0
  152.5404  142.8653  159.9146 C   0  0  0  0  0  0  0  0  0  0  0  0
  151.1023  141.6061  156.7272 N   0  5  0  0  0  0  0  0  0  0  0  0
  151.0498  140.5061  155.9230 C   0  0  0  0  0  0  0  0  0  0  0  0
  150.4192  140.5023  154.8665 O   0  0  0  0  0  0  0  0  0  0  0  0
  151.7806  139.3016  156.3547 C   0  0  0  0  0  0  0  0  0  0  0  0
  151.7220  138.0502  155.4797 C   0  0  0  0  0  0  0  0  0  0  0  0
  150.6362  137.0639  155.9468 C   0  0  0  0  0  0  0  0  0  0  0  0
  151.1774  136.1436  157.0410 C   0  0  0  0  0  0  0  0  0  0  0  0
  150.5747  136.1397  158.1367 O   0  0  0  0  0  0  0  0  0  0  0  0
  152.1870  135.4591  156.7639 O   0  5  0  0  0  0  0  0  0  0  0  0
  153.9339  137.7890  157.3386 H   0  0  0  0  0  0  0  0  0  0  0  0
  152.5785  137.3914  158.4072 H   0  0  0  0  0  0  0  0  0  0  0  0
  153.8481  138.4886  158.9537 H   0  0  0  0  0  0  0  0  0  0  0  0
  152.7210  144.3644  157.6373 H   0  0  0  0  0  0  0  0  0  0  0  0
  151.0951  144.0291  157.0912 H   0  0  0  0  0  0  0  0  0  0  0  0
  151.1760  146.1206  158.4420 H   0  0  0  0  0  0  0  0  0  0  0  0
  150.1317  144.9296  159.1931 H   0  0  0  0  0  0  0  0  0  0  0  0
  152.5517  144.0785  161.7125 H   0  0  0  0  0  0  0  0  0  0  0  0
  150.9407  143.7297  161.1156 H   0  0  0  0  0  0  0  0  0  0  0  0
  152.4893  141.9172  160.4519 H   0  0  0  0  0  0  0  0  0  0  0  0
  153.5944  143.0615  159.7135 H   0  0  0  0  0  0  0  0  0  0  0  0
  151.5407  138.3317  154.4424 H   0  0  0  0  0  0  0  0  0  0  0  0
  152.6986  137.5636  155.4728 H   0  0  0  0  0  0  0  0  0  0  0  0
  149.7688  137.6041  156.3281 H   0  0  0  0  0  0  0  0  0  0  0  0
  150.2861  136.4598  155.1088 H   0  0  0  0  0  0  0  0  0  0  0  0
  1  2  1  0  0  0  0
  1 20  1  0  0  0  0
  1 21  1  0  0  0  0
  1 22  1  0  0  0  0
  2 14  2  0  0  0  0
  2  3  1  0  0  0  0
  3  4  2  0  0  0  0
  4  5  1  0  0  0  0
  4 11  1  0  0  0  0
  5 10  1  0  0  0  0
  5  6  1  0  0  0  0
  6  7  1  0  0  0  0
  6 23  1  0  0  0  0
  6 24  1  0  0  0  0
  7  8  1  0  0  0  0
  7 25  1  0  0  0  0
  7 26  1  0  0  0  0
  8  9  1  0  0  0  0
  9 10  1  0  0  0  0
  9 27  1  0  0  0  0
  9 28  1  0  0  0  0
 10 29  1  0  0  0  0
 10 30  1  0  0  0  0
 11 12  1  0  0  0  0
 12 13  2  0  0  0  0
 12 14  1  0  0  0  0
 14 15  1  0  0  0  0
 15 16  1  0  0  0  0
 15 31  1  0  0  0  0
 15 32  1  0  0  0  0
 16 17  1  0  0  0  0
 16 33  1  0  0  0  0
 16 34  1  0  0  0  0
 17 18  2  0  0  0  0
 17 19  1  0  0  0  0
M  CHG  1  11  -1
M  CHG  1  19  -1
M  END
> <s_m_source_file>
AV-unprocessed.smi

> <i_m_source_file_index>
581

> <i_lp_mmshare_version>
43012

> <i_f3d_flags>
0

> <s_epik_input>
W0NIMl0xW0NIMl1PW0NIMl1bQ0gyXU4xYyhuYzJbQ0gzXSlbbkhdYyg9TyljMltDSDJdW0NIMl1DKD1PKVtPSF0=

> <s_epik_cmdline>
J2VwaWtfcHl0aG9uJywgJy1waCcsICc3LjAnLCAnLXRuJywgJzgnLCAnLW1hJywgJzIwMCcsICctbWV0YWxfYmluZGluZycsICctaW1hZScsICc8aW5maWxlLm1hZT4nLCAnLW9tYWUnLCAnPG91dGZpbGUubWFlPic=

> <r_lp_tautomer_probability>
0.878553

> <r_epik_Ionization_Penalty>
5.42566

> <r_epik_Ionization_Penalty_Charging>
0.003235

> <r_epik_Ionization_Penalty_Neutral>
5.42243

> <r_epik_State_Penalty>
3.98511

> <r_epik_Charging_Adjusted_Penalty>
3.98834

> <i_epik_Tot_Q>
-2

> <i_epik_Tot_abs_Q>
2

> <r_epik_Metal_State_Penalty>
0.64219

> <b_epik_Metal_Only>
1

> <s_lp_Force_Field>
OPLS_2005

> <r_lp_Energy>
30.9787

> <b_lp_Chiralities_Consistent>
1

> <s_lp_Variant>
AV-unprocessed.smi:581-4

> <Gold.Version>
5.8.1

> <Gold.Id.Protein>
6NUR|6NUR_protein|mol2

> <Gold.PLP.Fitness>
47.3362

> <Gold.PLP.PLP>
-34.9744

> <Gold.PLP.part.hbond>
-3.0000

> <Gold.PLP.part.metal>
0.0000

> <Gold.PLP.part.buried>
-5.1364

> <Gold.PLP.part.nonpolar>
-27.0565

> <Gold.PLP.part.repulsive>
0.2577

> <Gold.PLP.ligand.clash>
0.0000

> <Gold.PLP.ligand.torsion>
0.6945

> <Gold.PLP.Chemscore.Hbond>
4.5040

> <Gold.PLP.Chemscore.CHOScore>
0.0000

> <Gold.PLP.Chemscore.Metal>
0.0000

> <Gold.Chemscore.Hbonds>
donor molecule, donor type, donor heavy atom, donor atom, acceptor molecule, acceptor atom, score
      P1  H  6896  6909       L1    18  1.47
      P1  H  7989  7998       L1    13  0.99
      P1  H 10752 10764       L1    19  2.00

> <Gold.PLP.Chemscore.Internal.Correction>
0.2387

> <Gold.Rescore>
     Score         DG    S(hbond)    S(metal)    S(lipo)     H(rot)  DE(clash)    DE(int)     intcor
     17.51     -18.18       2.64        0.00      73.92       1.86       0.01       0.66       ----

> <Gold.Chemscore.Fitness>
17.5111

> <Gold.Chemscore.DG>
-18.1803

> <Gold.Chemscore.ZeroCoef>
-5.4800

> <Gold.Chemscore.Hbond>
2.6409

> <Gold.Chemscore.Metal>
0.0000

> <Gold.Chemscore.Lipo>
73.9244

> <Gold.Chemscore.Internal_Hbond>
0.0000

> <Gold.Chemscore.DEClash>
0.0133

> <Gold.Chemscore.DEInternal>
0.6559

> <Gold.Chemscore.Rot>
1.8630

> <Gold.Chemscore.Internal.Correction>
   9.000000E+99

> <Gold.Chemscore.Hbonds>
donor molecule, donor type, donor heavy atom, donor atom, acceptor molecule, acceptor atom, score
      P1  H  6896  6909       L1    18  0.70
      P1  H  7989  7998       L1    13  0.57
      P1  H 10752 10764       L1    19  1.00

> <Gold.Chemscore.Hbond.Weighted>
-8.8206

> <Gold.Chemscore.Metal.Weighted>
-0.0000

> <Gold.Chemscore.Lipo.Weighted>
-8.6492

> <Gold.Chemscore.Internal_Hbond.Weighted>
0.0000

> <Gold.Chemscore.DEClash.Weighted>
0.0133

> <Gold.Chemscore.DEInternal.Weighted>
0.6559

> <Gold.Chemscore.Rot.Weighted>
4.7694

> <Gold.Chemscore.Internal.Correction.Weighted>
   9.000000E+99

> <Gold.Protein.RotatedTorsions>
[ 6907 6896 6895 6894 ] final   70.72 input  -60.11 | X-H torsion
[ 7974 7965 7964 7962 ] final   -4.93 input  175.53 | X-H torsion
[ 8008 7997 7996 7995 ] final -145.74 input   59.86 | X-H torsion
[ 10167 10162 10161 10158 ] final  -97.65 input  -65.29 | X-H torsion
[ 10718 10713 10712 10709 ] final -177.28 input   66.30 | X-H torsion
[ 10763 10752 10751 10750 ] final  -18.16 input  -60.55 | X-H torsion
[ 11005 11000 10999 10996 ] final   66.11 input  -57.11 | X-H torsion

> <Gold.Protein.ActiveResidues>
 VAL166  LYS551  ARG553  GLY616  TRP617  ASP618  TYR619  PRO620  LYS621  CYS622 
 ASP623  PHE694  ASN695  SER759  ASP760  ASP761  ALA762  ILE779  LEU786  VAL792 
 PHE793  MET794  SER795  GLU796  ALA797  LYS798  CYS799  TRP800  GLU811  SER814 

> <Gold.Protein.RotatedAtoms>
  152.4766  134.4827  159.9670 H   0  0  0  0  0  0  0  0  0  0  0  0  # atno 6907 bound_to 6896
  151.4842  133.3533  159.2851 H   0  0  0  0  0  0  0  0  0  0  0  0  # atno 6908 bound_to 6896
  150.8809  134.8227  159.7286 H   0  0  0  0  0  0  0  0  0  0  0  0  # atno 6909 bound_to 6896
  146.2363  140.1945  142.8333 H   0  0  0  0  0  0  0  0  0  0  0  0  # atno 7974 bound_to 7965
  155.5481  140.0614  157.2856 H   0  0  0  0  0  0  0  0  0  0  0  0  # atno 8008 bound_to 7997
  154.4430  140.1907  156.0703 H   0  0  0  0  0  0  0  0  0  0  0  0  # atno 8009 bound_to 7997
  156.0536  140.3281  155.7383 H   0  0  0  0  0  0  0  0  0  0  0  0  # atno 8010 bound_to 7997
  140.2811  143.3281  152.0440 H   0  0  0  0  0  0  0  0  0  0  0  0  # atno 10167 bound_to 10162
  156.8272  130.9640  151.3108 H   0  0  0  0  0  0  0  0  0  0  0  0  # atno 10718 bound_to 10713
  153.5849  135.7004  153.5447 H   0  0  0  0  0  0  0  0  0  0  0  0  # atno 10763 bound_to 10752
  153.3228  135.4069  155.1431 H   0  0  0  0  0  0  0  0  0  0  0  0  # atno 10764 bound_to 10752
  154.8611  135.3700  154.5379 H   0  0  0  0  0  0  0  0  0  0  0  0  # atno 10765 bound_to 10752
  139.9852  134.6679  156.0189 H   0  0  0  0  0  0  0  0  0  0  0  0  # atno 11005 bound_to 11000
  144.9831  140.8478  143.5385 LP  0  0  0  0  0  0  0  0  0  0  0  0  # atno 17320 bound_to 7965
  145.1941  139.2286  143.5227 LP  0  0  0  0  0  0  0  0  0  0  0  0  # atno 17321 bound_to 7965
  139.4962  144.6591  151.6506 LP  0  0  0  0  0  0  0  0  0  0  0  0  # atno 17342 bound_to 10162
  140.5810  143.9945  150.6268 LP  0  0  0  0  0  0  0  0  0  0  0  0  # atno 17343 bound_to 10162
  157.6426  130.8818  149.9477 LP  0  0  0  0  0  0  0  0  0  0  0  0  # atno 17370 bound_to 10713
  156.0955  130.3660  150.0315 LP  0  0  0  0  0  0  0  0  0  0  0  0  # atno 17371 bound_to 10713
  141.1518  133.6547  156.4037 LP  0  0  0  0  0  0  0  0  0  0  0  0  # atno 17394 bound_to 11000
  140.5016  134.6480  157.5251 LP  0  0  0  0  0  0  0  0  0  0  0  0  # atno 17395 bound_to 11000

$$$$
