AV-unprocessed.smi:1740|AV-procd|sdf|7011|dock10
  -GOLD-   22720 8223D 1   1.00000     0.00000
 Structure written by MMmdl.
 53 55  0  0  0  0  0  0  0  0  3 V2000
  149.1463  138.7349  153.4142 N   0  0  0  0  0  0  0  0  0  0  0  0
  148.1153  139.0405  154.2046 C   0  0  0  0  0  0  0  0  0  0  0  0
  148.1098  138.7753  155.4055 O   0  0  0  0  0  0  0  0  0  0  0  0
  146.9317  139.7606  153.5498 C   0  0  0  0  0  0  0  0  0  0  0  0
  146.1009  138.8622  152.7072 N   0  3  2  0  0  0  0  0  0  0  0  0
  145.4778  137.7511  153.4747 C   0  0  0  0  0  0  0  0  0  0  0  0
  144.5020  136.9496  152.5949 C   0  0  0  0  0  0  0  0  0  0  0  0
  145.1713  136.4244  151.3125 C   0  0  2  0  0  0  0  0  0  0  0  0
  146.0811  135.3193  151.6155 N   0  0  0  0  0  0  0  0  0  0  0  0
  145.7034  134.0487  151.8194 C   0  0  0  0  0  0  0  0  0  0  0  0
  144.5351  133.6665  151.7567 O   0  0  0  0  0  0  0  0  0  0  0  0
  146.7559  133.2536  152.0735 N   0  0  0  0  0  0  0  0  0  0  0  0
  146.7291  131.8533  152.3268 C   0  0  0  0  0  0  0  0  0  0  0  0
  145.6841  131.0467  151.8077 C   0  0  0  0  0  0  0  0  0  0  0  0
  145.6284  129.6772  152.1265 C   0  0  0  0  0  0  0  0  0  0  0  0
  146.6102  129.1368  152.9742 C   0  0  0  0  0  0  0  0  0  0  0  0
  147.5851  129.9323  153.4609 N   0  3  0  0  0  0  0  0  0  0  0  0
  147.7023  131.2542  153.1784 C   0  0  0  0  0  0  0  0  0  0  0  0
  148.7893  131.9569  153.7474 N   0  0  0  0  0  0  0  0  0  0  0  0
  148.5639  133.2058  154.4672 C   0  0  0  0  0  0  0  0  0  0  0  0
  149.8534  133.4555  155.2447 C   0  0  0  0  0  0  0  0  0  0  0  0
  150.2956  132.0417  155.6088 C   0  0  0  0  0  0  0  0  0  0  0  0
  149.8523  131.2033  154.4058 C   0  0  0  0  0  0  0  0  0  0  0  0
  145.8944  137.5743  150.5833 C   0  0  0  0  0  0  0  0  0  0  0  0
  146.8334  138.3560  151.5191 C   0  0  0  0  0  0  0  0  0  0  0  0
  149.9514  138.2647  153.8031 H   0  0  0  0  0  0  0  0  0  0  0  0
  149.1266  138.9759  152.4338 H   0  0  0  0  0  0  0  0  0  0  0  0
  146.3273  140.1656  154.3625 H   0  0  0  0  0  0  0  0  0  0  0  0
  147.2780  140.6123  152.9618 H   0  0  0  0  0  0  0  0  0  0  0  0
  146.2566  137.0971  153.8695 H   0  0  0  0  0  0  0  0  0  0  0  0
  144.9363  138.1458  154.3346 H   0  0  0  0  0  0  0  0  0  0  0  0
  144.0722  136.1246  153.1644 H   0  0  0  0  0  0  0  0  0  0  0  0
  143.6655  137.5941  152.3208 H   0  0  0  0  0  0  0  0  0  0  0  0
  144.3823  136.0416  150.6623 H   0  0  0  0  0  0  0  0  0  0  0  0
  147.0629  135.5424  151.6918 H   0  0  0  0  0  0  0  0  0  0  0  0
  147.6718  133.6685  151.9821 H   0  0  0  0  0  0  0  0  0  0  0  0
  144.9093  131.4674  151.1837 H   0  0  0  0  0  0  0  0  0  0  0  0
  144.8365  129.0546  151.7362 H   0  0  0  0  0  0  0  0  0  0  0  0
  146.6443  128.1009  153.2793 H   0  0  0  0  0  0  0  0  0  0  0  0
  148.3385  134.0253  153.7838 H   0  0  0  0  0  0  0  0  0  0  0  0
  147.7328  133.1005  155.1658 H   0  0  0  0  0  0  0  0  0  0  0  0
  150.5967  133.9231  154.5972 H   0  0  0  0  0  0  0  0  0  0  0  0
  149.7080  134.0964  156.1147 H   0  0  0  0  0  0  0  0  0  0  0  0
  151.3649  131.9664  155.8082 H   0  0  0  0  0  0  0  0  0  0  0  0
  149.7633  131.7116  156.5022 H   0  0  0  0  0  0  0  0  0  0  0  0
  149.5249  130.2098  154.7155 H   0  0  0  0  0  0  0  0  0  0  0  0
  150.6810  131.0866  153.7068 H   0  0  0  0  0  0  0  0  0  0  0  0
  146.4503  137.1961  149.7246 H   0  0  0  0  0  0  0  0  0  0  0  0
  145.1498  138.2607  150.1782 H   0  0  0  0  0  0  0  0  0  0  0  0
  147.2660  139.1922  150.9685 H   0  0  0  0  0  0  0  0  0  0  0  0
  147.6640  137.7260  151.8412 H   0  0  0  0  0  0  0  0  0  0  0  0
  145.3472  139.4347  152.3531 H   0  0  0  0  0  0  0  0  0  0  0  0
  148.2830  129.5096  154.0730 H   0  0  0  0  0  0  0  0  0  0  0  0
  1  2  1  0  0  0  0
  1 26  1  0  0  0  0
  1 27  1  0  0  0  0
  2  3  2  0  0  0  0
  2  4  1  0  0  0  0
  4  5  1  0  0  0  0
  4 28  1  0  0  0  0
  4 29  1  0  0  0  0
  5 25  1  0  0  0  0
  5  6  1  0  0  0  0
  5 52  1  0  0  0  0
  6  7  1  0  0  0  0
  6 30  1  0  0  0  0
  6 31  1  0  0  0  0
  7  8  1  0  0  0  0
  7 32  1  0  0  0  0
  7 33  1  0  0  0  0
  8  9  1  0  0  0  0
  8 24  1  0  0  0  0
  8 34  1  0  0  0  0
  9 10  1  0  0  0  0
  9 35  1  0  0  0  0
 10 11  2  0  0  0  0
 10 12  1  0  0  0  0
 12 13  1  0  0  0  0
 12 36  1  0  0  0  0
 13 18  1  0  0  0  0
 13 14  2  0  0  0  0
 14 15  1  0  0  0  0
 14 37  1  0  0  0  0
 15 16  2  0  0  0  0
 15 38  1  0  0  0  0
 16 17  1  0  0  0  0
 16 39  1  0  0  0  0
 17 18  2  0  0  0  0
 17 53  1  0  0  0  0
 18 19  1  0  0  0  0
 19 23  1  0  0  0  0
 19 20  1  0  0  0  0
 20 21  1  0  0  0  0
 20 40  1  0  0  0  0
 20 41  1  0  0  0  0
 21 22  1  0  0  0  0
 21 42  1  0  0  0  0
 21 43  1  0  0  0  0
 22 23  1  0  0  0  0
 22 44  1  0  0  0  0
 22 45  1  0  0  0  0
 23 46  1  0  0  0  0
 23 47  1  0  0  0  0
 24 25  1  0  0  0  0
 24 48  1  0  0  0  0
 24 49  1  0  0  0  0
 25 50  1  0  0  0  0
 25 51  1  0  0  0  0
M  CHG  1   5   1
M  CHG  1  17   1
M  END
> <s_m_source_file>
AV-unprocessed.smi

> <i_m_source_file_index>
1740

> <i_lp_mmshare_version>
43012

> <i_f3d_flags>
0

> <s_epik_input>
W05IMl1DKD1PKVtDSDJdTjFbQ0gyXVtDSDJdW0NIXShbQ0gyXVtDSDJdMSlbTkhdQyg9TylbTkhdYzJbY0hdW2NIXVtjSF1uYzJOM1tDSDJdW0NIMl1bQ0gyXVtDSDJdMw==

> <s_epik_cmdline>
J2VwaWtfcHl0aG9uJywgJy1waCcsICc3LjAnLCAnLXRuJywgJzgnLCAnLW1hJywgJzIwMCcsICctbWV0YWxfYmluZGluZycsICctaW1hZScsICc8aW5maWxlLm1hZT4nLCAnLW9tYWUnLCAnPG91dGZpbGUubWFlPic=

> <r_lp_tautomer_probability>
0.999994

> <r_epik_Ionization_Penalty>
2.11361

> <r_epik_Ionization_Penalty_Charging>
2.11355

> <r_epik_Ionization_Penalty_Neutral>
5.98217e-05

> <r_epik_State_Penalty>
2.13444

> <r_epik_Charging_Adjusted_Penalty>
4.24799

> <i_epik_Tot_Q>
2

> <i_epik_Tot_abs_Q>
2

> <r_epik_Metal_State_Penalty>
2.23528

> <b_epik_Metal_Only>
0

> <s_lp_Force_Field>
OPLS_2005

> <r_lp_Energy>
48.4513

> <b_lp_Chiralities_Consistent>
1

> <s_lp_Variant>
AV-unprocessed.smi:1740-6

> <Gold.Version>
5.8.1

> <Gold.Id.Protein>
6NUR|6NUR_protein|mol2

> <Gold.PLP.Fitness>
46.6319

> <Gold.PLP.PLP>
-35.9261

> <Gold.PLP.part.hbond>
-4.0000

> <Gold.PLP.part.metal>
0.0000

> <Gold.PLP.part.buried>
5.0566

> <Gold.PLP.part.nonpolar>
-37.3165

> <Gold.PLP.part.repulsive>
0.4126

> <Gold.PLP.ligand.clash>
0.0000

> <Gold.PLP.ligand.torsion>
0.8491

> <Gold.PLP.Chemscore.Hbond>
4.0000

> <Gold.PLP.Chemscore.CHOScore>
0.0000

> <Gold.PLP.Chemscore.Metal>
0.0000

> <Gold.Chemscore.Hbonds>
donor molecule, donor type, donor heavy atom, donor atom, acceptor molecule, acceptor atom, score
      L1  H     1    27       P1  7957  1.00
      L1  H     5    52       P1 10175  2.00
      L1  H     9    35       P1  7948  1.00

> <Gold.PLP.Chemscore.Internal.Correction>
0.4039

> <Gold.Rescore>
     Score         DG    S(hbond)    S(metal)    S(lipo)     H(rot)  DE(clash)    DE(int)     intcor
     14.79     -20.17       2.90        0.00      91.34       2.22       2.37       3.01       ----

> <Gold.Chemscore.Fitness>
14.7874

> <Gold.Chemscore.DG>
-20.1695

> <Gold.Chemscore.ZeroCoef>
-5.4800

> <Gold.Chemscore.Hbond>
2.9005

> <Gold.Chemscore.Metal>
0.0000

> <Gold.Chemscore.Lipo>
91.3407

> <Gold.Chemscore.Internal_Hbond>
0.0000

> <Gold.Chemscore.DEClash>
2.3720

> <Gold.Chemscore.DEInternal>
3.0102

> <Gold.Chemscore.Rot>
2.2207

> <Gold.Chemscore.Internal.Correction>
   9.000000E+99

> <Gold.Chemscore.Hbonds>
donor molecule, donor type, donor heavy atom, donor atom, acceptor molecule, acceptor atom, score
      L1  H     1    27       P1  7957  0.91
      L1  H     5    52       P1 10175  0.97
      L1  H     9    35       P1  7948  0.97

> <Gold.Chemscore.Hbond.Weighted>
-9.6875

> <Gold.Chemscore.Metal.Weighted>
-0.0000

> <Gold.Chemscore.Lipo.Weighted>
-10.6869

> <Gold.Chemscore.Internal_Hbond.Weighted>
0.0000

> <Gold.Chemscore.DEClash.Weighted>
2.3720

> <Gold.Chemscore.DEInternal.Weighted>
3.0102

> <Gold.Chemscore.Rot.Weighted>
5.6849

> <Gold.Chemscore.Internal.Correction.Weighted>
   9.000000E+99

> <Gold.Protein.RotatedTorsions>
[ 6907 6896 6895 6894 ] final -107.61 input  -60.11 | X-H torsion
[ 7974 7965 7964 7962 ] final   20.48 input  175.53 | X-H torsion
[ 8008 7997 7996 7995 ] final   52.73 input   59.86 | X-H torsion
[ 10167 10162 10161 10158 ] final  153.31 input  -65.29 | X-H torsion
[ 10718 10713 10712 10709 ] final   89.31 input   66.30 | X-H torsion
[ 10763 10752 10751 10750 ] final   51.17 input  -60.55 | X-H torsion
[ 11005 11000 10999 10996 ] final  -13.09 input  -57.11 | X-H torsion

> <Gold.Protein.ActiveResidues>
 VAL166  LYS551  ARG553  GLY616  TRP617  ASP618  TYR619  PRO620  LYS621  CYS622 
 ASP623  PHE694  ASN695  SER759  ASP760  ASP761  ALA762  ILE779  LEU786  VAL792 
 PHE793  MET794  SER795  GLU796  ALA797  LYS798  CYS799  TRP800  GLU811  SER814 

> <Gold.Protein.RotatedAtoms>
  150.7454  133.9801  159.3573 H   0  0  0  0  0  0  0  0  0  0  0  0  # atno 6907 bound_to 6896
  151.7742  135.0776  160.0373 H   0  0  0  0  0  0  0  0  0  0  0  0  # atno 6908 bound_to 6896
  152.3318  133.5930  159.5851 H   0  0  0  0  0  0  0  0  0  0  0  0  # atno 6909 bound_to 6896
  146.2109  139.8163  142.8689 H   0  0  0  0  0  0  0  0  0  0  0  0  # atno 7974 bound_to 7965
  155.4566  140.3460  155.4307 H   0  0  0  0  0  0  0  0  0  0  0  0  # atno 8008 bound_to 7997
  156.1187  140.1481  156.9266 H   0  0  0  0  0  0  0  0  0  0  0  0  # atno 8009 bound_to 7997
  154.4807  140.0870  156.7350 H   0  0  0  0  0  0  0  0  0  0  0  0  # atno 8010 bound_to 7997
  139.4828  144.5284  151.7763 H   0  0  0  0  0  0  0  0  0  0  0  0  # atno 10167 bound_to 10162
  157.6954  131.0328  150.3406 H   0  0  0  0  0  0  0  0  0  0  0  0  # atno 10718 bound_to 10713
  152.9785  135.5854  154.4372 H   0  0  0  0  0  0  0  0  0  0  0  0  # atno 10763 bound_to 10752
  154.3978  135.2768  155.2117 H   0  0  0  0  0  0  0  0  0  0  0  0  # atno 10764 bound_to 10752
  154.3961  135.6114  153.5925 H   0  0  0  0  0  0  0  0  0  0  0  0  # atno 10765 bound_to 10752
  140.7725  133.8427  155.9219 H   0  0  0  0  0  0  0  0  0  0  0  0  # atno 11005 bound_to 11000
  145.3143  141.0228  143.3536 LP  0  0  0  0  0  0  0  0  0  0  0  0  # atno 17320 bound_to 7965
  144.8913  139.4771  143.6676 LP  0  0  0  0  0  0  0  0  0  0  0  0  # atno 17321 bound_to 7965
  140.4807  144.1454  150.5932 LP  0  0  0  0  0  0  0  0  0  0  0  0  # atno 17342 bound_to 10162
  140.4281  143.2581  151.9631 LP  0  0  0  0  0  0  0  0  0  0  0  0  # atno 17343 bound_to 10162
  156.3867  130.3890  149.7060 LP  0  0  0  0  0  0  0  0  0  0  0  0  # atno 17370 bound_to 10713
  156.4424  130.7867  151.2888 LP  0  0  0  0  0  0  0  0  0  0  0  0  # atno 17371 bound_to 10713
  140.9560  134.1717  157.4691 LP  0  0  0  0  0  0  0  0  0  0  0  0  # atno 17394 bound_to 11000
  139.8754  134.9927  156.5610 LP  0  0  0  0  0  0  0  0  0  0  0  0  # atno 17395 bound_to 11000

$$$$
