AV-unprocessed.smi:48|AV-procd|sdf|454|dock3
  -GOLD-   2262016323D 1   1.00000     0.00000
 Structure written by MMmdl.
 30 32  0  0  0  0  0  0  0  0  1 V2000
  145.2041  138.6702  153.1207 O   0  0  0  0  0  0  0  0  0  0  0  0
  146.5945  138.7209  152.8825 C   0  0  0  0  0  0  0  0  0  0  0  0
  147.1338  140.1285  153.1925 C   0  0  2  0  0  0  0  0  0  0  0  0
  148.4142  140.0606  153.8027 O   0  0  0  0  0  0  0  0  0  0  0  0
  148.6778  141.2716  154.4364 C   0  0  2  0  0  0  0  0  0  0  0  0
  149.4639  140.9883  155.6742 N   0  0  0  0  0  0  0  0  0  0  0  0
  149.1475  141.3359  156.9380 C   0  0  0  0  0  0  0  0  0  0  0  0
  149.9917  140.9757  157.9039 N   0  0  0  0  0  0  0  0  0  0  0  0
  150.9736  140.3185  157.1810 C   0  0  0  0  0  0  0  0  0  0  0  0
  152.1771  139.6768  157.5619 C   0  0  0  0  0  0  0  0  0  0  0  0
  152.6636  139.6109  159.2162 Cl  0  0  0  0  0  0  0  0  0  0  0  0
  152.9417  139.1130  156.5965 N   0  0  0  0  0  0  0  0  0  0  0  0
  152.5405  139.1792  155.3211 C   0  0  0  0  0  0  0  0  0  0  0  0
  151.4398  139.7463  154.8151 N   0  0  0  0  0  0  0  0  0  0  0  0
  150.6690  140.3134  155.7897 C   0  0  0  0  0  0  0  0  0  0  0  0
  147.3294  141.9291  154.7786 C   0  0  1  0  0  0  0  0  0  0  0  0
  147.2007  143.1818  154.1372 O   0  0  0  0  0  0  0  0  0  0  0  0
  146.3109  140.9518  154.1956 C   0  0  2  0  0  0  0  0  0  0  0  0
  145.7667  140.1389  155.2185 O   0  0  0  0  0  0  0  0  0  0  0  0
  147.2228  140.7088  152.2718 H   0  0  0  0  0  0  0  0  0  0  0  0
  149.3287  141.8942  153.8200 H   0  0  0  0  0  0  0  0  0  0  0  0
  147.2127  142.0646  155.8555 H   0  0  0  0  0  0  0  0  0  0  0  0
  145.4782  141.4565  153.7035 H   0  0  0  0  0  0  0  0  0  0  0  0
  144.8407  139.5283  152.9643 H   0  0  0  0  0  0  0  0  0  0  0  0
  147.0624  137.9858  153.5378 H   0  0  0  0  0  0  0  0  0  0  0  0
  146.8133  138.4294  151.8545 H   0  0  0  0  0  0  0  0  0  0  0  0
  148.2430  141.8820  157.1628 H   0  0  0  0  0  0  0  0  0  0  0  0
  153.1955  138.7108  154.6014 H   0  0  0  0  0  0  0  0  0  0  0  0
  147.6261  143.8358  154.6705 H   0  0  0  0  0  0  0  0  0  0  0  0
  144.8241  140.1791  155.1658 H   0  0  0  0  0  0  0  0  0  0  0  0
  1  2  1  0  0  0  0
  1 24  1  0  0  0  0
  2  3  1  0  0  0  0
  2 25  1  0  0  0  0
  2 26  1  0  0  0  0
  3 20  1  0  0  0  0
  3 18  1  0  0  0  0
  3  4  1  0  0  0  0
  4  5  1  0  0  0  0
  5 21  1  0  0  0  0
  5  6  1  0  0  0  0
  5 16  1  0  0  0  0
  6 15  1  0  0  0  0
  6  7  1  0  0  0  0
  7  8  2  0  0  0  0
  7 27  1  0  0  0  0
  8  9  1  0  0  0  0
  9 15  2  0  0  0  0
  9 10  1  0  0  0  0
 10 11  1  0  0  0  0
 10 12  2  0  0  0  0
 12 13  1  0  0  0  0
 13 14  2  0  0  0  0
 13 28  1  0  0  0  0
 14 15  1  0  0  0  0
 16 22  1  0  0  0  0
 16 17  1  0  0  0  0
 16 18  1  0  0  0  0
 17 29  1  0  0  0  0
 18 23  1  0  0  0  0
 18 19  1  0  0  0  0
 19 30  1  0  0  0  0
M  END
> <s_m_source_file>
AV-unprocessed.smi

> <i_m_source_file_index>
48

> <i_lp_mmshare_version>
43012

> <i_f3d_flags>
0

> <s_epik_input>
W09IXVtDSDJdW0NASF0xT1tDQEhdKFtDQEhdKFtPSF0pW0NAQEhdMVtPSF0pbihbY0hdbjIpYyhjMjMpbltjSF1uYzNDbA==

> <s_epik_cmdline>
J2VwaWtfcHl0aG9uJywgJy1waCcsICc3LjAnLCAnLXRuJywgJzgnLCAnLW1hJywgJzIwMCcsICctbWV0YWxfYmluZGluZycsICctaW1hZScsICc8aW5maWxlLm1hZT4nLCAnLW9tYWUnLCAnPG91dGZpbGUubWFlPic=

> <r_lp_tautomer_probability>
1

> <r_epik_Ionization_Penalty>
3.45505e-06

> <r_epik_Ionization_Penalty_Charging>
0

> <r_epik_Ionization_Penalty_Neutral>
3.45505e-06

> <r_epik_State_Penalty>
-0

> <r_epik_Charging_Adjusted_Penalty>
0

> <i_epik_Tot_Q>
0

> <i_epik_Tot_abs_Q>
0

> <r_epik_Metal_State_Penalty>
-0

> <b_epik_Metal_Only>
0

> <s_epik_Chemistry_Notes>
This compound contains an acetal/aminal-like group ( X-CH(R)-Y where X, Y are N, S, or O) that may be acid/base labile, releasing an aldehyde.

> <s_lp_Force_Field>
OPLS_2005

> <r_lp_Energy>
33.2989

> <b_lp_Chiralities_Consistent>
1

> <s_lp_Variant>
AV-unprocessed.smi:48-8

> <Gold.Version>
5.8.1

> <Gold.Id.Protein>
6NUR|6NUR_protein|mol2

> <Gold.PLP.Fitness>
40.5127

> <Gold.PLP.PLP>
-29.6183

> <Gold.PLP.part.hbond>
-4.7463

> <Gold.PLP.part.metal>
0.0000

> <Gold.PLP.part.buried>
-2.5807

> <Gold.PLP.part.nonpolar>
-23.7141

> <Gold.PLP.part.repulsive>
1.7143

> <Gold.PLP.ligand.clash>
0.0000

> <Gold.PLP.ligand.torsion>
0.5436

> <Gold.PLP.Chemscore.Hbond>
3.9920

> <Gold.PLP.Chemscore.CHOScore>
0.0000

> <Gold.PLP.Chemscore.Metal>
0.0000

> <Gold.Chemscore.Hbonds>
donor molecule, donor type, donor heavy atom, donor atom, acceptor molecule, acceptor atom, score
      L1  H     1    24       P1 10175  1.00
      L1  H    17    29       P1  8028  0.75
      P1  H  7989  7998       L1    14  1.00
      P1  H  7997  8008       L1    12  1.00

> <Gold.PLP.Chemscore.Internal.Correction>
0.0056

> <Gold.Rescore>
     Score         DG    S(hbond)    S(metal)    S(lipo)     H(rot)  DE(clash)    DE(int)     intcor
      6.80      -7.53       2.14        0.00      39.58       3.80       0.29       0.45       ----

> <Gold.Chemscore.Fitness>
6.7954

> <Gold.Chemscore.DG>
-7.5305

> <Gold.Chemscore.ZeroCoef>
-5.4800

> <Gold.Chemscore.Hbond>
2.1413

> <Gold.Chemscore.Metal>
0.0000

> <Gold.Chemscore.Lipo>
39.5805

> <Gold.Chemscore.Internal_Hbond>
0.0000

> <Gold.Chemscore.DEClash>
0.2872

> <Gold.Chemscore.DEInternal>
0.4479

> <Gold.Chemscore.Rot>
3.8017

> <Gold.Chemscore.Internal.Correction>
   9.000000E+99

> <Gold.Chemscore.Hbonds>
donor molecule, donor type, donor heavy atom, donor atom, acceptor molecule, acceptor atom, score
      L1  H     1    24       P1 10175  0.93
      L1  H    17    29       P1  8028  0.09
      P1  H  7989  7998       L1    14  0.70
      P1  H  7997  8008       L1    12  0.13

> <Gold.Chemscore.Hbond.Weighted>
-7.1520

> <Gold.Chemscore.Metal.Weighted>
-0.0000

> <Gold.Chemscore.Lipo.Weighted>
-4.6309

> <Gold.Chemscore.Internal_Hbond.Weighted>
0.0000

> <Gold.Chemscore.DEClash.Weighted>
0.2872

> <Gold.Chemscore.DEInternal.Weighted>
0.4479

> <Gold.Chemscore.Rot.Weighted>
9.7324

> <Gold.Chemscore.Internal.Correction.Weighted>
   9.000000E+99

> <Gold.Protein.RotatedTorsions>
[ 6907 6896 6895 6894 ] final  142.08 input  -60.11 | X-H torsion
[ 7974 7965 7964 7962 ] final  -87.59 input  175.53 | X-H torsion
[ 8008 7997 7996 7995 ] final  -53.54 input   59.86 | X-H torsion
[ 10167 10162 10161 10158 ] final  -14.89 input  -65.29 | X-H torsion
[ 10718 10713 10712 10709 ] final  -87.60 input   66.30 | X-H torsion
[ 10763 10752 10751 10750 ] final   43.56 input  -60.55 | X-H torsion
[ 11005 11000 10999 10996 ] final   75.21 input  -57.11 | X-H torsion

> <Gold.Protein.ActiveResidues>
 VAL166  LYS551  ARG553  GLY616  TRP617  ASP618  TYR619  PRO620  LYS621  CYS622 
 ASP623  PHE694  ASN695  SER759  ASP760  ASP761  ALA762  ILE779  LEU786  VAL792 
 PHE793  MET794  SER795  GLU796  ALA797  LYS798  CYS799  TRP800  GLU811  SER814 

> <Gold.Protein.RotatedAtoms>
  152.2231  133.4999  159.5173 H   0  0  0  0  0  0  0  0  0  0  0  0  # atno 6907 bound_to 6896
  150.7018  134.1315  159.4080 H   0  0  0  0  0  0  0  0  0  0  0  0  # atno 6908 bound_to 6896
  151.9236  135.0287  160.0574 H   0  0  0  0  0  0  0  0  0  0  0  0  # atno 6909 bound_to 6896
  145.4645  140.9560  143.1951 H   0  0  0  0  0  0  0  0  0  0  0  0  # atno 7974 bound_to 7965
  154.4136  140.1197  156.5171 H   0  0  0  0  0  0  0  0  0  0  0  0  # atno 8008 bound_to 7997
  155.6741  140.3496  155.4810 H   0  0  0  0  0  0  0  0  0  0  0  0  # atno 8009 bound_to 7997
  155.9608  140.1122  157.0887 H   0  0  0  0  0  0  0  0  0  0  0  0  # atno 8010 bound_to 7997
  140.7209  143.5275  150.9560 H   0  0  0  0  0  0  0  0  0  0  0  0  # atno 10167 bound_to 10162
  155.9985  130.4806  150.4892 H   0  0  0  0  0  0  0  0  0  0  0  0  # atno 10718 bound_to 10713
  152.9858  135.6097  154.3131 H   0  0  0  0  0  0  0  0  0  0  0  0  # atno 10763 bound_to 10752
  154.2845  135.2776  155.2684 H   0  0  0  0  0  0  0  0  0  0  0  0  # atno 10764 bound_to 10752
  154.5007  135.5867  153.6586 H   0  0  0  0  0  0  0  0  0  0  0  0  # atno 10765 bound_to 10752
  139.9354  134.7498  156.1243 H   0  0  0  0  0  0  0  0  0  0  0  0  # atno 11005 bound_to 11000
  144.7983  139.6191  143.7083 LP  0  0  0  0  0  0  0  0  0  0  0  0  # atno 17320 bound_to 7965
  146.2432  139.6044  142.9477 LP  0  0  0  0  0  0  0  0  0  0  0  0  # atno 17321 bound_to 7965
  139.8994  143.6855  152.3133 LP  0  0  0  0  0  0  0  0  0  0  0  0  # atno 17342 bound_to 10162
  139.7199  144.7604  151.0973 LP  0  0  0  0  0  0  0  0  0  0  0  0  # atno 17343 bound_to 10162
  157.2889  131.0622  151.2147 LP  0  0  0  0  0  0  0  0  0  0  0  0  # atno 17370 bound_to 10713
  157.3167  130.6916  149.6246 LP  0  0  0  0  0  0  0  0  0  0  0  0  # atno 17371 bound_to 10713
  141.0965  133.6693  156.2657 LP  0  0  0  0  0  0  0  0  0  0  0  0  # atno 17394 bound_to 11000
  140.6089  134.5478  157.5530 LP  0  0  0  0  0  0  0  0  0  0  0  0  # atno 17395 bound_to 11000

$$$$
