AV-unprocessed.smi:1324|AV-procd|sdf|5470|dock8
  -GOLD-   22720 5 43D 1   1.00000     0.00000
 Structure written by MMmdl.
 43 44  0  0  0  0  0  0  0  0  1 V2000
  146.7513  138.7929  152.3870 C   0  0  0  0  0  0  0  0  0  0  0  0
  147.9148  139.2373  153.2467 C   0  0  0  0  0  0  0  0  0  0  0  0
  148.8293  138.2306  153.5089 N   0  0  0  0  0  0  0  0  0  0  0  0
  149.9340  138.5445  154.2805 C   0  0  0  0  0  0  0  0  0  0  0  0
  150.8888  137.3873  154.5159 C   0  0  0  0  0  0  0  0  0  0  0  0
  150.1142  139.7963  154.7732 C   0  0  0  0  0  0  0  0  0  0  0  0
  151.3187  140.1852  155.6305 C   0  0  0  0  0  0  0  0  0  0  0  0
  151.0118  140.8708  156.9649 C   0  0  0  0  0  0  0  0  0  0  0  0
  150.0284  140.5430  157.6296 O   0  0  0  0  0  0  0  0  0  0  0  0
  151.8712  141.8301  157.3420 N   0  0  0  0  0  0  0  0  0  0  0  0
  151.7818  142.6181  158.5696 C   0  0  0  0  0  0  0  0  0  0  0  0
  151.7653  144.1210  158.2052 C   0  0  0  0  0  0  0  0  0  0  0  0
  152.0707  145.1225  159.3335 C   0  0  0  0  0  0  0  0  0  0  0  0
  151.5351  144.7475  160.7238 C   0  0  0  0  0  0  0  0  0  0  0  0
  152.5006  143.8390  161.5026 C   0  0  0  0  0  0  0  0  0  0  0  0
  152.5500  142.3848  161.0128 C   0  0  0  0  0  0  0  0  0  0  0  0
  152.9163  142.2020  159.5284 C   0  0  0  0  0  0  0  0  0  0  0  0
  149.0927  140.8271  154.4726 C   0  0  0  0  0  0  0  0  0  0  0  0
  149.1873  141.9736  154.9089 O   0  0  0  0  0  0  0  0  0  0  0  0
  147.9971  140.4607  153.6738 N   0  0  0  0  0  0  0  0  0  0  0  0
  148.7333  137.2863  153.1638 H   0  0  0  0  0  0  0  0  0  0  0  0
  146.1607  139.6488  152.0577 H   0  0  0  0  0  0  0  0  0  0  0  0
  146.0994  138.1241  152.9498 H   0  0  0  0  0  0  0  0  0  0  0  0
  147.1085  138.2667  151.5011 H   0  0  0  0  0  0  0  0  0  0  0  0
  151.8658  137.6059  154.0846 H   0  0  0  0  0  0  0  0  0  0  0  0
  150.5224  136.4649  154.0634 H   0  0  0  0  0  0  0  0  0  0  0  0
  151.0138  137.2085  155.5842 H   0  0  0  0  0  0  0  0  0  0  0  0
  151.9988  140.8189  155.0602 H   0  0  0  0  0  0  0  0  0  0  0  0
  151.8951  139.2858  155.8474 H   0  0  0  0  0  0  0  0  0  0  0  0
  152.6487  142.0326  156.7305 H   0  0  0  0  0  0  0  0  0  0  0  0
  150.8352  142.3684  159.0527 H   0  0  0  0  0  0  0  0  0  0  0  0
  152.4711  144.3113  157.3953 H   0  0  0  0  0  0  0  0  0  0  0  0
  150.7832  144.3559  157.7929 H   0  0  0  0  0  0  0  0  0  0  0  0
  153.1479  145.2831  159.3935 H   0  0  0  0  0  0  0  0  0  0  0  0
  151.6557  146.0881  159.0429 H   0  0  0  0  0  0  0  0  0  0  0  0
  151.4158  145.6678  161.2964 H   0  0  0  0  0  0  0  0  0  0  0  0
  150.5398  144.3062  160.6579 H   0  0  0  0  0  0  0  0  0  0  0  0
  153.5038  144.2666  161.4873 H   0  0  0  0  0  0  0  0  0  0  0  0
  152.2013  143.8327  162.5511 H   0  0  0  0  0  0  0  0  0  0  0  0
  153.2824  141.8501  161.6183 H   0  0  0  0  0  0  0  0  0  0  0  0
  151.5950  141.8990  161.2160 H   0  0  0  0  0  0  0  0  0  0  0  0
  153.1286  141.1413  159.3854 H   0  0  0  0  0  0  0  0  0  0  0  0
  153.8428  142.7240  159.2866 H   0  0  0  0  0  0  0  0  0  0  0  0
  1 22  1  0  0  0  0
  1 23  1  0  0  0  0
  1 24  1  0  0  0  0
  1  2  1  0  0  0  0
  2  3  1  0  0  0  0
  2 20  2  0  0  0  0
  3  4  1  0  0  0  0
  3 21  1  0  0  0  0
  4  6  2  0  0  0  0
  4  5  1  0  0  0  0
  5 25  1  0  0  0  0
  5 26  1  0  0  0  0
  5 27  1  0  0  0  0
  6 18  1  0  0  0  0
  6  7  1  0  0  0  0
  7  8  1  0  0  0  0
  7 28  1  0  0  0  0
  7 29  1  0  0  0  0
  8  9  2  0  0  0  0
  8 10  1  0  0  0  0
 10 11  1  0  0  0  0
 10 30  1  0  0  0  0
 11 17  1  0  0  0  0
 11 12  1  0  0  0  0
 11 31  1  0  0  0  0
 12 13  1  0  0  0  0
 12 32  1  0  0  0  0
 12 33  1  0  0  0  0
 13 14  1  0  0  0  0
 13 34  1  0  0  0  0
 13 35  1  0  0  0  0
 14 15  1  0  0  0  0
 14 36  1  0  0  0  0
 14 37  1  0  0  0  0
 15 16  1  0  0  0  0
 15 38  1  0  0  0  0
 15 39  1  0  0  0  0
 16 17  1  0  0  0  0
 16 40  1  0  0  0  0
 16 41  1  0  0  0  0
 17 42  1  0  0  0  0
 17 43  1  0  0  0  0
 18 19  2  0  0  0  0
 18 20  1  0  0  0  0
M  END
> <s_m_source_file>
AV-unprocessed.smi

> <i_m_source_file_index>
1324

> <i_lp_mmshare_version>
43012

> <i_f3d_flags>
0

> <s_epik_input>
W0NIM11jMW5jKFtDSDNdKWMoYyg9TylbbkhdMSlbQ0gyXUMoPU8pW05IXVtDSF0yW0NIMl1bQ0gyXVtDSDJdW0NIMl1bQ0gyXVtDSDJdMg==

> <s_epik_cmdline>
J2VwaWtfcHl0aG9uJywgJy1waCcsICc3LjAnLCAnLXRuJywgJzgnLCAnLW1hJywgJzIwMCcsICctbWV0YWxfYmluZGluZycsICctaW1hZScsICc8aW5maWxlLm1hZT4nLCAnLW9tYWUnLCAnPG91dGZpbGUubWFlPic=

> <r_lp_tautomer_probability>
0.156392

> <r_epik_Ionization_Penalty>
0.0140222

> <r_epik_Ionization_Penalty_Charging>
0.0138986

> <r_epik_Ionization_Penalty_Neutral>
0.000123575

> <r_epik_State_Penalty>
1.53084

> <r_epik_Charging_Adjusted_Penalty>
1.54474

> <i_epik_Tot_Q>
0

> <i_epik_Tot_abs_Q>
0

> <r_epik_Metal_State_Penalty>
1.70646

> <b_epik_Metal_Only>
0

> <s_lp_Force_Field>
OPLS_2005

> <r_lp_Energy>
20.3035

> <b_lp_Chiralities_Consistent>
1

> <s_lp_Variant>
AV-unprocessed.smi:1324-2

> <Gold.Version>
5.8.1

> <Gold.Id.Protein>
6NUR|6NUR_protein|mol2

> <Gold.PLP.Fitness>
46.8512

> <Gold.PLP.PLP>
-44.7430

> <Gold.PLP.part.hbond>
-2.6477

> <Gold.PLP.part.metal>
0.0000

> <Gold.PLP.part.buried>
1.9351

> <Gold.PLP.part.nonpolar>
-46.3787

> <Gold.PLP.part.repulsive>
3.9249

> <Gold.PLP.ligand.clash>
0.0000

> <Gold.PLP.ligand.torsion>
0.4554

> <Gold.PLP.Chemscore.Hbond>
1.0000

> <Gold.PLP.Chemscore.CHOScore>
0.0000

> <Gold.PLP.Chemscore.Metal>
0.0000

> <Gold.Chemscore.Hbonds>
donor molecule, donor type, donor heavy atom, donor atom, acceptor molecule, acceptor atom, score
      L1  H     3    21       P1  7948  0.91

> <Gold.PLP.Chemscore.Internal.Correction>
0.0191

> <Gold.Rescore>
     Score         DG    S(hbond)    S(metal)    S(lipo)     H(rot)  DE(clash)    DE(int)     intcor
     14.44     -18.27       0.85        0.00     117.46       1.48       2.27       1.55       ----

> <Gold.Chemscore.Fitness>
14.4438

> <Gold.Chemscore.DG>
-18.2684

> <Gold.Chemscore.ZeroCoef>
-5.4800

> <Gold.Chemscore.Hbond>
0.8486

> <Gold.Chemscore.Metal>
0.0000

> <Gold.Chemscore.Lipo>
117.4637

> <Gold.Chemscore.Internal_Hbond>
0.0000

> <Gold.Chemscore.DEClash>
2.2723

> <Gold.Chemscore.DEInternal>
1.5523

> <Gold.Chemscore.Rot>
1.4801

> <Gold.Chemscore.Internal.Correction>
   9.000000E+99

> <Gold.Chemscore.Hbonds>
donor molecule, donor type, donor heavy atom, donor atom, acceptor molecule, acceptor atom, score
      L1  H     3    21       P1  7948  0.88

> <Gold.Chemscore.Hbond.Weighted>
-2.8343

> <Gold.Chemscore.Metal.Weighted>
-0.0000

> <Gold.Chemscore.Lipo.Weighted>
-13.7433

> <Gold.Chemscore.Internal_Hbond.Weighted>
0.0000

> <Gold.Chemscore.DEClash.Weighted>
2.2723

> <Gold.Chemscore.DEInternal.Weighted>
1.5523

> <Gold.Chemscore.Rot.Weighted>
3.7891

> <Gold.Chemscore.Internal.Correction.Weighted>
   9.000000E+99

> <Gold.Protein.RotatedTorsions>
[ 6907 6896 6895 6894 ] final   13.87 input  -60.11 | X-H torsion
[ 7974 7965 7964 7962 ] final   97.98 input  175.53 | X-H torsion
[ 8008 7997 7996 7995 ] final  -20.35 input   59.86 | X-H torsion
[ 10167 10162 10161 10158 ] final   89.19 input  -65.29 | X-H torsion
[ 10718 10713 10712 10709 ] final  135.49 input   66.30 | X-H torsion
[ 10763 10752 10751 10750 ] final  -27.06 input  -60.55 | X-H torsion
[ 11005 11000 10999 10996 ] final  -52.18 input  -57.11 | X-H torsion

> <Gold.Protein.ActiveResidues>
 VAL166  LYS551  ARG553  GLY616  TRP617  ASP618  TYR619  PRO620  LYS621  CYS622 
 ASP623  PHE694  ASN695  SER759  ASP760  ASP761  ALA762  ILE779  LEU786  VAL792 
 PHE793  MET794  SER795  GLU796  ALA797  LYS798  CYS799  TRP800  GLU811  SER814 

> <Gold.Protein.RotatedAtoms>
  151.7931  135.0730  160.0389 H   0  0  0  0  0  0  0  0  0  0  0  0  # atno 6907 bound_to 6896
  152.3142  133.5780  159.5709 H   0  0  0  0  0  0  0  0  0  0  0  0  # atno 6908 bound_to 6896
  150.7335  134.0023  159.3684 H   0  0  0  0  0  0  0  0  0  0  0  0  # atno 6909 bound_to 6896
  145.4182  139.2325  143.3211 H   0  0  0  0  0  0  0  0  0  0  0  0  # atno 7974 bound_to 7965
  154.4775  140.2064  155.9842 H   0  0  0  0  0  0  0  0  0  0  0  0  # atno 8008 bound_to 7997
  156.1113  140.3228  155.8046 H   0  0  0  0  0  0  0  0  0  0  0  0  # atno 8009 bound_to 7997
  155.4630  140.0525  157.2979 H   0  0  0  0  0  0  0  0  0  0  0  0  # atno 8010 bound_to 7997
  139.8598  144.6550  150.9072 H   0  0  0  0  0  0  0  0  0  0  0  0  # atno 10167 bound_to 10162
  157.4565  131.1070  150.9971 H   0  0  0  0  0  0  0  0  0  0  0  0  # atno 10718 bound_to 10713
  153.7260  135.6942  153.5001 H   0  0  0  0  0  0  0  0  0  0  0  0  # atno 10763 bound_to 10752
  153.2170  135.4383  155.0444 H   0  0  0  0  0  0  0  0  0  0  0  0  # atno 10764 bound_to 10752
  154.8269  135.3451  154.6792 H   0  0  0  0  0  0  0  0  0  0  0  0  # atno 10765 bound_to 10752
  141.0911  133.6632  156.3986 H   0  0  0  0  0  0  0  0  0  0  0  0  # atno 11005 bound_to 11000
  146.2670  140.4903  142.8830 LP  0  0  0  0  0  0  0  0  0  0  0  0  # atno 17320 bound_to 7965
  144.8263  140.6633  143.6320 LP  0  0  0  0  0  0  0  0  0  0  0  0  # atno 17321 bound_to 7965
  140.7776  143.3754  151.1572 LP  0  0  0  0  0  0  0  0  0  0  0  0  # atno 17342 bound_to 10162
  139.7385  143.8962  152.3042 LP  0  0  0  0  0  0  0  0  0  0  0  0  # atno 17343 bound_to 10162
  157.0782  130.5892  149.5415 LP  0  0  0  0  0  0  0  0  0  0  0  0  # atno 17370 bound_to 10713
  156.0010  130.5089  150.7661 LP  0  0  0  0  0  0  0  0  0  0  0  0  # atno 17371 bound_to 10713
  140.5251  134.6267  157.5331 LP  0  0  0  0  0  0  0  0  0  0  0  0  # atno 17394 bound_to 11000
  139.9737  134.7251  155.9992 LP  0  0  0  0  0  0  0  0  0  0  0  0  # atno 17395 bound_to 11000

$$$$
