AV-unprocessed.smi:2884|AV-procd|sdf|11083|dock5
  -GOLD-   2272015553D 1   1.00000     0.00000
 Structure written by MMmdl.
 42 43  0  0  0  0  0  0  0  0  1 V2000
  155.0143  140.2455  162.2651 C   0  0  0  0  0  0  0  0  0  0  0  0
  154.0872  140.2404  161.0425 C   0  0  0  0  0  0  0  0  0  0  0  0
  154.4186  141.3538  160.0418 C   0  0  0  0  0  0  0  0  0  0  0  0
  153.3237  141.4873  159.1427 O   0  0  0  0  0  0  0  0  0  0  0  0
  152.4102  142.5799  159.3004 C   0  0  0  0  0  0  0  0  0  0  0  0
  151.0768  141.9778  158.7917 C   0  0  0  0  0  0  0  0  0  0  0  0
  151.2893  140.9267  157.8040 N   0  0  0  0  0  0  0  0  0  0  0  0
  150.8425  140.8287  156.4920 C   0  0  0  0  0  0  0  0  0  0  0  0
  150.0246  141.8499  155.8458 C   0  0  0  0  0  0  0  0  0  0  0  0
  149.6091  141.7466  154.6298 N   0  0  0  0  0  0  0  0  0  0  0  0
  149.9562  140.6283  153.9124 N   0  0  0  0  0  0  0  0  0  0  0  0
  150.7116  139.5930  154.3483 C   0  0  0  0  0  0  0  0  0  0  0  0
  150.9705  138.6363  153.6209 O   0  0  0  0  0  0  0  0  0  0  0  0
  151.1652  139.7409  155.7381 C   0  0  0  0  0  0  0  0  0  0  0  0
  152.1278  138.4642  156.4052 Cl  0  0  0  0  0  0  0  0  0  0  0  0
  152.2983  143.0881  160.7670 C   0  0  0  0  0  0  0  0  0  0  0  0
  151.3846  144.3200  160.8954 C   0  0  0  0  0  0  0  0  0  0  0  0
  151.8539  145.4557  159.9731 C   0  0  0  0  0  0  0  0  0  0  0  0
  151.9565  144.9876  158.5132 C   0  0  0  0  0  0  0  0  0  0  0  0
  152.8583  143.7458  158.3821 C   0  0  0  0  0  0  0  0  0  0  0  0
  149.5963  140.6131  152.9691 H   0  0  0  0  0  0  0  0  0  0  0  0
  154.7621  139.4332  162.9469 H   0  0  0  0  0  0  0  0  0  0  0  0
  154.9340  141.1809  162.8202 H   0  0  0  0  0  0  0  0  0  0  0  0
  156.0566  140.1205  161.9697 H   0  0  0  0  0  0  0  0  0  0  0  0
  154.1662  139.2748  160.5421 H   0  0  0  0  0  0  0  0  0  0  0  0
  153.0499  140.3344  161.3662 H   0  0  0  0  0  0  0  0  0  0  0  0
  154.5938  142.2816  160.5868 H   0  0  0  0  0  0  0  0  0  0  0  0
  155.3349  141.1016  159.5097 H   0  0  0  0  0  0  0  0  0  0  0  0
  150.4657  141.6220  159.6169 H   0  0  0  0  0  0  0  0  0  0  0  0
  150.4893  142.7586  158.3077 H   0  0  0  0  0  0  0  0  0  0  0  0
  151.6920  140.0852  158.1926 H   0  0  0  0  0  0  0  0  0  0  0  0
  149.7756  142.7232  156.4455 H   0  0  0  0  0  0  0  0  0  0  0  0
  151.9530  142.2941  161.4292 H   0  0  0  0  0  0  0  0  0  0  0  0
  153.2783  143.3855  161.1394 H   0  0  0  0  0  0  0  0  0  0  0  0
  150.3546  144.0555  160.6601 H   0  0  0  0  0  0  0  0  0  0  0  0
  151.3785  144.6659  161.9293 H   0  0  0  0  0  0  0  0  0  0  0  0
  151.1697  146.3014  160.0460 H   0  0  0  0  0  0  0  0  0  0  0  0
  152.8271  145.8170  160.3078 H   0  0  0  0  0  0  0  0  0  0  0  0
  150.9608  144.7733  158.1247 H   0  0  0  0  0  0  0  0  0  0  0  0
  152.3523  145.7951  157.8963 H   0  0  0  0  0  0  0  0  0  0  0  0
  153.8759  144.0479  158.6267 H   0  0  0  0  0  0  0  0  0  0  0  0
  152.8853  143.4169  157.3427 H   0  0  0  0  0  0  0  0  0  0  0  0
  1  2  1  0  0  0  0
  1 22  1  0  0  0  0
  1 23  1  0  0  0  0
  1 24  1  0  0  0  0
  2  3  1  0  0  0  0
  2 25  1  0  0  0  0
  2 26  1  0  0  0  0
  3  4  1  0  0  0  0
  3 27  1  0  0  0  0
  3 28  1  0  0  0  0
  4  5  1  0  0  0  0
  5 20  1  0  0  0  0
  5  6  1  0  0  0  0
  5 16  1  0  0  0  0
  6  7  1  0  0  0  0
  6 29  1  0  0  0  0
  6 30  1  0  0  0  0
  7  8  1  0  0  0  0
  7 31  1  0  0  0  0
  8 14  2  0  0  0  0
  8  9  1  0  0  0  0
  9 10  2  0  0  0  0
  9 32  1  0  0  0  0
 10 11  1  0  0  0  0
 11 21  1  0  0  0  0
 11 12  1  0  0  0  0
 12 13  2  0  0  0  0
 12 14  1  0  0  0  0
 14 15  1  0  0  0  0
 16 17  1  0  0  0  0
 16 33  1  0  0  0  0
 16 34  1  0  0  0  0
 17 18  1  0  0  0  0
 17 35  1  0  0  0  0
 17 36  1  0  0  0  0
 18 19  1  0  0  0  0
 18 37  1  0  0  0  0
 18 38  1  0  0  0  0
 19 20  1  0  0  0  0
 19 39  1  0  0  0  0
 19 40  1  0  0  0  0
 20 41  1  0  0  0  0
 20 42  1  0  0  0  0
M  END
> <s_m_source_file>
AV-unprocessed.smi

> <i_m_source_file_index>
2884

> <i_lp_mmshare_version>
43012

> <i_f3d_flags>
0

> <s_epik_input>
W0NIMl0xW0NIMl1bQ0gyXVtDSDJdW0NIMl1DMShPW0NIMl1bQ0gyXVtDSDNdKVtDSDJdW05IXWMyW2NIXW5bbkhdYyg9TyljMkNs

> <s_epik_cmdline>
J2VwaWtfcHl0aG9uJywgJy1waCcsICc3LjAnLCAnLXRuJywgJzgnLCAnLW1hJywgJzIwMCcsICctbWV0YWxfYmluZGluZycsICctaW1hZScsICc8aW5maWxlLm1hZT4nLCAnLW9tYWUnLCAnPG91dGZpbGUubWFlPic=

> <r_lp_tautomer_probability>
0.986175

> <r_epik_Ionization_Penalty>
0.00111508

> <r_epik_Ionization_Penalty_Charging>
0.00108742

> <r_epik_Ionization_Penalty_Neutral>
2.7657e-05

> <r_epik_State_Penalty>
0.00620319

> <r_epik_Charging_Adjusted_Penalty>
0.00729061

> <i_epik_Tot_Q>
0

> <i_epik_Tot_abs_Q>
0

> <r_epik_Metal_State_Penalty>
0.300009

> <b_epik_Metal_Only>
0

> <s_lp_Force_Field>
OPLS_2005

> <r_lp_Energy>
35.8934

> <b_lp_Chiralities_Consistent>
1

> <s_lp_Variant>
AV-unprocessed.smi:2884-1

> <Gold.Version>
5.8.1

> <Gold.Id.Protein>
6NUR|6NUR_protein|mol2

> <Gold.PLP.Fitness>
45.5888

> <Gold.PLP.PLP>
-42.7244

> <Gold.PLP.part.hbond>
-1.9729

> <Gold.PLP.part.metal>
0.0000

> <Gold.PLP.part.buried>
-4.1985

> <Gold.PLP.part.nonpolar>
-38.6037

> <Gold.PLP.part.repulsive>
3.0314

> <Gold.PLP.ligand.clash>
0.0387

> <Gold.PLP.ligand.torsion>
1.5614

> <Gold.PLP.Chemscore.Hbond>
1.0000

> <Gold.PLP.Chemscore.CHOScore>
1.0000

> <Gold.PLP.Chemscore.Metal>
0.0000

> <Gold.Chemscore.Hbonds>
donor molecule, donor type, donor heavy atom, donor atom, acceptor molecule, acceptor atom, score
      L1  H    11    21       P1  7957  1.00
      L1  C     9    32       P1  8028  0.93

> <Gold.PLP.Chemscore.Internal.Correction>
0.0259

> <Gold.Rescore>
     Score         DG    S(hbond)    S(metal)    S(lipo)     H(rot)  DE(clash)    DE(int)     intcor
     14.24     -18.62       0.66        0.00     132.08       1.77       2.51       1.87       ----

> <Gold.Chemscore.Fitness>
14.2364

> <Gold.Chemscore.DG>
-18.6211

> <Gold.Chemscore.ZeroCoef>
-5.4800

> <Gold.Chemscore.Hbond>
0.6616

> <Gold.Chemscore.Metal>
0.0000

> <Gold.Chemscore.Lipo>
132.0765

> <Gold.Chemscore.Internal_Hbond>
0.0000

> <Gold.Chemscore.DEClash>
2.5129

> <Gold.Chemscore.DEInternal>
1.8717

> <Gold.Chemscore.Rot>
1.7663

> <Gold.Chemscore.Internal.Correction>
   9.000000E+99

> <Gold.Chemscore.Hbonds>
donor molecule, donor type, donor heavy atom, donor atom, acceptor molecule, acceptor atom, score
      L1  H    11    21       P1  7957  0.97

> <Gold.Chemscore.Hbond.Weighted>
-2.2097

> <Gold.Chemscore.Metal.Weighted>
-0.0000

> <Gold.Chemscore.Lipo.Weighted>
-15.4530

> <Gold.Chemscore.Internal_Hbond.Weighted>
0.0000

> <Gold.Chemscore.DEClash.Weighted>
2.5129

> <Gold.Chemscore.DEInternal.Weighted>
1.8717

> <Gold.Chemscore.Rot.Weighted>
4.5216

> <Gold.Chemscore.Internal.Correction.Weighted>
   9.000000E+99

> <Gold.Protein.RotatedTorsions>
[ 6907 6896 6895 6894 ] final  157.39 input  -60.11 | X-H torsion
[ 7974 7965 7964 7962 ] final   85.54 input  175.53 | X-H torsion
[ 8008 7997 7996 7995 ] final -152.25 input   59.86 | X-H torsion
[ 10167 10162 10161 10158 ] final  147.86 input  -65.29 | X-H torsion
[ 10718 10713 10712 10709 ] final  -53.27 input   66.30 | X-H torsion
[ 10763 10752 10751 10750 ] final  150.27 input  -60.55 | X-H torsion
[ 11005 11000 10999 10996 ] final   59.97 input  -57.11 | X-H torsion

> <Gold.Protein.ActiveResidues>
 VAL166  LYS551  ARG553  GLY616  TRP617  ASP618  TYR619  PRO620  LYS621  CYS622 
 ASP623  PHE694  ASN695  SER759  ASP760  ASP761  ALA762  ILE779  LEU786  VAL792 
 PHE793  MET794  SER795  GLU796  ALA797  LYS798  CYS799  TRP800  GLU811  SER814 

> <Gold.Protein.RotatedAtoms>
  152.0158  133.3879  159.4237 H   0  0  0  0  0  0  0  0  0  0  0  0  # atno 6907 bound_to 6896
  150.6895  134.3680  159.4989 H   0  0  0  0  0  0  0  0  0  0  0  0  # atno 6908 bound_to 6896
  152.1447  134.9034  160.0602 H   0  0  0  0  0  0  0  0  0  0  0  0  # atno 6909 bound_to 6896
  145.5841  139.2329  143.2336 H   0  0  0  0  0  0  0  0  0  0  0  0  # atno 7974 bound_to 7965
  155.6522  140.0713  157.2583 H   0  0  0  0  0  0  0  0  0  0  0  0  # atno 8008 bound_to 7997
  154.4160  140.1731  156.1737 H   0  0  0  0  0  0  0  0  0  0  0  0  # atno 8009 bound_to 7997
  155.9767  140.3357  155.6629 H   0  0  0  0  0  0  0  0  0  0  0  0  # atno 8010 bound_to 7997
  139.4883  144.5723  151.7031 H   0  0  0  0  0  0  0  0  0  0  0  0  # atno 10167 bound_to 10162
  156.1550  130.4150  149.9884 H   0  0  0  0  0  0  0  0  0  0  0  0  # atno 10718 bound_to 10713
  154.0847  135.2857  155.3283 H   0  0  0  0  0  0  0  0  0  0  0  0  # atno 10763 bound_to 10752
  154.6660  135.5317  153.8081 H   0  0  0  0  0  0  0  0  0  0  0  0  # atno 10764 bound_to 10752
  153.0435  135.6546  154.1020 H   0  0  0  0  0  0  0  0  0  0  0  0  # atno 10765 bound_to 10752
  140.0266  134.6074  155.9565 H   0  0  0  0  0  0  0  0  0  0  0  0  # atno 11005 bound_to 11000
  146.1694  140.6668  142.9240 LP  0  0  0  0  0  0  0  0  0  0  0  0  # atno 17320 bound_to 7965
  144.7380  140.4864  143.6889 LP  0  0  0  0  0  0  0  0  0  0  0  0  # atno 17321 bound_to 7965
  140.5313  144.0726  150.6054 LP  0  0  0  0  0  0  0  0  0  0  0  0  # atno 17342 bound_to 10162
  140.3717  143.2851  152.0270 LP  0  0  0  0  0  0  0  0  0  0  0  0  # atno 17343 bound_to 10162
  156.7730  130.9193  151.3644 LP  0  0  0  0  0  0  0  0  0  0  0  0  # atno 17370 bound_to 10713
  157.6687  130.9031  149.9991 LP  0  0  0  0  0  0  0  0  0  0  0  0  # atno 17371 bound_to 10713
  141.1806  133.6546  156.5005 LP  0  0  0  0  0  0  0  0  0  0  0  0  # atno 17394 bound_to 11000
  140.4297  134.7113  157.4935 LP  0  0  0  0  0  0  0  0  0  0  0  0  # atno 17395 bound_to 11000

$$$$
