AV-unprocessed.smi:149|AV-procd|sdf|1236|dock4
  -GOLD-   2262018443D 1   1.00000     0.00000
 Structure written by MMmdl.
 60 64  0  0  0  0  0  0  0  0  2 V2000
  149.3082  141.8219  157.7260 C   0  0  0  0  0  0  0  0  0  0  0  0
  150.4127  141.6017  156.6722 C   0  0  2  0  0  0  0  0  0  0  0  0
  149.9436  140.6072  155.5967 C   0  0  0  0  0  0  0  0  0  0  0  0
  150.5147  139.3163  155.9606 N   0  0  0  0  0  0  0  0  0  0  0  0
  149.8977  138.1529  155.6277 C   0  0  0  0  0  0  0  0  0  0  0  0
  150.5379  136.9796  155.8762 N   0  0  0  0  0  0  0  0  0  0  0  0
  149.9667  135.8145  155.5580 C   0  0  0  0  0  0  0  0  0  0  0  0
  148.7800  135.5954  154.9906 N   0  0  0  0  0  0  0  0  0  0  0  0
  148.1314  136.7663  154.7307 C   0  0  0  0  0  0  0  0  0  0  0  0
  148.6154  138.0777  155.0074 C   0  0  0  0  0  0  0  0  0  0  0  0
  147.6880  139.0183  154.5723 N   0  0  0  0  0  0  0  0  0  0  0  0
  146.7154  138.3065  154.0730 C   0  0  0  0  0  0  0  0  0  0  0  0
  146.8844  136.9435  154.1553 N   0  0  0  0  0  0  0  0  0  0  0  0
  145.9939  135.9398  153.6487 C   0  0  0  0  0  0  0  0  0  0  0  0
  146.4517  134.9520  152.5704 C   0  0  0  0  0  0  0  0  0  0  0  0
  145.0518  134.9948  151.9177 C   0  0  0  0  0  0  0  0  0  0  0  0
  145.0702  135.1549  150.3898 C   0  0  0  0  0  0  0  0  0  0  0  0
  145.9093  136.2190  149.9891 O   0  0  0  0  0  0  0  0  0  0  0  0
  144.1104  133.8133  152.2418 C   0  0  0  0  0  0  0  0  0  0  0  0
  143.8746  133.6491  153.6255 O   0  0  0  0  0  0  0  0  0  0  0  0
  144.8394  136.3033  152.7104 C   0  0  0  0  0  0  0  0  0  0  0  0
  151.3092  139.4425  157.1732 C   0  0  0  0  0  0  0  0  0  0  0  0
  151.6875  140.9268  157.2187 C   0  0  2  0  0  0  0  0  0  0  0  0
  152.1454  141.4268  158.5458 N   0  3  0  0  0  0  0  0  0  0  0  0
  153.3610  140.7446  159.0593 C   0  0  0  0  0  0  0  0  0  0  0  0
  153.7473  141.2944  160.4435 C   0  0  0  0  0  0  0  0  0  0  0  0
  153.9426  142.6999  160.3659 O   0  0  0  0  0  0  0  0  0  0  0  0
  152.7591  143.3759  159.9638 C   0  0  0  0  0  0  0  0  0  0  0  0
  152.3465  142.8986  158.5621 C   0  0  0  0  0  0  0  0  0  0  0  0
  149.0304  140.8904  158.2199 H   0  0  0  0  0  0  0  0  0  0  0  0
  148.4082  142.2276  157.2632 H   0  0  0  0  0  0  0  0  0  0  0  0
  149.6174  142.5278  158.4965 H   0  0  0  0  0  0  0  0  0  0  0  0
  150.6492  142.5620  156.2129 H   0  0  0  0  0  0  0  0  0  0  0  0
  148.8552  140.5720  155.5320 H   0  0  0  0  0  0  0  0  0  0  0  0
  150.3298  140.8935  154.6180 H   0  0  0  0  0  0  0  0  0  0  0  0
  150.5422  134.9311  155.7921 H   0  0  0  0  0  0  0  0  0  0  0  0
  145.8401  138.7614  153.6322 H   0  0  0  0  0  0  0  0  0  0  0  0
  145.6211  135.4077  154.5246 H   0  0  0  0  0  0  0  0  0  0  0  0
  147.2302  135.3692  151.9296 H   0  0  0  0  0  0  0  0  0  0  0  0
  146.7499  133.9759  152.9542 H   0  0  0  0  0  0  0  0  0  0  0  0
  145.4361  134.2471  149.9090 H   0  0  0  0  0  0  0  0  0  0  0  0
  144.0671  135.3274  149.9985 H   0  0  0  0  0  0  0  0  0  0  0  0
  145.3912  137.0076  149.9376 H   0  0  0  0  0  0  0  0  0  0  0  0
  143.1403  133.9434  151.7613 H   0  0  0  0  0  0  0  0  0  0  0  0
  144.5221  132.8768  151.8643 H   0  0  0  0  0  0  0  0  0  0  0  0
  143.6286  132.7505  153.7833 H   0  0  0  0  0  0  0  0  0  0  0  0
  143.8704  136.3869  153.2030 H   0  0  0  0  0  0  0  0  0  0  0  0
  145.0523  137.1953  152.1187 H   0  0  0  0  0  0  0  0  0  0  0  0
  150.7099  139.1591  158.0398 H   0  0  0  0  0  0  0  0  0  0  0  0
  152.1902  138.8006  157.1334 H   0  0  0  0  0  0  0  0  0  0  0  0
  152.4948  141.0828  156.5000 H   0  0  0  0  0  0  0  0  0  0  0  0
  153.1925  139.6716  159.1462 H   0  0  0  0  0  0  0  0  0  0  0  0
  154.1844  140.8853  158.3570 H   0  0  0  0  0  0  0  0  0  0  0  0
  152.9791  141.0625  161.1830 H   0  0  0  0  0  0  0  0  0  0  0  0
  154.6707  140.8288  160.7885 H   0  0  0  0  0  0  0  0  0  0  0  0
  151.9604  143.2035  160.6872 H   0  0  0  0  0  0  0  0  0  0  0  0
  152.9527  144.4487  159.9526 H   0  0  0  0  0  0  0  0  0  0  0  0
  153.1163  143.1704  157.8379 H   0  0  0  0  0  0  0  0  0  0  0  0
  151.4343  143.4138  158.2626 H   0  0  0  0  0  0  0  0  0  0  0  0
  151.4048  141.2227  159.2016 H   0  0  0  0  0  0  0  0  0  0  0  0
  1  2  1  0  0  0  0
  1 30  1  0  0  0  0
  1 31  1  0  0  0  0
  1 32  1  0  0  0  0
  2 23  1  0  0  0  0
  2  3  1  0  0  0  0
  2 33  1  0  0  0  0
  3  4  1  0  0  0  0
  3 34  1  0  0  0  0
  3 35  1  0  0  0  0
  4  5  1  0  0  0  0
  4 22  1  0  0  0  0
  5 10  1  0  0  0  0
  5  6  2  0  0  0  0
  6  7  1  0  0  0  0
  7  8  2  0  0  0  0
  7 36  1  0  0  0  0
  8  9  1  0  0  0  0
  9 13  1  0  0  0  0
  9 10  2  0  0  0  0
 10 11  1  0  0  0  0
 11 12  2  0  0  0  0
 12 13  1  0  0  0  0
 12 37  1  0  0  0  0
 13 14  1  0  0  0  0
 14 21  1  0  0  0  0
 14 15  1  0  0  0  0
 14 38  1  0  0  0  0
 15 16  1  0  0  0  0
 15 39  1  0  0  0  0
 15 40  1  0  0  0  0
 16 17  1  0  0  0  0
 16 19  1  0  0  0  0
 16 21  1  0  0  0  0
 17 18  1  0  0  0  0
 17 41  1  0  0  0  0
 17 42  1  0  0  0  0
 18 43  1  0  0  0  0
 19 20  1  0  0  0  0
 19 44  1  0  0  0  0
 19 45  1  0  0  0  0
 20 46  1  0  0  0  0
 21 47  1  0  0  0  0
 21 48  1  0  0  0  0
 22 23  1  0  0  0  0
 22 49  1  0  0  0  0
 22 50  1  0  0  0  0
 23 24  1  0  0  0  0
 23 51  1  0  0  0  0
 24 29  1  0  0  0  0
 24 25  1  0  0  0  0
 24 60  1  0  0  0  0
 25 26  1  0  0  0  0
 25 52  1  0  0  0  0
 25 53  1  0  0  0  0
 26 27  1  0  0  0  0
 26 54  1  0  0  0  0
 26 55  1  0  0  0  0
 27 28  1  0  0  0  0
 28 29  1  0  0  0  0
 28 56  1  0  0  0  0
 28 57  1  0  0  0  0
 29 58  1  0  0  0  0
 29 59  1  0  0  0  0
M  CHG  1  24   1
M  END
> <s_m_source_file>
AV-unprocessed.smi

> <i_m_source_file_index>
149

> <i_lp_mmshare_version>
43012

> <i_f3d_flags>
0

> <s_epik_input>
W0NIMl0xW0NIMl1PW0NIMl1bQ0gyXU4xW0NAQEhdMltDSDJdTihbQ0gyXVtDQEhdMltDSDNdKWMobltjSF1uMyljKGMzNCluW2NIXW40W0NIXShbQ0gyXTUpW0NIMl1DNShbQ0gyXVtPSF0pW0NIMl1bT0hd

> <s_epik_cmdline>
J2VwaWtfcHl0aG9uJywgJy1waCcsICc3LjAnLCAnLXRuJywgJzgnLCAnLW1hJywgJzIwMCcsICctbWV0YWxfYmluZGluZycsICctaW1hZScsICc8aW5maWxlLm1hZT4nLCAnLW9tYWUnLCAnPG91dGZpbGUubWFlPic=

> <r_lp_tautomer_probability>
1

> <r_epik_Ionization_Penalty>
0.404847

> <r_epik_Ionization_Penalty_Charging>
0.404623

> <r_epik_Ionization_Penalty_Neutral>
0.000224096

> <r_epik_State_Penalty>
0.238803

> <r_epik_Charging_Adjusted_Penalty>
0.643425

> <i_epik_Tot_Q>
1

> <i_epik_Tot_abs_Q>
1

> <r_epik_Metal_State_Penalty>
0.239083

> <b_epik_Metal_Only>
0

> <s_lp_Force_Field>
OPLS_2005

> <r_lp_Energy>
71.321

> <b_lp_Chiralities_Consistent>
1

> <s_lp_Variant>
AV-unprocessed.smi:149-3

> <Gold.Version>
5.8.1

> <Gold.Id.Protein>
6NUR|6NUR_protein|mol2

> <Gold.PLP.Fitness>
46.8055

> <Gold.PLP.PLP>
-38.3882

> <Gold.PLP.part.hbond>
-3.0000

> <Gold.PLP.part.metal>
0.0000

> <Gold.PLP.part.buried>
-6.1756

> <Gold.PLP.part.nonpolar>
-29.5185

> <Gold.PLP.part.repulsive>
0.3742

> <Gold.PLP.ligand.clash>
0.0000

> <Gold.PLP.ligand.torsion>
0.6352

> <Gold.PLP.Chemscore.Hbond>
2.0000

> <Gold.PLP.Chemscore.CHOScore>
1.0000

> <Gold.PLP.Chemscore.Metal>
0.0000

> <Gold.Chemscore.Hbonds>
donor molecule, donor type, donor heavy atom, donor atom, acceptor molecule, acceptor atom, score
      L1  H    18    43       P1 10171  0.63
      L1  H    20    46       P1 10957  0.88

> <Gold.PLP.Chemscore.Internal.Correction>
0.6876

> <Gold.Rescore>
     Score         DG    S(hbond)    S(metal)    S(lipo)     H(rot)  DE(clash)    DE(int)     intcor
     13.12     -15.68       1.97        0.00      98.67       3.09       0.69       1.87       ----

> <Gold.Chemscore.Fitness>
13.1218

> <Gold.Chemscore.DG>
-15.6799

> <Gold.Chemscore.ZeroCoef>
-5.4800

> <Gold.Chemscore.Hbond>
1.9668

> <Gold.Chemscore.Metal>
0.0000

> <Gold.Chemscore.Lipo>
98.6687

> <Gold.Chemscore.Internal_Hbond>
0.0000

> <Gold.Chemscore.DEClash>
0.6853

> <Gold.Chemscore.DEInternal>
1.8728

> <Gold.Chemscore.Rot>
3.0912

> <Gold.Chemscore.Internal.Correction>
   9.000000E+99

> <Gold.Chemscore.Hbonds>
donor molecule, donor type, donor heavy atom, donor atom, acceptor molecule, acceptor atom, score
      L1  H    18    43       P1 10171  0.63
      L1  H    20    46       P1 10957  0.74

> <Gold.Chemscore.Hbond.Weighted>
-6.5692

> <Gold.Chemscore.Metal.Weighted>
-0.0000

> <Gold.Chemscore.Lipo.Weighted>
-11.5442

> <Gold.Chemscore.Internal_Hbond.Weighted>
0.0000

> <Gold.Chemscore.DEClash.Weighted>
0.6853

> <Gold.Chemscore.DEInternal.Weighted>
1.8728

> <Gold.Chemscore.Rot.Weighted>
7.9135

> <Gold.Chemscore.Internal.Correction.Weighted>
   9.000000E+99

> <Gold.Protein.RotatedTorsions>
[ 6907 6896 6895 6894 ] final  170.12 input  -60.11 | X-H torsion
[ 7974 7965 7964 7962 ] final   89.11 input  175.53 | X-H torsion
[ 8008 7997 7996 7995 ] final    5.28 input   59.86 | X-H torsion
[ 10167 10162 10161 10158 ] final   56.03 input  -65.29 | X-H torsion
[ 10718 10713 10712 10709 ] final  -33.16 input   66.30 | X-H torsion
[ 10763 10752 10751 10750 ] final  -56.92 input  -60.55 | X-H torsion
[ 11005 11000 10999 10996 ] final -135.27 input  -57.11 | X-H torsion

> <Gold.Protein.ActiveResidues>
 VAL166  LYS551  ARG553  GLY616  TRP617  ASP618  TYR619  PRO620  LYS621  CYS622 
 ASP623  PHE694  ASN695  SER759  ASP760  ASP761  ALA762  ILE779  LEU786  VAL792 
 PHE793  MET794  SER795  GLU796  ALA797  LYS798  CYS799  TRP800  GLU811  SER814 

> <Gold.Protein.RotatedAtoms>
  151.8211  133.3395  159.3584 H   0  0  0  0  0  0  0  0  0  0  0  0  # atno 6907 bound_to 6896
  150.7294  134.5573  159.5834 H   0  0  0  0  0  0  0  0  0  0  0  0  # atno 6908 bound_to 6896
  152.3005  134.7617  160.0410 H   0  0  0  0  0  0  0  0  0  0  0  0  # atno 6909 bound_to 6896
  145.5368  139.2286  143.2588 H   0  0  0  0  0  0  0  0  0  0  0  0  # atno 7974 bound_to 7965
  154.7264  140.2722  155.6495 H   0  0  0  0  0  0  0  0  0  0  0  0  # atno 8008 bound_to 7997
  156.2838  140.2724  156.1876 H   0  0  0  0  0  0  0  0  0  0  0  0  # atno 8009 bound_to 7997
  155.0439  140.0371  157.2509 H   0  0  0  0  0  0  0  0  0  0  0  0  # atno 8010 bound_to 7997
  140.2131  144.3868  150.6480 H   0  0  0  0  0  0  0  0  0  0  0  0  # atno 10167 bound_to 10162
  156.3660  130.4331  149.7584 H   0  0  0  0  0  0  0  0  0  0  0  0  # atno 10718 bound_to 10713
  154.2142  135.6389  153.5124 H   0  0  0  0  0  0  0  0  0  0  0  0  # atno 10763 bound_to 10752
  152.9983  135.5481  154.6182 H   0  0  0  0  0  0  0  0  0  0  0  0  # atno 10764 bound_to 10752
  154.5627  135.2910  155.0878 H   0  0  0  0  0  0  0  0  0  0  0  0  # atno 10765 bound_to 10752
  140.8913  134.1807  157.4525 H   0  0  0  0  0  0  0  0  0  0  0  0  # atno 11005 bound_to 11000
  146.2008  140.6186  142.9103 LP  0  0  0  0  0  0  0  0  0  0  0  0  # atno 17320 bound_to 7965
  144.7597  140.5393  143.6744 LP  0  0  0  0  0  0  0  0  0  0  0  0  # atno 17321 bound_to 7965
  140.6309  143.2187  151.6498 LP  0  0  0  0  0  0  0  0  0  0  0  0  # atno 17342 bound_to 10162
  139.5172  144.3322  152.0816 LP  0  0  0  0  0  0  0  0  0  0  0  0  # atno 17343 bound_to 10162
  156.4730  130.8005  151.3022 LP  0  0  0  0  0  0  0  0  0  0  0  0  # atno 17370 bound_to 10713
  157.7479  131.0030  150.3021 LP  0  0  0  0  0  0  0  0  0  0  0  0  # atno 17371 bound_to 10713
  139.8730  134.9860  156.5305 LP  0  0  0  0  0  0  0  0  0  0  0  0  # atno 17394 bound_to 11000
  140.8343  133.8255  155.9013 LP  0  0  0  0  0  0  0  0  0  0  0  0  # atno 17395 bound_to 11000

$$$$
