AV-unprocessed.smi:2465|AV-procd|sdf|9723|dock8
  -GOLD-   2272013363D 1   1.00000     0.00000
 Structure written by MMmdl.
 41 42  0  0  0  0  0  0  0  0  2 V2000
  147.3452  133.2878  151.8999 C   0  0  0  0  0  0  0  0  0  0  0  0
  145.9379  133.5740  151.4040 C   0  0  0  0  0  0  0  0  0  0  0  0
  145.1041  132.4991  151.0230 C   0  0  0  0  0  0  0  0  0  0  0  0
  143.8010  132.7642  150.5605 C   0  0  0  0  0  0  0  0  0  0  0  0
  143.3655  134.0384  150.4817 N   0  3  0  0  0  0  0  0  0  0  0  0
  144.1252  135.0974  150.8344 C   0  0  0  0  0  0  0  0  0  0  0  0
  145.4436  134.9015  151.3196 C   0  0  0  0  0  0  0  0  0  0  0  0
  146.3049  135.9717  151.6991 N   0  0  0  0  0  0  0  0  0  0  0  0
  145.9961  137.1505  152.2676 C   0  0  0  0  0  0  0  0  0  0  0  0
  144.8625  137.5233  152.5680 O   0  0  0  0  0  0  0  0  0  0  0  0
  147.0966  137.8848  152.4850 N   0  0  0  0  0  0  0  0  0  0  0  0
  147.1135  139.2159  153.0811 C   0  0  0  0  0  0  0  0  0  0  0  0
  148.2622  139.3768  154.0899 C   0  0  0  0  0  0  0  0  0  0  0  0
  148.4095  140.8274  154.5779 C   0  0  0  0  0  0  0  0  0  0  0  0
  149.2832  140.9188  155.7446 N   0  0  0  0  0  0  0  0  0  0  0  0
  148.8273  141.5708  156.9610 C   0  0  0  0  0  0  0  0  0  0  0  0
  149.9287  141.3003  157.9962 C   0  0  0  0  0  0  0  0  0  0  0  0
  151.1321  140.7836  157.2002 C   0  0  0  0  0  0  0  0  0  0  0  0
  150.5486  140.4911  155.8282 C   0  0  0  0  0  0  0  0  0  0  0  0
  151.1874  139.9345  154.9363 O   0  0  0  0  0  0  0  0  0  0  0  0
  147.5614  132.2190  151.8907 H   0  0  0  0  0  0  0  0  0  0  0  0
  147.4697  133.6480  152.9216 H   0  0  0  0  0  0  0  0  0  0  0  0
  148.0806  133.7843  151.2663 H   0  0  0  0  0  0  0  0  0  0  0  0
  145.4569  131.4796  151.0821 H   0  0  0  0  0  0  0  0  0  0  0  0
  143.1011  132.0025  150.2489 H   0  0  0  0  0  0  0  0  0  0  0  0
  143.6435  136.0535  150.7005 H   0  0  0  0  0  0  0  0  0  0  0  0
  147.2900  135.7970  151.5643 H   0  0  0  0  0  0  0  0  0  0  0  0
  147.9895  137.5005  152.2122 H   0  0  0  0  0  0  0  0  0  0  0  0
  147.2230  139.9432  152.2760 H   0  0  0  0  0  0  0  0  0  0  0  0
  146.1540  139.4228  153.5582 H   0  0  0  0  0  0  0  0  0  0  0  0
  148.0912  138.7251  154.9478 H   0  0  0  0  0  0  0  0  0  0  0  0
  149.1955  139.0459  153.6321 H   0  0  0  0  0  0  0  0  0  0  0  0
  148.8064  141.4554  153.7788 H   0  0  0  0  0  0  0  0  0  0  0  0
  147.4297  141.2354  154.8303 H   0  0  0  0  0  0  0  0  0  0  0  0
  148.7167  142.6404  156.7775 H   0  0  0  0  0  0  0  0  0  0  0  0
  147.8628  141.1771  157.2846 H   0  0  0  0  0  0  0  0  0  0  0  0
  150.1719  142.1959  158.5689 H   0  0  0  0  0  0  0  0  0  0  0  0
  149.5981  140.5389  158.7039 H   0  0  0  0  0  0  0  0  0  0  0  0
  151.9078  141.5448  157.1105 H   0  0  0  0  0  0  0  0  0  0  0  0
  151.5677  139.8893  157.6466 H   0  0  0  0  0  0  0  0  0  0  0  0
  142.4205  134.2106  150.1376 H   0  0  0  0  0  0  0  0  0  0  0  0
  1  2  1  0  0  0  0
  1 21  1  0  0  0  0
  1 22  1  0  0  0  0
  1 23  1  0  0  0  0
  2  7  1  0  0  0  0
  2  3  2  0  0  0  0
  3  4  1  0  0  0  0
  3 24  1  0  0  0  0
  4  5  2  0  0  0  0
  4 25  1  0  0  0  0
  5  6  1  0  0  0  0
  5 41  1  0  0  0  0
  6  7  2  0  0  0  0
  6 26  1  0  0  0  0
  7  8  1  0  0  0  0
  8  9  1  0  0  0  0
  8 27  1  0  0  0  0
  9 10  2  0  0  0  0
  9 11  1  0  0  0  0
 11 12  1  0  0  0  0
 11 28  1  0  0  0  0
 12 13  1  0  0  0  0
 12 29  1  0  0  0  0
 12 30  1  0  0  0  0
 13 14  1  0  0  0  0
 13 31  1  0  0  0  0
 13 32  1  0  0  0  0
 14 15  1  0  0  0  0
 14 33  1  0  0  0  0
 14 34  1  0  0  0  0
 15 19  1  0  0  0  0
 15 16  1  0  0  0  0
 16 17  1  0  0  0  0
 16 35  1  0  0  0  0
 16 36  1  0  0  0  0
 17 18  1  0  0  0  0
 17 37  1  0  0  0  0
 17 38  1  0  0  0  0
 18 19  1  0  0  0  0
 18 39  1  0  0  0  0
 18 40  1  0  0  0  0
 19 20  2  0  0  0  0
M  CHG  1   5   1
M  END
> <s_m_source_file>
AV-unprocessed.smi

> <i_m_source_file_index>
2465

> <i_lp_mmshare_version>
43012

> <i_f3d_flags>
0

> <s_epik_input>
W0NIM11jMVtjSF1bY0hdbltjSF1jMVtOSF1DKD1PKVtOSF1bQ0gyXVtDSDJdW0NIMl1OMltDSDJdW0NIMl1bQ0gyXUMyPU8=

> <s_epik_cmdline>
J2VwaWtfcHl0aG9uJywgJy1waCcsICc3LjAnLCAnLXRuJywgJzgnLCAnLW1hJywgJzIwMCcsICctbWV0YWxfYmluZGluZycsICctaW1hZScsICc8aW5maWxlLm1hZT4nLCAnLW9tYWUnLCAnPG91dGZpbGUubWFlPic=

> <r_epik_Ionization_Penalty>
1.98477

> <r_epik_Ionization_Penalty_Charging>
1.98474

> <r_epik_Ionization_Penalty_Neutral>
2.19328e-05

> <r_epik_State_Penalty>
2.1123

> <r_epik_Charging_Adjusted_Penalty>
4.09705

> <i_epik_Tot_Q>
1

> <i_epik_Tot_abs_Q>
1

> <r_epik_Metal_State_Penalty>
2.13405

> <b_epik_Metal_Only>
0

> <s_lp_Force_Field>
OPLS_2005

> <r_lp_Energy>
26.0932

> <b_lp_Chiralities_Consistent>
1

> <s_lp_Variant>
AV-unprocessed.smi:2465-2

> <Gold.Version>
5.8.1

> <Gold.Id.Protein>
6NUR|6NUR_protein|mol2

> <Gold.PLP.Fitness>
51.3775

> <Gold.PLP.PLP>
-37.1731

> <Gold.PLP.part.hbond>
-3.9679

> <Gold.PLP.part.metal>
0.0000

> <Gold.PLP.part.buried>
-4.3879

> <Gold.PLP.part.nonpolar>
-29.3763

> <Gold.PLP.part.repulsive>
0.4448

> <Gold.PLP.ligand.clash>
0.0000

> <Gold.PLP.ligand.torsion>
0.4312

> <Gold.PLP.Chemscore.Hbond>
5.0000

> <Gold.PLP.Chemscore.CHOScore>
0.0000

> <Gold.PLP.Chemscore.Metal>
0.0000

> <Gold.Chemscore.Hbonds>
donor molecule, donor type, donor heavy atom, donor atom, acceptor molecule, acceptor atom, score
      L1  H     5    41       P1 10186  2.00
      L1  H     8    27       P1  7948  1.00
      L1  H    11    28       P1  7948  1.00
      P1  H  7989  7998       L1    20  1.00

> <Gold.PLP.Chemscore.Internal.Correction>
0.0668

> <Gold.Rescore>
     Score         DG    S(hbond)    S(metal)    S(lipo)     H(rot)  DE(clash)    DE(int)     intcor
     21.63     -22.09       3.89        0.00      70.05       1.78       0.00       0.46       ----

> <Gold.Chemscore.Fitness>
21.6322

> <Gold.Chemscore.DG>
-22.0905

> <Gold.Chemscore.ZeroCoef>
-5.4800

> <Gold.Chemscore.Hbond>
3.8868

> <Gold.Chemscore.Metal>
0.0000

> <Gold.Chemscore.Lipo>
70.0502

> <Gold.Chemscore.Internal_Hbond>
0.0000

> <Gold.Chemscore.DEClash>
0.0000

> <Gold.Chemscore.DEInternal>
0.4582

> <Gold.Chemscore.Rot>
1.7841

> <Gold.Chemscore.Internal.Correction>
   9.000000E+99

> <Gold.Chemscore.Hbonds>
donor molecule, donor type, donor heavy atom, donor atom, acceptor molecule, acceptor atom, score
      L1  H     5    41       P1 10186  0.86
      L1  H     8    27       P1  7948  0.96
      L1  H    11    28       P1  7948  0.95
      P1  H  7989  7998       L1    20  0.97

> <Gold.Chemscore.Hbond.Weighted>
-12.9819

> <Gold.Chemscore.Metal.Weighted>
-0.0000

> <Gold.Chemscore.Lipo.Weighted>
-8.1959

> <Gold.Chemscore.Internal_Hbond.Weighted>
0.0000

> <Gold.Chemscore.DEClash.Weighted>
0.0000

> <Gold.Chemscore.DEInternal.Weighted>
0.4582

> <Gold.Chemscore.Rot.Weighted>
4.5673

> <Gold.Chemscore.Internal.Correction.Weighted>
   9.000000E+99

> <Gold.Protein.RotatedTorsions>
[ 6907 6896 6895 6894 ] final  -78.29 input  -60.11 | X-H torsion
[ 7974 7965 7964 7962 ] final   19.18 input  175.53 | X-H torsion
[ 8008 7997 7996 7995 ] final -123.90 input   59.86 | X-H torsion
[ 10167 10162 10161 10158 ] final  -96.55 input  -65.29 | X-H torsion
[ 10718 10713 10712 10709 ] final  123.91 input   66.30 | X-H torsion
[ 10763 10752 10751 10750 ] final  -47.46 input  -60.55 | X-H torsion
[ 11005 11000 10999 10996 ] final   98.39 input  -57.11 | X-H torsion

> <Gold.Protein.ActiveResidues>
 VAL166  LYS551  ARG553  GLY616  TRP617  ASP618  TYR619  PRO620  LYS621  CYS622 
 ASP623  PHE694  ASN695  SER759  ASP760  ASP761  ALA762  ILE779  LEU786  VAL792 
 PHE793  MET794  SER795  GLU796  ALA797  LYS798  CYS799  TRP800  GLU811  SER814 

> <Gold.Protein.RotatedAtoms>
  150.6976  134.4294  159.5241 H   0  0  0  0  0  0  0  0  0  0  0  0  # atno 6907 bound_to 6896
  152.2023  134.8574  160.0515 H   0  0  0  0  0  0  0  0  0  0  0  0  # atno 6908 bound_to 6896
  151.9489  133.3625  159.4029 H   0  0  0  0  0  0  0  0  0  0  0  0  # atno 6909 bound_to 6896
  146.2158  139.8349  142.8652 H   0  0  0  0  0  0  0  0  0  0  0  0  # atno 7974 bound_to 7965
  155.1881  140.0412  157.2895 H   0  0  0  0  0  0  0  0  0  0  0  0  # atno 8008 bound_to 7997
  154.6157  140.2488  155.7584 H   0  0  0  0  0  0  0  0  0  0  0  0  # atno 8009 bound_to 7997
  156.2405  140.2905  156.0441 H   0  0  0  0  0  0  0  0  0  0  0  0  # atno 8010 bound_to 7997
  140.2926  143.3212  152.0330 H   0  0  0  0  0  0  0  0  0  0  0  0  # atno 10167 bound_to 10162
  157.5627  131.1088  150.8510 H   0  0  0  0  0  0  0  0  0  0  0  0  # atno 10718 bound_to 10713
  154.0618  135.6617  153.4813 H   0  0  0  0  0  0  0  0  0  0  0  0  # atno 10763 bound_to 10752
  153.0424  135.5136  154.7652 H   0  0  0  0  0  0  0  0  0  0  0  0  # atno 10764 bound_to 10752
  154.6690  135.3026  154.9734 H   0  0  0  0  0  0  0  0  0  0  0  0  # atno 10765 bound_to 10752
  139.8772  134.9047  156.4450 H   0  0  0  0  0  0  0  0  0  0  0  0  # atno 11005 bound_to 11000
  145.2958  141.0180  143.3637 LP  0  0  0  0  0  0  0  0  0  0  0  0  # atno 17320 bound_to 7965
  144.9043  139.4610  143.6617 LP  0  0  0  0  0  0  0  0  0  0  0  0  # atno 17321 bound_to 7965
  139.4934  144.6514  151.6668 LP  0  0  0  0  0  0  0  0  0  0  0  0  # atno 17342 bound_to 10162
  140.5719  144.0094  150.6221 LP  0  0  0  0  0  0  0  0  0  0  0  0  # atno 17343 bound_to 10162
  156.9003  130.5244  149.5283 LP  0  0  0  0  0  0  0  0  0  0  0  0  # atno 17370 bound_to 10713
  156.0678  130.5717  150.9323 LP  0  0  0  0  0  0  0  0  0  0  0  0  # atno 17371 bound_to 10713
  140.8973  133.7805  155.9639 LP  0  0  0  0  0  0  0  0  0  0  0  0  # atno 17394 bound_to 11000
  140.8689  134.2750  157.5200 LP  0  0  0  0  0  0  0  0  0  0  0  0  # atno 17395 bound_to 11000

$$$$
