AV-unprocessed.smi:456|AV-procd|sdf|2617|dock6
  -GOLD-   2262023 13D 1   1.00000     0.00000
 Structure written by MMmdl.
 33 35  0  0  0  0  0  0  0  0  2 V2000
  153.2557  139.1541  155.6478 O   0  0  0  0  0  0  0  0  0  0  0  0
  151.8875  138.8989  155.8866 C   0  0  2  0  0  0  0  0  0  0  0  0
  151.5046  139.5555  157.2278 C   0  0  0  0  0  0  0  0  0  0  0  0
  151.1406  140.9704  157.0800 N   0  0  0  0  0  0  0  0  0  0  0  0
  150.5127  141.6089  156.0554 C   0  0  0  0  0  0  0  0  0  0  0  0
  150.4140  142.9253  156.3914 N   0  3  0  0  0  0  0  0  0  0  0  0
  150.9852  143.1296  157.6498 C   0  0  0  0  0  0  0  0  0  0  0  0
  151.1251  144.2848  158.4123 C   0  0  0  0  0  0  0  0  0  0  0  0
  151.7633  144.1473  159.6627 C   0  0  0  0  0  0  0  0  0  0  0  0
  151.9250  145.2404  160.4454 F   0  0  0  0  0  0  0  0  0  0  0  0
  152.2360  142.8958  160.1121 C   0  0  0  0  0  0  0  0  0  0  0  0
  152.8446  142.8083  161.3185 F   0  0  0  0  0  0  0  0  0  0  0  0
  152.0879  141.7312  159.3301 C   0  0  0  0  0  0  0  0  0  0  0  0
  151.4547  141.8772  158.0971 C   0  0  0  0  0  0  0  0  0  0  0  0
  151.5654  137.4112  155.8608 C   0  0  0  0  0  0  0  0  0  0  0  0
  152.1164  136.5389  156.8254 C   0  0  0  0  0  0  0  0  0  0  0  0
  151.8016  135.1663  156.8032 C   0  0  0  0  0  0  0  0  0  0  0  0
  150.9323  134.6584  155.8190 C   0  0  0  0  0  0  0  0  0  0  0  0
  150.3772  135.5239  154.8571 C   0  0  0  0  0  0  0  0  0  0  0  0
  150.6926  136.8963  154.8781 C   0  0  0  0  0  0  0  0  0  0  0  0
  153.5673  138.5389  155.0013 H   0  0  0  0  0  0  0  0  0  0  0  0
  151.3397  139.3872  155.0797 H   0  0  0  0  0  0  0  0  0  0  0  0
  150.6564  139.0400  157.6808 H   0  0  0  0  0  0  0  0  0  0  0  0
  152.3244  139.4892  157.9446 H   0  0  0  0  0  0  0  0  0  0  0  0
  150.1631  141.1544  155.1392 H   0  0  0  0  0  0  0  0  0  0  0  0
  150.7660  145.2448  158.0720 H   0  0  0  0  0  0  0  0  0  0  0  0
  152.4533  140.7781  159.6826 H   0  0  0  0  0  0  0  0  0  0  0  0
  152.7805  136.9201  157.5875 H   0  0  0  0  0  0  0  0  0  0  0  0
  152.2268  134.5034  157.5424 H   0  0  0  0  0  0  0  0  0  0  0  0
  150.6912  133.6057  155.8022 H   0  0  0  0  0  0  0  0  0  0  0  0
  149.7091  135.1350  154.1028 H   0  0  0  0  0  0  0  0  0  0  0  0
  150.2578  137.5534  154.1392 H   0  0  0  0  0  0  0  0  0  0  0  0
  149.9874  143.6293  155.8026 H   0  0  0  0  0  0  0  0  0  0  0  0
  1  2  1  0  0  0  0
  1 21  1  0  0  0  0
  2  3  1  0  0  0  0
  2 15  1  0  0  0  0
  2 22  1  0  0  0  0
  3  4  1  0  0  0  0
  3 23  1  0  0  0  0
  3 24  1  0  0  0  0
  4 14  1  0  0  0  0
  4  5  1  0  0  0  0
  5  6  2  0  0  0  0
  5 25  1  0  0  0  0
  6  7  1  0  0  0  0
  6 33  1  0  0  0  0
  7 14  2  0  0  0  0
  7  8  1  0  0  0  0
  8  9  2  0  0  0  0
  8 26  1  0  0  0  0
  9 10  1  0  0  0  0
  9 11  1  0  0  0  0
 11 12  1  0  0  0  0
 11 13  2  0  0  0  0
 13 14  1  0  0  0  0
 13 27  1  0  0  0  0
 15 20  1  0  0  0  0
 15 16  2  0  0  0  0
 16 17  1  0  0  0  0
 16 28  1  0  0  0  0
 17 18  2  0  0  0  0
 17 29  1  0  0  0  0
 18 19  1  0  0  0  0
 18 30  1  0  0  0  0
 19 20  2  0  0  0  0
 19 31  1  0  0  0  0
 20 32  1  0  0  0  0
M  CHG  1   6   1
M  END
> <s_m_source_file>
AV-unprocessed.smi

> <i_m_source_file_index>
456

> <i_lp_mmshare_version>
43012

> <i_f3d_flags>
0

> <s_epik_input>
W2NIXTFbY0hdW2NIXVtjSF1bY0hdYzFbQ0BIXShbT0hdKVtDSDJdbihbY0hdbjIpYyhjMjMpW2NIXWMoRiljKEYpW2NIXTM=

> <s_epik_cmdline>
J2VwaWtfcHl0aG9uJywgJy1waCcsICc3LjAnLCAnLXRuJywgJzgnLCAnLW1hJywgJzIwMCcsICctbWV0YWxfYmluZGluZycsICctaW1hZScsICc8aW5maWxlLm1hZT4nLCAnLW9tYWUnLCAnPG91dGZpbGUubWFlPic=

> <r_epik_Ionization_Penalty>
2.16139

> <r_epik_Ionization_Penalty_Charging>
2.16138

> <r_epik_Ionization_Penalty_Neutral>
1.34362e-06

> <r_epik_State_Penalty>
2.30198

> <r_epik_Charging_Adjusted_Penalty>
4.46337

> <i_epik_Tot_Q>
1

> <i_epik_Tot_abs_Q>
1

> <r_epik_Metal_State_Penalty>
6.38245

> <b_epik_Metal_Only>
0

> <s_lp_Force_Field>
OPLS_2005

> <r_lp_Energy>
16.094

> <b_lp_Chiralities_Consistent>
1

> <s_lp_Variant>
AV-unprocessed.smi:456-3

> <Gold.Version>
5.8.1

> <Gold.Id.Protein>
6NUR|6NUR_protein|mol2

> <Gold.PLP.Fitness>
50.7989

> <Gold.PLP.PLP>
-43.2465

> <Gold.PLP.part.hbond>
-1.7729

> <Gold.PLP.part.metal>
0.0000

> <Gold.PLP.part.buried>
-4.9941

> <Gold.PLP.part.nonpolar>
-38.0526

> <Gold.PLP.part.repulsive>
0.0915

> <Gold.PLP.ligand.clash>
0.0000

> <Gold.PLP.ligand.torsion>
0.7065

> <Gold.PLP.Chemscore.Hbond>
2.9840

> <Gold.PLP.Chemscore.CHOScore>
0.0000

> <Gold.PLP.Chemscore.Metal>
0.0000

> <Gold.Chemscore.Hbonds>
donor molecule, donor type, donor heavy atom, donor atom, acceptor molecule, acceptor atom, score
      L1  H     6    33       P1  8028  1.92
      P1  H  7997  8009       L1     1  1.00

> <Gold.PLP.Chemscore.Internal.Correction>
0.0133

> <Gold.Rescore>
     Score         DG    S(hbond)    S(metal)    S(lipo)     H(rot)  DE(clash)    DE(int)     intcor
     17.91     -18.74       1.89        0.00     103.69       2.03       0.05       0.77       ----

> <Gold.Chemscore.Fitness>
17.9133

> <Gold.Chemscore.DG>
-18.7360

> <Gold.Chemscore.ZeroCoef>
-5.4800

> <Gold.Chemscore.Hbond>
1.8891

> <Gold.Chemscore.Metal>
0.0000

> <Gold.Chemscore.Lipo>
103.6911

> <Gold.Chemscore.Internal_Hbond>
0.0000

> <Gold.Chemscore.DEClash>
0.0526

> <Gold.Chemscore.DEInternal>
0.7701

> <Gold.Chemscore.Rot>
2.0256

> <Gold.Chemscore.Internal.Correction>
   9.000000E+99

> <Gold.Chemscore.Hbonds>
donor molecule, donor type, donor heavy atom, donor atom, acceptor molecule, acceptor atom, score
      L1  H     6    33       P1  8028  0.88
      P1  H  7997  8009       L1     1  0.79

> <Gold.Chemscore.Hbond.Weighted>
-6.3096

> <Gold.Chemscore.Metal.Weighted>
-0.0000

> <Gold.Chemscore.Lipo.Weighted>
-12.1319

> <Gold.Chemscore.Internal_Hbond.Weighted>
0.0000

> <Gold.Chemscore.DEClash.Weighted>
0.0526

> <Gold.Chemscore.DEInternal.Weighted>
0.7701

> <Gold.Chemscore.Rot.Weighted>
5.1855

> <Gold.Chemscore.Internal.Correction.Weighted>
   9.000000E+99

> <Gold.Protein.RotatedTorsions>
[ 6907 6896 6895 6894 ] final  103.40 input  -60.11 | X-H torsion
[ 7974 7965 7964 7962 ] final  -18.34 input  175.53 | X-H torsion
[ 8008 7997 7996 7995 ] final -149.99 input   59.86 | X-H torsion
[ 10167 10162 10161 10158 ] final  -30.52 input  -65.29 | X-H torsion
[ 10718 10713 10712 10709 ] final  -27.72 input   66.30 | X-H torsion
[ 10763 10752 10751 10750 ] final -104.46 input  -60.55 | X-H torsion
[ 11005 11000 10999 10996 ] final -160.07 input  -57.11 | X-H torsion

> <Gold.Protein.ActiveResidues>
 VAL166  LYS551  ARG553  GLY616  TRP617  ASP618  TYR619  PRO620  LYS621  CYS622 
 ASP623  PHE694  ASN695  SER759  ASP760  ASP761  ALA762  ILE779  LEU786  VAL792 
 PHE793  MET794  SER795  GLU796  ALA797  LYS798  CYS799  TRP800  GLU811  SER814 

> <Gold.Protein.RotatedAtoms>
  152.5296  133.9832  159.7815 H   0  0  0  0  0  0  0  0  0  0  0  0  # atno 6907 bound_to 6896
  151.0082  133.5983  159.2693 H   0  0  0  0  0  0  0  0  0  0  0  0  # atno 6908 bound_to 6896
  151.3067  135.0790  159.9311 H   0  0  0  0  0  0  0  0  0  0  0  0  # atno 6909 bound_to 6896
  146.1897  140.3908  142.8463 H   0  0  0  0  0  0  0  0  0  0  0  0  # atno 7974 bound_to 7965
  155.6164  140.0677  157.2691 H   0  0  0  0  0  0  0  0  0  0  0  0  # atno 8008 bound_to 7997
  154.4240  140.1792  156.1374 H   0  0  0  0  0  0  0  0  0  0  0  0  # atno 8009 bound_to 7997
  156.0044  140.3333  155.6881 H   0  0  0  0  0  0  0  0  0  0  0  0  # atno 8010 bound_to 7997
  140.7248  143.3843  151.1544 H   0  0  0  0  0  0  0  0  0  0  0  0  # atno 10167 bound_to 10162
  156.4345  130.4452  149.7095 H   0  0  0  0  0  0  0  0  0  0  0  0  # atno 10718 bound_to 10713
  154.7880  135.4785  153.9988 H   0  0  0  0  0  0  0  0  0  0  0  0  # atno 10763 bound_to 10752
  153.1588  135.6805  153.8780 H   0  0  0  0  0  0  0  0  0  0  0  0  # atno 10764 bound_to 10752
  153.8400  135.3180  155.3403 H   0  0  0  0  0  0  0  0  0  0  0  0  # atno 10765 bound_to 10752
  140.6356  134.4605  157.5231 H   0  0  0  0  0  0  0  0  0  0  0  0  # atno 11005 bound_to 11000
  144.8462  140.6933  143.6197 LP  0  0  0  0  0  0  0  0  0  0  0  0  # atno 17320 bound_to 7965
  145.3832  139.1632  143.4269 LP  0  0  0  0  0  0  0  0  0  0  0  0  # atno 17321 bound_to 7965
  139.7437  143.8885  152.3057 LP  0  0  0  0  0  0  0  0  0  0  0  0  # atno 17342 bound_to 10162
  139.8715  144.7066  150.8982 LP  0  0  0  0  0  0  0  0  0  0  0  0  # atno 17343 bound_to 10162
  156.3984  130.7662  151.2668 LP  0  0  0  0  0  0  0  0  0  0  0  0  # atno 17370 bound_to 10713
  157.7507  131.0247  150.3887 LP  0  0  0  0  0  0  0  0  0  0  0  0  # atno 17371 bound_to 10713
  139.9099  134.8366  156.1565 LP  0  0  0  0  0  0  0  0  0  0  0  0  # atno 17394 bound_to 11000
  141.0644  133.6826  156.2015 LP  0  0  0  0  0  0  0  0  0  0  0  0  # atno 17395 bound_to 11000

$$$$
