AV-unprocessed.smi:2740|AV-procd|sdf|10556|dock9
  -GOLD-   2272015 03D 1   1.00000     0.00000
 Structure written by MMmdl.
 30 31  0  0  0  0  0  0  0  0  2 V2000
  148.5853  139.2266  153.8118 C   0  0  0  0  0  0  0  0  0  0  0  0
  149.8796  139.0639  154.5344 C   0  0  0  0  0  0  0  0  0  0  0  0
  150.8851  138.1744  154.2571 C   0  0  0  0  0  0  0  0  0  0  0  0
  151.9766  138.2732  155.1211 N   0  0  0  0  0  0  0  0  0  0  0  0
  151.8349  139.2256  156.0491 C   0  0  0  0  0  0  0  0  0  0  0  0
  152.7680  139.4873  156.9790 N   0  5  0  0  0  0  0  0  0  0  0  0
  152.3940  139.8110  158.2380 C   0  0  0  0  0  0  0  0  0  0  0  0
  151.2601  139.7082  158.7122 O   0  0  0  0  0  0  0  0  0  0  0  0
  153.3948  140.2823  158.9958 N   0  0  0  0  0  0  0  0  0  0  0  0
  153.2818  140.7092  160.3864 C   0  0  0  0  0  0  0  0  0  0  0  0
  153.3090  142.2414  160.5140 C   0  0  2  0  0  0  0  0  0  0  0  0
  152.7097  142.7617  161.8199 C   0  0  0  0  0  0  0  0  0  0  0  0
  152.2009  144.1506  161.4605 C   0  0  0  0  0  0  0  0  0  0  0  0
  152.2868  144.1980  159.9327 C   0  0  0  0  0  0  0  0  0  0  0  0
  152.4769  142.8479  159.5373 O   0  0  0  0  0  0  0  0  0  0  0  0
  150.2848  140.0580  155.9079 S   0  0  0  0  0  0  0  0  0  0  0  0
  148.7563  139.5411  152.7823 H   0  0  0  0  0  0  0  0  0  0  0  0
  147.9559  139.9760  154.2923 H   0  0  0  0  0  0  0  0  0  0  0  0
  148.0334  138.2869  153.7910 H   0  0  0  0  0  0  0  0  0  0  0  0
  150.9082  137.4382  153.4675 H   0  0  0  0  0  0  0  0  0  0  0  0
  154.3083  140.3463  158.5712 H   0  0  0  0  0  0  0  0  0  0  0  0
  152.3519  140.3138  160.7955 H   0  0  0  0  0  0  0  0  0  0  0  0
  154.0889  140.2674  160.9732 H   0  0  0  0  0  0  0  0  0  0  0  0
  154.3260  142.6225  160.4026 H   0  0  0  0  0  0  0  0  0  0  0  0
  151.8713  142.1357  162.1282 H   0  0  0  0  0  0  0  0  0  0  0  0
  153.4359  142.7733  162.6332 H   0  0  0  0  0  0  0  0  0  0  0  0
  151.1751  144.2833  161.8061 H   0  0  0  0  0  0  0  0  0  0  0  0
  152.8108  144.9355  161.9086 H   0  0  0  0  0  0  0  0  0  0  0  0
  151.3939  144.6239  159.4743 H   0  0  0  0  0  0  0  0  0  0  0  0
  153.1476  144.7881  159.6148 H   0  0  0  0  0  0  0  0  0  0  0  0
  1  2  1  0  0  0  0
  1 17  1  0  0  0  0
  1 18  1  0  0  0  0
  1 19  1  0  0  0  0
  2 16  1  0  0  0  0
  2  3  2  0  0  0  0
  3  4  1  0  0  0  0
  3 20  1  0  0  0  0
  4  5  2  0  0  0  0
  5  6  1  0  0  0  0
  5 16  1  0  0  0  0
  6  7  1  0  0  0  0
  7  8  2  0  0  0  0
  7  9  1  0  0  0  0
  9 10  1  0  0  0  0
  9 21  1  0  0  0  0
 10 11  1  0  0  0  0
 10 22  1  0  0  0  0
 10 23  1  0  0  0  0
 11 15  1  0  0  0  0
 11 12  1  0  0  0  0
 11 24  1  0  0  0  0
 12 13  1  0  0  0  0
 12 25  1  0  0  0  0
 12 26  1  0  0  0  0
 13 14  1  0  0  0  0
 13 27  1  0  0  0  0
 13 28  1  0  0  0  0
 14 15  1  0  0  0  0
 14 29  1  0  0  0  0
 14 30  1  0  0  0  0
M  CHG  1   6  -1
M  END
> <s_m_source_file>
AV-unprocessed.smi

> <i_m_source_file_index>
2740

> <i_lp_mmshare_version>
43012

> <i_f3d_flags>
0

> <s_epik_input>
W0NIM11jMVtjSF1uYyhzMSlbTkhdQyg9TylbTkhdW0NIMl1bQ0BASF0yW0NIMl1bQ0gyXVtDSDJdTzI=

> <s_epik_cmdline>
J2VwaWtfcHl0aG9uJywgJy1waCcsICc3LjAnLCAnLXRuJywgJzgnLCAnLW1hJywgJzIwMCcsICctbWV0YWxfYmluZGluZycsICctaW1hZScsICc8aW5maWxlLm1hZT4nLCAnLW9tYWUnLCAnPG91dGZpbGUubWFlPic=

> <r_lp_tautomer_probability>
0.999

> <r_epik_Ionization_Penalty>
8.54039

> <r_epik_Ionization_Penalty_Charging>
6.77868

> <r_epik_Ionization_Penalty_Neutral>
1.76171

> <r_epik_State_Penalty>
6.77885

> <r_epik_Charging_Adjusted_Penalty>
13.5575

> <i_epik_Tot_Q>
-1

> <i_epik_Tot_abs_Q>
1

> <r_epik_Metal_State_Penalty>
2.69888

> <b_epik_Metal_Only>
1

> <s_lp_Force_Field>
OPLS_2005

> <r_lp_Energy>
13.1736

> <b_lp_Chiralities_Consistent>
1

> <s_lp_Variant>
AV-unprocessed.smi:2740-3

> <Gold.Version>
5.8.1

> <Gold.Id.Protein>
6NUR|6NUR_protein|mol2

> <Gold.PLP.Fitness>
43.3323

> <Gold.PLP.PLP>
-35.0720

> <Gold.PLP.part.hbond>
-1.0000

> <Gold.PLP.part.metal>
0.0000

> <Gold.PLP.part.buried>
-4.1036

> <Gold.PLP.part.nonpolar>
-29.9572

> <Gold.PLP.part.repulsive>
0.6230

> <Gold.PLP.ligand.clash>
0.0000

> <Gold.PLP.ligand.torsion>
0.5592

> <Gold.PLP.Chemscore.Hbond>
2.0000

> <Gold.PLP.Chemscore.CHOScore>
1.1191

> <Gold.PLP.Chemscore.Metal>
0.0000

> <Gold.Chemscore.Hbonds>
donor molecule, donor type, donor heavy atom, donor atom, acceptor molecule, acceptor atom, score
      P1  H  7997  8008       L1     6  2.00
      L1  C     3    20       P1  7948  0.15
      L1  C     3    20       P1  7949  0.97

> <Gold.PLP.Chemscore.Internal.Correction>
0.0215

> <Gold.Rescore>
     Score         DG    S(hbond)    S(metal)    S(lipo)     H(rot)  DE(clash)    DE(int)     intcor
     14.47     -15.24       0.93        0.00      84.11       1.25       0.14       0.62       ----

> <Gold.Chemscore.Fitness>
14.4745

> <Gold.Chemscore.DG>
-15.2364

> <Gold.Chemscore.ZeroCoef>
-5.4800

> <Gold.Chemscore.Hbond>
0.9337

> <Gold.Chemscore.Metal>
0.0000

> <Gold.Chemscore.Lipo>
84.1141

> <Gold.Chemscore.Internal_Hbond>
0.0000

> <Gold.Chemscore.DEClash>
0.1419

> <Gold.Chemscore.DEInternal>
0.6199

> <Gold.Chemscore.Rot>
1.2514

> <Gold.Chemscore.Internal.Correction>
   9.000000E+99

> <Gold.Chemscore.Hbonds>
donor molecule, donor type, donor heavy atom, donor atom, acceptor molecule, acceptor atom, score
      P1  H  7997  8008       L1     6  0.74

> <Gold.Chemscore.Hbond.Weighted>
-3.1186

> <Gold.Chemscore.Metal.Weighted>
-0.0000

> <Gold.Chemscore.Lipo.Weighted>
-9.8413

> <Gold.Chemscore.Internal_Hbond.Weighted>
0.0000

> <Gold.Chemscore.DEClash.Weighted>
0.1419

> <Gold.Chemscore.DEInternal.Weighted>
0.6199

> <Gold.Chemscore.Rot.Weighted>
3.2036

> <Gold.Chemscore.Internal.Correction.Weighted>
   9.000000E+99

> <Gold.Protein.RotatedTorsions>
[ 6907 6896 6895 6894 ] final  175.35 input  -60.11 | X-H torsion
[ 7974 7965 7964 7962 ] final  -49.75 input  175.53 | X-H torsion
[ 8008 7997 7996 7995 ] final  -61.32 input   59.86 | X-H torsion
[ 10167 10162 10161 10158 ] final  144.58 input  -65.29 | X-H torsion
[ 10718 10713 10712 10709 ] final   80.42 input   66.30 | X-H torsion
[ 10763 10752 10751 10750 ] final -131.14 input  -60.55 | X-H torsion
[ 11005 11000 10999 10996 ] final -166.90 input  -57.11 | X-H torsion

> <Gold.Protein.ActiveResidues>
 VAL166  LYS551  ARG553  GLY616  TRP617  ASP618  TYR619  PRO620  LYS621  CYS622 
 ASP623  PHE694  ASN695  SER759  ASP760  ASP761  ALA762  ILE779  LEU786  VAL792 
 PHE793  MET794  SER795  GLU796  ALA797  LYS798  CYS799  TRP800  GLU811  SER814 

> <Gold.Protein.RotatedAtoms>
  151.7376  133.3320  159.3356 H   0  0  0  0  0  0  0  0  0  0  0  0  # atno 6907 bound_to 6896
  150.7587  134.6307  159.6194 H   0  0  0  0  0  0  0  0  0  0  0  0  # atno 6908 bound_to 6896
  152.3552  134.6953  160.0276 H   0  0  0  0  0  0  0  0  0  0  0  0  # atno 6909 bound_to 6896
  145.9373  140.7695  142.9570 H   0  0  0  0  0  0  0  0  0  0  0  0  # atno 7974 bound_to 7965
  154.4442  140.1020  156.6411 H   0  0  0  0  0  0  0  0  0  0  0  0  # atno 8008 bound_to 7997
  155.5500  140.3485  155.4448 H   0  0  0  0  0  0  0  0  0  0  0  0  # atno 8009 bound_to 7997
  156.0536  140.1309  157.0011 H   0  0  0  0  0  0  0  0  0  0  0  0  # atno 8010 bound_to 7997
  139.4944  144.5962  151.6578 H   0  0  0  0  0  0  0  0  0  0  0  0  # atno 10167 bound_to 10162
  157.6805  130.9958  150.2076 H   0  0  0  0  0  0  0  0  0  0  0  0  # atno 10718 bound_to 10713
  154.8752  135.3840  154.4198 H   0  0  0  0  0  0  0  0  0  0  0  0  # atno 10763 bound_to 10752
  153.4903  135.7030  153.5893 H   0  0  0  0  0  0  0  0  0  0  0  0  # atno 10764 bound_to 10752
  153.4270  135.3888  155.2114 H   0  0  0  0  0  0  0  0  0  0  0  0  # atno 10765 bound_to 10752
  140.5593  134.5349  157.5140 H   0  0  0  0  0  0  0  0  0  0  0  0  # atno 11005 bound_to 11000
  144.6773  140.2223  143.7365 LP  0  0  0  0  0  0  0  0  0  0  0  0  # atno 17320 bound_to 7965
  145.8347  139.2102  143.1862 LP  0  0  0  0  0  0  0  0  0  0  0  0  # atno 17321 bound_to 7965
  140.5600  144.0284  150.6165 LP  0  0  0  0  0  0  0  0  0  0  0  0  # atno 17342 bound_to 10162
  140.3366  143.3045  152.0631 LP  0  0  0  0  0  0  0  0  0  0  0  0  # atno 17343 bound_to 10162
  156.2754  130.3727  149.7989 LP  0  0  0  0  0  0  0  0  0  0  0  0  # atno 17370 bound_to 10713
  156.5693  130.8418  151.3352 LP  0  0  0  0  0  0  0  0  0  0  0  0  # atno 17371 bound_to 10713
  139.9416  134.7777  156.0665 LP  0  0  0  0  0  0  0  0  0  0  0  0  # atno 17394 bound_to 11000
  141.1124  133.6639  156.3011 LP  0  0  0  0  0  0  0  0  0  0  0  0  # atno 17395 bound_to 11000

$$$$
