AV-unprocessed.smi:373|AV-procd|sdf|2449|dock2
  -GOLD-   2262022383D 1   1.00000     0.00000
 Structure written by MMmdl.
 40 41  0  0  0  0  0  0  0  0  1 V2000
  151.7207  139.7435  157.9528 C   0  0  0  0  0  0  0  0  0  0  0  0
  150.8431  140.9542  157.6168 C   0  0  0  0  0  0  0  0  0  0  0  0
  151.1251  141.5165  156.2193 C   0  0  0  0  0  0  0  0  0  0  0  0
  150.8582  140.5049  155.2595 O   0  0  0  0  0  0  0  0  0  0  0  0
  149.4865  140.1507  155.1459 C   0  0  2  0  0  0  0  0  0  0  0  0
  149.2835  139.0718  154.0621 C   0  0  0  0  0  0  0  0  0  0  0  0
  147.7845  138.8173  153.8365 C   0  0  0  0  0  0  0  0  0  0  0  0
  147.0438  140.1260  153.5163 C   0  0  0  0  0  0  0  0  0  0  0  0
  147.2956  141.1298  154.5476 N   0  0  0  0  0  0  0  0  0  0  0  0
  146.4294  142.2357  154.4654 C   0  0  0  0  0  0  0  0  0  0  0  0
  146.4369  142.9588  153.3193 N   0  0  0  0  0  0  0  0  0  0  0  0
  145.6001  144.0117  153.2082 C   0  0  0  0  0  0  0  0  0  0  0  0
  144.6997  144.4015  154.2225 C   0  0  0  0  0  0  0  0  0  0  0  0
  143.8117  145.5979  154.0378 C   0  0  0  0  0  0  0  0  0  0  0  0
  142.9227  145.8288  155.0088 N   0  0  0  0  0  0  0  0  0  0  0  0
  143.8714  146.2868  153.0213 O   0  0  0  0  0  0  0  0  0  0  0  0
  144.7034  143.6565  155.4225 C   0  0  0  0  0  0  0  0  0  0  0  0
  145.5743  142.5567  155.5490 C   0  0  0  0  0  0  0  0  0  0  0  0
  145.5922  141.6560  157.0259 Cl  0  0  0  0  0  0  0  0  0  0  0  0
  148.7094  141.4266  154.7766 C   0  0  0  0  0  0  0  0  0  0  0  0
  151.5027  139.3719  158.9543 H   0  0  0  0  0  0  0  0  0  0  0  0
  152.7792  140.0018  157.9165 H   0  0  0  0  0  0  0  0  0  0  0  0
  151.5498  138.9273  157.2505 H   0  0  0  0  0  0  0  0  0  0  0  0
  149.7928  140.6697  157.6896 H   0  0  0  0  0  0  0  0  0  0  0  0
  151.0039  141.7346  158.3611 H   0  0  0  0  0  0  0  0  0  0  0  0
  150.5023  142.3934  156.0413 H   0  0  0  0  0  0  0  0  0  0  0  0
  152.1674  141.8310  156.1476 H   0  0  0  0  0  0  0  0  0  0  0  0
  149.1116  139.7882  156.1051 H   0  0  0  0  0  0  0  0  0  0  0  0
  149.7426  139.3987  153.1283 H   0  0  0  0  0  0  0  0  0  0  0  0
  149.7735  138.1396  154.3417 H   0  0  0  0  0  0  0  0  0  0  0  0
  147.6431  138.1016  153.0264 H   0  0  0  0  0  0  0  0  0  0  0  0
  147.3530  138.3644  154.7301 H   0  0  0  0  0  0  0  0  0  0  0  0
  147.3782  140.5171  152.5544 H   0  0  0  0  0  0  0  0  0  0  0  0
  145.9754  139.9302  153.4212 H   0  0  0  0  0  0  0  0  0  0  0  0
  145.6520  144.5520  152.2740 H   0  0  0  0  0  0  0  0  0  0  0  0
  142.3001  146.6210  154.9479 H   0  0  0  0  0  0  0  0  0  0  0  0
  142.8818  145.2100  155.8058 H   0  0  0  0  0  0  0  0  0  0  0  0
  144.0548  143.9212  156.2450 H   0  0  0  0  0  0  0  0  0  0  0  0
  148.8059  142.1622  155.5764 H   0  0  0  0  0  0  0  0  0  0  0  0
  149.1373  141.8715  153.8768 H   0  0  0  0  0  0  0  0  0  0  0  0
  1  2  1  0  0  0  0
  1 21  1  0  0  0  0
  1 22  1  0  0  0  0
  1 23  1  0  0  0  0
  2  3  1  0  0  0  0
  2 24  1  0  0  0  0
  2 25  1  0  0  0  0
  3  4  1  0  0  0  0
  3 26  1  0  0  0  0
  3 27  1  0  0  0  0
  4  5  1  0  0  0  0
  5 20  1  0  0  0  0
  5  6  1  0  0  0  0
  5 28  1  0  0  0  0
  6  7  1  0  0  0  0
  6 29  1  0  0  0  0
  6 30  1  0  0  0  0
  7  8  1  0  0  0  0
  7 31  1  0  0  0  0
  7 32  1  0  0  0  0
  8  9  1  0  0  0  0
  8 33  1  0  0  0  0
  8 34  1  0  0  0  0
  9 10  1  0  0  0  0
  9 20  1  0  0  0  0
 10 18  1  0  0  0  0
 10 11  2  0  0  0  0
 11 12  1  0  0  0  0
 12 13  2  0  0  0  0
 12 35  1  0  0  0  0
 13 14  1  0  0  0  0
 13 17  1  0  0  0  0
 14 15  1  0  0  0  0
 14 16  2  0  0  0  0
 15 36  1  0  0  0  0
 15 37  1  0  0  0  0
 17 18  2  0  0  0  0
 17 38  1  0  0  0  0
 18 19  1  0  0  0  0
 20 39  1  0  0  0  0
 20 40  1  0  0  0  0
M  END
> <s_m_source_file>
AV-unprocessed.smi

> <i_m_source_file_index>
373

> <i_lp_mmshare_version>
43012

> <i_f3d_flags>
0

> <s_epik_input>
W0NIM11bQ0gyXVtDSDJdT1tDQEBIXTFbQ0gyXVtDSDJdW0NIMl1OKFtDSDJdMSljMm5bY0hdYyhDKD1PKVtOSDJdKVtjSF1jMkNs

> <s_epik_cmdline>
J2VwaWtfcHl0aG9uJywgJy1waCcsICc3LjAnLCAnLXRuJywgJzgnLCAnLW1hJywgJzIwMCcsICctbWV0YWxfYmluZGluZycsICctaW1hZScsICc8aW5maWxlLm1hZT4nLCAnLW9tYWUnLCAnPG91dGZpbGUubWFlPic=

> <r_lp_tautomer_probability>
1

> <r_epik_Ionization_Penalty>
3.23666e-05

> <r_epik_Ionization_Penalty_Charging>
0

> <r_epik_Ionization_Penalty_Neutral>
3.23666e-05

> <r_epik_State_Penalty>
-0

> <r_epik_Charging_Adjusted_Penalty>
0

> <i_epik_Tot_Q>
0

> <i_epik_Tot_abs_Q>
0

> <r_epik_Metal_State_Penalty>
-0

> <b_epik_Metal_Only>
0

> <s_lp_Force_Field>
OPLS_2005

> <r_lp_Energy>
19.8682

> <b_lp_Chiralities_Consistent>
1

> <s_lp_Variant>
AV-unprocessed.smi:373-1

> <Gold.Version>
5.8.1

> <Gold.Id.Protein>
6NUR|6NUR_protein|mol2

> <Gold.PLP.Fitness>
36.7619

> <Gold.PLP.PLP>
-33.9662

> <Gold.PLP.part.hbond>
-3.2545

> <Gold.PLP.part.metal>
0.0000

> <Gold.PLP.part.buried>
-3.8795

> <Gold.PLP.part.nonpolar>
-26.8922

> <Gold.PLP.part.repulsive>
0.5367

> <Gold.PLP.ligand.clash>
0.0000

> <Gold.PLP.ligand.torsion>
0.2314

> <Gold.PLP.Chemscore.Hbond>
0.9920

> <Gold.PLP.Chemscore.CHOScore>
0.0000

> <Gold.PLP.Chemscore.Metal>
0.0000

> <Gold.Chemscore.Hbonds>
donor molecule, donor type, donor heavy atom, donor atom, acceptor molecule, acceptor atom, score
      P1  H  7989  7998       L1     4  0.99

> <Gold.PLP.Chemscore.Internal.Correction>
0.2826

> <Gold.Rescore>
     Score         DG    S(hbond)    S(metal)    S(lipo)     H(rot)  DE(clash)    DE(int)     intcor
     11.20     -11.90       0.82        0.00      65.83       1.57       0.12       0.58       ----

> <Gold.Chemscore.Fitness>
11.2016

> <Gold.Chemscore.DG>
-11.8955

> <Gold.Chemscore.ZeroCoef>
-5.4800

> <Gold.Chemscore.Hbond>
0.8170

> <Gold.Chemscore.Metal>
0.0000

> <Gold.Chemscore.Lipo>
65.8344

> <Gold.Chemscore.Internal_Hbond>
0.0000

> <Gold.Chemscore.DEClash>
0.1167

> <Gold.Chemscore.DEInternal>
0.5772

> <Gold.Chemscore.Rot>
1.5687

> <Gold.Chemscore.Internal.Correction>
   9.000000E+99

> <Gold.Chemscore.Hbonds>
donor molecule, donor type, donor heavy atom, donor atom, acceptor molecule, acceptor atom, score
      P1  H  7989  7998       L1     4  0.62

> <Gold.Chemscore.Hbond.Weighted>
-2.7286

> <Gold.Chemscore.Metal.Weighted>
-0.0000

> <Gold.Chemscore.Lipo.Weighted>
-7.7026

> <Gold.Chemscore.Internal_Hbond.Weighted>
0.0000

> <Gold.Chemscore.DEClash.Weighted>
0.1167

> <Gold.Chemscore.DEInternal.Weighted>
0.5772

> <Gold.Chemscore.Rot.Weighted>
4.0158

> <Gold.Chemscore.Internal.Correction.Weighted>
   9.000000E+99

> <Gold.Protein.RotatedTorsions>
[ 6907 6896 6895 6894 ] final  -32.13 input  -60.11 | X-H torsion
[ 7974 7965 7964 7962 ] final -174.31 input  175.53 | X-H torsion
[ 8008 7997 7996 7995 ] final  -73.70 input   59.86 | X-H torsion
[ 10167 10162 10161 10158 ] final -137.81 input  -65.29 | X-H torsion
[ 10718 10713 10712 10709 ] final  142.91 input   66.30 | X-H torsion
[ 10763 10752 10751 10750 ] final -146.86 input  -60.55 | X-H torsion
[ 11005 11000 10999 10996 ] final   29.70 input  -57.11 | X-H torsion

> <Gold.Protein.ActiveResidues>
 VAL166  LYS551  ARG553  GLY616  TRP617  ASP618  TYR619  PRO620  LYS621  CYS622 
 ASP623  PHE694  ASN695  SER759  ASP760  ASP761  ALA762  ILE779  LEU786  VAL792 
 PHE793  MET794  SER795  GLU796  ALA797  LYS798  CYS799  TRP800  GLU811  SER814 

> <Gold.Protein.RotatedAtoms>
  151.0829  134.9869  159.8364 H   0  0  0  0  0  0  0  0  0  0  0  0  # atno 6907 bound_to 6896
  152.5421  134.2160  159.8779 H   0  0  0  0  0  0  0  0  0  0  0  0  # atno 6908 bound_to 6896
  151.2191  133.4469  159.2633 H   0  0  0  0  0  0  0  0  0  0  0  0  # atno 6909 bound_to 6896
  144.7132  140.1490  143.6385 H   0  0  0  0  0  0  0  0  0  0  0  0  # atno 7974 bound_to 7965
  154.5269  140.0774  156.8274 H   0  0  0  0  0  0  0  0  0  0  0  0  # atno 8008 bound_to 7997
  155.3457  140.3410  155.4221 H   0  0  0  0  0  0  0  0  0  0  0  0  # atno 8009 bound_to 7997
  156.1741  140.1629  156.8382 H   0  0  0  0  0  0  0  0  0  0  0  0  # atno 8010 bound_to 7997
  139.8540  143.7162  152.2655 H   0  0  0  0  0  0  0  0  0  0  0  0  # atno 10167 bound_to 10162
  157.3751  131.0984  151.0792 H   0  0  0  0  0  0  0  0  0  0  0  0  # atno 10718 bound_to 10713
  154.8315  135.3375  154.6728 H   0  0  0  0  0  0  0  0  0  0  0  0  # atno 10763 bound_to 10752
  153.7348  135.6949  153.4985 H   0  0  0  0  0  0  0  0  0  0  0  0  # atno 10764 bound_to 10752
  153.2286  135.4424  155.0522 H   0  0  0  0  0  0  0  0  0  0  0  0  # atno 10765 bound_to 10752
  140.3022  134.2744  155.7751 H   0  0  0  0  0  0  0  0  0  0  0  0  # atno 11005 bound_to 11000
  145.9133  139.2500  143.1424 LP  0  0  0  0  0  0  0  0  0  0  0  0  # atno 17320 bound_to 7965
  145.9694  140.8772  143.0170 LP  0  0  0  0  0  0  0  0  0  0  0  0  # atno 17321 bound_to 7965
  139.7437  144.7553  151.0612 LP  0  0  0  0  0  0  0  0  0  0  0  0  # atno 17342 bound_to 10162
  140.7784  143.4941  150.9855 LP  0  0  0  0  0  0  0  0  0  0  0  0  # atno 17343 bound_to 10162
  157.1882  130.6340  149.5695 LP  0  0  0  0  0  0  0  0  0  0  0  0  # atno 17370 bound_to 10713
  155.9763  130.4731  150.6522 LP  0  0  0  0  0  0  0  0  0  0  0  0  # atno 17371 bound_to 10713
  141.2125  133.7653  156.9784 LP  0  0  0  0  0  0  0  0  0  0  0  0  # atno 17394 bound_to 11000
  140.1099  134.9483  157.2050 LP  0  0  0  0  0  0  0  0  0  0  0  0  # atno 17395 bound_to 11000

$$$$
