AV-unprocessed.smi:2134|AV-procd|sdf|8694|dock10
  -GOLD-   2272011453D 1   1.00000     0.00000
 Structure written by MMmdl.
 35 36  0  0  0  0  0  0  0  0  1 V2000
  152.1802  137.9143  154.2995 C   0  0  0  0  0  0  0  0  0  0  0  0
  151.2237  138.9549  154.6712 N   0  0  0  0  0  0  0  0  0  0  0  0
  149.9560  138.7885  154.1524 N   0  0  0  0  0  0  0  0  0  0  0  0
  149.0655  139.7296  154.1954 C   0  0  0  0  0  0  0  0  0  0  0  0
  147.7221  139.5104  153.5976 C   0  0  0  0  0  0  0  0  0  0  0  0
  146.7774  140.2504  153.8734 O   0  0  0  0  0  0  0  0  0  0  0  0
  147.6226  138.4812  152.7354 N   0  0  0  0  0  0  0  0  0  0  0  0
  146.4366  138.1325  151.9573 C   0  0  0  0  0  0  0  0  0  0  0  0
  145.3905  137.3857  152.8068 C   0  0  0  0  0  0  0  0  0  0  0  0
  145.0608  135.9986  152.2828 C   0  0  0  0  0  0  0  0  0  0  0  0
  143.9587  135.2752  152.7849 C   0  0  0  0  0  0  0  0  0  0  0  0
  143.7119  133.9820  152.2859 C   0  0  0  0  0  0  0  0  0  0  0  0
  144.5789  133.4668  151.3016 C   0  0  0  0  0  0  0  0  0  0  0  0
  145.6350  134.1509  150.8115 N   0  0  0  0  0  0  0  0  0  0  0  0
  145.8658  135.3897  151.2967 C   0  0  0  0  0  0  0  0  0  0  0  0
  149.3928  141.0732  154.8161 C   0  0  0  0  0  0  0  0  0  0  0  0
  150.4986  140.9643  155.8847 C   0  0  0  0  0  0  0  0  0  0  0  0
  151.5962  139.9740  155.4851 C   0  0  0  0  0  0  0  0  0  0  0  0
  152.7376  140.1179  155.9226 O   0  0  0  0  0  0  0  0  0  0  0  0
  152.5840  137.4264  155.1879 H   0  0  0  0  0  0  0  0  0  0  0  0
  153.0117  138.3424  153.7376 H   0  0  0  0  0  0  0  0  0  0  0  0
  151.7251  137.1413  153.6779 H   0  0  0  0  0  0  0  0  0  0  0  0
  148.4502  137.9249  152.5743 H   0  0  0  0  0  0  0  0  0  0  0  0
  146.0009  139.0520  151.5661 H   0  0  0  0  0  0  0  0  0  0  0  0
  146.7074  137.5327  151.0869 H   0  0  0  0  0  0  0  0  0  0  0  0
  145.7471  137.3014  153.8342 H   0  0  0  0  0  0  0  0  0  0  0  0
  144.4708  137.9699  152.8534 H   0  0  0  0  0  0  0  0  0  0  0  0
  143.3191  135.6974  153.5461 H   0  0  0  0  0  0  0  0  0  0  0  0
  142.8800  133.3978  152.6505 H   0  0  0  0  0  0  0  0  0  0  0  0
  144.4195  132.4780  150.8976 H   0  0  0  0  0  0  0  0  0  0  0  0
  146.7234  135.9072  150.8923 H   0  0  0  0  0  0  0  0  0  0  0  0
  149.7003  141.7656  154.0317 H   0  0  0  0  0  0  0  0  0  0  0  0
  148.5069  141.5085  155.2804 H   0  0  0  0  0  0  0  0  0  0  0  0
  150.9316  141.9453  156.0834 H   0  0  0  0  0  0  0  0  0  0  0  0
  150.0678  140.6144  156.8235 H   0  0  0  0  0  0  0  0  0  0  0  0
  1  2  1  0  0  0  0
  1 20  1  0  0  0  0
  1 21  1  0  0  0  0
  1 22  1  0  0  0  0
  2 18  1  0  0  0  0
  2  3  1  0  0  0  0
  3  4  2  0  0  0  0
  4  5  1  0  0  0  0
  4 16  1  0  0  0  0
  5  6  2  0  0  0  0
  5  7  1  0  0  0  0
  7  8  1  0  0  0  0
  7 23  1  0  0  0  0
  8  9  1  0  0  0  0
  8 24  1  0  0  0  0
  8 25  1  0  0  0  0
  9 10  1  0  0  0  0
  9 26  1  0  0  0  0
  9 27  1  0  0  0  0
 10 15  1  0  0  0  0
 10 11  2  0  0  0  0
 11 12  1  0  0  0  0
 11 28  1  0  0  0  0
 12 13  2  0  0  0  0
 12 29  1  0  0  0  0
 13 14  1  0  0  0  0
 13 30  1  0  0  0  0
 14 15  2  0  0  0  0
 15 31  1  0  0  0  0
 16 17  1  0  0  0  0
 16 32  1  0  0  0  0
 16 33  1  0  0  0  0
 17 18  1  0  0  0  0
 17 34  1  0  0  0  0
 17 35  1  0  0  0  0
 18 19  2  0  0  0  0
M  END
> <s_m_source_file>
AV-unprocessed.smi

> <i_m_source_file_index>
2134

> <i_lp_mmshare_version>
43012

> <i_f3d_flags>
0

> <s_epik_input>
Tz1DMVtDSDJdW0NIMl1DKD1OTjFbQ0gzXSlDKD1PKVtOSF1bQ0gyXVtDSDJdYzJbY0hdW2NIXVtjSF1uW2NIXTI=

> <s_epik_cmdline>
J2VwaWtfcHl0aG9uJywgJy1waCcsICc3LjAnLCAnLXRuJywgJzgnLCAnLW1hJywgJzIwMCcsICctbWV0YWxfYmluZGluZycsICctaW1hZScsICc8aW5maWxlLm1hZT4nLCAnLW9tYWUnLCAnPG91dGZpbGUubWFlPic=

> <r_epik_Ionization_Penalty>
0.00938916

> <r_epik_Ionization_Penalty_Charging>
0

> <r_epik_Ionization_Penalty_Neutral>
0.00938916

> <r_epik_State_Penalty>
0.00707201

> <r_epik_Charging_Adjusted_Penalty>
0.00707201

> <i_epik_Tot_Q>
0

> <i_epik_Tot_abs_Q>
0

> <r_epik_Metal_State_Penalty>
0.0638513

> <b_epik_Metal_Only>
0

> <s_epik_Chemistry_Notes>
This compound has an imine and may undergo hydrolysis.

> <s_lp_Force_Field>
OPLS_2005

> <r_lp_Energy>
16.2415

> <b_lp_Chiralities_Consistent>
1

> <s_lp_Variant>
AV-unprocessed.smi:2134-1

> <Gold.Version>
5.8.1

> <Gold.Id.Protein>
6NUR|6NUR_protein|mol2

> <Gold.PLP.Fitness>
43.1040

> <Gold.PLP.PLP>
-35.9450

> <Gold.PLP.part.hbond>
-3.0000

> <Gold.PLP.part.metal>
0.0000

> <Gold.PLP.part.buried>
0.2271

> <Gold.PLP.part.nonpolar>
-34.4340

> <Gold.PLP.part.repulsive>
0.9325

> <Gold.PLP.ligand.clash>
0.0000

> <Gold.PLP.ligand.torsion>
0.7716

> <Gold.PLP.Chemscore.Hbond>
1.8960

> <Gold.PLP.Chemscore.CHOScore>
0.9997

> <Gold.PLP.Chemscore.Metal>
0.0000

> <Gold.Chemscore.Hbonds>
donor molecule, donor type, donor heavy atom, donor atom, acceptor molecule, acceptor atom, score
      L1  H     7    23       P1  7948  0.82
      P1  H  7997  8010       L1    19  1.00
      L1  C    15    31       P1  7948  1.00

> <Gold.PLP.Chemscore.Internal.Correction>
0.0150

> <Gold.Rescore>
     Score         DG    S(hbond)    S(metal)    S(lipo)     H(rot)  DE(clash)    DE(int)     intcor
     15.30     -15.99       1.88        0.00      67.80       1.45       0.11       0.58       ----

> <Gold.Chemscore.Fitness>
15.2951

> <Gold.Chemscore.DG>
-15.9851

> <Gold.Chemscore.ZeroCoef>
-5.4800

> <Gold.Chemscore.Hbond>
1.8799

> <Gold.Chemscore.Metal>
0.0000

> <Gold.Chemscore.Lipo>
67.8042

> <Gold.Chemscore.Internal_Hbond>
0.0000

> <Gold.Chemscore.DEClash>
0.1102

> <Gold.Chemscore.DEInternal>
0.5799

> <Gold.Chemscore.Rot>
1.4480

> <Gold.Chemscore.Internal.Correction>
   9.000000E+99

> <Gold.Chemscore.Hbonds>
donor molecule, donor type, donor heavy atom, donor atom, acceptor molecule, acceptor atom, score
      L1  H     7    23       P1  7948  0.81
      P1  H  7997  8010       L1    19  0.96

> <Gold.Chemscore.Hbond.Weighted>
-6.2790

> <Gold.Chemscore.Metal.Weighted>
-0.0000

> <Gold.Chemscore.Lipo.Weighted>
-7.9331

> <Gold.Chemscore.Internal_Hbond.Weighted>
0.0000

> <Gold.Chemscore.DEClash.Weighted>
0.1102

> <Gold.Chemscore.DEInternal.Weighted>
0.5799

> <Gold.Chemscore.Rot.Weighted>
3.7070

> <Gold.Chemscore.Internal.Correction.Weighted>
   9.000000E+99

> <Gold.Protein.RotatedTorsions>
[ 6907 6896 6895 6894 ] final   82.90 input  -60.11 | X-H torsion
[ 7974 7965 7964 7962 ] final  -45.19 input  175.53 | X-H torsion
[ 8008 7997 7996 7995 ] final   98.65 input   59.86 | X-H torsion
[ 10167 10162 10161 10158 ] final  -10.41 input  -65.29 | X-H torsion
[ 10718 10713 10712 10709 ] final  -83.22 input   66.30 | X-H torsion
[ 10763 10752 10751 10750 ] final  101.38 input  -60.55 | X-H torsion
[ 11005 11000 10999 10996 ] final   50.81 input  -57.11 | X-H torsion

> <Gold.Protein.ActiveResidues>
 VAL166  LYS551  ARG553  GLY616  TRP617  ASP618  TYR619  PRO620  LYS621  CYS622 
 ASP623  PHE694  ASN695  SER759  ASP760  ASP761  ALA762  ILE779  LEU786  VAL792 
 PHE793  MET794  SER795  GLU796  ALA797  LYS798  CYS799  TRP800  GLU811  SER814 

> <Gold.Protein.RotatedAtoms>
  152.5312  134.2978  159.9066 H   0  0  0  0  0  0  0  0  0  0  0  0  # atno 6907 bound_to 6896
  151.2929  133.4151  159.2642 H   0  0  0  0  0  0  0  0  0  0  0  0  # atno 6908 bound_to 6896
  151.0185  134.9467  159.8103 H   0  0  0  0  0  0  0  0  0  0  0  0  # atno 6909 bound_to 6896
  145.9845  140.7247  142.9347 H   0  0  0  0  0  0  0  0  0  0  0  0  # atno 7974 bound_to 7965
  156.1025  140.3240  155.7962 H   0  0  0  0  0  0  0  0  0  0  0  0  # atno 8008 bound_to 7997
  155.4811  140.0554  157.2984 H   0  0  0  0  0  0  0  0  0  0  0  0  # atno 8009 bound_to 7997
  154.4706  140.2009  156.0019 H   0  0  0  0  0  0  0  0  0  0  0  0  # atno 8010 bound_to 7997
  140.7113  143.5751  150.9051 H   0  0  0  0  0  0  0  0  0  0  0  0  # atno 10167 bound_to 10162
  156.0021  130.4659  150.4224 H   0  0  0  0  0  0  0  0  0  0  0  0  # atno 10718 bound_to 10713
  153.3260  135.4046  155.1456 H   0  0  0  0  0  0  0  0  0  0  0  0  # atno 10763 bound_to 10752
  154.8612  135.3599  154.5534 H   0  0  0  0  0  0  0  0  0  0  0  0  # atno 10764 bound_to 10752
  153.5970  135.7072  153.5459 H   0  0  0  0  0  0  0  0  0  0  0  0  # atno 10765 bound_to 10752
  140.0986  134.5112  155.8784 H   0  0  0  0  0  0  0  0  0  0  0  0  # atno 11005 bound_to 11000
  144.6871  140.2965  143.7270 LP  0  0  0  0  0  0  0  0  0  0  0  0  # atno 17320 bound_to 7965
  145.7720  139.1860  143.2207 LP  0  0  0  0  0  0  0  0  0  0  0  0  # atno 17321 bound_to 7965
  139.9477  143.6308  152.3037 LP  0  0  0  0  0  0  0  0  0  0  0  0  # atno 17342 bound_to 10162
  139.6815  144.7655  151.1599 LP  0  0  0  0  0  0  0  0  0  0  0  0  # atno 17343 bound_to 10162
  157.2279  131.0497  151.2509 LP  0  0  0  0  0  0  0  0  0  0  0  0  # atno 17370 bound_to 10713
  157.3739  130.7195  149.6583 LP  0  0  0  0  0  0  0  0  0  0  0  0  # atno 17371 bound_to 10713
  141.2099  133.6689  156.6472 LP  0  0  0  0  0  0  0  0  0  0  0  0  # atno 17394 bound_to 11000
  140.3252  134.7975  157.4283 LP  0  0  0  0  0  0  0  0  0  0  0  0  # atno 17395 bound_to 11000

$$$$
