AV-unprocessed.smi:2757|AV-procd|sdf|10620|dock6
  -GOLD-   2272015 63D 1   1.00000     0.00000
 Structure written by MMmdl.
 32 33  0  0  0  0  0  0  0  0  2 V2000
  153.7901  140.7071  160.2570 C   0  0  0  0  0  0  0  0  0  0  0  0
  152.7213  140.9316  159.2961 N   0  0  0  0  0  0  0  0  0  0  0  0
  152.5217  140.1852  158.1997 C   0  0  0  0  0  0  0  0  0  0  0  0
  153.2251  139.2225  157.8915 O   0  0  0  0  0  0  0  0  0  0  0  0
  151.3703  140.6149  157.3388 C   0  0  0  0  0  0  0  0  0  0  0  0
  150.5247  141.6921  157.7354 C   0  0  0  0  0  0  0  0  0  0  0  0
  149.6108  141.7828  156.7252 C   0  0  0  0  0  0  0  0  0  0  0  0
  149.9197  140.8083  155.7994 N   0  0  0  0  0  0  0  0  0  0  0  0
  149.2387  140.5089  154.5487 C   0  0  2  0  0  0  0  0  0  0  0  0
  147.8164  141.1047  154.5171 C   0  0  0  0  0  0  0  0  0  0  0  0
  147.1209  140.7543  153.1930 C   0  0  0  0  0  0  0  0  0  0  0  0
  147.1284  139.2349  152.9534 C   0  0  0  0  0  0  0  0  0  0  0  0
  148.5084  138.7034  152.9990 N   0  3  0  0  0  0  0  0  0  0  0  0
  149.1962  138.9899  154.2773 C   0  0  0  0  0  0  0  0  0  0  0  0
  151.0051  140.0946  156.1741 N   0  0  0  0  0  0  0  0  0  0  0  0
  153.7143  141.4263  161.0726 H   0  0  0  0  0  0  0  0  0  0  0  0
  154.7659  140.8283  159.7852 H   0  0  0  0  0  0  0  0  0  0  0  0
  153.7295  139.7035  160.6801 H   0  0  0  0  0  0  0  0  0  0  0  0
  152.0965  141.7063  159.4666 H   0  0  0  0  0  0  0  0  0  0  0  0
  150.5775  142.3027  158.6249 H   0  0  0  0  0  0  0  0  0  0  0  0
  148.7747  142.4534  156.5917 H   0  0  0  0  0  0  0  0  0  0  0  0
  149.8172  140.9779  153.7508 H   0  0  0  0  0  0  0  0  0  0  0  0
  147.2242  140.7170  155.3472 H   0  0  0  0  0  0  0  0  0  0  0  0
  147.8569  142.1873  154.6421 H   0  0  0  0  0  0  0  0  0  0  0  0
  146.0956  141.1256  153.2013 H   0  0  0  0  0  0  0  0  0  0  0  0
  147.6264  141.2594  152.3688 H   0  0  0  0  0  0  0  0  0  0  0  0
  146.5244  138.7288  153.7077 H   0  0  0  0  0  0  0  0  0  0  0  0
  146.6885  139.0024  151.9833 H   0  0  0  0  0  0  0  0  0  0  0  0
  148.4790  137.7033  152.8599 H   0  0  0  0  0  0  0  0  0  0  0  0
  150.2069  138.5833  154.2325 H   0  0  0  0  0  0  0  0  0  0  0  0
  148.6774  138.4651  155.0810 H   0  0  0  0  0  0  0  0  0  0  0  0
  149.0391  139.1211  152.2478 H   0  0  0  0  0  0  0  0  0  0  0  0
  1  2  1  0  0  0  0
  1 16  1  0  0  0  0
  1 17  1  0  0  0  0
  1 18  1  0  0  0  0
  2  3  1  0  0  0  0
  2 19  1  0  0  0  0
  3  4  2  0  0  0  0
  3  5  1  0  0  0  0
  5 15  2  0  0  0  0
  5  6  1  0  0  0  0
  6  7  2  0  0  0  0
  6 20  1  0  0  0  0
  7  8  1  0  0  0  0
  7 21  1  0  0  0  0
  8  9  1  0  0  0  0
  8 15  1  0  0  0  0
  9 14  1  0  0  0  0
  9 10  1  0  0  0  0
  9 22  1  0  0  0  0
 10 11  1  0  0  0  0
 10 23  1  0  0  0  0
 10 24  1  0  0  0  0
 11 12  1  0  0  0  0
 11 25  1  0  0  0  0
 11 26  1  0  0  0  0
 12 13  1  0  0  0  0
 12 27  1  0  0  0  0
 12 28  1  0  0  0  0
 13 14  1  0  0  0  0
 13 29  1  0  0  0  0
 13 32  1  0  0  0  0
 14 30  1  0  0  0  0
 14 31  1  0  0  0  0
M  CHG  1  13   1
M  END
> <s_m_source_file>
AV-unprocessed.smi

> <i_m_source_file_index>
2757

> <i_lp_mmshare_version>
43012

> <i_f3d_flags>
0

> <s_epik_input>
W0NIM11bTkhdQyg9TyljMVtjSF1bY0hdbihuMSlbQ0BASF0yW0NIMl1bQ0gyXVtDSDJdW05IXVtDSDJdMg==

> <s_epik_cmdline>
J2VwaWtfcHl0aG9uJywgJy1waCcsICc3LjAnLCAnLXRuJywgJzgnLCAnLW1hJywgJzIwMCcsICctbWV0YWxfYmluZGluZycsICctaW1hZScsICc8aW5maWxlLm1hZT4nLCAnLW9tYWUnLCAnPG91dGZpbGUubWFlPic=

> <r_lp_tautomer_probability>
1

> <r_epik_Ionization_Penalty>
0.000652722

> <r_epik_Ionization_Penalty_Charging>
0.000651447

> <r_epik_Ionization_Penalty_Neutral>
1.27533e-06

> <r_epik_State_Penalty>
0.000412577

> <r_epik_Charging_Adjusted_Penalty>
0.00106402

> <i_epik_Tot_Q>
1

> <i_epik_Tot_abs_Q>
1

> <r_epik_Metal_State_Penalty>
-0

> <b_epik_Metal_Only>
0

> <s_lp_Force_Field>
OPLS_2005

> <r_lp_Energy>
20.0976

> <b_lp_Chiralities_Consistent>
1

> <s_lp_Variant>
AV-unprocessed.smi:2757-1

> <Gold.Version>
5.8.1

> <Gold.Id.Protein>
6NUR|6NUR_protein|mol2

> <Gold.PLP.Fitness>
41.1807

> <Gold.PLP.PLP>
-27.8924

> <Gold.PLP.part.hbond>
-2.9207

> <Gold.PLP.part.metal>
0.0000

> <Gold.PLP.part.buried>
-3.0485

> <Gold.PLP.part.nonpolar>
-22.1303

> <Gold.PLP.part.repulsive>
0.1905

> <Gold.PLP.ligand.clash>
0.0000

> <Gold.PLP.ligand.torsion>
0.5717

> <Gold.PLP.Chemscore.Hbond>
3.8788

> <Gold.PLP.Chemscore.CHOScore>
0.9255

> <Gold.PLP.Chemscore.Metal>
0.0000

> <Gold.Chemscore.Hbonds>
donor molecule, donor type, donor heavy atom, donor atom, acceptor molecule, acceptor atom, score
      L1  H    13    29       P1  7948  1.92
      L1  H    13    32       P1  7957  0.98
      P1  H  7997  8008       L1     4  1.00
      L1  C     7    21       P1  8028  0.93

> <Gold.PLP.Chemscore.Internal.Correction>
0.0189

> <Gold.Rescore>
     Score         DG    S(hbond)    S(metal)    S(lipo)     H(rot)  DE(clash)    DE(int)     intcor
     18.74     -19.36       2.85        0.00      59.30       1.00       0.04       0.58       ----

> <Gold.Chemscore.Fitness>
18.7433

> <Gold.Chemscore.DG>
-19.3616

> <Gold.Chemscore.ZeroCoef>
-5.4800

> <Gold.Chemscore.Hbond>
2.8454

> <Gold.Chemscore.Metal>
0.0000

> <Gold.Chemscore.Lipo>
59.2983

> <Gold.Chemscore.Internal_Hbond>
0.0000

> <Gold.Chemscore.DEClash>
0.0354

> <Gold.Chemscore.DEInternal>
0.5830

> <Gold.Chemscore.Rot>
1.0000

> <Gold.Chemscore.Internal.Correction>
   9.000000E+99

> <Gold.Chemscore.Hbonds>
donor molecule, donor type, donor heavy atom, donor atom, acceptor molecule, acceptor atom, score
      L1  H    13    29       P1  7948  0.92
      L1  H    13    32       P1  7957  0.90
      P1  H  7997  8008       L1     4  0.39

> <Gold.Chemscore.Hbond.Weighted>
-9.5037

> <Gold.Chemscore.Metal.Weighted>
-0.0000

> <Gold.Chemscore.Lipo.Weighted>
-6.9379

> <Gold.Chemscore.Internal_Hbond.Weighted>
0.0000

> <Gold.Chemscore.DEClash.Weighted>
0.0354

> <Gold.Chemscore.DEInternal.Weighted>
0.5830

> <Gold.Chemscore.Rot.Weighted>
2.5600

> <Gold.Chemscore.Internal.Correction.Weighted>
   9.000000E+99

> <Gold.Protein.RotatedTorsions>
[ 6907 6896 6895 6894 ] final -174.87 input  -60.11 | X-H torsion
[ 7974 7965 7964 7962 ] final  133.57 input  175.53 | X-H torsion
[ 8008 7997 7996 7995 ] final  -96.50 input   59.86 | X-H torsion
[ 10167 10162 10161 10158 ] final   -2.27 input  -65.29 | X-H torsion
[ 10718 10713 10712 10709 ] final -169.28 input   66.30 | X-H torsion
[ 10763 10752 10751 10750 ] final -151.90 input  -60.55 | X-H torsion
[ 11005 11000 10999 10996 ] final   89.17 input  -57.11 | X-H torsion

> <Gold.Protein.ActiveResidues>
 VAL166  LYS551  ARG553  GLY616  TRP617  ASP618  TYR619  PRO620  LYS621  CYS622 
 ASP623  PHE694  ASN695  SER759  ASP760  ASP761  ALA762  ILE779  LEU786  VAL792 
 PHE793  MET794  SER795  GLU796  ALA797  LYS798  CYS799  TRP800  GLU811  SER814 

> <Gold.Protein.RotatedAtoms>
  151.5794  133.3379  159.3005 H   0  0  0  0  0  0  0  0  0  0  0  0  # atno 6907 bound_to 6896
  150.8322  134.7583  159.6874 H   0  0  0  0  0  0  0  0  0  0  0  0  # atno 6908 bound_to 6896
  152.4404  134.5609  159.9945 H   0  0  0  0  0  0  0  0  0  0  0  0  # atno 6909 bound_to 6896
  144.9851  139.4463  143.5367 H   0  0  0  0  0  0  0  0  0  0  0  0  # atno 7974 bound_to 7965
  154.7752  140.0471  157.1083 H   0  0  0  0  0  0  0  0  0  0  0  0  # atno 8008 bound_to 7997
  154.9771  140.3097  155.4943 H   0  0  0  0  0  0  0  0  0  0  0  0  # atno 8009 bound_to 7997
  156.2928  140.2242  156.4868 H   0  0  0  0  0  0  0  0  0  0  0  0  # atno 8010 bound_to 7997
  140.6844  143.6676  150.8212 H   0  0  0  0  0  0  0  0  0  0  0  0  # atno 10167 bound_to 10162
  156.7092  130.9227  151.3087 H   0  0  0  0  0  0  0  0  0  0  0  0  # atno 10718 bound_to 10713
  154.8029  135.3249  154.7505 H   0  0  0  0  0  0  0  0  0  0  0  0  # atno 10763 bound_to 10752
  153.8170  135.6891  153.4837 H   0  0  0  0  0  0  0  0  0  0  0  0  # atno 10764 bound_to 10752
  153.1756  135.4606  154.9904 H   0  0  0  0  0  0  0  0  0  0  0  0  # atno 10765 bound_to 10752
  139.8881  134.8534  156.3104 H   0  0  0  0  0  0  0  0  0  0  0  0  # atno 11005 bound_to 11000
  146.3418  139.9149  142.8775 LP  0  0  0  0  0  0  0  0  0  0  0  0  # atno 17320 bound_to 7965
  145.2364  140.9993  143.3961 LP  0  0  0  0  0  0  0  0  0  0  0  0  # atno 17321 bound_to 7965
  140.0381  143.5374  152.2730 LP  0  0  0  0  0  0  0  0  0  0  0  0  # atno 17342 bound_to 10162
  139.6191  144.7625  151.2780 LP  0  0  0  0  0  0  0  0  0  0  0  0  # atno 17343 bound_to 10162
  157.6943  130.9265  150.0600 LP  0  0  0  0  0  0  0  0  0  0  0  0  # atno 17370 bound_to 10713
  156.1673  130.3645  149.9214 LP  0  0  0  0  0  0  0  0  0  0  0  0  # atno 17371 bound_to 10713
  140.9854  133.7241  156.0734 LP  0  0  0  0  0  0  0  0  0  0  0  0  # atno 17394 bound_to 11000
  140.7695  134.3849  157.5510 LP  0  0  0  0  0  0  0  0  0  0  0  0  # atno 17395 bound_to 11000

$$$$
