AV-unprocessed.smi:112|AV-procd|sdf|1084|dock8
  -GOLD-   2262018183D 1   1.00000     0.00000
 Structure written by MMmdl.
 54 57  0  0  0  0  0  0  0  0  3 V2000
  150.0276  136.4049  154.6812 C   0  0  0  0  0  0  0  0  0  0  0  0
  149.5469  137.7212  155.2714 C   0  0  0  0  0  0  0  0  0  0  0  0
  148.2582  137.9200  155.6300 C   0  0  0  0  0  0  0  0  0  0  0  0
  147.7834  139.1021  156.1655 N   0  0  0  0  0  0  0  0  0  0  0  0
  146.3366  139.2157  156.5910 C   0  0  1  0  0  0  0  0  0  0  0  0
  145.6394  140.4360  156.0022 C   0  0  0  0  0  0  0  0  0  0  0  0
  144.2067  139.9509  156.0443 C   0  0  1  0  0  0  0  0  0  0  0  0
  143.3792  140.6920  155.1697 O   0  0  0  0  0  0  0  0  0  0  0  0
  144.3288  138.4451  155.7203 C   0  0  1  0  0  0  0  0  0  0  0  0
  144.2040  138.0819  154.2259 C   0  0  0  0  0  0  0  0  0  0  0  0
  145.2356  138.7067  153.4924 O   0  0  0  0  0  0  0  0  0  0  0  0
  145.6524  138.0904  156.1369 O   0  0  0  0  0  0  0  0  0  0  0  0
  148.6799  140.1649  156.4073 C   0  0  0  0  0  0  0  0  0  0  0  0
  148.2939  141.2265  156.9014 O   0  0  0  0  0  0  0  0  0  0  0  0
  150.0364  139.9878  156.0496 N   0  0  0  0  0  0  0  0  0  0  0  0
  150.9801  141.1078  156.2713 C   0  0  0  0  0  0  0  0  0  0  0  0
  151.9173  140.9024  157.4819 C   0  0  0  0  0  0  0  0  0  0  0  0
  152.6859  139.9400  157.4823 O   0  0  0  0  0  0  0  0  0  0  0  0
  151.8494  141.8006  158.4960 N   0  0  0  0  0  0  0  0  0  0  0  0
  150.9562  142.9722  158.4859 C   0  0  0  0  0  0  0  0  0  0  0  0
  151.2082  143.7212  159.8128 C   0  0  0  0  0  0  0  0  0  0  0  0
  152.2478  142.8762  160.4875 C   0  0  0  0  0  0  0  0  0  0  0  0
  152.8309  143.1084  161.7446 C   0  0  0  0  0  0  0  0  0  0  0  0
  153.7998  142.1950  162.2291 C   0  0  0  0  0  0  0  0  0  0  0  0
  154.4331  142.4062  163.5458 N   0  3  0  0  0  0  0  0  0  0  0  0
  155.3491  141.6603  163.8772 O   0  0  0  0  0  0  0  0  0  0  0  0
  154.0156  143.3187  164.2516 O   0  5  0  0  0  0  0  0  0  0  0  0
  154.1516  141.0741  161.4308 C   0  0  0  0  0  0  0  0  0  0  0  0
  153.5561  140.8570  160.1689 C   0  0  0  0  0  0  0  0  0  0  0  0
  152.5942  141.7808  159.7052 C   0  0  0  0  0  0  0  0  0  0  0  0
  150.5250  138.7938  155.4637 C   0  0  0  0  0  0  0  0  0  0  0  0
  151.7104  138.6913  155.1414 O   0  0  0  0  0  0  0  0  0  0  0  0
  149.2147  135.6848  154.5818 H   0  0  0  0  0  0  0  0  0  0  0  0
  150.7930  135.9586  155.3169 H   0  0  0  0  0  0  0  0  0  0  0  0
  150.4547  136.5636  153.6904 H   0  0  0  0  0  0  0  0  0  0  0  0
  147.5632  137.1054  155.4953 H   0  0  0  0  0  0  0  0  0  0  0  0
  146.2899  139.2174  157.6797 H   0  0  0  0  0  0  0  0  0  0  0  0
  145.8277  141.3277  156.6006 H   0  0  0  0  0  0  0  0  0  0  0  0
  145.9626  140.6127  154.9764 H   0  0  0  0  0  0  0  0  0  0  0  0
  143.8249  140.0652  157.0601 H   0  0  0  0  0  0  0  0  0  0  0  0
  143.6749  140.5502  154.2834 H   0  0  0  0  0  0  0  0  0  0  0  0
  143.5886  137.8906  156.2990 H   0  0  0  0  0  0  0  0  0  0  0  0
  144.3236  137.0096  154.0730 H   0  0  0  0  0  0  0  0  0  0  0  0
  143.2311  138.3575  153.8206 H   0  0  0  0  0  0  0  0  0  0  0  0
  144.8830  139.4779  153.0754 H   0  0  0  0  0  0  0  0  0  0  0  0
  151.5820  141.2763  155.3775 H   0  0  0  0  0  0  0  0  0  0  0  0
  150.4353  142.0433  156.4050 H   0  0  0  0  0  0  0  0  0  0  0  0
  151.1782  143.6220  157.6383 H   0  0  0  0  0  0  0  0  0  0  0  0
  149.9124  142.6628  158.4172 H   0  0  0  0  0  0  0  0  0  0  0  0
  151.5876  144.7294  159.6439 H   0  0  0  0  0  0  0  0  0  0  0  0
  150.3075  143.7794  160.4246 H   0  0  0  0  0  0  0  0  0  0  0  0
  152.5347  143.9721  162.3212 H   0  0  0  0  0  0  0  0  0  0  0  0
  154.8862  140.3642  161.7812 H   0  0  0  0  0  0  0  0  0  0  0  0
  153.8504  139.9921  159.5960 H   0  0  0  0  0  0  0  0  0  0  0  0
  1  2  1  0  0  0  0
  1 33  1  0  0  0  0
  1 34  1  0  0  0  0
  1 35  1  0  0  0  0
  2 31  1  0  0  0  0
  2  3  2  0  0  0  0
  3  4  1  0  0  0  0
  3 36  1  0  0  0  0
  4  5  1  0  0  0  0
  4 13  1  0  0  0  0
  5 12  1  0  0  0  0
  5  6  1  0  0  0  0
  5 37  1  0  0  0  0
  6  7  1  0  0  0  0
  6 38  1  0  0  0  0
  6 39  1  0  0  0  0
  7  8  1  0  0  0  0
  7  9  1  0  0  0  0
  7 40  1  0  0  0  0
  8 41  1  0  0  0  0
  9 10  1  0  0  0  0
  9 12  1  0  0  0  0
  9 42  1  0  0  0  0
 10 11  1  0  0  0  0
 10 43  1  0  0  0  0
 10 44  1  0  0  0  0
 11 45  1  0  0  0  0
 13 14  2  0  0  0  0
 13 15  1  0  0  0  0
 15 16  1  0  0  0  0
 15 31  1  0  0  0  0
 16 17  1  0  0  0  0
 16 46  1  0  0  0  0
 16 47  1  0  0  0  0
 17 18  2  0  0  0  0
 17 19  1  0  0  0  0
 19 30  1  0  0  0  0
 19 20  1  0  0  0  0
 20 21  1  0  0  0  0
 20 48  1  0  0  0  0
 20 49  1  0  0  0  0
 21 22  1  0  0  0  0
 21 50  1  0  0  0  0
 21 51  1  0  0  0  0
 22 30  2  0  0  0  0
 22 23  1  0  0  0  0
 23 24  2  0  0  0  0
 23 52  1  0  0  0  0
 24 25  1  0  0  0  0
 24 28  1  0  0  0  0
 25 26  2  0  0  0  0
 25 27  1  0  0  0  0
 28 29  2  0  0  0  0
 28 53  1  0  0  0  0
 29 30  1  0  0  0  0
 29 54  1  0  0  0  0
 31 32  2  0  0  0  0
M  CHG  1  25   1
M  CHG  1  27  -1
M  END
> <s_m_source_file>
AV-unprocessed.smi

> <i_m_source_file_index>
112

> <i_lp_mmshare_version>
43012

> <i_f3d_flags>
0

> <s_epik_input>
W09IXVtDSDJdW0NAQEhdKE8xKVtDQEhdKFtPSF0pW0NIMl1bQ0BIXTFuKFtjSF1jMltDSDNdKWMoPU8pbihjMj1PKVtDSDJdQyg9TylOKFtDSDJdW0NIMl0zKWMoYzM0KVtjSF1bY0hdYyhbY0hdNClbTitdKD1PKVtPLV0=

> <s_epik_cmdline>
J2VwaWtfcHl0aG9uJywgJy1waCcsICc3LjAnLCAnLXRuJywgJzgnLCAnLW1hJywgJzIwMCcsICctbWV0YWxfYmluZGluZycsICctaW1hZScsICc8aW5maWxlLm1hZT4nLCAnLW9tYWUnLCAnPG91dGZpbGUubWFlPic=

> <r_lp_tautomer_probability>
1

> <r_epik_Ionization_Penalty>
2.5696e-07

> <r_epik_Ionization_Penalty_Charging>
1.04886e-08

> <r_epik_Ionization_Penalty_Neutral>
2.46472e-07

> <r_epik_State_Penalty>
-0

> <r_epik_Charging_Adjusted_Penalty>
1.04886e-08

> <i_epik_Tot_Q>
0

> <i_epik_Tot_abs_Q>
2

> <r_epik_Metal_State_Penalty>
-0

> <b_epik_Metal_Only>
0

> <s_epik_Chemistry_Notes>
This compound contains an acetal/aminal-like group ( X-CH(R)-Y where X, Y are N, S, or O) that may be acid/base labile, releasing an aldehyde.

> <s_lp_Force_Field>
OPLS_2005

> <r_lp_Energy>
61.1797

> <b_lp_Chiralities_Consistent>
1

> <s_lp_Variant>
AV-unprocessed.smi:112-2

> <Gold.Version>
5.8.1

> <Gold.Id.Protein>
6NUR|6NUR_protein|mol2

> <Gold.PLP.Fitness>
54.1535

> <Gold.PLP.PLP>
-45.9004

> <Gold.PLP.part.hbond>
-4.3523

> <Gold.PLP.part.metal>
0.0000

> <Gold.PLP.part.buried>
-4.2184

> <Gold.PLP.part.nonpolar>
-35.1802

> <Gold.PLP.part.repulsive>
0.1748

> <Gold.PLP.ligand.clash>
0.0000

> <Gold.PLP.ligand.torsion>
0.3309

> <Gold.PLP.Chemscore.Hbond>
2.9600

> <Gold.PLP.Chemscore.CHOScore>
0.0000

> <Gold.PLP.Chemscore.Metal>
0.0000

> <Gold.Chemscore.Hbonds>
donor molecule, donor type, donor heavy atom, donor atom, acceptor molecule, acceptor atom, score
      L1  H     8    41       P1 10175  1.00
      L1  H    11    45       P1 10175  1.00
      P1  H  7997  8008       L1    18  1.00

> <Gold.PLP.Chemscore.Internal.Correction>
0.0349

> <Gold.Rescore>
     Score         DG    S(hbond)    S(metal)    S(lipo)     H(rot)  DE(clash)    DE(int)     intcor
     13.76     -17.91       2.87        0.00      96.32       3.29       0.05       4.10       ----

> <Gold.Chemscore.Fitness>
13.7628

> <Gold.Chemscore.DG>
-17.9140

> <Gold.Chemscore.ZeroCoef>
-5.4800

> <Gold.Chemscore.Hbond>
2.8718

> <Gold.Chemscore.Metal>
0.0000

> <Gold.Chemscore.Lipo>
96.3151

> <Gold.Chemscore.Internal_Hbond>
0.0000

> <Gold.Chemscore.DEClash>
0.0536

> <Gold.Chemscore.DEInternal>
4.0976

> <Gold.Chemscore.Rot>
3.2916

> <Gold.Chemscore.Internal.Correction>
   9.000000E+99

> <Gold.Chemscore.Hbonds>
donor molecule, donor type, donor heavy atom, donor atom, acceptor molecule, acceptor atom, score
      L1  H     8    41       P1 10175  0.99
      L1  H    11    45       P1 10175  0.98
      P1  H  7997  8008       L1    18  0.96

> <Gold.Chemscore.Hbond.Weighted>
-9.5917

> <Gold.Chemscore.Metal.Weighted>
-0.0000

> <Gold.Chemscore.Lipo.Weighted>
-11.2689

> <Gold.Chemscore.Internal_Hbond.Weighted>
0.0000

> <Gold.Chemscore.DEClash.Weighted>
0.0536

> <Gold.Chemscore.DEInternal.Weighted>
4.0976

> <Gold.Chemscore.Rot.Weighted>
8.4265

> <Gold.Chemscore.Internal.Correction.Weighted>
   9.000000E+99

> <Gold.Protein.RotatedTorsions>
[ 6907 6896 6895 6894 ] final   76.65 input  -60.11 | X-H torsion
[ 7974 7965 7964 7962 ] final   19.40 input  175.53 | X-H torsion
[ 8008 7997 7996 7995 ] final  -77.98 input   59.86 | X-H torsion
[ 10167 10162 10161 10158 ] final  167.07 input  -65.29 | X-H torsion
[ 10718 10713 10712 10709 ] final  -17.01 input   66.30 | X-H torsion
[ 10763 10752 10751 10750 ] final -107.62 input  -60.55 | X-H torsion
[ 11005 11000 10999 10996 ] final   61.69 input  -57.11 | X-H torsion

> <Gold.Protein.ActiveResidues>
 VAL166  LYS551  ARG553  GLY616  TRP617  ASP618  TYR619  PRO620  LYS621  CYS622 
 ASP623  PHE694  ASN695  SER759  ASP760  ASP761  ALA762  ILE779  LEU786  VAL792 
 PHE793  MET794  SER795  GLU796  ALA797  LYS798  CYS799  TRP800  GLU811  SER814 

> <Gold.Protein.RotatedAtoms>
  152.5082  134.3937  159.9392 H   0  0  0  0  0  0  0  0  0  0  0  0  # atno 6907 bound_to 6896
  151.3898  133.3786  159.2727 H   0  0  0  0  0  0  0  0  0  0  0  0  # atno 6908 bound_to 6896
  150.9441  134.8868  159.7690 H   0  0  0  0  0  0  0  0  0  0  0  0  # atno 6909 bound_to 6896
  146.2151  139.8319  142.8658 H   0  0  0  0  0  0  0  0  0  0  0  0  # atno 7974 bound_to 7965
  154.5646  140.0701  156.8872 H   0  0  0  0  0  0  0  0  0  0  0  0  # atno 8008 bound_to 7997
  155.2746  140.3367  155.4244 H   0  0  0  0  0  0  0  0  0  0  0  0  # atno 8009 bound_to 7997
  156.2070  140.1744  156.7763 H   0  0  0  0  0  0  0  0  0  0  0  0  # atno 8010 bound_to 7997
  139.4937  144.3961  151.9463 H   0  0  0  0  0  0  0  0  0  0  0  0  # atno 10167 bound_to 10162
  156.5796  130.4770  149.6326 H   0  0  0  0  0  0  0  0  0  0  0  0  # atno 10718 bound_to 10713
  154.8086  135.4668  154.0457 H   0  0  0  0  0  0  0  0  0  0  0  0  # atno 10763 bound_to 10752
  153.1906  135.6854  153.8364 H   0  0  0  0  0  0  0  0  0  0  0  0  # atno 10764 bound_to 10752
  153.7884  135.3246  155.3352 H   0  0  0  0  0  0  0  0  0  0  0  0  # atno 10765 bound_to 10752
  140.0144  134.6248  155.9732 H   0  0  0  0  0  0  0  0  0  0  0  0  # atno 11005 bound_to 11000
  145.2988  141.0188  143.3620 LP  0  0  0  0  0  0  0  0  0  0  0  0  # atno 17320 bound_to 7965
  144.9021  139.4636  143.6627 LP  0  0  0  0  0  0  0  0  0  0  0  0  # atno 17321 bound_to 7965
  140.3399  144.3216  150.5969 LP  0  0  0  0  0  0  0  0  0  0  0  0  # atno 17342 bound_to 10162
  140.5575  143.2197  151.7823 LP  0  0  0  0  0  0  0  0  0  0  0  0  # atno 17343 bound_to 10162
  156.2643  130.6980  151.1759 LP  0  0  0  0  0  0  0  0  0  0  0  0  # atno 17370 bound_to 10713
  157.7329  131.0595  150.5601 LP  0  0  0  0  0  0  0  0  0  0  0  0  # atno 17371 bound_to 10713
  141.1733  133.6538  156.4731 LP  0  0  0  0  0  0  0  0  0  0  0  0  # atno 17394 bound_to 11000
  140.4497  134.6940  157.5033 LP  0  0  0  0  0  0  0  0  0  0  0  0  # atno 17395 bound_to 11000

$$$$
