AV-unprocessed.smi:287|AV-procd|sdf|2185|dock9
  -GOLD-   2262021563D 1   1.00000     0.00000
 Structure written by MMmdl.
 55 58  0  0  0  0  0  0  0  0  1 V2000
  157.3574  131.5140  154.2615 C   0  0  0  0  0  0  0  0  0  0  0  0
  156.0403  131.2961  154.9240 C   0  0  0  0  0  0  0  0  0  0  0  0
  155.4804  131.7443  156.0850 C   0  0  0  0  0  0  0  0  0  0  0  0
  154.1767  131.1707  156.1791 C   0  0  0  0  0  0  0  0  0  0  0  0
  153.1698  131.3878  157.3013 C   0  0  1  0  0  0  0  0  0  0  0  0
  153.6904  130.7422  158.5956 C   0  0  0  0  0  0  0  0  0  0  0  0
  152.9864  132.7565  157.6086 O   0  0  0  0  0  0  0  0  0  0  0  0
  151.7624  130.8414  156.9659 C   0  0  0  0  0  0  0  0  0  0  0  0
  150.9538  131.7813  156.1965 N   0  0  0  0  0  0  0  0  0  0  0  0
  150.1090  131.3302  155.2461 C   0  0  0  0  0  0  0  0  0  0  0  0
  149.9531  129.9993  155.0212 N   0  0  0  0  0  0  0  0  0  0  0  0
  149.1040  129.5773  154.0794 C   0  0  0  0  0  0  0  0  0  0  0  0
  148.3317  130.3023  153.2671 N   0  0  0  0  0  0  0  0  0  0  0  0
  148.4886  131.6400  153.4864 C   0  0  0  0  0  0  0  0  0  0  0  0
  149.3522  132.2289  154.4514 C   0  0  0  0  0  0  0  0  0  0  0  0
  149.2514  133.6126  154.3923 N   0  0  0  0  0  0  0  0  0  0  0  0
  148.3749  133.8247  153.4475 C   0  0  0  0  0  0  0  0  0  0  0  0
  147.8667  132.6934  152.8481 N   0  0  0  0  0  0  0  0  0  0  0  0
  146.8551  132.6195  151.7523 C   0  0  2  0  0  0  0  0  0  0  0  0
  146.4968  133.9196  151.4070 O   0  0  0  0  0  0  0  0  0  0  0  0
  145.1312  133.9227  151.0221 C   0  0  2  0  0  0  0  0  0  0  0  0
  144.5622  135.3527  151.0060 C   0  0  0  0  0  0  0  0  0  0  0  0
  145.0091  136.0447  149.8594 O   0  0  0  0  0  0  0  0  0  0  0  0
  144.4812  132.9180  151.9862 C   0  0  2  0  0  0  0  0  0  0  0  0
  144.1156  133.5285  153.2092 O   0  0  0  0  0  0  0  0  0  0  0  0
  145.5829  131.8835  152.2141 C   0  0  1  0  0  0  0  0  0  0  0  0
  145.3354  130.7482  151.4091 O   0  0  0  0  0  0  0  0  0  0  0  0
  154.0405  130.4237  155.0339 C   0  0  0  0  0  0  0  0  0  0  0  0
  152.9400  129.5883  154.4678 C   0  0  0  0  0  0  0  0  0  0  0  0
  155.1679  130.4877  154.2720 O   0  0  0  0  0  0  0  0  0  0  0  0
  147.3684  132.1322  150.9217 H   0  0  0  0  0  0  0  0  0  0  0  0
  145.0895  133.5123  150.0111 H   0  0  0  0  0  0  0  0  0  0  0  0
  143.5781  132.4833  151.5552 H   0  0  0  0  0  0  0  0  0  0  0  0
  145.6566  131.5738  153.2582 H   0  0  0  0  0  0  0  0  0  0  0  0
  157.9902  132.1708  154.8587 H   0  0  0  0  0  0  0  0  0  0  0  0
  157.2258  131.9712  153.2807 H   0  0  0  0  0  0  0  0  0  0  0  0
  157.8835  130.5688  154.1270 H   0  0  0  0  0  0  0  0  0  0  0  0
  155.9560  132.4062  156.7935 H   0  0  0  0  0  0  0  0  0  0  0  0
  153.8349  129.6685  158.4696 H   0  0  0  0  0  0  0  0  0  0  0  0
  152.9934  130.8836  159.4225 H   0  0  0  0  0  0  0  0  0  0  0  0
  154.6489  131.1688  158.8945 H   0  0  0  0  0  0  0  0  0  0  0  0
  153.0039  133.2493  156.8027 H   0  0  0  0  0  0  0  0  0  0  0  0
  151.8701  129.9428  156.3567 H   0  0  0  0  0  0  0  0  0  0  0  0
  151.2390  130.5400  157.8749 H   0  0  0  0  0  0  0  0  0  0  0  0
  151.1089  132.7609  156.3884 H   0  0  0  0  0  0  0  0  0  0  0  0
  149.0309  128.5061  153.9616 H   0  0  0  0  0  0  0  0  0  0  0  0
  148.0736  134.8213  153.1600 H   0  0  0  0  0  0  0  0  0  0  0  0
  143.4726  135.3549  151.0401 H   0  0  0  0  0  0  0  0  0  0  0  0
  144.9053  135.8966  151.8863 H   0  0  0  0  0  0  0  0  0  0  0  0
  145.2968  135.4115  149.2195 H   0  0  0  0  0  0  0  0  0  0  0  0
  143.5680  132.9263  153.6911 H   0  0  0  0  0  0  0  0  0  0  0  0
  145.9166  130.7764  150.6646 H   0  0  0  0  0  0  0  0  0  0  0  0
  151.9982  130.1371  154.4698 H   0  0  0  0  0  0  0  0  0  0  0  0
  152.8043  128.6793  155.0538 H   0  0  0  0  0  0  0  0  0  0  0  0
  153.1549  129.2969  153.4394 H   0  0  0  0  0  0  0  0  0  0  0  0
  1  2  1  0  0  0  0
  1 35  1  0  0  0  0
  1 36  1  0  0  0  0
  1 37  1  0  0  0  0
  2 30  1  0  0  0  0
  2  3  2  0  0  0  0
  3  4  1  0  0  0  0
  3 38  1  0  0  0  0
  4  5  1  0  0  0  0
  4 28  2  0  0  0  0
  5  6  1  0  0  0  0
  5  7  1  0  0  0  0
  5  8  1  0  0  0  0
  6 39  1  0  0  0  0
  6 40  1  0  0  0  0
  6 41  1  0  0  0  0
  7 42  1  0  0  0  0
  8  9  1  0  0  0  0
  8 43  1  0  0  0  0
  8 44  1  0  0  0  0
  9 10  1  0  0  0  0
  9 45  1  0  0  0  0
 10 15  1  0  0  0  0
 10 11  2  0  0  0  0
 11 12  1  0  0  0  0
 12 13  2  0  0  0  0
 12 46  1  0  0  0  0
 13 14  1  0  0  0  0
 14 18  1  0  0  0  0
 14 15  2  0  0  0  0
 15 16  1  0  0  0  0
 16 17  2  0  0  0  0
 17 18  1  0  0  0  0
 17 47  1  0  0  0  0
 18 19  1  0  0  0  0
 19 31  1  0  0  0  0
 19 26  1  0  0  0  0
 19 20  1  0  0  0  0
 20 21  1  0  0  0  0
 21 32  1  0  0  0  0
 21 22  1  0  0  0  0
 21 24  1  0  0  0  0
 22 23  1  0  0  0  0
 22 48  1  0  0  0  0
 22 49  1  0  0  0  0
 23 50  1  0  0  0  0
 24 33  1  0  0  0  0
 24 25  1  0  0  0  0
 24 26  1  0  0  0  0
 25 51  1  0  0  0  0
 26 34  1  0  0  0  0
 26 27  1  0  0  0  0
 27 52  1  0  0  0  0
 28 29  1  0  0  0  0
 28 30  1  0  0  0  0
 29 53  1  0  0  0  0
 29 54  1  0  0  0  0
 29 55  1  0  0  0  0
M  END
> <s_m_source_file>
AV-unprocessed.smi

> <i_m_source_file_index>
287

> <i_lp_mmshare_version>
43012

> <i_f3d_flags>
0

> <s_epik_input>
W0NIM11jMVtjSF1jKGMobzEpW0NIM10pW0NAQF0oW0NIM10pKFtPSF0pW0NIMl1bTkhdYyhuW2NIXW4yKWMoYzIzKW5bY0hdbjNbQ0BASF00T1tDQEhdKFtDSDJdW09IXSlbQ0BASF0oW09IXSlbQ0BIXTRbT0hd

> <s_epik_cmdline>
J2VwaWtfcHl0aG9uJywgJy1waCcsICc3LjAnLCAnLXRuJywgJzgnLCAnLW1hJywgJzIwMCcsICctbWV0YWxfYmluZGluZycsICctaW1hZScsICc8aW5maWxlLm1hZT4nLCAnLW9tYWUnLCAnPG91dGZpbGUubWFlPic=

> <r_lp_tautomer_probability>
1

> <r_epik_Ionization_Penalty>
0.000992612

> <r_epik_Ionization_Penalty_Charging>
0

> <r_epik_Ionization_Penalty_Neutral>
0.000992612

> <r_epik_State_Penalty>
-0

> <r_epik_Charging_Adjusted_Penalty>
0

> <i_epik_Tot_Q>
0

> <i_epik_Tot_abs_Q>
0

> <r_epik_Metal_State_Penalty>
-0

> <b_epik_Metal_Only>
0

> <s_epik_Chemistry_Notes>
This compound contains an acetal/aminal-like group ( X-CH(R)-Y where X, Y are N, S, or O) that may be acid/base labile, releasing an aldehyde.

> <s_lp_Force_Field>
OPLS_2005

> <r_lp_Energy>
37.4731

> <b_lp_Chiralities_Consistent>
1

> <s_lp_Variant>
AV-unprocessed.smi:287-9

> <Gold.Version>
5.8.1

> <Gold.Id.Protein>
6NUR|6NUR_protein|mol2

> <Gold.PLP.Fitness>
52.9398

> <Gold.PLP.PLP>
-42.7010

> <Gold.PLP.part.hbond>
-4.0000

> <Gold.PLP.part.metal>
0.0000

> <Gold.PLP.part.buried>
-5.7504

> <Gold.PLP.part.nonpolar>
-34.4349

> <Gold.PLP.part.repulsive>
0.4737

> <Gold.PLP.ligand.clash>
0.0000

> <Gold.PLP.ligand.torsion>
0.9240

> <Gold.PLP.Chemscore.Hbond>
3.0000

> <Gold.PLP.Chemscore.CHOScore>
1.0000

> <Gold.PLP.Chemscore.Metal>
0.0000

> <Gold.Chemscore.Hbonds>
donor molecule, donor type, donor heavy atom, donor atom, acceptor molecule, acceptor atom, score
      L1  H    23    50       P1  7921  1.00
      L1  H    25    51       P1 10957  1.00
      P1  H  6896  6908       L1     7  0.86
      L1  C    17    47       P1  7948  1.00

> <Gold.PLP.Chemscore.Internal.Correction>
0.0867

> <Gold.Rescore>
     Score         DG    S(hbond)    S(metal)    S(lipo)     H(rot)  DE(clash)    DE(int)     intcor
      7.58      -9.85       2.87        0.00      70.77       5.27       0.18       2.09       ----

> <Gold.Chemscore.Fitness>
7.5836

> <Gold.Chemscore.DG>
-9.8488

> <Gold.Chemscore.ZeroCoef>
-5.4800

> <Gold.Chemscore.Hbond>
2.8660

> <Gold.Chemscore.Metal>
0.0000

> <Gold.Chemscore.Lipo>
70.7721

> <Gold.Chemscore.Internal_Hbond>
0.0000

> <Gold.Chemscore.DEClash>
0.1777

> <Gold.Chemscore.DEInternal>
2.0875

> <Gold.Chemscore.Rot>
5.2672

> <Gold.Chemscore.Internal.Correction>
   9.000000E+99

> <Gold.Chemscore.Hbonds>
donor molecule, donor type, donor heavy atom, donor atom, acceptor molecule, acceptor atom, score
      L1  H    23    50       P1  7921  0.98
      L1  H    25    51       P1 10957  0.91
      P1  H  6896  6908       L1     7  0.78

> <Gold.Chemscore.Hbond.Weighted>
-9.5724

> <Gold.Chemscore.Metal.Weighted>
-0.0000

> <Gold.Chemscore.Lipo.Weighted>
-8.2803

> <Gold.Chemscore.Internal_Hbond.Weighted>
0.0000

> <Gold.Chemscore.DEClash.Weighted>
0.1777

> <Gold.Chemscore.DEInternal.Weighted>
2.0875

> <Gold.Chemscore.Rot.Weighted>
13.4839

> <Gold.Chemscore.Internal.Correction.Weighted>
   9.000000E+99

> <Gold.Protein.RotatedTorsions>
[ 6907 6896 6895 6894 ] final   33.67 input  -60.11 | X-H torsion
[ 7974 7965 7964 7962 ] final  -35.23 input  175.53 | X-H torsion
[ 8008 7997 7996 7995 ] final   77.87 input   59.86 | X-H torsion
[ 10167 10162 10161 10158 ] final  -35.03 input  -65.29 | X-H torsion
[ 10718 10713 10712 10709 ] final  -72.34 input   66.30 | X-H torsion
[ 10763 10752 10751 10750 ] final -105.74 input  -60.55 | X-H torsion
[ 11005 11000 10999 10996 ] final   82.12 input  -57.11 | X-H torsion

> <Gold.Protein.ActiveResidues>
 VAL166  LYS551  ARG553  GLY616  TRP617  ASP618  TYR619  PRO620  LYS621  CYS622 
 ASP623  PHE694  ASN695  SER759  ASP760  ASP761  ALA762  ILE779  LEU786  VAL792 
 PHE793  MET794  SER795  GLU796  ALA797  LYS798  CYS799  TRP800  GLU811  SER814 

> <Gold.Protein.RotatedAtoms>
  152.0917  134.9402  160.0571 H   0  0  0  0  0  0  0  0  0  0  0  0  # atno 6907 bound_to 6896
  152.0651  133.4075  159.4443 H   0  0  0  0  0  0  0  0  0  0  0  0  # atno 6908 bound_to 6896
  150.6837  134.3076  159.4776 H   0  0  0  0  0  0  0  0  0  0  0  0  # atno 6909 bound_to 6896
  146.0764  140.6134  142.8928 H   0  0  0  0  0  0  0  0  0  0  0  0  # atno 7974 bound_to 7965
  155.8477  140.3459  155.5673 H   0  0  0  0  0  0  0  0  0  0  0  0  # atno 8008 bound_to 7997
  155.8071  140.0893  157.1944 H   0  0  0  0  0  0  0  0  0  0  0  0  # atno 8009 bound_to 7997
  154.4006  140.1454  156.3330 H   0  0  0  0  0  0  0  0  0  0  0  0  # atno 8010 bound_to 7997
  140.7173  143.3506  151.2165 H   0  0  0  0  0  0  0  0  0  0  0  0  # atno 10167 bound_to 10162
  156.0324  130.4370  150.2578 H   0  0  0  0  0  0  0  0  0  0  0  0  # atno 10718 bound_to 10713
  154.7967  135.4738  154.0177 H   0  0  0  0  0  0  0  0  0  0  0  0  # atno 10763 bound_to 10752
  153.1714  135.6825  153.8609 H   0  0  0  0  0  0  0  0  0  0  0  0  # atno 10764 bound_to 10752
  153.8190  135.3207  155.3386 H   0  0  0  0  0  0  0  0  0  0  0  0  # atno 10765 bound_to 10752
  139.9074  134.8047  156.2132 H   0  0  0  0  0  0  0  0  0  0  0  0  # atno 11005 bound_to 11000
  144.7264  140.4538  143.6970 LP  0  0  0  0  0  0  0  0  0  0  0  0  # atno 17320 bound_to 7965
  145.6298  139.1535  143.2975 LP  0  0  0  0  0  0  0  0  0  0  0  0  # atno 17321 bound_to 7965
  139.7035  143.9493  152.2916 LP  0  0  0  0  0  0  0  0  0  0  0  0  # atno 17342 bound_to 10162
  139.9194  144.6808  150.8477 LP  0  0  0  0  0  0  0  0  0  0  0  0  # atno 17343 bound_to 10162
  157.0679  131.0108  151.3200 LP  0  0  0  0  0  0  0  0  0  0  0  0  # atno 17370 bound_to 10713
  157.5021  130.7886  149.7616 LP  0  0  0  0  0  0  0  0  0  0  0  0  # atno 17371 bound_to 10713
  141.0452  133.6917  156.1671 LP  0  0  0  0  0  0  0  0  0  0  0  0  # atno 17394 bound_to 11000
  140.6894  134.4682  157.5589 LP  0  0  0  0  0  0  0  0  0  0  0  0  # atno 17395 bound_to 11000

$$$$
