AV-unprocessed.smi:2900|AV-procd|sdf|11148|dock4
  -GOLD-   2272016 23D 1   1.00000     0.00000
 Structure written by MMmdl.
 35 36  0  0  0  0  0  0  0  0  1 V2000
  149.6219  141.3971  154.0708 O   0  0  0  0  0  0  0  0  0  0  0  0
  149.1511  140.4953  154.7631 C   0  0  0  0  0  0  0  0  0  0  0  0
  147.7185  140.3270  154.9936 C   0  0  0  0  0  0  0  0  0  0  0  0
  147.2354  139.3297  155.7648 C   0  0  0  0  0  0  0  0  0  0  0  0
  148.1581  138.3963  156.3885 C   0  0  0  0  0  0  0  0  0  0  0  0
  147.7190  137.2502  157.2661 C   0  0  0  0  0  0  0  0  0  0  0  0
  148.7659  136.6549  157.8381 F   0  0  0  0  0  0  0  0  0  0  0  0
  146.9080  137.6950  158.2266 F   0  0  0  0  0  0  0  0  0  0  0  0
  147.0602  136.3445  156.5423 F   0  0  0  0  0  0  0  0  0  0  0  0
  149.4285  138.5410  156.1892 N   0  0  0  0  0  0  0  0  0  0  0  0
  149.9210  139.5564  155.3868 N   0  0  0  0  0  0  0  0  0  0  0  0
  151.3839  139.5621  155.2549 C   0  0  0  0  0  0  0  0  0  0  0  0
  152.1125  139.4372  156.6122 C   0  0  1  0  0  0  0  0  0  0  0  0
  153.4336  139.0174  156.3386 O   0  0  0  0  0  0  0  0  0  0  0  0
  152.1801  140.7592  157.3977 C   0  0  0  0  0  0  0  0  0  0  0  0
  152.9983  140.5695  158.5441 O   0  0  0  0  0  0  0  0  0  0  0  0
  152.8372  141.4286  159.6100 C   0  0  0  0  0  0  0  0  0  0  0  0
  153.5190  141.1041  160.8011 C   0  0  0  0  0  0  0  0  0  0  0  0
  153.4117  141.9250  161.9404 C   0  0  0  0  0  0  0  0  0  0  0  0
  152.6158  143.0844  161.8996 C   0  0  0  0  0  0  0  0  0  0  0  0
  151.9291  143.4199  160.7182 C   0  0  0  0  0  0  0  0  0  0  0  0
  152.0372  142.5994  159.5783 C   0  0  0  0  0  0  0  0  0  0  0  0
  147.0290  141.0189  154.5326 H   0  0  0  0  0  0  0  0  0  0  0  0
  146.1721  139.2247  155.9202 H   0  0  0  0  0  0  0  0  0  0  0  0
  151.6835  138.7445  154.5964 H   0  0  0  0  0  0  0  0  0  0  0  0
  151.7115  140.4719  154.7473 H   0  0  0  0  0  0  0  0  0  0  0  0
  151.6280  138.6717  157.2190 H   0  0  0  0  0  0  0  0  0  0  0  0
  153.6011  138.2254  156.8264 H   0  0  0  0  0  0  0  0  0  0  0  0
  152.5523  141.5678  156.7658 H   0  0  0  0  0  0  0  0  0  0  0  0
  151.1834  141.0360  157.7412 H   0  0  0  0  0  0  0  0  0  0  0  0
  154.1324  140.2161  160.8414 H   0  0  0  0  0  0  0  0  0  0  0  0
  153.9406  141.6643  162.8454 H   0  0  0  0  0  0  0  0  0  0  0  0
  152.5318  143.7146  162.7727 H   0  0  0  0  0  0  0  0  0  0  0  0
  151.3171  144.3092  160.6854 H   0  0  0  0  0  0  0  0  0  0  0  0
  151.4950  142.8909  158.6917 H   0  0  0  0  0  0  0  0  0  0  0  0
  1  2  2  0  0  0  0
  2 11  1  0  0  0  0
  2  3  1  0  0  0  0
  3  4  2  0  0  0  0
  3 23  1  0  0  0  0
  4  5  1  0  0  0  0
  4 24  1  0  0  0  0
  5  6  1  0  0  0  0
  5 10  2  0  0  0  0
  6  7  1  0  0  0  0
  6  8  1  0  0  0  0
  6  9  1  0  0  0  0
 10 11  1  0  0  0  0
 11 12  1  0  0  0  0
 12 13  1  0  0  0  0
 12 25  1  0  0  0  0
 12 26  1  0  0  0  0
 13 14  1  0  0  0  0
 13 15  1  0  0  0  0
 13 27  1  0  0  0  0
 14 28  1  0  0  0  0
 15 16  1  0  0  0  0
 15 29  1  0  0  0  0
 15 30  1  0  0  0  0
 16 17  1  0  0  0  0
 17 22  1  0  0  0  0
 17 18  2  0  0  0  0
 18 19  1  0  0  0  0
 18 31  1  0  0  0  0
 19 20  2  0  0  0  0
 19 32  1  0  0  0  0
 20 21  1  0  0  0  0
 20 33  1  0  0  0  0
 21 22  2  0  0  0  0
 21 34  1  0  0  0  0
 22 35  1  0  0  0  0
M  END
> <s_m_source_file>
AV-unprocessed.smi

> <i_m_source_file_index>
2900

> <i_lp_mmshare_version>
43012

> <i_f3d_flags>
0

> <s_epik_input>
Tz1jMVtjSF1bY0hdYyhDKEYpKEYpRilubjFbQ0gyXVtDQEhdKFtPSF0pW0NIMl1PYzJbY0hdW2NIXVtjSF1bY0hdW2NIXTI=

> <s_epik_cmdline>
J2VwaWtfcHl0aG9uJywgJy1waCcsICc3LjAnLCAnLXRuJywgJzgnLCAnLW1hJywgJzIwMCcsICctbWV0YWxfYmluZGluZycsICctaW1hZScsICc8aW5maWxlLm1hZT4nLCAnLW9tYWUnLCAnPG91dGZpbGUubWFlPic=

> <r_lp_tautomer_probability>
1

> <r_epik_Ionization_Penalty>
1.22578e-07

> <r_epik_Ionization_Penalty_Charging>
5.40425e-09

> <r_epik_Ionization_Penalty_Neutral>
1.17174e-07

> <r_epik_State_Penalty>
-0

> <r_epik_Charging_Adjusted_Penalty>
5.40425e-09

> <i_epik_Tot_Q>
0

> <i_epik_Tot_abs_Q>
0

> <r_epik_Metal_State_Penalty>
-0

> <b_epik_Metal_Only>
0

> <s_lp_Force_Field>
OPLS_2005

> <r_lp_Energy>
32.4131

> <b_lp_Chiralities_Consistent>
1

> <s_lp_Variant>
AV-unprocessed.smi:2900-2

> <Gold.Version>
5.8.1

> <Gold.Id.Protein>
6NUR|6NUR_protein|mol2

> <Gold.PLP.Fitness>
40.0640

> <Gold.PLP.PLP>
-35.5582

> <Gold.PLP.part.hbond>
-3.5609

> <Gold.PLP.part.metal>
0.0000

> <Gold.PLP.part.buried>
-2.4960

> <Gold.PLP.part.nonpolar>
-27.7838

> <Gold.PLP.part.repulsive>
0.1987

> <Gold.PLP.ligand.clash>
0.0000

> <Gold.PLP.ligand.torsion>
0.6724

> <Gold.PLP.Chemscore.Hbond>
1.9251

> <Gold.PLP.Chemscore.CHOScore>
0.0000

> <Gold.PLP.Chemscore.Metal>
0.0000

> <Gold.Chemscore.Hbonds>
donor molecule, donor type, donor heavy atom, donor atom, acceptor molecule, acceptor atom, score
      P1  H  7989  7998       L1     1  0.22
      P1  H  7997  8009       L1    14  0.73
      P1  H  8011  8017       L1     1  0.69

> <Gold.PLP.Chemscore.Internal.Correction>
0.0753

> <Gold.Rescore>
     Score         DG    S(hbond)    S(metal)    S(lipo)     H(rot)  DE(clash)    DE(int)     intcor
     14.32     -15.13       1.80        0.00      88.83       2.63       0.14       0.68       ----

> <Gold.Chemscore.Fitness>
14.3173

> <Gold.Chemscore.DG>
-15.1345

> <Gold.Chemscore.ZeroCoef>
-5.4800

> <Gold.Chemscore.Hbond>
1.7974

> <Gold.Chemscore.Metal>
0.0000

> <Gold.Chemscore.Lipo>
88.8308

> <Gold.Chemscore.Internal_Hbond>
0.0000

> <Gold.Chemscore.DEClash>
0.1351

> <Gold.Chemscore.DEInternal>
0.6821

> <Gold.Chemscore.Rot>
2.6336

> <Gold.Chemscore.Internal.Correction>
   9.000000E+99

> <Gold.Chemscore.Hbonds>
donor molecule, donor type, donor heavy atom, donor atom, acceptor molecule, acceptor atom, score
      P1  H  7989  7998       L1     1  0.17
      P1  H  7997  8009       L1    14  0.59
      P1  H  8011  8017       L1     1  0.64

> <Gold.Chemscore.Hbond.Weighted>
-6.0033

> <Gold.Chemscore.Metal.Weighted>
-0.0000

> <Gold.Chemscore.Lipo.Weighted>
-10.3932

> <Gold.Chemscore.Internal_Hbond.Weighted>
0.0000

> <Gold.Chemscore.DEClash.Weighted>
0.1351

> <Gold.Chemscore.DEInternal.Weighted>
0.6821

> <Gold.Chemscore.Rot.Weighted>
6.7420

> <Gold.Chemscore.Internal.Correction.Weighted>
   9.000000E+99

> <Gold.Protein.RotatedTorsions>
[ 6907 6896 6895 6894 ] final   51.08 input  -60.11 | X-H torsion
[ 7974 7965 7964 7962 ] final   22.81 input  175.53 | X-H torsion
[ 8008 7997 7996 7995 ] final -159.93 input   59.86 | X-H torsion
[ 10167 10162 10161 10158 ] final   63.82 input  -65.29 | X-H torsion
[ 10718 10713 10712 10709 ] final    2.23 input   66.30 | X-H torsion
[ 10763 10752 10751 10750 ] final   18.44 input  -60.55 | X-H torsion
[ 11005 11000 10999 10996 ] final -163.58 input  -57.11 | X-H torsion

> <Gold.Protein.ActiveResidues>
 VAL166  LYS551  ARG553  GLY616  TRP617  ASP618  TYR619  PRO620  LYS621  CYS622 
 ASP623  PHE694  ASN695  SER759  ASP760  ASP761  ALA762  ILE779  LEU786  VAL792 
 PHE793  MET794  SER795  GLU796  ALA797  LYS798  CYS799  TRP800  GLU811  SER814 

> <Gold.Protein.RotatedAtoms>
  152.3088  134.7522  160.0340 H   0  0  0  0  0  0  0  0  0  0  0  0  # atno 6907 bound_to 6896
  151.8010  133.3365  159.3535 H   0  0  0  0  0  0  0  0  0  0  0  0  # atno 6908 bound_to 6896
  150.7310  134.5683  159.5922 H   0  0  0  0  0  0  0  0  0  0  0  0  # atno 6909 bound_to 6896
  146.2012  139.7833  142.8760 H   0  0  0  0  0  0  0  0  0  0  0  0  # atno 7974 bound_to 7965
  155.7699  140.0850  157.2113 H   0  0  0  0  0  0  0  0  0  0  0  0  # atno 8008 bound_to 7997
  154.3997  140.1527  156.2986 H   0  0  0  0  0  0  0  0  0  0  0  0  # atno 8009 bound_to 7997
  155.8758  140.3423  155.5855 H   0  0  0  0  0  0  0  0  0  0  0  0  # atno 8010 bound_to 7997
  140.1289  144.4661  150.6876 H   0  0  0  0  0  0  0  0  0  0  0  0  # atno 10167 bound_to 10162
  156.8600  130.5583  149.5663 H   0  0  0  0  0  0  0  0  0  0  0  0  # atno 10718 bound_to 10713
  153.1249  135.6727  153.9274 H   0  0  0  0  0  0  0  0  0  0  0  0  # atno 10763 bound_to 10752
  153.8778  135.3062  155.3445 H   0  0  0  0  0  0  0  0  0  0  0  0  # atno 10764 bound_to 10752
  154.7656  135.4966  153.9627 H   0  0  0  0  0  0  0  0  0  0  0  0  # atno 10765 bound_to 10752
  140.5964  134.4992  157.5200 H   0  0  0  0  0  0  0  0  0  0  0  0  # atno 11005 bound_to 11000
  145.3476  141.0301  143.3357 LP  0  0  0  0  0  0  0  0  0  0  0  0  # atno 17320 bound_to 7965
  144.8689  139.5068  143.6777 LP  0  0  0  0  0  0  0  0  0  0  0  0  # atno 17321 bound_to 7965
  140.6828  143.2335  151.5338 LP  0  0  0  0  0  0  0  0  0  0  0  0  # atno 17342 bound_to 10162
  139.5530  144.2348  152.1563 LP  0  0  0  0  0  0  0  0  0  0  0  0  # atno 17343 bound_to 10162
  156.0782  130.5799  150.9513 LP  0  0  0  0  0  0  0  0  0  0  0  0  # atno 17370 bound_to 10713
  157.6256  131.0926  150.8541 LP  0  0  0  0  0  0  0  0  0  0  0  0  # atno 17371 bound_to 10713
  139.9251  134.8072  156.1093 LP  0  0  0  0  0  0  0  0  0  0  0  0  # atno 17394 bound_to 11000
  141.0901  133.6718  156.2521 LP  0  0  0  0  0  0  0  0  0  0  0  0  # atno 17395 bound_to 11000

$$$$
