AV-unprocessed.smi:2766|AV-procd|sdf|10646|dock8
  -GOLD-   2272015 93D 1   1.00000     0.00000
 Structure written by MMmdl.
 32 33  0  0  0  0  0  0  0  0  1 V2000
  149.0037  140.5614  154.6668 C   0  0  0  0  0  0  0  0  0  0  0  0
  149.5588  139.3009  155.0002 O   0  0  0  0  0  0  0  0  0  0  0  0
  150.8770  139.1393  154.5023 C   0  0  0  0  0  0  0  0  0  0  0  0
  151.8589  139.9235  155.3907 C   0  0  2  0  0  0  0  0  0  0  0  0
  153.1709  139.6536  154.9288 O   0  0  0  0  0  0  0  0  0  0  0  0
  151.6844  139.5879  156.8985 C   0  0  0  0  0  0  0  0  0  0  0  0
  152.4461  140.4336  157.8115 N   0  0  0  0  0  0  0  0  0  0  0  0
  153.5238  140.1054  158.5698 C   0  0  0  0  0  0  0  0  0  0  0  0
  154.1198  138.7257  158.5564 C   0  0  0  0  0  0  0  0  0  0  0  0
  154.6225  138.4351  157.3557 F   0  0  0  0  0  0  0  0  0  0  0  0
  155.1088  138.6263  159.4450 F   0  0  0  0  0  0  0  0  0  0  0  0
  153.1913  137.8137  158.8440 F   0  0  0  0  0  0  0  0  0  0  0  0
  154.0282  141.0958  159.3100 N   0  0  0  0  0  0  0  0  0  0  0  0
  153.1955  142.1570  159.0135 C   0  0  0  0  0  0  0  0  0  0  0  0
  153.2020  143.4900  159.4828 C   0  0  0  0  0  0  0  0  0  0  0  0
  152.2344  144.4109  159.0300 C   0  0  0  0  0  0  0  0  0  0  0  0
  151.2484  144.0129  158.1040 C   0  0  0  0  0  0  0  0  0  0  0  0
  151.2250  142.6896  157.6232 C   0  0  0  0  0  0  0  0  0  0  0  0
  152.1940  141.7753  158.0778 C   0  0  0  0  0  0  0  0  0  0  0  0
  151.6763  140.9910  155.2611 H   0  0  0  0  0  0  0  0  0  0  0  0
  147.9918  140.6331  155.0651 H   0  0  0  0  0  0  0  0  0  0  0  0
  148.9508  140.6975  153.5858 H   0  0  0  0  0  0  0  0  0  0  0  0
  149.5914  141.3753  155.0934 H   0  0  0  0  0  0  0  0  0  0  0  0
  151.1149  138.0748  154.5345 H   0  0  0  0  0  0  0  0  0  0  0  0
  150.9534  139.4564  153.4605 H   0  0  0  0  0  0  0  0  0  0  0  0
  153.1757  138.8027  154.5180 H   0  0  0  0  0  0  0  0  0  0  0  0
  150.6291  139.6393  157.1647 H   0  0  0  0  0  0  0  0  0  0  0  0
  151.9700  138.5546  157.0989 H   0  0  0  0  0  0  0  0  0  0  0  0
  153.9522  143.8046  160.1930 H   0  0  0  0  0  0  0  0  0  0  0  0
  152.2484  145.4274  159.3954 H   0  0  0  0  0  0  0  0  0  0  0  0
  150.5096  144.7236  157.7632 H   0  0  0  0  0  0  0  0  0  0  0  0
  150.4704  142.3799  156.9158 H   0  0  0  0  0  0  0  0  0  0  0  0
  1  2  1  0  0  0  0
  1 21  1  0  0  0  0
  1 22  1  0  0  0  0
  1 23  1  0  0  0  0
  2  3  1  0  0  0  0
  3  4  1  0  0  0  0
  3 24  1  0  0  0  0
  3 25  1  0  0  0  0
  4 20  1  0  0  0  0
  4  5  1  0  0  0  0
  4  6  1  0  0  0  0
  5 26  1  0  0  0  0
  6  7  1  0  0  0  0
  6 27  1  0  0  0  0
  6 28  1  0  0  0  0
  7 19  1  0  0  0  0
  7  8  1  0  0  0  0
  8  9  1  0  0  0  0
  8 13  2  0  0  0  0
  9 10  1  0  0  0  0
  9 11  1  0  0  0  0
  9 12  1  0  0  0  0
 13 14  1  0  0  0  0
 14 19  2  0  0  0  0
 14 15  1  0  0  0  0
 15 16  2  0  0  0  0
 15 29  1  0  0  0  0
 16 17  1  0  0  0  0
 16 30  1  0  0  0  0
 17 18  2  0  0  0  0
 17 31  1  0  0  0  0
 18 19  1  0  0  0  0
 18 32  1  0  0  0  0
M  END
> <s_m_source_file>
AV-unprocessed.smi

> <i_m_source_file_index>
2766

> <i_lp_mmshare_version>
43012

> <i_f3d_flags>
0

> <s_epik_input>
W0NIM11PW0NIMl1bQ0BASF0oW09IXSlbQ0gyXW4oYyhuMSlDKEYpKEYpRiljKGMxMilbY0hdW2NIXVtjSF1bY0hdMg==

> <s_epik_cmdline>
J2VwaWtfcHl0aG9uJywgJy1waCcsICc3LjAnLCAnLXRuJywgJzgnLCAnLW1hJywgJzIwMCcsICctbWV0YWxfYmluZGluZycsICctaW1hZScsICc8aW5maWxlLm1hZT4nLCAnLW9tYWUnLCAnPG91dGZpbGUubWFlPic=

> <r_epik_Ionization_Penalty>
0.00044827

> <r_epik_Ionization_Penalty_Charging>
0

> <r_epik_Ionization_Penalty_Neutral>
0.00044827

> <r_epik_State_Penalty>
0.000276591

> <r_epik_Charging_Adjusted_Penalty>
0.000276591

> <i_epik_Tot_Q>
0

> <i_epik_Tot_abs_Q>
0

> <r_epik_Metal_State_Penalty>
-0

> <b_epik_Metal_Only>
0

> <s_lp_Force_Field>
OPLS_2005

> <r_lp_Energy>
17.0941

> <b_lp_Chiralities_Consistent>
1

> <s_lp_Variant>
AV-unprocessed.smi:2766-2

> <Gold.Version>
5.8.1

> <Gold.Id.Protein>
6NUR|6NUR_protein|mol2

> <Gold.PLP.Fitness>
45.9213

> <Gold.PLP.PLP>
-43.4684

> <Gold.PLP.part.hbond>
-1.0000

> <Gold.PLP.part.metal>
0.0000

> <Gold.PLP.part.buried>
-4.8601

> <Gold.PLP.part.nonpolar>
-37.0644

> <Gold.PLP.part.repulsive>
0.0775

> <Gold.PLP.ligand.clash>
0.0000

> <Gold.PLP.ligand.torsion>
0.2945

> <Gold.PLP.Chemscore.Hbond>
1.0000

> <Gold.PLP.Chemscore.CHOScore>
0.0000

> <Gold.PLP.Chemscore.Metal>
0.0000

> <Gold.Chemscore.Hbonds>
donor molecule, donor type, donor heavy atom, donor atom, acceptor molecule, acceptor atom, score
      P1  H  7997  8010       L1     5  1.00

> <Gold.PLP.Chemscore.Internal.Correction>
0.0420

> <Gold.Rescore>
     Score         DG    S(hbond)    S(metal)    S(lipo)     H(rot)  DE(clash)    DE(int)     intcor
     14.53     -14.92       0.98        0.00     103.43       2.32       0.02       0.36       ----

> <Gold.Chemscore.Fitness>
14.5299

> <Gold.Chemscore.DG>
-14.9159

> <Gold.Chemscore.ZeroCoef>
-5.4800

> <Gold.Chemscore.Hbond>
0.9774

> <Gold.Chemscore.Metal>
0.0000

> <Gold.Chemscore.Lipo>
103.4290

> <Gold.Chemscore.Internal_Hbond>
0.0000

> <Gold.Chemscore.DEClash>
0.0243

> <Gold.Chemscore.DEInternal>
0.3616

> <Gold.Chemscore.Rot>
2.3164

> <Gold.Chemscore.Internal.Correction>
   9.000000E+99

> <Gold.Chemscore.Hbonds>
donor molecule, donor type, donor heavy atom, donor atom, acceptor molecule, acceptor atom, score
      P1  H  7997  8010       L1     5  0.93

> <Gold.Chemscore.Hbond.Weighted>
-3.2646

> <Gold.Chemscore.Metal.Weighted>
-0.0000

> <Gold.Chemscore.Lipo.Weighted>
-12.1012

> <Gold.Chemscore.Internal_Hbond.Weighted>
0.0000

> <Gold.Chemscore.DEClash.Weighted>
0.0243

> <Gold.Chemscore.DEInternal.Weighted>
0.3616

> <Gold.Chemscore.Rot.Weighted>
5.9299

> <Gold.Chemscore.Internal.Correction.Weighted>
   9.000000E+99

> <Gold.Protein.RotatedTorsions>
[ 6907 6896 6895 6894 ] final  167.49 input  -60.11 | X-H torsion
[ 7974 7965 7964 7962 ] final  -32.53 input  175.53 | X-H torsion
[ 8008 7997 7996 7995 ] final  102.19 input   59.86 | X-H torsion
[ 10167 10162 10161 10158 ] final   29.12 input  -65.29 | X-H torsion
[ 10718 10713 10712 10709 ] final -162.48 input   66.30 | X-H torsion
[ 10763 10752 10751 10750 ] final  -26.51 input  -60.55 | X-H torsion
[ 11005 11000 10999 10996 ] final  -54.35 input  -57.11 | X-H torsion

> <Gold.Protein.ActiveResidues>
 VAL166  LYS551  ARG553  GLY616  TRP617  ASP618  TYR619  PRO620  LYS621  CYS622 
 ASP623  PHE694  ASN695  SER759  ASP760  ASP761  ALA762  ILE779  LEU786  VAL792 
 PHE793  MET794  SER795  GLU796  ALA797  LYS798  CYS799  TRP800  GLU811  SER814 

> <Gold.Protein.RotatedAtoms>
  151.8625  133.3460  159.3708 H   0  0  0  0  0  0  0  0  0  0  0  0  # atno 6907 bound_to 6896
  150.7175  134.5193  159.5655 H   0  0  0  0  0  0  0  0  0  0  0  0  # atno 6908 bound_to 6896
  152.2709  134.7934  160.0465 H   0  0  0  0  0  0  0  0  0  0  0  0  # atno 6909 bound_to 6896
  146.0982  140.5804  142.8833 H   0  0  0  0  0  0  0  0  0  0  0  0  # atno 7974 bound_to 7965
  156.1370  140.3185  155.8436 H   0  0  0  0  0  0  0  0  0  0  0  0  # atno 8008 bound_to 7997
  155.4226  140.0513  157.3041 H   0  0  0  0  0  0  0  0  0  0  0  0  # atno 8009 bound_to 7997
  154.4945  140.2105  155.9489 H   0  0  0  0  0  0  0  0  0  0  0  0  # atno 8010 bound_to 7997
  140.4794  144.0640  150.6260 H   0  0  0  0  0  0  0  0  0  0  0  0  # atno 10167 bound_to 10162
  156.6110  130.8850  151.2936 H   0  0  0  0  0  0  0  0  0  0  0  0  # atno 10718 bound_to 10713
  153.7171  135.6947  153.5022 H   0  0  0  0  0  0  0  0  0  0  0  0  # atno 10763 bound_to 10752
  153.2231  135.4363  155.0510 H   0  0  0  0  0  0  0  0  0  0  0  0  # atno 10764 bound_to 10752
  154.8296  135.3465  154.6706 H   0  0  0  0  0  0  0  0  0  0  0  0  # atno 10765 bound_to 10752
  141.1021  133.6617  156.4307 H   0  0  0  0  0  0  0  0  0  0  0  0  # atno 11005 bound_to 11000
  144.7412  140.4947  143.6868 LP  0  0  0  0  0  0  0  0  0  0  0  0  # atno 17320 bound_to 7965
  145.5906  139.1495  143.3184 LP  0  0  0  0  0  0  0  0  0  0  0  0  # atno 17321 bound_to 7965
  140.3878  143.2768  152.0096 LP  0  0  0  0  0  0  0  0  0  0  0  0  # atno 17342 bound_to 10162
  139.4831  144.6103  151.7447 LP  0  0  0  0  0  0  0  0  0  0  0  0  # atno 17343 bound_to 10162
  157.7254  130.9615  150.1613 LP  0  0  0  0  0  0  0  0  0  0  0  0  # atno 17370 bound_to 10713
  156.2389  130.3689  149.8359 LP  0  0  0  0  0  0  0  0  0  0  0  0  # atno 17371 bound_to 10713
  140.4995  134.6499  157.5243 LP  0  0  0  0  0  0  0  0  0  0  0  0  # atno 17394 bound_to 11000
  139.9877  134.7036  155.9745 LP  0  0  0  0  0  0  0  0  0  0  0  0  # atno 17395 bound_to 11000

$$$$
