AV-unprocessed.smi:1693|AV-procd|sdf|6786|dock4
  -GOLD-   22720 7543D 1   1.00000     0.00000
 Structure written by MMmdl.
 35 36  0  0  0  0  0  0  0  0  2 V2000
  143.8263  143.3289  155.5063 C   0  0  0  0  0  0  0  0  0  0  0  0
  145.1968  142.7819  155.2974 C   0  0  0  0  0  0  0  0  0  0  0  0
  145.8091  142.0077  156.1964 N   0  0  0  0  0  0  0  0  0  0  0  0
  147.0735  141.6197  155.7772 N   0  0  0  0  0  0  0  0  0  0  0  0
  147.3963  142.0975  154.5669 C   0  0  0  0  0  0  0  0  0  0  0  0
  148.5779  141.8389  153.9825 N   0  5  0  0  0  0  0  0  0  0  0  0
  149.5668  141.2456  154.6894 C   0  0  0  0  0  0  0  0  0  0  0  0
  150.1484  140.1997  154.3919 O   0  0  0  0  0  0  0  0  0  0  0  0
  149.9064  141.9109  155.8036 N   0  0  0  0  0  0  0  0  0  0  0  0
  150.9363  141.5270  156.7692 C   0  0  0  0  0  0  0  0  0  0  0  0
  151.0481  142.5009  157.9701 C   0  0  0  0  0  0  0  0  0  0  0  0
  149.7555  142.5912  158.5434 O   0  0  0  0  0  0  0  0  0  0  0  0
  151.9848  141.8916  159.0418 C   0  0  0  0  0  0  0  0  0  0  0  0
  152.2176  142.8213  160.2462 C   0  0  0  0  0  0  0  0  0  0  0  0
  152.7334  144.1947  159.7966 C   0  0  0  0  0  0  0  0  0  0  0  0
  151.7709  144.8361  158.7881 C   0  0  0  0  0  0  0  0  0  0  0  0
  151.5327  143.9198  157.5744 C   0  0  0  0  0  0  0  0  0  0  0  0
  146.1366  143.1022  153.8495 S   0  0  0  0  0  0  0  0  0  0  0  0
  143.0860  142.5418  155.3637 H   0  0  0  0  0  0  0  0  0  0  0  0
  143.6259  144.1316  154.7967 H   0  0  0  0  0  0  0  0  0  0  0  0
  143.7287  143.7255  156.5171 H   0  0  0  0  0  0  0  0  0  0  0  0
  149.4070  142.7664  155.9970 H   0  0  0  0  0  0  0  0  0  0  0  0
  150.7132  140.5187  157.1204 H   0  0  0  0  0  0  0  0  0  0  0  0
  151.9018  141.4496  156.2670 H   0  0  0  0  0  0  0  0  0  0  0  0
  149.8360  142.4775  159.4777 H   0  0  0  0  0  0  0  0  0  0  0  0
  151.5914  140.9349  159.3883 H   0  0  0  0  0  0  0  0  0  0  0  0
  152.9519  141.6711  158.5875 H   0  0  0  0  0  0  0  0  0  0  0  0
  151.2902  142.9423  160.8072 H   0  0  0  0  0  0  0  0  0  0  0  0
  152.9315  142.3644  160.9320 H   0  0  0  0  0  0  0  0  0  0  0  0
  152.8577  144.8477  160.6607 H   0  0  0  0  0  0  0  0  0  0  0  0
  153.7201  144.0870  159.3441 H   0  0  0  0  0  0  0  0  0  0  0  0
  150.8211  145.0555  159.2772 H   0  0  0  0  0  0  0  0  0  0  0  0
  152.1700  145.7938  158.4534 H   0  0  0  0  0  0  0  0  0  0  0  0
  152.4631  143.8346  157.0113 H   0  0  0  0  0  0  0  0  0  0  0  0
  150.8167  144.3997  156.9061 H   0  0  0  0  0  0  0  0  0  0  0  0
  1  2  1  0  0  0  0
  1 19  1  0  0  0  0
  1 20  1  0  0  0  0
  1 21  1  0  0  0  0
  2 18  1  0  0  0  0
  2  3  2  0  0  0  0
  3  4  1  0  0  0  0
  4  5  2  0  0  0  0
  5  6  1  0  0  0  0
  5 18  1  0  0  0  0
  6  7  1  0  0  0  0
  7  8  2  0  0  0  0
  7  9  1  0  0  0  0
  9 10  1  0  0  0  0
  9 22  1  0  0  0  0
 10 11  1  0  0  0  0
 10 23  1  0  0  0  0
 10 24  1  0  0  0  0
 11 17  1  0  0  0  0
 11 12  1  0  0  0  0
 11 13  1  0  0  0  0
 12 25  1  0  0  0  0
 13 14  1  0  0  0  0
 13 26  1  0  0  0  0
 13 27  1  0  0  0  0
 14 15  1  0  0  0  0
 14 28  1  0  0  0  0
 14 29  1  0  0  0  0
 15 16  1  0  0  0  0
 15 30  1  0  0  0  0
 15 31  1  0  0  0  0
 16 17  1  0  0  0  0
 16 32  1  0  0  0  0
 16 33  1  0  0  0  0
 17 34  1  0  0  0  0
 17 35  1  0  0  0  0
M  CHG  1   6  -1
M  END
> <s_m_source_file>
AV-unprocessed.smi

> <i_m_source_file_index>
1693

> <i_lp_mmshare_version>
43012

> <i_f3d_flags>
0

> <s_epik_input>
W0NIM11jMW5uYyhzMSlbTkhdQyg9TylbTkhdW0NIMl1DMihbT0hdKVtDSDJdW0NIMl1bQ0gyXVtDSDJdW0NIMl0y

> <s_epik_cmdline>
J2VwaWtfcHl0aG9uJywgJy1waCcsICc3LjAnLCAnLXRuJywgJzgnLCAnLW1hJywgJzIwMCcsICctbWV0YWxfYmluZGluZycsICctaW1hZScsICc8aW5maWxlLm1hZT4nLCAnLW9tYWUnLCAnPG91dGZpbGUubWFlPic=

> <r_lp_tautomer_probability>
1

> <r_epik_Ionization_Penalty>
4.37877

> <r_epik_Ionization_Penalty_Charging>
4.24206

> <r_epik_Ionization_Penalty_Neutral>
0.136706

> <r_epik_State_Penalty>
4.2416

> <r_epik_Charging_Adjusted_Penalty>
8.48367

> <i_epik_Tot_Q>
-1

> <i_epik_Tot_abs_Q>
1

> <r_epik_Metal_State_Penalty>
0.704476

> <b_epik_Metal_Only>
1

> <s_lp_Force_Field>
OPLS_2005

> <r_lp_Energy>
12.2595

> <b_lp_Chiralities_Consistent>
1

> <s_lp_Variant>
AV-unprocessed.smi:1693-2

> <Gold.Version>
5.8.1

> <Gold.Id.Protein>
6NUR|6NUR_protein|mol2

> <Gold.PLP.Fitness>
44.8831

> <Gold.PLP.PLP>
-38.8799

> <Gold.PLP.part.hbond>
-3.0000

> <Gold.PLP.part.metal>
0.0000

> <Gold.PLP.part.buried>
-4.9856

> <Gold.PLP.part.nonpolar>
-31.1591

> <Gold.PLP.part.repulsive>
0.6300

> <Gold.PLP.ligand.clash>
0.0000

> <Gold.PLP.ligand.torsion>
0.5838

> <Gold.PLP.Chemscore.Hbond>
2.3830

> <Gold.PLP.Chemscore.CHOScore>
0.0000

> <Gold.PLP.Chemscore.Metal>
0.0000

> <Gold.Chemscore.Hbonds>
donor molecule, donor type, donor heavy atom, donor atom, acceptor molecule, acceptor atom, score
      L1  H     9    22       P1  8028  0.96
      P1  H  7989  7998       L1     8  1.00
      P1  H  8011  8017       L1     6  0.32

> <Gold.PLP.Chemscore.Internal.Correction>
0.0219

> <Gold.Rescore>
     Score         DG    S(hbond)    S(metal)    S(lipo)     H(rot)  DE(clash)    DE(int)     intcor
     15.01     -15.71       1.44        0.00      86.35       1.83       0.13       0.57       ----

> <Gold.Chemscore.Fitness>
15.0144

> <Gold.Chemscore.DG>
-15.7134

> <Gold.Chemscore.ZeroCoef>
-5.4800

> <Gold.Chemscore.Hbond>
1.4420

> <Gold.Chemscore.Metal>
0.0000

> <Gold.Chemscore.Lipo>
86.3456

> <Gold.Chemscore.Internal_Hbond>
0.0000

> <Gold.Chemscore.DEClash>
0.1316

> <Gold.Chemscore.DEInternal>
0.5674

> <Gold.Chemscore.Rot>
1.8303

> <Gold.Chemscore.Internal.Correction>
   9.000000E+99

> <Gold.Chemscore.Hbonds>
donor molecule, donor type, donor heavy atom, donor atom, acceptor molecule, acceptor atom, score
      L1  H     9    22       P1  8028  0.88
      P1  H  7989  7998       L1     8  0.24
      P1  H  8011  8017       L1     6  0.06

> <Gold.Chemscore.Hbond.Weighted>
-4.8164

> <Gold.Chemscore.Metal.Weighted>
-0.0000

> <Gold.Chemscore.Lipo.Weighted>
-10.1024

> <Gold.Chemscore.Internal_Hbond.Weighted>
0.0000

> <Gold.Chemscore.DEClash.Weighted>
0.1316

> <Gold.Chemscore.DEInternal.Weighted>
0.5674

> <Gold.Chemscore.Rot.Weighted>
4.6855

> <Gold.Chemscore.Internal.Correction.Weighted>
   9.000000E+99

> <Gold.Protein.RotatedTorsions>
[ 6907 6896 6895 6894 ] final -164.96 input  -60.11 | X-H torsion
[ 7974 7965 7964 7962 ] final   89.58 input  175.53 | X-H torsion
[ 8008 7997 7996 7995 ] final    9.06 input   59.86 | X-H torsion
[ 10167 10162 10161 10158 ] final  128.91 input  -65.29 | X-H torsion
[ 10718 10713 10712 10709 ] final   65.40 input   66.30 | X-H torsion
[ 10763 10752 10751 10750 ] final  -81.01 input  -60.55 | X-H torsion
[ 11005 11000 10999 10996 ] final  -36.96 input  -57.11 | X-H torsion

> <Gold.Protein.ActiveResidues>
 VAL166  LYS551  ARG553  GLY616  TRP617  ASP618  TYR619  PRO620  LYS621  CYS622 
 ASP623  PHE694  ASN695  SER759  ASP760  ASP761  ALA762  ILE779  LEU786  VAL792 
 PHE793  MET794  SER795  GLU796  ALA797  LYS798  CYS799  TRP800  GLU811  SER814 

> <Gold.Protein.RotatedAtoms>
  151.4201  133.3701  159.2754 H   0  0  0  0  0  0  0  0  0  0  0  0  # atno 6907 bound_to 6896
  150.9300  134.8717  159.7555 H   0  0  0  0  0  0  0  0  0  0  0  0  # atno 6908 bound_to 6896
  152.5023  134.4145  159.9512 H   0  0  0  0  0  0  0  0  0  0  0  0  # atno 6909 bound_to 6896
  145.5304  139.2283  143.2622 H   0  0  0  0  0  0  0  0  0  0  0  0  # atno 7974 bound_to 7965
  154.7750  140.2808  155.6108 H   0  0  0  0  0  0  0  0  0  0  0  0  # atno 8008 bound_to 7997
  156.2940  140.2634  156.2489 H   0  0  0  0  0  0  0  0  0  0  0  0  # atno 8009 bound_to 7997
  154.9854  140.0374  157.2285 H   0  0  0  0  0  0  0  0  0  0  0  0  # atno 8010 bound_to 7997
  139.5504  144.6808  151.4343 H   0  0  0  0  0  0  0  0  0  0  0  0  # atno 10167 bound_to 10162
  157.6103  130.9212  149.9972 H   0  0  0  0  0  0  0  0  0  0  0  0  # atno 10718 bound_to 10713
  154.5583  135.5641  153.6984 H   0  0  0  0  0  0  0  0  0  0  0  0  # atno 10763 bound_to 10752
  153.0010  135.6268  154.2279 H   0  0  0  0  0  0  0  0  0  0  0  0  # atno 10764 bound_to 10752
  154.2216  135.2869  155.2902 H   0  0  0  0  0  0  0  0  0  0  0  0  # atno 10765 bound_to 10752
  140.9915  133.7002  156.1859 H   0  0  0  0  0  0  0  0  0  0  0  0  # atno 11005 bound_to 11000
  146.2047  140.6121  142.9086 LP  0  0  0  0  0  0  0  0  0  0  0  0  # atno 17320 bound_to 7965
  144.7629  140.5463  143.6723 LP  0  0  0  0  0  0  0  0  0  0  0  0  # atno 17321 bound_to 7965
  140.6764  143.8179  150.7064 LP  0  0  0  0  0  0  0  0  0  0  0  0  # atno 17342 bound_to 10162
  140.1619  143.4268  152.2061 LP  0  0  0  0  0  0  0  0  0  0  0  0  # atno 17343 bound_to 10162
  156.1203  130.3646  149.9898 LP  0  0  0  0  0  0  0  0  0  0  0  0  # atno 17370 bound_to 10713
  156.7979  130.9280  151.3646 LP  0  0  0  0  0  0  0  0  0  0  0  0  # atno 17371 bound_to 10713
  140.7032  134.4541  157.5585 LP  0  0  0  0  0  0  0  0  0  0  0  0  # atno 17394 bound_to 11000
  139.8994  134.8591  156.1959 LP  0  0  0  0  0  0  0  0  0  0  0  0  # atno 17395 bound_to 11000

$$$$
