AV-unprocessed.smi:2403|AV-procd|sdf|9510|dock10
  -GOLD-   2272013143D 1   1.00000     0.00000
 Structure written by MMmdl.
 48 50  0  0  0  0  0  0  0  0  2 V2000
  147.3973  133.1175  152.1207 C   0  0  0  0  0  0  0  0  0  0  0  0
  146.0209  133.5618  151.6564 C   0  0  0  0  0  0  0  0  0  0  0  0
  145.1264  132.6108  151.1167 C   0  0  0  0  0  0  0  0  0  0  0  0
  143.8511  133.0260  150.6864 C   0  0  0  0  0  0  0  0  0  0  0  0
  143.4994  134.3245  150.7889 N   0  3  0  0  0  0  0  0  0  0  0  0
  144.3193  135.2683  151.2982 C   0  0  0  0  0  0  0  0  0  0  0  0
  145.6114  134.9157  151.7624 C   0  0  0  0  0  0  0  0  0  0  0  0
  146.5232  135.8726  152.2900 N   0  0  0  0  0  0  0  0  0  0  0  0
  146.2554  136.9129  153.0972 C   0  0  0  0  0  0  0  0  0  0  0  0
  145.1384  137.2079  153.5218 O   0  0  0  0  0  0  0  0  0  0  0  0
  147.3775  137.5806  153.4191 N   0  0  0  0  0  0  0  0  0  0  0  0
  147.5103  138.7495  154.3092 C   0  0  0  0  0  0  0  0  0  0  0  0
  147.0332  138.4634  155.7626 C   0  0  0  0  0  0  0  0  0  0  0  0
  146.1682  139.1731  156.2777 O   0  0  0  0  0  0  0  0  0  0  0  0
  147.6035  137.4443  156.4265 N   0  0  0  0  0  0  0  0  0  0  0  0
  147.2708  137.0361  157.7822 C   0  0  0  0  0  0  0  0  0  0  0  0
  148.4189  136.3757  158.5160 C   0  0  0  0  0  0  0  0  0  0  0  0
  148.5094  136.4405  160.0225 C   0  0  0  0  0  0  0  0  0  0  0  0
  149.4993  137.2018  159.1734 C   0  0  0  0  0  0  0  0  0  0  0  0
  149.0026  139.1583  154.3508 C   0  0  0  0  0  0  0  0  0  0  0  0
  149.0289  140.6833  154.4249 C   0  0  0  0  0  0  0  0  0  0  0  0
  147.8557  141.1110  153.5537 C   0  0  0  0  0  0  0  0  0  0  0  0
  146.8043  140.0039  153.7035 C   0  0  0  0  0  0  0  0  0  0  0  0
  147.5265  132.0405  152.0094 H   0  0  0  0  0  0  0  0  0  0  0  0
  147.5436  133.3660  153.1724 H   0  0  0  0  0  0  0  0  0  0  0  0
  148.1738  133.6126  151.5371 H   0  0  0  0  0  0  0  0  0  0  0  0
  145.4115  131.5723  151.0302 H   0  0  0  0  0  0  0  0  0  0  0  0
  143.1097  132.3648  150.2618 H   0  0  0  0  0  0  0  0  0  0  0  0
  143.9115  136.2681  151.3013 H   0  0  0  0  0  0  0  0  0  0  0  0
  147.4989  135.6966  152.0989 H   0  0  0  0  0  0  0  0  0  0  0  0
  148.2404  137.2453  153.0166 H   0  0  0  0  0  0  0  0  0  0  0  0
  148.3109  136.9061  155.9485 H   0  0  0  0  0  0  0  0  0  0  0  0
  146.9309  137.9062  158.3461 H   0  0  0  0  0  0  0  0  0  0  0  0
  146.4377  136.3322  157.7511 H   0  0  0  0  0  0  0  0  0  0  0  0
  148.7381  135.4353  158.0702 H   0  0  0  0  0  0  0  0  0  0  0  0
  147.7554  137.0187  160.5529 H   0  0  0  0  0  0  0  0  0  0  0  0
  148.8699  135.5551  160.5425 H   0  0  0  0  0  0  0  0  0  0  0  0
  150.5183  136.8235  159.1257 H   0  0  0  0  0  0  0  0  0  0  0  0
  149.4023  138.2853  159.1393 H   0  0  0  0  0  0  0  0  0  0  0  0
  149.5537  138.7077  155.1781 H   0  0  0  0  0  0  0  0  0  0  0  0
  149.5087  138.8462  153.4353 H   0  0  0  0  0  0  0  0  0  0  0  0
  148.8671  141.0098  155.4529 H   0  0  0  0  0  0  0  0  0  0  0  0
  149.9766  141.1042  154.0876 H   0  0  0  0  0  0  0  0  0  0  0  0
  147.4704  142.0930  153.8295 H   0  0  0  0  0  0  0  0  0  0  0  0
  148.1796  141.1656  152.5135 H   0  0  0  0  0  0  0  0  0  0  0  0
  146.3565  139.8081  152.7287 H   0  0  0  0  0  0  0  0  0  0  0  0
  145.9868  140.3552  154.3349 H   0  0  0  0  0  0  0  0  0  0  0  0
  142.5743  134.6074  150.4642 H   0  0  0  0  0  0  0  0  0  0  0  0
  1  2  1  0  0  0  0
  1 24  1  0  0  0  0
  1 25  1  0  0  0  0
  1 26  1  0  0  0  0
  2  7  1  0  0  0  0
  2  3  2  0  0  0  0
  3  4  1  0  0  0  0
  3 27  1  0  0  0  0
  4  5  2  0  0  0  0
  4 28  1  0  0  0  0
  5  6  1  0  0  0  0
  5 48  1  0  0  0  0
  6  7  2  0  0  0  0
  6 29  1  0  0  0  0
  7  8  1  0  0  0  0
  8  9  1  0  0  0  0
  8 30  1  0  0  0  0
  9 10  2  0  0  0  0
  9 11  1  0  0  0  0
 11 12  1  0  0  0  0
 11 31  1  0  0  0  0
 12 23  1  0  0  0  0
 12 13  1  0  0  0  0
 12 20  1  0  0  0  0
 13 14  2  0  0  0  0
 13 15  1  0  0  0  0
 15 16  1  0  0  0  0
 15 32  1  0  0  0  0
 16 17  1  0  0  0  0
 16 33  1  0  0  0  0
 16 34  1  0  0  0  0
 17 19  1  0  0  0  0
 17 18  1  0  0  0  0
 17 35  1  0  0  0  0
 18 19  1  0  0  0  0
 18 36  1  0  0  0  0
 18 37  1  0  0  0  0
 19 38  1  0  0  0  0
 19 39  1  0  0  0  0
 20 21  1  0  0  0  0
 20 40  1  0  0  0  0
 20 41  1  0  0  0  0
 21 22  1  0  0  0  0
 21 42  1  0  0  0  0
 21 43  1  0  0  0  0
 22 23  1  0  0  0  0
 22 44  1  0  0  0  0
 22 45  1  0  0  0  0
 23 46  1  0  0  0  0
 23 47  1  0  0  0  0
M  CHG  1   5   1
M  END
> <s_m_source_file>
AV-unprocessed.smi

> <i_m_source_file_index>
2403

> <i_lp_mmshare_version>
43012

> <i_f3d_flags>
0

> <s_epik_input>
W0NIM11jMVtjSF1bY0hdbltjSF1jMVtOSF1DKD1PKVtOSF1DMihbQ0gyXVtDSDJdW0NIMl1bQ0gyXTIpQyg9TylbTkhdW0NIMl1bQ0hdM1tDSDJdW0NIMl0z

> <s_epik_cmdline>
J2VwaWtfcHl0aG9uJywgJy1waCcsICc3LjAnLCAnLXRuJywgJzgnLCAnLW1hJywgJzIwMCcsICctbWV0YWxfYmluZGluZycsICctaW1hZScsICc8aW5maWxlLm1hZT4nLCAnLW9tYWUnLCAnPG91dGZpbGUubWFlPic=

> <r_epik_Ionization_Penalty>
2.03963

> <r_epik_Ionization_Penalty_Charging>
2.03961

> <r_epik_Ionization_Penalty_Neutral>
1.99712e-05

> <r_epik_State_Penalty>
2.17125

> <r_epik_Charging_Adjusted_Penalty>
4.21085

> <i_epik_Tot_Q>
1

> <i_epik_Tot_abs_Q>
1

> <r_epik_Metal_State_Penalty>
2.19001

> <b_epik_Metal_Only>
0

> <s_lp_Force_Field>
OPLS_2005

> <r_lp_Energy>
38.2062

> <b_lp_Chiralities_Consistent>
1

> <s_lp_Variant>
AV-unprocessed.smi:2403-2

> <Gold.Version>
5.8.1

> <Gold.Id.Protein>
6NUR|6NUR_protein|mol2

> <Gold.PLP.Fitness>
43.6239

> <Gold.PLP.PLP>
-32.7678

> <Gold.PLP.part.hbond>
-2.7908

> <Gold.PLP.part.metal>
0.0000

> <Gold.PLP.part.buried>
-4.0778

> <Gold.PLP.part.nonpolar>
-26.6631

> <Gold.PLP.part.repulsive>
0.2079

> <Gold.PLP.ligand.clash>
0.0000

> <Gold.PLP.ligand.torsion>
0.8105

> <Gold.PLP.Chemscore.Hbond>
3.9440

> <Gold.PLP.Chemscore.CHOScore>
0.0000

> <Gold.PLP.Chemscore.Metal>
0.0000

> <Gold.Chemscore.Hbonds>
donor molecule, donor type, donor heavy atom, donor atom, acceptor molecule, acceptor atom, score
      L1  H     5    48       P1 10186  2.00
      L1  H     8    30       P1  7948  1.00
      L1  H    11    31       P1  7948  0.93

> <Gold.PLP.Chemscore.Internal.Correction>
0.6451

> <Gold.Rescore>
     Score         DG    S(hbond)    S(metal)    S(lipo)     H(rot)  DE(clash)    DE(int)     intcor
     17.61     -19.69       2.68        0.00      80.52       1.63       0.56       1.51       ----

> <Gold.Chemscore.Fitness>
17.6118

> <Gold.Chemscore.DG>
-19.6889

> <Gold.Chemscore.ZeroCoef>
-5.4800

> <Gold.Chemscore.Hbond>
2.6819

> <Gold.Chemscore.Metal>
0.0000

> <Gold.Chemscore.Lipo>
80.5185

> <Gold.Chemscore.Internal_Hbond>
0.0000

> <Gold.Chemscore.DEClash>
0.5638

> <Gold.Chemscore.DEInternal>
1.5133

> <Gold.Chemscore.Rot>
1.6286

> <Gold.Chemscore.Internal.Correction>
   9.000000E+99

> <Gold.Chemscore.Hbonds>
donor molecule, donor type, donor heavy atom, donor atom, acceptor molecule, acceptor atom, score
      L1  H     5    48       P1 10186  0.25
      L1  H     8    30       P1  7948  0.90
      L1  H    11    31       P1  7948  0.91

> <Gold.Chemscore.Hbond.Weighted>
-8.9575

> <Gold.Chemscore.Metal.Weighted>
-0.0000

> <Gold.Chemscore.Lipo.Weighted>
-9.4207

> <Gold.Chemscore.Internal_Hbond.Weighted>
0.0000

> <Gold.Chemscore.DEClash.Weighted>
0.5638

> <Gold.Chemscore.DEInternal.Weighted>
1.5133

> <Gold.Chemscore.Rot.Weighted>
4.1692

> <Gold.Chemscore.Internal.Correction.Weighted>
   9.000000E+99

> <Gold.Protein.RotatedTorsions>
[ 6907 6896 6895 6894 ] final  -48.14 input  -60.11 | X-H torsion
[ 7974 7965 7964 7962 ] final -134.51 input  175.53 | X-H torsion
[ 8008 7997 7996 7995 ] final   21.12 input   59.86 | X-H torsion
[ 10167 10162 10161 10158 ] final    0.29 input  -65.29 | X-H torsion
[ 10718 10713 10712 10709 ] final   53.73 input   66.30 | X-H torsion
[ 10763 10752 10751 10750 ] final  179.57 input  -60.55 | X-H torsion
[ 11005 11000 10999 10996 ] final  142.35 input  -57.11 | X-H torsion

> <Gold.Protein.ActiveResidues>
 VAL166  LYS551  ARG553  GLY616  TRP617  ASP618  TYR619  PRO620  LYS621  CYS622 
 ASP623  PHE694  ASN695  SER759  ASP760  ASP761  ALA762  ILE779  LEU786  VAL792 
 PHE793  MET794  SER795  GLU796  ALA797  LYS798  CYS799  TRP800  GLU811  SER814 

> <Gold.Protein.RotatedAtoms>
  150.8936  134.8342  159.7310 H   0  0  0  0  0  0  0  0  0  0  0  0  # atno 6907 bound_to 6896
  152.4851  134.4611  159.9615 H   0  0  0  0  0  0  0  0  0  0  0  0  # atno 6908 bound_to 6896
  151.4671  133.3539  159.2853 H   0  0  0  0  0  0  0  0  0  0  0  0  # atno 6909 bound_to 6896
  144.9097  140.6879  143.5033 H   0  0  0  0  0  0  0  0  0  0  0  0  # atno 7974 bound_to 7965
  154.9459  140.3059  155.5098 H   0  0  0  0  0  0  0  0  0  0  0  0  # atno 8008 bound_to 7997
  156.2992  140.2328  156.4470 H   0  0  0  0  0  0  0  0  0  0  0  0  # atno 8009 bound_to 7997
  154.8101  140.0429  157.1325 H   0  0  0  0  0  0  0  0  0  0  0  0  # atno 8010 bound_to 7997
  140.6735  143.6981  150.7973 H   0  0  0  0  0  0  0  0  0  0  0  0  # atno 10167 bound_to 10162
  157.5193  130.8554  149.8538 H   0  0  0  0  0  0  0  0  0  0  0  0  # atno 10718 bound_to 10713
  154.5224  135.2794  155.1251 H   0  0  0  0  0  0  0  0  0  0  0  0  # atno 10763 bound_to 10752
  154.2804  135.6286  153.5348 H   0  0  0  0  0  0  0  0  0  0  0  0  # atno 10764 bound_to 10752
  152.9939  135.5649  154.5716 H   0  0  0  0  0  0  0  0  0  0  0  0  # atno 10765 bound_to 10752
  140.0470  134.9275  157.0948 H   0  0  0  0  0  0  0  0  0  0  0  0  # atno 11005 bound_to 11000
  145.3476  139.1715  143.4452 LP  0  0  0  0  0  0  0  0  0  0  0  0  # atno 17320 bound_to 7965
  146.3152  140.3524  142.8657 LP  0  0  0  0  0  0  0  0  0  0  0  0  # atno 17321 bound_to 7965
  140.0671  143.5098  152.2599 LP  0  0  0  0  0  0  0  0  0  0  0  0  # atno 17342 bound_to 10162
  139.6015  144.7584  151.3160 LP  0  0  0  0  0  0  0  0  0  0  0  0  # atno 17343 bound_to 10162
  156.0342  130.3756  150.1604 LP  0  0  0  0  0  0  0  0  0  0  0  0  # atno 17370 bound_to 10713
  156.9792  130.9859  151.3441 LP  0  0  0  0  0  0  0  0  0  0  0  0  # atno 17371 bound_to 10713
  140.3977  134.2116  155.7164 LP  0  0  0  0  0  0  0  0  0  0  0  0  # atno 17394 bound_to 11000
  141.1912  133.8200  157.0889 LP  0  0  0  0  0  0  0  0  0  0  0  0  # atno 17395 bound_to 11000

$$$$
