AV-unprocessed.smi:1351|AV-procd|sdf|5527|dock3
  -GOLD-   22720 5113D 1   1.00000     0.00000
 Structure written by MMmdl.
 35 36  0  0  0  0  0  0  0  0  2 V2000
  154.1568  141.2934  161.0697 C   0  0  0  0  0  0  0  0  0  0  0  0
  153.0940  142.2620  160.8254 N   0  0  0  0  0  0  0  0  0  0  0  0
  152.7631  143.2595  161.8345 C   0  0  0  0  0  0  0  0  0  0  0  0
  152.3210  142.1736  159.6475 C   0  0  0  0  0  0  0  0  0  0  0  0
  152.4832  141.1436  158.6887 C   0  0  0  0  0  0  0  0  0  0  0  0
  151.6725  141.1245  157.5353 C   0  0  0  0  0  0  0  0  0  0  0  0
  150.6969  142.1251  157.3452 C   0  0  0  0  0  0  0  0  0  0  0  0
  149.9172  142.0727  156.1583 N   0  0  0  0  0  0  0  0  0  0  0  0
  149.9397  141.1580  155.1705 C   0  0  0  0  0  0  0  0  0  0  0  0
  150.7229  140.2100  155.1175 O   0  0  0  0  0  0  0  0  0  0  0  0
  148.9376  141.3778  154.0295 C   0  0  1  0  0  0  0  0  0  0  0  0
  148.0512  140.1693  153.7237 C   0  0  0  0  0  0  0  0  0  0  0  0
  146.8741  140.8267  153.0375 C   0  0  0  0  0  0  0  0  0  0  0  0
  146.7408  142.1473  153.7942 C   0  0  0  0  0  0  0  0  0  0  0  0
  148.0165  142.4107  154.3747 O   0  0  0  0  0  0  0  0  0  0  0  0
  150.5788  143.1375  158.3265 C   0  0  0  0  0  0  0  0  0  0  0  0
  151.3778  143.1190  159.4153 N   0  3  0  0  0  0  0  0  0  0  0  0
  154.9002  141.3283  160.2726 H   0  0  0  0  0  0  0  0  0  0  0  0
  153.7497  140.2829  161.1211 H   0  0  0  0  0  0  0  0  0  0  0  0
  154.6690  141.4955  162.0105 H   0  0  0  0  0  0  0  0  0  0  0  0
  151.7475  143.1102  162.2029 H   0  0  0  0  0  0  0  0  0  0  0  0
  152.8397  144.2645  161.4184 H   0  0  0  0  0  0  0  0  0  0  0  0
  153.4392  143.2010  162.6876 H   0  0  0  0  0  0  0  0  0  0  0  0
  153.2202  140.3651  158.8165 H   0  0  0  0  0  0  0  0  0  0  0  0
  151.8006  140.3403  156.8032 H   0  0  0  0  0  0  0  0  0  0  0  0
  149.2768  142.8420  156.0229 H   0  0  0  0  0  0  0  0  0  0  0  0
  149.4751  141.6819  153.1300 H   0  0  0  0  0  0  0  0  0  0  0  0
  148.5438  139.4307  153.0906 H   0  0  0  0  0  0  0  0  0  0  0  0
  147.7247  139.6753  154.6406 H   0  0  0  0  0  0  0  0  0  0  0  0
  147.1169  141.0195  151.9916 H   0  0  0  0  0  0  0  0  0  0  0  0
  145.9663  140.2235  153.0700 H   0  0  0  0  0  0  0  0  0  0  0  0
  146.4290  142.9620  153.1402 H   0  0  0  0  0  0  0  0  0  0  0  0
  146.0079  142.0592  154.5969 H   0  0  0  0  0  0  0  0  0  0  0  0
  149.8915  143.9688  158.2858 H   0  0  0  0  0  0  0  0  0  0  0  0
  151.2646  143.8643  160.1025 H   0  0  0  0  0  0  0  0  0  0  0  0
  1  2  1  0  0  0  0
  1 18  1  0  0  0  0
  1 19  1  0  0  0  0
  1 20  1  0  0  0  0
  2  3  1  0  0  0  0
  2  4  1  0  0  0  0
  3 21  1  0  0  0  0
  3 22  1  0  0  0  0
  3 23  1  0  0  0  0
  4 17  1  0  0  0  0
  4  5  2  0  0  0  0
  5  6  1  0  0  0  0
  5 24  1  0  0  0  0
  6  7  2  0  0  0  0
  6 25  1  0  0  0  0
  7  8  1  0  0  0  0
  7 16  1  0  0  0  0
  8  9  1  0  0  0  0
  8 26  1  0  0  0  0
  9 10  2  0  0  0  0
  9 11  1  0  0  0  0
 11 15  1  0  0  0  0
 11 12  1  0  0  0  0
 11 27  1  0  0  0  0
 12 13  1  0  0  0  0
 12 28  1  0  0  0  0
 12 29  1  0  0  0  0
 13 14  1  0  0  0  0
 13 30  1  0  0  0  0
 13 31  1  0  0  0  0
 14 15  1  0  0  0  0
 14 32  1  0  0  0  0
 14 33  1  0  0  0  0
 16 17  2  0  0  0  0
 16 34  1  0  0  0  0
 17 35  1  0  0  0  0
M  CHG  1  17   1
M  END
> <s_m_source_file>
AV-unprocessed.smi

> <i_m_source_file_index>
1351

> <i_lp_mmshare_version>
43012

> <i_f3d_flags>
0

> <s_epik_input>
W0NIM11OKFtDSDNdKWMxW2NIXVtjSF1jKFtjSF1uMSlbTkhdQyg9TylbQ0BASF0yW0NIMl1bQ0gyXVtDSDJdTzI=

> <s_epik_cmdline>
J2VwaWtfcHl0aG9uJywgJy1waCcsICc3LjAnLCAnLXRuJywgJzgnLCAnLW1hJywgJzIwMCcsICctbWV0YWxfYmluZGluZycsICctaW1hZScsICc8aW5maWxlLm1hZT4nLCAnLW9tYWUnLCAnPG91dGZpbGUubWFlPic=

> <r_lp_tautomer_probability>
0.999994

> <r_epik_Ionization_Penalty>
0.682441

> <r_epik_Ionization_Penalty_Charging>
0.68244

> <r_epik_Ionization_Penalty_Neutral>
1.70545e-06

> <r_epik_State_Penalty>
0.703594

> <r_epik_Charging_Adjusted_Penalty>
1.38603

> <i_epik_Tot_Q>
1

> <i_epik_Tot_abs_Q>
1

> <r_epik_Metal_State_Penalty>
0.869714

> <b_epik_Metal_Only>
0

> <s_lp_Force_Field>
OPLS_2005

> <r_lp_Energy>
30.013

> <b_lp_Chiralities_Consistent>
1

> <s_lp_Variant>
AV-unprocessed.smi:1351-4

> <Gold.Version>
5.8.1

> <Gold.Id.Protein>
6NUR|6NUR_protein|mol2

> <Gold.PLP.Fitness>
42.1609

> <Gold.PLP.PLP>
-36.7575

> <Gold.PLP.part.hbond>
-2.0000

> <Gold.PLP.part.metal>
0.0000

> <Gold.PLP.part.buried>
-2.2297

> <Gold.PLP.part.nonpolar>
-33.9318

> <Gold.PLP.part.repulsive>
2.3412

> <Gold.PLP.ligand.clash>
0.0000

> <Gold.PLP.ligand.torsion>
0.1277

> <Gold.PLP.Chemscore.Hbond>
1.8800

> <Gold.PLP.Chemscore.CHOScore>
0.0000

> <Gold.PLP.Chemscore.Metal>
0.0000

> <Gold.Chemscore.Hbonds>
donor molecule, donor type, donor heavy atom, donor atom, acceptor molecule, acceptor atom, score
      L1  H     8    26       P1  8028  1.00
      P1  H  7989  7998       L1    10  0.70

> <Gold.PLP.Chemscore.Internal.Correction>
0.0190

> <Gold.Rescore>
     Score         DG    S(hbond)    S(metal)    S(lipo)     H(rot)  DE(clash)    DE(int)     intcor
     13.83     -15.96       0.97        0.00      83.83       1.00       0.62       1.50       ----

> <Gold.Chemscore.Fitness>
13.8329

> <Gold.Chemscore.DG>
-15.9596

> <Gold.Chemscore.ZeroCoef>
-5.4800

> <Gold.Chemscore.Hbond>
0.9675

> <Gold.Chemscore.Metal>
0.0000

> <Gold.Chemscore.Lipo>
83.8291

> <Gold.Chemscore.Internal_Hbond>
0.0000

> <Gold.Chemscore.DEClash>
0.6220

> <Gold.Chemscore.DEInternal>
1.5047

> <Gold.Chemscore.Rot>
1.0000

> <Gold.Chemscore.Internal.Correction>
   9.000000E+99

> <Gold.Chemscore.Hbonds>
donor molecule, donor type, donor heavy atom, donor atom, acceptor molecule, acceptor atom, score
      L1  H     8    26       P1  8028  0.95
      P1  H  7989  7998       L1    10  0.07

> <Gold.Chemscore.Hbond.Weighted>
-3.2316

> <Gold.Chemscore.Metal.Weighted>
-0.0000

> <Gold.Chemscore.Lipo.Weighted>
-9.8080

> <Gold.Chemscore.Internal_Hbond.Weighted>
0.0000

> <Gold.Chemscore.DEClash.Weighted>
0.6220

> <Gold.Chemscore.DEInternal.Weighted>
1.5047

> <Gold.Chemscore.Rot.Weighted>
2.5600

> <Gold.Chemscore.Internal.Correction.Weighted>
   9.000000E+99

> <Gold.Protein.RotatedTorsions>
[ 6907 6896 6895 6894 ] final   53.82 input  -60.11 | X-H torsion
[ 7974 7965 7964 7962 ] final -116.97 input  175.53 | X-H torsion
[ 8008 7997 7996 7995 ] final  -39.76 input   59.86 | X-H torsion
[ 10167 10162 10161 10158 ] final   90.03 input  -65.29 | X-H torsion
[ 10718 10713 10712 10709 ] final  147.25 input   66.30 | X-H torsion
[ 10763 10752 10751 10750 ] final   12.31 input  -60.55 | X-H torsion
[ 11005 11000 10999 10996 ] final   53.61 input  -57.11 | X-H torsion

> <Gold.Protein.ActiveResidues>
 VAL166  LYS551  ARG553  GLY616  TRP617  ASP618  TYR619  PRO620  LYS621  CYS622 
 ASP623  PHE694  ASN695  SER759  ASP760  ASP761  ALA762  ILE779  LEU786  VAL792 
 PHE793  MET794  SER795  GLU796  ALA797  LYS798  CYS799  TRP800  GLU811  SER814 

> <Gold.Protein.RotatedAtoms>
  152.3376  134.7177  160.0272 H   0  0  0  0  0  0  0  0  0  0  0  0  # atno 6907 bound_to 6896
  151.7573  133.3326  159.3416 H   0  0  0  0  0  0  0  0  0  0  0  0  # atno 6908 bound_to 6896
  150.7460  134.6070  159.6110 H   0  0  0  0  0  0  0  0  0  0  0  0  # atno 6909 bound_to 6896
  145.0906  140.8487  143.3984 H   0  0  0  0  0  0  0  0  0  0  0  0  # atno 7974 bound_to 7965
  154.4019  140.1543  156.2916 H   0  0  0  0  0  0  0  0  0  0  0  0  # atno 8008 bound_to 7997
  155.8780  140.3445  155.5846 H   0  0  0  0  0  0  0  0  0  0  0  0  # atno 8009 bound_to 7997
  155.7699  140.0829  157.2103 H   0  0  0  0  0  0  0  0  0  0  0  0  # atno 8010 bound_to 7997
  139.8514  144.6591  150.9165 H   0  0  0  0  0  0  0  0  0  0  0  0  # atno 10167 bound_to 10162
  157.3232  131.0908  151.1223 H   0  0  0  0  0  0  0  0  0  0  0  0  # atno 10718 bound_to 10713
  153.1835  135.6831  153.8446 H   0  0  0  0  0  0  0  0  0  0  0  0  # atno 10763 bound_to 10752
  153.7770  135.3188  155.3361 H   0  0  0  0  0  0  0  0  0  0  0  0  # atno 10764 bound_to 10752
  154.8074  135.4739  154.0524 H   0  0  0  0  0  0  0  0  0  0  0  0  # atno 10765 bound_to 10752
  140.0753  134.5413  155.9003 H   0  0  0  0  0  0  0  0  0  0  0  0  # atno 11005 bound_to 11000
  145.1070  139.2783  143.5657 LP  0  0  0  0  0  0  0  0  0  0  0  0  # atno 17320 bound_to 7965
  146.3531  140.0654  142.8626 LP  0  0  0  0  0  0  0  0  0  0  0  0  # atno 17321 bound_to 7965
  140.7787  143.3824  151.1453 LP  0  0  0  0  0  0  0  0  0  0  0  0  # atno 17342 bound_to 10162
  139.7462  143.8849  152.3064 LP  0  0  0  0  0  0  0  0  0  0  0  0  # atno 17343 bound_to 10162
  157.2500  130.6609  149.5927 LP  0  0  0  0  0  0  0  0  0  0  0  0  # atno 17370 bound_to 10713
  155.9688  130.4541  150.5838 LP  0  0  0  0  0  0  0  0  0  0  0  0  # atno 17371 bound_to 10713
  141.2027  133.6627  156.6022 LP  0  0  0  0  0  0  0  0  0  0  0  0  # atno 17394 bound_to 11000
  140.3566  134.7723  157.4505 LP  0  0  0  0  0  0  0  0  0  0  0  0  # atno 17395 bound_to 11000

$$$$
