AV-unprocessed.smi:3070|AV-procd|sdf|11711|dock3
  -GOLD-   2272017113D 1   1.00000     0.00000
 Structure written by MMmdl.
 21 22  0  0  0  0  0  0  0  0  2 V2000
  153.1794  138.3120  154.5251 C   0  0  0  0  0  0  0  0  0  0  0  0
  152.1289  137.4874  154.8114 N   0  0  0  0  0  0  0  0  0  0  0  0
  151.2953  138.3675  155.3476 C   0  0  0  0  0  0  0  0  0  0  0  0
  151.7769  139.6111  155.3925 N   0  0  0  0  0  0  0  0  0  0  0  0
  151.1719  140.8324  155.9025 C   0  0  2  0  0  0  0  0  0  0  0  0
  150.8342  140.7854  157.3924 C   0  0  0  0  0  0  0  0  0  0  0  0
  149.8112  141.9127  157.5404 C   0  0  0  0  0  0  0  0  0  0  0  0
  149.1009  141.9995  156.2478 N   0  3  0  0  0  0  0  0  0  0  0  0
  149.8243  141.1779  155.2571 C   0  0  0  0  0  0  0  0  0  0  0  0
  153.0205  139.5944  154.8535 N   0  0  0  0  0  0  0  0  0  0  0  0
  154.0881  137.9570  154.0615 H   0  0  0  0  0  0  0  0  0  0  0  0
  150.3158  138.0988  155.7156 H   0  0  0  0  0  0  0  0  0  0  0  0
  151.8660  141.6568  155.7290 H   0  0  0  0  0  0  0  0  0  0  0  0
  150.3692  139.8349  157.6582 H   0  0  0  0  0  0  0  0  0  0  0  0
  151.7080  140.9214  158.0305 H   0  0  0  0  0  0  0  0  0  0  0  0
  149.1205  141.7448  158.3671 H   0  0  0  0  0  0  0  0  0  0  0  0
  150.3217  142.8604  157.7160 H   0  0  0  0  0  0  0  0  0  0  0  0
  148.1589  141.6483  156.3459 H   0  0  0  0  0  0  0  0  0  0  0  0
  149.9397  141.7039  154.3091 H   0  0  0  0  0  0  0  0  0  0  0  0
  149.2302  140.2822  155.0716 H   0  0  0  0  0  0  0  0  0  0  0  0
  149.0737  142.9631  155.9458 H   0  0  0  0  0  0  0  0  0  0  0  0
  1 10  2  0  0  0  0
  1  2  1  0  0  0  0
  1 11  1  0  0  0  0
  2  3  2  0  0  0  0
  3  4  1  0  0  0  0
  3 12  1  0  0  0  0
  4  5  1  0  0  0  0
  4 10  1  0  0  0  0
  5  9  1  0  0  0  0
  5  6  1  0  0  0  0
  5 13  1  0  0  0  0
  6  7  1  0  0  0  0
  6 14  1  0  0  0  0
  6 15  1  0  0  0  0
  7  8  1  0  0  0  0
  7 16  1  0  0  0  0
  7 17  1  0  0  0  0
  8  9  1  0  0  0  0
  8 18  1  0  0  0  0
  8 21  1  0  0  0  0
  9 19  1  0  0  0  0
  9 20  1  0  0  0  0
M  CHG  1   8   1
M  END
> <s_m_source_file>
AV-unprocessed.smi

> <i_m_source_file_index>
3070

> <i_lp_mmshare_version>
43012

> <i_f3d_flags>
0

> <s_epik_input>
bjFbY0hdbltjSF1uMVtDQEBIXTJbQ0gyXVtDSDJdW05IXVtDSDJdMg==

> <s_epik_cmdline>
J2VwaWtfcHl0aG9uJywgJy1waCcsICc3LjAnLCAnLXRuJywgJzgnLCAnLW1hJywgJzIwMCcsICctbWV0YWxfYmluZGluZycsICctaW1hZScsICc8aW5maWxlLm1hZT4nLCAnLW9tYWUnLCAnPG91dGZpbGUubWFlPic=

> <r_lp_tautomer_probability>
1

> <r_epik_Ionization_Penalty>
0.000421274

> <r_epik_Ionization_Penalty_Charging>
0.000420295

> <r_epik_Ionization_Penalty_Neutral>
9.79543e-07

> <r_epik_State_Penalty>
0.000258452

> <r_epik_Charging_Adjusted_Penalty>
0.000678746

> <i_epik_Tot_Q>
1

> <i_epik_Tot_abs_Q>
1

> <r_epik_Metal_State_Penalty>
-0

> <b_epik_Metal_Only>
0

> <s_lp_Force_Field>
OPLS_2005

> <r_lp_Energy>
29.098

> <b_lp_Chiralities_Consistent>
1

> <s_lp_Variant>
AV-unprocessed.smi:3070-1

> <Gold.Version>
5.8.1

> <Gold.Id.Protein>
6NUR|6NUR_protein|mol2

> <Gold.PLP.Fitness>
32.7210

> <Gold.PLP.PLP>
-21.4481

> <Gold.PLP.part.hbond>
-4.0000

> <Gold.PLP.part.metal>
0.0000

> <Gold.PLP.part.buried>
-1.4299

> <Gold.PLP.part.nonpolar>
-16.1869

> <Gold.PLP.part.repulsive>
0.1659

> <Gold.PLP.ligand.clash>
0.0000

> <Gold.PLP.ligand.torsion>
0.0127

> <Gold.PLP.Chemscore.Hbond>
3.7644

> <Gold.PLP.Chemscore.CHOScore>
0.0000

> <Gold.PLP.Chemscore.Metal>
0.0000

> <Gold.Chemscore.Hbonds>
donor molecule, donor type, donor heavy atom, donor atom, acceptor molecule, acceptor atom, score
      L1  H     8    21       P1  8028  2.00
      P1  H  7997  8010       L1    10  1.00
      P1  H 10752 10764       L1     2  0.75

> <Gold.PLP.Chemscore.Internal.Correction>
0.0050

> <Gold.Rescore>
     Score         DG    S(hbond)    S(metal)    S(lipo)     H(rot)  DE(clash)    DE(int)     intcor
     13.64     -13.71       2.38        0.00      24.19       1.00       0.07       0.01       ----

> <Gold.Chemscore.Fitness>
13.6393

> <Gold.Chemscore.DG>
-13.7105

> <Gold.Chemscore.ZeroCoef>
-5.4800

> <Gold.Chemscore.Hbond>
2.3834

> <Gold.Chemscore.Metal>
0.0000

> <Gold.Chemscore.Lipo>
24.1863

> <Gold.Chemscore.Internal_Hbond>
0.0000

> <Gold.Chemscore.DEClash>
0.0660

> <Gold.Chemscore.DEInternal>
0.0051

> <Gold.Chemscore.Rot>
1.0000

> <Gold.Chemscore.Internal.Correction>
   9.000000E+99

> <Gold.Chemscore.Hbonds>
donor molecule, donor type, donor heavy atom, donor atom, acceptor molecule, acceptor atom, score
      L1  H     8    21       P1  8028  1.00
      P1  H  7997  8010       L1    10  0.74
      P1  H 10752 10764       L1     2  0.21

> <Gold.Chemscore.Hbond.Weighted>
-7.9607

> <Gold.Chemscore.Metal.Weighted>
-0.0000

> <Gold.Chemscore.Lipo.Weighted>
-2.8298

> <Gold.Chemscore.Internal_Hbond.Weighted>
0.0000

> <Gold.Chemscore.DEClash.Weighted>
0.0660

> <Gold.Chemscore.DEInternal.Weighted>
0.0051

> <Gold.Chemscore.Rot.Weighted>
2.5600

> <Gold.Chemscore.Internal.Correction.Weighted>
   9.000000E+99

> <Gold.Protein.RotatedTorsions>
[ 6907 6896 6895 6894 ] final  170.85 input  -60.11 | X-H torsion
[ 7974 7965 7964 7962 ] final  -82.44 input  175.53 | X-H torsion
[ 8008 7997 7996 7995 ] final  118.23 input   59.86 | X-H torsion
[ 10167 10162 10161 10158 ] final  147.78 input  -65.29 | X-H torsion
[ 10718 10713 10712 10709 ] final  155.44 input   66.30 | X-H torsion
[ 10763 10752 10751 10750 ] final  -68.22 input  -60.55 | X-H torsion
[ 11005 11000 10999 10996 ] final   35.56 input  -57.11 | X-H torsion

> <Gold.Protein.ActiveResidues>
 VAL166  LYS551  ARG553  GLY616  TRP617  ASP618  TYR619  PRO620  LYS621  CYS622 
 ASP623  PHE694  ASN695  SER759  ASP760  ASP761  ALA762  ILE779  LEU786  VAL792 
 PHE793  MET794  SER795  GLU796  ALA797  LYS798  CYS799  TRP800  GLU811  SER814 

> <Gold.Protein.RotatedAtoms>
  151.8096  133.3380  159.3550 H   0  0  0  0  0  0  0  0  0  0  0  0  # atno 6907 bound_to 6896
  150.7331  134.5677  159.5883 H   0  0  0  0  0  0  0  0  0  0  0  0  # atno 6908 bound_to 6896
  152.3085  134.7527  160.0393 H   0  0  0  0  0  0  0  0  0  0  0  0  # atno 6909 bound_to 6896
  145.5332  140.9519  143.1591 H   0  0  0  0  0  0  0  0  0  0  0  0  # atno 7974 bound_to 7965
  156.2536  140.2879  156.0803 H   0  0  0  0  0  0  0  0  0  0  0  0  # atno 8008 bound_to 7997
  155.1574  140.0399  157.2852 H   0  0  0  0  0  0  0  0  0  0  0  0  # atno 8009 bound_to 7997
  154.6417  140.2524  155.7321 H   0  0  0  0  0  0  0  0  0  0  0  0  # atno 8010 bound_to 7997
  139.4884  144.5729  151.7020 H   0  0  0  0  0  0  0  0  0  0  0  0  # atno 10167 bound_to 10162
  157.2184  131.0713  151.1927 H   0  0  0  0  0  0  0  0  0  0  0  0  # atno 10718 bound_to 10713
  154.3859  135.6064  153.5816 H   0  0  0  0  0  0  0  0  0  0  0  0  # atno 10763 bound_to 10752
  152.9787  135.5872  154.4355 H   0  0  0  0  0  0  0  0  0  0  0  0  # atno 10764 bound_to 10752
  154.4132  135.2844  155.2001 H   0  0  0  0  0  0  0  0  0  0  0  0  # atno 10765 bound_to 10752
  140.2415  134.3410  155.7924 H   0  0  0  0  0  0  0  0  0  0  0  0  # atno 11005 bound_to 11000
  144.7615  139.6946  143.7232 LP  0  0  0  0  0  0  0  0  0  0  0  0  # atno 17320 bound_to 7965
  146.2030  139.5336  142.9731 LP  0  0  0  0  0  0  0  0  0  0  0  0  # atno 17321 bound_to 7965
  140.5320  144.0716  150.6057 LP  0  0  0  0  0  0  0  0  0  0  0  0  # atno 17342 bound_to 10162
  140.3709  143.2855  152.0279 LP  0  0  0  0  0  0  0  0  0  0  0  0  # atno 17343 bound_to 10162
  157.3601  130.7127  149.6496 LP  0  0  0  0  0  0  0  0  0  0  0  0  # atno 17370 bound_to 10713
  155.9684  130.4228  150.4532 LP  0  0  0  0  0  0  0  0  0  0  0  0  # atno 17371 bound_to 10713
  141.2210  133.7301  156.8892 LP  0  0  0  0  0  0  0  0  0  0  0  0  # atno 17394 bound_to 11000
  140.1649  134.9140  157.2761 LP  0  0  0  0  0  0  0  0  0  0  0  0  # atno 17395 bound_to 11000

$$$$
