AV-unprocessed.smi:136|AV-procd|sdf|1172|dock1
  -GOLD-   2262018313D 1   1.00000     0.00000
 Structure written by MMmdl.
 54 58  0  0  0  0  0  0  0  0  1 V2000
  147.9735  134.1057  157.4415 O   0  0  0  0  0  0  0  0  0  0  0  0
  148.2280  135.2382  157.0273 C   0  0  0  0  0  0  0  0  0  0  0  0
  147.9280  135.6051  155.5579 C   0  0  0  0  0  0  0  0  0  0  0  0
  147.8396  134.4316  154.6618 N   0  0  0  0  0  0  0  0  0  0  0  0
  148.8506  133.4417  154.7358 C   0  0  0  0  0  0  0  0  0  0  0  0
  149.7864  133.5424  155.5304 O   0  0  0  0  0  0  0  0  0  0  0  0
  148.7029  132.3212  153.8140 C   0  0  0  0  0  0  0  0  0  0  0  0
  149.6042  131.3245  153.8286 F   0  0  0  0  0  0  0  0  0  0  0  0
  147.6719  132.2659  152.9459 C   0  0  0  0  0  0  0  0  0  0  0  0
  146.7043  133.2522  152.8676 N   0  0  0  0  0  0  0  0  0  0  0  0
  145.5517  133.1758  151.8868 C   0  0  1  0  0  0  0  0  0  0  0  0
  146.0720  133.1156  150.4366 C   0  0  0  0  0  0  0  0  0  0  0  0
  145.3822  131.8857  149.8795 C   0  0  0  0  0  0  0  0  0  0  0  0
  145.1887  131.0380  151.1275 C   0  0  0  0  0  0  0  0  0  0  0  0
  144.8191  132.0032  152.1029 O   0  0  0  0  0  0  0  0  0  0  0  0
  146.7667  134.3592  153.7418 C   0  0  0  0  0  0  0  0  0  0  0  0
  145.9083  135.2433  153.6958 O   0  0  0  0  0  0  0  0  0  0  0  0
  148.7754  136.1837  157.8233 N   0  0  0  0  0  0  0  0  0  0  0  0
  149.1627  137.4025  157.3704 N   0  0  0  0  0  0  0  0  0  0  0  0
  149.7630  138.0413  158.3050 C   0  0  0  0  0  0  0  0  0  0  0  0
  150.3180  139.4055  158.1636 C   0  0  0  0  0  0  0  0  0  0  0  0
  151.5330  139.7309  158.8083 C   0  0  0  0  0  0  0  0  0  0  0  0
  152.0618  141.0296  158.6750 C   0  0  0  0  0  0  0  0  0  0  0  0
  151.3828  141.9953  157.9050 C   0  0  0  0  0  0  0  0  0  0  0  0
  152.0355  143.5846  157.7466 Cl  0  0  0  0  0  0  0  0  0  0  0  0
  150.1713  141.6654  157.2649 C   0  0  0  0  0  0  0  0  0  0  0  0
  149.6323  140.3700  157.3911 C   0  0  0  0  0  0  0  0  0  0  0  0
  149.8563  137.2851  159.5873 C   0  0  0  0  0  0  0  0  0  0  0  0
  149.1147  135.9917  159.2391 C   0  0  1  0  0  0  0  0  0  0  0  0
  147.9155  135.7524  160.1084 C   0  0  0  0  0  0  0  0  0  0  0  0
  147.0392  134.7098  160.2309 C   0  0  0  0  0  0  0  0  0  0  0  0
  146.1168  135.0776  161.2492 C   0  0  0  0  0  0  0  0  0  0  0  0
  146.5025  136.3158  161.6774 C   0  0  0  0  0  0  0  0  0  0  0  0
  147.6004  136.7400  160.9955 O   0  0  0  0  0  0  0  0  0  0  0  0
  147.0047  136.1860  155.5260 H   0  0  0  0  0  0  0  0  0  0  0  0
  148.6912  136.2998  155.2035 H   0  0  0  0  0  0  0  0  0  0  0  0
  147.6198  131.4066  152.2951 H   0  0  0  0  0  0  0  0  0  0  0  0
  144.9267  134.0439  152.1033 H   0  0  0  0  0  0  0  0  0  0  0  0
  145.8223  134.0281  149.8945 H   0  0  0  0  0  0  0  0  0  0  0  0
  147.1550  132.9824  150.4264 H   0  0  0  0  0  0  0  0  0  0  0  0
  144.4130  132.1564  149.4587 H   0  0  0  0  0  0  0  0  0  0  0  0
  145.9636  131.3823  149.1065 H   0  0  0  0  0  0  0  0  0  0  0  0
  144.4203  130.2747  151.0059 H   0  0  0  0  0  0  0  0  0  0  0  0
  146.1207  130.5488  151.4137 H   0  0  0  0  0  0  0  0  0  0  0  0
  152.0694  139.0044  159.4016 H   0  0  0  0  0  0  0  0  0  0  0  0
  152.9903  141.2836  159.1648 H   0  0  0  0  0  0  0  0  0  0  0  0
  149.6527  142.4073  156.6754 H   0  0  0  0  0  0  0  0  0  0  0  0
  148.7019  140.1428  156.8925 H   0  0  0  0  0  0  0  0  0  0  0  0
  150.8949  137.0902  159.8569 H   0  0  0  0  0  0  0  0  0  0  0  0
  149.3785  137.8314  160.4020 H   0  0  0  0  0  0  0  0  0  0  0  0
  149.7997  135.1462  159.3234 H   0  0  0  0  0  0  0  0  0  0  0  0
  147.0585  133.7960  159.6558 H   0  0  0  0  0  0  0  0  0  0  0  0
  145.2783  134.5085  161.6224 H   0  0  0  0  0  0  0  0  0  0  0  0
  146.1284  137.0030  162.4219 H   0  0  0  0  0  0  0  0  0  0  0  0
  1  2  2  0  0  0  0
  2  3  1  0  0  0  0
  2 18  1  0  0  0  0
  3  4  1  0  0  0  0
  3 35  1  0  0  0  0
  3 36  1  0  0  0  0
  4 16  1  0  0  0  0
  4  5  1  0  0  0  0
  5  6  2  0  0  0  0
  5  7  1  0  0  0  0
  7  8  1  0  0  0  0
  7  9  2  0  0  0  0
  9 10  1  0  0  0  0
  9 37  1  0  0  0  0
 10 11  1  0  0  0  0
 10 16  1  0  0  0  0
 11 15  1  0  0  0  0
 11 12  1  0  0  0  0
 11 38  1  0  0  0  0
 12 13  1  0  0  0  0
 12 39  1  0  0  0  0
 12 40  1  0  0  0  0
 13 14  1  0  0  0  0
 13 41  1  0  0  0  0
 13 42  1  0  0  0  0
 14 15  1  0  0  0  0
 14 43  1  0  0  0  0
 14 44  1  0  0  0  0
 16 17  2  0  0  0  0
 18 29  1  0  0  0  0
 18 19  1  0  0  0  0
 19 20  2  0  0  0  0
 20 21  1  0  0  0  0
 20 28  1  0  0  0  0
 21 27  1  0  0  0  0
 21 22  2  0  0  0  0
 22 23  1  0  0  0  0
 22 45  1  0  0  0  0
 23 24  2  0  0  0  0
 23 46  1  0  0  0  0
 24 25  1  0  0  0  0
 24 26  1  0  0  0  0
 26 27  2  0  0  0  0
 26 47  1  0  0  0  0
 27 48  1  0  0  0  0
 28 29  1  0  0  0  0
 28 49  1  0  0  0  0
 28 50  1  0  0  0  0
 29 30  1  0  0  0  0
 29 51  1  0  0  0  0
 30 34  1  0  0  0  0
 30 31  2  0  0  0  0
 31 32  1  0  0  0  0
 31 52  1  0  0  0  0
 32 33  2  0  0  0  0
 32 53  1  0  0  0  0
 33 34  1  0  0  0  0
 33 54  1  0  0  0  0
M  END
> <s_m_source_file>
AV-unprocessed.smi

> <i_m_source_file_index>
136

> <i_lp_mmshare_version>
43012

> <i_f3d_flags>
0

> <s_epik_input>
bzFbY0hdW2NIXVtjSF1jMVtDQEBIXTJbQ0gyXUMoYzNbY0hdW2NIXWMoQ2wpW2NIXVtjSF0zKT1OTjJDKD1PKVtDSDJdbjRjKD1PKWMoRilbY0hdbihjND1PKVtDQEBIXTVbQ0gyXVtDSDJdW0NIMl1PNQ==

> <s_epik_cmdline>
J2VwaWtfcHl0aG9uJywgJy1waCcsICc3LjAnLCAnLXRuJywgJzgnLCAnLW1hJywgJzIwMCcsICctbWV0YWxfYmluZGluZycsICctaW1hZScsICc8aW5maWxlLm1hZT4nLCAnLW9tYWUnLCAnPG91dGZpbGUubWFlPic=

> <r_lp_tautomer_probability>
1

> <r_epik_Ionization_Penalty>
2.55467e-08

> <r_epik_Ionization_Penalty_Charging>
4.85705e-09

> <r_epik_Ionization_Penalty_Neutral>
2.06897e-08

> <r_epik_State_Penalty>
-0

> <r_epik_Charging_Adjusted_Penalty>
4.85705e-09

> <i_epik_Tot_Q>
0

> <i_epik_Tot_abs_Q>
0

> <r_epik_Metal_State_Penalty>
-0

> <b_epik_Metal_Only>
0

> <s_epik_Chemistry_Notes>
This compound has an imine and may undergo hydrolysis. This compound contains an acetal/aminal-like group ( X-CH(R)-Y where X, Y are N, S, or O) that may be acid/base labile, releasing an aldehyde.

> <s_lp_Force_Field>
OPLS_2005

> <r_lp_Energy>
41.711

> <b_lp_Chiralities_Consistent>
1

> <s_lp_Variant>
AV-unprocessed.smi:136-2

> <Gold.Version>
5.8.1

> <Gold.Id.Protein>
6NUR|6NUR_protein|mol2

> <Gold.PLP.Fitness>
51.8475

> <Gold.PLP.PLP>
-45.4941

> <Gold.PLP.part.hbond>
-2.0000

> <Gold.PLP.part.metal>
0.0000

> <Gold.PLP.part.buried>
-4.8288

> <Gold.PLP.part.nonpolar>
-39.0209

> <Gold.PLP.part.repulsive>
0.2556

> <Gold.PLP.ligand.clash>
0.1133

> <Gold.PLP.ligand.torsion>
1.1427

> <Gold.PLP.Chemscore.Hbond>
1.8880

> <Gold.PLP.Chemscore.CHOScore>
0.9999

> <Gold.PLP.Chemscore.Metal>
0.0000

> <Gold.Chemscore.Hbonds>
donor molecule, donor type, donor heavy atom, donor atom, acceptor molecule, acceptor atom, score
      P1  H  6931  6943       L1    34  0.41
      P1  H  6934  6947       L1    34  0.27
      L1  C     9    37       P1 10747  0.99

> <Gold.PLP.Chemscore.Internal.Correction>
0.0884

> <Gold.Rescore>
     Score         DG    S(hbond)    S(metal)    S(lipo)     H(rot)  DE(clash)    DE(int)     intcor
     11.03     -18.73       1.15        0.00     119.94       1.81       1.13       6.57       ----

> <Gold.Chemscore.Fitness>
11.0257

> <Gold.Chemscore.DG>
-18.7331

> <Gold.Chemscore.ZeroCoef>
-5.4800

> <Gold.Chemscore.Hbond>
1.1504

> <Gold.Chemscore.Metal>
0.0000

> <Gold.Chemscore.Lipo>
119.9409

> <Gold.Chemscore.Internal_Hbond>
0.0000

> <Gold.Chemscore.DEClash>
1.1333

> <Gold.Chemscore.DEInternal>
6.5740

> <Gold.Chemscore.Rot>
1.8056

> <Gold.Chemscore.Internal.Correction>
   9.000000E+99

> <Gold.Chemscore.Hbonds>
donor molecule, donor type, donor heavy atom, donor atom, acceptor molecule, acceptor atom, score
      P1  H  6931  6943       L1    34  0.37
      P1  H  6934  6947       L1    34  0.07

> <Gold.Chemscore.Hbond.Weighted>
-3.8423

> <Gold.Chemscore.Metal.Weighted>
-0.0000

> <Gold.Chemscore.Lipo.Weighted>
-14.0331

> <Gold.Chemscore.Internal_Hbond.Weighted>
0.0000

> <Gold.Chemscore.DEClash.Weighted>
1.1333

> <Gold.Chemscore.DEInternal.Weighted>
6.5740

> <Gold.Chemscore.Rot.Weighted>
4.6223

> <Gold.Chemscore.Internal.Correction.Weighted>
   9.000000E+99

> <Gold.Protein.RotatedTorsions>
[ 6907 6896 6895 6894 ] final  -33.65 input  -60.11 | X-H torsion
[ 7974 7965 7964 7962 ] final  -95.79 input  175.53 | X-H torsion
[ 8008 7997 7996 7995 ] final   65.69 input   59.86 | X-H torsion
[ 10167 10162 10161 10158 ] final   79.76 input  -65.29 | X-H torsion
[ 10718 10713 10712 10709 ] final  -82.27 input   66.30 | X-H torsion
[ 10763 10752 10751 10750 ] final   84.95 input  -60.55 | X-H torsion
[ 11005 11000 10999 10996 ] final -172.60 input  -57.11 | X-H torsion

> <Gold.Protein.ActiveResidues>
 VAL166  LYS551  ARG553  GLY616  TRP617  ASP618  TYR619  PRO620  LYS621  CYS622 
 ASP623  PHE694  ASN695  SER759  ASP760  ASP761  ALA762  ILE779  LEU786  VAL792 
 PHE793  MET794  SER795  GLU796  ALA797  LYS798  CYS799  TRP800  GLU811  SER814 

> <Gold.Protein.RotatedAtoms>
  151.0629  134.9748  159.8269 H   0  0  0  0  0  0  0  0  0  0  0  0  # atno 6907 bound_to 6896
  152.5398  134.2395  159.8866 H   0  0  0  0  0  0  0  0  0  0  0  0  # atno 6908 bound_to 6896
  151.2416  133.4353  159.2641 H   0  0  0  0  0  0  0  0  0  0  0  0  # atno 6909 bound_to 6896
  145.3554  140.9483  143.2530 H   0  0  0  0  0  0  0  0  0  0  0  0  # atno 7974 bound_to 7965
  155.6656  140.3497  155.4799 H   0  0  0  0  0  0  0  0  0  0  0  0  # atno 8008 bound_to 7997
  155.9731  140.1159  157.0817 H   0  0  0  0  0  0  0  0  0  0  0  0  # atno 8009 bound_to 7997
  154.4171  140.1153  156.5320 H   0  0  0  0  0  0  0  0  0  0  0  0  # atno 8010 bound_to 7997
  139.9569  144.5988  150.8108 H   0  0  0  0  0  0  0  0  0  0  0  0  # atno 10167 bound_to 10162
  156.0036  130.4629  150.4079 H   0  0  0  0  0  0  0  0  0  0  0  0  # atno 10718 bound_to 10713
  153.1430  135.4635  154.9523 H   0  0  0  0  0  0  0  0  0  0  0  0  # atno 10763 bound_to 10752
  154.7762  135.3174  154.8088 H   0  0  0  0  0  0  0  0  0  0  0  0  # atno 10764 bound_to 10752
  153.8608  135.6913  153.4837 H   0  0  0  0  0  0  0  0  0  0  0  0  # atno 10765 bound_to 10752
  140.4951  134.5947  157.4968 H   0  0  0  0  0  0  0  0  0  0  0  0  # atno 11005 bound_to 11000
  144.8686  139.5071  143.6778 LP  0  0  0  0  0  0  0  0  0  0  0  0  # atno 17320 bound_to 7965
  146.2950  139.7251  142.9133 LP  0  0  0  0  0  0  0  0  0  0  0  0  # atno 17321 bound_to 7965
  140.7565  143.3068  151.2942 LP  0  0  0  0  0  0  0  0  0  0  0  0  # atno 17342 bound_to 10162
  139.6584  144.0233  152.2676 LP  0  0  0  0  0  0  0  0  0  0  0  0  # atno 17343 bound_to 10162
  157.2143  131.0468  151.2582 LP  0  0  0  0  0  0  0  0  0  0  0  0  # atno 17370 bound_to 10713
  157.3859  130.7256  149.6663 LP  0  0  0  0  0  0  0  0  0  0  0  0  # atno 17371 bound_to 10713
  139.9746  134.7237  155.9975 LP  0  0  0  0  0  0  0  0  0  0  0  0  # atno 17394 bound_to 11000
  141.1464  133.6555  156.3880 LP  0  0  0  0  0  0  0  0  0  0  0  0  # atno 17395 bound_to 11000

$$$$
