AV-unprocessed.smi:1116|AV-procd|sdf|4810|dock8
  -GOLD-   22720 3363D 1   1.00000     0.00000
 Structure written by MMmdl.
 35 36  0  0  0  0  0  0  0  0  2 V2000
  153.2323  142.4045  161.0238 C   0  0  0  0  0  0  0  0  0  0  0  0
  152.4911  142.8536  159.8115 C   0  0  0  0  0  0  0  0  0  0  0  0
  151.8075  142.0275  159.0154 N   0  0  0  0  0  0  0  0  0  0  0  0
  151.2032  142.6900  157.9425 C   0  0  0  0  0  0  0  0  0  0  0  0
  150.3980  141.9150  156.9445 C   0  0  0  0  0  0  0  0  0  0  0  0
  149.1102  141.3397  157.5580 C   0  0  0  0  0  0  0  0  0  0  0  0
  148.0281  142.3170  157.5567 N   0  0  0  0  0  0  0  0  0  0  0  0
  146.8433  142.1580  158.1662 C   0  0  0  0  0  0  0  0  0  0  0  0
  146.5453  141.1513  158.8097 O   0  0  0  0  0  0  0  0  0  0  0  0
  145.8546  143.3192  158.0345 C   0  0  0  0  0  0  0  0  0  0  0  0
  144.5556  143.0968  158.8328 C   0  0  0  0  0  0  0  0  0  0  0  0
  144.6418  143.6365  160.2759 C   0  0  1  0  0  0  0  0  0  0  0  0
  143.3992  143.4253  160.9985 N   0  5  0  0  0  0  0  0  0  0  0  0
  143.6634  142.6805  162.0981 C   0  0  0  0  0  0  0  0  0  0  0  0
  142.8718  142.3053  162.9601 O   0  0  0  0  0  0  0  0  0  0  0  0
  144.9620  142.3678  162.1569 N   0  0  0  0  0  0  0  0  0  0  0  0
  145.6348  142.8657  161.1245 C   0  0  0  0  0  0  0  0  0  0  0  0
  146.8349  142.7415  160.8837 O   0  0  0  0  0  0  0  0  0  0  0  0
  151.4391  144.0424  157.9399 C   0  0  0  0  0  0  0  0  0  0  0  0
  152.4315  144.5315  159.2862 S   0  0  0  0  0  0  0  0  0  0  0  0
  153.2062  141.3176  161.1100 H   0  0  0  0  0  0  0  0  0  0  0  0
  152.7815  142.8371  161.9169 H   0  0  0  0  0  0  0  0  0  0  0  0
  154.2725  142.7248  160.9645 H   0  0  0  0  0  0  0  0  0  0  0  0
  150.1493  142.5565  156.0982 H   0  0  0  0  0  0  0  0  0  0  0  0
  150.9986  141.1017  156.5351 H   0  0  0  0  0  0  0  0  0  0  0  0
  148.7816  140.4729  156.9838 H   0  0  0  0  0  0  0  0  0  0  0  0
  149.2921  140.9878  158.5750 H   0  0  0  0  0  0  0  0  0  0  0  0
  148.1862  143.1752  157.0486 H   0  0  0  0  0  0  0  0  0  0  0  0
  146.3474  144.2307  158.3737 H   0  0  0  0  0  0  0  0  0  0  0  0
  145.6170  143.4678  156.9801 H   0  0  0  0  0  0  0  0  0  0  0  0
  143.7143  143.5571  158.3108 H   0  0  0  0  0  0  0  0  0  0  0  0
  144.3413  142.0271  158.8645 H   0  0  0  0  0  0  0  0  0  0  0  0
  144.9450  144.6845  160.2647 H   0  0  0  0  0  0  0  0  0  0  0  0
  145.3771  141.8129  162.8902 H   0  0  0  0  0  0  0  0  0  0  0  0
  151.0915  144.7781  157.2300 H   0  0  0  0  0  0  0  0  0  0  0  0
  1  2  1  0  0  0  0
  1 21  1  0  0  0  0
  1 22  1  0  0  0  0
  1 23  1  0  0  0  0
  2 20  1  0  0  0  0
  2  3  2  0  0  0  0
  3  4  1  0  0  0  0
  4  5  1  0  0  0  0
  4 19  2  0  0  0  0
  5  6  1  0  0  0  0
  5 24  1  0  0  0  0
  5 25  1  0  0  0  0
  6  7  1  0  0  0  0
  6 26  1  0  0  0  0
  6 27  1  0  0  0  0
  7  8  1  0  0  0  0
  7 28  1  0  0  0  0
  8  9  2  0  0  0  0
  8 10  1  0  0  0  0
 10 11  1  0  0  0  0
 10 29  1  0  0  0  0
 10 30  1  0  0  0  0
 11 12  1  0  0  0  0
 11 31  1  0  0  0  0
 11 32  1  0  0  0  0
 12 17  1  0  0  0  0
 12 13  1  0  0  0  0
 12 33  1  0  0  0  0
 13 14  1  0  0  0  0
 14 15  2  0  0  0  0
 14 16  1  0  0  0  0
 16 17  1  0  0  0  0
 16 34  1  0  0  0  0
 17 18  2  0  0  0  0
 19 20  1  0  0  0  0
 19 35  1  0  0  0  0
M  CHG  1  13  -1
M  END
> <s_m_source_file>
AV-unprocessed.smi

> <i_m_source_file_index>
1116

> <i_lp_mmshare_version>
43012

> <i_f3d_flags>
0

> <s_epik_input>
W0NIM11jMW5jKFtjSF1zMSlbQ0gyXVtDSDJdW05IXUMoPU8pW0NIMl1bQ0gyXVtDQEBIXTJbTkhdQyg9TylbTkhdQzI9Tw==

> <s_epik_cmdline>
J2VwaWtfcHl0aG9uJywgJy1waCcsICc3LjAnLCAnLXRuJywgJzgnLCAnLW1hJywgJzIwMCcsICctbWV0YWxfYmluZGluZycsICctaW1hZScsICc8aW5maWxlLm1hZT4nLCAnLW9tYWUnLCAnPG91dGZpbGUubWFlPic=

> <r_lp_tautomer_probability>
1

> <r_epik_Ionization_Penalty>
5.7962

> <r_epik_Ionization_Penalty_Charging>
5.79516

> <r_epik_Ionization_Penalty_Neutral>
0.00104588

> <r_epik_State_Penalty>
5.80096

> <r_epik_Charging_Adjusted_Penalty>
11.5961

> <i_epik_Tot_Q>
-1

> <i_epik_Tot_abs_Q>
1

> <r_epik_Metal_State_Penalty>
2.1448

> <b_epik_Metal_Only>
1

> <s_lp_Force_Field>
OPLS_2005

> <r_lp_Energy>
5.74046

> <b_lp_Chiralities_Consistent>
1

> <s_lp_Variant>
AV-unprocessed.smi:1116-4

> <Gold.Version>
5.8.1

> <Gold.Id.Protein>
6NUR|6NUR_protein|mol2

> <Gold.PLP.Fitness>
45.3092

> <Gold.PLP.PLP>
-35.5510

> <Gold.PLP.part.hbond>
-4.8868

> <Gold.PLP.part.metal>
0.0000

> <Gold.PLP.part.buried>
-4.4688

> <Gold.PLP.part.nonpolar>
-27.1365

> <Gold.PLP.part.repulsive>
0.4623

> <Gold.PLP.ligand.clash>
0.0000

> <Gold.PLP.ligand.torsion>
0.4270

> <Gold.PLP.Chemscore.Hbond>
2.5580

> <Gold.PLP.Chemscore.CHOScore>
0.9635

> <Gold.PLP.Chemscore.Metal>
0.0000

> <Gold.Chemscore.Hbonds>
donor molecule, donor type, donor heavy atom, donor atom, acceptor molecule, acceptor atom, score
      L1  H     7    28       P1  8028  0.55
      P1  H  6933  6944       L1    18  0.85
      P1  H  6934  6946       L1    18  0.80
      L1  C    19    35       P1  8028  0.66

> <Gold.PLP.Chemscore.Internal.Correction>
0.0479

> <Gold.Rescore>
     Score         DG    S(hbond)    S(metal)    S(lipo)     H(rot)  DE(clash)    DE(int)     intcor
     10.43     -13.93       1.99        0.00      76.12       2.77       0.15       3.35       ----

> <Gold.Chemscore.Fitness>
10.4281

> <Gold.Chemscore.DG>
-13.9299

> <Gold.Chemscore.ZeroCoef>
-5.4800

> <Gold.Chemscore.Hbond>
1.9858

> <Gold.Chemscore.Metal>
0.0000

> <Gold.Chemscore.Lipo>
76.1225

> <Gold.Chemscore.Internal_Hbond>
0.0000

> <Gold.Chemscore.DEClash>
0.1490

> <Gold.Chemscore.DEInternal>
3.3528

> <Gold.Chemscore.Rot>
2.7691

> <Gold.Chemscore.Internal.Correction>
   9.000000E+99

> <Gold.Chemscore.Hbonds>
donor molecule, donor type, donor heavy atom, donor atom, acceptor molecule, acceptor atom, score
      L1  H     7    28       P1  8028  0.09
      P1  H  6933  6944       L1    18  0.85
      P1  H  6934  6946       L1     9  0.48

> <Gold.Chemscore.Hbond.Weighted>
-6.6324

> <Gold.Chemscore.Metal.Weighted>
-0.0000

> <Gold.Chemscore.Lipo.Weighted>
-8.9063

> <Gold.Chemscore.Internal_Hbond.Weighted>
0.0000

> <Gold.Chemscore.DEClash.Weighted>
0.1490

> <Gold.Chemscore.DEInternal.Weighted>
3.3528

> <Gold.Chemscore.Rot.Weighted>
7.0889

> <Gold.Chemscore.Internal.Correction.Weighted>
   9.000000E+99

> <Gold.Protein.RotatedTorsions>
[ 6907 6896 6895 6894 ] final  146.66 input  -60.11 | X-H torsion
[ 7974 7965 7964 7962 ] final   -6.76 input  175.53 | X-H torsion
[ 8008 7997 7996 7995 ] final  152.69 input   59.86 | X-H torsion
[ 10167 10162 10161 10158 ] final  -56.71 input  -65.29 | X-H torsion
[ 10718 10713 10712 10709 ] final  115.95 input   66.30 | X-H torsion
[ 10763 10752 10751 10750 ] final  -32.76 input  -60.55 | X-H torsion
[ 11005 11000 10999 10996 ] final   12.63 input  -57.11 | X-H torsion

> <Gold.Protein.ActiveResidues>
 VAL166  LYS551  ARG553  GLY616  TRP617  ASP618  TYR619  PRO620  LYS621  CYS622 
 ASP623  PHE694  ASN695  SER759  ASP760  ASP761  ALA762  ILE779  LEU786  VAL792 
 PHE793  MET794  SER795  GLU796  ALA797  LYS798  CYS799  TRP800  GLU811  SER814 

> <Gold.Protein.RotatedAtoms>
  152.1650  133.4606  159.4879 H   0  0  0  0  0  0  0  0  0  0  0  0  # atno 6907 bound_to 6896
  150.6912  134.2024  159.4336 H   0  0  0  0  0  0  0  0  0  0  0  0  # atno 6908 bound_to 6896
  151.9928  134.9969  160.0613 H   0  0  0  0  0  0  0  0  0  0  0  0  # atno 6909 bound_to 6896
  146.2323  140.2219  142.8337 H   0  0  0  0  0  0  0  0  0  0  0  0  # atno 7974 bound_to 7965
  156.2617  140.2014  156.6373 H   0  0  0  0  0  0  0  0  0  0  0  0  # atno 8008 bound_to 7997
  154.6636  140.0558  157.0114 H   0  0  0  0  0  0  0  0  0  0  0  0  # atno 8009 bound_to 7997
  155.1239  140.3227  155.4493 H   0  0  0  0  0  0  0  0  0  0  0  0  # atno 8010 bound_to 7997
  140.6301  143.2455  151.5263 H   0  0  0  0  0  0  0  0  0  0  0  0  # atno 10167 bound_to 10162
  157.6190  131.1019  150.7404 H   0  0  0  0  0  0  0  0  0  0  0  0  # atno 10718 bound_to 10713
  153.8191  135.6876  153.4830 H   0  0  0  0  0  0  0  0  0  0  0  0  # atno 10763 bound_to 10752
  153.1580  135.4591  154.9730 H   0  0  0  0  0  0  0  0  0  0  0  0  # atno 10764 bound_to 10752
  154.7935  135.3310  154.7665 H   0  0  0  0  0  0  0  0  0  0  0  0  # atno 10765 bound_to 10752
  140.4898  134.0851  155.7769 H   0  0  0  0  0  0  0  0  0  0  0  0  # atno 11005 bound_to 11000
  144.9625  140.8289  143.5505 LP  0  0  0  0  0  0  0  0  0  0  0  0  # atno 17320 bound_to 7965
  145.2191  139.2167  143.5102 LP  0  0  0  0  0  0  0  0  0  0  0  0  # atno 17321 bound_to 7965
  139.5516  144.2381  152.1540 LP  0  0  0  0  0  0  0  0  0  0  0  0  # atno 17342 bound_to 10162
  140.1622  144.5015  150.6626 LP  0  0  0  0  0  0  0  0  0  0  0  0  # atno 17343 bound_to 10162
  156.7765  130.4845  149.5409 LP  0  0  0  0  0  0  0  0  0  0  0  0  # atno 17370 bound_to 10713
  156.1326  130.6189  151.0355 LP  0  0  0  0  0  0  0  0  0  0  0  0  # atno 17371 bound_to 10713
  141.1489  133.9004  157.2146 LP  0  0  0  0  0  0  0  0  0  0  0  0  # atno 17394 bound_to 11000
  139.9776  135.0109  156.9669 LP  0  0  0  0  0  0  0  0  0  0  0  0  # atno 17395 bound_to 11000

$$$$
