AV-unprocessed.smi:3006|AV-procd|sdf|11444|dock7
  -GOLD-   2272016373D 1   1.00000     0.00000
 Structure written by MMmdl.
 45 46  0  0  0  0  0  0  0  0  2 V2000
  151.9060  145.7415  160.0536 C   0  0  0  0  0  0  0  0  0  0  0  0
  152.0010  144.2927  159.7172 C   0  0  0  0  0  0  0  0  0  0  0  0
  151.2615  143.7023  158.7748 N   0  0  0  0  0  0  0  0  0  0  0  0
  151.5430  142.3385  158.6454 C   0  0  0  0  0  0  0  0  0  0  0  0
  150.8130  141.5173  157.6265 C   0  0  0  0  0  0  0  0  0  0  0  0
  150.9259  142.1137  156.2141 C   0  0  0  0  0  0  0  0  0  0  0  0
  149.6782  141.9746  155.4720 N   0  0  0  0  0  0  0  0  0  0  0  0
  149.3839  140.9662  154.6341 C   0  0  0  0  0  0  0  0  0  0  0  0
  150.1633  140.0348  154.4300 O   0  0  0  0  0  0  0  0  0  0  0  0
  148.1550  141.0411  154.0640 N   0  0  0  0  0  0  0  0  0  0  0  0
  147.4692  139.9786  153.3212 C   0  0  0  0  0  0  0  0  0  0  0  0
  146.3588  139.3855  154.2077 C   0  0  0  0  0  0  0  0  0  0  0  0
  145.4069  140.4245  154.7089 N   0  3  0  0  0  0  0  0  0  0  0  0
  144.3507  139.8698  155.6165 C   0  0  0  0  0  0  0  0  0  0  0  0
  143.2783  140.9179  155.9797 C   0  0  0  0  0  0  0  0  0  0  0  0
  144.9359  139.2928  156.9229 C   0  0  0  0  0  0  0  0  0  0  0  0
  146.1140  141.6116  155.2796 C   0  0  0  0  0  0  0  0  0  0  0  0
  147.2269  142.1331  154.3532 C   0  0  0  0  0  0  0  0  0  0  0  0
  152.5110  141.9009  159.5148 C   0  0  0  0  0  0  0  0  0  0  0  0
  153.1068  143.1887  160.5257 S   0  0  0  0  0  0  0  0  0  0  0  0
  151.1218  146.2221  159.4677 H   0  0  0  0  0  0  0  0  0  0  0  0
  152.8538  146.2357  159.8403 H   0  0  0  0  0  0  0  0  0  0  0  0
  151.6762  145.8639  161.1120 H   0  0  0  0  0  0  0  0  0  0  0  0
  151.2041  140.4990  157.6269 H   0  0  0  0  0  0  0  0  0  0  0  0
  149.7615  141.4325  157.9039 H   0  0  0  0  0  0  0  0  0  0  0  0
  151.1638  143.1760  156.2765 H   0  0  0  0  0  0  0  0  0  0  0  0
  151.7454  141.6456  155.6658 H   0  0  0  0  0  0  0  0  0  0  0  0
  148.9861  142.6972  155.6080 H   0  0  0  0  0  0  0  0  0  0  0  0
  147.0337  140.4009  152.4142 H   0  0  0  0  0  0  0  0  0  0  0  0
  148.1303  139.1832  152.9771 H   0  0  0  0  0  0  0  0  0  0  0  0
  145.8320  138.6387  153.6157 H   0  0  0  0  0  0  0  0  0  0  0  0
  146.8055  138.8656  155.0570 H   0  0  0  0  0  0  0  0  0  0  0  0
  143.8523  139.0546  155.0895 H   0  0  0  0  0  0  0  0  0  0  0  0
  142.5840  140.5270  156.7243 H   0  0  0  0  0  0  0  0  0  0  0  0
  142.6695  141.2018  155.1218 H   0  0  0  0  0  0  0  0  0  0  0  0
  143.7285  141.8208  156.3935 H   0  0  0  0  0  0  0  0  0  0  0  0
  144.1429  138.9983  157.6109 H   0  0  0  0  0  0  0  0  0  0  0  0
  145.5611  140.0236  157.4368 H   0  0  0  0  0  0  0  0  0  0  0  0
  145.5303  138.3960  156.7490 H   0  0  0  0  0  0  0  0  0  0  0  0
  145.4159  142.4308  155.4452 H   0  0  0  0  0  0  0  0  0  0  0  0
  146.5365  141.3469  156.2505 H   0  0  0  0  0  0  0  0  0  0  0  0
  147.7186  142.9943  154.8082 H   0  0  0  0  0  0  0  0  0  0  0  0
  146.7972  142.5012  153.4202 H   0  0  0  0  0  0  0  0  0  0  0  0
  152.9100  140.9028  159.6197 H   0  0  0  0  0  0  0  0  0  0  0  0
  144.9234  140.7667  153.8907 H   0  0  0  0  0  0  0  0  0  0  0  0
  1  2  1  0  0  0  0
  1 21  1  0  0  0  0
  1 22  1  0  0  0  0
  1 23  1  0  0  0  0
  2 20  1  0  0  0  0
  2  3  2  0  0  0  0
  3  4  1  0  0  0  0
  4  5  1  0  0  0  0
  4 19  2  0  0  0  0
  5  6  1  0  0  0  0
  5 24  1  0  0  0  0
  5 25  1  0  0  0  0
  6  7  1  0  0  0  0
  6 26  1  0  0  0  0
  6 27  1  0  0  0  0
  7  8  1  0  0  0  0
  7 28  1  0  0  0  0
  8  9  2  0  0  0  0
  8 10  1  0  0  0  0
 10 18  1  0  0  0  0
 10 11  1  0  0  0  0
 11 12  1  0  0  0  0
 11 29  1  0  0  0  0
 11 30  1  0  0  0  0
 12 13  1  0  0  0  0
 12 31  1  0  0  0  0
 12 32  1  0  0  0  0
 13 14  1  0  0  0  0
 13 17  1  0  0  0  0
 13 45  1  0  0  0  0
 14 15  1  0  0  0  0
 14 16  1  0  0  0  0
 14 33  1  0  0  0  0
 15 34  1  0  0  0  0
 15 35  1  0  0  0  0
 15 36  1  0  0  0  0
 16 37  1  0  0  0  0
 16 38  1  0  0  0  0
 16 39  1  0  0  0  0
 17 18  1  0  0  0  0
 17 40  1  0  0  0  0
 17 41  1  0  0  0  0
 18 42  1  0  0  0  0
 18 43  1  0  0  0  0
 19 20  1  0  0  0  0
 19 44  1  0  0  0  0
M  CHG  1  13   1
M  END
> <s_m_source_file>
AV-unprocessed.smi

> <i_m_source_file_index>
3006

> <i_lp_mmshare_version>
43012

> <i_f3d_flags>
0

> <s_epik_input>
W0NIM11jMW5jKFtjSF1zMSlbQ0gyXVtDSDJdW05IXUMoPU8pTjJbQ0gyXVtDSDJdTihbQ0hdKFtDSDNdKVtDSDNdKVtDSDJdW0NIMl0y

> <s_epik_cmdline>
J2VwaWtfcHl0aG9uJywgJy1waCcsICc3LjAnLCAnLXRuJywgJzgnLCAnLW1hJywgJzIwMCcsICctbWV0YWxfYmluZGluZycsICctaW1hZScsICc8aW5maWxlLm1hZT4nLCAnLW9tYWUnLCAnPG91dGZpbGUubWFlPic=

> <r_epik_Ionization_Penalty>
0.155723

> <r_epik_Ionization_Penalty_Charging>
0.153999

> <r_epik_Ionization_Penalty_Neutral>
0.00172372

> <r_epik_State_Penalty>
0.139716

> <r_epik_Charging_Adjusted_Penalty>
0.293715

> <i_epik_Tot_Q>
1

> <i_epik_Tot_abs_Q>
1

> <r_epik_Metal_State_Penalty>
0.138566

> <b_epik_Metal_Only>
0

> <s_lp_Force_Field>
OPLS_2005

> <r_lp_Energy>
45.5874

> <b_lp_Chiralities_Consistent>
1

> <s_lp_Variant>
AV-unprocessed.smi:3006-1

> <Gold.Version>
5.8.1

> <Gold.Id.Protein>
6NUR|6NUR_protein|mol2

> <Gold.PLP.Fitness>
48.1692

> <Gold.PLP.PLP>
-39.6075

> <Gold.PLP.part.hbond>
-3.0000

> <Gold.PLP.part.metal>
0.0000

> <Gold.PLP.part.buried>
-4.8890

> <Gold.PLP.part.nonpolar>
-31.5396

> <Gold.PLP.part.repulsive>
0.3594

> <Gold.PLP.ligand.clash>
1.8295

> <Gold.PLP.ligand.torsion>
0.5307

> <Gold.PLP.Chemscore.Hbond>
3.7840

> <Gold.PLP.Chemscore.CHOScore>
0.0000

> <Gold.PLP.Chemscore.Metal>
0.0000

> <Gold.Chemscore.Hbonds>
donor molecule, donor type, donor heavy atom, donor atom, acceptor molecule, acceptor atom, score
      L1  H     7    28       P1  8028  0.78
      L1  H    13    45       P1 10175  2.00
      P1  H  7989  7998       L1     9  1.00

> <Gold.PLP.Chemscore.Internal.Correction>
0.1006

> <Gold.Rescore>
     Score         DG    S(hbond)    S(metal)    S(lipo)     H(rot)  DE(clash)    DE(int)     intcor
     19.96     -20.57       2.41        0.00      91.19       1.42       0.08       0.52       ----

> <Gold.Chemscore.Fitness>
19.9639

> <Gold.Chemscore.DG>
-20.5676

> <Gold.Chemscore.ZeroCoef>
-5.4800

> <Gold.Chemscore.Hbond>
2.4136

> <Gold.Chemscore.Metal>
0.0000

> <Gold.Chemscore.Lipo>
91.1891

> <Gold.Chemscore.Internal_Hbond>
0.0000

> <Gold.Chemscore.DEClash>
0.0820

> <Gold.Chemscore.DEInternal>
0.5217

> <Gold.Chemscore.Rot>
1.4230

> <Gold.Chemscore.Internal.Correction>
   9.000000E+99

> <Gold.Chemscore.Hbonds>
donor molecule, donor type, donor heavy atom, donor atom, acceptor molecule, acceptor atom, score
      L1  H     7    28       P1  8028  0.73
      L1  H    13    45       P1 10175  0.91
      P1  H  7989  7998       L1     9  0.39

> <Gold.Chemscore.Hbond.Weighted>
-8.0615

> <Gold.Chemscore.Metal.Weighted>
-0.0000

> <Gold.Chemscore.Lipo.Weighted>
-10.6691

> <Gold.Chemscore.Internal_Hbond.Weighted>
0.0000

> <Gold.Chemscore.DEClash.Weighted>
0.0820

> <Gold.Chemscore.DEInternal.Weighted>
0.5217

> <Gold.Chemscore.Rot.Weighted>
3.6430

> <Gold.Chemscore.Internal.Correction.Weighted>
   9.000000E+99

> <Gold.Protein.RotatedTorsions>
[ 6907 6896 6895 6894 ] final  148.90 input  -60.11 | X-H torsion
[ 7974 7965 7964 7962 ] final  179.34 input  175.53 | X-H torsion
[ 8008 7997 7996 7995 ] final -173.85 input   59.86 | X-H torsion
[ 10167 10162 10161 10158 ] final   -4.55 input  -65.29 | X-H torsion
[ 10718 10713 10712 10709 ] final  114.25 input   66.30 | X-H torsion
[ 10763 10752 10751 10750 ] final -177.84 input  -60.55 | X-H torsion
[ 11005 11000 10999 10996 ] final  -69.07 input  -57.11 | X-H torsion

> <Gold.Protein.ActiveResidues>
 VAL166  LYS551  ARG553  GLY616  TRP617  ASP618  TYR619  PRO620  LYS621  CYS622 
 ASP623  PHE694  ASN695  SER759  ASP760  ASP761  ALA762  ILE779  LEU786  VAL792 
 PHE793  MET794  SER795  GLU796  ALA797  LYS798  CYS799  TRP800  GLU811  SER814 

> <Gold.Protein.RotatedAtoms>
  152.1353  133.4431  159.4740 H   0  0  0  0  0  0  0  0  0  0  0  0  # atno 6907 bound_to 6896
  150.6881  134.2372  159.4467 H   0  0  0  0  0  0  0  0  0  0  0  0  # atno 6908 bound_to 6896
  152.0258  134.9796  160.0622 H   0  0  0  0  0  0  0  0  0  0  0  0  # atno 6909 bound_to 6896
  144.7146  140.0533  143.6434 H   0  0  0  0  0  0  0  0  0  0  0  0  # atno 7974 bound_to 7965
  155.9627  140.1147  157.0882 H   0  0  0  0  0  0  0  0  0  0  0  0  # atno 8008 bound_to 7997
  154.4136  140.1179  156.5267 H   0  0  0  0  0  0  0  0  0  0  0  0  # atno 8009 bound_to 7997
  155.6700  140.3473  155.4817 H   0  0  0  0  0  0  0  0  0  0  0  0  # atno 8010 bound_to 7997
  140.6931  143.6411  150.8435 H   0  0  0  0  0  0  0  0  0  0  0  0  # atno 10167 bound_to 10162
  157.6292  131.0996  150.7159 H   0  0  0  0  0  0  0  0  0  0  0  0  # atno 10718 bound_to 10713
  154.5551  135.2816  155.0972 H   0  0  0  0  0  0  0  0  0  0  0  0  # atno 10763 bound_to 10752
  154.2403  135.6358  153.5208 H   0  0  0  0  0  0  0  0  0  0  0  0  # atno 10764 bound_to 10752
  153.0013  135.5558  154.6128 H   0  0  0  0  0  0  0  0  0  0  0  0  # atno 10765 bound_to 10752
  141.1546  133.6755  156.6543 H   0  0  0  0  0  0  0  0  0  0  0  0  # atno 11005 bound_to 11000
  145.9925  139.3026  143.0976 LP  0  0  0  0  0  0  0  0  0  0  0  0  # atno 17320 bound_to 7965
  145.8886  140.9318  143.0564 LP  0  0  0  0  0  0  0  0  0  0  0  0  # atno 17321 bound_to 7965
  140.0126  143.5627  152.2833 LP  0  0  0  0  0  0  0  0  0  0  0  0  # atno 17342 bound_to 10162
  139.6356  144.7649  151.2445 LP  0  0  0  0  0  0  0  0  0  0  0  0  # atno 17343 bound_to 10162
  156.7502  130.4766  149.5458 LP  0  0  0  0  0  0  0  0  0  0  0  0  # atno 17370 bound_to 10713
  156.1483  130.6292  151.0562 LP  0  0  0  0  0  0  0  0  0  0  0  0  # atno 17371 bound_to 10713
  140.3296  134.7940  157.4316 LP  0  0  0  0  0  0  0  0  0  0  0  0  # atno 17394 bound_to 11000
  140.1028  134.5450  155.8337 LP  0  0  0  0  0  0  0  0  0  0  0  0  # atno 17395 bound_to 11000

$$$$
