AV-unprocessed.smi:116|AV-procd|sdf|1127|dock6
  -GOLD-   2262018253D 1   1.00000     0.00000
 Structure written by MMmdl.
 38 41  0  0  0  0  0  0  0  0  1 V2000
  147.9851  138.9056  156.2192 O   0  0  0  0  0  0  0  0  0  0  0  0
  147.9735  138.2830  157.2824 C   0  0  0  0  0  0  0  0  0  0  0  0
  146.7460  137.8393  157.9345 C   0  0  0  0  0  0  0  0  0  0  0  0
  145.5572  138.1230  157.3757 F   0  0  0  0  0  0  0  0  0  0  0  0
  146.7817  137.1379  159.0879 C   0  0  0  0  0  0  0  0  0  0  0  0
  147.9613  136.7983  159.7296 N   0  0  0  0  0  0  0  0  0  0  0  0
  147.9649  135.9835  161.0052 C   0  0  2  0  0  0  0  0  0  0  0  0
  146.5507  135.4799  161.3144 C   0  0  0  0  0  0  0  0  0  0  0  0
  146.0141  136.5904  162.1903 C   0  0  0  0  0  0  0  0  0  0  0  0
  147.2615  136.9997  162.9661 C   0  0  0  0  0  0  0  0  0  0  0  0
  148.3560  136.7982  162.0732 O   0  0  0  0  0  0  0  0  0  0  0  0
  149.1979  137.1889  159.1721 C   0  0  0  0  0  0  0  0  0  0  0  0
  150.2611  136.8800  159.7159 O   0  0  0  0  0  0  0  0  0  0  0  0
  149.1637  137.9263  157.9649 N   0  0  0  0  0  0  0  0  0  0  0  0
  150.4385  138.2726  157.3555 C   0  0  0  0  0  0  0  0  0  0  0  0
  151.0519  139.4557  158.0423 C   0  0  0  0  0  0  0  0  0  0  0  0
  150.5311  140.6872  157.9540 N   0  0  0  0  0  0  0  0  0  0  0  0
  151.3175  141.5927  158.6602 C   0  0  0  0  0  0  0  0  0  0  0  0
  151.1032  142.9848  158.7892 C   0  0  0  0  0  0  0  0  0  0  0  0
  151.9853  143.7918  159.5354 C   0  0  0  0  0  0  0  0  0  0  0  0
  153.1031  143.2194  160.1713 C   0  0  0  0  0  0  0  0  0  0  0  0
  153.3402  141.8371  160.0612 C   0  0  0  0  0  0  0  0  0  0  0  0
  152.4570  141.0367  159.3132 C   0  0  0  0  0  0  0  0  0  0  0  0
  152.5222  139.3035  159.0138 S   0  0  0  0  0  0  0  0  0  0  0  0
  145.8381  136.8305  159.5127 H   0  0  0  0  0  0  0  0  0  0  0  0
  148.6992  135.1906  160.8533 H   0  0  0  0  0  0  0  0  0  0  0  0
  145.9629  135.2990  160.4135 H   0  0  0  0  0  0  0  0  0  0  0  0
  146.6281  134.5502  161.8792 H   0  0  0  0  0  0  0  0  0  0  0  0
  145.6609  137.4189  161.5749 H   0  0  0  0  0  0  0  0  0  0  0  0
  145.1953  136.2712  162.8356 H   0  0  0  0  0  0  0  0  0  0  0  0
  147.2165  138.0308  163.3171 H   0  0  0  0  0  0  0  0  0  0  0  0
  147.3972  136.3519  163.8328 H   0  0  0  0  0  0  0  0  0  0  0  0
  151.1070  137.4119  157.3904 H   0  0  0  0  0  0  0  0  0  0  0  0
  150.2582  138.4775  156.2986 H   0  0  0  0  0  0  0  0  0  0  0  0
  150.2496  143.4370  158.3062 H   0  0  0  0  0  0  0  0  0  0  0  0
  151.8032  144.8531  159.6193 H   0  0  0  0  0  0  0  0  0  0  0  0
  153.7777  143.8406  160.7425 H   0  0  0  0  0  0  0  0  0  0  0  0
  154.1962  141.3922  160.5471 H   0  0  0  0  0  0  0  0  0  0  0  0
  1  2  2  0  0  0  0
  2 14  1  0  0  0  0
  2  3  1  0  0  0  0
  3  4  1  0  0  0  0
  3  5  2  0  0  0  0
  5  6  1  0  0  0  0
  5 25  1  0  0  0  0
  6  7  1  0  0  0  0
  6 12  1  0  0  0  0
  7 11  1  0  0  0  0
  7  8  1  0  0  0  0
  7 26  1  0  0  0  0
  8  9  1  0  0  0  0
  8 27  1  0  0  0  0
  8 28  1  0  0  0  0
  9 10  1  0  0  0  0
  9 29  1  0  0  0  0
  9 30  1  0  0  0  0
 10 11  1  0  0  0  0
 10 31  1  0  0  0  0
 10 32  1  0  0  0  0
 12 13  2  0  0  0  0
 12 14  1  0  0  0  0
 14 15  1  0  0  0  0
 15 16  1  0  0  0  0
 15 33  1  0  0  0  0
 15 34  1  0  0  0  0
 16 24  1  0  0  0  0
 16 17  2  0  0  0  0
 17 18  1  0  0  0  0
 18 23  2  0  0  0  0
 18 19  1  0  0  0  0
 19 20  2  0  0  0  0
 19 35  1  0  0  0  0
 20 21  1  0  0  0  0
 20 36  1  0  0  0  0
 21 22  2  0  0  0  0
 21 37  1  0  0  0  0
 22 23  1  0  0  0  0
 22 38  1  0  0  0  0
 23 24  1  0  0  0  0
M  END
> <s_m_source_file>
AV-unprocessed.smi

> <i_m_source_file_index>
116

> <i_lp_mmshare_version>
43012

> <i_f3d_flags>
0

> <s_epik_input>
TzFbQ0gyXVtDSDJdW0NIMl1bQ0BIXTFuKFtjSF1jKEYpYzI9TyljKD1PKW4yW0NIMl1jKG4zKXNjKGMzNClbY0hdW2NIXVtjSF1bY0hdNA==

> <s_epik_cmdline>
J2VwaWtfcHl0aG9uJywgJy1waCcsICc3LjAnLCAnLXRuJywgJzgnLCAnLW1hJywgJzIwMCcsICctbWV0YWxfYmluZGluZycsICctaW1hZScsICc8aW5maWxlLm1hZT4nLCAnLW9tYWUnLCAnPG91dGZpbGUubWFlPic=

> <r_lp_tautomer_probability>
1

> <r_epik_Ionization_Penalty>
4.2492e-05

> <r_epik_Ionization_Penalty_Charging>
2.84664e-09

> <r_epik_Ionization_Penalty_Neutral>
4.24891e-05

> <r_epik_State_Penalty>
-0

> <r_epik_Charging_Adjusted_Penalty>
2.84664e-09

> <i_epik_Tot_Q>
0

> <i_epik_Tot_abs_Q>
0

> <r_epik_Metal_State_Penalty>
-0

> <b_epik_Metal_Only>
0

> <s_epik_Chemistry_Notes>
This compound contains an acetal/aminal-like group ( X-CH(R)-Y where X, Y are N, S, or O) that may be acid/base labile, releasing an aldehyde.

> <s_lp_Force_Field>
OPLS_2005

> <r_lp_Energy>
31.0424

> <b_lp_Chiralities_Consistent>
1

> <s_lp_Variant>
AV-unprocessed.smi:116-1

> <Gold.Version>
5.8.1

> <Gold.Id.Protein>
6NUR|6NUR_protein|mol2

> <Gold.PLP.Fitness>
44.8913

> <Gold.PLP.PLP>
-39.8454

> <Gold.PLP.part.hbond>
-2.2882

> <Gold.PLP.part.metal>
0.0000

> <Gold.PLP.part.buried>
-6.1958

> <Gold.PLP.part.nonpolar>
-31.9044

> <Gold.PLP.part.repulsive>
0.0000

> <Gold.PLP.ligand.clash>
0.0000

> <Gold.PLP.ligand.torsion>
0.4845

> <Gold.PLP.Chemscore.Hbond>
2.0000

> <Gold.PLP.Chemscore.CHOScore>
0.0000

> <Gold.PLP.Chemscore.Metal>
0.0000

> <Gold.Chemscore.Hbonds>
donor molecule, donor type, donor heavy atom, donor atom, acceptor molecule, acceptor atom, score
      P1  H  6896  6907       L1    13  1.00
      P1  H  6931  6943       L1    11  1.00

> <Gold.PLP.Chemscore.Internal.Correction>
0.0148

> <Gold.Rescore>
     Score         DG    S(hbond)    S(metal)    S(lipo)     H(rot)  DE(clash)    DE(int)     intcor
     18.35     -19.03       1.89        0.00      95.02       1.52       0.01       0.67       ----

> <Gold.Chemscore.Fitness>
18.3493

> <Gold.Chemscore.DG>
-19.0312

> <Gold.Chemscore.ZeroCoef>
-5.4800

> <Gold.Chemscore.Hbond>
1.8915

> <Gold.Chemscore.Metal>
0.0000

> <Gold.Chemscore.Lipo>
95.0237

> <Gold.Chemscore.Internal_Hbond>
0.0000

> <Gold.Chemscore.DEClash>
0.0089

> <Gold.Chemscore.DEInternal>
0.6730

> <Gold.Chemscore.Rot>
1.5172

> <Gold.Chemscore.Internal.Correction>
   9.000000E+99

> <Gold.Chemscore.Hbonds>
donor molecule, donor type, donor heavy atom, donor atom, acceptor molecule, acceptor atom, score
      P1  H  6896  6907       L1    13  0.97
      P1  H  6931  6943       L1    11  0.49

> <Gold.Chemscore.Hbond.Weighted>
-6.3175

> <Gold.Chemscore.Metal.Weighted>
-0.0000

> <Gold.Chemscore.Lipo.Weighted>
-11.1178

> <Gold.Chemscore.Internal_Hbond.Weighted>
0.0000

> <Gold.Chemscore.DEClash.Weighted>
0.0089

> <Gold.Chemscore.DEInternal.Weighted>
0.6730

> <Gold.Chemscore.Rot.Weighted>
3.8841

> <Gold.Chemscore.Internal.Correction.Weighted>
   9.000000E+99

> <Gold.Protein.RotatedTorsions>
[ 6907 6896 6895 6894 ] final  -30.58 input  -60.11 | X-H torsion
[ 7974 7965 7964 7962 ] final -109.62 input  175.53 | X-H torsion
[ 8008 7997 7996 7995 ] final   14.46 input   59.86 | X-H torsion
[ 10167 10162 10161 10158 ] final   -3.33 input  -65.29 | X-H torsion
[ 10718 10713 10712 10709 ] final -130.32 input   66.30 | X-H torsion
[ 10763 10752 10751 10750 ] final   63.07 input  -60.55 | X-H torsion
[ 11005 11000 10999 10996 ] final -110.78 input  -57.11 | X-H torsion

> <Gold.Protein.ActiveResidues>
 VAL166  LYS551  ARG553  GLY616  TRP617  ASP618  TYR619  PRO620  LYS621  CYS622 
 ASP623  PHE694  ASN695  SER759  ASP760  ASP761  ALA762  ILE779  LEU786  VAL792 
 PHE793  MET794  SER795  GLU796  ALA797  LYS798  CYS799  TRP800  GLU811  SER814 

> <Gold.Protein.RotatedAtoms>
  151.1036  134.9987  159.8460 H   0  0  0  0  0  0  0  0  0  0  0  0  # atno 6907 bound_to 6896
  152.5438  134.1920  159.8688 H   0  0  0  0  0  0  0  0  0  0  0  0  # atno 6908 bound_to 6896
  151.1965  133.4592  159.2629 H   0  0  0  0  0  0  0  0  0  0  0  0  # atno 6909 bound_to 6896
  145.1783  140.8959  143.3495 H   0  0  0  0  0  0  0  0  0  0  0  0  # atno 7974 bound_to 7965
  154.8488  140.2926  155.5612 H   0  0  0  0  0  0  0  0  0  0  0  0  # atno 8008 bound_to 7997
  156.3015  140.2500  156.3375 H   0  0  0  0  0  0  0  0  0  0  0  0  # atno 8009 bound_to 7997
  154.9044  140.0390  157.1901 H   0  0  0  0  0  0  0  0  0  0  0  0  # atno 8010 bound_to 7997
  140.6886  143.6552  150.8314 H   0  0  0  0  0  0  0  0  0  0  0  0  # atno 10167 bound_to 10162
  156.2133  130.6932  151.0674 H   0  0  0  0  0  0  0  0  0  0  0  0  # atno 10718 bound_to 10713
  153.0004  135.5442  154.6293 H   0  0  0  0  0  0  0  0  0  0  0  0  # atno 10763 bound_to 10752
  154.5574  135.2831  155.0954 H   0  0  0  0  0  0  0  0  0  0  0  0  # atno 10764 bound_to 10752
  154.2170  135.6457  153.5185 H   0  0  0  0  0  0  0  0  0  0  0  0  # atno 10765 bound_to 10752
  141.0772  133.9281  157.2365 H   0  0  0  0  0  0  0  0  0  0  0  0  # atno 11005 bound_to 11000
  145.0162  139.3465  143.6095 LP  0  0  0  0  0  0  0  0  0  0  0  0  # atno 17320 bound_to 7965
  146.3457  139.9445  142.8737 LP  0  0  0  0  0  0  0  0  0  0  0  0  # atno 17321 bound_to 7965
  140.0262  143.5490  152.2779 LP  0  0  0  0  0  0  0  0  0  0  0  0  # atno 17342 bound_to 10162
  139.6267  144.7638  151.2624 LP  0  0  0  0  0  0  0  0  0  0  0  0  # atno 17343 bound_to 10162
  157.7050  131.0760  150.6697 LP  0  0  0  0  0  0  0  0  0  0  0  0  # atno 17370 bound_to 10713
  156.6757  130.4552  149.5643 LP  0  0  0  0  0  0  0  0  0  0  0  0  # atno 17371 bound_to 10713
  139.9584  135.0160  156.9194 LP  0  0  0  0  0  0  0  0  0  0  0  0  # atno 17394 bound_to 11000
  140.5547  134.0592  155.7380 LP  0  0  0  0  0  0  0  0  0  0  0  0  # atno 17395 bound_to 11000

$$$$
