AV-unprocessed.smi:3283|AV-procd|sdf|12569|dock8
  -GOLD-   2272018493D 1   1.00000     0.00000
 Structure written by MMmdl.
 44 45  0  0  0  0  0  0  0  0  2 V2000
  151.3543  140.2133  158.0524 C   0  0  0  0  0  0  0  0  0  0  0  0
  152.0832  141.1646  158.9868 C   0  0  0  0  0  0  0  0  0  0  0  0
  153.1632  140.7350  159.6671 C   0  0  0  0  0  0  0  0  0  0  0  0
  153.9192  141.5651  160.6783 C   0  0  0  0  0  0  0  0  0  0  0  0
  153.0526  142.7120  161.2037 C   0  0  0  0  0  0  0  0  0  0  0  0
  152.4057  143.5000  160.0530 C   0  0  2  0  0  0  0  0  0  0  0  0
  151.6209  144.6951  160.6289 C   0  0  0  0  0  0  0  0  0  0  0  0
  151.5261  142.5957  159.1350 C   0  0  1  0  0  0  0  0  0  0  0  0
  151.2919  143.2932  157.7686 C   0  0  0  0  0  0  0  0  0  0  0  0
  150.1153  142.7644  157.0500 N   0  3  0  0  0  0  0  0  0  0  0  0
  149.0108  142.3310  157.9281 C   0  0  0  0  0  0  0  0  0  0  0  0
  147.7996  141.8432  157.1188 C   0  0  0  0  0  0  0  0  0  0  0  0
  148.1543  141.3326  155.7554 C   0  0  0  0  0  0  0  0  0  0  0  0
  149.1182  140.4357  155.3881 C   0  0  0  0  0  0  0  0  0  0  0  0
  149.0000  140.3564  153.9735 C   0  0  0  0  0  0  0  0  0  0  0  0
  148.0462  141.1395  153.5015 N   0  0  0  0  0  0  0  0  0  0  0  0
  147.5192  141.7361  154.5917 N   0  0  0  0  0  0  0  0  0  0  0  0
  146.4249  142.6729  154.4155 C   0  0  0  0  0  0  0  0  0  0  0  0
  150.2890  140.1970  158.2807 H   0  0  0  0  0  0  0  0  0  0  0  0
  151.7276  139.1938  158.1559 H   0  0  0  0  0  0  0  0  0  0  0  0
  151.4921  140.5044  157.0114 H   0  0  0  0  0  0  0  0  0  0  0  0
  153.5320  139.7307  159.5157 H   0  0  0  0  0  0  0  0  0  0  0  0
  154.2271  140.9268  161.5069 H   0  0  0  0  0  0  0  0  0  0  0  0
  154.8276  141.9453  160.2103 H   0  0  0  0  0  0  0  0  0  0  0  0
  152.2737  142.3107  161.8543 H   0  0  0  0  0  0  0  0  0  0  0  0
  153.6624  143.3706  161.8233 H   0  0  0  0  0  0  0  0  0  0  0  0
  153.2221  143.9003  159.4494 H   0  0  0  0  0  0  0  0  0  0  0  0
  150.7805  144.3588  161.2373 H   0  0  0  0  0  0  0  0  0  0  0  0
  151.2254  145.3487  159.8530 H   0  0  0  0  0  0  0  0  0  0  0  0
  152.2589  145.3104  161.2642 H   0  0  0  0  0  0  0  0  0  0  0  0
  150.5602  142.4800  159.6291 H   0  0  0  0  0  0  0  0  0  0  0  0
  151.1306  144.3625  157.8953 H   0  0  0  0  0  0  0  0  0  0  0  0
  152.1811  143.1906  157.1446 H   0  0  0  0  0  0  0  0  0  0  0  0
  149.7694  143.4856  156.4331 H   0  0  0  0  0  0  0  0  0  0  0  0
  149.3618  141.5369  158.5887 H   0  0  0  0  0  0  0  0  0  0  0  0
  148.7139  143.1673  158.5623 H   0  0  0  0  0  0  0  0  0  0  0  0
  147.3086  141.0432  157.6738 H   0  0  0  0  0  0  0  0  0  0  0  0
  147.0603  142.6408  157.0483 H   0  0  0  0  0  0  0  0  0  0  0  0
  149.8082  139.9139  156.0348 H   0  0  0  0  0  0  0  0  0  0  0  0
  149.5760  139.7600  153.2812 H   0  0  0  0  0  0  0  0  0  0  0  0
  145.6373  142.4707  155.1415 H   0  0  0  0  0  0  0  0  0  0  0  0
  146.0010  142.5823  153.4141 H   0  0  0  0  0  0  0  0  0  0  0  0
  146.7882  143.6910  154.5502 H   0  0  0  0  0  0  0  0  0  0  0  0
  150.4094  141.9761  156.4909 H   0  0  0  0  0  0  0  0  0  0  0  0
  1  2  1  0  0  0  0
  1 19  1  0  0  0  0
  1 20  1  0  0  0  0
  1 21  1  0  0  0  0
  2  8  1  0  0  0  0
  2  3  2  0  0  0  0
  3  4  1  0  0  0  0
  3 22  1  0  0  0  0
  4  5  1  0  0  0  0
  4 23  1  0  0  0  0
  4 24  1  0  0  0  0
  5  6  1  0  0  0  0
  5 25  1  0  0  0  0
  5 26  1  0  0  0  0
  6  7  1  0  0  0  0
  6  8  1  0  0  0  0
  6 27  1  0  0  0  0
  7 28  1  0  0  0  0
  7 29  1  0  0  0  0
  7 30  1  0  0  0  0
  8  9  1  0  0  0  0
  8 31  1  0  0  0  0
  9 10  1  0  0  0  0
  9 32  1  0  0  0  0
  9 33  1  0  0  0  0
 10 11  1  0  0  0  0
 10 34  1  0  0  0  0
 10 44  1  0  0  0  0
 11 12  1  0  0  0  0
 11 35  1  0  0  0  0
 11 36  1  0  0  0  0
 12 13  1  0  0  0  0
 12 37  1  0  0  0  0
 12 38  1  0  0  0  0
 13 17  1  0  0  0  0
 13 14  2  0  0  0  0
 14 15  1  0  0  0  0
 14 39  1  0  0  0  0
 15 16  2  0  0  0  0
 15 40  1  0  0  0  0
 16 17  1  0  0  0  0
 17 18  1  0  0  0  0
 18 41  1  0  0  0  0
 18 42  1  0  0  0  0
 18 43  1  0  0  0  0
M  CHG  1  10   1
M  END
> <s_m_source_file>
AV-unprocessed.smi

> <i_m_source_file_index>
3283

> <i_lp_mmshare_version>
43012

> <i_f3d_flags>
0

> <s_epik_input>
W0NIM11DMT1bQ0hdW0NIMl1bQ0gyXVtDQEBIXShbQ0gzXSlbQ0BIXTFbQ0gyXVtOSF1bQ0gyXVtDSDJdYzJbY0hdW2NIXW5uMltDSDNd

> <s_epik_cmdline>
J2VwaWtfcHl0aG9uJywgJy1waCcsICc3LjAnLCAnLXRuJywgJzgnLCAnLW1hJywgJzIwMCcsICctbWV0YWxfYmluZGluZycsICctaW1hZScsICc8aW5maWxlLm1hZT4nLCAnLW9tYWUnLCAnPG91dGZpbGUubWFlPic=

> <r_lp_tautomer_probability>
1

> <r_epik_Ionization_Penalty>
0.000866911

> <r_epik_Ionization_Penalty_Charging>
0.000836385

> <r_epik_Ionization_Penalty_Neutral>
3.05258e-05

> <r_epik_State_Penalty>
-0

> <r_epik_Charging_Adjusted_Penalty>
0.000836385

> <i_epik_Tot_Q>
1

> <i_epik_Tot_abs_Q>
1

> <r_epik_Metal_State_Penalty>
-0

> <b_epik_Metal_Only>
0

> <s_lp_Force_Field>
OPLS_2005

> <r_lp_Energy>
14.6109

> <b_lp_Chiralities_Consistent>
1

> <s_lp_Variant>
AV-unprocessed.smi:3283-2

> <Gold.Version>
5.8.1

> <Gold.Id.Protein>
6NUR|6NUR_protein|mol2

> <Gold.PLP.Fitness>
47.8350

> <Gold.PLP.PLP>
-40.4215

> <Gold.PLP.part.hbond>
-1.0000

> <Gold.PLP.part.metal>
0.0000

> <Gold.PLP.part.buried>
-3.4711

> <Gold.PLP.part.nonpolar>
-36.0622

> <Gold.PLP.part.repulsive>
0.5339

> <Gold.PLP.ligand.clash>
0.0000

> <Gold.PLP.ligand.torsion>
0.6306

> <Gold.PLP.Chemscore.Hbond>
2.0000

> <Gold.PLP.Chemscore.CHOScore>
0.8762

> <Gold.PLP.Chemscore.Metal>
0.0000

> <Gold.Chemscore.Hbonds>
donor molecule, donor type, donor heavy atom, donor atom, acceptor molecule, acceptor atom, score
      L1  H    10    34       P1  8028  2.00
      L1  C    15    40       P1  7957  0.90

> <Gold.PLP.Chemscore.Internal.Correction>
0.0461

> <Gold.Rescore>
     Score         DG    S(hbond)    S(metal)    S(lipo)     H(rot)  DE(clash)    DE(int)     intcor
     17.69     -18.34       1.00        0.00     113.94       1.48       0.00       0.65       ----

> <Gold.Chemscore.Fitness>
17.6916

> <Gold.Chemscore.DG>
-18.3424

> <Gold.Chemscore.ZeroCoef>
-5.4800

> <Gold.Chemscore.Hbond>
0.9975

> <Gold.Chemscore.Metal>
0.0000

> <Gold.Chemscore.Lipo>
113.9439

> <Gold.Chemscore.Internal_Hbond>
0.0000

> <Gold.Chemscore.DEClash>
0.0042

> <Gold.Chemscore.DEInternal>
0.6466

> <Gold.Chemscore.Rot>
1.4847

> <Gold.Chemscore.Internal.Correction>
   9.000000E+99

> <Gold.Chemscore.Hbonds>
donor molecule, donor type, donor heavy atom, donor atom, acceptor molecule, acceptor atom, score
      L1  H    10    34       P1  8028  1.00

> <Gold.Chemscore.Hbond.Weighted>
-3.3318

> <Gold.Chemscore.Metal.Weighted>
-0.0000

> <Gold.Chemscore.Lipo.Weighted>
-13.3314

> <Gold.Chemscore.Internal_Hbond.Weighted>
0.0000

> <Gold.Chemscore.DEClash.Weighted>
0.0042

> <Gold.Chemscore.DEInternal.Weighted>
0.6466

> <Gold.Chemscore.Rot.Weighted>
3.8008

> <Gold.Chemscore.Internal.Correction.Weighted>
   9.000000E+99

> <Gold.Protein.RotatedTorsions>
[ 6907 6896 6895 6894 ] final -140.79 input  -60.11 | X-H torsion
[ 7974 7965 7964 7962 ] final  -94.06 input  175.53 | X-H torsion
[ 8008 7997 7996 7995 ] final  -41.00 input   59.86 | X-H torsion
[ 10167 10162 10161 10158 ] final -178.24 input  -65.29 | X-H torsion
[ 10718 10713 10712 10709 ] final  175.59 input   66.30 | X-H torsion
[ 10763 10752 10751 10750 ] final -122.56 input  -60.55 | X-H torsion
[ 11005 11000 10999 10996 ] final -160.97 input  -57.11 | X-H torsion

> <Gold.Protein.ActiveResidues>
 VAL166  LYS551  ARG553  GLY616  TRP617  ASP618  TYR619  PRO620  LYS621  CYS622 
 ASP623  PHE694  ASN695  SER759  ASP760  ASP761  ALA762  ILE779  LEU786  VAL792 
 PHE793  MET794  SER795  GLU796  ALA797  LYS798  CYS799  TRP800  GLU811  SER814 

> <Gold.Protein.RotatedAtoms>
  151.0654  133.5510  159.2630 H   0  0  0  0  0  0  0  0  0  0  0  0  # atno 6907 bound_to 6896
  151.2469  135.0608  159.9057 H   0  0  0  0  0  0  0  0  0  0  0  0  # atno 6908 bound_to 6896
  152.5404  134.0420  159.8125 H   0  0  0  0  0  0  0  0  0  0  0  0  # atno 6909 bound_to 6896
  145.3783  140.9514  143.2408 H   0  0  0  0  0  0  0  0  0  0  0  0  # atno 7974 bound_to 7965
  154.4007  140.1511  156.3119 H   0  0  0  0  0  0  0  0  0  0  0  0  # atno 8008 bound_to 7997
  155.8608  140.3453  155.5733 H   0  0  0  0  0  0  0  0  0  0  0  0  # atno 8009 bound_to 7997
  155.7882  140.0853  157.2013 H   0  0  0  0  0  0  0  0  0  0  0  0  # atno 8010 bound_to 7997
  139.5441  144.2282  152.0954 H   0  0  0  0  0  0  0  0  0  0  0  0  # atno 10167 bound_to 10162
  156.9327  130.9976  151.2984 H   0  0  0  0  0  0  0  0  0  0  0  0  # atno 10718 bound_to 10713
  154.8692  135.4128  154.2801 H   0  0  0  0  0  0  0  0  0  0  0  0  # atno 10763 bound_to 10752
  153.3696  135.7007  153.6654 H   0  0  0  0  0  0  0  0  0  0  0  0  # atno 10764 bound_to 10752
  153.5521  135.3627  155.2736 H   0  0  0  0  0  0  0  0  0  0  0  0  # atno 10765 bound_to 10752
  140.6256  134.4705  157.5226 H   0  0  0  0  0  0  0  0  0  0  0  0  # atno 11005 bound_to 11000
  144.8526  139.5299  143.6849 LP  0  0  0  0  0  0  0  0  0  0  0  0  # atno 17320 bound_to 7965
  146.2853  139.6989  142.9199 LP  0  0  0  0  0  0  0  0  0  0  0  0  # atno 17321 bound_to 7965
  140.1765  144.4885  150.6551 LP  0  0  0  0  0  0  0  0  0  0  0  0  # atno 17342 bound_to 10162
  140.6683  143.2276  151.5688 LP  0  0  0  0  0  0  0  0  0  0  0  0  # atno 17343 bound_to 10162
  157.5836  130.8394  149.8558 LP  0  0  0  0  0  0  0  0  0  0  0  0  # atno 17370 bound_to 10713
  156.0440  130.3732  150.1364 LP  0  0  0  0  0  0  0  0  0  0  0  0  # atno 17371 bound_to 10713
  139.9136  134.8293  156.1442 LP  0  0  0  0  0  0  0  0  0  0  0  0  # atno 17394 bound_to 11000
  141.0712  133.6796  156.2144 LP  0  0  0  0  0  0  0  0  0  0  0  0  # atno 17395 bound_to 11000

$$$$
