AV-unprocessed.smi:1959|AV-procd|sdf|7913|dock4
  -GOLD-   2272010 83D 1   1.00000     0.00000
 Structure written by MMmdl.
 44 45  0  0  0  0  0  0  0  0  1 V2000
  154.0356  140.6585  161.3215 C   0  0  0  0  0  0  0  0  0  0  0  0
  153.3433  141.8395  160.7076 C   0  0  0  0  0  0  0  0  0  0  0  0
  152.9336  143.0476  161.3383 C   0  0  0  0  0  0  0  0  0  0  0  0
  152.3590  143.7742  160.3339 C   0  0  0  0  0  0  0  0  0  0  0  0
  151.7363  145.1312  160.3608 C   0  0  0  0  0  0  0  0  0  0  0  0
  152.4410  143.0068  159.1853 N   0  0  0  0  0  0  0  0  0  0  0  0
  151.9798  143.3160  157.8387 C   0  0  0  0  0  0  0  0  0  0  0  0
  150.5768  142.7717  157.5417 C   0  0  0  0  0  0  0  0  0  0  0  0
  149.6135  143.0607  158.2535 O   0  0  0  0  0  0  0  0  0  0  0  0
  150.4822  141.9722  156.4684 N   0  0  0  0  0  0  0  0  0  0  0  0
  149.2604  141.3306  155.9881 C   0  0  1  0  0  0  0  0  0  0  0  0
  149.0119  141.6839  154.5134 C   0  0  0  0  0  0  0  0  0  0  0  0
  149.2401  139.8077  156.2710 C   0  0  0  0  0  0  0  0  0  0  0  0
  150.0299  138.9544  155.3776 N   0  0  0  0  0  0  0  0  0  0  0  0
  149.8817  137.5489  155.7430 C   0  0  0  0  0  0  0  0  0  0  0  0
  150.6916  136.6224  154.8204 C   0  0  0  0  0  0  0  0  0  0  0  0
  152.0627  137.0023  154.8520 O   0  0  0  0  0  0  0  0  0  0  0  0
  152.2642  138.3552  154.4577 C   0  0  0  0  0  0  0  0  0  0  0  0
  151.4525  139.2912  155.3708 C   0  0  0  0  0  0  0  0  0  0  0  0
  153.0463  141.8217  159.4187 N   0  0  0  0  0  0  0  0  0  0  0  0
  154.2805  140.8439  162.3676 H   0  0  0  0  0  0  0  0  0  0  0  0
  154.9656  140.4327  160.7992 H   0  0  0  0  0  0  0  0  0  0  0  0
  153.4049  139.7702  161.2814 H   0  0  0  0  0  0  0  0  0  0  0  0
  153.0444  143.3371  162.3728 H   0  0  0  0  0  0  0  0  0  0  0  0
  151.7773  145.5589  161.3626 H   0  0  0  0  0  0  0  0  0  0  0  0
  150.6896  145.0852  160.0592 H   0  0  0  0  0  0  0  0  0  0  0  0
  152.2556  145.8108  159.6851 H   0  0  0  0  0  0  0  0  0  0  0  0
  151.9859  144.3985  157.7071 H   0  0  0  0  0  0  0  0  0  0  0  0
  152.6853  142.9048  157.1146 H   0  0  0  0  0  0  0  0  0  0  0  0
  151.3246  141.7874  155.9433 H   0  0  0  0  0  0  0  0  0  0  0  0
  148.4344  141.7671  156.5529 H   0  0  0  0  0  0  0  0  0  0  0  0
  148.0825  141.2390  154.1572 H   0  0  0  0  0  0  0  0  0  0  0  0
  149.8189  141.3284  153.8717 H   0  0  0  0  0  0  0  0  0  0  0  0
  148.9337  142.7629  154.3775 H   0  0  0  0  0  0  0  0  0  0  0  0
  149.5142  139.6135  157.3090 H   0  0  0  0  0  0  0  0  0  0  0  0
  148.1970  139.4983  156.1911 H   0  0  0  0  0  0  0  0  0  0  0  0
  150.2027  137.3991  156.7751 H   0  0  0  0  0  0  0  0  0  0  0  0
  148.8298  137.2640  155.7002 H   0  0  0  0  0  0  0  0  0  0  0  0
  150.6010  135.5867  155.1484 H   0  0  0  0  0  0  0  0  0  0  0  0
  150.3155  136.6693  153.7972 H   0  0  0  0  0  0  0  0  0  0  0  0
  153.3266  138.5906  154.5224 H   0  0  0  0  0  0  0  0  0  0  0  0
  151.9700  138.4833  153.4148 H   0  0  0  0  0  0  0  0  0  0  0  0
  151.5985  140.3127  155.0239 H   0  0  0  0  0  0  0  0  0  0  0  0
  151.8498  139.2423  156.3858 H   0  0  0  0  0  0  0  0  0  0  0  0
  1  2  1  0  0  0  0
  1 21  1  0  0  0  0
  1 22  1  0  0  0  0
  1 23  1  0  0  0  0
  2 20  2  0  0  0  0
  2  3  1  0  0  0  0
  3  4  2  0  0  0  0
  3 24  1  0  0  0  0
  4  5  1  0  0  0  0
  4  6  1  0  0  0  0
  5 25  1  0  0  0  0
  5 26  1  0  0  0  0
  5 27  1  0  0  0  0
  6  7  1  0  0  0  0
  6 20  1  0  0  0  0
  7  8  1  0  0  0  0
  7 28  1  0  0  0  0
  7 29  1  0  0  0  0
  8  9  2  0  0  0  0
  8 10  1  0  0  0  0
 10 11  1  0  0  0  0
 10 30  1  0  0  0  0
 11 12  1  0  0  0  0
 11 13  1  0  0  0  0
 11 31  1  0  0  0  0
 12 32  1  0  0  0  0
 12 33  1  0  0  0  0
 12 34  1  0  0  0  0
 13 14  1  0  0  0  0
 13 35  1  0  0  0  0
 13 36  1  0  0  0  0
 14 19  1  0  0  0  0
 14 15  1  0  0  0  0
 15 16  1  0  0  0  0
 15 37  1  0  0  0  0
 15 38  1  0  0  0  0
 16 17  1  0  0  0  0
 16 39  1  0  0  0  0
 16 40  1  0  0  0  0
 17 18  1  0  0  0  0
 18 19  1  0  0  0  0
 18 41  1  0  0  0  0
 18 42  1  0  0  0  0
 19 43  1  0  0  0  0
 19 44  1  0  0  0  0
M  END
> <s_m_source_file>
AV-unprocessed.smi

> <i_m_source_file_index>
1959

> <i_lp_mmshare_version>
43012

> <i_f3d_flags>
0

> <s_epik_input>
W0NIM11jMVtjSF1jKFtDSDNdKW4objEpW0NIMl1DKD1PKVtOSF1bQ0BIXShbQ0gzXSlbQ0gyXU4yW0NIMl1bQ0gyXU9bQ0gyXVtDSDJdMg==

> <s_epik_cmdline>
J2VwaWtfcHl0aG9uJywgJy1waCcsICc3LjAnLCAnLXRuJywgJzgnLCAnLW1hJywgJzIwMCcsICctbWV0YWxfYmluZGluZycsICctaW1hZScsICc8aW5maWxlLm1hZT4nLCAnLW9tYWUnLCAnPG91dGZpbGUubWFlPic=

> <r_lp_tautomer_probability>
1

> <r_epik_Ionization_Penalty>
0.197284

> <r_epik_Ionization_Penalty_Charging>
0

> <r_epik_Ionization_Penalty_Neutral>
0.197284

> <r_epik_State_Penalty>
0.186684

> <r_epik_Charging_Adjusted_Penalty>
0.186684

> <i_epik_Tot_Q>
0

> <i_epik_Tot_abs_Q>
0

> <r_epik_Metal_State_Penalty>
0.186639

> <b_epik_Metal_Only>
0

> <s_lp_Force_Field>
OPLS_2005

> <r_lp_Energy>
28.5782

> <b_lp_Chiralities_Consistent>
1

> <s_lp_Variant>
AV-unprocessed.smi:1959-2

> <Gold.Version>
5.8.1

> <Gold.Id.Protein>
6NUR|6NUR_protein|mol2

> <Gold.PLP.Fitness>
43.4099

> <Gold.PLP.PLP>
-41.6716

> <Gold.PLP.part.hbond>
-1.1267

> <Gold.PLP.part.metal>
0.0000

> <Gold.PLP.part.buried>
-4.9852

> <Gold.PLP.part.nonpolar>
-35.7995

> <Gold.PLP.part.repulsive>
0.4134

> <Gold.PLP.ligand.clash>
0.0000

> <Gold.PLP.ligand.torsion>
0.5785

> <Gold.PLP.Chemscore.Hbond>
0.9440

> <Gold.PLP.Chemscore.CHOScore>
0.0000

> <Gold.PLP.Chemscore.Metal>
0.0000

> <Gold.Chemscore.Hbonds>
donor molecule, donor type, donor heavy atom, donor atom, acceptor molecule, acceptor atom, score
      P1  H 10752 10765       L1    17  0.96

> <Gold.PLP.Chemscore.Internal.Correction>
0.0633

> <Gold.Rescore>
     Score         DG    S(hbond)    S(metal)    S(lipo)     H(rot)  DE(clash)    DE(int)     intcor
     16.21     -16.96       0.95        0.00     108.05       1.70       0.09       0.66       ----

> <Gold.Chemscore.Fitness>
16.2091

> <Gold.Chemscore.DG>
-16.9572

> <Gold.Chemscore.ZeroCoef>
-5.4800

> <Gold.Chemscore.Hbond>
0.9506

> <Gold.Chemscore.Metal>
0.0000

> <Gold.Chemscore.Lipo>
108.0521

> <Gold.Chemscore.Internal_Hbond>
0.0000

> <Gold.Chemscore.DEClash>
0.0926

> <Gold.Chemscore.DEInternal>
0.6555

> <Gold.Chemscore.Rot>
1.6952

> <Gold.Chemscore.Internal.Correction>
   9.000000E+99

> <Gold.Chemscore.Hbonds>
donor molecule, donor type, donor heavy atom, donor atom, acceptor molecule, acceptor atom, score
      P1  H 10752 10765       L1    17  0.56

> <Gold.Chemscore.Hbond.Weighted>
-3.1749

> <Gold.Chemscore.Metal.Weighted>
-0.0000

> <Gold.Chemscore.Lipo.Weighted>
-12.6421

> <Gold.Chemscore.Internal_Hbond.Weighted>
0.0000

> <Gold.Chemscore.DEClash.Weighted>
0.0926

> <Gold.Chemscore.DEInternal.Weighted>
0.6555

> <Gold.Chemscore.Rot.Weighted>
4.3398

> <Gold.Chemscore.Internal.Correction.Weighted>
   9.000000E+99

> <Gold.Protein.RotatedTorsions>
[ 6907 6896 6895 6894 ] final   77.79 input  -60.11 | X-H torsion
[ 7974 7965 7964 7962 ] final -177.14 input  175.53 | X-H torsion
[ 8008 7997 7996 7995 ] final  121.29 input   59.86 | X-H torsion
[ 10167 10162 10161 10158 ] final  170.62 input  -65.29 | X-H torsion
[ 10718 10713 10712 10709 ] final  108.56 input   66.30 | X-H torsion
[ 10763 10752 10751 10750 ] final  177.13 input  -60.55 | X-H torsion
[ 11005 11000 10999 10996 ] final  147.86 input  -57.11 | X-H torsion

> <Gold.Protein.ActiveResidues>
 VAL166  LYS551  ARG553  GLY616  TRP617  ASP618  TYR619  PRO620  LYS621  CYS622 
 ASP623  PHE694  ASN695  SER759  ASP760  ASP761  ALA762  ILE779  LEU786  VAL792 
 PHE793  MET794  SER795  GLU796  ALA797  LYS798  CYS799  TRP800  GLU811  SER814 

> <Gold.Protein.RotatedAtoms>
  152.5132  134.3763  159.9335 H   0  0  0  0  0  0  0  0  0  0  0  0  # atno 6907 bound_to 6896
  151.3719  133.3845  159.2708 H   0  0  0  0  0  0  0  0  0  0  0  0  # atno 6908 bound_to 6896
  150.9571  134.8984  159.7766 H   0  0  0  0  0  0  0  0  0  0  0  0  # atno 6909 bound_to 6896
  144.7127  140.1065  143.6413 H   0  0  0  0  0  0  0  0  0  0  0  0  # atno 7974 bound_to 7965
  156.2680  140.2811  156.1285 H   0  0  0  0  0  0  0  0  0  0  0  0  # atno 8008 bound_to 7997
  155.1079  140.0390  157.2733 H   0  0  0  0  0  0  0  0  0  0  0  0  # atno 8009 bound_to 7997
  154.6765  140.2599  155.6959 H   0  0  0  0  0  0  0  0  0  0  0  0  # atno 8010 bound_to 7997
  139.5023  144.3576  151.9858 H   0  0  0  0  0  0  0  0  0  0  0  0  # atno 10167 bound_to 10162
  157.6581  131.0896  150.6324 H   0  0  0  0  0  0  0  0  0  0  0  0  # atno 10718 bound_to 10713
  154.4904  135.2779  155.1501 H   0  0  0  0  0  0  0  0  0  0  0  0  # atno 10763 bound_to 10752
  154.3174  135.6216  153.5496 H   0  0  0  0  0  0  0  0  0  0  0  0  # atno 10764 bound_to 10752
  152.9887  135.5734  154.5325 H   0  0  0  0  0  0  0  0  0  0  0  0  # atno 10765 bound_to 10752
  140.0911  134.9040  157.1652 H   0  0  0  0  0  0  0  0  0  0  0  0  # atno 11005 bound_to 11000
  145.9492  139.2722  143.1222 LP  0  0  0  0  0  0  0  0  0  0  0  0  # atno 17320 bound_to 7965
  145.9341  140.9027  143.0341 LP  0  0  0  0  0  0  0  0  0  0  0  0  # atno 17321 bound_to 7965
  140.3012  144.3644  150.6059 LP  0  0  0  0  0  0  0  0  0  0  0  0  # atno 17342 bound_to 10162
  140.5871  143.2169  151.7321 LP  0  0  0  0  0  0  0  0  0  0  0  0  # atno 17343 bound_to 10162
  156.6628  130.4517  149.5682 LP  0  0  0  0  0  0  0  0  0  0  0  0  # atno 17370 bound_to 10713
  156.2054  130.6646  151.1213 LP  0  0  0  0  0  0  0  0  0  0  0  0  # atno 17371 bound_to 10713
  140.3351  134.2766  155.7221 LP  0  0  0  0  0  0  0  0  0  0  0  0  # atno 17394 bound_to 11000
  141.2078  133.7796  157.0098 LP  0  0  0  0  0  0  0  0  0  0  0  0  # atno 17395 bound_to 11000

$$$$
