AV-unprocessed.smi:255|AV-procd|sdf|1955|dock5
  -GOLD-   2262021 93D 1   1.00000     0.00000
 Structure written by MMmdl.
 44 47  0  0  0  0  0  0  0  0  1 V2000
  153.6156  139.5699  158.6083 O   0  0  0  0  0  0  0  0  0  0  0  0
  152.9970  140.3113  159.6387 C   0  0  0  0  0  0  0  0  0  0  0  0
  152.6185  141.7190  159.1402 C   0  0  2  0  0  0  0  0  0  0  0  0
  152.5899  142.7632  160.2561 C   0  0  0  0  0  0  0  0  0  0  0  0
  151.7499  143.8803  159.6411 C   0  0  1  0  0  0  0  0  0  0  0  0
  152.5335  144.6790  158.9153 F   0  0  0  0  0  0  0  0  0  0  0  0
  150.7770  143.1468  158.7079 C   0  0  0  0  0  0  0  0  0  0  0  0
  151.2683  141.7775  158.5885 N   0  0  0  0  0  0  0  0  0  0  0  0
  151.0942  141.2244  157.3681 C   0  0  0  0  0  0  0  0  0  0  0  0
  152.0794  140.4725  156.8102 N   0  0  0  0  0  0  0  0  0  0  0  0
  151.8961  139.9232  155.6056 C   0  0  0  0  0  0  0  0  0  0  0  0
  150.8308  140.0025  154.8045 N   0  0  0  0  0  0  0  0  0  0  0  0
  149.8451  140.7631  155.3628 C   0  0  0  0  0  0  0  0  0  0  0  0
  149.8955  141.4046  156.6315 C   0  0  0  0  0  0  0  0  0  0  0  0
  148.7087  142.0841  156.8723 N   0  0  0  0  0  0  0  0  0  0  0  0
  147.9945  141.8568  155.8034 C   0  0  0  0  0  0  0  0  0  0  0  0
  148.6024  141.0796  154.8419 N   0  0  0  0  0  0  0  0  0  0  0  0
  148.0367  140.6712  153.5649 C   0  0  0  0  0  0  0  0  0  0  0  0
  147.6938  139.1645  153.4906 C   0  0  2  0  0  0  0  0  0  0  0  0
  148.8990  138.4225  153.4091 O   0  0  0  0  0  0  0  0  0  0  0  0
  146.8329  138.8120  152.2844 C   0  0  0  0  0  0  0  0  0  0  0  0
  146.0608  137.5920  152.7677 C   0  0  0  0  0  0  0  0  0  0  0  0
  145.7630  137.9180  154.1145 O   0  0  0  0  0  0  0  0  0  0  0  0
  146.8648  138.6262  154.6757 C   0  0  0  0  0  0  0  0  0  0  0  0
  153.3438  142.0520  158.3954 H   0  0  0  0  0  0  0  0  0  0  0  0
  151.2486  144.5006  160.3846 H   0  0  0  0  0  0  0  0  0  0  0  0
  153.8834  138.7340  158.9584 H   0  0  0  0  0  0  0  0  0  0  0  0
  152.1303  139.7755  160.0280 H   0  0  0  0  0  0  0  0  0  0  0  0
  153.7184  140.3866  160.4526 H   0  0  0  0  0  0  0  0  0  0  0  0
  152.0823  142.3622  161.1348 H   0  0  0  0  0  0  0  0  0  0  0  0
  153.5842  143.0920  160.5606 H   0  0  0  0  0  0  0  0  0  0  0  0
  149.7828  143.1105  159.1540 H   0  0  0  0  0  0  0  0  0  0  0  0
  150.6859  143.6532  157.7454 H   0  0  0  0  0  0  0  0  0  0  0  0
  152.7210  139.3358  155.2301 H   0  0  0  0  0  0  0  0  0  0  0  0
  146.9977  142.2557  155.6841 H   0  0  0  0  0  0  0  0  0  0  0  0
  147.1417  141.2673  153.3832 H   0  0  0  0  0  0  0  0  0  0  0  0
  148.7438  140.9372  152.7779 H   0  0  0  0  0  0  0  0  0  0  0  0
  149.3863  138.7250  152.6580 H   0  0  0  0  0  0  0  0  0  0  0  0
  146.1269  139.6166  152.0750 H   0  0  0  0  0  0  0  0  0  0  0  0
  147.4045  138.6269  151.3742 H   0  0  0  0  0  0  0  0  0  0  0  0
  145.1558  137.4067  152.1890 H   0  0  0  0  0  0  0  0  0  0  0  0
  146.6821  136.6958  152.7353 H   0  0  0  0  0  0  0  0  0  0  0  0
  147.4461  137.9678  155.3233 H   0  0  0  0  0  0  0  0  0  0  0  0
  146.4648  139.4253  155.2986 H   0  0  0  0  0  0  0  0  0  0  0  0
  1  2  1  0  0  0  0
  1 27  1  0  0  0  0
  2  3  1  0  0  0  0
  2 28  1  0  0  0  0
  2 29  1  0  0  0  0
  3 25  1  0  0  0  0
  3  8  1  0  0  0  0
  3  4  1  0  0  0  0
  4  5  1  0  0  0  0
  4 30  1  0  0  0  0
  4 31  1  0  0  0  0
  5 26  1  0  0  0  0
  5  6  1  0  0  0  0
  5  7  1  0  0  0  0
  7  8  1  0  0  0  0
  7 32  1  0  0  0  0
  7 33  1  0  0  0  0
  8  9  1  0  0  0  0
  9 14  1  0  0  0  0
  9 10  2  0  0  0  0
 10 11  1  0  0  0  0
 11 12  2  0  0  0  0
 11 34  1  0  0  0  0
 12 13  1  0  0  0  0
 13 17  1  0  0  0  0
 13 14  2  0  0  0  0
 14 15  1  0  0  0  0
 15 16  2  0  0  0  0
 16 17  1  0  0  0  0
 16 35  1  0  0  0  0
 17 18  1  0  0  0  0
 18 19  1  0  0  0  0
 18 36  1  0  0  0  0
 18 37  1  0  0  0  0
 19 24  1  0  0  0  0
 19 20  1  0  0  0  0
 19 21  1  0  0  0  0
 20 38  1  0  0  0  0
 21 22  1  0  0  0  0
 21 39  1  0  0  0  0
 21 40  1  0  0  0  0
 22 23  1  0  0  0  0
 22 41  1  0  0  0  0
 22 42  1  0  0  0  0
 23 24  1  0  0  0  0
 24 43  1  0  0  0  0
 24 44  1  0  0  0  0
M  END
> <s_m_source_file>
AV-unprocessed.smi

> <i_m_source_file_index>
255

> <i_lp_mmshare_version>
43012

> <i_f3d_flags>
0

> <s_epik_input>
W09IXVtDSDJdW0NAQEhdMVtDSDJdW0NASF0oRilbQ0gyXU4xYyhuW2NIXW4yKWMoYzIzKW5bY0hdbjNbQ0gyXVtDQEBdNChbT0hdKVtDSDJdW0NIMl1PW0NIMl00

> <s_epik_cmdline>
J2VwaWtfcHl0aG9uJywgJy1waCcsICc3LjAnLCAnLXRuJywgJzgnLCAnLW1hJywgJzIwMCcsICctbWV0YWxfYmluZGluZycsICctaW1hZScsICc8aW5maWxlLm1hZT4nLCAnLW9tYWUnLCAnPG91dGZpbGUubWFlPic=

> <r_lp_tautomer_probability>
1

> <r_epik_Ionization_Penalty>
0.0058098

> <r_epik_Ionization_Penalty_Charging>
0

> <r_epik_Ionization_Penalty_Neutral>
0.0058098

> <r_epik_State_Penalty>
0.00411166

> <r_epik_Charging_Adjusted_Penalty>
0.00411166

> <i_epik_Tot_Q>
0

> <i_epik_Tot_abs_Q>
0

> <r_epik_Metal_State_Penalty>
-0

> <b_epik_Metal_Only>
0

> <s_lp_Force_Field>
OPLS_2005

> <r_lp_Energy>
53.8685

> <b_lp_Chiralities_Consistent>
1

> <s_lp_Variant>
AV-unprocessed.smi:255-7

> <Gold.Version>
5.8.1

> <Gold.Id.Protein>
6NUR|6NUR_protein|mol2

> <Gold.PLP.Fitness>
50.2789

> <Gold.PLP.PLP>
-43.6095

> <Gold.PLP.part.hbond>
-4.3495

> <Gold.PLP.part.metal>
0.0000

> <Gold.PLP.part.buried>
-0.6063

> <Gold.PLP.part.nonpolar>
-39.7330

> <Gold.PLP.part.repulsive>
1.8013

> <Gold.PLP.ligand.clash>
0.0000

> <Gold.PLP.ligand.torsion>
0.9169

> <Gold.PLP.Chemscore.Hbond>
2.8000

> <Gold.PLP.Chemscore.CHOScore>
0.0000

> <Gold.PLP.Chemscore.Metal>
0.0000

> <Gold.Chemscore.Hbonds>
donor molecule, donor type, donor heavy atom, donor atom, acceptor molecule, acceptor atom, score
      L1  H    20    38       P1  7957  1.00
      P1  H  7989  7998       L1    12  0.80
      P1  H  7997  8010       L1     1  1.00

> <Gold.PLP.Chemscore.Internal.Correction>
0.1032

> <Gold.Rescore>
     Score         DG    S(hbond)    S(metal)    S(lipo)     H(rot)  DE(clash)    DE(int)     intcor
      7.17     -12.83       1.82        0.00      83.63       3.33       1.47       4.19       ----

> <Gold.Chemscore.Fitness>
7.1667

> <Gold.Chemscore.DG>
-12.8309

> <Gold.Chemscore.ZeroCoef>
-5.4800

> <Gold.Chemscore.Hbond>
1.8214

> <Gold.Chemscore.Metal>
0.0000

> <Gold.Chemscore.Lipo>
83.6342

> <Gold.Chemscore.Internal_Hbond>
0.0000

> <Gold.Chemscore.DEClash>
1.4723

> <Gold.Chemscore.DEInternal>
4.1918

> <Gold.Chemscore.Rot>
3.3273

> <Gold.Chemscore.Internal.Correction>
   9.000000E+99

> <Gold.Chemscore.Hbonds>
donor molecule, donor type, donor heavy atom, donor atom, acceptor molecule, acceptor atom, score
      L1  H    20    38       P1  7957  0.78
      P1  H  7989  7998       L1    12  0.09
      P1  H  7997  8010       L1     1  0.65

> <Gold.Chemscore.Hbond.Weighted>
-6.0836

> <Gold.Chemscore.Metal.Weighted>
-0.0000

> <Gold.Chemscore.Lipo.Weighted>
-9.7852

> <Gold.Chemscore.Internal_Hbond.Weighted>
0.0000

> <Gold.Chemscore.DEClash.Weighted>
1.4723

> <Gold.Chemscore.DEInternal.Weighted>
4.1918

> <Gold.Chemscore.Rot.Weighted>
8.5179

> <Gold.Chemscore.Internal.Correction.Weighted>
   9.000000E+99

> <Gold.Protein.RotatedTorsions>
[ 6907 6896 6895 6894 ] final  158.41 input  -60.11 | X-H torsion
[ 7974 7965 7964 7962 ] final  -13.32 input  175.53 | X-H torsion
[ 8008 7997 7996 7995 ] final   17.15 input   59.86 | X-H torsion
[ 10167 10162 10161 10158 ] final   76.96 input  -65.29 | X-H torsion
[ 10718 10713 10712 10709 ] final  -99.78 input   66.30 | X-H torsion
[ 10763 10752 10751 10750 ] final  120.30 input  -60.55 | X-H torsion
[ 11005 11000 10999 10996 ] final   55.08 input  -57.11 | X-H torsion

> <Gold.Protein.ActiveResidues>
 VAL166  LYS551  ARG553  GLY616  TRP617  ASP618  TYR619  PRO620  LYS621  CYS622 
 ASP623  PHE694  ASN695  SER759  ASP760  ASP761  ALA762  ILE779  LEU786  VAL792 
 PHE793  MET794  SER795  GLU796  ALA797  LYS798  CYS799  TRP800  GLU811  SER814 

> <Gold.Protein.RotatedAtoms>
  152.0009  133.3825  159.4180 H   0  0  0  0  0  0  0  0  0  0  0  0  # atno 6907 bound_to 6896
  150.6910  134.3835  159.5054 H   0  0  0  0  0  0  0  0  0  0  0  0  # atno 6908 bound_to 6896
  152.1582  134.8933  160.0594 H   0  0  0  0  0  0  0  0  0  0  0  0  # atno 6909 bound_to 6896
  146.2118  140.3186  142.8388 H   0  0  0  0  0  0  0  0  0  0  0  0  # atno 7974 bound_to 7965
  154.8873  140.2981  155.5391 H   0  0  0  0  0  0  0  0  0  0  0  0  # atno 8008 bound_to 7997
  156.3021  140.2431  156.3818 H   0  0  0  0  0  0  0  0  0  0  0  0  # atno 8009 bound_to 7997
  154.8655  140.0403  157.1681 H   0  0  0  0  0  0  0  0  0  0  0  0  # atno 8010 bound_to 7997
  139.9866  144.5787  150.7854 H   0  0  0  0  0  0  0  0  0  0  0  0  # atno 10167 bound_to 10162
  156.0144  130.5298  150.6720 H   0  0  0  0  0  0  0  0  0  0  0  0  # atno 10718 bound_to 10713
  153.5964  135.3456  155.2929 H   0  0  0  0  0  0  0  0  0  0  0  0  # atno 10763 bound_to 10752
  154.8644  135.4217  154.2460 H   0  0  0  0  0  0  0  0  0  0  0  0  # atno 10764 bound_to 10752
  153.3279  135.7042  153.7044 H   0  0  0  0  0  0  0  0  0  0  0  0  # atno 10765 bound_to 10752
  140.0635  134.5569  155.9125 H   0  0  0  0  0  0  0  0  0  0  0  0  # atno 11005 bound_to 11000
  144.8936  140.7555  143.5911 LP  0  0  0  0  0  0  0  0  0  0  0  0  # atno 17320 bound_to 7965
  145.3110  139.1819  143.4639 LP  0  0  0  0  0  0  0  0  0  0  0  0  # atno 17321 bound_to 7965
  140.7470  143.2899  151.3359 LP  0  0  0  0  0  0  0  0  0  0  0  0  # atno 17342 bound_to 10162
  139.6370  144.0611  152.2524 LP  0  0  0  0  0  0  0  0  0  0  0  0  # atno 17343 bound_to 10162
  157.4441  131.0865  151.0914 LP  0  0  0  0  0  0  0  0  0  0  0  0  # atno 17370 bound_to 10713
  157.1449  130.6159  149.5565 LP  0  0  0  0  0  0  0  0  0  0  0  0  # atno 17371 bound_to 10713
  141.1983  133.6601  156.5786 LP  0  0  0  0  0  0  0  0  0  0  0  0  # atno 17394 bound_to 11000
  140.3734  134.7586  157.4613 LP  0  0  0  0  0  0  0  0  0  0  0  0  # atno 17395 bound_to 11000

$$$$
