AV-unprocessed.smi:24|AV-procd|sdf|176|dock9
  -GOLD-   2262015433D 1   1.00000     0.00000
 Structure written by MMmdl.
 61 65  0  0  0  0  0  0  0  0  1 V2000
  150.2156  127.8917  158.6485 C   0  0  0  0  0  0  0  0  0  0  0  0
  149.6984  129.2056  158.7999 O   0  0  0  0  0  0  0  0  0  0  0  0
  149.7069  130.0362  157.7000 C   0  0  0  0  0  0  0  0  0  0  0  0
  149.2873  131.3673  157.8981 C   0  0  0  0  0  0  0  0  0  0  0  0
  149.2654  132.2842  156.8299 C   0  0  0  0  0  0  0  0  0  0  0  0
  149.6599  131.8812  155.5381 C   0  0  0  0  0  0  0  0  0  0  0  0
  149.6397  132.8921  154.3929 C   0  0  1  0  0  0  0  0  0  0  0  0
  148.7092  132.4551  153.2582 C   0  0  0  0  0  0  0  0  0  0  0  0
  147.7568  133.6016  153.1911 C   0  0  0  0  0  0  0  0  0  0  0  0
  146.6262  133.6180  152.2364 C   0  0  0  0  0  0  0  0  0  0  0  0
  146.2998  132.4405  151.5257 C   0  0  0  0  0  0  0  0  0  0  0  0
  145.2241  132.4555  150.6162 C   0  0  0  0  0  0  0  0  0  0  0  0
  144.4808  133.6360  150.4189 C   0  0  0  0  0  0  0  0  0  0  0  0
  144.8094  134.8071  151.1303 C   0  0  0  0  0  0  0  0  0  0  0  0
  145.8830  134.8046  152.0425 C   0  0  0  0  0  0  0  0  0  0  0  0
  148.0151  134.5389  154.0263 N   0  0  0  0  0  0  0  0  0  0  0  0
  149.1146  134.2160  154.7527 N   0  0  0  0  0  0  0  0  0  0  0  0
  149.7022  135.0640  155.6256 C   0  0  0  0  0  0  0  0  0  0  0  0
  150.7610  134.7848  156.1914 O   0  0  0  0  0  0  0  0  0  0  0  0
  149.0149  136.4181  155.9032 C   0  0  0  0  0  0  0  0  0  0  0  0
  148.0512  136.3709  157.0247 N   0  0  0  0  0  0  0  0  0  0  0  0
  146.6652  136.3844  156.7303 C   0  0  0  0  0  0  0  0  0  0  0  0
  146.2594  136.4439  155.5686 O   0  0  0  0  0  0  0  0  0  0  0  0
  145.7760  136.3164  157.8845 C   0  0  0  0  0  0  0  0  0  0  0  0
  144.4450  136.3399  157.7010 F   0  0  0  0  0  0  0  0  0  0  0  0
  146.2680  136.2307  159.1376 C   0  0  0  0  0  0  0  0  0  0  0  0
  147.6246  136.1983  159.4090 N   0  0  0  0  0  0  0  0  0  0  0  0
  148.1623  136.0947  160.8212 C   0  0  2  0  0  0  0  0  0  0  0  0
  147.6646  134.8032  161.4988 C   0  0  0  0  0  0  0  0  0  0  0  0
  147.0823  135.3110  162.8029 C   0  0  0  0  0  0  0  0  0  0  0  0
  146.6321  136.7130  162.4213 C   0  0  0  0  0  0  0  0  0  0  0  0
  147.6924  137.1657  161.5900 O   0  0  0  0  0  0  0  0  0  0  0  0
  148.5498  136.2756  158.3455 C   0  0  0  0  0  0  0  0  0  0  0  0
  149.7628  136.2513  158.5668 O   0  0  0  0  0  0  0  0  0  0  0  0
  150.0870  130.5510  155.3328 C   0  0  0  0  0  0  0  0  0  0  0  0
  150.1092  129.6347  156.4017 C   0  0  0  0  0  0  0  0  0  0  0  0
  150.1439  127.3649  159.6000 H   0  0  0  0  0  0  0  0  0  0  0  0
  151.2674  127.9089  158.3598 H   0  0  0  0  0  0  0  0  0  0  0  0
  149.6476  127.3213  157.9122 H   0  0  0  0  0  0  0  0  0  0  0  0
  148.9792  131.6900  158.8818 H   0  0  0  0  0  0  0  0  0  0  0  0
  148.9421  133.2994  157.0067 H   0  0  0  0  0  0  0  0  0  0  0  0
  150.6530  133.0172  154.0059 H   0  0  0  0  0  0  0  0  0  0  0  0
  149.2516  132.3343  152.3199 H   0  0  0  0  0  0  0  0  0  0  0  0
  148.1865  131.5245  153.4838 H   0  0  0  0  0  0  0  0  0  0  0  0
  146.8584  131.5257  151.6627 H   0  0  0  0  0  0  0  0  0  0  0  0
  144.9689  131.5601  150.0690 H   0  0  0  0  0  0  0  0  0  0  0  0
  143.6570  133.6435  149.7204 H   0  0  0  0  0  0  0  0  0  0  0  0
  144.2365  135.7097  150.9760 H   0  0  0  0  0  0  0  0  0  0  0  0
  146.1141  135.7147  152.5756 H   0  0  0  0  0  0  0  0  0  0  0  0
  149.7830  137.1714  156.0855 H   0  0  0  0  0  0  0  0  0  0  0  0
  148.5232  136.7550  154.9892 H   0  0  0  0  0  0  0  0  0  0  0  0
  145.5555  136.1866  159.9470 H   0  0  0  0  0  0  0  0  0  0  0  0
  149.2478  136.1621  160.7284 H   0  0  0  0  0  0  0  0  0  0  0  0
  146.8885  134.3324  160.8932 H   0  0  0  0  0  0  0  0  0  0  0  0
  148.4817  134.0954  161.6399 H   0  0  0  0  0  0  0  0  0  0  0  0
  146.2706  134.6889  163.1804 H   0  0  0  0  0  0  0  0  0  0  0  0
  147.8598  135.3627  163.5663 H   0  0  0  0  0  0  0  0  0  0  0  0
  145.6980  136.6813  161.8586 H   0  0  0  0  0  0  0  0  0  0  0  0
  146.4930  137.3625  163.2857 H   0  0  0  0  0  0  0  0  0  0  0  0
  150.4033  130.2250  154.3528 H   0  0  0  0  0  0  0  0  0  0  0  0
  150.4409  128.6279  156.1984 H   0  0  0  0  0  0  0  0  0  0  0  0
  1  2  1  0  0  0  0
  1 37  1  0  0  0  0
  1 38  1  0  0  0  0
  1 39  1  0  0  0  0
  2  3  1  0  0  0  0
  3 36  1  0  0  0  0
  3  4  2  0  0  0  0
  4  5  1  0  0  0  0
  4 40  1  0  0  0  0
  5  6  2  0  0  0  0
  5 41  1  0  0  0  0
  6  7  1  0  0  0  0
  6 35  1  0  0  0  0
  7 17  1  0  0  0  0
  7  8  1  0  0  0  0
  7 42  1  0  0  0  0
  8  9  1  0  0  0  0
  8 43  1  0  0  0  0
  8 44  1  0  0  0  0
  9 10  1  0  0  0  0
  9 16  2  0  0  0  0
 10 15  1  0  0  0  0
 10 11  2  0  0  0  0
 11 12  1  0  0  0  0
 11 45  1  0  0  0  0
 12 13  2  0  0  0  0
 12 46  1  0  0  0  0
 13 14  1  0  0  0  0
 13 47  1  0  0  0  0
 14 15  2  0  0  0  0
 14 48  1  0  0  0  0
 15 49  1  0  0  0  0
 16 17  1  0  0  0  0
 17 18  1  0  0  0  0
 18 19  2  0  0  0  0
 18 20  1  0  0  0  0
 20 21  1  0  0  0  0
 20 50  1  0  0  0  0
 20 51  1  0  0  0  0
 21 33  1  0  0  0  0
 21 22  1  0  0  0  0
 22 23  2  0  0  0  0
 22 24  1  0  0  0  0
 24 25  1  0  0  0  0
 24 26  2  0  0  0  0
 26 27  1  0  0  0  0
 26 52  1  0  0  0  0
 27 28  1  0  0  0  0
 27 33  1  0  0  0  0
 28 32  1  0  0  0  0
 28 29  1  0  0  0  0
 28 53  1  0  0  0  0
 29 30  1  0  0  0  0
 29 54  1  0  0  0  0
 29 55  1  0  0  0  0
 30 31  1  0  0  0  0
 30 56  1  0  0  0  0
 30 57  1  0  0  0  0
 31 32  1  0  0  0  0
 31 58  1  0  0  0  0
 31 59  1  0  0  0  0
 33 34  2  0  0  0  0
 35 36  2  0  0  0  0
 35 60  1  0  0  0  0
 36 61  1  0  0  0  0
M  END
> <s_m_source_file>
AV-unprocessed.smi

> <i_m_source_file_index>
24

> <i_lp_mmshare_version>
43012

> <i_f3d_flags>
0

> <s_epik_input>
W0NIM11PYzFbY0hdW2NIXWMoW2NIXVtjSF0xKVtDQEBIXTJbQ0gyXUMoYzNbY0hdW2NIXVtjSF1bY0hdW2NIXTMpPU5OMkMoPU8pW0NIMl1uNGMoPU8pYyhGKVtjSF1uKGM0PU8pW0NAQEhdNVtDSDJdW0NIMl1bQ0gyXU81

> <s_epik_cmdline>
J2VwaWtfcHl0aG9uJywgJy1waCcsICc3LjAnLCAnLXRuJywgJzgnLCAnLW1hJywgJzIwMCcsICctbWV0YWxfYmluZGluZycsICctaW1hZScsICc8aW5maWxlLm1hZT4nLCAnLW9tYWUnLCAnPG91dGZpbGUubWFlPic=

> <r_lp_tautomer_probability>
1

> <r_epik_Ionization_Penalty>
1.46326e-08

> <r_epik_Ionization_Penalty_Charging>
4.53232e-09

> <r_epik_Ionization_Penalty_Neutral>
1.01002e-08

> <r_epik_State_Penalty>
-0

> <r_epik_Charging_Adjusted_Penalty>
4.53232e-09

> <i_epik_Tot_Q>
0

> <i_epik_Tot_abs_Q>
0

> <r_epik_Metal_State_Penalty>
-0

> <b_epik_Metal_Only>
0

> <s_epik_Chemistry_Notes>
This compound has an imine and may undergo hydrolysis. This compound contains an acetal/aminal-like group ( X-CH(R)-Y where X, Y are N, S, or O) that may be acid/base labile, releasing an aldehyde.

> <s_lp_Force_Field>
OPLS_2005

> <r_lp_Energy>
50.3667

> <b_lp_Chiralities_Consistent>
1

> <s_lp_Variant>
AV-unprocessed.smi:24-2

> <Gold.Version>
5.8.1

> <Gold.Id.Protein>
6NUR|6NUR_protein|mol2

> <Gold.PLP.Fitness>
54.5901

> <Gold.PLP.PLP>
-47.6146

> <Gold.PLP.part.hbond>
-3.0000

> <Gold.PLP.part.metal>
0.0000

> <Gold.PLP.part.buried>
-6.6028

> <Gold.PLP.part.nonpolar>
-39.3560

> <Gold.PLP.part.repulsive>
1.5985

> <Gold.PLP.ligand.clash>
0.0000

> <Gold.PLP.ligand.torsion>
0.6300

> <Gold.PLP.Chemscore.Hbond>
2.7137

> <Gold.PLP.Chemscore.CHOScore>
0.0000

> <Gold.PLP.Chemscore.Metal>
0.0000

> <Gold.Chemscore.Hbonds>
donor molecule, donor type, donor heavy atom, donor atom, acceptor molecule, acceptor atom, score
      P1  H  6896  6907       L1    34  0.86
      P1  H  6931  6943       L1    32  1.00
      P1  H  6934  6947       L1    32  0.75

> <Gold.PLP.Chemscore.Internal.Correction>
0.0943

> <Gold.Rescore>
     Score         DG    S(hbond)    S(metal)    S(lipo)     H(rot)  DE(clash)    DE(int)     intcor
     16.95     -19.06       2.04        0.00     101.08       1.98       0.17       1.94       ----

> <Gold.Chemscore.Fitness>
16.9489

> <Gold.Chemscore.DG>
-19.0644

> <Gold.Chemscore.ZeroCoef>
-5.4800

> <Gold.Chemscore.Hbond>
2.0401

> <Gold.Chemscore.Metal>
0.0000

> <Gold.Chemscore.Lipo>
101.0805

> <Gold.Chemscore.Internal_Hbond>
0.0000

> <Gold.Chemscore.DEClash>
0.1739

> <Gold.Chemscore.DEInternal>
1.9416

> <Gold.Chemscore.Rot>
1.9750

> <Gold.Chemscore.Internal.Correction>
   9.000000E+99

> <Gold.Chemscore.Hbonds>
donor molecule, donor type, donor heavy atom, donor atom, acceptor molecule, acceptor atom, score
      P1  H  6896  6907       L1    34  0.83
      P1  H  6931  6943       L1    32  0.67
      P1  H  6934  6947       L1    32  0.43

> <Gold.Chemscore.Hbond.Weighted>
-6.8140

> <Gold.Chemscore.Metal.Weighted>
-0.0000

> <Gold.Chemscore.Lipo.Weighted>
-11.8264

> <Gold.Chemscore.Internal_Hbond.Weighted>
0.0000

> <Gold.Chemscore.DEClash.Weighted>
0.1739

> <Gold.Chemscore.DEInternal.Weighted>
1.9416

> <Gold.Chemscore.Rot.Weighted>
5.0561

> <Gold.Chemscore.Internal.Correction.Weighted>
   9.000000E+99

> <Gold.Protein.RotatedTorsions>
[ 6907 6896 6895 6894 ] final  -58.82 input  -60.11 | X-H torsion
[ 7974 7965 7964 7962 ] final   66.53 input  175.53 | X-H torsion
[ 8008 7997 7996 7995 ] final  -84.47 input   59.86 | X-H torsion
[ 10167 10162 10161 10158 ] final  164.04 input  -65.29 | X-H torsion
[ 10718 10713 10712 10709 ] final   50.83 input   66.30 | X-H torsion
[ 10763 10752 10751 10750 ] final   82.57 input  -60.55 | X-H torsion
[ 11005 11000 10999 10996 ] final -145.49 input  -57.11 | X-H torsion

> <Gold.Protein.ActiveResidues>
 VAL166  LYS551  ARG553  GLY616  TRP617  ASP618  TYR619  PRO620  LYS621  CYS622 
 ASP623  PHE694  ASN695  SER759  ASP760  ASP761  ALA762  ILE779  LEU786  VAL792 
 PHE793  MET794  SER795  GLU796  ALA797  LYS798  CYS799  TRP800  GLU811  SER814 

> <Gold.Protein.RotatedAtoms>
  150.7978  134.7049  159.6570 H   0  0  0  0  0  0  0  0  0  0  0  0  # atno 6907 bound_to 6896
  152.4092  134.6151  160.0046 H   0  0  0  0  0  0  0  0  0  0  0  0  # atno 6908 bound_to 6896
  151.6399  133.3289  159.3164 H   0  0  0  0  0  0  0  0  0  0  0  0  # atno 6909 bound_to 6896
  145.8255  139.3109  143.1018 H   0  0  0  0  0  0  0  0  0  0  0  0  # atno 7974 bound_to 7965
  154.6301  140.0604  156.9722 H   0  0  0  0  0  0  0  0  0  0  0  0  # atno 8008 bound_to 7997
  155.1679  140.3288  155.4380 H   0  0  0  0  0  0  0  0  0  0  0  0  # atno 8009 bound_to 7997
  156.2478  140.1919  156.6782 H   0  0  0  0  0  0  0  0  0  0  0  0  # atno 8010 bound_to 7997
  139.4883  144.4276  151.9110 H   0  0  0  0  0  0  0  0  0  0  0  0  # atno 10167 bound_to 10162
  157.4922  130.8383  149.8217 H   0  0  0  0  0  0  0  0  0  0  0  0  # atno 10718 bound_to 10713
  153.1215  135.4723  154.9202 H   0  0  0  0  0  0  0  0  0  0  0  0  # atno 10763 bound_to 10752
  154.7579  135.3123  154.8436 H   0  0  0  0  0  0  0  0  0  0  0  0  # atno 10764 bound_to 10752
  153.9000  135.6876  153.4809 H   0  0  0  0  0  0  0  0  0  0  0  0  # atno 10765 bound_to 10752
  140.7917  134.2961  157.5011 H   0  0  0  0  0  0  0  0  0  0  0  0  # atno 11005 bound_to 11000
  145.9628  140.8822  143.0202 LP  0  0  0  0  0  0  0  0  0  0  0  0  # atno 17320 bound_to 7965
  144.6744  140.1836  143.7403 LP  0  0  0  0  0  0  0  0  0  0  0  0  # atno 17321 bound_to 7965
  140.3722  144.2841  150.5918 LP  0  0  0  0  0  0  0  0  0  0  0  0  # atno 17342 bound_to 10162
  140.5308  143.2244  151.8241 LP  0  0  0  0  0  0  0  0  0  0  0  0  # atno 17343 bound_to 10162
  156.0180  130.3806  150.2050 LP  0  0  0  0  0  0  0  0  0  0  0  0  # atno 17370 bound_to 10713
  157.0238  130.9987  151.3332 LP  0  0  0  0  0  0  0  0  0  0  0  0  # atno 17371 bound_to 10713
  139.8730  134.9378  156.3698 LP  0  0  0  0  0  0  0  0  0  0  0  0  # atno 17394 bound_to 11000
  140.9383  133.7532  156.0113 LP  0  0  0  0  0  0  0  0  0  0  0  0  # atno 17395 bound_to 11000

$$$$
