AV-unprocessed.smi:574|AV-procd|sdf|2976|dock7
  -GOLD-   2262023483D 1   1.00000     0.00000
 Structure written by MMmdl.
 39 40  0  0  0  0  0  0  0  0  2 V2000
  144.6549  138.4133  155.2417 C   0  0  0  0  0  0  0  0  0  0  0  0
  145.0636  139.7863  155.7644 C   0  0  0  0  0  0  0  0  0  0  0  0
  145.3892  139.9294  156.9426 O   0  0  0  0  0  0  0  0  0  0  0  0
  145.0489  140.7865  154.8728 N   0  0  0  0  0  0  0  0  0  0  0  0
  145.4583  142.1608  155.1461 C   0  0  0  0  0  0  0  0  0  0  0  0
  146.7399  142.5259  154.3744 C   0  0  0  0  0  0  0  0  0  0  0  0
  147.9026  141.9607  155.0551 N   0  5  0  0  0  0  0  0  0  0  0  0
  148.9417  141.3399  154.4264 C   0  0  0  0  0  0  0  0  0  0  0  0
  149.0459  140.9989  153.2431 O   0  0  0  0  0  0  0  0  0  0  0  0
  150.0820  141.0395  155.3723 C   0  0  0  0  0  0  0  0  0  0  0  0
  150.3464  141.9524  156.3413 N   0  0  0  0  0  0  0  0  0  0  0  0
  151.3330  141.7151  157.2100 C   0  0  0  0  0  0  0  0  0  0  0  0
  151.5761  142.6874  158.1889 N   0  0  0  0  0  0  0  0  0  0  0  0
  152.2684  142.3752  159.4409 C   0  0  0  0  0  0  0  0  0  0  0  0
  153.0759  143.5877  159.9339 C   0  0  0  0  0  0  0  0  0  0  0  0
  152.2221  144.7190  160.0538 O   0  0  0  0  0  0  0  0  0  0  0  0
  151.6570  145.0825  158.8000 C   0  0  0  0  0  0  0  0  0  0  0  0
  150.7978  143.9274  158.2599 C   0  0  0  0  0  0  0  0  0  0  0  0
  152.1006  140.6193  157.2111 N   0  0  0  0  0  0  0  0  0  0  0  0
  151.8636  139.6920  156.2600 C   0  0  0  0  0  0  0  0  0  0  0  0
  150.8505  139.8475  155.2939 C   0  0  0  0  0  0  0  0  0  0  0  0
  150.6308  138.6279  154.0855 Cl  0  0  0  0  0  0  0  0  0  0  0  0
  145.4228  138.0187  154.5758 H   0  0  0  0  0  0  0  0  0  0  0  0
  143.7170  138.4767  154.6888 H   0  0  0  0  0  0  0  0  0  0  0  0
  144.5196  137.7096  156.0637 H   0  0  0  0  0  0  0  0  0  0  0  0
  144.7840  140.5813  153.9198 H   0  0  0  0  0  0  0  0  0  0  0  0
  144.6539  142.8408  154.8621 H   0  0  0  0  0  0  0  0  0  0  0  0
  145.6157  142.2846  156.2189 H   0  0  0  0  0  0  0  0  0  0  0  0
  146.6434  142.1662  153.3488 H   0  0  0  0  0  0  0  0  0  0  0  0
  146.8115  143.6113  154.3013 H   0  0  0  0  0  0  0  0  0  0  0  0
  151.5249  142.0929  160.1870 H   0  0  0  0  0  0  0  0  0  0  0  0
  152.9474  141.5293  159.3371 H   0  0  0  0  0  0  0  0  0  0  0  0
  153.5170  143.3728  160.9072 H   0  0  0  0  0  0  0  0  0  0  0  0
  153.8998  143.8090  159.2534 H   0  0  0  0  0  0  0  0  0  0  0  0
  151.0434  145.9737  158.9323 H   0  0  0  0  0  0  0  0  0  0  0  0
  152.4465  145.3426  158.0930 H   0  0  0  0  0  0  0  0  0  0  0  0
  150.4059  144.2240  157.2870 H   0  0  0  0  0  0  0  0  0  0  0  0
  149.9377  143.7630  158.9099 H   0  0  0  0  0  0  0  0  0  0  0  0
  152.4958  138.8164  156.2673 H   0  0  0  0  0  0  0  0  0  0  0  0
  1  2  1  0  0  0  0
  1 23  1  0  0  0  0
  1 24  1  0  0  0  0
  1 25  1  0  0  0  0
  2  3  2  0  0  0  0
  2  4  1  0  0  0  0
  4  5  1  0  0  0  0
  4 26  1  0  0  0  0
  5  6  1  0  0  0  0
  5 27  1  0  0  0  0
  5 28  1  0  0  0  0
  6  7  1  0  0  0  0
  6 29  1  0  0  0  0
  6 30  1  0  0  0  0
  7  8  1  0  0  0  0
  8  9  2  0  0  0  0
  8 10  1  0  0  0  0
 10 21  1  0  0  0  0
 10 11  2  0  0  0  0
 11 12  1  0  0  0  0
 12 13  1  0  0  0  0
 12 19  2  0  0  0  0
 13 18  1  0  0  0  0
 13 14  1  0  0  0  0
 14 15  1  0  0  0  0
 14 31  1  0  0  0  0
 14 32  1  0  0  0  0
 15 16  1  0  0  0  0
 15 33  1  0  0  0  0
 15 34  1  0  0  0  0
 16 17  1  0  0  0  0
 17 18  1  0  0  0  0
 17 35  1  0  0  0  0
 17 36  1  0  0  0  0
 18 37  1  0  0  0  0
 18 38  1  0  0  0  0
 19 20  1  0  0  0  0
 20 21  2  0  0  0  0
 20 39  1  0  0  0  0
 21 22  1  0  0  0  0
M  CHG  1   7  -1
M  END
> <s_m_source_file>
AV-unprocessed.smi

> <i_m_source_file_index>
574

> <i_lp_mmshare_version>
43012

> <i_f3d_flags>
0

> <s_epik_input>
W0NIM11DKD1PKVtOSF1bQ0gyXVtDSDJdW05IXUMoPU8pYzFuYyhuW2NIXWMxQ2wpTjJbQ0gyXVtDSDJdT1tDSDJdW0NIMl0y

> <s_epik_cmdline>
J2VwaWtfcHl0aG9uJywgJy1waCcsICc3LjAnLCAnLXRuJywgJzgnLCAnLW1hJywgJzIwMCcsICctbWV0YWxfYmluZGluZycsICctaW1hZScsICc8aW5maWxlLm1hZT4nLCAnLW9tYWUnLCAnPG91dGZpbGUubWFlPic=

> <r_lp_tautomer_probability>
1

> <r_epik_Ionization_Penalty>
5.61005

> <r_epik_Ionization_Penalty_Charging>
5.61003

> <r_epik_Ionization_Penalty_Neutral>
1.98059e-05

> <r_epik_State_Penalty>
5.60999

> <r_epik_Charging_Adjusted_Penalty>
11.22

> <i_epik_Tot_Q>
-1

> <i_epik_Tot_abs_Q>
1

> <r_epik_Metal_State_Penalty>
1.60231

> <b_epik_Metal_Only>
1

> <s_lp_Force_Field>
OPLS_2005

> <r_lp_Energy>
13.7471

> <b_lp_Chiralities_Consistent>
1

> <s_lp_Variant>
AV-unprocessed.smi:574-2

> <Gold.Version>
5.8.1

> <Gold.Id.Protein>
6NUR|6NUR_protein|mol2

> <Gold.PLP.Fitness>
42.2582

> <Gold.PLP.PLP>
-37.7820

> <Gold.PLP.part.hbond>
-3.0435

> <Gold.PLP.part.metal>
0.0000

> <Gold.PLP.part.buried>
-5.2649

> <Gold.PLP.part.nonpolar>
-34.2835

> <Gold.PLP.part.repulsive>
6.7093

> <Gold.PLP.ligand.clash>
0.0000

> <Gold.PLP.ligand.torsion>
0.8741

> <Gold.PLP.Chemscore.Hbond>
2.0000

> <Gold.PLP.Chemscore.CHOScore>
0.0000

> <Gold.PLP.Chemscore.Metal>
0.0000

> <Gold.Chemscore.Hbonds>
donor molecule, donor type, donor heavy atom, donor atom, acceptor molecule, acceptor atom, score
      L1  H     4    26       P1 10175  1.00
      P1  H  8011  8017       L1     9  1.00

> <Gold.PLP.Chemscore.Internal.Correction>
0.2244

> <Gold.Rescore>
     Score         DG    S(hbond)    S(metal)    S(lipo)     H(rot)  DE(clash)    DE(int)     intcor
     14.50     -17.35       1.96        0.00      82.07       1.67       1.57       1.27       ----

> <Gold.Chemscore.Fitness>
14.5042

> <Gold.Chemscore.DG>
-17.3501

> <Gold.Chemscore.ZeroCoef>
-5.4800

> <Gold.Chemscore.Hbond>
1.9600

> <Gold.Chemscore.Metal>
0.0000

> <Gold.Chemscore.Lipo>
82.0661

> <Gold.Chemscore.Internal_Hbond>
0.0000

> <Gold.Chemscore.DEClash>
1.5719

> <Gold.Chemscore.DEInternal>
1.2740

> <Gold.Chemscore.Rot>
1.6710

> <Gold.Chemscore.Internal.Correction>
   9.000000E+99

> <Gold.Chemscore.Hbonds>
donor molecule, donor type, donor heavy atom, donor atom, acceptor molecule, acceptor atom, score
      L1  H     4    26       P1 10175  0.98
      P1  H  8011  8017       L1     9  0.65

> <Gold.Chemscore.Hbond.Weighted>
-6.5462

> <Gold.Chemscore.Metal.Weighted>
-0.0000

> <Gold.Chemscore.Lipo.Weighted>
-9.6017

> <Gold.Chemscore.Internal_Hbond.Weighted>
0.0000

> <Gold.Chemscore.DEClash.Weighted>
1.5719

> <Gold.Chemscore.DEInternal.Weighted>
1.2740

> <Gold.Chemscore.Rot.Weighted>
4.2779

> <Gold.Chemscore.Internal.Correction.Weighted>
   9.000000E+99

> <Gold.Protein.RotatedTorsions>
[ 6907 6896 6895 6894 ] final   16.47 input  -60.11 | X-H torsion
[ 7974 7965 7964 7962 ] final   -1.16 input  175.53 | X-H torsion
[ 8008 7997 7996 7995 ] final -121.46 input   59.86 | X-H torsion
[ 10167 10162 10161 10158 ] final  -50.34 input  -65.29 | X-H torsion
[ 10718 10713 10712 10709 ] final    6.38 input   66.30 | X-H torsion
[ 10763 10752 10751 10750 ] final  -10.01 input  -60.55 | X-H torsion
[ 11005 11000 10999 10996 ] final   44.23 input  -57.11 | X-H torsion

> <Gold.Protein.ActiveResidues>
 VAL166  LYS551  ARG553  GLY616  TRP617  ASP618  TYR619  PRO620  LYS621  CYS622 
 ASP623  PHE694  ASN695  SER759  ASP760  ASP761  ALA762  ILE779  LEU786  VAL792 
 PHE793  MET794  SER795  GLU796  ALA797  LYS798  CYS799  TRP800  GLU811  SER814 

> <Gold.Protein.RotatedAtoms>
  151.8344  135.0611  160.0440 H   0  0  0  0  0  0  0  0  0  0  0  0  # atno 6907 bound_to 6896
  152.2856  133.5507  159.5533 H   0  0  0  0  0  0  0  0  0  0  0  0  # atno 6908 bound_to 6896
  150.7208  134.0418  159.3810 H   0  0  0  0  0  0  0  0  0  0  0  0  # atno 6909 bound_to 6896
  146.2420  140.1378  142.8336 H   0  0  0  0  0  0  0  0  0  0  0  0  # atno 7974 bound_to 7965
  155.1483  140.0403  157.2815 H   0  0  0  0  0  0  0  0  0  0  0  0  # atno 8008 bound_to 7997
  154.6423  140.2550  155.7282 H   0  0  0  0  0  0  0  0  0  0  0  0  # atno 8009 bound_to 7997
  156.2538  140.2853  156.0821 H   0  0  0  0  0  0  0  0  0  0  0  0  # atno 8010 bound_to 7997
  140.6642  143.2662  151.4345 H   0  0  0  0  0  0  0  0  0  0  0  0  # atno 10167 bound_to 10162
  156.9213  130.5792  149.5648 H   0  0  0  0  0  0  0  0  0  0  0  0  # atno 10718 bound_to 10713
  153.4630  135.7016  153.6039 H   0  0  0  0  0  0  0  0  0  0  0  0  # atno 10763 bound_to 10752
  153.4326  135.3799  155.2179 H   0  0  0  0  0  0  0  0  0  0  0  0  # atno 10764 bound_to 10752
  154.8727  135.3954  154.4057 H   0  0  0  0  0  0  0  0  0  0  0  0  # atno 10765 bound_to 10752
  140.1571  134.4388  155.8342 H   0  0  0  0  0  0  0  0  0  0  0  0  # atno 11005 bound_to 11000
  145.0272  140.8841  143.5131 LP  0  0  0  0  0  0  0  0  0  0  0  0  # atno 17320 bound_to 7965
  145.1436  139.2557  143.5477 LP  0  0  0  0  0  0  0  0  0  0  0  0  # atno 17321 bound_to 7965
  139.5886  144.1550  152.2060 LP  0  0  0  0  0  0  0  0  0  0  0  0  # atno 17342 bound_to 10162
  140.0897  144.5631  150.7063 LP  0  0  0  0  0  0  0  0  0  0  0  0  # atno 17343 bound_to 10162
  156.0490  130.5562  150.8946 LP  0  0  0  0  0  0  0  0  0  0  0  0  # atno 17370 bound_to 10713
  157.5906  131.0944  150.9125 LP  0  0  0  0  0  0  0  0  0  0  0  0  # atno 17371 bound_to 10713
  141.2205  133.6897  156.7526 LP  0  0  0  0  0  0  0  0  0  0  0  0  # atno 17394 bound_to 11000
  140.2535  134.8522  157.3690 LP  0  0  0  0  0  0  0  0  0  0  0  0  # atno 17395 bound_to 11000

$$$$
