AV-unprocessed.smi:284|AV-procd|sdf|2160|dock1
  -GOLD-   2262021513D 1   1.00000     0.00000
 Structure written by MMmdl.
 60 62  0  0  0  0  0  0  0  0  1 V2000
  157.8802  136.5948  163.3876 C   0  0  0  0  0  0  0  0  0  0  0  0
  157.9094  138.0924  163.6491 C   0  0  0  0  0  0  0  0  0  0  0  0
  158.9550  138.8665  163.2779 C   0  0  0  0  0  0  0  0  0  0  0  0
  159.0136  140.2298  163.5001 N   0  0  0  0  0  0  0  0  0  0  0  0
  160.2110  141.0471  163.0664 C   0  0  1  0  0  0  0  0  0  0  0  0
  161.3241  140.1318  162.5511 C   0  0  0  0  0  0  0  0  0  0  0  0
  161.1540  140.2446  161.0496 C   0  0  2  0  0  0  0  0  0  0  0  0
  162.3746  139.9974  160.3827 O   0  0  0  0  0  0  0  0  0  0  0  0
  160.6830  141.6923  160.8900 C   0  0  1  0  0  0  0  0  0  0  0  0
  159.9041  141.9477  159.5899 C   0  0  0  0  0  0  0  0  0  0  0  0
  160.0068  143.3065  159.2216 O   0  0  0  0  0  0  0  0  0  0  0  0
  159.8354  141.8943  162.0197 O   0  0  0  0  0  0  0  0  0  0  0  0
  157.9556  140.8722  164.1747 C   0  0  0  0  0  0  0  0  0  0  0  0
  157.9975  142.0819  164.4111 O   0  0  0  0  0  0  0  0  0  0  0  0
  156.8477  140.0922  164.5763 N   0  0  0  0  0  0  0  0  0  0  0  0
  155.7216  140.7706  165.2561 C   0  0  0  0  0  0  0  0  0  0  0  0
  154.9794  141.7658  164.3504 C   0  0  0  0  0  0  0  0  0  0  0  0
  154.8306  142.9354  164.7061 O   0  0  0  0  0  0  0  0  0  0  0  0
  154.5672  141.2681  163.1700 N   0  0  0  0  0  0  0  0  0  0  0  0
  153.8322  141.9093  162.1355 C   0  0  0  0  0  0  0  0  0  0  0  0
  152.9823  142.9676  162.5109 C   0  0  0  0  0  0  0  0  0  0  0  0
  152.2364  143.6697  161.5448 C   0  0  0  0  0  0  0  0  0  0  0  0
  152.3285  143.3337  160.1718 C   0  0  0  0  0  0  0  0  0  0  0  0
  151.5307  144.0775  159.0837 C   0  0  0  0  0  0  0  0  0  0  0  0
  150.7135  145.2176  159.7270 C   0  0  0  0  0  0  0  0  0  0  0  0
  150.5404  143.1615  158.3292 C   0  0  0  0  0  0  0  0  0  0  0  0
  152.5036  144.6716  158.0442 C   0  0  0  0  0  0  0  0  0  0  0  0
  153.1933  142.2768  159.8022 C   0  0  0  0  0  0  0  0  0  0  0  0
  153.9421  141.5754  160.7660 C   0  0  0  0  0  0  0  0  0  0  0  0
  156.7630  138.6996  164.3296 C   0  0  0  0  0  0  0  0  0  0  0  0
  155.7686  138.0590  164.6757 O   0  0  0  0  0  0  0  0  0  0  0  0
  158.7835  136.2533  162.8809 H   0  0  0  0  0  0  0  0  0  0  0  0
  157.0274  136.3336  162.7600 H   0  0  0  0  0  0  0  0  0  0  0  0
  157.7969  136.0455  164.3259 H   0  0  0  0  0  0  0  0  0  0  0  0
  159.7862  138.3851  162.7856 H   0  0  0  0  0  0  0  0  0  0  0  0
  160.5070  141.6545  163.9227 H   0  0  0  0  0  0  0  0  0  0  0  0
  162.2803  140.5490  162.8710 H   0  0  0  0  0  0  0  0  0  0  0  0
  161.2382  139.1139  162.9337 H   0  0  0  0  0  0  0  0  0  0  0  0
  160.3908  139.5462  160.7035 H   0  0  0  0  0  0  0  0  0  0  0  0
  163.0849  140.1534  160.9862 H   0  0  0  0  0  0  0  0  0  0  0  0
  161.5410  142.3626  160.9738 H   0  0  0  0  0  0  0  0  0  0  0  0
  160.3291  141.3583  158.7768 H   0  0  0  0  0  0  0  0  0  0  0  0
  158.8577  141.6577  159.6869 H   0  0  0  0  0  0  0  0  0  0  0  0
  159.7723  143.3898  158.3099 H   0  0  0  0  0  0  0  0  0  0  0  0
  154.9930  140.0564  165.6421 H   0  0  0  0  0  0  0  0  0  0  0  0
  156.0756  141.2901  166.1485 H   0  0  0  0  0  0  0  0  0  0  0  0
  154.8479  140.3186  162.9729 H   0  0  0  0  0  0  0  0  0  0  0  0
  152.8946  143.2469  163.5508 H   0  0  0  0  0  0  0  0  0  0  0  0
  151.5988  144.4678  161.8912 H   0  0  0  0  0  0  0  0  0  0  0  0
  150.1199  145.7494  158.9824 H   0  0  0  0  0  0  0  0  0  0  0  0
  151.3500  145.9571  160.2129 H   0  0  0  0  0  0  0  0  0  0  0  0
  150.0245  144.8330  160.4799 H   0  0  0  0  0  0  0  0  0  0  0  0
  149.7990  142.7278  159.0016 H   0  0  0  0  0  0  0  0  0  0  0  0
  151.0537  142.3460  157.8181 H   0  0  0  0  0  0  0  0  0  0  0  0
  149.9915  143.7169  157.5679 H   0  0  0  0  0  0  0  0  0  0  0  0
  151.9665  145.1880  157.2477 H   0  0  0  0  0  0  0  0  0  0  0  0
  153.1073  143.8914  157.5789 H   0  0  0  0  0  0  0  0  0  0  0  0
  153.1881  145.3947  158.4878 H   0  0  0  0  0  0  0  0  0  0  0  0
  153.2967  141.9943  158.7653 H   0  0  0  0  0  0  0  0  0  0  0  0
  154.6036  140.7949  160.4244 H   0  0  0  0  0  0  0  0  0  0  0  0
  1  2  1  0  0  0  0
  1 32  1  0  0  0  0
  1 33  1  0  0  0  0
  1 34  1  0  0  0  0
  2 30  1  0  0  0  0
  2  3  2  0  0  0  0
  3  4  1  0  0  0  0
  3 35  1  0  0  0  0
  4  5  1  0  0  0  0
  4 13  1  0  0  0  0
  5 12  1  0  0  0  0
  5  6  1  0  0  0  0
  5 36  1  0  0  0  0
  6  7  1  0  0  0  0
  6 37  1  0  0  0  0
  6 38  1  0  0  0  0
  7  8  1  0  0  0  0
  7  9  1  0  0  0  0
  7 39  1  0  0  0  0
  8 40  1  0  0  0  0
  9 10  1  0  0  0  0
  9 12  1  0  0  0  0
  9 41  1  0  0  0  0
 10 11  1  0  0  0  0
 10 42  1  0  0  0  0
 10 43  1  0  0  0  0
 11 44  1  0  0  0  0
 13 14  2  0  0  0  0
 13 15  1  0  0  0  0
 15 16  1  0  0  0  0
 15 30  1  0  0  0  0
 16 17  1  0  0  0  0
 16 45  1  0  0  0  0
 16 46  1  0  0  0  0
 17 18  2  0  0  0  0
 17 19  1  0  0  0  0
 19 20  1  0  0  0  0
 19 47  1  0  0  0  0
 20 29  1  0  0  0  0
 20 21  2  0  0  0  0
 21 22  1  0  0  0  0
 21 48  1  0  0  0  0
 22 23  2  0  0  0  0
 22 49  1  0  0  0  0
 23 24  1  0  0  0  0
 23 28  1  0  0  0  0
 24 25  1  0  0  0  0
 24 26  1  0  0  0  0
 24 27  1  0  0  0  0
 25 50  1  0  0  0  0
 25 51  1  0  0  0  0
 25 52  1  0  0  0  0
 26 53  1  0  0  0  0
 26 54  1  0  0  0  0
 26 55  1  0  0  0  0
 27 56  1  0  0  0  0
 27 57  1  0  0  0  0
 27 58  1  0  0  0  0
 28 29  2  0  0  0  0
 28 59  1  0  0  0  0
 29 60  1  0  0  0  0
 30 31  2  0  0  0  0
M  END
> <s_m_source_file>
AV-unprocessed.smi

> <i_m_source_file_index>
284

> <i_lp_mmshare_version>
43012

> <i_f3d_flags>
0

> <s_epik_input>
W09IXVtDSDJdW0NAQEhdKE8xKVtDQEhdKFtPSF0pW0NIMl1bQ0BIXTFuKFtjSF1jMltDSDNdKWMoPU8pbihjMj1PKVtDSDJdQyg9TylbTkhdYzNbY0hdW2NIXWMoQyhbQ0gzXSkoW0NIM10pW0NIM10pW2NIXVtjSF0z

> <s_epik_cmdline>
J2VwaWtfcHl0aG9uJywgJy1waCcsICc3LjAnLCAnLXRuJywgJzgnLCAnLW1hJywgJzIwMCcsICctbWV0YWxfYmluZGluZycsICctaW1hZScsICc8aW5maWxlLm1hZT4nLCAnLW9tYWUnLCAnPG91dGZpbGUubWFlPic=

> <r_lp_tautomer_probability>
1

> <r_epik_Ionization_Penalty>
4.92358e-06

> <r_epik_Ionization_Penalty_Charging>
1.29777e-07

> <r_epik_Ionization_Penalty_Neutral>
4.79381e-06

> <r_epik_State_Penalty>
-0

> <r_epik_Charging_Adjusted_Penalty>
1.29777e-07

> <i_epik_Tot_Q>
0

> <i_epik_Tot_abs_Q>
0

> <r_epik_Metal_State_Penalty>
-0

> <b_epik_Metal_Only>
0

> <s_epik_Chemistry_Notes>
This compound contains an acetal/aminal-like group ( X-CH(R)-Y where X, Y are N, S, or O) that may be acid/base labile, releasing an aldehyde.

> <s_lp_Force_Field>
OPLS_2005

> <r_lp_Energy>
39.3511

> <b_lp_Chiralities_Consistent>
1

> <s_lp_Variant>
AV-unprocessed.smi:284-4

> <Gold.Version>
5.8.1

> <Gold.Id.Protein>
6NUR|6NUR_protein|mol2

> <Gold.PLP.Fitness>
52.5491

> <Gold.PLP.PLP>
-53.9353

> <Gold.PLP.part.hbond>
-5.9950

> <Gold.PLP.part.metal>
0.0000

> <Gold.PLP.part.buried>
-4.6028

> <Gold.PLP.part.nonpolar>
-42.6974

> <Gold.PLP.part.repulsive>
0.0693

> <Gold.PLP.ligand.clash>
0.0000

> <Gold.PLP.ligand.torsion>
0.7385

> <Gold.PLP.Chemscore.Hbond>
0.0000

> <Gold.PLP.Chemscore.CHOScore>
0.0000

> <Gold.PLP.Chemscore.Metal>
0.0000

> <Gold.PLP.Chemscore.Internal.Correction>
0.0908

> <Gold.Rescore>
     Score         DG    S(hbond)    S(metal)    S(lipo)     H(rot)  DE(clash)    DE(int)     intcor
      6.56     -12.18       0.00        0.00     128.90       3.27       2.14       3.48       ----

> <Gold.Chemscore.Fitness>
6.5636

> <Gold.Chemscore.DG>
-12.1815

> <Gold.Chemscore.ZeroCoef>
-5.4800

> <Gold.Chemscore.Hbond>
0.0000

> <Gold.Chemscore.Metal>
0.0000

> <Gold.Chemscore.Lipo>
128.9021

> <Gold.Chemscore.Internal_Hbond>
0.0000

> <Gold.Chemscore.DEClash>
2.1395

> <Gold.Chemscore.DEInternal>
3.4783

> <Gold.Chemscore.Rot>
3.2735

> <Gold.Chemscore.Internal.Correction>
   9.000000E+99

> <Gold.Chemscore.Hbond.Weighted>
-0.0000

> <Gold.Chemscore.Metal.Weighted>
-0.0000

> <Gold.Chemscore.Lipo.Weighted>
-15.0815

> <Gold.Chemscore.Internal_Hbond.Weighted>
0.0000

> <Gold.Chemscore.DEClash.Weighted>
2.1395

> <Gold.Chemscore.DEInternal.Weighted>
3.4783

> <Gold.Chemscore.Rot.Weighted>
8.3801

> <Gold.Chemscore.Internal.Correction.Weighted>
   9.000000E+99

> <Gold.Protein.RotatedTorsions>
[ 6907 6896 6895 6894 ] final  142.96 input  -60.11 | X-H torsion
[ 7974 7965 7964 7962 ] final  172.89 input  175.53 | X-H torsion
[ 8008 7997 7996 7995 ] final   82.92 input   59.86 | X-H torsion
[ 10167 10162 10161 10158 ] final  149.87 input  -65.29 | X-H torsion
[ 10718 10713 10712 10709 ] final   92.87 input   66.30 | X-H torsion
[ 10763 10752 10751 10750 ] final -140.95 input  -60.55 | X-H torsion
[ 11005 11000 10999 10996 ] final   32.02 input  -57.11 | X-H torsion

> <Gold.Protein.ActiveResidues>
 VAL166  LYS551  ARG553  GLY616  TRP617  ASP618  TYR619  PRO620  LYS621  CYS622 
 ASP623  PHE694  ASN695  SER759  ASP760  ASP761  ALA762  ILE779  LEU786  VAL792 
 PHE793  MET794  SER795  GLU796  ALA797  LYS798  CYS799  TRP800  GLU811  SER814 

> <Gold.Protein.RotatedAtoms>
  152.2122  133.4919  159.5115 H   0  0  0  0  0  0  0  0  0  0  0  0  # atno 6907 bound_to 6896
  150.6993  134.1452  159.4129 H   0  0  0  0  0  0  0  0  0  0  0  0  # atno 6908 bound_to 6896
  151.9372  135.0230  160.0584 H   0  0  0  0  0  0  0  0  0  0  0  0  # atno 6909 bound_to 6896
  144.7257  139.9566  143.6433 H   0  0  0  0  0  0  0  0  0  0  0  0  # atno 7974 bound_to 7965
  155.9170  140.3424  155.6143 H   0  0  0  0  0  0  0  0  0  0  0  0  # atno 8008 bound_to 7997
  155.7319  140.0796  157.2303 H   0  0  0  0  0  0  0  0  0  0  0  0  # atno 8009 bound_to 7997
  154.4064  140.1586  156.2506 H   0  0  0  0  0  0  0  0  0  0  0  0  # atno 8010 bound_to 7997
  139.4856  144.5568  151.7304 H   0  0  0  0  0  0  0  0  0  0  0  0  # atno 10167 bound_to 10162
  157.6957  131.0458  150.3947 H   0  0  0  0  0  0  0  0  0  0  0  0  # atno 10718 bound_to 10713
  154.8562  135.3538  154.5789 H   0  0  0  0  0  0  0  0  0  0  0  0  # atno 10763 bound_to 10752
  153.6400  135.6998  153.5249 H   0  0  0  0  0  0  0  0  0  0  0  0  # atno 10764 bound_to 10752
  153.2979  135.4215  155.1184 H   0  0  0  0  0  0  0  0  0  0  0  0  # atno 10765 bound_to 10752
  140.2778  134.3007  155.7809 H   0  0  0  0  0  0  0  0  0  0  0  0  # atno 11005 bound_to 11000
  146.0670  139.3660  143.0546 LP  0  0  0  0  0  0  0  0  0  0  0  0  # atno 17320 bound_to 7965
  145.8019  140.9767  143.0994 LP  0  0  0  0  0  0  0  0  0  0  0  0  # atno 17321 bound_to 7965
  140.5130  144.0995  150.6000 LP  0  0  0  0  0  0  0  0  0  0  0  0  # atno 17342 bound_to 10162
  140.3927  143.2744  152.0041 LP  0  0  0  0  0  0  0  0  0  0  0  0  # atno 17343 bound_to 10162
  156.4346  130.3979  149.6737 LP  0  0  0  0  0  0  0  0  0  0  0  0  # atno 17370 bound_to 10713
  156.3942  130.7642  151.2646 LP  0  0  0  0  0  0  0  0  0  0  0  0  # atno 17371 bound_to 10713
  141.2167  133.7507  156.9435 LP  0  0  0  0  0  0  0  0  0  0  0  0  # atno 17394 bound_to 11000
  140.1311  134.9355  157.2339 LP  0  0  0  0  0  0  0  0  0  0  0  0  # atno 17395 bound_to 11000

$$$$
