AV-unprocessed.smi:2934|AV-procd|sdf|11254|dock7
  -GOLD-   2272016143D 1   1.00000     0.00000
 Structure written by MMmdl.
 43 44  0  0  0  0  0  0  0  0  1 V2000
  153.2071  142.4877  162.5630 C   0  0  0  0  0  0  0  0  0  0  0  0
  153.0614  142.1812  161.1357 N   0  0  0  0  0  0  0  0  0  0  0  0
  153.3563  140.9212  160.7151 C   0  0  0  0  0  0  0  0  0  0  0  0
  152.9923  140.4754  159.6248 O   0  0  0  0  0  0  0  0  0  0  0  0
  154.1119  140.1964  161.5612 N   0  0  0  0  0  0  0  0  0  0  0  0
  154.5904  138.8403  161.3200 C   0  0  0  0  0  0  0  0  0  0  0  0
  153.7543  137.8011  162.0924 C   0  0  0  0  0  0  0  0  0  0  0  0
  153.9880  136.3654  161.6131 C   0  0  0  0  0  0  0  0  0  0  0  0
  153.7734  136.0504  160.4422 O   0  0  0  0  0  0  0  0  0  0  0  0
  154.4293  135.4995  162.5385 N   0  0  0  0  0  0  0  0  0  0  0  0
  154.6987  134.0827  162.3065 C   0  0  0  0  0  0  0  0  0  0  0  0
  153.8557  133.1895  163.2386 C   0  0  0  0  0  0  0  0  0  0  0  0
  154.8277  132.6368  164.2806 C   0  0  0  0  0  0  0  0  0  0  0  0
  156.1505  132.5242  163.5298 C   0  0  0  0  0  0  0  0  0  0  0  0
  156.1721  133.7482  162.6117 C   0  0  0  0  0  0  0  0  0  0  0  0
  152.6480  143.2439  160.2727 C   0  0  0  0  0  0  0  0  0  0  0  0
  152.1798  144.4316  160.8853 C   0  0  0  0  0  0  0  0  0  0  0  0
  151.7780  145.5143  160.0797 C   0  0  0  0  0  0  0  0  0  0  0  0
  151.8587  145.3857  158.6819 C   0  0  0  0  0  0  0  0  0  0  0  0
  152.3419  144.1745  158.1534 C   0  0  0  0  0  0  0  0  0  0  0  0
  152.7280  143.1346  158.9224 N   0  0  0  0  0  0  0  0  0  0  0  0
  153.0631  143.5484  162.7724 H   0  0  0  0  0  0  0  0  0  0  0  0
  154.2049  142.2290  162.9212 H   0  0  0  0  0  0  0  0  0  0  0  0
  152.4764  141.9302  163.1506 H   0  0  0  0  0  0  0  0  0  0  0  0
  154.3724  140.6208  162.4398 H   0  0  0  0  0  0  0  0  0  0  0  0
  154.5247  138.6553  160.2470 H   0  0  0  0  0  0  0  0  0  0  0  0
  155.6465  138.7642  161.5853 H   0  0  0  0  0  0  0  0  0  0  0  0
  153.9792  137.8519  163.1583 H   0  0  0  0  0  0  0  0  0  0  0  0
  152.6942  138.0365  161.9845 H   0  0  0  0  0  0  0  0  0  0  0  0
  154.5827  135.8446  163.4750 H   0  0  0  0  0  0  0  0  0  0  0  0
  154.4783  133.8353  161.2662 H   0  0  0  0  0  0  0  0  0  0  0  0
  153.0146  133.7095  163.6993 H   0  0  0  0  0  0  0  0  0  0  0  0
  153.4408  132.3621  162.6615 H   0  0  0  0  0  0  0  0  0  0  0  0
  154.9302  133.3473  165.1020 H   0  0  0  0  0  0  0  0  0  0  0  0
  154.4988  131.6855  164.7001 H   0  0  0  0  0  0  0  0  0  0  0  0
  157.0114  132.4848  164.1979 H   0  0  0  0  0  0  0  0  0  0  0  0
  156.1535  131.6138  162.9286 H   0  0  0  0  0  0  0  0  0  0  0  0
  156.7475  133.5627  161.7041 H   0  0  0  0  0  0  0  0  0  0  0  0
  156.6563  134.5752  163.1341 H   0  0  0  0  0  0  0  0  0  0  0  0
  152.1216  144.5139  161.9611 H   0  0  0  0  0  0  0  0  0  0  0  0
  151.4143  146.4274  160.5276 H   0  0  0  0  0  0  0  0  0  0  0  0
  151.5598  146.1944  158.0315 H   0  0  0  0  0  0  0  0  0  0  0  0
  152.4212  144.0362  157.0853 H   0  0  0  0  0  0  0  0  0  0  0  0
  1  2  1  0  0  0  0
  1 22  1  0  0  0  0
  1 23  1  0  0  0  0
  1 24  1  0  0  0  0
  2  3  1  0  0  0  0
  2 16  1  0  0  0  0
  3  4  2  0  0  0  0
  3  5  1  0  0  0  0
  5  6  1  0  0  0  0
  5 25  1  0  0  0  0
  6  7  1  0  0  0  0
  6 26  1  0  0  0  0
  6 27  1  0  0  0  0
  7  8  1  0  0  0  0
  7 28  1  0  0  0  0
  7 29  1  0  0  0  0
  8  9  2  0  0  0  0
  8 10  1  0  0  0  0
 10 11  1  0  0  0  0
 10 30  1  0  0  0  0
 11 15  1  0  0  0  0
 11 12  1  0  0  0  0
 11 31  1  0  0  0  0
 12 13  1  0  0  0  0
 12 32  1  0  0  0  0
 12 33  1  0  0  0  0
 13 14  1  0  0  0  0
 13 34  1  0  0  0  0
 13 35  1  0  0  0  0
 14 15  1  0  0  0  0
 14 36  1  0  0  0  0
 14 37  1  0  0  0  0
 15 38  1  0  0  0  0
 15 39  1  0  0  0  0
 16 21  1  0  0  0  0
 16 17  2  0  0  0  0
 17 18  1  0  0  0  0
 17 40  1  0  0  0  0
 18 19  2  0  0  0  0
 18 41  1  0  0  0  0
 19 20  1  0  0  0  0
 19 42  1  0  0  0  0
 20 21  2  0  0  0  0
 20 43  1  0  0  0  0
M  END
> <s_m_source_file>
AV-unprocessed.smi

> <i_m_source_file_index>
2934

> <i_lp_mmshare_version>
43012

> <i_f3d_flags>
0

> <s_epik_input>
bjFbY0hdW2NIXVtjSF1bY0hdYzFOKFtDSDNdKUMoPU8pW05IXVtDSDJdW0NIMl1DKD1PKVtOSF1bQ0hdMltDSDJdW0NIMl1bQ0gyXVtDSDJdMg==

> <s_epik_cmdline>
J2VwaWtfcHl0aG9uJywgJy1waCcsICc3LjAnLCAnLXRuJywgJzgnLCAnLW1hJywgJzIwMCcsICctbWV0YWxfYmluZGluZycsICctaW1hZScsICc8aW5maWxlLm1hZT4nLCAnLW9tYWUnLCAnPG91dGZpbGUubWFlPic=

> <r_epik_Ionization_Penalty>
0.404648

> <r_epik_Ionization_Penalty_Charging>
0

> <r_epik_Ionization_Penalty_Neutral>
0.404648

> <r_epik_State_Penalty>
0.40421

> <r_epik_Charging_Adjusted_Penalty>
0.40421

> <i_epik_Tot_Q>
0

> <i_epik_Tot_abs_Q>
0

> <r_epik_Metal_State_Penalty>
0.238116

> <b_epik_Metal_Only>
0

> <s_lp_Force_Field>
OPLS_2005

> <r_lp_Energy>
32.7735

> <b_lp_Chiralities_Consistent>
1

> <s_lp_Variant>
AV-unprocessed.smi:2934-1

> <Gold.Version>
5.8.1

> <Gold.Id.Protein>
6NUR|6NUR_protein|mol2

> <Gold.PLP.Fitness>
44.6321

> <Gold.PLP.PLP>
-45.4902

> <Gold.PLP.part.hbond>
-0.9393

> <Gold.PLP.part.metal>
0.0000

> <Gold.PLP.part.buried>
-6.5234

> <Gold.PLP.part.nonpolar>
-37.3688

> <Gold.PLP.part.repulsive>
0.0422

> <Gold.PLP.ligand.clash>
3.2401

> <Gold.PLP.ligand.torsion>
0.3800

> <Gold.PLP.Chemscore.Hbond>
0.9750

> <Gold.PLP.Chemscore.CHOScore>
0.0000

> <Gold.PLP.Chemscore.Metal>
0.0000

> <Gold.Chemscore.Hbonds>
donor molecule, donor type, donor heavy atom, donor atom, acceptor molecule, acceptor atom, score
      P1  H  6896  6907       L1     9  1.00

> <Gold.PLP.Chemscore.Internal.Correction>
0.2171

> <Gold.Rescore>
     Score         DG    S(hbond)    S(metal)    S(lipo)     H(rot)  DE(clash)    DE(int)     intcor
     14.38     -16.22       1.00        0.00     100.98       1.72       0.04       1.80       ----

> <Gold.Chemscore.Fitness>
14.3803

> <Gold.Chemscore.DG>
-16.2173

> <Gold.Chemscore.ZeroCoef>
-5.4800

> <Gold.Chemscore.Hbond>
0.9974

> <Gold.Chemscore.Metal>
0.0000

> <Gold.Chemscore.Lipo>
100.9773

> <Gold.Chemscore.Internal_Hbond>
0.0000

> <Gold.Chemscore.DEClash>
0.0400

> <Gold.Chemscore.DEInternal>
1.7970

> <Gold.Chemscore.Rot>
1.7220

> <Gold.Chemscore.Internal.Correction>
   9.000000E+99

> <Gold.Chemscore.Hbonds>
donor molecule, donor type, donor heavy atom, donor atom, acceptor molecule, acceptor atom, score
      P1  H  6896  6907       L1     9  0.97

> <Gold.Chemscore.Hbond.Weighted>
-3.3312

> <Gold.Chemscore.Metal.Weighted>
-0.0000

> <Gold.Chemscore.Lipo.Weighted>
-11.8143

> <Gold.Chemscore.Internal_Hbond.Weighted>
0.0000

> <Gold.Chemscore.DEClash.Weighted>
0.0400

> <Gold.Chemscore.DEInternal.Weighted>
1.7970

> <Gold.Chemscore.Rot.Weighted>
4.4083

> <Gold.Chemscore.Internal.Correction.Weighted>
   9.000000E+99

> <Gold.Protein.RotatedTorsions>
[ 6907 6896 6895 6894 ] final   54.11 input  -60.11 | X-H torsion
[ 7974 7965 7964 7962 ] final  141.38 input  175.53 | X-H torsion
[ 8008 7997 7996 7995 ] final -147.71 input   59.86 | X-H torsion
[ 10167 10162 10161 10158 ] final  115.13 input  -65.29 | X-H torsion
[ 10718 10713 10712 10709 ] final  172.81 input   66.30 | X-H torsion
[ 10763 10752 10751 10750 ] final  -57.04 input  -60.55 | X-H torsion
[ 11005 11000 10999 10996 ] final   81.43 input  -57.11 | X-H torsion

> <Gold.Protein.ActiveResidues>
 VAL166  LYS551  ARG553  GLY616  TRP617  ASP618  TYR619  PRO620  LYS621  CYS622 
 ASP623  PHE694  ASN695  SER759  ASP760  ASP761  ALA762  ILE779  LEU786  VAL792 
 PHE793  MET794  SER795  GLU796  ALA797  LYS798  CYS799  TRP800  GLU811  SER814 

> <Gold.Protein.RotatedAtoms>
  152.3406  134.7139  160.0264 H   0  0  0  0  0  0  0  0  0  0  0  0  # atno 6907 bound_to 6896
  151.7526  133.3323  159.3404 H   0  0  0  0  0  0  0  0  0  0  0  0  # atno 6908 bound_to 6896
  150.7477  134.6111  159.6131 H   0  0  0  0  0  0  0  0  0  0  0  0  # atno 6909 bound_to 6896
  144.9101  139.5304  143.5712 H   0  0  0  0  0  0  0  0  0  0  0  0  # atno 7974 bound_to 7965
  155.5799  140.0642  157.2785 H   0  0  0  0  0  0  0  0  0  0  0  0  # atno 8008 bound_to 7997
  154.4335  140.1854  156.1012 H   0  0  0  0  0  0  0  0  0  0  0  0  # atno 8009 bound_to 7997
  156.0312  140.3306  155.7146 H   0  0  0  0  0  0  0  0  0  0  0  0  # atno 8010 bound_to 7997
  139.6339  144.7118  151.2374 H   0  0  0  0  0  0  0  0  0  0  0  0  # atno 10167 bound_to 10162
  156.9734  131.0097  151.2899 H   0  0  0  0  0  0  0  0  0  0  0  0  # atno 10718 bound_to 10713
  154.2161  135.6386  153.5130 H   0  0  0  0  0  0  0  0  0  0  0  0  # atno 10763 bound_to 10752
  152.9979  135.5485  154.6163 H   0  0  0  0  0  0  0  0  0  0  0  0  # atno 10764 bound_to 10752
  154.5612  135.2909  155.0891 H   0  0  0  0  0  0  0  0  0  0  0  0  # atno 10765 bound_to 10752
  139.9098  134.7996  156.2040 H   0  0  0  0  0  0  0  0  0  0  0  0  # atno 11005 bound_to 11000
  146.3154  139.7901  142.8987 LP  0  0  0  0  0  0  0  0  0  0  0  0  # atno 17320 bound_to 7965
  145.3468  141.0299  143.3361 LP  0  0  0  0  0  0  0  0  0  0  0  0  # atno 17321 bound_to 7965
  140.7454  143.6430  150.8317 LP  0  0  0  0  0  0  0  0  0  0  0  0  # atno 17342 bound_to 10162
  140.0059  143.5694  152.2858 LP  0  0  0  0  0  0  0  0  0  0  0  0  # atno 17343 bound_to 10162
  157.5576  130.8224  149.8225 LP  0  0  0  0  0  0  0  0  0  0  0  0  # atno 17370 bound_to 10713
  156.0273  130.3775  150.1786 LP  0  0  0  0  0  0  0  0  0  0  0  0  # atno 17371 bound_to 10713
  141.0507  133.6890  156.1766 LP  0  0  0  0  0  0  0  0  0  0  0  0  # atno 17394 bound_to 11000
  140.6815  134.4762  157.5589 LP  0  0  0  0  0  0  0  0  0  0  0  0  # atno 17395 bound_to 11000

$$$$
