AV-unprocessed.smi:492|AV-procd|sdf|2711|dock5
  -GOLD-   2262023153D 1   1.00000     0.00000
 Structure written by MMmdl.
 47 49  0  0  0  0  0  0  0  0  2 V2000
  159.8313  135.2215  151.5585 C   0  0  0  0  0  0  0  0  0  0  0  0
  158.8732  136.2608  151.4214 O   0  0  0  0  0  0  0  0  0  0  0  0
  158.1416  136.6191  152.5334 C   0  0  0  0  0  0  0  0  0  0  0  0
  157.2030  137.6594  152.3755 C   0  0  0  0  0  0  0  0  0  0  0  0
  156.4129  138.0899  153.4587 C   0  0  0  0  0  0  0  0  0  0  0  0
  156.5566  137.4859  154.7237 C   0  0  0  0  0  0  0  0  0  0  0  0
  155.6966  137.9365  155.8886 C   0  0  0  0  0  0  0  0  0  0  0  0
  154.3148  137.7701  155.6175 O   0  0  0  0  0  0  0  0  0  0  0  0
  153.7938  138.7731  154.7601 C   0  0  0  0  0  0  0  0  0  0  0  0
  152.2641  138.6507  154.6702 C   0  0  1  0  0  0  0  0  0  0  0  0
  151.9274  137.4132  154.0760 O   0  0  0  0  0  0  0  0  0  0  0  0
  151.5457  138.8401  156.0226 C   0  0  0  0  0  0  0  0  0  0  0  0
  151.1802  140.2406  156.2821 N   0  0  0  0  0  0  0  0  0  0  0  0
  150.3428  141.0751  155.6022 C   0  0  0  0  0  0  0  0  0  0  0  0
  149.5583  140.7468  154.3762 C   0  0  0  0  0  0  0  0  0  0  0  0
  150.3530  142.2736  156.2515 N   0  3  0  0  0  0  0  0  0  0  0  0
  151.2002  142.2037  157.3588 C   0  0  0  0  0  0  0  0  0  0  0  0
  151.5336  143.1585  158.3148 C   0  0  0  0  0  0  0  0  0  0  0  0
  152.4345  142.7567  159.3228 C   0  0  0  0  0  0  0  0  0  0  0  0
  152.9667  141.4510  159.3550 C   0  0  0  0  0  0  0  0  0  0  0  0
  152.6221  140.4918  158.3800 C   0  0  0  0  0  0  0  0  0  0  0  0
  151.7321  140.8980  157.3863 C   0  0  0  0  0  0  0  0  0  0  0  0
  157.4855  136.4386  154.8901 C   0  0  0  0  0  0  0  0  0  0  0  0
  158.2753  136.0086  153.8060 C   0  0  0  0  0  0  0  0  0  0  0  0
  160.3226  135.0569  150.5999 H   0  0  0  0  0  0  0  0  0  0  0  0
  159.3610  134.2822  151.8531 H   0  0  0  0  0  0  0  0  0  0  0  0
  160.6030  135.4828  152.2839 H   0  0  0  0  0  0  0  0  0  0  0  0
  157.0856  138.1323  151.4116 H   0  0  0  0  0  0  0  0  0  0  0  0
  155.6980  138.8862  153.3131 H   0  0  0  0  0  0  0  0  0  0  0  0
  155.9655  137.3710  156.7824 H   0  0  0  0  0  0  0  0  0  0  0  0
  155.9132  138.9867  156.0895 H   0  0  0  0  0  0  0  0  0  0  0  0
  154.0502  139.7520  155.1683 H   0  0  0  0  0  0  0  0  0  0  0  0
  154.2447  138.7108  153.7681 H   0  0  0  0  0  0  0  0  0  0  0  0
  151.9150  139.4166  153.9773 H   0  0  0  0  0  0  0  0  0  0  0  0
  151.6914  137.5687  153.1744 H   0  0  0  0  0  0  0  0  0  0  0  0
  150.6279  138.2521  156.0552 H   0  0  0  0  0  0  0  0  0  0  0  0
  152.1657  138.4849  156.8468 H   0  0  0  0  0  0  0  0  0  0  0  0
  149.0873  141.6425  153.9708 H   0  0  0  0  0  0  0  0  0  0  0  0
  148.7800  140.0211  154.6126 H   0  0  0  0  0  0  0  0  0  0  0  0
  150.2096  140.3219  153.6120 H   0  0  0  0  0  0  0  0  0  0  0  0
  151.1269  144.1590  158.2931 H   0  0  0  0  0  0  0  0  0  0  0  0
  152.7230  143.4639  160.0869 H   0  0  0  0  0  0  0  0  0  0  0  0
  153.6537  141.1796  160.1434 H   0  0  0  0  0  0  0  0  0  0  0  0
  153.0350  139.4942  158.4127 H   0  0  0  0  0  0  0  0  0  0  0  0
  157.5957  135.9596  155.8520 H   0  0  0  0  0  0  0  0  0  0  0  0
  158.9765  135.2060  153.9769 H   0  0  0  0  0  0  0  0  0  0  0  0
  149.8165  143.0795  155.9570 H   0  0  0  0  0  0  0  0  0  0  0  0
  1  2  1  0  0  0  0
  1 25  1  0  0  0  0
  1 26  1  0  0  0  0
  1 27  1  0  0  0  0
  2  3  1  0  0  0  0
  3 24  1  0  0  0  0
  3  4  2  0  0  0  0
  4  5  1  0  0  0  0
  4 28  1  0  0  0  0
  5  6  2  0  0  0  0
  5 29  1  0  0  0  0
  6  7  1  0  0  0  0
  6 23  1  0  0  0  0
  7  8  1  0  0  0  0
  7 30  1  0  0  0  0
  7 31  1  0  0  0  0
  8  9  1  0  0  0  0
  9 10  1  0  0  0  0
  9 32  1  0  0  0  0
  9 33  1  0  0  0  0
 10 11  1  0  0  0  0
 10 12  1  0  0  0  0
 10 34  1  0  0  0  0
 11 35  1  0  0  0  0
 12 13  1  0  0  0  0
 12 36  1  0  0  0  0
 12 37  1  0  0  0  0
 13 22  1  0  0  0  0
 13 14  1  0  0  0  0
 14 15  1  0  0  0  0
 14 16  2  0  0  0  0
 15 38  1  0  0  0  0
 15 39  1  0  0  0  0
 15 40  1  0  0  0  0
 16 17  1  0  0  0  0
 16 47  1  0  0  0  0
 17 22  2  0  0  0  0
 17 18  1  0  0  0  0
 18 19  2  0  0  0  0
 18 41  1  0  0  0  0
 19 20  1  0  0  0  0
 19 42  1  0  0  0  0
 20 21  2  0  0  0  0
 20 43  1  0  0  0  0
 21 22  1  0  0  0  0
 21 44  1  0  0  0  0
 23 24  2  0  0  0  0
 23 45  1  0  0  0  0
 24 46  1  0  0  0  0
M  CHG  1  16   1
M  END
> <s_m_source_file>
AV-unprocessed.smi

> <i_m_source_file_index>
492

> <i_lp_mmshare_version>
43012

> <i_f3d_flags>
0

> <s_epik_input>
W0NIM11PYzFbY0hdW2NIXWMoW2NIXVtjSF0xKVtDSDJdT1tDSDJdW0NASF0oW09IXSlbQ0gyXW4oYyhuMilbQ0gzXSljKGMyMylbY0hdW2NIXVtjSF1bY0hdMw==

> <s_epik_cmdline>
J2VwaWtfcHl0aG9uJywgJy1waCcsICc3LjAnLCAnLXRuJywgJzgnLCAnLW1hJywgJzIwMCcsICctbWV0YWxfYmluZGluZycsICctaW1hZScsICc8aW5maWxlLm1hZT4nLCAnLW9tYWUnLCAnPG91dGZpbGUubWFlPic=

> <r_lp_tautomer_probability>
1

> <r_epik_Ionization_Penalty>
0.952

> <r_epik_Ionization_Penalty_Charging>
0.951999

> <r_epik_Ionization_Penalty_Neutral>
9.7482e-07

> <r_epik_State_Penalty>
0.996343

> <r_epik_Charging_Adjusted_Penalty>
1.94834

> <i_epik_Tot_Q>
1

> <i_epik_Tot_abs_Q>
1

> <r_epik_Metal_State_Penalty>
4.96724

> <b_epik_Metal_Only>
0

> <s_lp_Force_Field>
OPLS_2005

> <r_lp_Energy>
22.9053

> <b_lp_Chiralities_Consistent>
1

> <s_lp_Variant>
AV-unprocessed.smi:492-4

> <Gold.Version>
5.8.1

> <Gold.Id.Protein>
6NUR|6NUR_protein|mol2

> <Gold.PLP.Fitness>
57.2736

> <Gold.PLP.PLP>
-48.7403

> <Gold.PLP.part.hbond>
-4.9736

> <Gold.PLP.part.metal>
0.0000

> <Gold.PLP.part.buried>
1.1547

> <Gold.PLP.part.nonpolar>
-45.9350

> <Gold.PLP.part.repulsive>
0.6492

> <Gold.PLP.ligand.clash>
0.0000

> <Gold.PLP.ligand.torsion>
0.5175

> <Gold.PLP.Chemscore.Hbond>
3.1204

> <Gold.PLP.Chemscore.CHOScore>
0.0000

> <Gold.PLP.Chemscore.Metal>
0.0000

> <Gold.Chemscore.Hbonds>
donor molecule, donor type, donor heavy atom, donor atom, acceptor molecule, acceptor atom, score
      L1  H    11    35       P1  7949  0.09
      L1  H    16    47       P1  8028  2.00
      P1  H 10752 10764       L1    11  0.98

> <Gold.PLP.Chemscore.Internal.Correction>
0.2069

> <Gold.Rescore>
     Score         DG    S(hbond)    S(metal)    S(lipo)     H(rot)  DE(clash)    DE(int)     intcor
     21.90     -25.22       2.15        0.00     162.23       2.50       1.59       1.72       ----

> <Gold.Chemscore.Fitness>
21.9048

> <Gold.Chemscore.DG>
-25.2232

> <Gold.Chemscore.ZeroCoef>
-5.4800

> <Gold.Chemscore.Hbond>
2.1473

> <Gold.Chemscore.Metal>
0.0000

> <Gold.Chemscore.Lipo>
162.2295

> <Gold.Chemscore.Internal_Hbond>
0.0000

> <Gold.Chemscore.DEClash>
1.5937

> <Gold.Chemscore.DEInternal>
1.7248

> <Gold.Chemscore.Rot>
2.5038

> <Gold.Chemscore.Internal.Correction>
   9.000000E+99

> <Gold.Chemscore.Hbonds>
donor molecule, donor type, donor heavy atom, donor atom, acceptor molecule, acceptor atom, score
      L1  H    11    35       P1  7949  0.10
      L1  H    16    47       P1  8028  1.00
      P1  H 10752 10764       L1    11  0.66

> <Gold.Chemscore.Hbond.Weighted>
-7.1721

> <Gold.Chemscore.Metal.Weighted>
-0.0000

> <Gold.Chemscore.Lipo.Weighted>
-18.9809

> <Gold.Chemscore.Internal_Hbond.Weighted>
0.0000

> <Gold.Chemscore.DEClash.Weighted>
1.5937

> <Gold.Chemscore.DEInternal.Weighted>
1.7248

> <Gold.Chemscore.Rot.Weighted>
6.4098

> <Gold.Chemscore.Internal.Correction.Weighted>
   9.000000E+99

> <Gold.Protein.RotatedTorsions>
[ 6907 6896 6895 6894 ] final   73.11 input  -60.11 | X-H torsion
[ 7974 7965 7964 7962 ] final  152.14 input  175.53 | X-H torsion
[ 8008 7997 7996 7995 ] final -126.56 input   59.86 | X-H torsion
[ 10167 10162 10161 10158 ] final   -3.61 input  -65.29 | X-H torsion
[ 10718 10713 10712 10709 ] final  -61.10 input   66.30 | X-H torsion
[ 10763 10752 10751 10750 ] final  -81.16 input  -60.55 | X-H torsion
[ 11005 11000 10999 10996 ] final -120.61 input  -57.11 | X-H torsion

> <Gold.Protein.ActiveResidues>
 VAL166  LYS551  ARG553  GLY616  TRP617  ASP618  TYR619  PRO620  LYS621  CYS622 
 ASP623  PHE694  ASN695  SER759  ASP760  ASP761  ALA762  ILE779  LEU786  VAL792 
 PHE793  MET794  SER795  GLU796  ALA797  LYS798  CYS799  TRP800  GLU811  SER814 

> <Gold.Protein.RotatedAtoms>
  152.4905  134.4470  159.9561 H   0  0  0  0  0  0  0  0  0  0  0  0  # atno 6907 bound_to 6896
  151.4458  133.3625  159.2796 H   0  0  0  0  0  0  0  0  0  0  0  0  # atno 6908 bound_to 6896
  150.9055  134.8494  159.7450 H   0  0  0  0  0  0  0  0  0  0  0  0  # atno 6909 bound_to 6896
  144.8243  139.6630  143.6087 H   0  0  0  0  0  0  0  0  0  0  0  0  # atno 7974 bound_to 7965
  155.2318  140.0425  157.2963 H   0  0  0  0  0  0  0  0  0  0  0  0  # atno 8008 bound_to 7997
  154.5884  140.2420  155.7926 H   0  0  0  0  0  0  0  0  0  0  0  0  # atno 8009 bound_to 7997
  156.2242  140.2960  156.0034 H   0  0  0  0  0  0  0  0  0  0  0  0  # atno 8010 bound_to 7997
  140.6896  143.6520  150.8342 H   0  0  0  0  0  0  0  0  0  0  0  0  # atno 10167 bound_to 10162
  156.0945  130.4195  150.0946 H   0  0  0  0  0  0  0  0  0  0  0  0  # atno 10718 bound_to 10713
  154.5602  135.5636  153.7000 H   0  0  0  0  0  0  0  0  0  0  0  0  # atno 10763 bound_to 10752
  153.0015  135.6272  154.2255 H   0  0  0  0  0  0  0  0  0  0  0  0  # atno 10764 bound_to 10752
  154.2193  135.2870  155.2910 H   0  0  0  0  0  0  0  0  0  0  0  0  # atno 10765 bound_to 10752
  141.0131  134.0236  157.3387 H   0  0  0  0  0  0  0  0  0  0  0  0  # atno 11005 bound_to 11000
  146.2548  139.6278  142.9402 LP  0  0  0  0  0  0  0  0  0  0  0  0  # atno 17320 bound_to 7965
  145.5036  141.0437  143.2527 LP  0  0  0  0  0  0  0  0  0  0  0  0  # atno 17321 bound_to 7965
  140.0231  143.5521  152.2792 LP  0  0  0  0  0  0  0  0  0  0  0  0  # atno 17342 bound_to 10162
  139.6287  144.7641  151.2583 LP  0  0  0  0  0  0  0  0  0  0  0  0  # atno 17343 bound_to 10162
  156.8948  130.9601  151.3584 LP  0  0  0  0  0  0  0  0  0  0  0  0  # atno 17370 bound_to 10713
  157.6102  130.8577  149.8940 LP  0  0  0  0  0  0  0  0  0  0  0  0  # atno 17371 bound_to 10713
  139.9101  135.0188  156.7655 LP  0  0  0  0  0  0  0  0  0  0  0  0  # atno 17394 bound_to 11000
  140.6701  133.9567  155.7851 LP  0  0  0  0  0  0  0  0  0  0  0  0  # atno 17395 bound_to 11000

$$$$
