AV-unprocessed.smi:1299|AV-procd|sdf|5418|dock3
  -GOLD-   22720 4573D 1   1.00000     0.00000
 Structure written by MMmdl.
 39 40  0  0  0  0  0  0  0  0  1 V2000
  151.7644  144.5133  161.0063 C   0  0  0  0  0  0  0  0  0  0  0  0
  152.5134  143.1932  160.9460 C   0  0  0  0  0  0  0  0  0  0  0  0
  153.0993  142.5848  161.9825 C   0  0  0  0  0  0  0  0  0  0  0  0
  153.8337  141.0618  161.5457 S   0  0  0  0  0  0  0  0  0  0  0  0
  153.2957  141.2814  159.8420 C   0  0  0  0  0  0  0  0  0  0  0  0
  153.5294  140.4591  158.9576 O   0  0  0  0  0  0  0  0  0  0  0  0
  152.6103  142.4915  159.7359 N   0  0  0  0  0  0  0  0  0  0  0  0
  152.0496  142.9764  158.4675 C   0  0  0  0  0  0  0  0  0  0  0  0
  150.5348  142.7582  158.3512 C   0  0  0  0  0  0  0  0  0  0  0  0
  149.7558  143.2608  159.1625 O   0  0  0  0  0  0  0  0  0  0  0  0
  150.1298  142.0069  157.3160 N   0  0  0  0  0  0  0  0  0  0  0  0
  148.7420  141.6732  157.0153 C   0  0  0  0  0  0  0  0  0  0  0  0
  148.6381  140.6992  155.8240 C   0  0  0  0  0  0  0  0  0  0  0  0
  148.2250  141.3752  154.5058 C   0  0  0  0  0  0  0  0  0  0  0  0
  148.9717  141.3213  153.5276 O   0  0  0  0  0  0  0  0  0  0  0  0
  147.0387  142.0170  154.4653 N   0  0  0  0  0  0  0  0  0  0  0  0
  146.4870  142.7208  153.3078 C   0  0  0  0  0  0  0  0  0  0  0  0
  145.2625  143.4748  153.8273 C   0  0  0  0  0  0  0  0  0  0  0  0
  144.8223  142.6775  155.0470 C   0  0  0  0  0  0  0  0  0  0  0  0
  146.1221  142.0938  155.6014 C   0  0  0  0  0  0  0  0  0  0  0  0
  151.4853  144.7425  162.0350 H   0  0  0  0  0  0  0  0  0  0  0  0
  150.8465  144.4859  160.4192 H   0  0  0  0  0  0  0  0  0  0  0  0
  152.3946  145.3229  160.6381 H   0  0  0  0  0  0  0  0  0  0  0  0
  153.1338  142.9449  163.0001 H   0  0  0  0  0  0  0  0  0  0  0  0
  152.2764  144.0320  158.3184 H   0  0  0  0  0  0  0  0  0  0  0  0
  152.5361  142.4591  157.6387 H   0  0  0  0  0  0  0  0  0  0  0  0
  150.8332  141.6341  156.6949 H   0  0  0  0  0  0  0  0  0  0  0  0
  148.3077  141.2225  157.9085 H   0  0  0  0  0  0  0  0  0  0  0  0
  148.1770  142.5868  156.8201 H   0  0  0  0  0  0  0  0  0  0  0  0
  149.5999  140.2082  155.6719 H   0  0  0  0  0  0  0  0  0  0  0  0
  147.9144  139.9177  156.0586 H   0  0  0  0  0  0  0  0  0  0  0  0
  147.2035  143.4084  152.8568 H   0  0  0  0  0  0  0  0  0  0  0  0
  146.1922  141.9897  152.5536 H   0  0  0  0  0  0  0  0  0  0  0  0
  145.5567  144.4789  154.1358 H   0  0  0  0  0  0  0  0  0  0  0  0
  144.4763  143.5728  153.0784 H   0  0  0  0  0  0  0  0  0  0  0  0
  144.2849  143.2829  155.7776 H   0  0  0  0  0  0  0  0  0  0  0  0
  144.1622  141.8677  154.7339 H   0  0  0  0  0  0  0  0  0  0  0  0
  145.9536  141.1185  156.0610 H   0  0  0  0  0  0  0  0  0  0  0  0
  146.5482  142.7559  156.3568 H   0  0  0  0  0  0  0  0  0  0  0  0
  1  2  1  0  0  0  0
  1 21  1  0  0  0  0
  1 22  1  0  0  0  0
  1 23  1  0  0  0  0
  2  7  1  0  0  0  0
  2  3  2  0  0  0  0
  3  4  1  0  0  0  0
  3 24  1  0  0  0  0
  4  5  1  0  0  0  0
  5  6  2  0  0  0  0
  5  7  1  0  0  0  0
  7  8  1  0  0  0  0
  8  9  1  0  0  0  0
  8 25  1  0  0  0  0
  8 26  1  0  0  0  0
  9 10  2  0  0  0  0
  9 11  1  0  0  0  0
 11 12  1  0  0  0  0
 11 27  1  0  0  0  0
 12 13  1  0  0  0  0
 12 28  1  0  0  0  0
 12 29  1  0  0  0  0
 13 14  1  0  0  0  0
 13 30  1  0  0  0  0
 13 31  1  0  0  0  0
 14 15  2  0  0  0  0
 14 16  1  0  0  0  0
 16 20  1  0  0  0  0
 16 17  1  0  0  0  0
 17 18  1  0  0  0  0
 17 32  1  0  0  0  0
 17 33  1  0  0  0  0
 18 19  1  0  0  0  0
 18 34  1  0  0  0  0
 18 35  1  0  0  0  0
 19 20  1  0  0  0  0
 19 36  1  0  0  0  0
 19 37  1  0  0  0  0
 20 38  1  0  0  0  0
 20 39  1  0  0  0  0
M  END
> <s_m_source_file>
AV-unprocessed.smi

> <i_m_source_file_index>
1299

> <i_lp_mmshare_version>
43012

> <i_f3d_flags>
0

> <s_epik_input>
W0NIM11jMVtjSF1zYyg9TyluMVtDSDJdQyg9TylbTkhdW0NIMl1bQ0gyXUMoPU8pTjJbQ0gyXVtDSDJdW0NIMl1bQ0gyXTI=

> <s_epik_cmdline>
J2VwaWtfcHl0aG9uJywgJy1waCcsICc3LjAnLCAnLXRuJywgJzgnLCAnLW1hJywgJzIwMCcsICctbWV0YWxfYmluZGluZycsICctaW1hZScsICc8aW5maWxlLm1hZT4nLCAnLW9tYWUnLCAnPG91dGZpbGUubWFlPic=

> <r_lp_tautomer_probability>
1

> <r_epik_Ionization_Penalty>
1.42672e-06

> <r_epik_Ionization_Penalty_Charging>
1.08064e-06

> <r_epik_Ionization_Penalty_Neutral>
3.46085e-07

> <r_epik_State_Penalty>
-0

> <r_epik_Charging_Adjusted_Penalty>
1.08064e-06

> <i_epik_Tot_Q>
0

> <i_epik_Tot_abs_Q>
0

> <r_epik_Metal_State_Penalty>
-0

> <b_epik_Metal_Only>
0

> <s_lp_Force_Field>
OPLS_2005

> <r_lp_Energy>
30.8751

> <b_lp_Chiralities_Consistent>
1

> <s_lp_Variant>
AV-unprocessed.smi:1299-1

> <Gold.Version>
5.8.1

> <Gold.Id.Protein>
6NUR|6NUR_protein|mol2

> <Gold.PLP.Fitness>
49.4548

> <Gold.PLP.PLP>
-45.4719

> <Gold.PLP.part.hbond>
-3.7139

> <Gold.PLP.part.metal>
0.0000

> <Gold.PLP.part.buried>
-6.8039

> <Gold.PLP.part.nonpolar>
-36.6636

> <Gold.PLP.part.repulsive>
1.8600

> <Gold.PLP.ligand.clash>
0.0000

> <Gold.PLP.ligand.torsion>
0.5680

> <Gold.PLP.Chemscore.Hbond>
1.6960

> <Gold.PLP.Chemscore.CHOScore>
0.0000

> <Gold.PLP.Chemscore.Metal>
0.0000

> <Gold.Chemscore.Hbonds>
donor molecule, donor type, donor heavy atom, donor atom, acceptor molecule, acceptor atom, score
      P1  H  7997  8009       L1     6  0.48
      P1  H  8011  8017       L1    15  0.91

> <Gold.PLP.Chemscore.Internal.Correction>
0.0308

> <Gold.Rescore>
     Score         DG    S(hbond)    S(metal)    S(lipo)     H(rot)  DE(clash)    DE(int)     intcor
     12.69     -15.10       1.48        0.00      84.15       2.02       0.58       1.84       ----

> <Gold.Chemscore.Fitness>
12.6877

> <Gold.Chemscore.DG>
-15.1018

> <Gold.Chemscore.ZeroCoef>
-5.4800

> <Gold.Chemscore.Hbond>
1.4782

> <Gold.Chemscore.Metal>
0.0000

> <Gold.Chemscore.Lipo>
84.1546

> <Gold.Chemscore.Internal_Hbond>
0.0000

> <Gold.Chemscore.DEClash>
0.5754

> <Gold.Chemscore.DEInternal>
1.8387

> <Gold.Chemscore.Rot>
2.0162

> <Gold.Chemscore.Internal.Correction>
   9.000000E+99

> <Gold.Chemscore.Hbonds>
donor molecule, donor type, donor heavy atom, donor atom, acceptor molecule, acceptor atom, score
      P1  H  7997  8009       L1     6  0.47
      P1  H  8011  8017       L1    15  0.88

> <Gold.Chemscore.Hbond.Weighted>
-4.9372

> <Gold.Chemscore.Metal.Weighted>
-0.0000

> <Gold.Chemscore.Lipo.Weighted>
-9.8461

> <Gold.Chemscore.Internal_Hbond.Weighted>
0.0000

> <Gold.Chemscore.DEClash.Weighted>
0.5754

> <Gold.Chemscore.DEInternal.Weighted>
1.8387

> <Gold.Chemscore.Rot.Weighted>
5.1614

> <Gold.Chemscore.Internal.Correction.Weighted>
   9.000000E+99

> <Gold.Protein.RotatedTorsions>
[ 6907 6896 6895 6894 ] final  105.24 input  -60.11 | X-H torsion
[ 7974 7965 7964 7962 ] final -120.90 input  175.53 | X-H torsion
[ 8008 7997 7996 7995 ] final  142.25 input   59.86 | X-H torsion
[ 10167 10162 10161 10158 ] final   29.88 input  -65.29 | X-H torsion
[ 10718 10713 10712 10709 ] final   65.64 input   66.30 | X-H torsion
[ 10763 10752 10751 10750 ] final   65.82 input  -60.55 | X-H torsion
[ 11005 11000 10999 10996 ] final  -83.24 input  -57.11 | X-H torsion

> <Gold.Protein.ActiveResidues>
 VAL166  LYS551  ARG553  GLY616  TRP617  ASP618  TYR619  PRO620  LYS621  CYS622 
 ASP623  PHE694  ASN695  SER759  ASP760  ASP761  ALA762  ILE779  LEU786  VAL792 
 PHE793  MET794  SER795  GLU796  ALA797  LYS798  CYS799  TRP800  GLU811  SER814 

> <Gold.Protein.RotatedAtoms>
  152.5237  133.9557  159.7692 H   0  0  0  0  0  0  0  0  0  0  0  0  # atno 6907 bound_to 6896
  150.9858  133.6191  159.2722 H   0  0  0  0  0  0  0  0  0  0  0  0  # atno 6908 bound_to 6896
  151.3352  135.0857  159.9405 H   0  0  0  0  0  0  0  0  0  0  0  0  # atno 6909 bound_to 6896
  145.0462  140.8183  143.4236 H   0  0  0  0  0  0  0  0  0  0  0  0  # atno 7974 bound_to 7965
  156.2952  140.2293  156.4698 H   0  0  0  0  0  0  0  0  0  0  0  0  # atno 8008 bound_to 7997
  154.7945  140.0452  157.1247 H   0  0  0  0  0  0  0  0  0  0  0  0  # atno 8009 bound_to 7997
  154.9605  140.3054  155.5036 H   0  0  0  0  0  0  0  0  0  0  0  0  # atno 8010 bound_to 7997
  140.4726  144.0739  150.6241 H   0  0  0  0  0  0  0  0  0  0  0  0  # atno 10167 bound_to 10162
  157.6119  130.9225  150.0004 H   0  0  0  0  0  0  0  0  0  0  0  0  # atno 10718 bound_to 10713
  153.0112  135.5343  154.6726 H   0  0  0  0  0  0  0  0  0  0  0  0  # atno 10763 bound_to 10752
  154.5907  135.2858  155.0641 H   0  0  0  0  0  0  0  0  0  0  0  0  # atno 10764 bound_to 10752
  154.1735  135.6528  153.5068 H   0  0  0  0  0  0  0  0  0  0  0  0  # atno 10765 bound_to 10752
  141.1659  133.7284  156.8691 H   0  0  0  0  0  0  0  0  0  0  0  0  # atno 11005 bound_to 11000
  145.1585  139.2472  143.5404 LP  0  0  0  0  0  0  0  0  0  0  0  0  # atno 17320 bound_to 7965
  146.3514  140.1306  142.8597 LP  0  0  0  0  0  0  0  0  0  0  0  0  # atno 17321 bound_to 7965
  140.3958  143.2729  152.0007 LP  0  0  0  0  0  0  0  0  0  0  0  0  # atno 17342 bound_to 10162
  139.4821  144.6039  151.7555 LP  0  0  0  0  0  0  0  0  0  0  0  0  # atno 17343 bound_to 10162
  156.1225  130.3645  149.9864 LP  0  0  0  0  0  0  0  0  0  0  0  0  # atno 17370 bound_to 10713
  156.7941  130.9267  151.3646 LP  0  0  0  0  0  0  0  0  0  0  0  0  # atno 17371 bound_to 10713
  140.1794  134.9044  157.2931 LP  0  0  0  0  0  0  0  0  0  0  0  0  # atno 17394 bound_to 11000
  140.2412  134.3794  155.7480 LP  0  0  0  0  0  0  0  0  0  0  0  0  # atno 17395 bound_to 11000

$$$$
