AV-unprocessed.smi:1863|AV-procd|sdf|7551|dock8
  -GOLD-   22720 9263D 1   1.00000     0.00000
 Structure written by MMmdl.
 37 38  0  0  0  0  0  0  0  0  1 V2000
  146.9850  141.9871  153.8217 C   0  0  0  0  0  0  0  0  0  0  0  0
  148.1563  141.0000  153.7249 C   0  0  1  0  0  0  0  0  0  0  0  0
  148.5414  140.4575  155.1208 C   0  0  0  0  0  0  0  0  0  0  0  0
  149.8934  139.9018  155.1555 N   0  0  0  0  0  0  0  0  0  0  0  0
  150.2279  138.7137  154.3874 C   0  0  0  0  0  0  0  0  0  0  0  0
  151.7594  138.6300  154.4413 C   0  0  0  0  0  0  0  0  0  0  0  0
  152.1797  139.5429  155.5979 C   0  0  0  0  0  0  0  0  0  0  0  0
  150.9309  140.3673  155.8617 C   0  0  0  0  0  0  0  0  0  0  0  0
  150.9164  141.3331  156.6234 O   0  0  0  0  0  0  0  0  0  0  0  0
  147.7643  139.9055  152.8382 N   0  0  0  0  0  0  0  0  0  0  0  0
  146.7855  139.0200  153.0767 C   0  0  0  0  0  0  0  0  0  0  0  0
  146.0985  139.0235  154.0979 O   0  0  0  0  0  0  0  0  0  0  0  0
  146.6440  138.1666  152.0486 N   0  0  0  0  0  0  0  0  0  0  0  0
  145.6980  137.1175  151.8942 C   0  0  0  0  0  0  0  0  0  0  0  0
  145.8988  135.9745  151.0829 C   0  0  0  0  0  0  0  0  0  0  0  0
  144.8749  135.0111  151.0009 C   0  0  0  0  0  0  0  0  0  0  0  0
  143.6868  135.2284  151.7254 C   0  0  0  0  0  0  0  0  0  0  0  0
  143.4766  136.3195  152.4914 N   0  0  0  0  0  0  0  0  0  0  0  0
  144.4623  137.2390  152.5645 C   0  0  0  0  0  0  0  0  0  0  0  0
  147.2422  142.8393  154.4515 H   0  0  0  0  0  0  0  0  0  0  0  0
  146.0991  141.5143  154.2478 H   0  0  0  0  0  0  0  0  0  0  0  0
  146.7162  142.3763  152.8392 H   0  0  0  0  0  0  0  0  0  0  0  0
  148.9980  141.5455  153.2949 H   0  0  0  0  0  0  0  0  0  0  0  0
  148.4924  141.2625  155.8559 H   0  0  0  0  0  0  0  0  0  0  0  0
  147.8213  139.7071  155.4507 H   0  0  0  0  0  0  0  0  0  0  0  0
  149.7715  137.8430  154.8601 H   0  0  0  0  0  0  0  0  0  0  0  0
  149.8617  138.7777  153.3621 H   0  0  0  0  0  0  0  0  0  0  0  0
  152.1061  137.6054  154.5778 H   0  0  0  0  0  0  0  0  0  0  0  0
  152.1849  139.0006  153.5077 H   0  0  0  0  0  0  0  0  0  0  0  0
  152.4293  138.9680  156.4902 H   0  0  0  0  0  0  0  0  0  0  0  0
  153.0285  140.1751  155.3362 H   0  0  0  0  0  0  0  0  0  0  0  0
  148.2711  139.8261  151.9688 H   0  0  0  0  0  0  0  0  0  0  0  0
  147.2352  138.3360  151.2480 H   0  0  0  0  0  0  0  0  0  0  0  0
  146.8031  135.8241  150.5144 H   0  0  0  0  0  0  0  0  0  0  0  0
  144.9962  134.1274  150.3919 H   0  0  0  0  0  0  0  0  0  0  0  0
  142.8816  134.5100  151.6832 H   0  0  0  0  0  0  0  0  0  0  0  0
  144.2576  138.1001  153.1842 H   0  0  0  0  0  0  0  0  0  0  0  0
  1  2  1  0  0  0  0
  1 20  1  0  0  0  0
  1 21  1  0  0  0  0
  1 22  1  0  0  0  0
  2  3  1  0  0  0  0
  2 10  1  0  0  0  0
  2 23  1  0  0  0  0
  3  4  1  0  0  0  0
  3 24  1  0  0  0  0
  3 25  1  0  0  0  0
  4  8  1  0  0  0  0
  4  5  1  0  0  0  0
  5  6  1  0  0  0  0
  5 26  1  0  0  0  0
  5 27  1  0  0  0  0
  6  7  1  0  0  0  0
  6 28  1  0  0  0  0
  6 29  1  0  0  0  0
  7  8  1  0  0  0  0
  7 30  1  0  0  0  0
  7 31  1  0  0  0  0
  8  9  2  0  0  0  0
 10 11  1  0  0  0  0
 10 32  1  0  0  0  0
 11 12  2  0  0  0  0
 11 13  1  0  0  0  0
 13 14  1  0  0  0  0
 13 33  1  0  0  0  0
 14 19  1  0  0  0  0
 14 15  2  0  0  0  0
 15 16  1  0  0  0  0
 15 34  1  0  0  0  0
 16 17  2  0  0  0  0
 16 35  1  0  0  0  0
 17 18  1  0  0  0  0
 17 36  1  0  0  0  0
 18 19  2  0  0  0  0
 19 37  1  0  0  0  0
M  END
> <s_m_source_file>
AV-unprocessed.smi

> <i_m_source_file_index>
1863

> <i_lp_mmshare_version>
43012

> <i_f3d_flags>
0

> <s_epik_input>
Tz1DMVtDSDJdW0NIMl1bQ0gyXU4xW0NIMl1bQ0BASF0oW0NIM10pW05IXUMoPU8pW05IXWMyW2NIXVtjSF1bY0hdbltjSF0y

> <s_epik_cmdline>
J2VwaWtfcHl0aG9uJywgJy1waCcsICc3LjAnLCAnLXRuJywgJzgnLCAnLW1hJywgJzIwMCcsICctbWV0YWxfYmluZGluZycsICctaW1hZScsICc8aW5maWxlLm1hZT4nLCAnLW9tYWUnLCAnPG91dGZpbGUubWFlPic=

> <r_epik_Ionization_Penalty>
0.0047799

> <r_epik_Ionization_Penalty_Charging>
0

> <r_epik_Ionization_Penalty_Neutral>
0.0047799

> <r_epik_State_Penalty>
0.0034394

> <r_epik_Charging_Adjusted_Penalty>
0.0034394

> <i_epik_Tot_Q>
0

> <i_epik_Tot_abs_Q>
0

> <r_epik_Metal_State_Penalty>
-0

> <b_epik_Metal_Only>
0

> <s_lp_Force_Field>
OPLS_2005

> <r_lp_Energy>
21.1293

> <b_lp_Chiralities_Consistent>
1

> <s_lp_Variant>
AV-unprocessed.smi:1863-2

> <Gold.Version>
5.8.1

> <Gold.Id.Protein>
6NUR|6NUR_protein|mol2

> <Gold.PLP.Fitness>
42.2878

> <Gold.PLP.PLP>
-36.8496

> <Gold.PLP.part.hbond>
-1.8763

> <Gold.PLP.part.metal>
0.0000

> <Gold.PLP.part.buried>
-3.2103

> <Gold.PLP.part.nonpolar>
-31.9703

> <Gold.PLP.part.repulsive>
0.5185

> <Gold.PLP.ligand.clash>
0.0000

> <Gold.PLP.ligand.torsion>
0.3679

> <Gold.PLP.Chemscore.Hbond>
1.0000

> <Gold.PLP.Chemscore.CHOScore>
1.0526

> <Gold.PLP.Chemscore.Metal>
0.0000

> <Gold.Chemscore.Hbonds>
donor molecule, donor type, donor heavy atom, donor atom, acceptor molecule, acceptor atom, score
      L1  H    10    32       P1  7957  1.00
      L1  C    17    36       P1 10186  0.13
      L1  C    19    37       P1 10175  0.97

> <Gold.PLP.Chemscore.Internal.Correction>
0.0164

> <Gold.Rescore>
     Score         DG    S(hbond)    S(metal)    S(lipo)     H(rot)  DE(clash)    DE(int)     intcor
     10.60     -13.22       0.98        0.00      71.83       1.54       0.01       2.62       ----

> <Gold.Chemscore.Fitness>
10.5991

> <Gold.Chemscore.DG>
-13.2225

> <Gold.Chemscore.ZeroCoef>
-5.4800

> <Gold.Chemscore.Hbond>
0.9843

> <Gold.Chemscore.Metal>
0.0000

> <Gold.Chemscore.Lipo>
71.8345

> <Gold.Chemscore.Internal_Hbond>
0.0000

> <Gold.Chemscore.DEClash>
0.0077

> <Gold.Chemscore.DEInternal>
2.6156

> <Gold.Chemscore.Rot>
1.5428

> <Gold.Chemscore.Internal.Correction>
   9.000000E+99

> <Gold.Chemscore.Hbonds>
donor molecule, donor type, donor heavy atom, donor atom, acceptor molecule, acceptor atom, score
      L1  H    10    32       P1  7957  0.92

> <Gold.Chemscore.Hbond.Weighted>
-3.2875

> <Gold.Chemscore.Metal.Weighted>
-0.0000

> <Gold.Chemscore.Lipo.Weighted>
-8.4046

> <Gold.Chemscore.Internal_Hbond.Weighted>
0.0000

> <Gold.Chemscore.DEClash.Weighted>
0.0077

> <Gold.Chemscore.DEInternal.Weighted>
2.6156

> <Gold.Chemscore.Rot.Weighted>
3.9497

> <Gold.Chemscore.Internal.Correction.Weighted>
   9.000000E+99

> <Gold.Protein.RotatedTorsions>
[ 6907 6896 6895 6894 ] final  -56.45 input  -60.11 | X-H torsion
[ 7974 7965 7964 7962 ] final  125.62 input  175.53 | X-H torsion
[ 8008 7997 7996 7995 ] final   64.32 input   59.86 | X-H torsion
[ 10167 10162 10161 10158 ] final  -84.79 input  -65.29 | X-H torsion
[ 10718 10713 10712 10709 ] final -105.04 input   66.30 | X-H torsion
[ 10763 10752 10751 10750 ] final  101.23 input  -60.55 | X-H torsion
[ 11005 11000 10999 10996 ] final  -29.58 input  -57.11 | X-H torsion

> <Gold.Protein.ActiveResidues>
 VAL166  LYS551  ARG553  GLY616  TRP617  ASP618  TYR619  PRO620  LYS621  CYS622 
 ASP623  PHE694  ASN695  SER759  ASP760  ASP761  ALA762  ILE779  LEU786  VAL792 
 PHE793  MET794  SER795  GLU796  ALA797  LYS798  CYS799  TRP800  GLU811  SER814 

> <Gold.Protein.RotatedAtoms>
  150.8167  134.7352  159.6735 H   0  0  0  0  0  0  0  0  0  0  0  0  # atno 6907 bound_to 6896
  152.4285  134.5820  159.9960 H   0  0  0  0  0  0  0  0  0  0  0  0  # atno 6908 bound_to 6896
  151.6015  133.3318  159.3084 H   0  0  0  0  0  0  0  0  0  0  0  0  # atno 6909 bound_to 6896
  145.0710  139.3730  143.4957 H   0  0  0  0  0  0  0  0  0  0  0  0  # atno 7974 bound_to 7965
  155.6442  140.3497  155.4725 H   0  0  0  0  0  0  0  0  0  0  0  0  # atno 8008 bound_to 7997
  155.9901  140.1192  157.0670 H   0  0  0  0  0  0  0  0  0  0  0  0  # atno 8009 bound_to 7997
  154.4216  140.1121  156.5539 H   0  0  0  0  0  0  0  0  0  0  0  0  # atno 8010 bound_to 7997
  140.4099  143.2627  151.9032 H   0  0  0  0  0  0  0  0  0  0  0  0  # atno 10167 bound_to 10162
  156.0329  130.5544  150.7482 H   0  0  0  0  0  0  0  0  0  0  0  0  # atno 10718 bound_to 10713
  153.3240  135.4051  155.1441 H   0  0  0  0  0  0  0  0  0  0  0  0  # atno 10763 bound_to 10752
  154.8607  135.3594  154.5558 H   0  0  0  0  0  0  0  0  0  0  0  0  # atno 10764 bound_to 10752
  153.5993  135.7071  153.5450 H   0  0  0  0  0  0  0  0  0  0  0  0  # atno 10765 bound_to 10752
  140.9309  133.7339  156.0935 H   0  0  0  0  0  0  0  0  0  0  0  0  # atno 11005 bound_to 11000
  146.3528  140.0454  142.8640 LP  0  0  0  0  0  0  0  0  0  0  0  0  # atno 17320 bound_to 7965
  145.1293  140.9508  143.4554 LP  0  0  0  0  0  0  0  0  0  0  0  0  # atno 17321 bound_to 7965
  139.4783  144.5548  151.8331 LP  0  0  0  0  0  0  0  0  0  0  0  0  # atno 17342 bound_to 10162
  140.4649  144.1669  150.5910 LP  0  0  0  0  0  0  0  0  0  0  0  0  # atno 17343 bound_to 10162
  157.5033  131.0920  151.0288 LP  0  0  0  0  0  0  0  0  0  0  0  0  # atno 17370 bound_to 10713
  157.0662  130.5845  149.5394 LP  0  0  0  0  0  0  0  0  0  0  0  0  # atno 17371 bound_to 10713
  140.7864  134.3667  157.5475 LP  0  0  0  0  0  0  0  0  0  0  0  0  # atno 17394 bound_to 11000
  139.8796  134.9113  156.3034 LP  0  0  0  0  0  0  0  0  0  0  0  0  # atno 17395 bound_to 11000

$$$$
