AV-unprocessed.smi:2604|AV-procd|sdf|10189|dock7
  -GOLD-   2272014203D 1   1.00000     0.00000
 Structure written by MMmdl.
 26 27  0  0  0  0  0  0  0  0  2 V2000
  149.2851  141.4226  156.1760 C   0  0  0  0  0  0  0  0  0  0  0  0
  150.5691  141.0129  155.7660 C   0  0  0  0  0  0  0  0  0  0  0  0
  150.7848  140.2020  154.7080 N   0  0  0  0  0  0  0  0  0  0  0  0
  149.7108  139.7633  154.0175 C   0  0  0  0  0  0  0  0  0  0  0  0
  148.3809  140.1066  154.3449 C   0  0  0  0  0  0  0  0  0  0  0  0
  147.2232  139.5820  153.5111 C   0  0  2  0  0  0  0  0  0  0  0  0
  146.2597  138.7298  154.3683 C   0  0  0  0  0  0  0  0  0  0  0  0
  145.1185  138.2627  153.5552 N   0  3  0  0  0  0  0  0  0  0  0  0
  145.5815  137.5294  152.3607 C   0  0  0  0  0  0  0  0  0  0  0  0
  146.5443  138.4099  151.5438 C   0  0  0  0  0  0  0  0  0  0  0  0
  147.6855  138.7917  152.3698 N   0  0  0  0  0  0  0  0  0  0  0  0
  148.1706  140.9612  155.4498 C   0  0  0  0  0  0  0  0  0  0  0  0
  149.1594  142.0756  157.0270 H   0  0  0  0  0  0  0  0  0  0  0  0
  151.4459  141.3469  156.3007 H   0  0  0  0  0  0  0  0  0  0  0  0
  149.9212  139.1189  153.1765 H   0  0  0  0  0  0  0  0  0  0  0  0
  146.6834  140.4468  153.1213 H   0  0  0  0  0  0  0  0  0  0  0  0
  146.7755  137.8674  154.7936 H   0  0  0  0  0  0  0  0  0  0  0  0
  145.8748  139.3156  155.2036 H   0  0  0  0  0  0  0  0  0  0  0  0
  144.5303  137.6612  154.1139 H   0  0  0  0  0  0  0  0  0  0  0  0
  146.0724  136.6044  152.6669 H   0  0  0  0  0  0  0  0  0  0  0  0
  144.7177  137.2493  151.7573 H   0  0  0  0  0  0  0  0  0  0  0  0
  146.9064  137.8612  150.6741 H   0  0  0  0  0  0  0  0  0  0  0  0
  146.0376  139.3015  151.1716 H   0  0  0  0  0  0  0  0  0  0  0  0
  148.3355  139.3376  151.8210 H   0  0  0  0  0  0  0  0  0  0  0  0
  147.1736  141.2614  155.7377 H   0  0  0  0  0  0  0  0  0  0  0  0
  144.5838  139.0653  153.2555 H   0  0  0  0  0  0  0  0  0  0  0  0
  1 12  1  0  0  0  0
  1  2  2  0  0  0  0
  1 13  1  0  0  0  0
  2  3  1  0  0  0  0
  2 14  1  0  0  0  0
  3  4  2  0  0  0  0
  4  5  1  0  0  0  0
  4 15  1  0  0  0  0
  5  6  1  0  0  0  0
  5 12  2  0  0  0  0
  6 11  1  0  0  0  0
  6  7  1  0  0  0  0
  6 16  1  0  0  0  0
  7  8  1  0  0  0  0
  7 17  1  0  0  0  0
  7 18  1  0  0  0  0
  8  9  1  0  0  0  0
  8 19  1  0  0  0  0
  8 26  1  0  0  0  0
  9 10  1  0  0  0  0
  9 20  1  0  0  0  0
  9 21  1  0  0  0  0
 10 11  1  0  0  0  0
 10 22  1  0  0  0  0
 10 23  1  0  0  0  0
 11 24  1  0  0  0  0
 12 25  1  0  0  0  0
M  CHG  1   8   1
M  END
> <s_m_source_file>
AV-unprocessed.smi

> <i_m_source_file_index>
2604

> <i_lp_mmshare_version>
43012

> <i_f3d_flags>
0

> <s_epik_input>
W2NIXTFbY0hdW2NIXW5bY0hdYzFbQ0BASF0yW0NIMl1bTkhdW0NIMl1bQ0gyXVtOSF0y

> <s_epik_cmdline>
J2VwaWtfcHl0aG9uJywgJy1waCcsICc3LjAnLCAnLXRuJywgJzgnLCAnLW1hJywgJzIwMCcsICctbWV0YWxfYmluZGluZycsICctaW1hZScsICc8aW5maWxlLm1hZT4nLCAnLW9tYWUnLCAnPG91dGZpbGUubWFlPic=

> <r_epik_Ionization_Penalty>
0.0181456

> <r_epik_Ionization_Penalty_Charging>
0.010317

> <r_epik_Ionization_Penalty_Neutral>
0.00782861

> <r_epik_State_Penalty>
0.306622

> <r_epik_Charging_Adjusted_Penalty>
0.316939

> <i_epik_Tot_Q>
1

> <i_epik_Tot_abs_Q>
1

> <r_epik_Metal_State_Penalty>
0.302658

> <b_epik_Metal_Only>
0

> <s_lp_Force_Field>
OPLS_2005

> <r_lp_Energy>
10.6943

> <b_lp_Chiralities_Consistent>
1

> <s_lp_Variant>
AV-unprocessed.smi:2604-1

> <Gold.Version>
5.8.1

> <Gold.Id.Protein>
6NUR|6NUR_protein|mol2

> <Gold.PLP.Fitness>
34.9046

> <Gold.PLP.PLP>
-20.7539

> <Gold.PLP.part.hbond>
-4.0000

> <Gold.PLP.part.metal>
0.0000

> <Gold.PLP.part.buried>
0.8876

> <Gold.PLP.part.nonpolar>
-18.5378

> <Gold.PLP.part.repulsive>
0.0764

> <Gold.PLP.ligand.clash>
0.0000

> <Gold.PLP.ligand.torsion>
0.0125

> <Gold.PLP.Chemscore.Hbond>
4.0000

> <Gold.PLP.Chemscore.CHOScore>
0.7225

> <Gold.PLP.Chemscore.Metal>
0.0000

> <Gold.Chemscore.Hbonds>
donor molecule, donor type, donor heavy atom, donor atom, acceptor molecule, acceptor atom, score
      L1  H     8    26       P1 10175  2.00
      L1  H    11    24       P1  7957  1.00
      P1  H  7989  7998       L1     3  1.00
      L1  C     4    15       P1  7957  0.72

> <Gold.PLP.Chemscore.Internal.Correction>
0.0081

> <Gold.Rescore>
     Score         DG    S(hbond)    S(metal)    S(lipo)     H(rot)  DE(clash)    DE(int)     intcor
     16.33     -16.75       2.31        0.00      52.39       1.00       0.42       0.01       ----

> <Gold.Chemscore.Fitness>
16.3252

> <Gold.Chemscore.DG>
-16.7525

> <Gold.Chemscore.ZeroCoef>
-5.4800

> <Gold.Chemscore.Hbond>
2.3063

> <Gold.Chemscore.Metal>
0.0000

> <Gold.Chemscore.Lipo>
52.3899

> <Gold.Chemscore.Internal_Hbond>
0.0000

> <Gold.Chemscore.DEClash>
0.4218

> <Gold.Chemscore.DEInternal>
0.0055

> <Gold.Chemscore.Rot>
1.0000

> <Gold.Chemscore.Internal.Correction>
   9.000000E+99

> <Gold.Chemscore.Hbonds>
donor molecule, donor type, donor heavy atom, donor atom, acceptor molecule, acceptor atom, score
      L1  H     8    26       P1 10175  1.00
      L1  H    11    24       P1  7957  0.96
      P1  H  7989  7998       L1     3  0.23

> <Gold.Chemscore.Hbond.Weighted>
-7.7029

> <Gold.Chemscore.Metal.Weighted>
-0.0000

> <Gold.Chemscore.Lipo.Weighted>
-6.1296

> <Gold.Chemscore.Internal_Hbond.Weighted>
0.0000

> <Gold.Chemscore.DEClash.Weighted>
0.4218

> <Gold.Chemscore.DEInternal.Weighted>
0.0055

> <Gold.Chemscore.Rot.Weighted>
2.5600

> <Gold.Chemscore.Internal.Correction.Weighted>
   9.000000E+99

> <Gold.Protein.RotatedTorsions>
[ 6907 6896 6895 6894 ] final -137.71 input  -60.11 | X-H torsion
[ 7974 7965 7964 7962 ] final  -84.80 input  175.53 | X-H torsion
[ 8008 7997 7996 7995 ] final  -19.16 input   59.86 | X-H torsion
[ 10167 10162 10161 10158 ] final  -38.27 input  -65.29 | X-H torsion
[ 10718 10713 10712 10709 ] final  -69.84 input   66.30 | X-H torsion
[ 10763 10752 10751 10750 ] final   28.95 input  -60.55 | X-H torsion
[ 11005 11000 10999 10996 ] final  161.76 input  -57.11 | X-H torsion

> <Gold.Protein.ActiveResidues>
 VAL166  LYS551  ARG553  GLY616  TRP617  ASP618  TYR619  PRO620  LYS621  CYS622 
 ASP623  PHE694  ASN695  SER759  ASP760  ASP761  ALA762  ILE779  LEU786  VAL792 
 PHE793  MET794  SER795  GLU796  ALA797  LYS798  CYS799  TRP800  GLU811  SER814 

> <Gold.Protein.RotatedAtoms>
  151.0259  133.5834  159.2665 H   0  0  0  0  0  0  0  0  0  0  0  0  # atno 6907 bound_to 6896
  151.2934  135.0747  159.9222 H   0  0  0  0  0  0  0  0  0  0  0  0  # atno 6908 bound_to 6896
  152.5334  133.9953  159.7924 H   0  0  0  0  0  0  0  0  0  0  0  0  # atno 6909 bound_to 6896
  145.5017  140.9546  143.1756 H   0  0  0  0  0  0  0  0  0  0  0  0  # atno 7974 bound_to 7965
  154.4856  140.2096  155.9663 H   0  0  0  0  0  0  0  0  0  0  0  0  # atno 8008 bound_to 7997
  156.1231  140.3210  155.8206 H   0  0  0  0  0  0  0  0  0  0  0  0  # atno 8009 bound_to 7997
  155.4433  140.0511  157.2999 H   0  0  0  0  0  0  0  0  0  0  0  0  # atno 8010 bound_to 7997
  140.7096  143.3288  151.2618 H   0  0  0  0  0  0  0  0  0  0  0  0  # atno 10167 bound_to 10162
  156.0436  130.4320  150.2207 H   0  0  0  0  0  0  0  0  0  0  0  0  # atno 10718 bound_to 10713
  153.0460  135.6501  154.0816 H   0  0  0  0  0  0  0  0  0  0  0  0  # atno 10763 bound_to 10752
  154.0514  135.2895  155.3341 H   0  0  0  0  0  0  0  0  0  0  0  0  # atno 10764 bound_to 10752
  154.6718  135.5353  153.8213 H   0  0  0  0  0  0  0  0  0  0  0  0  # atno 10765 bound_to 10752
  140.2190  134.8210  157.3200 H   0  0  0  0  0  0  0  0  0  0  0  0  # atno 11005 bound_to 11000
  144.7776  139.6596  143.7168 LP  0  0  0  0  0  0  0  0  0  0  0  0  # atno 17320 bound_to 7965
  146.2221  139.5656  142.9611 LP  0  0  0  0  0  0  0  0  0  0  0  0  # atno 17321 bound_to 7965
  139.6764  143.9931  152.2783 LP  0  0  0  0  0  0  0  0  0  0  0  0  # atno 17342 bound_to 10162
  139.9546  144.6598  150.8138 LP  0  0  0  0  0  0  0  0  0  0  0  0  # atno 17343 bound_to 10162
  157.0299  131.0004  151.3315 LP  0  0  0  0  0  0  0  0  0  0  0  0  # atno 17370 bound_to 10713
  157.5285  130.8043  149.7889 LP  0  0  0  0  0  0  0  0  0  0  0  0  # atno 17371 bound_to 10713
  140.1870  134.4419  155.7738 LP  0  0  0  0  0  0  0  0  0  0  0  0  # atno 17394 bound_to 11000
  141.2224  133.7009  156.7963 LP  0  0  0  0  0  0  0  0  0  0  0  0  # atno 17395 bound_to 11000

$$$$
