AV-unprocessed.smi:1563|AV-procd|sdf|6292|dock9
  -GOLD-   22720 6493D 1   1.00000     0.00000
 Structure written by MMmdl.
 44 45  0  0  0  0  0  0  0  0  2 V2000
  149.5657  133.8843  154.0731 C   0  0  0  0  0  0  0  0  0  0  0  0
  150.3902  134.8376  154.9308 C   0  0  0  0  0  0  0  0  0  0  0  0
  150.9138  134.4367  155.9705 O   0  0  0  0  0  0  0  0  0  0  0  0
  150.4938  136.0990  154.4851 N   0  0  0  0  0  0  0  0  0  0  0  0
  151.2311  137.1639  155.1554 C   0  0  1  0  0  0  0  0  0  0  0  0
  152.1503  137.9117  154.1615 C   0  0  0  0  0  0  0  0  0  0  0  0
  152.8074  139.1525  154.8011 C   0  0  0  0  0  0  0  0  0  0  0  0
  151.7671  140.0180  155.5367 C   0  0  0  0  0  0  0  0  0  0  0  0
  151.0618  139.1696  156.5104 N   0  0  0  0  0  0  0  0  0  0  0  0
  151.3087  139.1015  157.8422 C   0  0  0  0  0  0  0  0  0  0  0  0
  150.6511  138.4011  158.6133 O   0  0  0  0  0  0  0  0  0  0  0  0
  152.3912  139.7891  158.2484 N   0  0  0  0  0  0  0  0  0  0  0  0
  153.0028  139.6994  159.5731 C   0  0  0  0  0  0  0  0  0  0  0  0
  154.0296  140.8253  159.8220 C   0  0  0  0  0  0  0  0  0  0  0  0
  153.4205  142.2167  159.8923 C   0  0  0  0  0  0  0  0  0  0  0  0
  153.1449  142.8560  161.1214 C   0  0  0  0  0  0  0  0  0  0  0  0
  152.5410  144.1306  161.1165 C   0  0  0  0  0  0  0  0  0  0  0  0
  152.2259  144.7396  159.8847 C   0  0  0  0  0  0  0  0  0  0  0  0
  152.5316  144.0615  158.6871 C   0  0  0  0  0  0  0  0  0  0  0  0
  153.1131  142.8426  158.7331 N   0  3  0  0  0  0  0  0  0  0  0  0
  150.2564  138.1490  155.8311 C   0  0  0  0  0  0  0  0  0  0  0  0
  149.8283  133.9873  153.0200 H   0  0  0  0  0  0  0  0  0  0  0  0
  148.5027  134.0975  154.1866 H   0  0  0  0  0  0  0  0  0  0  0  0
  149.7409  132.8491  154.3674 H   0  0  0  0  0  0  0  0  0  0  0  0
  150.0289  136.3377  153.6210 H   0  0  0  0  0  0  0  0  0  0  0  0
  151.8489  136.7250  155.9401 H   0  0  0  0  0  0  0  0  0  0  0  0
  152.9191  137.2416  153.7755 H   0  0  0  0  0  0  0  0  0  0  0  0
  151.5618  138.2327  153.3008 H   0  0  0  0  0  0  0  0  0  0  0  0
  153.5760  138.8340  155.5055 H   0  0  0  0  0  0  0  0  0  0  0  0
  153.3150  139.7416  154.0370 H   0  0  0  0  0  0  0  0  0  0  0  0
  152.2419  140.8907  155.9860 H   0  0  0  0  0  0  0  0  0  0  0  0
  151.0478  140.4198  154.8215 H   0  0  0  0  0  0  0  0  0  0  0  0
  152.8779  140.3455  157.5606 H   0  0  0  0  0  0  0  0  0  0  0  0
  152.2128  139.7521  160.3225 H   0  0  0  0  0  0  0  0  0  0  0  0
  153.4785  138.7266  159.7071 H   0  0  0  0  0  0  0  0  0  0  0  0
  154.5576  140.6295  160.7561 H   0  0  0  0  0  0  0  0  0  0  0  0
  154.7886  140.8104  159.0390 H   0  0  0  0  0  0  0  0  0  0  0  0
  153.3800  142.3726  162.0582 H   0  0  0  0  0  0  0  0  0  0  0  0
  152.3115  144.6307  162.0461 H   0  0  0  0  0  0  0  0  0  0  0  0
  151.7534  145.7108  159.8605 H   0  0  0  0  0  0  0  0  0  0  0  0
  152.3237  144.4509  157.7014 H   0  0  0  0  0  0  0  0  0  0  0  0
  149.6077  138.6196  155.0903 H   0  0  0  0  0  0  0  0  0  0  0  0
  149.5901  137.6187  156.5134 H   0  0  0  0  0  0  0  0  0  0  0  0
  153.3127  142.3656  157.8536 H   0  0  0  0  0  0  0  0  0  0  0  0
  1  2  1  0  0  0  0
  1 22  1  0  0  0  0
  1 23  1  0  0  0  0
  1 24  1  0  0  0  0
  2  3  2  0  0  0  0
  2  4  1  0  0  0  0
  4  5  1  0  0  0  0
  4 25  1  0  0  0  0
  5 21  1  0  0  0  0
  5  6  1  0  0  0  0
  5 26  1  0  0  0  0
  6  7  1  0  0  0  0
  6 27  1  0  0  0  0
  6 28  1  0  0  0  0
  7  8  1  0  0  0  0
  7 29  1  0  0  0  0
  7 30  1  0  0  0  0
  8  9  1  0  0  0  0
  8 31  1  0  0  0  0
  8 32  1  0  0  0  0
  9 10  1  0  0  0  0
  9 21  1  0  0  0  0
 10 11  2  0  0  0  0
 10 12  1  0  0  0  0
 12 13  1  0  0  0  0
 12 33  1  0  0  0  0
 13 14  1  0  0  0  0
 13 34  1  0  0  0  0
 13 35  1  0  0  0  0
 14 15  1  0  0  0  0
 14 36  1  0  0  0  0
 14 37  1  0  0  0  0
 15 20  1  0  0  0  0
 15 16  2  0  0  0  0
 16 17  1  0  0  0  0
 16 38  1  0  0  0  0
 17 18  2  0  0  0  0
 17 39  1  0  0  0  0
 18 19  1  0  0  0  0
 18 40  1  0  0  0  0
 19 20  2  0  0  0  0
 19 41  1  0  0  0  0
 20 44  1  0  0  0  0
 21 42  1  0  0  0  0
 21 43  1  0  0  0  0
M  CHG  1  20   1
M  END
> <s_m_source_file>
AV-unprocessed.smi

> <i_m_source_file_index>
1563

> <i_lp_mmshare_version>
43012

> <i_f3d_flags>
0

> <s_epik_input>
W0NIM11DKD1PKVtOSF1bQ0BASF0xW0NIMl1bQ0gyXVtDSDJdTihbQ0gyXTEpQyg9TylbTkhdW0NIMl1bQ0gyXWMyW2NIXVtjSF1bY0hdW2NIXW4y

> <s_epik_cmdline>
J2VwaWtfcHl0aG9uJywgJy1waCcsICc3LjAnLCAnLXRuJywgJzgnLCAnLW1hJywgJzIwMCcsICctbWV0YWxfYmluZGluZycsICctaW1hZScsICc8aW5maWxlLm1hZT4nLCAnLW9tYWUnLCAnPG91dGZpbGUubWFlPic=

> <r_epik_Ionization_Penalty>
1.56048

> <r_epik_Ionization_Penalty_Charging>
1.56043

> <r_epik_Ionization_Penalty_Neutral>
4.90601e-05

> <r_epik_State_Penalty>
1.65539

> <r_epik_Charging_Adjusted_Penalty>
3.21583

> <i_epik_Tot_Q>
1

> <i_epik_Tot_abs_Q>
1

> <r_epik_Metal_State_Penalty>
1.6969

> <b_epik_Metal_Only>
0

> <s_lp_Force_Field>
OPLS_2005

> <r_lp_Energy>
29.938

> <b_lp_Chiralities_Consistent>
1

> <s_lp_Variant>
AV-unprocessed.smi:1563-4

> <Gold.Version>
5.8.1

> <Gold.Id.Protein>
6NUR|6NUR_protein|mol2

> <Gold.PLP.Fitness>
47.5383

> <Gold.PLP.PLP>
-45.6695

> <Gold.PLP.part.hbond>
-1.4980

> <Gold.PLP.part.metal>
0.0000

> <Gold.PLP.part.buried>
-4.8235

> <Gold.PLP.part.nonpolar>
-39.1059

> <Gold.PLP.part.repulsive>
0.2313

> <Gold.PLP.ligand.clash>
0.0000

> <Gold.PLP.ligand.torsion>
0.6046

> <Gold.PLP.Chemscore.Hbond>
1.0000

> <Gold.PLP.Chemscore.CHOScore>
0.0000

> <Gold.PLP.Chemscore.Metal>
0.0000

> <Gold.Chemscore.Hbonds>
donor molecule, donor type, donor heavy atom, donor atom, acceptor molecule, acceptor atom, score
      L1  H     4    25       P1  7948  0.75

> <Gold.PLP.Chemscore.Internal.Correction>
0.0780

> <Gold.Rescore>
     Score         DG    S(hbond)    S(metal)    S(lipo)     H(rot)  DE(clash)    DE(int)     intcor
     15.95     -16.48       0.82        0.00     109.13       1.77       0.01       0.52       ----

> <Gold.Chemscore.Fitness>
15.9540

> <Gold.Chemscore.DG>
-16.4784

> <Gold.Chemscore.ZeroCoef>
-5.4800

> <Gold.Chemscore.Hbond>
0.8236

> <Gold.Chemscore.Metal>
0.0000

> <Gold.Chemscore.Lipo>
109.1348

> <Gold.Chemscore.Internal_Hbond>
0.0000

> <Gold.Chemscore.DEClash>
0.0060

> <Gold.Chemscore.DEInternal>
0.5184

> <Gold.Chemscore.Rot>
1.7661

> <Gold.Chemscore.Internal.Correction>
   9.000000E+99

> <Gold.Chemscore.Hbonds>
donor molecule, donor type, donor heavy atom, donor atom, acceptor molecule, acceptor atom, score
      L1  H     4    25       P1  7948  0.09

> <Gold.Chemscore.Hbond.Weighted>
-2.7508

> <Gold.Chemscore.Metal.Weighted>
-0.0000

> <Gold.Chemscore.Lipo.Weighted>
-12.7688

> <Gold.Chemscore.Internal_Hbond.Weighted>
0.0000

> <Gold.Chemscore.DEClash.Weighted>
0.0060

> <Gold.Chemscore.DEInternal.Weighted>
0.5184

> <Gold.Chemscore.Rot.Weighted>
4.5211

> <Gold.Chemscore.Internal.Correction.Weighted>
   9.000000E+99

> <Gold.Protein.RotatedTorsions>
[ 6907 6896 6895 6894 ] final  -52.39 input  -60.11 | X-H torsion
[ 7974 7965 7964 7962 ] final -106.29 input  175.53 | X-H torsion
[ 8008 7997 7996 7995 ] final   91.62 input   59.86 | X-H torsion
[ 10167 10162 10161 10158 ] final   25.81 input  -65.29 | X-H torsion
[ 10718 10713 10712 10709 ] final  -76.58 input   66.30 | X-H torsion
[ 10763 10752 10751 10750 ] final  -77.38 input  -60.55 | X-H torsion
[ 11005 11000 10999 10996 ] final  -17.26 input  -57.11 | X-H torsion

> <Gold.Protein.ActiveResidues>
 VAL166  LYS551  ARG553  GLY616  TRP617  ASP618  TYR619  PRO620  LYS621  CYS622 
 ASP623  PHE694  ASN695  SER759  ASP760  ASP761  ALA762  ILE779  LEU786  VAL792 
 PHE793  MET794  SER795  GLU796  ALA797  LYS798  CYS799  TRP800  GLU811  SER814 

> <Gold.Protein.RotatedAtoms>
  150.8522  134.7850  159.7017 H   0  0  0  0  0  0  0  0  0  0  0  0  # atno 6907 bound_to 6896
  152.4583  134.5238  159.9800 H   0  0  0  0  0  0  0  0  0  0  0  0  # atno 6908 bound_to 6896
  151.5357  133.3403  159.2962 H   0  0  0  0  0  0  0  0  0  0  0  0  # atno 6909 bound_to 6896
  145.2197  140.9129  143.3266 H   0  0  0  0  0  0  0  0  0  0  0  0  # atno 7974 bound_to 7965
  156.0258  140.3335  155.7087 H   0  0  0  0  0  0  0  0  0  0  0  0  # atno 8008 bound_to 7997
  155.5956  140.0650  157.2764 H   0  0  0  0  0  0  0  0  0  0  0  0  # atno 8009 bound_to 7997
  154.4334  140.1819  156.1108 H   0  0  0  0  0  0  0  0  0  0  0  0  # atno 8010 bound_to 7997
  140.5075  144.0214  150.6358 H   0  0  0  0  0  0  0  0  0  0  0  0  # atno 10167 bound_to 10162
  156.0171  130.4469  150.3215 H   0  0  0  0  0  0  0  0  0  0  0  0  # atno 10718 bound_to 10713
  154.5122  135.5766  153.6614 H   0  0  0  0  0  0  0  0  0  0  0  0  # atno 10763 bound_to 10752
  152.9899  135.6161  154.2864 H   0  0  0  0  0  0  0  0  0  0  0  0  # atno 10764 bound_to 10752
  154.2780  135.2851  155.2689 H   0  0  0  0  0  0  0  0  0  0  0  0  # atno 10765 bound_to 10752
  140.8150  133.8111  155.9602 H   0  0  0  0  0  0  0  0  0  0  0  0  # atno 11005 bound_to 11000
  144.9777  139.3815  143.6277 LP  0  0  0  0  0  0  0  0  0  0  0  0  # atno 17320 bound_to 7965
  146.3379  139.8903  142.8810 LP  0  0  0  0  0  0  0  0  0  0  0  0  # atno 17321 bound_to 7965
  140.3527  143.2953  152.0469 LP  0  0  0  0  0  0  0  0  0  0  0  0  # atno 17342 bound_to 10162
  139.4887  144.6361  151.6971 LP  0  0  0  0  0  0  0  0  0  0  0  0  # atno 17343 bound_to 10162
  157.1315  131.0273  151.2967 LP  0  0  0  0  0  0  0  0  0  0  0  0  # atno 17370 bound_to 10713
  157.4547  130.7618  149.7182 LP  0  0  0  0  0  0  0  0  0  0  0  0  # atno 17371 bound_to 10713
  140.9158  134.2204  157.4958 LP  0  0  0  0  0  0  0  0  0  0  0  0  # atno 17394 bound_to 11000
  139.8711  134.9770  156.4944 LP  0  0  0  0  0  0  0  0  0  0  0  0  # atno 17395 bound_to 11000

$$$$
