AV-unprocessed.smi:2503|AV-procd|sdf|9847|dock1
  -GOLD-   2272013473D 1   1.00000     0.00000
 Structure written by MMmdl.
 37 38  0  0  0  0  0  0  0  0  2 V2000
  146.6629  138.6423  151.7023 C   0  0  0  0  0  0  0  0  0  0  0  0
  146.9466  138.6748  153.2102 C   0  0  0  0  0  0  0  0  0  0  0  0
  145.8904  137.8863  154.0006 C   0  0  0  0  0  0  0  0  0  0  0  0
  147.0865  140.0879  153.7065 C   0  0  0  0  0  0  0  0  0  0  0  0
  146.1414  141.0335  153.6265 N   0  3  0  0  0  0  0  0  0  0  0  0
  146.5986  142.2163  154.1386 C   0  0  0  0  0  0  0  0  0  0  0  0
  147.8899  141.9913  154.5349 C   0  0  0  0  0  0  0  0  0  0  0  0
  148.1688  140.6784  154.2490 N   0  0  0  0  0  0  0  0  0  0  0  0
  149.4490  139.9967  154.4963 C   0  0  0  0  0  0  0  0  0  0  0  0
  149.9506  140.1929  155.9321 C   0  0  0  0  0  0  0  0  0  0  0  0
  150.0070  139.2240  156.6932 O   0  0  0  0  0  0  0  0  0  0  0  0
  150.3028  141.4619  156.2420 N   0  0  0  0  0  0  0  0  0  0  0  0
  150.8132  141.9926  157.3786 C   0  0  0  0  0  0  0  0  0  0  0  0
  151.3085  141.2644  158.2369 O   0  0  0  0  0  0  0  0  0  0  0  0
  150.7421  143.3296  157.5178 N   0  0  0  0  0  0  0  0  0  0  0  0
  151.2169  144.0784  158.6359 C   0  0  0  0  0  0  0  0  0  0  0  0
  152.4150  144.9771  158.4197 C   0  0  0  0  0  0  0  0  0  0  0  0
  152.5678  143.7047  159.2064 C   0  0  0  0  0  0  0  0  0  0  0  0
  147.4523  139.1442  151.1422 H   0  0  0  0  0  0  0  0  0  0  0  0
  145.7201  139.1361  151.4647 H   0  0  0  0  0  0  0  0  0  0  0  0
  146.6020  137.6167  151.3373 H   0  0  0  0  0  0  0  0  0  0  0  0
  147.9052  138.1887  153.3858 H   0  0  0  0  0  0  0  0  0  0  0  0
  146.1239  137.8780  155.0657 H   0  0  0  0  0  0  0  0  0  0  0  0
  145.8474  136.8491  153.6672 H   0  0  0  0  0  0  0  0  0  0  0  0
  144.8943  138.3127  153.8788 H   0  0  0  0  0  0  0  0  0  0  0  0
  145.9884  143.1069  154.1778 H   0  0  0  0  0  0  0  0  0  0  0  0
  148.6147  142.6533  154.9866 H   0  0  0  0  0  0  0  0  0  0  0  0
  149.3282  138.9384  154.2604 H   0  0  0  0  0  0  0  0  0  0  0  0
  150.1877  140.3980  153.8015 H   0  0  0  0  0  0  0  0  0  0  0  0
  150.1668  142.1316  155.4988 H   0  0  0  0  0  0  0  0  0  0  0  0
  150.3149  143.8570  156.7695 H   0  0  0  0  0  0  0  0  0  0  0  0
  150.4774  144.4298  159.3543 H   0  0  0  0  0  0  0  0  0  0  0  0
  152.8564  145.0082  157.4252 H   0  0  0  0  0  0  0  0  0  0  0  0
  152.4435  145.9154  158.9703 H   0  0  0  0  0  0  0  0  0  0  0  0
  152.6991  143.7928  160.2829 H   0  0  0  0  0  0  0  0  0  0  0  0
  153.1116  142.8871  158.7366 H   0  0  0  0  0  0  0  0  0  0  0  0
  145.2160  140.8880  153.2427 H   0  0  0  0  0  0  0  0  0  0  0  0
  1  2  1  0  0  0  0
  1 19  1  0  0  0  0
  1 20  1  0  0  0  0
  1 21  1  0  0  0  0
  2  3  1  0  0  0  0
  2  4  1  0  0  0  0
  2 22  1  0  0  0  0
  3 23  1  0  0  0  0
  3 24  1  0  0  0  0
  3 25  1  0  0  0  0
  4  8  1  0  0  0  0
  4  5  2  0  0  0  0
  5  6  1  0  0  0  0
  5 37  1  0  0  0  0
  6  7  2  0  0  0  0
  6 26  1  0  0  0  0
  7  8  1  0  0  0  0
  7 27  1  0  0  0  0
  8  9  1  0  0  0  0
  9 10  1  0  0  0  0
  9 28  1  0  0  0  0
  9 29  1  0  0  0  0
 10 11  2  0  0  0  0
 10 12  1  0  0  0  0
 12 13  1  0  0  0  0
 12 30  1  0  0  0  0
 13 14  2  0  0  0  0
 13 15  1  0  0  0  0
 15 16  1  0  0  0  0
 15 31  1  0  0  0  0
 16 18  1  0  0  0  0
 16 17  1  0  0  0  0
 16 32  1  0  0  0  0
 17 18  1  0  0  0  0
 17 33  1  0  0  0  0
 17 34  1  0  0  0  0
 18 35  1  0  0  0  0
 18 36  1  0  0  0  0
M  CHG  1   5   1
M  END
> <s_m_source_file>
AV-unprocessed.smi

> <i_m_source_file_index>
2503

> <i_lp_mmshare_version>
43012

> <i_f3d_flags>
0

> <s_epik_input>
W0NIM11bQ0hdKFtDSDNdKWMxbltjSF1bY0hdbjFbQ0gyXUMoPU8pW05IXUMoPU8pW05IXVtDSF0yW0NIMl1bQ0gyXTI=

> <s_epik_cmdline>
J2VwaWtfcHl0aG9uJywgJy1waCcsICc3LjAnLCAnLXRuJywgJzgnLCAnLW1hJywgJzIwMCcsICctbWV0YWxfYmluZGluZycsICctaW1hZScsICc8aW5maWxlLm1hZT4nLCAnLW9tYWUnLCAnPG91dGZpbGUubWFlPic=

> <r_lp_tautomer_probability>
1

> <r_epik_Ionization_Penalty>
0.381304

> <r_epik_Ionization_Penalty_Charging>
0

> <r_epik_Ionization_Penalty_Neutral>
0.381304

> <r_epik_State_Penalty>
0.37936

> <r_epik_Charging_Adjusted_Penalty>
0.37936

> <i_epik_Tot_Q>
1

> <i_epik_Tot_abs_Q>
1

> <r_epik_Metal_State_Penalty>
0.628559

> <b_epik_Metal_Only>
0

> <s_lp_Force_Field>
OPLS_2005

> <r_lp_Energy>
25.6891

> <b_lp_Chiralities_Consistent>
1

> <s_lp_Variant>
AV-unprocessed.smi:2503-1

> <Gold.Version>
5.8.1

> <Gold.Id.Protein>
6NUR|6NUR_protein|mol2

> <Gold.PLP.Fitness>
50.6509

> <Gold.PLP.PLP>
-39.2116

> <Gold.PLP.part.hbond>
-2.0000

> <Gold.PLP.part.metal>
0.0000

> <Gold.PLP.part.buried>
-3.6324

> <Gold.PLP.part.nonpolar>
-35.0246

> <Gold.PLP.part.repulsive>
0.1167

> <Gold.PLP.ligand.clash>
0.0000

> <Gold.PLP.ligand.torsion>
0.3589

> <Gold.PLP.Chemscore.Hbond>
3.0000

> <Gold.PLP.Chemscore.CHOScore>
1.0000

> <Gold.PLP.Chemscore.Metal>
0.0000

> <Gold.Chemscore.Hbonds>
donor molecule, donor type, donor heavy atom, donor atom, acceptor molecule, acceptor atom, score
      L1  H     5    37       P1 10175  2.00
      L1  H    15    31       P1  8028  1.00
      L1  C     7    27       P1  8028  1.00

> <Gold.PLP.Chemscore.Internal.Correction>
0.1571

> <Gold.Rescore>
     Score         DG    S(hbond)    S(metal)    S(lipo)     H(rot)  DE(clash)    DE(int)     intcor
     13.39     -16.35       1.92        0.00      77.94       1.82       0.10       2.86       ----

> <Gold.Chemscore.Fitness>
13.3941

> <Gold.Chemscore.DG>
-16.3543

> <Gold.Chemscore.ZeroCoef>
-5.4800

> <Gold.Chemscore.Hbond>
1.9221

> <Gold.Chemscore.Metal>
0.0000

> <Gold.Chemscore.Lipo>
77.9381

> <Gold.Chemscore.Internal_Hbond>
0.0000

> <Gold.Chemscore.DEClash>
0.1037

> <Gold.Chemscore.DEInternal>
2.8565

> <Gold.Chemscore.Rot>
1.8220

> <Gold.Chemscore.Internal.Correction>
   9.000000E+99

> <Gold.Chemscore.Hbonds>
donor molecule, donor type, donor heavy atom, donor atom, acceptor molecule, acceptor atom, score
      L1  H     5    37       P1 10175  0.60
      L1  H    15    31       P1  8028  0.96

> <Gold.Chemscore.Hbond.Weighted>
-6.4198

> <Gold.Chemscore.Metal.Weighted>
-0.0000

> <Gold.Chemscore.Lipo.Weighted>
-9.1188

> <Gold.Chemscore.Internal_Hbond.Weighted>
0.0000

> <Gold.Chemscore.DEClash.Weighted>
0.1037

> <Gold.Chemscore.DEInternal.Weighted>
2.8565

> <Gold.Chemscore.Rot.Weighted>
4.6643

> <Gold.Chemscore.Internal.Correction.Weighted>
   9.000000E+99

> <Gold.Protein.RotatedTorsions>
[ 6907 6896 6895 6894 ] final   29.66 input  -60.11 | X-H torsion
[ 7974 7965 7964 7962 ] final   36.83 input  175.53 | X-H torsion
[ 8008 7997 7996 7995 ] final   36.96 input   59.86 | X-H torsion
[ 10167 10162 10161 10158 ] final   99.39 input  -65.29 | X-H torsion
[ 10718 10713 10712 10709 ] final -129.28 input   66.30 | X-H torsion
[ 10763 10752 10751 10750 ] final  -18.61 input  -60.55 | X-H torsion
[ 11005 11000 10999 10996 ] final  143.08 input  -57.11 | X-H torsion

> <Gold.Protein.ActiveResidues>
 VAL166  LYS551  ARG553  GLY616  TRP617  ASP618  TYR619  PRO620  LYS621  CYS622 
 ASP623  PHE694  ASN695  SER759  ASP760  ASP761  ALA762  ILE779  LEU786  VAL792 
 PHE793  MET794  SER795  GLU796  ALA797  LYS798  CYS799  TRP800  GLU811  SER814 

> <Gold.Protein.RotatedAtoms>
  152.0348  134.9746  160.0572 H   0  0  0  0  0  0  0  0  0  0  0  0  # atno 6907 bound_to 6896
  152.1208  133.4348  159.4683 H   0  0  0  0  0  0  0  0  0  0  0  0  # atno 6908 bound_to 6896
  150.6849  134.2455  159.4533 H   0  0  0  0  0  0  0  0  0  0  0  0  # atno 6909 bound_to 6896
  146.1182  139.5969  142.9307 H   0  0  0  0  0  0  0  0  0  0  0  0  # atno 7974 bound_to 7965
  155.1960  140.3312  155.4351 H   0  0  0  0  0  0  0  0  0  0  0  0  # atno 8008 bound_to 7997
  156.2425  140.1902  156.7000 H   0  0  0  0  0  0  0  0  0  0  0  0  # atno 8009 bound_to 7997
  154.6174  140.0600  156.9557 H   0  0  0  0  0  0  0  0  0  0  0  0  # atno 8010 bound_to 7997
  139.7621  144.6951  151.0277 H   0  0  0  0  0  0  0  0  0  0  0  0  # atno 10167 bound_to 10162
  156.2032  130.6870  151.0563 H   0  0  0  0  0  0  0  0  0  0  0  0  # atno 10718 bound_to 10713
  153.5919  135.7002  153.5419 H   0  0  0  0  0  0  0  0  0  0  0  0  # atno 10763 bound_to 10752
  153.3171  135.4084  155.1385 H   0  0  0  0  0  0  0  0  0  0  0  0  # atno 10764 bound_to 10752
  154.8599  135.3686  154.5451 H   0  0  0  0  0  0  0  0  0  0  0  0  # atno 10765 bound_to 10752
  140.0526  134.9247  157.1045 H   0  0  0  0  0  0  0  0  0  0  0  0  # atno 11005 bound_to 11000
  145.5521  141.0412  143.2272 LP  0  0  0  0  0  0  0  0  0  0  0  0  # atno 17320 bound_to 7965
  144.7573  139.7044  143.7249 LP  0  0  0  0  0  0  0  0  0  0  0  0  # atno 17321 bound_to 7965
  140.7808  143.4684  151.0179 LP  0  0  0  0  0  0  0  0  0  0  0  0  # atno 17342 bound_to 10162
  139.8370  143.7614  152.3180 LP  0  0  0  0  0  0  0  0  0  0  0  0  # atno 17343 bound_to 10162
  157.6997  131.0780  150.6858 LP  0  0  0  0  0  0  0  0  0  0  0  0  # atno 17370 bound_to 10713
  156.6916  130.4597  149.5598 LP  0  0  0  0  0  0  0  0  0  0  0  0  # atno 17371 bound_to 10713
  140.3893  134.2202  155.7167 LP  0  0  0  0  0  0  0  0  0  0  0  0  # atno 17394 bound_to 11000
  141.1937  133.8144  157.0786 LP  0  0  0  0  0  0  0  0  0  0  0  0  # atno 17395 bound_to 11000

$$$$
