AV-unprocessed.smi:1902|AV-procd|sdf|7720|dock2
  -GOLD-   22720 9463D 1   1.00000     0.00000
 Structure written by MMmdl.
 44 45  0  0  0  0  0  0  0  0  2 V2000
  145.5182  133.1092  150.8034 C   0  0  0  0  0  0  0  0  0  0  0  0
  145.3984  134.4255  151.5845 C   0  0  2  0  0  0  0  0  0  0  0  0
  145.7680  135.6395  150.7160 C   0  0  0  0  0  0  0  0  0  0  0  0
  145.6790  136.9496  151.5171 C   0  0  0  0  0  0  0  0  0  0  0  0
  146.5364  136.8992  152.7297 N   0  3  1  0  0  0  0  0  0  0  0  0
  146.5701  138.1992  153.4456 C   0  0  0  0  0  0  0  0  0  0  0  0
  147.1800  139.3283  152.5916 C   0  0  0  0  0  0  0  0  0  0  0  0
  148.5909  139.5239  152.9019 N   0  0  0  0  0  0  0  0  0  0  0  0
  149.0648  139.9312  154.0889 C   0  0  0  0  0  0  0  0  0  0  0  0
  148.3374  140.2163  155.0411 O   0  0  0  0  0  0  0  0  0  0  0  0
  150.5913  140.0410  154.2087 C   0  0  0  0  0  0  0  0  0  0  0  0
  151.0262  140.6186  155.4916 N   0  0  0  0  0  0  0  0  0  0  0  0
  150.6823  141.9618  155.7431 C   0  0  0  0  0  0  0  0  0  0  0  0
  151.0264  142.5809  156.8834 C   0  0  0  0  0  0  0  0  0  0  0  0
  151.7704  141.8328  157.8690 C   0  0  0  0  0  0  0  0  0  0  0  0
  152.1028  140.5470  157.6394 C   0  0  0  0  0  0  0  0  0  0  0  0
  151.7277  139.8657  156.3950 C   0  0  0  0  0  0  0  0  0  0  0  0
  152.0230  138.6898  156.1783 O   0  0  0  0  0  0  0  0  0  0  0  0
  146.1699  135.7544  153.6054 C   0  0  0  0  0  0  0  0  0  0  0  0
  146.2757  134.4207  152.8472 C   0  0  0  0  0  0  0  0  0  0  0  0
  146.5395  132.9415  150.4600 H   0  0  0  0  0  0  0  0  0  0  0  0
  144.8691  133.1121  149.9273 H   0  0  0  0  0  0  0  0  0  0  0  0
  145.2313  132.2583  151.4217 H   0  0  0  0  0  0  0  0  0  0  0  0
  144.3578  134.5336  151.8947 H   0  0  0  0  0  0  0  0  0  0  0  0
  146.7791  135.5213  150.3236 H   0  0  0  0  0  0  0  0  0  0  0  0
  145.1062  135.6944  149.8510 H   0  0  0  0  0  0  0  0  0  0  0  0
  145.9903  137.7773  150.8786 H   0  0  0  0  0  0  0  0  0  0  0  0
  144.6455  137.1448  151.8082 H   0  0  0  0  0  0  0  0  0  0  0  0
  145.5495  138.4814  153.7083 H   0  0  0  0  0  0  0  0  0  0  0  0
  147.1097  138.0903  154.3877 H   0  0  0  0  0  0  0  0  0  0  0  0
  147.1138  139.0941  151.5300 H   0  0  0  0  0  0  0  0  0  0  0  0
  146.6321  140.2608  152.7396 H   0  0  0  0  0  0  0  0  0  0  0  0
  149.2556  139.3199  152.1692 H   0  0  0  0  0  0  0  0  0  0  0  0
  151.0438  139.0563  154.0755 H   0  0  0  0  0  0  0  0  0  0  0  0
  150.9548  140.6386  153.3716 H   0  0  0  0  0  0  0  0  0  0  0  0
  150.1208  142.4490  154.9592 H   0  0  0  0  0  0  0  0  0  0  0  0
  150.7514  143.6104  157.0604 H   0  0  0  0  0  0  0  0  0  0  0  0
  152.0604  142.3059  158.7955 H   0  0  0  0  0  0  0  0  0  0  0  0
  152.6584  140.0028  158.3888 H   0  0  0  0  0  0  0  0  0  0  0  0
  146.8238  135.7143  154.4755 H   0  0  0  0  0  0  0  0  0  0  0  0
  145.1545  135.8924  153.9811 H   0  0  0  0  0  0  0  0  0  0  0  0
  145.9805  133.6016  153.5040 H   0  0  0  0  0  0  0  0  0  0  0  0
  147.3164  134.2382  152.5756 H   0  0  0  0  0  0  0  0  0  0  0  0
  147.4764  136.7314  152.4000 H   0  0  0  0  0  0  0  0  0  0  0  0
  1  2  1  0  0  0  0
  1 21  1  0  0  0  0
  1 22  1  0  0  0  0
  1 23  1  0  0  0  0
  2 20  1  0  0  0  0
  2  3  1  0  0  0  0
  2 24  1  0  0  0  0
  3  4  1  0  0  0  0
  3 25  1  0  0  0  0
  3 26  1  0  0  0  0
  4  5  1  0  0  0  0
  4 27  1  0  0  0  0
  4 28  1  0  0  0  0
  5  6  1  0  0  0  0
  5 19  1  0  0  0  0
  5 44  1  0  0  0  0
  6  7  1  0  0  0  0
  6 29  1  0  0  0  0
  6 30  1  0  0  0  0
  7  8  1  0  0  0  0
  7 31  1  0  0  0  0
  7 32  1  0  0  0  0
  8  9  1  0  0  0  0
  8 33  1  0  0  0  0
  9 10  2  0  0  0  0
  9 11  1  0  0  0  0
 11 12  1  0  0  0  0
 11 34  1  0  0  0  0
 11 35  1  0  0  0  0
 12 17  1  0  0  0  0
 12 13  1  0  0  0  0
 13 14  2  0  0  0  0
 13 36  1  0  0  0  0
 14 15  1  0  0  0  0
 14 37  1  0  0  0  0
 15 16  2  0  0  0  0
 15 38  1  0  0  0  0
 16 17  1  0  0  0  0
 16 39  1  0  0  0  0
 17 18  2  0  0  0  0
 19 20  1  0  0  0  0
 19 40  1  0  0  0  0
 19 41  1  0  0  0  0
 20 42  1  0  0  0  0
 20 43  1  0  0  0  0
M  CHG  1   5   1
M  END
> <s_m_source_file>
AV-unprocessed.smi

> <i_m_source_file_index>
1902

> <i_lp_mmshare_version>
43012

> <i_f3d_flags>
0

> <s_epik_input>
W0NIM11bQ0hdMVtDSDJdW0NIMl1OKFtDSDJdW0NIMl0xKVtDSDJdW0NIMl1bTkhdQyg9TylbQ0gyXW4yW2NIXVtjSF1bY0hdW2NIXWMyPU8=

> <s_epik_cmdline>
J2VwaWtfcHl0aG9uJywgJy1waCcsICc3LjAnLCAnLXRuJywgJzgnLCAnLW1hJywgJzIwMCcsICctbWV0YWxfYmluZGluZycsICctaW1hZScsICc8aW5maWxlLm1hZT4nLCAnLW9tYWUnLCAnPG91dGZpbGUubWFlPic=

> <r_lp_tautomer_probability>
1

> <r_epik_Ionization_Penalty>
0.00156146

> <r_epik_Ionization_Penalty_Charging>
0.00156137

> <r_epik_Ionization_Penalty_Neutral>
8.12891e-08

> <r_epik_State_Penalty>
0.00104868

> <r_epik_Charging_Adjusted_Penalty>
0.00261006

> <i_epik_Tot_Q>
1

> <i_epik_Tot_abs_Q>
1

> <r_epik_Metal_State_Penalty>
-0

> <b_epik_Metal_Only>
0

> <s_lp_Force_Field>
OPLS_2005

> <r_lp_Energy>
24.6388

> <b_lp_Chiralities_Consistent>
1

> <s_lp_Variant>
AV-unprocessed.smi:1902-1

> <Gold.Version>
5.8.1

> <Gold.Id.Protein>
6NUR|6NUR_protein|mol2

> <Gold.PLP.Fitness>
44.8157

> <Gold.PLP.PLP>
-33.4540

> <Gold.PLP.part.hbond>
-2.0000

> <Gold.PLP.part.metal>
0.0000

> <Gold.PLP.part.buried>
-0.4107

> <Gold.PLP.part.nonpolar>
-31.4210

> <Gold.PLP.part.repulsive>
0.1326

> <Gold.PLP.ligand.clash>
0.0000

> <Gold.PLP.ligand.torsion>
0.3499

> <Gold.PLP.Chemscore.Hbond>
3.0000

> <Gold.PLP.Chemscore.CHOScore>
0.9836

> <Gold.PLP.Chemscore.Metal>
0.0000

> <Gold.Chemscore.Hbonds>
donor molecule, donor type, donor heavy atom, donor atom, acceptor molecule, acceptor atom, score
      L1  H     5    44       P1  7948  2.00
      L1  H     8    33       P1  7957  0.23
      L1  C    13    36       P1  8028  0.47

> <Gold.PLP.Chemscore.Internal.Correction>
0.1108

> <Gold.Rescore>
     Score         DG    S(hbond)    S(metal)    S(lipo)     H(rot)  DE(clash)    DE(int)     intcor
     15.12     -15.58       1.95        0.00      71.37       1.86       0.01       0.45       ----

> <Gold.Chemscore.Fitness>
15.1194

> <Gold.Chemscore.DG>
-15.5820

> <Gold.Chemscore.ZeroCoef>
-5.4800

> <Gold.Chemscore.Hbond>
1.9492

> <Gold.Chemscore.Metal>
0.0000

> <Gold.Chemscore.Lipo>
71.3657

> <Gold.Chemscore.Internal_Hbond>
0.0000

> <Gold.Chemscore.DEClash>
0.0110

> <Gold.Chemscore.DEInternal>
0.4516

> <Gold.Chemscore.Rot>
1.8586

> <Gold.Chemscore.Internal.Correction>
   9.000000E+99

> <Gold.Chemscore.Hbonds>
donor molecule, donor type, donor heavy atom, donor atom, acceptor molecule, acceptor atom, score
      L1  H     5    44       P1  7948  1.00
      L1  H     8    33       P1  7957  0.23

> <Gold.Chemscore.Hbond.Weighted>
-6.5104

> <Gold.Chemscore.Metal.Weighted>
-0.0000

> <Gold.Chemscore.Lipo.Weighted>
-8.3498

> <Gold.Chemscore.Internal_Hbond.Weighted>
0.0000

> <Gold.Chemscore.DEClash.Weighted>
0.0110

> <Gold.Chemscore.DEInternal.Weighted>
0.4516

> <Gold.Chemscore.Rot.Weighted>
4.7581

> <Gold.Chemscore.Internal.Correction.Weighted>
   9.000000E+99

> <Gold.Protein.RotatedTorsions>
[ 6907 6896 6895 6894 ] final   -6.05 input  -60.11 | X-H torsion
[ 7974 7965 7964 7962 ] final  172.91 input  175.53 | X-H torsion
[ 8008 7997 7996 7995 ] final   52.86 input   59.86 | X-H torsion
[ 10167 10162 10161 10158 ] final  163.68 input  -65.29 | X-H torsion
[ 10718 10713 10712 10709 ] final   25.94 input   66.30 | X-H torsion
[ 10763 10752 10751 10750 ] final   49.21 input  -60.55 | X-H torsion
[ 11005 11000 10999 10996 ] final   38.77 input  -57.11 | X-H torsion

> <Gold.Protein.ActiveResidues>
 VAL166  LYS551  ARG553  GLY616  TRP617  ASP618  TYR619  PRO620  LYS621  CYS622 
 ASP623  PHE694  ASN695  SER759  ASP760  ASP761  ALA762  ILE779  LEU786  VAL792 
 PHE793  MET794  SER795  GLU796  ALA797  LYS798  CYS799  TRP800  GLU811  SER814 

> <Gold.Protein.RotatedAtoms>
  151.4718  135.1046  159.9753 H   0  0  0  0  0  0  0  0  0  0  0  0  # atno 6907 bound_to 6896
  152.4813  133.8258  159.7088 H   0  0  0  0  0  0  0  0  0  0  0  0  # atno 6908 bound_to 6896
  150.8887  133.7211  159.2937 H   0  0  0  0  0  0  0  0  0  0  0  0  # atno 6909 bound_to 6896
  144.7256  139.9569  143.6433 H   0  0  0  0  0  0  0  0  0  0  0  0  # atno 7974 bound_to 7965
  155.4588  140.3461  155.4310 H   0  0  0  0  0  0  0  0  0  0  0  0  # atno 8008 bound_to 7997
  156.1174  140.1477  156.9283 H   0  0  0  0  0  0  0  0  0  0  0  0  # atno 8009 bound_to 7997
  154.4799  140.0873  156.7330 H   0  0  0  0  0  0  0  0  0  0  0  0  # atno 8010 bound_to 7997
  139.4877  144.4313  151.9067 H   0  0  0  0  0  0  0  0  0  0  0  0  # atno 10167 bound_to 10162
  157.2001  130.6886  149.6185 H   0  0  0  0  0  0  0  0  0  0  0  0  # atno 10718 bound_to 10713
  152.9788  135.5919  154.4051 H   0  0  0  0  0  0  0  0  0  0  0  0  # atno 10763 bound_to 10752
  154.3693  135.2767  155.2278 H   0  0  0  0  0  0  0  0  0  0  0  0  # atno 10764 bound_to 10752
  154.4240  135.6052  153.6082 H   0  0  0  0  0  0  0  0  0  0  0  0  # atno 10765 bound_to 10752
  140.2094  134.3774  155.8056 H   0  0  0  0  0  0  0  0  0  0  0  0  # atno 11005 bound_to 11000
  146.0668  139.3658  143.0547 LP  0  0  0  0  0  0  0  0  0  0  0  0  # atno 17320 bound_to 7965
  145.8020  140.9766  143.0993 LP  0  0  0  0  0  0  0  0  0  0  0  0  # atno 17321 bound_to 7965
  140.3760  144.2795  150.5914 LP  0  0  0  0  0  0  0  0  0  0  0  0  # atno 17342 bound_to 10162
  140.5276  143.2251  151.8290 LP  0  0  0  0  0  0  0  0  0  0  0  0  # atno 17343 bound_to 10162
  155.9701  130.4585  150.6003 LP  0  0  0  0  0  0  0  0  0  0  0  0  # atno 17370 bound_to 10713
  157.3775  131.0775  151.1505 LP  0  0  0  0  0  0  0  0  0  0  0  0  # atno 17371 bound_to 10713
  141.2226  133.7135  156.8392 LP  0  0  0  0  0  0  0  0  0  0  0  0  # atno 17394 bound_to 11000
  140.1967  134.8926  157.3123 LP  0  0  0  0  0  0  0  0  0  0  0  0  # atno 17395 bound_to 11000

$$$$
