AV-unprocessed.smi:21|AV-procd|sdf|137|dock10
  -GOLD-   2262015333D 1   1.00000     0.00000
 Structure written by MMmdl.
 62 65  0  0  0  0  0  0  0  0  2 V2000
  143.8955  132.9544  148.7130 C   0  0  0  0  0  0  0  0  0  0  0  0
  143.4853  131.7762  149.3878 O   0  0  0  0  0  0  0  0  0  0  0  0
  143.8612  131.7448  150.7568 C   0  0  1  0  0  0  0  0  0  0  0  0
  145.3652  131.8784  150.9713 C   0  0  0  0  0  0  0  0  0  0  0  0
  145.4837  132.4142  152.4056 C   0  0  1  0  0  0  0  0  0  0  0  0
  146.7980  133.1881  152.6747 C   0  0  0  0  0  0  0  0  0  0  0  0
  147.6768  132.4891  153.6170 N   0  0  0  0  0  0  0  0  0  0  0  0
  147.7789  131.0390  153.5064 C   0  0  0  0  0  0  0  0  0  0  0  0
  148.5654  133.1812  154.3886 C   0  0  0  0  0  0  0  0  0  0  0  0
  149.6780  132.5326  154.8257 N   0  0  0  0  0  0  0  0  0  0  0  0
  150.5825  133.1528  155.5862 C   0  0  0  0  0  0  0  0  0  0  0  0
  150.5771  134.4105  156.0236 N   0  0  0  0  0  0  0  0  0  0  0  0
  149.4729  135.0810  155.5912 C   0  0  0  0  0  0  0  0  0  0  0  0
  148.4234  134.5488  154.7840 C   0  0  0  0  0  0  0  0  0  0  0  0
  147.4618  135.5331  154.5779 N   0  0  0  0  0  0  0  0  0  0  0  0
  147.9183  136.5778  155.2102 C   0  0  0  0  0  0  0  0  0  0  0  0
  149.1319  136.4016  155.8330 N   0  0  0  0  0  0  0  0  0  0  0  0
  149.8645  137.4008  156.5990 C   0  0  0  0  0  0  0  0  0  0  0  0
  150.3093  138.6426  155.7766 C   0  0  2  0  0  0  0  0  0  0  0  0
  151.6377  138.4057  155.0190 C   0  0  0  0  0  0  0  0  0  0  0  0
  151.6153  137.1753  154.3254 O   0  0  0  0  0  0  0  0  0  0  0  0
  150.3777  139.9270  156.6436 C   0  0  2  0  0  0  0  0  0  0  0  0
  150.7013  141.1960  155.8717 C   0  0  0  0  0  0  0  0  0  0  0  0
  151.1329  142.1477  156.9811 C   0  0  0  0  0  0  0  0  0  0  0  0
  151.7497  141.3287  157.9679 O   0  0  0  0  0  0  0  0  0  0  0  0
  151.5101  139.9557  157.6764 C   0  0  0  0  0  0  0  0  0  0  0  0
  144.2192  133.1676  152.6585 N   0  3  1  0  0  0  0  0  0  0  0  0
  144.3296  134.5835  153.0826 C   0  0  0  0  0  0  0  0  0  0  0  0
  143.3334  132.9772  151.4873 C   0  0  0  0  0  0  0  0  0  0  0  0
  143.4851  130.8445  151.2464 H   0  0  0  0  0  0  0  0  0  0  0  0
  145.4439  131.5610  153.0844 H   0  0  0  0  0  0  0  0  0  0  0  0
  143.6103  132.8893  147.6629 H   0  0  0  0  0  0  0  0  0  0  0  0
  144.9777  133.0804  148.7594 H   0  0  0  0  0  0  0  0  0  0  0  0
  143.4210  133.8424  149.1313 H   0  0  0  0  0  0  0  0  0  0  0  0
  145.9016  130.9397  150.8279 H   0  0  0  0  0  0  0  0  0  0  0  0
  145.7664  132.6057  150.2640 H   0  0  0  0  0  0  0  0  0  0  0  0
  147.3076  133.4186  151.7397 H   0  0  0  0  0  0  0  0  0  0  0  0
  146.5665  134.1552  153.1210 H   0  0  0  0  0  0  0  0  0  0  0  0
  148.6635  130.7566  152.9351 H   0  0  0  0  0  0  0  0  0  0  0  0
  146.9082  130.6248  152.9980 H   0  0  0  0  0  0  0  0  0  0  0  0
  147.8311  130.5768  154.4927 H   0  0  0  0  0  0  0  0  0  0  0  0
  151.4319  132.5568  155.8862 H   0  0  0  0  0  0  0  0  0  0  0  0
  147.3812  137.5151  155.2329 H   0  0  0  0  0  0  0  0  0  0  0  0
  149.2266  137.7184  157.4246 H   0  0  0  0  0  0  0  0  0  0  0  0
  150.7211  136.9181  157.0688 H   0  0  0  0  0  0  0  0  0  0  0  0
  149.5400  138.8112  155.0213 H   0  0  0  0  0  0  0  0  0  0  0  0
  151.8053  139.1842  154.2756 H   0  0  0  0  0  0  0  0  0  0  0  0
  152.4927  138.4307  155.6949 H   0  0  0  0  0  0  0  0  0  0  0  0
  150.7547  136.7949  154.4162 H   0  0  0  0  0  0  0  0  0  0  0  0
  149.4347  140.0646  157.1743 H   0  0  0  0  0  0  0  0  0  0  0  0
  151.5327  141.0229  155.1867 H   0  0  0  0  0  0  0  0  0  0  0  0
  149.8662  141.5886  155.2932 H   0  0  0  0  0  0  0  0  0  0  0  0
  151.8096  142.9244  156.6245 H   0  0  0  0  0  0  0  0  0  0  0  0
  150.2628  142.6324  157.4256 H   0  0  0  0  0  0  0  0  0  0  0  0
  151.2644  139.4043  158.5840 H   0  0  0  0  0  0  0  0  0  0  0  0
  152.4244  139.5309  157.2595 H   0  0  0  0  0  0  0  0  0  0  0  0
  144.8312  135.1905  152.3280 H   0  0  0  0  0  0  0  0  0  0  0  0
  144.8710  134.6718  154.0244 H   0  0  0  0  0  0  0  0  0  0  0  0
  143.3356  135.0032  153.2421 H   0  0  0  0  0  0  0  0  0  0  0  0
  143.4091  133.8455  150.8299 H   0  0  0  0  0  0  0  0  0  0  0  0
  142.2891  132.8740  151.7833 H   0  0  0  0  0  0  0  0  0  0  0  0
  143.7735  132.6829  153.4246 H   0  0  0  0  0  0  0  0  0  0  0  0
  1  2  1  0  0  0  0
  1 32  1  0  0  0  0
  1 33  1  0  0  0  0
  1 34  1  0  0  0  0
  2  3  1  0  0  0  0
  3 30  1  0  0  0  0
  3 29  1  0  0  0  0
  3  4  1  0  0  0  0
  4  5  1  0  0  0  0
  4 35  1  0  0  0  0
  4 36  1  0  0  0  0
  5 31  1  0  0  0  0
  5  6  1  0  0  0  0
  5 27  1  0  0  0  0
  6  7  1  0  0  0  0
  6 37  1  0  0  0  0
  6 38  1  0  0  0  0
  7  8  1  0  0  0  0
  7  9  1  0  0  0  0
  8 39  1  0  0  0  0
  8 40  1  0  0  0  0
  8 41  1  0  0  0  0
  9 14  1  0  0  0  0
  9 10  2  0  0  0  0
 10 11  1  0  0  0  0
 11 12  2  0  0  0  0
 11 42  1  0  0  0  0
 12 13  1  0  0  0  0
 13 17  1  0  0  0  0
 13 14  2  0  0  0  0
 14 15  1  0  0  0  0
 15 16  2  0  0  0  0
 16 17  1  0  0  0  0
 16 43  1  0  0  0  0
 17 18  1  0  0  0  0
 18 19  1  0  0  0  0
 18 44  1  0  0  0  0
 18 45  1  0  0  0  0
 19 20  1  0  0  0  0
 19 22  1  0  0  0  0
 19 46  1  0  0  0  0
 20 21  1  0  0  0  0
 20 47  1  0  0  0  0
 20 48  1  0  0  0  0
 21 49  1  0  0  0  0
 22 26  1  0  0  0  0
 22 23  1  0  0  0  0
 22 50  1  0  0  0  0
 23 24  1  0  0  0  0
 23 51  1  0  0  0  0
 23 52  1  0  0  0  0
 24 25  1  0  0  0  0
 24 53  1  0  0  0  0
 24 54  1  0  0  0  0
 25 26  1  0  0  0  0
 26 55  1  0  0  0  0
 26 56  1  0  0  0  0
 27 28  1  0  0  0  0
 27 29  1  0  0  0  0
 27 62  1  0  0  0  0
 28 57  1  0  0  0  0
 28 58  1  0  0  0  0
 28 59  1  0  0  0  0
 29 60  1  0  0  0  0
 29 61  1  0  0  0  0
M  CHG  1  27   1
M  END
> <s_m_source_file>
AV-unprocessed.smi

> <i_m_source_file_index>
21

> <i_lp_mmshare_version>
43012

> <i_f3d_flags>
0

> <s_epik_input>
W0NIM11PW0NASF0xW0NIMl1bQ0BIXShOKFtDSDNdKVtDSDJdMSlbQ0gyXU4oW0NIM10pYyhuW2NIXW4yKWMoYzIzKW5bY0hdbjNbQ0gyXVtDQEhdKFtDSDJdW09IXSlbQ0BASF00W0NIMl1bQ0gyXU9bQ0gyXTQ=

> <s_epik_cmdline>
J2VwaWtfcHl0aG9uJywgJy1waCcsICc3LjAnLCAnLXRuJywgJzgnLCAnLW1hJywgJzIwMCcsICctbWV0YWxfYmluZGluZycsICctaW1hZScsICc8aW5maWxlLm1hZT4nLCAnLW9tYWUnLCAnPG91dGZpbGUubWFlPic=

> <r_lp_tautomer_probability>
1

> <r_epik_Ionization_Penalty>
0.0157465

> <r_epik_Ionization_Penalty_Charging>
0.015354

> <r_epik_Ionization_Penalty_Neutral>
0.000392529

> <r_epik_State_Penalty>
0.0120612

> <r_epik_Charging_Adjusted_Penalty>
0.0274152

> <i_epik_Tot_Q>
1

> <i_epik_Tot_abs_Q>
1

> <r_epik_Metal_State_Penalty>
0.0121253

> <b_epik_Metal_Only>
0

> <s_lp_Force_Field>
OPLS_2005

> <r_lp_Energy>
60.1072

> <b_lp_Chiralities_Consistent>
1

> <s_lp_Variant>
AV-unprocessed.smi:21-17

> <Gold.Version>
5.8.1

> <Gold.Id.Protein>
6NUR|6NUR_protein|mol2

> <Gold.PLP.Fitness>
52.7933

> <Gold.PLP.PLP>
-43.7769

> <Gold.PLP.part.hbond>
-3.9329

> <Gold.PLP.part.metal>
0.0000

> <Gold.PLP.part.buried>
-8.2657

> <Gold.PLP.part.nonpolar>
-34.6453

> <Gold.PLP.part.repulsive>
0.9556

> <Gold.PLP.ligand.clash>
0.0000

> <Gold.PLP.ligand.torsion>
1.6429

> <Gold.PLP.Chemscore.Hbond>
3.9585

> <Gold.PLP.Chemscore.CHOScore>
0.0000

> <Gold.PLP.Chemscore.Metal>
0.0000

> <Gold.Chemscore.Hbonds>
donor molecule, donor type, donor heavy atom, donor atom, acceptor molecule, acceptor atom, score
      L1  H    27    62       P1 10957  2.00
      P1  H 10752 10764       L1    21  0.96
      P1  H 10785 10796       L1     2  0.99

> <Gold.PLP.Chemscore.Internal.Correction>
0.4268

> <Gold.Rescore>
     Score         DG    S(hbond)    S(metal)    S(lipo)     H(rot)  DE(clash)    DE(int)     intcor
     14.21     -16.63       2.23        0.00      98.89       3.08       0.18       2.25       ----

> <Gold.Chemscore.Fitness>
14.2063

> <Gold.Chemscore.DG>
-16.6349

> <Gold.Chemscore.ZeroCoef>
-5.4800

> <Gold.Chemscore.Hbond>
2.2330

> <Gold.Chemscore.Metal>
0.0000

> <Gold.Chemscore.Lipo>
98.8948

> <Gold.Chemscore.Internal_Hbond>
0.0000

> <Gold.Chemscore.DEClash>
0.1826

> <Gold.Chemscore.DEInternal>
2.2460

> <Gold.Chemscore.Rot>
3.0758

> <Gold.Chemscore.Internal.Correction>
   9.000000E+99

> <Gold.Chemscore.Hbonds>
donor molecule, donor type, donor heavy atom, donor atom, acceptor molecule, acceptor atom, score
      L1  H    27    62       P1 10957  0.44
      P1  H 10752 10764       L1    21  0.65
      P1  H 10785 10796       L1     2  0.78

> <Gold.Chemscore.Hbond.Weighted>
-7.4584

> <Gold.Chemscore.Metal.Weighted>
-0.0000

> <Gold.Chemscore.Lipo.Weighted>
-11.5707

> <Gold.Chemscore.Internal_Hbond.Weighted>
0.0000

> <Gold.Chemscore.DEClash.Weighted>
0.1826

> <Gold.Chemscore.DEInternal.Weighted>
2.2460

> <Gold.Chemscore.Rot.Weighted>
7.8741

> <Gold.Chemscore.Internal.Correction.Weighted>
   9.000000E+99

> <Gold.Protein.RotatedTorsions>
[ 6907 6896 6895 6894 ] final    5.14 input  -60.11 | X-H torsion
[ 7974 7965 7964 7962 ] final  -58.21 input  175.53 | X-H torsion
[ 8008 7997 7996 7995 ] final   76.28 input   59.86 | X-H torsion
[ 10167 10162 10161 10158 ] final   30.20 input  -65.29 | X-H torsion
[ 10718 10713 10712 10709 ] final  -58.93 input   66.30 | X-H torsion
[ 10763 10752 10751 10750 ] final  -92.69 input  -60.55 | X-H torsion
[ 11005 11000 10999 10996 ] final  161.77 input  -57.11 | X-H torsion

> <Gold.Protein.ActiveResidues>
 VAL166  LYS551  ARG553  GLY616  TRP617  ASP618  TYR619  PRO620  LYS621  CYS622 
 ASP623  PHE694  ASN695  SER759  ASP760  ASP761  ALA762  ILE779  LEU786  VAL792 
 PHE793  MET794  SER795  GLU796  ALA797  LYS798  CYS799  TRP800  GLU811  SER814 

> <Gold.Protein.RotatedAtoms>
  151.6526  135.0999  160.0163 H   0  0  0  0  0  0  0  0  0  0  0  0  # atno 6907 bound_to 6896
  152.3992  133.6788  159.6310 H   0  0  0  0  0  0  0  0  0  0  0  0  # atno 6908 bound_to 6896
  150.7894  133.8738  159.3307 H   0  0  0  0  0  0  0  0  0  0  0  0  # atno 6909 bound_to 6896
  145.8420  140.8410  143.0029 H   0  0  0  0  0  0  0  0  0  0  0  0  # atno 7974 bound_to 7965
  155.8251  140.3468  155.5538 H   0  0  0  0  0  0  0  0  0  0  0  0  # atno 8008 bound_to 7997
  155.8301  140.0926  157.1817 H   0  0  0  0  0  0  0  0  0  0  0  0  # atno 8009 bound_to 7997
  154.4004  140.1414  156.3591 H   0  0  0  0  0  0  0  0  0  0  0  0  # atno 8010 bound_to 7997
  140.4699  144.0779  150.6234 H   0  0  0  0  0  0  0  0  0  0  0  0  # atno 10167 bound_to 10162
  156.1099  130.4176  150.0645 H   0  0  0  0  0  0  0  0  0  0  0  0  # atno 10718 bound_to 10713
  154.6885  135.5222  153.8360 H   0  0  0  0  0  0  0  0  0  0  0  0  # atno 10763 bound_to 10752
  153.0615  135.6570  154.0461 H   0  0  0  0  0  0  0  0  0  0  0  0  # atno 10764 bound_to 10752
  154.0339  135.2983  155.3344 H   0  0  0  0  0  0  0  0  0  0  0  0  # atno 10765 bound_to 10752
  140.2191  134.8209  157.3202 H   0  0  0  0  0  0  0  0  0  0  0  0  # atno 11005 bound_to 11000
  144.6733  140.0827  143.7468 LP  0  0  0  0  0  0  0  0  0  0  0  0  # atno 17320 bound_to 7965
  145.9454  139.2697  143.1244 LP  0  0  0  0  0  0  0  0  0  0  0  0  # atno 17321 bound_to 7965
  140.3990  143.2713  151.9970 LP  0  0  0  0  0  0  0  0  0  0  0  0  # atno 17342 bound_to 10162
  139.4817  144.6013  151.7600 LP  0  0  0  0  0  0  0  0  0  0  0  0  # atno 17343 bound_to 10162
  156.8611  130.9492  151.3618 LP  0  0  0  0  0  0  0  0  0  0  0  0  # atno 17370 bound_to 10713
  157.6279  130.8706  149.9221 LP  0  0  0  0  0  0  0  0  0  0  0  0  # atno 17371 bound_to 10713
  140.1869  134.4420  155.7739 LP  0  0  0  0  0  0  0  0  0  0  0  0  # atno 17394 bound_to 11000
  141.2224  133.7009  156.7961 LP  0  0  0  0  0  0  0  0  0  0  0  0  # atno 17395 bound_to 11000

$$$$
