AV-unprocessed.smi:48|AV-procd|sdf|448|dock3
  -GOLD-   2262016313D 1   1.00000     0.00000
 Structure written by MMmdl.
 30 32  0  0  0  0  0  0  0  0  1 V2000
  144.9245  142.2255  154.5570 O   0  0  0  0  0  0  0  0  0  0  0  0
  146.1741  142.5364  153.9781 C   0  0  0  0  0  0  0  0  0  0  0  0
  147.2545  141.5815  154.5151 C   0  0  2  0  0  0  0  0  0  0  0  0
  148.5599  142.0119  154.1426 O   0  0  0  0  0  0  0  0  0  0  0  0
  149.4610  140.9562  154.2985 C   0  0  1  0  0  0  0  0  0  0  0  0
  150.1253  141.0967  155.6336 N   0  0  0  0  0  0  0  0  0  0  0  0
  149.9003  141.9962  156.6163 C   0  0  0  0  0  0  0  0  0  0  0  0
  150.6532  141.9068  157.7128 N   0  0  0  0  0  0  0  0  0  0  0  0
  151.4703  140.8327  157.4013 C   0  0  0  0  0  0  0  0  0  0  0  0
  152.5144  140.1818  158.1025 C   0  0  0  0  0  0  0  0  0  0  0  0
  152.9888  140.7045  159.6771 Cl  0  0  0  0  0  0  0  0  0  0  0  0
  153.1368  139.1360  157.5069 N   0  0  0  0  0  0  0  0  0  0  0  0
  152.7504  138.7523  156.2836 C   0  0  0  0  0  0  0  0  0  0  0  0
  151.7890  139.2644  155.5058 N   0  0  0  0  0  0  0  0  0  0  0  0
  151.1638  140.3173  156.1107 C   0  0  0  0  0  0  0  0  0  0  0  0
  148.6357  139.6558  154.2573 C   0  0  2  0  0  0  0  0  0  0  0  0
  149.1063  138.7232  153.3027 O   0  0  0  0  0  0  0  0  0  0  0  0
  147.2240  140.1562  153.9510 C   0  0  2  0  0  0  0  0  0  0  0  0
  146.9420  140.1782  152.5608 O   0  0  0  0  0  0  0  0  0  0  0  0
  147.1909  141.5202  155.6036 H   0  0  0  0  0  0  0  0  0  0  0  0
  150.2735  141.0128  153.5728 H   0  0  0  0  0  0  0  0  0  0  0  0
  148.6445  139.1863  155.2425 H   0  0  0  0  0  0  0  0  0  0  0  0
  146.4667  139.5433  154.4411 H   0  0  0  0  0  0  0  0  0  0  0  0
  144.5029  141.5684  154.0243 H   0  0  0  0  0  0  0  0  0  0  0  0
  146.0720  142.4189  152.8988 H   0  0  0  0  0  0  0  0  0  0  0  0
  146.4306  143.5787  154.1706 H   0  0  0  0  0  0  0  0  0  0  0  0
  149.1424  142.7609  156.5276 H   0  0  0  0  0  0  0  0  0  0  0  0
  153.2896  137.9146  155.8666 H   0  0  0  0  0  0  0  0  0  0  0  0
  149.3194  139.1908  152.5090 H   0  0  0  0  0  0  0  0  0  0  0  0
  147.7630  140.1902  152.0923 H   0  0  0  0  0  0  0  0  0  0  0  0
  1  2  1  0  0  0  0
  1 24  1  0  0  0  0
  2  3  1  0  0  0  0
  2 25  1  0  0  0  0
  2 26  1  0  0  0  0
  3 20  1  0  0  0  0
  3 18  1  0  0  0  0
  3  4  1  0  0  0  0
  4  5  1  0  0  0  0
  5 21  1  0  0  0  0
  5  6  1  0  0  0  0
  5 16  1  0  0  0  0
  6 15  1  0  0  0  0
  6  7  1  0  0  0  0
  7  8  2  0  0  0  0
  7 27  1  0  0  0  0
  8  9  1  0  0  0  0
  9 15  2  0  0  0  0
  9 10  1  0  0  0  0
 10 11  1  0  0  0  0
 10 12  2  0  0  0  0
 12 13  1  0  0  0  0
 13 14  2  0  0  0  0
 13 28  1  0  0  0  0
 14 15  1  0  0  0  0
 16 22  1  0  0  0  0
 16 17  1  0  0  0  0
 16 18  1  0  0  0  0
 17 29  1  0  0  0  0
 18 23  1  0  0  0  0
 18 19  1  0  0  0  0
 19 30  1  0  0  0  0
M  END
> <s_m_source_file>
AV-unprocessed.smi

> <i_m_source_file_index>
48

> <i_lp_mmshare_version>
43012

> <i_f3d_flags>
0

> <s_epik_input>
W09IXVtDSDJdW0NASF0xT1tDQEhdKFtDQEhdKFtPSF0pW0NAQEhdMVtPSF0pbihbY0hdbjIpYyhjMjMpbltjSF1uYzNDbA==

> <s_epik_cmdline>
J2VwaWtfcHl0aG9uJywgJy1waCcsICc3LjAnLCAnLXRuJywgJzgnLCAnLW1hJywgJzIwMCcsICctbWV0YWxfYmluZGluZycsICctaW1hZScsICc8aW5maWxlLm1hZT4nLCAnLW9tYWUnLCAnPG91dGZpbGUubWFlPic=

> <r_lp_tautomer_probability>
1

> <r_epik_Ionization_Penalty>
3.45505e-06

> <r_epik_Ionization_Penalty_Charging>
0

> <r_epik_Ionization_Penalty_Neutral>
3.45505e-06

> <r_epik_State_Penalty>
-0

> <r_epik_Charging_Adjusted_Penalty>
0

> <i_epik_Tot_Q>
0

> <i_epik_Tot_abs_Q>
0

> <r_epik_Metal_State_Penalty>
-0

> <b_epik_Metal_Only>
0

> <s_epik_Chemistry_Notes>
This compound contains an acetal/aminal-like group ( X-CH(R)-Y where X, Y are N, S, or O) that may be acid/base labile, releasing an aldehyde.

> <s_lp_Force_Field>
OPLS_2005

> <r_lp_Energy>
38.272

> <b_lp_Chiralities_Consistent>
1

> <s_lp_Variant>
AV-unprocessed.smi:48-2

> <Gold.Version>
5.8.1

> <Gold.Id.Protein>
6NUR|6NUR_protein|mol2

> <Gold.PLP.Fitness>
47.3017

> <Gold.PLP.PLP>
-33.2098

> <Gold.PLP.part.hbond>
-6.2482

> <Gold.PLP.part.metal>
0.0000

> <Gold.PLP.part.buried>
-1.3291

> <Gold.PLP.part.nonpolar>
-25.9946

> <Gold.PLP.part.repulsive>
0.3426

> <Gold.PLP.ligand.clash>
0.0000

> <Gold.PLP.ligand.torsion>
0.1805

> <Gold.PLP.Chemscore.Hbond>
3.8101

> <Gold.PLP.Chemscore.CHOScore>
1.0000

> <Gold.PLP.Chemscore.Metal>
0.0000

> <Gold.Chemscore.Hbonds>
donor molecule, donor type, donor heavy atom, donor atom, acceptor molecule, acceptor atom, score
      L1  H     1    24       P1 10175  0.89
      L1  H    17    29       P1  7957  1.00
      L1  H    19    30       P1  7957  0.96
      P1  H  7997  8009       L1    12  0.84
      P1  H  8011  8017       L1     4  0.03
      L1  C     7    27       P1  8028  1.00

> <Gold.PLP.Chemscore.Internal.Correction>
0.0225

> <Gold.Rescore>
     Score         DG    S(hbond)    S(metal)    S(lipo)     H(rot)  DE(clash)    DE(int)     intcor
      9.02     -10.68       2.94        0.00      43.57       3.80       1.54       0.13       ----

> <Gold.Chemscore.Fitness>
9.0164

> <Gold.Chemscore.DG>
-10.6795

> <Gold.Chemscore.ZeroCoef>
-5.4800

> <Gold.Chemscore.Hbond>
2.9443

> <Gold.Chemscore.Metal>
0.0000

> <Gold.Chemscore.Lipo>
43.5729

> <Gold.Chemscore.Internal_Hbond>
0.0000

> <Gold.Chemscore.DEClash>
1.5380

> <Gold.Chemscore.DEInternal>
0.1251

> <Gold.Chemscore.Rot>
3.8017

> <Gold.Chemscore.Internal.Correction>
   9.000000E+99

> <Gold.Chemscore.Hbonds>
donor molecule, donor type, donor heavy atom, donor atom, acceptor molecule, acceptor atom, score
      L1  H     1    24       P1 10175  0.17
      L1  H    17    29       P1  7957  0.98
      L1  H    19    30       P1  7957  0.91
      P1  H  7997  8009       L1    12  0.04

> <Gold.Chemscore.Hbond.Weighted>
-9.8339

> <Gold.Chemscore.Metal.Weighted>
-0.0000

> <Gold.Chemscore.Lipo.Weighted>
-5.0980

> <Gold.Chemscore.Internal_Hbond.Weighted>
0.0000

> <Gold.Chemscore.DEClash.Weighted>
1.5380

> <Gold.Chemscore.DEInternal.Weighted>
0.1251

> <Gold.Chemscore.Rot.Weighted>
9.7324

> <Gold.Chemscore.Internal.Correction.Weighted>
   9.000000E+99

> <Gold.Protein.RotatedTorsions>
[ 6907 6896 6895 6894 ] final   95.53 input  -60.11 | X-H torsion
[ 7974 7965 7964 7962 ] final  -41.24 input  175.53 | X-H torsion
[ 8008 7997 7996 7995 ] final  145.59 input   59.86 | X-H torsion
[ 10167 10162 10161 10158 ] final  159.17 input  -65.29 | X-H torsion
[ 10718 10713 10712 10709 ] final  173.98 input   66.30 | X-H torsion
[ 10763 10752 10751 10750 ] final   43.00 input  -60.55 | X-H torsion
[ 11005 11000 10999 10996 ] final   59.13 input  -57.11 | X-H torsion

> <Gold.Protein.ActiveResidues>
 VAL166  LYS551  ARG553  GLY616  TRP617  ASP618  TYR619  PRO620  LYS621  CYS622 
 ASP623  PHE694  ASN695  SER759  ASP760  ASP761  ALA762  ILE779  LEU786  VAL792 
 PHE793  MET794  SER795  GLU796  ALA797  LYS798  CYS799  TRP800  GLU811  SER814 

> <Gold.Protein.RotatedAtoms>
  152.5443  134.1026  159.8323 H   0  0  0  0  0  0  0  0  0  0  0  0  # atno 6907 bound_to 6896
  151.1102  133.5171  159.2613 H   0  0  0  0  0  0  0  0  0  0  0  0  # atno 6908 bound_to 6896
  151.1893  135.0405  159.8880 H   0  0  0  0  0  0  0  0  0  0  0  0  # atno 6909 bound_to 6896
  146.0230  140.6827  142.9169 H   0  0  0  0  0  0  0  0  0  0  0  0  # atno 7974 bound_to 7965
  156.2879  140.2205  156.5240 H   0  0  0  0  0  0  0  0  0  0  0  0  # atno 8008 bound_to 7997
  154.7505  140.0481  157.0911 H   0  0  0  0  0  0  0  0  0  0  0  0  # atno 8009 bound_to 7997
  155.0116  140.3113  155.4830 H   0  0  0  0  0  0  0  0  0  0  0  0  # atno 8010 bound_to 7997
  139.4831  144.4755  151.8517 H   0  0  0  0  0  0  0  0  0  0  0  0  # atno 10167 bound_to 10162
  156.9563  131.0047  151.2937 H   0  0  0  0  0  0  0  0  0  0  0  0  # atno 10718 bound_to 10713
  152.9870  135.6115  154.3040 H   0  0  0  0  0  0  0  0  0  0  0  0  # atno 10763 bound_to 10752
  154.2759  135.2778  155.2720 H   0  0  0  0  0  0  0  0  0  0  0  0  # atno 10764 bound_to 10752
  154.5081  135.5848  153.6640 H   0  0  0  0  0  0  0  0  0  0  0  0  # atno 10765 bound_to 10752
  140.0327  134.5989  155.9486 H   0  0  0  0  0  0  0  0  0  0  0  0  # atno 11005 bound_to 11000
  144.6998  140.3599  143.7166 LP  0  0  0  0  0  0  0  0  0  0  0  0  # atno 17320 bound_to 7965
  145.7163  139.1698  143.2510 LP  0  0  0  0  0  0  0  0  0  0  0  0  # atno 17321 bound_to 7965
  140.4227  144.2222  150.5887 LP  0  0  0  0  0  0  0  0  0  0  0  0  # atno 17342 bound_to 10162
  140.4858  143.2364  151.8890 LP  0  0  0  0  0  0  0  0  0  0  0  0  # atno 17343 bound_to 10162
  157.5688  130.8296  149.8363 LP  0  0  0  0  0  0  0  0  0  0  0  0  # atno 17370 bound_to 10713
  156.0341  130.3756  150.1607 LP  0  0  0  0  0  0  0  0  0  0  0  0  # atno 17371 bound_to 10713
  141.1840  133.6552  156.5138 LP  0  0  0  0  0  0  0  0  0  0  0  0  # atno 17394 bound_to 11000
  140.4199  134.7196  157.4884 LP  0  0  0  0  0  0  0  0  0  0  0  0  # atno 17395 bound_to 11000

$$$$
