AV-unprocessed.smi:49|AV-procd|sdf|465|dock3
  -GOLD-   2262016333D 1   1.00000     0.00000
 Structure written by MMmdl.
 28 29  0  0  0  0  0  0  0  0  2 V2000
  153.8793  141.9760  160.7762 C   0  0  0  0  0  0  0  0  0  0  0  0
  152.7034  142.9536  160.6753 C   0  0  0  0  0  0  0  0  0  0  0  0
  151.9244  142.7883  159.4116 C   0  0  0  0  0  0  0  0  0  0  0  0
  151.3263  141.6674  159.0220 N   0  0  0  0  0  0  0  0  0  0  0  0
  150.7653  142.0847  157.8476 C   0  0  0  0  0  0  0  0  0  0  0  0
  150.0000  141.1569  156.9562 C   0  0  2  0  0  0  0  0  0  0  0  0
  150.6456  140.9631  155.5815 C   0  0  0  0  0  0  0  0  0  0  0  0
  149.4644  140.5232  154.7228 C   0  0  2  0  0  0  0  0  0  0  0  0
  149.6885  140.7591  153.3490 O   0  0  0  0  0  0  0  0  0  0  0  0
  148.3032  141.3576  155.2727 C   0  0  0  0  0  0  0  0  0  0  0  0
  148.6212  141.6194  156.6909 N   0  3  0  0  0  0  0  0  0  0  0  0
  150.9982  143.3536  157.5094 N   0  0  0  0  0  0  0  0  0  0  0  0
  151.7420  143.7896  158.5482 N   0  0  0  0  0  0  0  0  0  0  0  0
  149.9183  140.1848  157.4448 H   0  0  0  0  0  0  0  0  0  0  0  0
  149.2672  139.4623  154.8838 H   0  0  0  0  0  0  0  0  0  0  0  0
  152.0949  144.7337  158.6186 H   0  0  0  0  0  0  0  0  0  0  0  0
  154.4316  142.1276  161.7038 H   0  0  0  0  0  0  0  0  0  0  0  0
  154.5759  142.1109  159.9484 H   0  0  0  0  0  0  0  0  0  0  0  0
  153.5337  140.9420  160.7593 H   0  0  0  0  0  0  0  0  0  0  0  0
  152.0349  142.8199  161.5266 H   0  0  0  0  0  0  0  0  0  0  0  0
  153.0699  143.9795  160.7271 H   0  0  0  0  0  0  0  0  0  0  0  0
  151.0308  141.9161  155.2132 H   0  0  0  0  0  0  0  0  0  0  0  0
  151.4697  140.2492  155.5916 H   0  0  0  0  0  0  0  0  0  0  0  0
  149.3914  140.0073  152.8586 H   0  0  0  0  0  0  0  0  0  0  0  0
  148.2424  142.3203  154.7629 H   0  0  0  0  0  0  0  0  0  0  0  0
  147.3410  140.8568  155.1611 H   0  0  0  0  0  0  0  0  0  0  0  0
  147.9765  141.1362  157.2994 H   0  0  0  0  0  0  0  0  0  0  0  0
  148.5676  142.6143  156.8589 H   0  0  0  0  0  0  0  0  0  0  0  0
  1  2  1  0  0  0  0
  1 17  1  0  0  0  0
  1 18  1  0  0  0  0
  1 19  1  0  0  0  0
  2  3  1  0  0  0  0
  2 20  1  0  0  0  0
  2 21  1  0  0  0  0
  3 13  1  0  0  0  0
  3  4  2  0  0  0  0
  4  5  1  0  0  0  0
  5  6  1  0  0  0  0
  5 12  2  0  0  0  0
  6 14  1  0  0  0  0
  6 11  1  0  0  0  0
  6  7  1  0  0  0  0
  7  8  1  0  0  0  0
  7 22  1  0  0  0  0
  7 23  1  0  0  0  0
  8 15  1  0  0  0  0
  8  9  1  0  0  0  0
  8 10  1  0  0  0  0
  9 24  1  0  0  0  0
 10 11  1  0  0  0  0
 10 25  1  0  0  0  0
 10 26  1  0  0  0  0
 11 27  1  0  0  0  0
 11 28  1  0  0  0  0
 12 13  1  0  0  0  0
 13 16  1  0  0  0  0
M  CHG  1  11   1
M  END
> <s_m_source_file>
AV-unprocessed.smi

> <i_m_source_file_index>
49

> <i_lp_mmshare_version>
43012

> <i_f3d_flags>
0

> <s_epik_input>
W0NIM11bQ0gyXWMxbmMobltuSF0xKVtDQEBIXTJbQ0gyXVtDQEBIXShbT0hdKVtDSDJdW05IXTI=

> <s_epik_cmdline>
J2VwaWtfcHl0aG9uJywgJy1waCcsICc3LjAnLCAnLXRuJywgJzgnLCAnLW1hJywgJzIwMCcsICctbWV0YWxfYmluZGluZycsICctaW1hZScsICc8aW5maWxlLm1hZT4nLCAnLW9tYWUnLCAnPG91dGZpbGUubWFlPic=

> <r_lp_tautomer_probability>
0.948284

> <r_epik_Ionization_Penalty>
0.045643

> <r_epik_Ionization_Penalty_Charging>
0.0371552

> <r_epik_Ionization_Penalty_Neutral>
0.00848778

> <r_epik_State_Penalty>
0.283309

> <r_epik_Charging_Adjusted_Penalty>
0.320465

> <i_epik_Tot_Q>
1

> <i_epik_Tot_abs_Q>
1

> <r_epik_Metal_State_Penalty>
0.558162

> <b_epik_Metal_Only>
0

> <s_lp_Force_Field>
OPLS_2005

> <r_lp_Energy>
16.4717

> <b_lp_Chiralities_Consistent>
1

> <s_lp_Variant>
AV-unprocessed.smi:49-3

> <Gold.Version>
5.8.1

> <Gold.Id.Protein>
6NUR|6NUR_protein|mol2

> <Gold.PLP.Fitness>
37.4187

> <Gold.PLP.PLP>
-27.0440

> <Gold.PLP.part.hbond>
-2.8912

> <Gold.PLP.part.metal>
0.0000

> <Gold.PLP.part.buried>
-1.8915

> <Gold.PLP.part.nonpolar>
-21.0834

> <Gold.PLP.part.repulsive>
0.1491

> <Gold.PLP.ligand.clash>
0.0000

> <Gold.PLP.ligand.torsion>
0.0152

> <Gold.PLP.Chemscore.Hbond>
3.4640

> <Gold.PLP.Chemscore.CHOScore>
0.0000

> <Gold.PLP.Chemscore.Metal>
0.0000

> <Gold.Chemscore.Hbonds>
donor molecule, donor type, donor heavy atom, donor atom, acceptor molecule, acceptor atom, score
      L1  H     9    24       P1  7957  0.35
      P1  H  7989  7998       L1     9  0.26
      P1  H  8011  8017       L1     9  1.00

> <Gold.PLP.Chemscore.Internal.Correction>
0.0131

> <Gold.Rescore>
     Score         DG    S(hbond)    S(metal)    S(lipo)     H(rot)  DE(clash)    DE(int)     intcor
     13.39     -13.53       2.19        0.00      47.60       1.89       0.02       0.12       ----

> <Gold.Chemscore.Fitness>
13.3914

> <Gold.Chemscore.DG>
-13.5253

> <Gold.Chemscore.ZeroCoef>
-5.4800

> <Gold.Chemscore.Hbond>
2.1887

> <Gold.Chemscore.Metal>
0.0000

> <Gold.Chemscore.Lipo>
47.5991

> <Gold.Chemscore.Internal_Hbond>
0.0000

> <Gold.Chemscore.DEClash>
0.0184

> <Gold.Chemscore.DEInternal>
0.1155

> <Gold.Chemscore.Rot>
1.8883

> <Gold.Chemscore.Internal.Correction>
   9.000000E+99

> <Gold.Chemscore.Hbonds>
donor molecule, donor type, donor heavy atom, donor atom, acceptor molecule, acceptor atom, score
      L1  H     9    24       P1  7957  0.34
      L1  H    11    28       P1  8028  0.04
      P1  H  7989  7998       L1     9  0.04
      P1  H  8011  8017       L1     9  0.89

> <Gold.Chemscore.Hbond.Weighted>
-7.3102

> <Gold.Chemscore.Metal.Weighted>
-0.0000

> <Gold.Chemscore.Lipo.Weighted>
-5.5691

> <Gold.Chemscore.Internal_Hbond.Weighted>
0.0000

> <Gold.Chemscore.DEClash.Weighted>
0.0184

> <Gold.Chemscore.DEInternal.Weighted>
0.1155

> <Gold.Chemscore.Rot.Weighted>
4.8340

> <Gold.Chemscore.Internal.Correction.Weighted>
   9.000000E+99

> <Gold.Protein.RotatedTorsions>
[ 6907 6896 6895 6894 ] final   83.01 input  -60.11 | X-H torsion
[ 7974 7965 7964 7962 ] final  -53.65 input  175.53 | X-H torsion
[ 8008 7997 7996 7995 ] final  113.94 input   59.86 | X-H torsion
[ 10167 10162 10161 10158 ] final   87.57 input  -65.29 | X-H torsion
[ 10718 10713 10712 10709 ] final  170.54 input   66.30 | X-H torsion
[ 10763 10752 10751 10750 ] final  -50.31 input  -60.55 | X-H torsion
[ 11005 11000 10999 10996 ] final -172.72 input  -57.11 | X-H torsion

> <Gold.Protein.ActiveResidues>
 VAL166  LYS551  ARG553  GLY616  TRP617  ASP618  TYR619  PRO620  LYS621  CYS622 
 ASP623  PHE694  ASN695  SER759  ASP760  ASP761  ALA762  ILE779  LEU786  VAL792 
 PHE793  MET794  SER795  GLU796  ALA797  LYS798  CYS799  TRP800  GLU811  SER814 

> <Gold.Protein.RotatedAtoms>
  152.5315  134.2961  159.9060 H   0  0  0  0  0  0  0  0  0  0  0  0  # atno 6907 bound_to 6896
  151.2912  133.4158  159.2641 H   0  0  0  0  0  0  0  0  0  0  0  0  # atno 6908 bound_to 6896
  151.0199  134.9477  159.8110 H   0  0  0  0  0  0  0  0  0  0  0  0  # atno 6909 bound_to 6896
  145.8945  140.8044  142.9775 H   0  0  0  0  0  0  0  0  0  0  0  0  # atno 7974 bound_to 7965
  156.2290  140.2969  156.0139 H   0  0  0  0  0  0  0  0  0  0  0  0  # atno 8008 bound_to 7997
  155.2278  140.0418  157.2975 H   0  0  0  0  0  0  0  0  0  0  0  0  # atno 8009 bound_to 7997
  154.5963  140.2415  155.7860 H   0  0  0  0  0  0  0  0  0  0  0  0  # atno 8010 bound_to 7997
  139.8760  144.6467  150.8896 H   0  0  0  0  0  0  0  0  0  0  0  0  # atno 10167 bound_to 10162
  157.0067  131.0192  151.2815 H   0  0  0  0  0  0  0  0  0  0  0  0  # atno 10718 bound_to 10713
  154.1084  135.6553  153.4880 H   0  0  0  0  0  0  0  0  0  0  0  0  # atno 10763 bound_to 10752
  153.0265  135.5241  154.7217 H   0  0  0  0  0  0  0  0  0  0  0  0  # atno 10764 bound_to 10752
  154.6389  135.2986  155.0096 H   0  0  0  0  0  0  0  0  0  0  0  0  # atno 10765 bound_to 10752
  140.4938  134.5959  157.4964 H   0  0  0  0  0  0  0  0  0  0  0  0  # atno 11005 bound_to 11000
  144.6732  140.1581  143.7424 LP  0  0  0  0  0  0  0  0  0  0  0  0  # atno 17320 bound_to 7965
  145.8868  139.2353  143.1573 LP  0  0  0  0  0  0  0  0  0  0  0  0  # atno 17321 bound_to 7965
  140.7753  143.3625  151.1802 LP  0  0  0  0  0  0  0  0  0  0  0  0  # atno 17342 bound_to 10162
  139.7240  143.9178  152.2996 LP  0  0  0  0  0  0  0  0  0  0  0  0  # atno 17343 bound_to 10162
  157.5350  130.8083  149.7962 LP  0  0  0  0  0  0  0  0  0  0  0  0  # atno 17370 bound_to 10713
  156.0151  130.3817  150.2137 LP  0  0  0  0  0  0  0  0  0  0  0  0  # atno 17371 bound_to 10713
  139.9753  134.7225  155.9961 LP  0  0  0  0  0  0  0  0  0  0  0  0  # atno 17394 bound_to 11000
  141.1470  133.6554  156.3899 LP  0  0  0  0  0  0  0  0  0  0  0  0  # atno 17395 bound_to 11000

$$$$
