AV-unprocessed.smi:595|AV-procd|sdf|3018|dock6
  -GOLD-   2262023523D 1   1.00000     0.00000
 Structure written by MMmdl.
 39 40  0  0  0  0  0  0  0  0  1 V2000
  151.4576  137.2023  159.8057 O   0  0  0  0  0  0  0  0  0  0  0  0
  151.1791  137.8170  158.7729 C   0  0  0  0  0  0  0  0  0  0  0  0
  152.2674  138.6226  158.0471 C   0  0  0  0  0  0  0  0  0  0  0  0
  151.7961  139.9436  157.5997 N   0  0  0  0  0  0  0  0  0  0  0  0
  152.1618  141.0491  158.3928 C   0  0  0  0  0  0  0  0  0  0  0  0
  151.8135  142.3149  158.0923 C   0  0  0  0  0  0  0  0  0  0  0  0
  152.1818  143.4818  158.9952 C   0  0  0  0  0  0  0  0  0  0  0  0
  151.0960  144.0211  159.5497 F   0  0  0  0  0  0  0  0  0  0  0  0
  153.0029  143.0943  159.9720 F   0  0  0  0  0  0  0  0  0  0  0  0
  152.7985  144.4261  158.2859 F   0  0  0  0  0  0  0  0  0  0  0  0
  150.9942  142.4944  156.9098 C   0  0  0  0  0  0  0  0  0  0  0  0
  150.6305  141.4475  156.1437 C   0  0  0  0  0  0  0  0  0  0  0  0
  151.0423  140.0797  156.4678 C   0  0  0  0  0  0  0  0  0  0  0  0
  150.7299  139.1185  155.7651 O   0  0  0  0  0  0  0  0  0  0  0  0
  149.9606  137.8551  158.1856 N   0  0  0  0  0  0  0  0  0  0  0  0
  148.7852  137.2792  158.5338 C   0  0  0  0  0  0  0  0  0  0  0  0
  147.8837  137.1495  157.7072 O   0  0  0  0  0  0  0  0  0  0  0  0
  148.6579  136.8619  159.8076 N   0  0  0  0  0  0  0  0  0  0  0  0
  147.4746  136.2205  160.3729 C   0  0  0  0  0  0  0  0  0  0  0  0
  147.0245  136.9544  161.6487 C   0  0  0  0  0  0  0  0  0  0  0  0
  147.4012  136.0381  162.8127 C   0  0  0  0  0  0  0  0  0  0  0  0
  147.2647  134.6326  162.2361 C   0  0  0  0  0  0  0  0  0  0  0  0
  147.7608  134.7639  160.7948 C   0  0  0  0  0  0  0  0  0  0  0  0
  153.1333  138.7053  158.7057 H   0  0  0  0  0  0  0  0  0  0  0  0
  152.6234  138.0571  157.1839 H   0  0  0  0  0  0  0  0  0  0  0  0
  152.7515  140.7989  159.2632 H   0  0  0  0  0  0  0  0  0  0  0  0
  150.6697  143.4859  156.6301 H   0  0  0  0  0  0  0  0  0  0  0  0
  150.0210  141.6190  155.2687 H   0  0  0  0  0  0  0  0  0  0  0  0
  149.9175  138.4075  157.3416 H   0  0  0  0  0  0  0  0  0  0  0  0
  149.4427  136.9982  160.4295 H   0  0  0  0  0  0  0  0  0  0  0  0
  146.6631  136.2518  159.6435 H   0  0  0  0  0  0  0  0  0  0  0  0
  147.4574  137.9506  161.7523 H   0  0  0  0  0  0  0  0  0  0  0  0
  145.9409  137.0772  161.6282 H   0  0  0  0  0  0  0  0  0  0  0  0
  148.4372  136.2178  163.1031 H   0  0  0  0  0  0  0  0  0  0  0  0
  146.7751  136.1950  163.6913 H   0  0  0  0  0  0  0  0  0  0  0  0
  147.8212  133.8878  162.8055 H   0  0  0  0  0  0  0  0  0  0  0  0
  146.2148  134.3371  162.2375 H   0  0  0  0  0  0  0  0  0  0  0  0
  147.2795  134.0429  160.1332 H   0  0  0  0  0  0  0  0  0  0  0  0
  148.8320  134.5580  160.7691 H   0  0  0  0  0  0  0  0  0  0  0  0
  1  2  2  0  0  0  0
  2  3  1  0  0  0  0
  2 15  1  0  0  0  0
  3  4  1  0  0  0  0
  3 24  1  0  0  0  0
  3 25  1  0  0  0  0
  4 13  1  0  0  0  0
  4  5  1  0  0  0  0
  5  6  2  0  0  0  0
  5 26  1  0  0  0  0
  6  7  1  0  0  0  0
  6 11  1  0  0  0  0
  7  8  1  0  0  0  0
  7  9  1  0  0  0  0
  7 10  1  0  0  0  0
 11 12  2  0  0  0  0
 11 27  1  0  0  0  0
 12 13  1  0  0  0  0
 12 28  1  0  0  0  0
 13 14  2  0  0  0  0
 15 16  1  0  0  0  0
 15 29  1  0  0  0  0
 16 17  2  0  0  0  0
 16 18  1  0  0  0  0
 18 19  1  0  0  0  0
 18 30  1  0  0  0  0
 19 23  1  0  0  0  0
 19 20  1  0  0  0  0
 19 31  1  0  0  0  0
 20 21  1  0  0  0  0
 20 32  1  0  0  0  0
 20 33  1  0  0  0  0
 21 22  1  0  0  0  0
 21 34  1  0  0  0  0
 21 35  1  0  0  0  0
 22 23  1  0  0  0  0
 22 36  1  0  0  0  0
 22 37  1  0  0  0  0
 23 38  1  0  0  0  0
 23 39  1  0  0  0  0
M  END
> <s_m_source_file>
AV-unprocessed.smi

> <i_m_source_file_index>
595

> <i_lp_mmshare_version>
43012

> <i_f3d_flags>
0

> <s_epik_input>
W0NIMl0xW0NIMl1bQ0gyXVtDSDJdW0NIXTFbTkhdQyg9TylbTkhdQyg9TylbQ0gyXW4yW2NIXWMoQyhGKShGKUYpW2NIXVtjSF1jMj1P

> <s_epik_cmdline>
J2VwaWtfcHl0aG9uJywgJy1waCcsICc3LjAnLCAnLXRuJywgJzgnLCAnLW1hJywgJzIwMCcsICctbWV0YWxfYmluZGluZycsICctaW1hZScsICc8aW5maWxlLm1hZT4nLCAnLW9tYWUnLCAnPG91dGZpbGUubWFlPic=

> <r_lp_tautomer_probability>
1

> <r_epik_Ionization_Penalty>
3.29047e-05

> <r_epik_Ionization_Penalty_Charging>
1.42456e-08

> <r_epik_Ionization_Penalty_Neutral>
3.28905e-05

> <r_epik_State_Penalty>
-0

> <r_epik_Charging_Adjusted_Penalty>
1.42456e-08

> <i_epik_Tot_Q>
0

> <i_epik_Tot_abs_Q>
0

> <r_epik_Metal_State_Penalty>
-0

> <b_epik_Metal_Only>
0

> <s_lp_Force_Field>
OPLS_2005

> <r_lp_Energy>
34.7393

> <b_lp_Chiralities_Consistent>
1

> <s_lp_Variant>
AV-unprocessed.smi:595-1

> <Gold.Version>
5.8.1

> <Gold.Id.Protein>
6NUR|6NUR_protein|mol2

> <Gold.PLP.Fitness>
48.7407

> <Gold.PLP.PLP>
-48.2413

> <Gold.PLP.part.hbond>
-0.9803

> <Gold.PLP.part.metal>
0.0000

> <Gold.PLP.part.buried>
-5.3186

> <Gold.PLP.part.nonpolar>
-42.1458

> <Gold.PLP.part.repulsive>
0.3536

> <Gold.PLP.ligand.clash>
1.1779

> <Gold.PLP.ligand.torsion>
0.6984

> <Gold.PLP.Chemscore.Hbond>
1.0000

> <Gold.PLP.Chemscore.CHOScore>
0.0000

> <Gold.PLP.Chemscore.Metal>
0.0000

> <Gold.Chemscore.Hbonds>
donor molecule, donor type, donor heavy atom, donor atom, acceptor molecule, acceptor atom, score
      P1  H  6896  6909       L1     1  0.99

> <Gold.PLP.Chemscore.Internal.Correction>
0.0741

> <Gold.Rescore>
     Score         DG    S(hbond)    S(metal)    S(lipo)     H(rot)  DE(clash)    DE(int)     intcor
     14.43     -15.09       0.99        0.00      90.58       1.68       0.03       0.63       ----

> <Gold.Chemscore.Fitness>
14.4336

> <Gold.Chemscore.DG>
-15.0934

> <Gold.Chemscore.ZeroCoef>
-5.4800

> <Gold.Chemscore.Hbond>
0.9892

> <Gold.Chemscore.Metal>
0.0000

> <Gold.Chemscore.Lipo>
90.5782

> <Gold.Chemscore.Internal_Hbond>
0.0000

> <Gold.Chemscore.DEClash>
0.0285

> <Gold.Chemscore.DEInternal>
0.6314

> <Gold.Chemscore.Rot>
1.6750

> <Gold.Chemscore.Internal.Correction>
   9.000000E+99

> <Gold.Chemscore.Hbonds>
donor molecule, donor type, donor heavy atom, donor atom, acceptor molecule, acceptor atom, score
      P1  H  6896  6909       L1     1  0.92

> <Gold.Chemscore.Hbond.Weighted>
-3.3039

> <Gold.Chemscore.Metal.Weighted>
-0.0000

> <Gold.Chemscore.Lipo.Weighted>
-10.5977

> <Gold.Chemscore.Internal_Hbond.Weighted>
0.0000

> <Gold.Chemscore.DEClash.Weighted>
0.0285

> <Gold.Chemscore.DEInternal.Weighted>
0.6314

> <Gold.Chemscore.Rot.Weighted>
4.2881

> <Gold.Chemscore.Internal.Correction.Weighted>
   9.000000E+99

> <Gold.Protein.RotatedTorsions>
[ 6907 6896 6895 6894 ] final  117.30 input  -60.11 | X-H torsion
[ 7974 7965 7964 7962 ] final -124.85 input  175.53 | X-H torsion
[ 8008 7997 7996 7995 ] final  178.66 input   59.86 | X-H torsion
[ 10167 10162 10161 10158 ] final   -9.74 input  -65.29 | X-H torsion
[ 10718 10713 10712 10709 ] final  -53.67 input   66.30 | X-H torsion
[ 10763 10752 10751 10750 ] final -133.66 input  -60.55 | X-H torsion
[ 11005 11000 10999 10996 ] final   -1.90 input  -57.11 | X-H torsion

> <Gold.Protein.ActiveResidues>
 VAL166  LYS551  ARG553  GLY616  TRP617  ASP618  TYR619  PRO620  LYS621  CYS622 
 ASP623  PHE694  ASN695  SER759  ASP760  ASP761  ALA762  ILE779  LEU786  VAL792 
 PHE793  MET794  SER795  GLU796  ALA797  LYS798  CYS799  TRP800  GLU811  SER814 

> <Gold.Protein.RotatedAtoms>
  152.4621  133.7844  159.6867 H   0  0  0  0  0  0  0  0  0  0  0  0  # atno 6907 bound_to 6896
  150.8569  133.7692  159.3012 H   0  0  0  0  0  0  0  0  0  0  0  0  # atno 6908 bound_to 6896
  151.5269  135.1071  159.9944 H   0  0  0  0  0  0  0  0  0  0  0  0  # atno 6909 bound_to 6896
  145.0037  140.7843  143.4481 H   0  0  0  0  0  0  0  0  0  0  0  0  # atno 7974 bound_to 7965
  156.0522  140.1328  157.0037 H   0  0  0  0  0  0  0  0  0  0  0  0  # atno 8008 bound_to 7997
  154.4440  140.1008  156.6463 H   0  0  0  0  0  0  0  0  0  0  0  0  # atno 8009 bound_to 7997
  155.5506  140.3463  155.4470 H   0  0  0  0  0  0  0  0  0  0  0  0  # atno 8010 bound_to 7997
  140.7095  143.5824  150.8978 H   0  0  0  0  0  0  0  0  0  0  0  0  # atno 10167 bound_to 10162
  156.1515  130.4151  149.9937 H   0  0  0  0  0  0  0  0  0  0  0  0  # atno 10718 bound_to 10713
  154.8730  135.3759  154.4608 H   0  0  0  0  0  0  0  0  0  0  0  0  # atno 10763 bound_to 10752
  153.5277  135.7028  153.5704 H   0  0  0  0  0  0  0  0  0  0  0  0  # atno 10764 bound_to 10752
  153.3923  135.3969  155.1897 H   0  0  0  0  0  0  0  0  0  0  0  0  # atno 10765 bound_to 10752
  140.6524  133.9393  155.8388 H   0  0  0  0  0  0  0  0  0  0  0  0  # atno 11005 bound_to 11000
  145.2118  139.2201  143.5139 LP  0  0  0  0  0  0  0  0  0  0  0  0  # atno 17320 bound_to 7965
  146.3457  140.1958  142.8589 LP  0  0  0  0  0  0  0  0  0  0  0  0  # atno 17321 bound_to 7965
  139.9550  143.6228  152.3018 LP  0  0  0  0  0  0  0  0  0  0  0  0  # atno 17342 bound_to 10162
  139.6760  144.7658  151.1694 LP  0  0  0  0  0  0  0  0  0  0  0  0  # atno 17343 bound_to 10162
  156.7793  130.9215  151.3646 LP  0  0  0  0  0  0  0  0  0  0  0  0  # atno 17370 bound_to 10713
  157.6661  130.9009  149.9935 LP  0  0  0  0  0  0  0  0  0  0  0  0  # atno 17371 bound_to 10713
  141.0527  134.0462  157.3763 LP  0  0  0  0  0  0  0  0  0  0  0  0  # atno 17394 bound_to 11000
  139.9041  135.0174  156.7406 LP  0  0  0  0  0  0  0  0  0  0  0  0  # atno 17395 bound_to 11000

$$$$
