AV-unprocessed.smi:193|AV-procd|sdf|1496|dock2
  -GOLD-   2262019323D 1   1.00000     0.00000
 Structure written by MMmdl.
 62 66  0  0  0  0  0  0  0  0  2 V2000
  146.4214  128.5239  152.9157 C   0  0  0  0  0  0  0  0  0  0  0  0
  147.1182  129.8921  152.8419 C   0  0  2  0  0  0  0  0  0  0  0  0
  147.6200  130.2851  154.2465 C   0  0  0  0  0  0  0  0  0  0  0  0
  148.6825  131.2891  154.2509 N   0  0  0  0  0  0  0  0  0  0  0  0
  149.1073  131.6917  155.4680 C   0  0  0  0  0  0  0  0  0  0  0  0
  150.3829  132.1410  155.5660 N   0  0  0  0  0  0  0  0  0  0  0  0
  150.8572  132.5508  156.7467 C   0  0  0  0  0  0  0  0  0  0  0  0
  150.2327  132.6004  157.9253 N   0  0  0  0  0  0  0  0  0  0  0  0
  148.9432  132.1677  157.8235 C   0  0  0  0  0  0  0  0  0  0  0  0
  148.3026  131.7009  156.6416 C   0  0  0  0  0  0  0  0  0  0  0  0
  146.9838  131.3618  156.9195 N   0  0  0  0  0  0  0  0  0  0  0  0
  146.8559  131.6028  158.1960 C   0  0  0  0  0  0  0  0  0  0  0  0
  147.9826  132.0928  158.8169 N   0  0  0  0  0  0  0  0  0  0  0  0
  148.1183  132.4436  160.2221 C   0  0  0  0  0  0  0  0  0  0  0  0
  147.5822  133.8534  160.5740 C   0  0  0  0  0  0  0  0  0  0  0  0
  146.2243  133.9112  160.1712 O   0  0  0  0  0  0  0  0  0  0  0  0
  147.6492  134.0867  162.0966 C   0  0  0  0  0  0  0  0  0  0  0  0
  147.2883  135.5328  162.4794 C   0  0  0  0  0  0  0  0  0  0  0  0
  148.1264  136.4445  161.7798 O   0  0  0  0  0  0  0  0  0  0  0  0
  147.9573  136.3760  160.3692 C   0  0  0  0  0  0  0  0  0  0  0  0
  148.3545  134.9810  159.8546 C   0  0  0  0  0  0  0  0  0  0  0  0
  148.8303  132.2820  153.1912 C   0  0  0  0  0  0  0  0  0  0  0  0
  147.5050  132.9491  152.8005 C   0  0  0  0  0  0  0  0  0  0  0  0
  146.7983  132.1686  151.7567 N   0  3  2  0  0  0  0  0  0  0  0  0
  145.8502  133.0141  150.9966 C   0  0  2  0  0  0  0  0  0  0  0  0
  144.4369  132.9726  151.5306 C   0  0  0  0  0  0  0  0  0  0  0  0
  144.7872  132.2282  150.2602 C   0  0  1  0  0  0  0  0  0  0  0  0
  144.2608  132.7077  148.9254 C   0  0  0  0  0  0  0  0  0  0  0  0
  146.1377  130.9429  152.2712 C   0  0  0  0  0  0  0  0  0  0  0  0
  145.5529  128.5555  153.5746 H   0  0  0  0  0  0  0  0  0  0  0  0
  147.0973  127.7560  153.2935 H   0  0  0  0  0  0  0  0  0  0  0  0
  146.0814  128.1986  151.9319 H   0  0  0  0  0  0  0  0  0  0  0  0
  147.9666  129.7752  152.1661 H   0  0  0  0  0  0  0  0  0  0  0  0
  146.7764  130.6040  154.8575 H   0  0  0  0  0  0  0  0  0  0  0  0
  148.0297  129.4018  154.7389 H   0  0  0  0  0  0  0  0  0  0  0  0
  151.8833  132.8881  156.7477 H   0  0  0  0  0  0  0  0  0  0  0  0
  145.9284  131.4340  158.7242 H   0  0  0  0  0  0  0  0  0  0  0  0
  147.6029  131.6849  160.8129 H   0  0  0  0  0  0  0  0  0  0  0  0
  149.1734  132.3681  160.4884 H   0  0  0  0  0  0  0  0  0  0  0  0
  146.0132  133.1106  159.7154 H   0  0  0  0  0  0  0  0  0  0  0  0
  146.9973  133.3865  162.6209 H   0  0  0  0  0  0  0  0  0  0  0  0
  148.6613  133.8815  162.4479 H   0  0  0  0  0  0  0  0  0  0  0  0
  146.2399  135.7472  162.2668 H   0  0  0  0  0  0  0  0  0  0  0  0
  147.4283  135.6800  163.5505 H   0  0  0  0  0  0  0  0  0  0  0  0
  146.9265  136.6146  160.1030 H   0  0  0  0  0  0  0  0  0  0  0  0
  148.5854  137.1363  159.9044 H   0  0  0  0  0  0  0  0  0  0  0  0
  149.4241  134.8443  160.0189 H   0  0  0  0  0  0  0  0  0  0  0  0
  148.2019  134.9324  158.7758 H   0  0  0  0  0  0  0  0  0  0  0  0
  149.5223  133.0580  153.5237 H   0  0  0  0  0  0  0  0  0  0  0  0
  149.3033  131.8225  152.3227 H   0  0  0  0  0  0  0  0  0  0  0  0
  146.8644  133.1379  153.6633 H   0  0  0  0  0  0  0  0  0  0  0  0
  147.7477  133.9276  152.3839 H   0  0  0  0  0  0  0  0  0  0  0  0
  146.2537  133.9345  150.5770 H   0  0  0  0  0  0  0  0  0  0  0  0
  144.2371  132.3777  152.4199 H   0  0  0  0  0  0  0  0  0  0  0  0
  143.8407  133.8782  151.4364 H   0  0  0  0  0  0  0  0  0  0  0  0
  144.8336  131.1435  150.3438 H   0  0  0  0  0  0  0  0  0  0  0  0
  144.2333  133.7972  148.8883 H   0  0  0  0  0  0  0  0  0  0  0  0
  143.2517  132.3286  148.7626 H   0  0  0  0  0  0  0  0  0  0  0  0
  144.9019  132.3487  148.1200 H   0  0  0  0  0  0  0  0  0  0  0  0
  145.5953  130.4922  151.4389 H   0  0  0  0  0  0  0  0  0  0  0  0
  145.3827  131.2101  153.0125 H   0  0  0  0  0  0  0  0  0  0  0  0
  147.4990  131.8702  151.0933 H   0  0  0  0  0  0  0  0  0  0  0  0
  1  2  1  0  0  0  0
  1 30  1  0  0  0  0
  1 31  1  0  0  0  0
  1 32  1  0  0  0  0
  2 29  1  0  0  0  0
  2  3  1  0  0  0  0
  2 33  1  0  0  0  0
  3  4  1  0  0  0  0
  3 34  1  0  0  0  0
  3 35  1  0  0  0  0
  4  5  1  0  0  0  0
  4 22  1  0  0  0  0
  5 10  1  0  0  0  0
  5  6  2  0  0  0  0
  6  7  1  0  0  0  0
  7  8  2  0  0  0  0
  7 36  1  0  0  0  0
  8  9  1  0  0  0  0
  9 13  1  0  0  0  0
  9 10  2  0  0  0  0
 10 11  1  0  0  0  0
 11 12  2  0  0  0  0
 12 13  1  0  0  0  0
 12 37  1  0  0  0  0
 13 14  1  0  0  0  0
 14 15  1  0  0  0  0
 14 38  1  0  0  0  0
 14 39  1  0  0  0  0
 15 21  1  0  0  0  0
 15 16  1  0  0  0  0
 15 17  1  0  0  0  0
 16 40  1  0  0  0  0
 17 18  1  0  0  0  0
 17 41  1  0  0  0  0
 17 42  1  0  0  0  0
 18 19  1  0  0  0  0
 18 43  1  0  0  0  0
 18 44  1  0  0  0  0
 19 20  1  0  0  0  0
 20 21  1  0  0  0  0
 20 45  1  0  0  0  0
 20 46  1  0  0  0  0
 21 47  1  0  0  0  0
 21 48  1  0  0  0  0
 22 23  1  0  0  0  0
 22 49  1  0  0  0  0
 22 50  1  0  0  0  0
 23 24  1  0  0  0  0
 23 51  1  0  0  0  0
 23 52  1  0  0  0  0
 24 25  1  0  0  0  0
 24 29  1  0  0  0  0
 24 62  1  0  0  0  0
 25 27  1  0  0  0  0
 25 26  1  0  0  0  0
 25 53  1  0  0  0  0
 26 27  1  0  0  0  0
 26 54  1  0  0  0  0
 26 55  1  0  0  0  0
 27 28  1  0  0  0  0
 27 56  1  0  0  0  0
 28 57  1  0  0  0  0
 28 58  1  0  0  0  0
 28 59  1  0  0  0  0
 29 60  1  0  0  0  0
 29 61  1  0  0  0  0
M  CHG  1  24   1
M  END
> <s_m_source_file>
AV-unprocessed.smi

> <i_m_source_file_index>
193

> <i_lp_mmshare_version>
43012

> <i_f3d_flags>
0

> <s_epik_input>
W0NIM11bQ0BASF0xW0NIMl1bQ0BIXTFOKFtDSDJdMilbQ0gyXVtDSDJdTihbQ0gyXVtDQEhdMltDSDNdKWMobltjSF1uMyljKGMzNCluW2NIXW40W0NIMl1DNShbT0hdKVtDSDJdW0NIMl1PW0NIMl1bQ0gyXTU=

> <s_epik_cmdline>
J2VwaWtfcHl0aG9uJywgJy1waCcsICc3LjAnLCAnLXRuJywgJzgnLCAnLW1hJywgJzIwMCcsICctbWV0YWxfYmluZGluZycsICctaW1hZScsICc8aW5maWxlLm1hZT4nLCAnLW9tYWUnLCAnPG91dGZpbGUubWFlPic=

> <r_lp_tautomer_probability>
1

> <r_epik_Ionization_Penalty>
0.0540825

> <r_epik_Ionization_Penalty_Charging>
0.0538476

> <r_epik_Ionization_Penalty_Neutral>
0.000234891

> <r_epik_State_Penalty>
0.0200719

> <r_epik_Charging_Adjusted_Penalty>
0.0739194

> <i_epik_Tot_Q>
1

> <i_epik_Tot_abs_Q>
1

> <r_epik_Metal_State_Penalty>
0.0199414

> <b_epik_Metal_Only>
0

> <s_lp_Force_Field>
OPLS_2005

> <r_lp_Energy>
53.912

> <b_lp_Chiralities_Consistent>
1

> <s_lp_Variant>
AV-unprocessed.smi:193-1

> <Gold.Version>
5.8.1

> <Gold.Id.Protein>
6NUR|6NUR_protein|mol2

> <Gold.PLP.Fitness>
54.2888

> <Gold.PLP.PLP>
-47.3773

> <Gold.PLP.part.hbond>
-3.0000

> <Gold.PLP.part.metal>
0.0000

> <Gold.PLP.part.buried>
-6.6115

> <Gold.PLP.part.nonpolar>
-37.7484

> <Gold.PLP.part.repulsive>
0.0358

> <Gold.PLP.ligand.clash>
0.2924

> <Gold.PLP.ligand.torsion>
1.6318

> <Gold.PLP.Chemscore.Hbond>
3.0000

> <Gold.PLP.Chemscore.CHOScore>
0.0000

> <Gold.PLP.Chemscore.Metal>
0.0000

> <Gold.Chemscore.Hbonds>
donor molecule, donor type, donor heavy atom, donor atom, acceptor molecule, acceptor atom, score
      L1  H    24    62       P1 10747  1.00
      P1  H  6896  6908       L1     8  1.00
      P1  H  6931  6943       L1    19  1.00

> <Gold.PLP.Chemscore.Internal.Correction>
1.4674

> <Gold.Rescore>
     Score         DG    S(hbond)    S(metal)    S(lipo)     H(rot)  DE(clash)    DE(int)     intcor
     20.77     -23.60       2.94        0.00     113.11       1.93       0.06       2.78       ----

> <Gold.Chemscore.Fitness>
20.7662

> <Gold.Chemscore.DG>
-23.6021

> <Gold.Chemscore.ZeroCoef>
-5.4800

> <Gold.Chemscore.Hbond>
2.9421

> <Gold.Chemscore.Metal>
0.0000

> <Gold.Chemscore.Lipo>
113.1097

> <Gold.Chemscore.Internal_Hbond>
0.0000

> <Gold.Chemscore.DEClash>
0.0584

> <Gold.Chemscore.DEInternal>
2.7775

> <Gold.Chemscore.Rot>
1.9290

> <Gold.Chemscore.Internal.Correction>
   9.000000E+99

> <Gold.Chemscore.Hbonds>
donor molecule, donor type, donor heavy atom, donor atom, acceptor molecule, acceptor atom, score
      L1  H    24    62       P1 10747  0.98
      P1  H  6896  6908       L1     8  0.85
      P1  H  6931  6943       L1    19  0.24

> <Gold.Chemscore.Hbond.Weighted>
-9.8266

> <Gold.Chemscore.Metal.Weighted>
-0.0000

> <Gold.Chemscore.Lipo.Weighted>
-13.2338

> <Gold.Chemscore.Internal_Hbond.Weighted>
0.0000

> <Gold.Chemscore.DEClash.Weighted>
0.0584

> <Gold.Chemscore.DEInternal.Weighted>
2.7775

> <Gold.Chemscore.Rot.Weighted>
4.9383

> <Gold.Chemscore.Internal.Correction.Weighted>
   9.000000E+99

> <Gold.Protein.RotatedTorsions>
[ 6907 6896 6895 6894 ] final   86.82 input  -60.11 | X-H torsion
[ 7974 7965 7964 7962 ] final   85.85 input  175.53 | X-H torsion
[ 8008 7997 7996 7995 ] final  -63.17 input   59.86 | X-H torsion
[ 10167 10162 10161 10158 ] final    6.51 input  -65.29 | X-H torsion
[ 10718 10713 10712 10709 ] final   43.64 input   66.30 | X-H torsion
[ 10763 10752 10751 10750 ] final    9.42 input  -60.55 | X-H torsion
[ 11005 11000 10999 10996 ] final  175.48 input  -57.11 | X-H torsion

> <Gold.Protein.ActiveResidues>
 VAL166  LYS551  ARG553  GLY616  TRP617  ASP618  TYR619  PRO620  LYS621  CYS622 
 ASP623  PHE694  ASN695  SER759  ASP760  ASP761  ALA762  ILE779  LEU786  VAL792 
 PHE793  MET794  SER795  GLU796  ALA797  LYS798  CYS799  TRP800  GLU811  SER814 

> <Gold.Protein.RotatedAtoms>
  152.5401  134.2372  159.8847 H   0  0  0  0  0  0  0  0  0  0  0  0  # atno 6907 bound_to 6896
  151.2341  133.4428  159.2612 H   0  0  0  0  0  0  0  0  0  0  0  0  # atno 6908 bound_to 6896
  151.0688  134.9798  159.8354 H   0  0  0  0  0  0  0  0  0  0  0  0  # atno 6909 bound_to 6896
  145.5801  139.2324  143.2357 H   0  0  0  0  0  0  0  0  0  0  0  0  # atno 7974 bound_to 7965
  154.4539  140.0980  156.6701 H   0  0  0  0  0  0  0  0  0  0  0  0  # atno 8008 bound_to 7997
  155.5198  140.3478  155.4386 H   0  0  0  0  0  0  0  0  0  0  0  0  # atno 8009 bound_to 7997
  156.0738  140.1356  156.9785 H   0  0  0  0  0  0  0  0  0  0  0  0  # atno 8010 bound_to 7997
  140.6423  143.7744  150.7447 H   0  0  0  0  0  0  0  0  0  0  0  0  # atno 10167 bound_to 10162
  157.4181  130.7953  149.7491 H   0  0  0  0  0  0  0  0  0  0  0  0  # atno 10718 bound_to 10713
  153.2142  135.6873  153.8077 H   0  0  0  0  0  0  0  0  0  0  0  0  # atno 10763 bound_to 10752
  153.7299  135.3254  155.3285 H   0  0  0  0  0  0  0  0  0  0  0  0  # atno 10764 bound_to 10752
  154.8237  135.4633  154.0962 H   0  0  0  0  0  0  0  0  0  0  0  0  # atno 10765 bound_to 10752
  140.3627  134.7099  157.4341 H   0  0  0  0  0  0  0  0  0  0  0  0  # atno 11005 bound_to 11000
  146.1722  140.6628  142.9228 LP  0  0  0  0  0  0  0  0  0  0  0  0  # atno 17320 bound_to 7965
  144.7398  140.4910  143.6877 LP  0  0  0  0  0  0  0  0  0  0  0  0  # atno 17321 bound_to 7965
  140.1378  143.4468  152.2213 LP  0  0  0  0  0  0  0  0  0  0  0  0  # atno 17342 bound_to 10162
  139.5633  144.7419  151.4094 LP  0  0  0  0  0  0  0  0  0  0  0  0  # atno 17343 bound_to 10162
  155.9872  130.3969  150.3177 LP  0  0  0  0  0  0  0  0  0  0  0  0  # atno 17370 bound_to 10713
  157.1323  131.0275  151.2964 LP  0  0  0  0  0  0  0  0  0  0  0  0  # atno 17371 bound_to 10713
  140.0614  134.5990  155.8745 LP  0  0  0  0  0  0  0  0  0  0  0  0  # atno 17394 bound_to 11000
  141.1979  133.6599  156.5765 LP  0  0  0  0  0  0  0  0  0  0  0  0  # atno 17395 bound_to 11000

$$$$
