AV-unprocessed.smi:1762|AV-procd|sdf|7120|dock8
  -GOLD-   22720 8353D 1   1.00000     0.00000
 Structure written by MMmdl.
 52 53  0  0  0  0  0  0  0  0  3 V2000
  151.7305  145.4751  159.7864 C   0  0  0  0  0  0  0  0  0  0  0  0
  151.7554  143.9436  159.7403 C   0  0  1  0  0  0  0  0  0  0  0  0
  152.2004  143.4136  158.3624 C   0  0  0  0  0  0  0  0  0  0  0  0
  152.2617  141.9265  158.3533 N   0  3  2  0  0  0  0  0  0  0  0  0
  150.9446  141.1951  158.3051 C   0  0  2  0  0  0  0  0  0  0  0  0
  151.1257  139.6597  158.1980 C   0  0  0  0  0  0  0  0  0  0  0  0
  151.9631  139.2327  157.3963 O   0  0  0  0  0  0  0  0  0  0  0  0
  150.2825  138.9807  159.0282 N   0  5  0  0  0  0  0  0  0  0  0  0
  150.2177  137.5228  159.1143 C   0  0  0  0  0  0  0  0  0  0  0  0
  148.7548  137.0405  158.9779 C   0  0  0  0  0  0  0  0  0  0  0  0
  148.1950  136.3760  160.2315 C   0  0  0  0  0  0  0  0  0  0  0  0
  147.9943  134.9774  160.2751 C   0  0  0  0  0  0  0  0  0  0  0  0
  147.4880  134.4043  161.4573 C   0  0  0  0  0  0  0  0  0  0  0  0
  147.2052  135.2439  162.5512 C   0  0  0  0  0  0  0  0  0  0  0  0
  147.4434  136.6257  162.4140 C   0  0  0  0  0  0  0  0  0  0  0  0
  147.9303  137.1856  161.2859 N   0  0  0  0  0  0  0  0  0  0  0  0
  149.9253  141.7397  157.2458 C   0  0  0  0  0  0  0  0  0  0  0  0
  148.5182  141.1281  157.3940 C   0  0  0  0  0  0  0  0  0  0  0  0
  150.3958  141.6322  155.7803 C   0  0  0  0  0  0  0  0  0  0  0  0
  153.1788  141.4921  159.4463 C   0  0  0  0  0  0  0  0  0  0  0  0
  152.7491  142.0696  160.8124 C   0  0  1  0  0  0  0  0  0  0  0  0
  153.7431  141.7133  161.9231 C   0  0  0  0  0  0  0  0  0  0  0  0
  152.6796  143.4893  160.7236 O   0  0  0  0  0  0  0  0  0  0  0  0
  151.0328  145.8785  159.0520 H   0  0  0  0  0  0  0  0  0  0  0  0
  152.7157  145.8928  159.5772 H   0  0  0  0  0  0  0  0  0  0  0  0
  151.4197  145.8306  160.7691 H   0  0  0  0  0  0  0  0  0  0  0  0
  150.7570  143.5764  159.9828 H   0  0  0  0  0  0  0  0  0  0  0  0
  151.5795  143.8135  157.5640 H   0  0  0  0  0  0  0  0  0  0  0  0
  153.2019  143.7886  158.1455 H   0  0  0  0  0  0  0  0  0  0  0  0
  150.4680  141.3645  159.2703 H   0  0  0  0  0  0  0  0  0  0  0  0
  150.8330  137.0396  158.3540 H   0  0  0  0  0  0  0  0  0  0  0  0
  150.6128  137.1769  160.0698 H   0  0  0  0  0  0  0  0  0  0  0  0
  148.1126  137.8833  158.7179 H   0  0  0  0  0  0  0  0  0  0  0  0
  148.6722  136.3351  158.1494 H   0  0  0  0  0  0  0  0  0  0  0  0
  148.2201  134.3580  159.4196 H   0  0  0  0  0  0  0  0  0  0  0  0
  147.3199  133.3395  161.5240 H   0  0  0  0  0  0  0  0  0  0  0  0
  146.8154  134.8389  163.4732 H   0  0  0  0  0  0  0  0  0  0  0  0
  147.2389  137.2995  163.2325 H   0  0  0  0  0  0  0  0  0  0  0  0
  149.7731  142.7974  157.4570 H   0  0  0  0  0  0  0  0  0  0  0  0
  148.4999  140.0734  157.1176 H   0  0  0  0  0  0  0  0  0  0  0  0
  147.8006  141.6420  156.7538 H   0  0  0  0  0  0  0  0  0  0  0  0
  148.1581  141.2112  158.4198 H   0  0  0  0  0  0  0  0  0  0  0  0
  150.4143  140.5976  155.4379 H   0  0  0  0  0  0  0  0  0  0  0  0
  151.3943  142.0438  155.6373 H   0  0  0  0  0  0  0  0  0  0  0  0
  149.7223  142.1762  155.1177 H   0  0  0  0  0  0  0  0  0  0  0  0
  153.2665  140.4076  159.5018 H   0  0  0  0  0  0  0  0  0  0  0  0
  154.1807  141.8497  159.2045 H   0  0  0  0  0  0  0  0  0  0  0  0
  151.7714  141.6813  161.0991 H   0  0  0  0  0  0  0  0  0  0  0  0
  153.8282  140.6328  162.0407 H   0  0  0  0  0  0  0  0  0  0  0  0
  153.4230  142.1268  162.8797 H   0  0  0  0  0  0  0  0  0  0  0  0
  154.7366  142.1063  161.7058 H   0  0  0  0  0  0  0  0  0  0  0  0
  152.7141  141.6649  157.4881 H   0  0  0  0  0  0  0  0  0  0  0  0
  1  2  1  0  0  0  0
  1 24  1  0  0  0  0
  1 25  1  0  0  0  0
  1 26  1  0  0  0  0
  2 23  1  0  0  0  0
  2  3  1  0  0  0  0
  2 27  1  0  0  0  0
  3  4  1  0  0  0  0
  3 28  1  0  0  0  0
  3 29  1  0  0  0  0
  4  5  1  0  0  0  0
  4 20  1  0  0  0  0
  4 52  1  0  0  0  0
  5  6  1  0  0  0  0
  5 17  1  0  0  0  0
  5 30  1  0  0  0  0
  6  7  2  0  0  0  0
  6  8  1  0  0  0  0
  8  9  1  0  0  0  0
  9 10  1  0  0  0  0
  9 31  1  0  0  0  0
  9 32  1  0  0  0  0
 10 11  1  0  0  0  0
 10 33  1  0  0  0  0
 10 34  1  0  0  0  0
 11 16  1  0  0  0  0
 11 12  2  0  0  0  0
 12 13  1  0  0  0  0
 12 35  1  0  0  0  0
 13 14  2  0  0  0  0
 13 36  1  0  0  0  0
 14 15  1  0  0  0  0
 14 37  1  0  0  0  0
 15 16  2  0  0  0  0
 15 38  1  0  0  0  0
 17 18  1  0  0  0  0
 17 19  1  0  0  0  0
 17 39  1  0  0  0  0
 18 40  1  0  0  0  0
 18 41  1  0  0  0  0
 18 42  1  0  0  0  0
 19 43  1  0  0  0  0
 19 44  1  0  0  0  0
 19 45  1  0  0  0  0
 20 21  1  0  0  0  0
 20 46  1  0  0  0  0
 20 47  1  0  0  0  0
 21 22  1  0  0  0  0
 21 23  1  0  0  0  0
 21 48  1  0  0  0  0
 22 49  1  0  0  0  0
 22 50  1  0  0  0  0
 22 51  1  0  0  0  0
M  CHG  1   4   1
M  CHG  1   8  -1
M  END
> <s_m_source_file>
AV-unprocessed.smi

> <i_m_source_file_index>
1762

> <i_lp_mmshare_version>
43012

> <i_f3d_flags>
0

> <s_epik_input>
W0NIM11bQ0BASF0xW0NIMl1OKFtDSDJdW0NASF0oTzEpW0NIM10pW0NAQEhdKFtDSF0oW0NIM10pW0NIM10pQyg9TylbTkhdW0NIMl1bQ0gyXWMyW2NIXVtjSF1bY0hdW2NIXW4y

> <s_epik_cmdline>
J2VwaWtfcHl0aG9uJywgJy1waCcsICc3LjAnLCAnLXRuJywgJzgnLCAnLW1hJywgJzIwMCcsICctbWV0YWxfYmluZGluZycsICctaW1hZScsICc8aW5maWxlLm1hZT4nLCAnLW9tYWUnLCAnPG91dGZpbGUubWFlPic=

> <r_epik_Ionization_Penalty>
7.82966

> <r_epik_Ionization_Penalty_Charging>
7.7461

> <r_epik_Ionization_Penalty_Neutral>
0.0835571

> <r_epik_State_Penalty>
8.52273

> <r_epik_Charging_Adjusted_Penalty>
16.2688

> <i_epik_Tot_Q>
0

> <i_epik_Tot_abs_Q>
2

> <r_epik_Metal_State_Penalty>
4.47451

> <b_epik_Metal_Only>
1

> <s_lp_Force_Field>
OPLS_2005

> <r_lp_Energy>
23.0584

> <b_lp_Chiralities_Consistent>
1

> <s_lp_Variant>
AV-unprocessed.smi:1762-22

> <Gold.Version>
5.8.1

> <Gold.Id.Protein>
6NUR|6NUR_protein|mol2

> <Gold.PLP.Fitness>
55.1095

> <Gold.PLP.PLP>
-52.0576

> <Gold.PLP.part.hbond>
-3.0000

> <Gold.PLP.part.metal>
0.0000

> <Gold.PLP.part.buried>
-5.4221

> <Gold.PLP.part.nonpolar>
-44.0123

> <Gold.PLP.part.repulsive>
0.1276

> <Gold.PLP.ligand.clash>
0.0000

> <Gold.PLP.ligand.torsion>
1.2090

> <Gold.PLP.Chemscore.Hbond>
1.6978

> <Gold.PLP.Chemscore.CHOScore>
0.0000

> <Gold.PLP.Chemscore.Metal>
0.0000

> <Gold.Chemscore.Hbonds>
donor molecule, donor type, donor heavy atom, donor atom, acceptor molecule, acceptor atom, score
      P1  H  6931  6943       L1    16  1.00
      P1  H  6934  6947       L1    16  0.72

> <Gold.PLP.Chemscore.Internal.Correction>
0.3765

> <Gold.Rescore>
     Score         DG    S(hbond)    S(metal)    S(lipo)     H(rot)  DE(clash)    DE(int)     intcor
     19.44     -20.77       1.11        0.00     134.10       1.60       0.08       1.25       ----

> <Gold.Chemscore.Fitness>
19.4379

> <Gold.Chemscore.DG>
-20.7716

> <Gold.Chemscore.ZeroCoef>
-5.4800

> <Gold.Chemscore.Hbond>
1.1080

> <Gold.Chemscore.Metal>
0.0000

> <Gold.Chemscore.Lipo>
134.1016

> <Gold.Chemscore.Internal_Hbond>
0.0000

> <Gold.Chemscore.DEClash>
0.0810

> <Gold.Chemscore.DEInternal>
1.2527

> <Gold.Chemscore.Rot>
1.6012

> <Gold.Chemscore.Internal.Correction>
   9.000000E+99

> <Gold.Chemscore.Hbonds>
donor molecule, donor type, donor heavy atom, donor atom, acceptor molecule, acceptor atom, score
      P1  H  6931  6943       L1    16  0.29
      P1  H  6934  6947       L1    16  0.57

> <Gold.Chemscore.Hbond.Weighted>
-3.7007

> <Gold.Chemscore.Metal.Weighted>
-0.0000

> <Gold.Chemscore.Lipo.Weighted>
-15.6899

> <Gold.Chemscore.Internal_Hbond.Weighted>
0.0000

> <Gold.Chemscore.DEClash.Weighted>
0.0810

> <Gold.Chemscore.DEInternal.Weighted>
1.2527

> <Gold.Chemscore.Rot.Weighted>
4.0990

> <Gold.Chemscore.Internal.Correction.Weighted>
   9.000000E+99

> <Gold.Protein.RotatedTorsions>
[ 6907 6896 6895 6894 ] final   58.57 input  -60.11 | X-H torsion
[ 7974 7965 7964 7962 ] final  104.81 input  175.53 | X-H torsion
[ 8008 7997 7996 7995 ] final -160.80 input   59.86 | X-H torsion
[ 10167 10162 10161 10158 ] final   -9.98 input  -65.29 | X-H torsion
[ 10718 10713 10712 10709 ] final  140.49 input   66.30 | X-H torsion
[ 10763 10752 10751 10750 ] final   79.78 input  -60.55 | X-H torsion
[ 11005 11000 10999 10996 ] final   21.03 input  -57.11 | X-H torsion

> <Gold.Protein.ActiveResidues>
 VAL166  LYS551  ARG553  GLY616  TRP617  ASP618  TYR619  PRO620  LYS621  CYS622 
 ASP623  PHE694  ASN695  SER759  ASP760  ASP761  ALA762  ILE779  LEU786  VAL792 
 PHE793  MET794  SER795  GLU796  ALA797  LYS798  CYS799  TRP800  GLU811  SER814 

> <Gold.Protein.RotatedAtoms>
  152.3836  134.6552  160.0133 H   0  0  0  0  0  0  0  0  0  0  0  0  # atno 6907 bound_to 6896
  151.6808  133.3306  159.3227 H   0  0  0  0  0  0  0  0  0  0  0  0  # atno 6908 bound_to 6896
  150.7767  134.6719  159.6441 H   0  0  0  0  0  0  0  0  0  0  0  0  # atno 6909 bound_to 6896
  145.3279  139.2495  143.3677 H   0  0  0  0  0  0  0  0  0  0  0  0  # atno 7974 bound_to 7965
  155.7827  140.0867  157.2050 H   0  0  0  0  0  0  0  0  0  0  0  0  # atno 8008 bound_to 7997
  154.3989  140.1504  156.3129 H   0  0  0  0  0  0  0  0  0  0  0  0  # atno 8009 bound_to 7997
  155.8637  140.3429  155.5776 H   0  0  0  0  0  0  0  0  0  0  0  0  # atno 8010 bound_to 7997
  140.7102  143.5798  150.9003 H   0  0  0  0  0  0  0  0  0  0  0  0  # atno 10167 bound_to 10162
  157.4027  131.1018  151.0535 H   0  0  0  0  0  0  0  0  0  0  0  0  # atno 10718 bound_to 10713
  153.0980  135.4827  154.8815 H   0  0  0  0  0  0  0  0  0  0  0  0  # atno 10763 bound_to 10752
  154.7347  135.3068  154.8835 H   0  0  0  0  0  0  0  0  0  0  0  0  # atno 10764 bound_to 10752
  153.9460  135.6828  153.4797 H   0  0  0  0  0  0  0  0  0  0  0  0  # atno 10765 bound_to 10752
  140.3960  134.1768  155.7663 H   0  0  0  0  0  0  0  0  0  0  0  0  # atno 11005 bound_to 11000
  146.3057  140.3850  142.8688 LP  0  0  0  0  0  0  0  0  0  0  0  0  # atno 17320 bound_to 7965
  144.8888  140.7496  143.5940 LP  0  0  0  0  0  0  0  0  0  0  0  0  # atno 17321 bound_to 7965
  139.9524  143.6256  152.3025 LP  0  0  0  0  0  0  0  0  0  0  0  0  # atno 17342 bound_to 10162
  139.6780  144.7657  151.1661 LP  0  0  0  0  0  0  0  0  0  0  0  0  # atno 17343 bound_to 10162
  157.1528  130.6192  149.5587 LP  0  0  0  0  0  0  0  0  0  0  0  0  # atno 17370 bound_to 10713
  155.9828  130.4843  150.6898 LP  0  0  0  0  0  0  0  0  0  0  0  0  # atno 17371 bound_to 10713
  141.1874  133.8282  157.1034 LP  0  0  0  0  0  0  0  0  0  0  0  0  # atno 17394 bound_to 11000
  140.0371  134.9873  157.0892 LP  0  0  0  0  0  0  0  0  0  0  0  0  # atno 17395 bound_to 11000

$$$$
