AV-unprocessed.smi:2450|AV-procd|sdf|9666|dock3
  -GOLD-   2272013303D 1   1.00000     0.00000
 Structure written by MMmdl.
 41 42  0  0  0  0  0  0  0  0  1 V2000
  151.7724  145.3360  159.6420 C   0  0  0  0  0  0  0  0  0  0  0  0
  151.9889  144.1074  160.5372 C   0  0  0  0  0  0  0  0  0  0  0  0
  152.6923  142.9309  159.8312 C   0  0  1  0  0  0  0  0  0  0  0  0
  152.8823  141.7384  160.7790 C   0  0  0  0  0  0  0  0  0  0  0  0
  151.9311  142.4921  158.6622 N   0  0  0  0  0  0  0  0  0  0  0  0
  152.1352  141.3634  157.9673 C   0  0  0  0  0  0  0  0  0  0  0  0
  153.0256  140.5529  158.2232 O   0  0  0  0  0  0  0  0  0  0  0  0
  151.2586  141.2565  156.9549 N   0  0  0  0  0  0  0  0  0  0  0  0
  151.1691  140.2320  155.9704 C   0  0  0  0  0  0  0  0  0  0  0  0
  152.1747  139.2436  155.8351 C   0  0  0  0  0  0  0  0  0  0  0  0
  152.0065  138.2113  154.8963 C   0  0  0  0  0  0  0  0  0  0  0  0
  150.8276  138.1933  154.1331 C   0  0  0  0  0  0  0  0  0  0  0  0
  149.8548  139.1178  154.2588 N   0  0  0  0  0  0  0  0  0  0  0  0
  150.0086  140.1280  155.1504 C   0  0  0  0  0  0  0  0  0  0  0  0
  148.9610  141.0745  155.2285 N   0  0  0  0  0  0  0  0  0  0  0  0
  148.1154  141.1457  156.4152 C   0  0  0  0  0  0  0  0  0  0  0  0
  146.9120  141.9824  155.9918 C   0  0  0  0  0  0  0  0  0  0  0  0
  146.7154  141.5576  154.5397 C   0  0  0  0  0  0  0  0  0  0  0  0
  148.1401  141.2924  154.0405 C   0  0  0  0  0  0  0  0  0  0  0  0
  151.3318  146.1550  160.2104 H   0  0  0  0  0  0  0  0  0  0  0  0
  151.1013  145.1156  158.8119 H   0  0  0  0  0  0  0  0  0  0  0  0
  152.7161  145.6901  159.2261 H   0  0  0  0  0  0  0  0  0  0  0  0
  152.5847  144.4114  161.3986 H   0  0  0  0  0  0  0  0  0  0  0  0
  151.0285  143.7789  160.9364 H   0  0  0  0  0  0  0  0  0  0  0  0
  153.6867  143.2610  159.5260 H   0  0  0  0  0  0  0  0  0  0  0  0
  153.4748  142.0205  161.6498 H   0  0  0  0  0  0  0  0  0  0  0  0
  153.4014  140.9190  160.2805 H   0  0  0  0  0  0  0  0  0  0  0  0
  151.9249  141.3579  161.1374 H   0  0  0  0  0  0  0  0  0  0  0  0
  151.1792  143.0964  158.3645 H   0  0  0  0  0  0  0  0  0  0  0  0
  150.6475  142.0470  156.8103 H   0  0  0  0  0  0  0  0  0  0  0  0
  153.0602  139.2451  156.4521 H   0  0  0  0  0  0  0  0  0  0  0  0
  152.7575  137.4449  154.7747 H   0  0  0  0  0  0  0  0  0  0  0  0
  150.6568  137.4123  153.4070 H   0  0  0  0  0  0  0  0  0  0  0  0
  147.7788  140.1511  156.7109 H   0  0  0  0  0  0  0  0  0  0  0  0
  148.6460  141.5936  157.2560 H   0  0  0  0  0  0  0  0  0  0  0  0
  146.0328  141.8080  156.6127 H   0  0  0  0  0  0  0  0  0  0  0  0
  147.1589  143.0439  156.0399 H   0  0  0  0  0  0  0  0  0  0  0  0
  146.1372  140.6331  154.5049 H   0  0  0  0  0  0  0  0  0  0  0  0
  146.1899  142.3046  153.9443 H   0  0  0  0  0  0  0  0  0  0  0  0
  148.5146  142.1673  153.5083 H   0  0  0  0  0  0  0  0  0  0  0  0
  148.1708  140.4423  153.3573 H   0  0  0  0  0  0  0  0  0  0  0  0
  1  2  1  0  0  0  0
  1 20  1  0  0  0  0
  1 21  1  0  0  0  0
  1 22  1  0  0  0  0
  2  3  1  0  0  0  0
  2 23  1  0  0  0  0
  2 24  1  0  0  0  0
  3  4  1  0  0  0  0
  3  5  1  0  0  0  0
  3 25  1  0  0  0  0
  4 26  1  0  0  0  0
  4 27  1  0  0  0  0
  4 28  1  0  0  0  0
  5  6  1  0  0  0  0
  5 29  1  0  0  0  0
  6  7  2  0  0  0  0
  6  8  1  0  0  0  0
  8  9  1  0  0  0  0
  8 30  1  0  0  0  0
  9 14  1  0  0  0  0
  9 10  2  0  0  0  0
 10 11  1  0  0  0  0
 10 31  1  0  0  0  0
 11 12  2  0  0  0  0
 11 32  1  0  0  0  0
 12 13  1  0  0  0  0
 12 33  1  0  0  0  0
 13 14  2  0  0  0  0
 14 15  1  0  0  0  0
 15 19  1  0  0  0  0
 15 16  1  0  0  0  0
 16 17  1  0  0  0  0
 16 34  1  0  0  0  0
 16 35  1  0  0  0  0
 17 18  1  0  0  0  0
 17 36  1  0  0  0  0
 17 37  1  0  0  0  0
 18 19  1  0  0  0  0
 18 38  1  0  0  0  0
 18 39  1  0  0  0  0
 19 40  1  0  0  0  0
 19 41  1  0  0  0  0
M  END
> <s_m_source_file>
AV-unprocessed.smi

> <i_m_source_file_index>
2450

> <i_lp_mmshare_version>
43012

> <i_f3d_flags>
0

> <s_epik_input>
W0NIM11bQ0gyXVtDQEhdKFtDSDNdKVtOSF1DKD1PKVtOSF1jMVtjSF1bY0hdW2NIXW5jMU4yW0NIMl1bQ0gyXVtDSDJdW0NIMl0y

> <s_epik_cmdline>
J2VwaWtfcHl0aG9uJywgJy1waCcsICc3LjAnLCAnLXRuJywgJzgnLCAnLW1hJywgJzIwMCcsICctbWV0YWxfYmluZGluZycsICctaW1hZScsICc8aW5maWxlLm1hZT4nLCAnLW9tYWUnLCAnPG91dGZpbGUubWFlPic=

> <r_lp_tautomer_probability>
1

> <r_epik_Ionization_Penalty>
0.103391

> <r_epik_Ionization_Penalty_Charging>
0

> <r_epik_Ionization_Penalty_Neutral>
0.103391

> <r_epik_State_Penalty>
0.0927616

> <r_epik_Charging_Adjusted_Penalty>
0.0927616

> <i_epik_Tot_Q>
0

> <i_epik_Tot_abs_Q>
0

> <r_epik_Metal_State_Penalty>
0.0789158

> <b_epik_Metal_Only>
0

> <s_lp_Force_Field>
OPLS_2005

> <r_lp_Energy>
32.3159

> <b_lp_Chiralities_Consistent>
1

> <s_lp_Variant>
AV-unprocessed.smi:2450-2

> <Gold.Version>
5.8.1

> <Gold.Id.Protein>
6NUR|6NUR_protein|mol2

> <Gold.PLP.Fitness>
45.1848

> <Gold.PLP.PLP>
-40.2980

> <Gold.PLP.part.hbond>
-1.0000

> <Gold.PLP.part.metal>
0.0000

> <Gold.PLP.part.buried>
-3.7315

> <Gold.PLP.part.nonpolar>
-35.3834

> <Gold.PLP.part.repulsive>
0.4624

> <Gold.PLP.ligand.clash>
0.0000

> <Gold.PLP.ligand.torsion>
0.6368

> <Gold.PLP.Chemscore.Hbond>
0.7840

> <Gold.PLP.Chemscore.CHOScore>
1.1534

> <Gold.PLP.Chemscore.Metal>
0.0000

> <Gold.Chemscore.Hbonds>
donor molecule, donor type, donor heavy atom, donor atom, acceptor molecule, acceptor atom, score
      P1  H  7997  8008       L1     7  0.76
      L1  C    12    33       P1  7948  0.48
      L1  C    12    33       P1  7949  0.68

> <Gold.PLP.Chemscore.Internal.Correction>
0.3483

> <Gold.Rescore>
     Score         DG    S(hbond)    S(metal)    S(lipo)     H(rot)  DE(clash)    DE(int)     intcor
     13.90     -16.64       0.89        0.00      98.63       1.32       0.03       2.70       ----

> <Gold.Chemscore.Fitness>
13.9029

> <Gold.Chemscore.DG>
-16.6365

> <Gold.Chemscore.ZeroCoef>
-5.4800

> <Gold.Chemscore.Hbond>
0.8940

> <Gold.Chemscore.Metal>
0.0000

> <Gold.Chemscore.Lipo>
98.6331

> <Gold.Chemscore.Internal_Hbond>
0.0000

> <Gold.Chemscore.DEClash>
0.0299

> <Gold.Chemscore.DEInternal>
2.7038

> <Gold.Chemscore.Rot>
1.3163

> <Gold.Chemscore.Internal.Correction>
   9.000000E+99

> <Gold.Chemscore.Hbonds>
donor molecule, donor type, donor heavy atom, donor atom, acceptor molecule, acceptor atom, score
      P1  H  7997  8008       L1     7  0.70

> <Gold.Chemscore.Hbond.Weighted>
-2.9861

> <Gold.Chemscore.Metal.Weighted>
-0.0000

> <Gold.Chemscore.Lipo.Weighted>
-11.5401

> <Gold.Chemscore.Internal_Hbond.Weighted>
0.0000

> <Gold.Chemscore.DEClash.Weighted>
0.0299

> <Gold.Chemscore.DEInternal.Weighted>
2.7038

> <Gold.Chemscore.Rot.Weighted>
3.3696

> <Gold.Chemscore.Internal.Correction.Weighted>
   9.000000E+99

> <Gold.Protein.RotatedTorsions>
[ 6907 6896 6895 6894 ] final  -92.90 input  -60.11 | X-H torsion
[ 7974 7965 7964 7962 ] final  103.43 input  175.53 | X-H torsion
[ 8008 7997 7996 7995 ] final  -88.52 input   59.86 | X-H torsion
[ 10167 10162 10161 10158 ] final -106.72 input  -65.29 | X-H torsion
[ 10718 10713 10712 10709 ] final  156.23 input   66.30 | X-H torsion
[ 10763 10752 10751 10750 ] final -175.47 input  -60.55 | X-H torsion
[ 11005 11000 10999 10996 ] final -119.19 input  -57.11 | X-H torsion

> <Gold.Protein.ActiveResidues>
 VAL166  LYS551  ARG553  GLY616  TRP617  ASP618  TYR619  PRO620  LYS621  CYS622 
 ASP623  PHE694  ASN695  SER759  ASP760  ASP761  ALA762  ILE779  LEU786  VAL792 
 PHE793  MET794  SER795  GLU796  ALA797  LYS798  CYS799  TRP800  GLU811  SER814 

> <Gold.Protein.RotatedAtoms>
  150.6913  134.2051  159.4336 H   0  0  0  0  0  0  0  0  0  0  0  0  # atno 6907 bound_to 6896
  152.0015  134.9923  160.0574 H   0  0  0  0  0  0  0  0  0  0  0  0  # atno 6908 bound_to 6896
  152.1574  133.4525  159.4880 H   0  0  0  0  0  0  0  0  0  0  0  0  # atno 6909 bound_to 6896
  145.3460  139.2451  143.3584 H   0  0  0  0  0  0  0  0  0  0  0  0  # atno 7974 bound_to 7965
  154.6757  140.0552  157.0213 H   0  0  0  0  0  0  0  0  0  0  0  0  # atno 8008 bound_to 7997
  155.1023  140.3230  155.4525 H   0  0  0  0  0  0  0  0  0  0  0  0  # atno 8009 bound_to 7997
  156.2675  140.2029  156.6149 H   0  0  0  0  0  0  0  0  0  0  0  0  # atno 8010 bound_to 7997
  140.1847  143.3939  152.1254 H   0  0  0  0  0  0  0  0  0  0  0  0  # atno 10167 bound_to 10162
  157.2077  131.0690  151.1988 H   0  0  0  0  0  0  0  0  0  0  0  0  # atno 10718 bound_to 10713
  154.5840  135.2839  155.0704 H   0  0  0  0  0  0  0  0  0  0  0  0  # atno 10763 bound_to 10752
  154.2029  135.6421  153.5096 H   0  0  0  0  0  0  0  0  0  0  0  0  # atno 10764 bound_to 10752
  153.0098  135.5473  154.6504 H   0  0  0  0  0  0  0  0  0  0  0  0  # atno 10765 bound_to 10752
  141.0233  134.0092  157.3251 H   0  0  0  0  0  0  0  0  0  0  0  0  # atno 11005 bound_to 11000
  146.2988  140.4066  142.8712 LP  0  0  0  0  0  0  0  0  0  0  0  0  # atno 17320 bound_to 7965
  144.8754  140.7329  143.6020 LP  0  0  0  0  0  0  0  0  0  0  0  0  # atno 17321 bound_to 7965
  139.5281  144.7127  151.5155 LP  0  0  0  0  0  0  0  0  0  0  0  0  # atno 17342 bound_to 10162
  140.6496  143.8723  150.6772 LP  0  0  0  0  0  0  0  0  0  0  0  0  # atno 17343 bound_to 10162
  157.3703  130.7178  149.6560 LP  0  0  0  0  0  0  0  0  0  0  0  0  # atno 17370 bound_to 10713
  155.9694  130.4200  150.4404 LP  0  0  0  0  0  0  0  0  0  0  0  0  # atno 17371 bound_to 10713
  139.9159  135.0196  156.7881 LP  0  0  0  0  0  0  0  0  0  0  0  0  # atno 17394 bound_to 11000
  140.6536  133.9709  155.7767 LP  0  0  0  0  0  0  0  0  0  0  0  0  # atno 17395 bound_to 11000

$$$$
