AV-unprocessed.smi:109|AV-procd|sdf|1049|dock8
  -GOLD-   2262018103D 1   1.00000     0.00000
 Structure written by MMmdl.
 58 61  0  0  0  0  0  0  0  0  1 V2000
  146.5155  131.2757  152.0432 O   0  0  0  0  0  0  0  0  0  0  0  0
  145.9853  130.0100  151.7138 C   0  0  0  0  0  0  0  0  0  0  0  0
  146.0098  129.0957  152.9506 C   0  0  0  0  0  0  0  0  0  0  0  0
  147.4237  128.5900  153.3223 C   0  0  2  0  0  0  0  0  0  0  0  0
  148.3948  129.6562  153.0648 N   0  0  0  0  0  0  0  0  0  0  0  0
  149.2416  130.1133  154.0145 C   0  0  0  0  0  0  0  0  0  0  0  0
  150.0517  129.2746  154.7093 N   0  0  0  0  0  0  0  0  0  0  0  0
  150.8803  129.7627  155.6353 C   0  0  0  0  0  0  0  0  0  0  0  0
  151.0540  131.0307  156.0112 N   0  0  0  0  0  0  0  0  0  0  0  0
  150.2414  131.8851  155.3227 C   0  0  0  0  0  0  0  0  0  0  0  0
  149.3105  131.4980  154.3164 C   0  0  0  0  0  0  0  0  0  0  0  0
  148.6454  132.6144  153.8327 N   0  0  0  0  0  0  0  0  0  0  0  0
  149.1554  133.6024  154.5153 C   0  0  0  0  0  0  0  0  0  0  0  0
  150.1380  133.2643  155.4210 N   0  0  0  0  0  0  0  0  0  0  0  0
  150.8657  134.2238  156.3250 C   0  0  1  0  0  0  0  0  0  0  0  0
  151.5004  135.1823  155.5410 O   0  0  0  0  0  0  0  0  0  0  0  0
  150.6791  136.3354  155.4248 C   0  0  2  0  0  0  0  0  0  0  0  0
  151.5511  137.5644  155.1231 C   0  0  0  0  0  0  0  0  0  0  0  0
  152.4179  137.2952  154.0423 O   0  0  0  0  0  0  0  0  0  0  0  0
  149.9796  136.4134  156.7924 C   0  0  1  0  0  0  0  0  0  0  0  0
  148.6699  136.9225  156.6389 O   0  0  0  0  0  0  0  0  0  0  0  0
  149.9430  134.9691  157.3036 C   0  0  2  0  0  0  0  0  0  0  0  0
  150.4454  134.9051  158.6232 O   0  0  0  0  0  0  0  0  0  0  0  0
  147.8540  127.3028  152.5622 C   0  0  0  0  0  0  0  0  0  0  0  0
  148.9717  126.5109  153.2861 C   0  0  0  0  0  0  0  0  0  0  0  0
  149.4182  125.2685  152.4982 C   0  0  0  0  0  0  0  0  0  0  0  0
  149.8729  125.6369  151.0811 C   0  0  0  0  0  0  0  0  0  0  0  0
  148.7643  126.3926  150.3394 C   0  0  0  0  0  0  0  0  0  0  0  0
  148.3229  127.6386  151.1227 C   0  0  0  0  0  0  0  0  0  0  0  0
  151.6058  133.5965  156.8242 H   0  0  0  0  0  0  0  0  0  0  0  0
  149.9522  136.1801  154.6273 H   0  0  0  0  0  0  0  0  0  0  0  0
  150.5453  137.0528  157.4724 H   0  0  0  0  0  0  0  0  0  0  0  0
  148.9448  134.5312  157.3028 H   0  0  0  0  0  0  0  0  0  0  0  0
  147.4395  131.2751  151.8445 H   0  0  0  0  0  0  0  0  0  0  0  0
  144.9699  130.1462  151.3410 H   0  0  0  0  0  0  0  0  0  0  0  0
  146.5751  129.5775  150.9050 H   0  0  0  0  0  0  0  0  0  0  0  0
  145.5911  129.6702  153.7752 H   0  0  0  0  0  0  0  0  0  0  0  0
  145.3432  128.2458  152.7963 H   0  0  0  0  0  0  0  0  0  0  0  0
  147.4000  128.3290  154.3797 H   0  0  0  0  0  0  0  0  0  0  0  0
  148.3833  130.0317  152.1275 H   0  0  0  0  0  0  0  0  0  0  0  0
  151.4929  129.0345  156.1457 H   0  0  0  0  0  0  0  0  0  0  0  0
  148.8277  134.6215  154.3690 H   0  0  0  0  0  0  0  0  0  0  0  0
  150.9215  138.4060  154.8326 H   0  0  0  0  0  0  0  0  0  0  0  0
  152.1208  137.8735  156.0001 H   0  0  0  0  0  0  0  0  0  0  0  0
  151.9673  136.7368  153.4273 H   0  0  0  0  0  0  0  0  0  0  0  0
  148.5643  137.6546  157.2285 H   0  0  0  0  0  0  0  0  0  0  0  0
  149.7409  135.1005  159.2221 H   0  0  0  0  0  0  0  0  0  0  0  0
  146.9836  126.6486  152.4874 H   0  0  0  0  0  0  0  0  0  0  0  0
  149.8303  127.1609  153.4595 H   0  0  0  0  0  0  0  0  0  0  0  0
  148.6348  126.1710  154.2642 H   0  0  0  0  0  0  0  0  0  0  0  0
  150.2276  124.7650  153.0276 H   0  0  0  0  0  0  0  0  0  0  0  0
  148.5949  124.5552  152.4438 H   0  0  0  0  0  0  0  0  0  0  0  0
  150.7700  126.2553  151.1317 H   0  0  0  0  0  0  0  0  0  0  0  0
  150.1458  124.7367  150.5297 H   0  0  0  0  0  0  0  0  0  0  0  0
  149.1130  126.6822  149.3477 H   0  0  0  0  0  0  0  0  0  0  0  0
  147.9087  125.7336  150.1867 H   0  0  0  0  0  0  0  0  0  0  0  0
  147.5278  128.1301  150.5617 H   0  0  0  0  0  0  0  0  0  0  0  0
  149.1491  128.3498  151.1644 H   0  0  0  0  0  0  0  0  0  0  0  0
  1  2  1  0  0  0  0
  1 34  1  0  0  0  0
  2  3  1  0  0  0  0
  2 35  1  0  0  0  0
  2 36  1  0  0  0  0
  3  4  1  0  0  0  0
  3 37  1  0  0  0  0
  3 38  1  0  0  0  0
  4  5  1  0  0  0  0
  4 24  1  0  0  0  0
  4 39  1  0  0  0  0
  5  6  1  0  0  0  0
  5 40  1  0  0  0  0
  6 11  1  0  0  0  0
  6  7  2  0  0  0  0
  7  8  1  0  0  0  0
  8  9  2  0  0  0  0
  8 41  1  0  0  0  0
  9 10  1  0  0  0  0
 10 14  1  0  0  0  0
 10 11  2  0  0  0  0
 11 12  1  0  0  0  0
 12 13  2  0  0  0  0
 13 14  1  0  0  0  0
 13 42  1  0  0  0  0
 14 15  1  0  0  0  0
 15 30  1  0  0  0  0
 15 22  1  0  0  0  0
 15 16  1  0  0  0  0
 16 17  1  0  0  0  0
 17 31  1  0  0  0  0
 17 18  1  0  0  0  0
 17 20  1  0  0  0  0
 18 19  1  0  0  0  0
 18 43  1  0  0  0  0
 18 44  1  0  0  0  0
 19 45  1  0  0  0  0
 20 32  1  0  0  0  0
 20 21  1  0  0  0  0
 20 22  1  0  0  0  0
 21 46  1  0  0  0  0
 22 33  1  0  0  0  0
 22 23  1  0  0  0  0
 23 47  1  0  0  0  0
 24 29  1  0  0  0  0
 24 25  1  0  0  0  0
 24 48  1  0  0  0  0
 25 26  1  0  0  0  0
 25 49  1  0  0  0  0
 25 50  1  0  0  0  0
 26 27  1  0  0  0  0
 26 51  1  0  0  0  0
 26 52  1  0  0  0  0
 27 28  1  0  0  0  0
 27 53  1  0  0  0  0
 27 54  1  0  0  0  0
 28 29  1  0  0  0  0
 28 55  1  0  0  0  0
 28 56  1  0  0  0  0
 29 57  1  0  0  0  0
 29 58  1  0  0  0  0
M  END
> <s_m_source_file>
AV-unprocessed.smi

> <i_m_source_file_index>
109

> <i_lp_mmshare_version>
43012

> <i_f3d_flags>
0

> <s_epik_input>
W0NIMl0xW0NIMl1bQ0gyXVtDSDJdW0NIMl1bQ0hdMVtDQEhdKFtDSDJdW0NIMl1bT0hdKVtOSF1jKG5bY0hdbjIpYyhjMjMpbltjSF1uM1tDQEBIXTRPW0NASF0oW0NIMl1bT0hdKVtDQEBIXShbT0hdKVtDQEhdNFtPSF0=

> <s_epik_cmdline>
J2VwaWtfcHl0aG9uJywgJy1waCcsICc3LjAnLCAnLXRuJywgJzgnLCAnLW1hJywgJzIwMCcsICctbWV0YWxfYmluZGluZycsICctaW1hZScsICc8aW5maWxlLm1hZT4nLCAnLW9tYWUnLCAnPG91dGZpbGUubWFlPic=

> <r_lp_tautomer_probability>
1

> <r_epik_Ionization_Penalty>
0.000793976

> <r_epik_Ionization_Penalty_Charging>
0

> <r_epik_Ionization_Penalty_Neutral>
0.000793976

> <r_epik_State_Penalty>
-0

> <r_epik_Charging_Adjusted_Penalty>
0

> <i_epik_Tot_Q>
0

> <i_epik_Tot_abs_Q>
0

> <r_epik_Metal_State_Penalty>
-0

> <b_epik_Metal_Only>
0

> <s_epik_Chemistry_Notes>
This compound contains an acetal/aminal-like group ( X-CH(R)-Y where X, Y are N, S, or O) that may be acid/base labile, releasing an aldehyde.

> <s_lp_Force_Field>
OPLS_2005

> <r_lp_Energy>
48.8451

> <b_lp_Chiralities_Consistent>
1

> <s_lp_Variant>
AV-unprocessed.smi:109-19

> <Gold.Version>
5.8.1

> <Gold.Id.Protein>
6NUR|6NUR_protein|mol2

> <Gold.PLP.Fitness>
62.1829

> <Gold.PLP.PLP>
-47.6178

> <Gold.PLP.part.hbond>
-6.0000

> <Gold.PLP.part.metal>
0.0000

> <Gold.PLP.part.buried>
-6.5393

> <Gold.PLP.part.nonpolar>
-35.9033

> <Gold.PLP.part.repulsive>
0.3678

> <Gold.PLP.ligand.clash>
0.0000

> <Gold.PLP.ligand.torsion>
1.3067

> <Gold.PLP.Chemscore.Hbond>
4.6720

> <Gold.PLP.Chemscore.CHOScore>
1.0000

> <Gold.PLP.Chemscore.Metal>
0.0000

> <Gold.Chemscore.Hbonds>
donor molecule, donor type, donor heavy atom, donor atom, acceptor molecule, acceptor atom, score
      L1  H     1    34       P1 10747  0.44
      L1  H     5    40       P1 10747  0.88
      L1  H    19    45       P1  7949  0.54
      P1  H 10752 10764       L1    16  0.93

> <Gold.PLP.Chemscore.Internal.Correction>
0.1625

> <Gold.Rescore>
     Score         DG    S(hbond)    S(metal)    S(lipo)     H(rot)  DE(clash)    DE(int)     intcor
     13.51     -15.72       3.95        0.00      94.48       5.47       1.06       1.15       ----

> <Gold.Chemscore.Fitness>
13.5111

> <Gold.Chemscore.DG>
-15.7238

> <Gold.Chemscore.ZeroCoef>
-5.4800

> <Gold.Chemscore.Hbond>
3.9472

> <Gold.Chemscore.Metal>
0.0000

> <Gold.Chemscore.Lipo>
94.4753

> <Gold.Chemscore.Internal_Hbond>
0.0000

> <Gold.Chemscore.DEClash>
1.0590

> <Gold.Chemscore.DEInternal>
1.1537

> <Gold.Chemscore.Rot>
5.4662

> <Gold.Chemscore.Internal.Correction>
   9.000000E+99

> <Gold.Chemscore.Hbonds>
donor molecule, donor type, donor heavy atom, donor atom, acceptor molecule, acceptor atom, score
      L1  H     1    34       P1 10747  0.44
      L1  H     5    40       P1 10747  0.56
      L1  H    19    45       P1  7949  0.52
      P1  H 10752 10764       L1    16  0.54

> <Gold.Chemscore.Hbond.Weighted>
-13.1837

> <Gold.Chemscore.Metal.Weighted>
-0.0000

> <Gold.Chemscore.Lipo.Weighted>
-11.0536

> <Gold.Chemscore.Internal_Hbond.Weighted>
0.0000

> <Gold.Chemscore.DEClash.Weighted>
1.0590

> <Gold.Chemscore.DEInternal.Weighted>
1.1537

> <Gold.Chemscore.Rot.Weighted>
13.9935

> <Gold.Chemscore.Internal.Correction.Weighted>
   9.000000E+99

> <Gold.Protein.RotatedTorsions>
[ 6907 6896 6895 6894 ] final -166.92 input  -60.11 | X-H torsion
[ 7974 7965 7964 7962 ] final -104.53 input  175.53 | X-H torsion
[ 8008 7997 7996 7995 ] final  -81.47 input   59.86 | X-H torsion
[ 10167 10162 10161 10158 ] final -164.59 input  -65.29 | X-H torsion
[ 10718 10713 10712 10709 ] final   91.48 input   66.30 | X-H torsion
[ 10763 10752 10751 10750 ] final  -52.98 input  -60.55 | X-H torsion
[ 11005 11000 10999 10996 ] final  176.56 input  -57.11 | X-H torsion

> <Gold.Protein.ActiveResidues>
 VAL166  LYS551  ARG553  GLY616  TRP617  ASP618  TYR619  PRO620  LYS621  CYS622 
 ASP623  PHE694  ASN695  SER759  ASP760  ASP761  ALA762  ILE779  LEU786  VAL792 
 PHE793  MET794  SER795  GLU796  ALA797  LYS798  CYS799  TRP800  GLU811  SER814 

> <Gold.Protein.RotatedAtoms>
  151.4514  133.3616  159.2795 H   0  0  0  0  0  0  0  0  0  0  0  0  # atno 6907 bound_to 6896
  150.9089  134.8506  159.7422 H   0  0  0  0  0  0  0  0  0  0  0  0  # atno 6908 bound_to 6896
  152.4921  134.4441  159.9605 H   0  0  0  0  0  0  0  0  0  0  0  0  # atno 6909 bound_to 6896
  145.2419  140.9208  143.3145 H   0  0  0  0  0  0  0  0  0  0  0  0  # atno 7974 bound_to 7965
  154.5986  140.0647  156.9338 H   0  0  0  0  0  0  0  0  0  0  0  0  # atno 8008 bound_to 7997
  155.2171  140.3327  155.4302 H   0  0  0  0  0  0  0  0  0  0  0  0  # atno 8009 bound_to 7997
  156.2304  140.1838  156.7242 H   0  0  0  0  0  0  0  0  0  0  0  0  # atno 8010 bound_to 7997
  139.6240  144.0568  152.1958 H   0  0  0  0  0  0  0  0  0  0  0  0  # atno 10167 bound_to 10162
  157.6960  131.0409  150.3736 H   0  0  0  0  0  0  0  0  0  0  0  0  # atno 10718 bound_to 10713
  154.1515  135.6489  153.4964 H   0  0  0  0  0  0  0  0  0  0  0  0  # atno 10763 bound_to 10752
  153.0136  135.5339  154.6803 H   0  0  0  0  0  0  0  0  0  0  0  0  # atno 10764 bound_to 10752
  154.6092  135.2952  155.0422 H   0  0  0  0  0  0  0  0  0  0  0  0  # atno 10765 bound_to 10752
  140.3744  134.7001  157.4412 H   0  0  0  0  0  0  0  0  0  0  0  0  # atno 11005 bound_to 11000
  144.9581  139.4009  143.6369 LP  0  0  0  0  0  0  0  0  0  0  0  0  # atno 17320 bound_to 7965
  146.3326  139.8621  142.8854 LP  0  0  0  0  0  0  0  0  0  0  0  0  # atno 17321 bound_to 7965
  140.0217  144.6148  150.7561 LP  0  0  0  0  0  0  0  0  0  0  0  0  # atno 17342 bound_to 10162
  140.7399  143.2798  151.3632 LP  0  0  0  0  0  0  0  0  0  0  0  0  # atno 17343 bound_to 10162
  156.4158  130.3943  149.6859 LP  0  0  0  0  0  0  0  0  0  0  0  0  # atno 17370 bound_to 10713
  156.4127  130.7730  151.2744 LP  0  0  0  0  0  0  0  0  0  0  0  0  # atno 17371 bound_to 10713
  140.0526  134.6108  155.8843 LP  0  0  0  0  0  0  0  0  0  0  0  0  # atno 17394 bound_to 11000
  141.1944  133.6583  156.5593 LP  0  0  0  0  0  0  0  0  0  0  0  0  # atno 17395 bound_to 11000

$$$$
