AV-unprocessed.smi:3323|AV-procd|sdf|12780|dock6
  -GOLD-   2272019123D 1   1.00000     0.00000
 Structure written by MMmdl.
 37 38  0  0  0  0  0  0  0  0  1 V2000
  151.2165  138.4820  153.8449 C   0  0  0  0  0  0  0  0  0  0  0  0
  149.8199  139.1030  153.7339 C   0  0  1  0  0  0  0  0  0  0  0  0
  148.7888  138.3700  154.6145 C   0  0  0  0  0  0  0  0  0  0  0  0
  147.4044  139.0459  154.5501 C   0  0  2  0  0  0  0  0  0  0  0  0
  146.6437  138.8186  153.2223 C   0  0  0  0  0  0  0  0  0  0  0  0
  146.7527  137.4417  152.7481 N   0  0  0  0  0  0  0  0  0  0  0  0
  145.7562  136.5446  152.7215 C   0  0  0  0  0  0  0  0  0  0  0  0
  144.6077  136.7916  153.0887 O   0  0  0  0  0  0  0  0  0  0  0  0
  146.1764  135.3695  152.2225 N   0  0  0  0  0  0  0  0  0  0  0  0
  145.4360  134.1710  152.0344 C   0  0  0  0  0  0  0  0  0  0  0  0
  145.7534  133.1784  151.0755 C   0  0  0  0  0  0  0  0  0  0  0  0
  144.9276  132.0420  150.9751 C   0  0  0  0  0  0  0  0  0  0  0  0
  143.8126  131.9425  151.8297 C   0  0  0  0  0  0  0  0  0  0  0  0
  143.4906  132.8868  152.7385 N   0  0  0  0  0  0  0  0  0  0  0  0
  144.2861  133.9738  152.8285 C   0  0  0  0  0  0  0  0  0  0  0  0
  147.5833  140.5419  154.8634 C   0  0  0  0  0  0  0  0  0  0  0  0
  148.6821  141.1774  153.9924 C   0  0  0  0  0  0  0  0  0  0  0  0
  149.9043  140.4639  154.1468 O   0  0  0  0  0  0  0  0  0  0  0  0
  151.2073  137.4394  153.5259 H   0  0  0  0  0  0  0  0  0  0  0  0
  151.5848  138.5157  154.8705 H   0  0  0  0  0  0  0  0  0  0  0  0
  151.9304  139.0152  153.2166 H   0  0  0  0  0  0  0  0  0  0  0  0
  149.5137  139.0650  152.6877 H   0  0  0  0  0  0  0  0  0  0  0  0
  148.7274  137.3181  154.3371 H   0  0  0  0  0  0  0  0  0  0  0  0
  149.1376  138.3824  155.6480 H   0  0  0  0  0  0  0  0  0  0  0  0
  146.7887  138.6166  155.3419 H   0  0  0  0  0  0  0  0  0  0  0  0
  145.5835  139.0208  153.3754 H   0  0  0  0  0  0  0  0  0  0  0  0
  146.9691  139.5209  152.4543 H   0  0  0  0  0  0  0  0  0  0  0  0
  147.6606  137.1498  152.4168 H   0  0  0  0  0  0  0  0  0  0  0  0
  147.1277  135.3461  151.8854 H   0  0  0  0  0  0  0  0  0  0  0  0
  146.5975  133.2700  150.4101 H   0  0  0  0  0  0  0  0  0  0  0  0
  145.1421  131.2660  150.2552 H   0  0  0  0  0  0  0  0  0  0  0  0
  143.1586  131.0845  151.7775 H   0  0  0  0  0  0  0  0  0  0  0  0
  143.9962  134.7093  153.5649 H   0  0  0  0  0  0  0  0  0  0  0  0
  146.6419  141.0774  154.7358 H   0  0  0  0  0  0  0  0  0  0  0  0
  147.8587  140.6569  155.9125 H   0  0  0  0  0  0  0  0  0  0  0  0
  148.3919  141.1996  152.9414 H   0  0  0  0  0  0  0  0  0  0  0  0
  148.8424  142.2126  154.2943 H   0  0  0  0  0  0  0  0  0  0  0  0
  1  2  1  0  0  0  0
  1 19  1  0  0  0  0
  1 20  1  0  0  0  0
  1 21  1  0  0  0  0
  2 18  1  0  0  0  0
  2  3  1  0  0  0  0
  2 22  1  0  0  0  0
  3  4  1  0  0  0  0
  3 23  1  0  0  0  0
  3 24  1  0  0  0  0
  4  5  1  0  0  0  0
  4 16  1  0  0  0  0
  4 25  1  0  0  0  0
  5  6  1  0  0  0  0
  5 26  1  0  0  0  0
  5 27  1  0  0  0  0
  6  7  1  0  0  0  0
  6 28  1  0  0  0  0
  7  8  2  0  0  0  0
  7  9  1  0  0  0  0
  9 10  1  0  0  0  0
  9 29  1  0  0  0  0
 10 15  1  0  0  0  0
 10 11  2  0  0  0  0
 11 12  1  0  0  0  0
 11 30  1  0  0  0  0
 12 13  2  0  0  0  0
 12 31  1  0  0  0  0
 13 14  1  0  0  0  0
 13 32  1  0  0  0  0
 14 15  2  0  0  0  0
 15 33  1  0  0  0  0
 16 17  1  0  0  0  0
 16 34  1  0  0  0  0
 16 35  1  0  0  0  0
 17 18  1  0  0  0  0
 17 36  1  0  0  0  0
 17 37  1  0  0  0  0
M  END
> <s_m_source_file>
AV-unprocessed.smi

> <i_m_source_file_index>
3323

> <i_lp_mmshare_version>
43012

> <i_f3d_flags>
0

> <s_epik_input>
W0NIM11bQ0BASF0xW0NIMl1bQ0BIXShbQ0gyXVtDSDJdTzEpW0NIMl1bTkhdQyg9TylbTkhdYzJbY0hdW2NIXVtjSF1uW2NIXTI=

> <s_epik_cmdline>
J2VwaWtfcHl0aG9uJywgJy1waCcsICc3LjAnLCAnLXRuJywgJzgnLCAnLW1hJywgJzIwMCcsICctbWV0YWxfYmluZGluZycsICctaW1hZScsICc8aW5maWxlLm1hZT4nLCAnLW9tYWUnLCAnPG91dGZpbGUubWFlPic=

> <r_epik_Ionization_Penalty>
0.00485293

> <r_epik_Ionization_Penalty_Charging>
0

> <r_epik_Ionization_Penalty_Neutral>
0.00485293

> <r_epik_State_Penalty>
0.00349083

> <r_epik_Charging_Adjusted_Penalty>
0.00349083

> <i_epik_Tot_Q>
0

> <i_epik_Tot_abs_Q>
0

> <r_epik_Metal_State_Penalty>
-0

> <b_epik_Metal_Only>
0

> <s_lp_Force_Field>
OPLS_2005

> <r_lp_Energy>
13.6237

> <b_lp_Chiralities_Consistent>
1

> <s_lp_Variant>
AV-unprocessed.smi:3323-4

> <Gold.Version>
5.8.1

> <Gold.Id.Protein>
6NUR|6NUR_protein|mol2

> <Gold.PLP.Fitness>
42.1882

> <Gold.PLP.PLP>
-31.4954

> <Gold.PLP.part.hbond>
-3.0000

> <Gold.PLP.part.metal>
0.0000

> <Gold.PLP.part.buried>
-4.9025

> <Gold.PLP.part.nonpolar>
-25.1127

> <Gold.PLP.part.repulsive>
1.6685

> <Gold.PLP.ligand.clash>
0.0000

> <Gold.PLP.ligand.torsion>
0.3002

> <Gold.PLP.Chemscore.Hbond>
2.9360

> <Gold.PLP.Chemscore.CHOScore>
0.8268

> <Gold.PLP.Chemscore.Metal>
0.0000

> <Gold.Chemscore.Hbonds>
donor molecule, donor type, donor heavy atom, donor atom, acceptor molecule, acceptor atom, score
      L1  H     6    28       P1  7948  1.00
      L1  H     9    29       P1  7948  0.98
      P1  H  7989  7998       L1    18  0.77

> <Gold.PLP.Chemscore.Internal.Correction>
0.0048

> <Gold.Rescore>
     Score         DG    S(hbond)    S(metal)    S(lipo)     H(rot)  DE(clash)    DE(int)     intcor
     15.79     -17.59       1.95        0.00      74.65       1.23       0.17       1.63       ----

> <Gold.Chemscore.Fitness>
15.7945

> <Gold.Chemscore.DG>
-17.5913

> <Gold.Chemscore.ZeroCoef>
-5.4800

> <Gold.Chemscore.Hbond>
1.9517

> <Gold.Chemscore.Metal>
0.0000

> <Gold.Chemscore.Lipo>
74.6544

> <Gold.Chemscore.Internal_Hbond>
0.0000

> <Gold.Chemscore.DEClash>
0.1670

> <Gold.Chemscore.DEInternal>
1.6298

> <Gold.Chemscore.Rot>
1.2273

> <Gold.Chemscore.Internal.Correction>
   9.000000E+99

> <Gold.Chemscore.Hbonds>
donor molecule, donor type, donor heavy atom, donor atom, acceptor molecule, acceptor atom, score
      L1  H     6    28       P1  7948  1.00
      L1  H     9    29       P1  7948  0.90
      P1  H  7989  7998       L1    18  0.19

> <Gold.Chemscore.Hbond.Weighted>
-6.5185

> <Gold.Chemscore.Metal.Weighted>
-0.0000

> <Gold.Chemscore.Lipo.Weighted>
-8.7346

> <Gold.Chemscore.Internal_Hbond.Weighted>
0.0000

> <Gold.Chemscore.DEClash.Weighted>
0.1670

> <Gold.Chemscore.DEInternal.Weighted>
1.6298

> <Gold.Chemscore.Rot.Weighted>
3.1418

> <Gold.Chemscore.Internal.Correction.Weighted>
   9.000000E+99

> <Gold.Protein.RotatedTorsions>
[ 6907 6896 6895 6894 ] final   -0.58 input  -60.11 | X-H torsion
[ 7974 7965 7964 7962 ] final -178.53 input  175.53 | X-H torsion
[ 8008 7997 7996 7995 ] final   -2.32 input   59.86 | X-H torsion
[ 10167 10162 10161 10158 ] final  -93.45 input  -65.29 | X-H torsion
[ 10718 10713 10712 10709 ] final -163.11 input   66.30 | X-H torsion
[ 10763 10752 10751 10750 ] final  138.98 input  -60.55 | X-H torsion
[ 11005 11000 10999 10996 ] final  -42.26 input  -57.11 | X-H torsion

> <Gold.Protein.ActiveResidues>
 VAL166  LYS551  ARG553  GLY616  TRP617  ASP618  TYR619  PRO620  LYS621  CYS622 
 ASP623  PHE694  ASN695  SER759  ASP760  ASP761  ALA762  ILE779  LEU786  VAL792 
 PHE793  MET794  SER795  GLU796  ALA797  LYS798  CYS799  TRP800  GLU811  SER814 

> <Gold.Protein.RotatedAtoms>
  151.5600  135.1065  159.9970 H   0  0  0  0  0  0  0  0  0  0  0  0  # atno 6907 bound_to 6896
  152.4451  133.7517  159.6708 H   0  0  0  0  0  0  0  0  0  0  0  0  # atno 6908 bound_to 6896
  150.8365  133.7937  159.3101 H   0  0  0  0  0  0  0  0  0  0  0  0  # atno 6909 bound_to 6896
  144.7131  140.0855  143.6423 H   0  0  0  0  0  0  0  0  0  0  0  0  # atno 7974 bound_to 7965
  154.6371  140.2537  155.7365 H   0  0  0  0  0  0  0  0  0  0  0  0  # atno 8008 bound_to 7997
  156.2510  140.2895  156.0668 H   0  0  0  0  0  0  0  0  0  0  0  0  # atno 8009 bound_to 7997
  155.1654  140.0385  157.2842 H   0  0  0  0  0  0  0  0  0  0  0  0  # atno 8010 bound_to 7997
  140.3245  143.3030  152.0010 H   0  0  0  0  0  0  0  0  0  0  0  0  # atno 10167 bound_to 10162
  156.6200  130.8886  151.2955 H   0  0  0  0  0  0  0  0  0  0  0  0  # atno 10718 bound_to 10713
  153.8985  135.3024  155.3448 H   0  0  0  0  0  0  0  0  0  0  0  0  # atno 10763 bound_to 10752
  154.7682  135.4900  153.9598 H   0  0  0  0  0  0  0  0  0  0  0  0  # atno 10764 bound_to 10752
  153.1258  135.6792  153.9360 H   0  0  0  0  0  0  0  0  0  0  0  0  # atno 10765 bound_to 10752
  141.0303  133.6823  156.2570 H   0  0  0  0  0  0  0  0  0  0  0  0  # atno 11005 bound_to 11000
  145.9665  139.2838  143.1124 LP  0  0  0  0  0  0  0  0  0  0  0  0  # atno 17320 bound_to 7965
  145.9163  140.9146  143.0428 LP  0  0  0  0  0  0  0  0  0  0  0  0  # atno 17321 bound_to 7965
  139.4868  144.6285  151.7118 LP  0  0  0  0  0  0  0  0  0  0  0  0  # atno 17342 bound_to 10162
  140.5453  144.0512  150.6105 LP  0  0  0  0  0  0  0  0  0  0  0  0  # atno 17343 bound_to 10162
  157.7230  130.9584  150.1517 LP  0  0  0  0  0  0  0  0  0  0  0  0  # atno 17370 bound_to 10713
  156.2319  130.3683  149.8435 LP  0  0  0  0  0  0  0  0  0  0  0  0  # atno 17371 bound_to 10713
  140.6418  134.5158  157.5570 LP  0  0  0  0  0  0  0  0  0  0  0  0  # atno 17394 bound_to 11000
  139.9203  134.8162  156.1232 LP  0  0  0  0  0  0  0  0  0  0  0  0  # atno 17395 bound_to 11000

$$$$
