AV-unprocessed.smi:3208|AV-procd|sdf|12260|dock1
  -GOLD-   2272018 93D 1   1.00000     0.00000
 Structure written by MMmdl.
 30 30  0  0  0  0  0  0  0  0  1 V2000
  145.3680  143.7373  154.0367 C   0  0  0  0  0  0  0  0  0  0  0  0
  146.2055  142.9697  154.7520 C   0  0  0  0  0  0  0  0  0  0  0  0
  147.2509  142.0339  154.1779 C   0  0  0  0  0  0  0  0  0  0  0  0
  148.2677  141.7285  155.1277 O   0  0  0  0  0  0  0  0  0  0  0  0
  149.3747  140.9829  154.6270 C   0  0  2  0  0  0  0  0  0  0  0  0
  148.8974  139.5406  154.4001 C   0  0  0  0  0  0  0  0  0  0  0  0
  150.5529  141.0404  155.6136 C   0  0  0  0  0  0  0  0  0  0  0  0
  151.6054  140.4603  155.3444 O   0  0  0  0  0  0  0  0  0  0  0  0
  150.3293  141.7341  156.7453 N   0  0  0  0  0  0  0  0  0  0  0  0
  151.2102  141.9574  157.8390 C   0  0  0  0  0  0  0  0  0  0  0  0
  152.1271  141.0455  158.2502 N   0  0  0  0  0  0  0  0  0  0  0  0
  152.9271  141.3361  159.2971 C   0  0  0  0  0  0  0  0  0  0  0  0
  152.8639  142.5530  159.9989 C   0  0  0  0  0  0  0  0  0  0  0  0
  151.9192  143.5078  159.5845 C   0  0  0  0  0  0  0  0  0  0  0  0
  151.0805  143.2100  158.4916 C   0  0  0  0  0  0  0  0  0  0  0  0
  150.1579  144.1338  158.0842 O   0  0  0  0  0  0  0  0  0  0  0  0
  145.3822  143.7412  152.9567 H   0  0  0  0  0  0  0  0  0  0  0  0
  144.6513  144.3774  154.5293 H   0  0  0  0  0  0  0  0  0  0  0  0
  146.1491  143.0041  155.8301 H   0  0  0  0  0  0  0  0  0  0  0  0
  146.7501  141.1192  153.8582 H   0  0  0  0  0  0  0  0  0  0  0  0
  147.6743  142.5056  153.2910 H   0  0  0  0  0  0  0  0  0  0  0  0
  149.6804  141.3941  153.6629 H   0  0  0  0  0  0  0  0  0  0  0  0
  149.7073  138.9072  154.0364 H   0  0  0  0  0  0  0  0  0  0  0  0
  148.0986  139.5112  153.6587 H   0  0  0  0  0  0  0  0  0  0  0  0
  148.5094  139.0960  155.3174 H   0  0  0  0  0  0  0  0  0  0  0  0
  149.4132  142.1476  156.8416 H   0  0  0  0  0  0  0  0  0  0  0  0
  153.6385  140.5757  159.5831 H   0  0  0  0  0  0  0  0  0  0  0  0
  153.5223  142.7477  160.8325 H   0  0  0  0  0  0  0  0  0  0  0  0
  151.8396  144.4545  160.0988 H   0  0  0  0  0  0  0  0  0  0  0  0
  149.8815  144.0116  157.1887 H   0  0  0  0  0  0  0  0  0  0  0  0
  1  2  2  0  0  0  0
  1 17  1  0  0  0  0
  1 18  1  0  0  0  0
  2  3  1  0  0  0  0
  2 19  1  0  0  0  0
  3  4  1  0  0  0  0
  3 20  1  0  0  0  0
  3 21  1  0  0  0  0
  4  5  1  0  0  0  0
  5  6  1  0  0  0  0
  5  7  1  0  0  0  0
  5 22  1  0  0  0  0
  6 23  1  0  0  0  0
  6 24  1  0  0  0  0
  6 25  1  0  0  0  0
  7  8  2  0  0  0  0
  7  9  1  0  0  0  0
  9 10  1  0  0  0  0
  9 26  1  0  0  0  0
 10 15  1  0  0  0  0
 10 11  2  0  0  0  0
 11 12  1  0  0  0  0
 12 13  2  0  0  0  0
 12 27  1  0  0  0  0
 13 14  1  0  0  0  0
 13 28  1  0  0  0  0
 14 15  2  0  0  0  0
 14 29  1  0  0  0  0
 15 16  1  0  0  0  0
 16 30  1  0  0  0  0
M  END
> <s_m_source_file>
AV-unprocessed.smi

> <i_m_source_file_index>
3208

> <i_lp_mmshare_version>
43012

> <i_f3d_flags>
0

> <s_epik_input>
W0NIMl09W0NIXVtDSDJdT1tDQEhdKFtDSDNdKUMoPU8pW05IXWMxbltjSF1bY0hdW2NIXWMxW09IXQ==

> <s_epik_cmdline>
J2VwaWtfcHl0aG9uJywgJy1waCcsICc3LjAnLCAnLXRuJywgJzgnLCAnLW1hJywgJzIwMCcsICctbWV0YWxfYmluZGluZycsICctaW1hZScsICc8aW5maWxlLm1hZT4nLCAnLW9tYWUnLCAnPG91dGZpbGUubWFlPic=

> <r_lp_tautomer_probability>
0.43658

> <r_epik_Ionization_Penalty>
0.0201706

> <r_epik_Ionization_Penalty_Charging>
0

> <r_epik_Ionization_Penalty_Neutral>
0.0201706

> <r_epik_State_Penalty>
0.426656

> <r_epik_Charging_Adjusted_Penalty>
0.426656

> <i_epik_Tot_Q>
0

> <i_epik_Tot_abs_Q>
0

> <r_epik_Metal_State_Penalty>
0.386934

> <b_epik_Metal_Only>
0

> <s_lp_Force_Field>
OPLS_2005

> <r_lp_Energy>
6.86977

> <b_lp_Chiralities_Consistent>
1

> <s_lp_Variant>
AV-unprocessed.smi:3208-1

> <Gold.Version>
5.8.1

> <Gold.Id.Protein>
6NUR|6NUR_protein|mol2

> <Gold.PLP.Fitness>
40.4122

> <Gold.PLP.PLP>
-36.1988

> <Gold.PLP.part.hbond>
-3.0000

> <Gold.PLP.part.metal>
0.0000

> <Gold.PLP.part.buried>
-4.1854

> <Gold.PLP.part.nonpolar>
-29.2531

> <Gold.PLP.part.repulsive>
0.2735

> <Gold.PLP.ligand.clash>
0.0000

> <Gold.PLP.ligand.torsion>
0.4915

> <Gold.PLP.Chemscore.Hbond>
1.7192

> <Gold.PLP.Chemscore.CHOScore>
0.0000

> <Gold.PLP.Chemscore.Metal>
0.0000

> <Gold.Chemscore.Hbonds>
donor molecule, donor type, donor heavy atom, donor atom, acceptor molecule, acceptor atom, score
      L1  H    16    30       P1  8028  0.91
      P1  H  7989  7998       L1     8  0.73

> <Gold.PLP.Chemscore.Internal.Correction>
0.0388

> <Gold.Rescore>
     Score         DG    S(hbond)    S(metal)    S(lipo)     H(rot)  DE(clash)    DE(int)     intcor
     10.19     -10.92       0.67        0.00      76.36       2.24       0.01       0.71       ----

> <Gold.Chemscore.Fitness>
10.1916

> <Gold.Chemscore.DG>
-10.9175

> <Gold.Chemscore.ZeroCoef>
-5.4800

> <Gold.Chemscore.Hbond>
0.6734

> <Gold.Chemscore.Metal>
0.0000

> <Gold.Chemscore.Lipo>
76.3591

> <Gold.Chemscore.Internal_Hbond>
0.0000

> <Gold.Chemscore.DEClash>
0.0150

> <Gold.Chemscore.DEInternal>
0.7109

> <Gold.Chemscore.Rot>
2.2445

> <Gold.Chemscore.Internal.Correction>
   9.000000E+99

> <Gold.Chemscore.Hbonds>
donor molecule, donor type, donor heavy atom, donor atom, acceptor molecule, acceptor atom, score
      L1  H    16    30       P1  8028  0.70
      P1  H  7989  7998       L1     8  0.15

> <Gold.Chemscore.Hbond.Weighted>
-2.2493

> <Gold.Chemscore.Metal.Weighted>
-0.0000

> <Gold.Chemscore.Lipo.Weighted>
-8.9340

> <Gold.Chemscore.Internal_Hbond.Weighted>
0.0000

> <Gold.Chemscore.DEClash.Weighted>
0.0150

> <Gold.Chemscore.DEInternal.Weighted>
0.7109

> <Gold.Chemscore.Rot.Weighted>
5.7458

> <Gold.Chemscore.Internal.Correction.Weighted>
   9.000000E+99

> <Gold.Protein.RotatedTorsions>
[ 6907 6896 6895 6894 ] final  -27.80 input  -60.11 | X-H torsion
[ 7974 7965 7964 7962 ] final  -76.09 input  175.53 | X-H torsion
[ 8008 7997 7996 7995 ] final  -36.97 input   59.86 | X-H torsion
[ 10167 10162 10161 10158 ] final   54.20 input  -65.29 | X-H torsion
[ 10718 10713 10712 10709 ] final  -92.37 input   66.30 | X-H torsion
[ 10763 10752 10751 10750 ] final  -24.59 input  -60.55 | X-H torsion
[ 11005 11000 10999 10996 ] final -105.69 input  -57.11 | X-H torsion

> <Gold.Protein.ActiveResidues>
 VAL166  LYS551  ARG553  GLY616  TRP617  ASP618  TYR619  PRO620  LYS621  CYS622 
 ASP623  PHE694  ASN695  SER759  ASP760  ASP761  ALA762  ILE779  LEU786  VAL792 
 PHE793  MET794  SER795  GLU796  ALA797  LYS798  CYS799  TRP800  GLU811  SER814 

> <Gold.Protein.RotatedAtoms>
  151.1418  135.0183  159.8628 H   0  0  0  0  0  0  0  0  0  0  0  0  # atno 6907 bound_to 6896
  152.5452  134.1490  159.8520 H   0  0  0  0  0  0  0  0  0  0  0  0  # atno 6908 bound_to 6896
  151.1566  133.4826  159.2627 H   0  0  0  0  0  0  0  0  0  0  0  0  # atno 6909 bound_to 6896
  145.6174  140.9371  143.1157 H   0  0  0  0  0  0  0  0  0  0  0  0  # atno 7974 bound_to 7965
  154.4062  140.1616  156.2460 H   0  0  0  0  0  0  0  0  0  0  0  0  # atno 8008 bound_to 7997
  155.9160  140.3424  155.6113 H   0  0  0  0  0  0  0  0  0  0  0  0  # atno 8009 bound_to 7997
  155.7279  140.0776  157.2292 H   0  0  0  0  0  0  0  0  0  0  0  0  # atno 8010 bound_to 7997
  140.2326  144.3670  150.6409 H   0  0  0  0  0  0  0  0  0  0  0  0  # atno 10167 bound_to 10162
  156.0001  130.4984  150.5615 H   0  0  0  0  0  0  0  0  0  0  0  0  # atno 10718 bound_to 10713
  153.6863  135.6964  153.5103 H   0  0  0  0  0  0  0  0  0  0  0  0  # atno 10763 bound_to 10752
  153.2447  135.4294  155.0734 H   0  0  0  0  0  0  0  0  0  0  0  0  # atno 10764 bound_to 10752
  154.8386  135.3516  154.6405 H   0  0  0  0  0  0  0  0  0  0  0  0  # atno 10765 bound_to 10752
  141.1041  133.8829  157.1765 H   0  0  0  0  0  0  0  0  0  0  0  0  # atno 11005 bound_to 11000
  144.7245  139.7921  143.7370 LP  0  0  0  0  0  0  0  0  0  0  0  0  # atno 17320 bound_to 7965
  146.1458  139.4527  143.0080 LP  0  0  0  0  0  0  0  0  0  0  0  0  # atno 17321 bound_to 7965
  140.6174  143.2173  151.6765 LP  0  0  0  0  0  0  0  0  0  0  0  0  # atno 17342 bound_to 10162
  139.5105  144.3542  152.0624 LP  0  0  0  0  0  0  0  0  0  0  0  0  # atno 17343 bound_to 10162
  157.3524  131.0736  151.1703 LP  0  0  0  0  0  0  0  0  0  0  0  0  # atno 17370 bound_to 10713
  157.2515  130.6616  149.5933 LP  0  0  0  0  0  0  0  0  0  0  0  0  # atno 17371 bound_to 10713
  139.9904  135.0066  156.9961 LP  0  0  0  0  0  0  0  0  0  0  0  0  # atno 17394 bound_to 11000
  140.4947  134.1158  155.7239 LP  0  0  0  0  0  0  0  0  0  0  0  0  # atno 17395 bound_to 11000

$$$$
