AV-unprocessed.smi:1389|AV-procd|sdf|5647|dock7
  -GOLD-   22720 5263D 1   1.00000     0.00000
 Structure written by MMmdl.
 51 53  0  0  0  0  0  0  0  0  1 V2000
  148.9943  139.9622  154.4059 C   0  0  0  0  0  0  0  0  0  0  0  0
  150.0658  138.8497  154.3443 C   0  0  1  0  0  0  0  0  0  0  0  0
  151.4342  139.4679  154.7325 C   0  0  0  0  0  0  0  0  0  0  0  0
  151.4062  140.0594  156.0685 N   0  0  0  0  0  0  0  0  0  0  0  0
  152.3298  139.8792  157.0227 C   0  0  0  0  0  0  0  0  0  0  0  0
  153.3051  139.1379  156.9009 O   0  0  0  0  0  0  0  0  0  0  0  0
  152.0631  140.6337  158.1011 N   0  0  0  0  0  0  0  0  0  0  0  0
  152.8228  140.7471  159.2994 C   0  0  0  0  0  0  0  0  0  0  0  0
  153.6673  139.7068  159.7570 C   0  0  0  0  0  0  0  0  0  0  0  0
  154.3796  139.8787  160.9570 C   0  0  0  0  0  0  0  0  0  0  0  0
  154.2153  141.0831  161.6630 C   0  0  0  0  0  0  0  0  0  0  0  0
  153.4021  142.0759  161.2494 N   0  0  0  0  0  0  0  0  0  0  0  0
  152.7139  141.9218  160.0916 C   0  0  0  0  0  0  0  0  0  0  0  0
  151.8490  142.9648  159.6995 N   0  0  0  0  0  0  0  0  0  0  0  0
  151.6492  143.9810  160.7285 C   0  0  0  0  0  0  0  0  0  0  0  0
  151.4880  145.3116  159.9923 C   0  0  0  0  0  0  0  0  0  0  0  0
  152.3024  145.0985  158.7221 C   0  0  0  0  0  0  0  0  0  0  0  0
  152.0532  143.6237  158.4099 C   0  0  0  0  0  0  0  0  0  0  0  0
  149.7083  137.6430  155.1227 N   0  0  0  0  0  0  0  0  0  0  0  0
  148.3590  137.1570  154.8188 C   0  0  0  0  0  0  0  0  0  0  0  0
  147.9923  135.8939  155.6168 C   0  0  0  0  0  0  0  0  0  0  0  0
  148.9496  134.8738  155.3644 O   0  0  0  0  0  0  0  0  0  0  0  0
  150.2684  135.2777  155.7079 C   0  0  0  0  0  0  0  0  0  0  0  0
  150.6485  136.5380  154.9120 C   0  0  0  0  0  0  0  0  0  0  0  0
  149.3489  140.8793  153.9346 H   0  0  0  0  0  0  0  0  0  0  0  0
  148.7271  140.2045  155.4351 H   0  0  0  0  0  0  0  0  0  0  0  0
  148.0828  139.6817  153.8791 H   0  0  0  0  0  0  0  0  0  0  0  0
  150.1476  138.5589  153.2959 H   0  0  0  0  0  0  0  0  0  0  0  0
  152.2282  138.7232  154.7025 H   0  0  0  0  0  0  0  0  0  0  0  0
  151.7303  140.2058  153.9850 H   0  0  0  0  0  0  0  0  0  0  0  0
  150.6455  140.6944  156.2614 H   0  0  0  0  0  0  0  0  0  0  0  0
  151.2910  141.2783  158.0146 H   0  0  0  0  0  0  0  0  0  0  0  0
  153.7682  138.7784  159.2156 H   0  0  0  0  0  0  0  0  0  0  0  0
  155.0325  139.1030  161.3289 H   0  0  0  0  0  0  0  0  0  0  0  0
  154.7443  141.2509  162.5894 H   0  0  0  0  0  0  0  0  0  0  0  0
  150.7740  143.7574  161.3387 H   0  0  0  0  0  0  0  0  0  0  0  0
  152.5175  144.0218  161.3888 H   0  0  0  0  0  0  0  0  0  0  0  0
  150.4393  145.4690  159.7360 H   0  0  0  0  0  0  0  0  0  0  0  0
  151.8253  146.1655  160.5801 H   0  0  0  0  0  0  0  0  0  0  0  0
  152.0080  145.7608  157.9076 H   0  0  0  0  0  0  0  0  0  0  0  0
  153.3614  145.2608  158.9281 H   0  0  0  0  0  0  0  0  0  0  0  0
  152.8537  143.1988  157.8044 H   0  0  0  0  0  0  0  0  0  0  0  0
  151.1328  143.5170  157.8354 H   0  0  0  0  0  0  0  0  0  0  0  0
  147.6166  137.9184  155.0533 H   0  0  0  0  0  0  0  0  0  0  0  0
  148.2721  136.9486  153.7512 H   0  0  0  0  0  0  0  0  0  0  0  0
  147.9526  136.1100  156.6856 H   0  0  0  0  0  0  0  0  0  0  0  0
  147.0050  135.5353  155.3256 H   0  0  0  0  0  0  0  0  0  0  0  0
  150.3330  135.4648  156.7809 H   0  0  0  0  0  0  0  0  0  0  0  0
  150.9591  134.4649  155.4829 H   0  0  0  0  0  0  0  0  0  0  0  0
  150.6990  136.2928  153.8499 H   0  0  0  0  0  0  0  0  0  0  0  0
  151.6530  136.8249  155.2179 H   0  0  0  0  0  0  0  0  0  0  0  0
  1  2  1  0  0  0  0
  1 25  1  0  0  0  0
  1 26  1  0  0  0  0
  1 27  1  0  0  0  0
  2  3  1  0  0  0  0
  2 19  1  0  0  0  0
  2 28  1  0  0  0  0
  3  4  1  0  0  0  0
  3 29  1  0  0  0  0
  3 30  1  0  0  0  0
  4  5  1  0  0  0  0
  4 31  1  0  0  0  0
  5  6  2  0  0  0  0
  5  7  1  0  0  0  0
  7  8  1  0  0  0  0
  7 32  1  0  0  0  0
  8 13  1  0  0  0  0
  8  9  2  0  0  0  0
  9 10  1  0  0  0  0
  9 33  1  0  0  0  0
 10 11  2  0  0  0  0
 10 34  1  0  0  0  0
 11 12  1  0  0  0  0
 11 35  1  0  0  0  0
 12 13  2  0  0  0  0
 13 14  1  0  0  0  0
 14 18  1  0  0  0  0
 14 15  1  0  0  0  0
 15 16  1  0  0  0  0
 15 36  1  0  0  0  0
 15 37  1  0  0  0  0
 16 17  1  0  0  0  0
 16 38  1  0  0  0  0
 16 39  1  0  0  0  0
 17 18  1  0  0  0  0
 17 40  1  0  0  0  0
 17 41  1  0  0  0  0
 18 42  1  0  0  0  0
 18 43  1  0  0  0  0
 19 24  1  0  0  0  0
 19 20  1  0  0  0  0
 20 21  1  0  0  0  0
 20 44  1  0  0  0  0
 20 45  1  0  0  0  0
 21 22  1  0  0  0  0
 21 46  1  0  0  0  0
 21 47  1  0  0  0  0
 22 23  1  0  0  0  0
 23 24  1  0  0  0  0
 23 48  1  0  0  0  0
 23 49  1  0  0  0  0
 24 50  1  0  0  0  0
 24 51  1  0  0  0  0
M  END
> <s_m_source_file>
AV-unprocessed.smi

> <i_m_source_file_index>
1389

> <i_lp_mmshare_version>
43012

> <i_f3d_flags>
0

> <s_epik_input>
W0NIMl0xW0NIMl1PW0NIMl1bQ0gyXU4xW0NASF0oW0NIM10pW0NIMl1bTkhdQyg9TylbTkhdYzJbY0hdW2NIXVtjSF1uYzJOM1tDSDJdW0NIMl1bQ0gyXVtDSDJdMw==

> <s_epik_cmdline>
J2VwaWtfcHl0aG9uJywgJy1waCcsICc3LjAnLCAnLXRuJywgJzgnLCAnLW1hJywgJzIwMCcsICctbWV0YWxfYmluZGluZycsICctaW1hZScsICc8aW5maWxlLm1hZT4nLCAnLW9tYWUnLCAnPG91dGZpbGUubWFlPic=

> <r_lp_tautomer_probability>
1

> <r_epik_Ionization_Penalty>
0.365229

> <r_epik_Ionization_Penalty_Charging>
0

> <r_epik_Ionization_Penalty_Neutral>
0.365229

> <r_epik_State_Penalty>
0.350519

> <r_epik_Charging_Adjusted_Penalty>
0.350519

> <i_epik_Tot_Q>
0

> <i_epik_Tot_abs_Q>
0

> <r_epik_Metal_State_Penalty>
0.33386

> <b_epik_Metal_Only>
0

> <s_lp_Force_Field>
OPLS_2005

> <r_lp_Energy>
61.7302

> <b_lp_Chiralities_Consistent>
1

> <s_lp_Variant>
AV-unprocessed.smi:1389-2

> <Gold.Version>
5.8.1

> <Gold.Id.Protein>
6NUR|6NUR_protein|mol2

> <Gold.PLP.Fitness>
46.8422

> <Gold.PLP.PLP>
-44.4465

> <Gold.PLP.part.hbond>
-1.0000

> <Gold.PLP.part.metal>
0.0000

> <Gold.PLP.part.buried>
-5.0500

> <Gold.PLP.part.nonpolar>
-38.5658

> <Gold.PLP.part.repulsive>
0.3820

> <Gold.PLP.ligand.clash>
0.0000

> <Gold.PLP.ligand.torsion>
0.3867

> <Gold.PLP.Chemscore.Hbond>
1.0000

> <Gold.PLP.Chemscore.CHOScore>
0.0000

> <Gold.PLP.Chemscore.Metal>
0.0000

> <Gold.Chemscore.Hbonds>
donor molecule, donor type, donor heavy atom, donor atom, acceptor molecule, acceptor atom, score
      P1  H  7997  8009       L1     6  0.78

> <Gold.PLP.Chemscore.Internal.Correction>
0.1690

> <Gold.Rescore>
     Score         DG    S(hbond)    S(metal)    S(lipo)     H(rot)  DE(clash)    DE(int)     intcor
     14.80     -17.59       0.92        0.00     111.70       1.57       0.10       2.68       ----

> <Gold.Chemscore.Fitness>
14.7998

> <Gold.Chemscore.DG>
-17.5869

> <Gold.Chemscore.ZeroCoef>
-5.4800

> <Gold.Chemscore.Hbond>
0.9169

> <Gold.Chemscore.Metal>
0.0000

> <Gold.Chemscore.Lipo>
111.6950

> <Gold.Chemscore.Internal_Hbond>
0.0000

> <Gold.Chemscore.DEClash>
0.1033

> <Gold.Chemscore.DEInternal>
2.6838

> <Gold.Chemscore.Rot>
1.5718

> <Gold.Chemscore.Internal.Correction>
   9.000000E+99

> <Gold.Chemscore.Hbonds>
donor molecule, donor type, donor heavy atom, donor atom, acceptor molecule, acceptor atom, score
      P1  H  7997  8009       L1     6  0.30

> <Gold.Chemscore.Hbond.Weighted>
-3.0625

> <Gold.Chemscore.Metal.Weighted>
-0.0000

> <Gold.Chemscore.Lipo.Weighted>
-13.0683

> <Gold.Chemscore.Internal_Hbond.Weighted>
0.0000

> <Gold.Chemscore.DEClash.Weighted>
0.1033

> <Gold.Chemscore.DEInternal.Weighted>
2.6838

> <Gold.Chemscore.Rot.Weighted>
4.0239

> <Gold.Chemscore.Internal.Correction.Weighted>
   9.000000E+99

> <Gold.Protein.RotatedTorsions>
[ 6907 6896 6895 6894 ] final   29.80 input  -60.11 | X-H torsion
[ 7974 7965 7964 7962 ] final  -16.69 input  175.53 | X-H torsion
[ 8008 7997 7996 7995 ] final  178.94 input   59.86 | X-H torsion
[ 10167 10162 10161 10158 ] final  -74.05 input  -65.29 | X-H torsion
[ 10718 10713 10712 10709 ] final  -30.43 input   66.30 | X-H torsion
[ 10763 10752 10751 10750 ] final   53.28 input  -60.55 | X-H torsion
[ 11005 11000 10999 10996 ] final -172.53 input  -57.11 | X-H torsion

> <Gold.Protein.ActiveResidues>
 VAL166  LYS551  ARG553  GLY616  TRP617  ASP618  TYR619  PRO620  LYS621  CYS622 
 ASP623  PHE694  ASN695  SER759  ASP760  ASP761  ALA762  ILE779  LEU786  VAL792 
 PHE793  MET794  SER795  GLU796  ALA797  LYS798  CYS799  TRP800  GLU811  SER814 

> <Gold.Protein.RotatedAtoms>
  152.0368  134.9735  160.0573 H   0  0  0  0  0  0  0  0  0  0  0  0  # atno 6907 bound_to 6896
  152.1190  133.4338  159.4675 H   0  0  0  0  0  0  0  0  0  0  0  0  # atno 6908 bound_to 6896
  150.6848  134.2476  159.4541 H   0  0  0  0  0  0  0  0  0  0  0  0  # atno 6909 bound_to 6896
  146.1976  140.3672  142.8435 H   0  0  0  0  0  0  0  0  0  0  0  0  # atno 7974 bound_to 7965
  156.0490  140.1321  157.0072 H   0  0  0  0  0  0  0  0  0  0  0  0  # atno 8008 bound_to 7997
  154.4426  140.1015  156.6418 H   0  0  0  0  0  0  0  0  0  0  0  0  # atno 8009 bound_to 7997
  155.5552  140.3463  155.4480 H   0  0  0  0  0  0  0  0  0  0  0  0  # atno 8010 bound_to 7997
  140.5059  143.2353  151.7674 H   0  0  0  0  0  0  0  0  0  0  0  0  # atno 10167 bound_to 10162
  156.4000  130.4388  149.7330 H   0  0  0  0  0  0  0  0  0  0  0  0  # atno 10718 bound_to 10713
  152.9794  135.5784  154.4716 H   0  0  0  0  0  0  0  0  0  0  0  0  # atno 10763 bound_to 10752
  154.4278  135.2773  155.1934 H   0  0  0  0  0  0  0  0  0  0  0  0  # atno 10764 bound_to 10752
  154.3656  135.6179  153.5767 H   0  0  0  0  0  0  0  0  0  0  0  0  # atno 10765 bound_to 10752
  140.4960  134.5939  157.4971 H   0  0  0  0  0  0  0  0  0  0  0  0  # atno 11005 bound_to 11000
  144.8613  140.7143  143.6105 LP  0  0  0  0  0  0  0  0  0  0  0  0  # atno 17320 bound_to 7965
  145.3592  139.1686  143.4392 LP  0  0  0  0  0  0  0  0  0  0  0  0  # atno 17321 bound_to 7965
  139.4883  144.4457  151.9712 LP  0  0  0  0  0  0  0  0  0  0  0  0  # atno 17342 bound_to 10162
  140.3548  144.3045  150.5943 LP  0  0  0  0  0  0  0  0  0  0  0  0  # atno 17343 bound_to 10162
  156.4350  130.7833  151.2854 LP  0  0  0  0  0  0  0  0  0  0  0  0  # atno 17370 bound_to 10713
  157.7503  131.0142  150.3456 LP  0  0  0  0  0  0  0  0  0  0  0  0  # atno 17371 bound_to 10713
  139.9741  134.7244  155.9983 LP  0  0  0  0  0  0  0  0  0  0  0  0  # atno 17394 bound_to 11000
  141.1460  133.6556  156.3869 LP  0  0  0  0  0  0  0  0  0  0  0  0  # atno 17395 bound_to 11000

$$$$
