AV-unprocessed.smi:1930|AV-procd|sdf|7809|dock10
  -GOLD-   22720 9553D 1   1.00000     0.00000
 Structure written by MMmdl.
 41 42  0  0  0  0  0  0  0  0  1 V2000
  151.3182  140.7288  157.8800 C   0  0  0  0  0  0  0  0  0  0  0  0
  151.9643  139.5488  156.6258 S   0  0  0  0  0  0  0  0  0  0  0  0
  151.9199  140.2046  155.3098 O   0  0  0  0  0  0  0  0  0  0  0  0
  153.2338  138.9969  157.1231 O   0  0  0  0  0  0  0  0  0  0  0  0
  150.7897  138.2662  156.6230 N   0  0  0  0  0  0  0  0  0  0  0  0
  151.0350  137.0580  157.4437 C   0  0  0  0  0  0  0  0  0  0  0  0
  151.4615  135.8591  156.5747 C   0  0  0  0  0  0  0  0  0  0  0  0
  150.4533  135.6531  155.5266 N   0  0  0  0  0  0  0  0  0  0  0  0
  149.5080  134.6811  155.4908 C   0  0  0  0  0  0  0  0  0  0  0  0
  149.2326  133.9717  156.4594 O   0  0  0  0  0  0  0  0  0  0  0  0
  148.8658  134.5650  154.3174 N   0  0  0  0  0  0  0  0  0  0  0  0
  147.8175  133.5935  154.0401 C   0  0  0  0  0  0  0  0  0  0  0  0
  147.9192  133.0911  152.5941 C   0  0  0  0  0  0  0  0  0  0  0  0
  146.6189  133.2671  151.8349 C   0  0  0  0  0  0  0  0  0  0  0  0
  145.8789  132.1483  151.4005 C   0  0  0  0  0  0  0  0  0  0  0  0
  144.6757  132.3609  150.7005 C   0  0  0  0  0  0  0  0  0  0  0  0
  144.2624  133.6872  150.4648 C   0  0  0  0  0  0  0  0  0  0  0  0
  144.9619  134.7662  150.8772 N   0  0  0  0  0  0  0  0  0  0  0  0
  146.1147  134.5536  151.5479 C   0  0  0  0  0  0  0  0  0  0  0  0
  150.4278  136.8069  154.6254 C   0  0  0  0  0  0  0  0  0  0  0  0
  149.9619  138.0462  155.4146 C   0  0  0  0  0  0  0  0  0  0  0  0
  151.9975  141.5775  157.9548 H   0  0  0  0  0  0  0  0  0  0  0  0
  151.2544  140.2381  158.8499 H   0  0  0  0  0  0  0  0  0  0  0  0
  150.3348  141.0864  157.5787 H   0  0  0  0  0  0  0  0  0  0  0  0
  151.7884  137.2603  158.2046 H   0  0  0  0  0  0  0  0  0  0  0  0
  150.1162  136.8133  157.9780 H   0  0  0  0  0  0  0  0  0  0  0  0
  152.4280  136.0520  156.1090 H   0  0  0  0  0  0  0  0  0  0  0  0
  151.6223  134.9869  157.2079 H   0  0  0  0  0  0  0  0  0  0  0  0
  149.1291  135.1853  153.5658 H   0  0  0  0  0  0  0  0  0  0  0  0
  147.9092  132.7570  154.7350 H   0  0  0  0  0  0  0  0  0  0  0  0
  146.8423  134.0524  154.2118 H   0  0  0  0  0  0  0  0  0  0  0  0
  148.7137  133.6223  152.0677 H   0  0  0  0  0  0  0  0  0  0  0  0
  148.1937  132.0352  152.5822 H   0  0  0  0  0  0  0  0  0  0  0  0
  146.2252  131.1449  151.6002 H   0  0  0  0  0  0  0  0  0  0  0  0
  144.0835  131.5274  150.3527 H   0  0  0  0  0  0  0  0  0  0  0  0
  143.3451  133.8866  149.9309 H   0  0  0  0  0  0  0  0  0  0  0  0
  146.6494  135.4368  151.8652 H   0  0  0  0  0  0  0  0  0  0  0  0
  151.4232  136.9669  154.2109 H   0  0  0  0  0  0  0  0  0  0  0  0
  149.7772  136.6504  153.7639 H   0  0  0  0  0  0  0  0  0  0  0  0
  148.9260  137.9113  155.7280 H   0  0  0  0  0  0  0  0  0  0  0  0
  149.9773  138.9287  154.7756 H   0  0  0  0  0  0  0  0  0  0  0  0
  1  2  1  0  0  0  0
  1 22  1  0  0  0  0
  1 23  1  0  0  0  0
  1 24  1  0  0  0  0
  2  3  2  0  0  0  0
  2  4  2  0  0  0  0
  2  5  1  0  0  0  0
  5 21  1  0  0  0  0
  5  6  1  0  0  0  0
  6  7  1  0  0  0  0
  6 25  1  0  0  0  0
  6 26  1  0  0  0  0
  7  8  1  0  0  0  0
  7 27  1  0  0  0  0
  7 28  1  0  0  0  0
  8  9  1  0  0  0  0
  8 20  1  0  0  0  0
  9 10  2  0  0  0  0
  9 11  1  0  0  0  0
 11 12  1  0  0  0  0
 11 29  1  0  0  0  0
 12 13  1  0  0  0  0
 12 30  1  0  0  0  0
 12 31  1  0  0  0  0
 13 14  1  0  0  0  0
 13 32  1  0  0  0  0
 13 33  1  0  0  0  0
 14 19  1  0  0  0  0
 14 15  2  0  0  0  0
 15 16  1  0  0  0  0
 15 34  1  0  0  0  0
 16 17  2  0  0  0  0
 16 35  1  0  0  0  0
 17 18  1  0  0  0  0
 17 36  1  0  0  0  0
 18 19  2  0  0  0  0
 19 37  1  0  0  0  0
 20 21  1  0  0  0  0
 20 38  1  0  0  0  0
 20 39  1  0  0  0  0
 21 40  1  0  0  0  0
 21 41  1  0  0  0  0
M  END
> <s_m_source_file>
AV-unprocessed.smi

> <i_m_source_file_index>
1930

> <i_lp_mmshare_version>
43012

> <i_f3d_flags>
0

> <s_epik_input>
W0NIM11TKD1PKSg9TylOMVtDSDJdW0NIMl1OKFtDSDJdW0NIMl0xKUMoPU8pW05IXVtDSDJdW0NIMl1jMltjSF1bY0hdW2NIXW5bY0hdMg==

> <s_epik_cmdline>
J2VwaWtfcHl0aG9uJywgJy1waCcsICc3LjAnLCAnLXRuJywgJzgnLCAnLW1hJywgJzIwMCcsICctbWV0YWxfYmluZGluZycsICctaW1hZScsICc8aW5maWxlLm1hZT4nLCAnLW9tYWUnLCAnPG91dGZpbGUubWFlPic=

> <r_epik_Ionization_Penalty>
0.0143741

> <r_epik_Ionization_Penalty_Charging>
0

> <r_epik_Ionization_Penalty_Neutral>
0.0143741

> <r_epik_State_Penalty>
0.0112033

> <r_epik_Charging_Adjusted_Penalty>
0.0112033

> <i_epik_Tot_Q>
0

> <i_epik_Tot_abs_Q>
0

> <r_epik_Metal_State_Penalty>
0.0109376

> <b_epik_Metal_Only>
0

> <s_lp_Force_Field>
OPLS_2005

> <r_lp_Energy>
24.8651

> <b_lp_Chiralities_Consistent>
1

> <s_lp_Variant>
AV-unprocessed.smi:1930-1

> <Gold.Version>
5.8.1

> <Gold.Id.Protein>
6NUR|6NUR_protein|mol2

> <Gold.PLP.Fitness>
44.0773

> <Gold.PLP.PLP>
-31.0817

> <Gold.PLP.part.hbond>
-3.0000

> <Gold.PLP.part.metal>
0.0000

> <Gold.PLP.part.buried>
-5.4453

> <Gold.PLP.part.nonpolar>
-23.8981

> <Gold.PLP.part.repulsive>
0.2160

> <Gold.PLP.ligand.clash>
0.0105

> <Gold.PLP.ligand.torsion>
1.7610

> <Gold.PLP.Chemscore.Hbond>
2.8160

> <Gold.PLP.Chemscore.CHOScore>
1.9899

> <Gold.PLP.Chemscore.Metal>
0.0000

> <Gold.Chemscore.Hbonds>
donor molecule, donor type, donor heavy atom, donor atom, acceptor molecule, acceptor atom, score
      L1  H    11    29       P1  7948  1.00
      P1  H  7989  7998       L1     3  0.80
      P1  H  7997  8010       L1     4  1.00
      L1  C    17    36       P1 10186  1.00
      L1  C    19    37       P1  7948  1.00

> <Gold.PLP.Chemscore.Internal.Correction>
2.1103

> <Gold.Rescore>
     Score         DG    S(hbond)    S(metal)    S(lipo)     H(rot)  DE(clash)    DE(int)     intcor
     15.79     -17.88       2.30        0.00      71.11       1.40       0.31       1.78       ----

> <Gold.Chemscore.Fitness>
15.7852

> <Gold.Chemscore.DG>
-17.8785

> <Gold.Chemscore.ZeroCoef>
-5.4800

> <Gold.Chemscore.Hbond>
2.2971

> <Gold.Chemscore.Metal>
0.0000

> <Gold.Chemscore.Lipo>
71.1079

> <Gold.Chemscore.Internal_Hbond>
0.0000

> <Gold.Chemscore.DEClash>
0.3092

> <Gold.Chemscore.DEInternal>
1.7840

> <Gold.Chemscore.Rot>
1.4037

> <Gold.Chemscore.Internal.Correction>
   9.000000E+99

> <Gold.Chemscore.Hbonds>
donor molecule, donor type, donor heavy atom, donor atom, acceptor molecule, acceptor atom, score
      L1  H    11    29       P1  7948  0.34
      P1  H  7989  7998       L1     3  0.79
      P1  H  7997  8010       L1     4  0.50

> <Gold.Chemscore.Hbond.Weighted>
-7.6724

> <Gold.Chemscore.Metal.Weighted>
-0.0000

> <Gold.Chemscore.Lipo.Weighted>
-8.3196

> <Gold.Chemscore.Internal_Hbond.Weighted>
0.0000

> <Gold.Chemscore.DEClash.Weighted>
0.3092

> <Gold.Chemscore.DEInternal.Weighted>
1.7840

> <Gold.Chemscore.Rot.Weighted>
3.5935

> <Gold.Chemscore.Internal.Correction.Weighted>
   9.000000E+99

> <Gold.Protein.RotatedTorsions>
[ 6907 6896 6895 6894 ] final -145.69 input  -60.11 | X-H torsion
[ 7974 7965 7964 7962 ] final   37.42 input  175.53 | X-H torsion
[ 8008 7997 7996 7995 ] final   61.19 input   59.86 | X-H torsion
[ 10167 10162 10161 10158 ] final  147.31 input  -65.29 | X-H torsion
[ 10718 10713 10712 10709 ] final  -91.51 input   66.30 | X-H torsion
[ 10763 10752 10751 10750 ] final   -1.49 input  -60.55 | X-H torsion
[ 11005 11000 10999 10996 ] final  -90.73 input  -57.11 | X-H torsion

> <Gold.Protein.ActiveResidues>
 VAL166  LYS551  ARG553  GLY616  TRP617  ASP618  TYR619  PRO620  LYS621  CYS622 
 ASP623  PHE694  ASN695  SER759  ASP760  ASP761  ALA762  ILE779  LEU786  VAL792 
 PHE793  MET794  SER795  GLU796  ALA797  LYS798  CYS799  TRP800  GLU811  SER814 

> <Gold.Protein.RotatedAtoms>
  151.1312  133.5035  159.2598 H   0  0  0  0  0  0  0  0  0  0  0  0  # atno 6907 bound_to 6896
  151.1755  135.0337  159.8780 H   0  0  0  0  0  0  0  0  0  0  0  0  # atno 6908 bound_to 6896
  152.5460  134.1171  159.8436 H   0  0  0  0  0  0  0  0  0  0  0  0  # atno 6909 bound_to 6896
  146.1139  139.5897  142.9334 H   0  0  0  0  0  0  0  0  0  0  0  0  # atno 7974 bound_to 7965
  155.5944  140.3493  155.4575 H   0  0  0  0  0  0  0  0  0  0  0  0  # atno 8008 bound_to 7997
  156.0277  140.1267  157.0316 H   0  0  0  0  0  0  0  0  0  0  0  0  # atno 8009 bound_to 7997
  154.4339  140.1050  156.6040 H   0  0  0  0  0  0  0  0  0  0  0  0  # atno 8010 bound_to 7997
  139.4892  144.5765  151.6955 H   0  0  0  0  0  0  0  0  0  0  0  0  # atno 10167 bound_to 10162
  155.9994  130.4951  150.5486 H   0  0  0  0  0  0  0  0  0  0  0  0  # atno 10718 bound_to 10713
  153.3456  135.6983  153.6831 H   0  0  0  0  0  0  0  0  0  0  0  0  # atno 10763 bound_to 10752
  153.5578  135.3541  155.2787 H   0  0  0  0  0  0  0  0  0  0  0  0  # atno 10764 bound_to 10752
  154.8644  135.4242  154.2679 H   0  0  0  0  0  0  0  0  0  0  0  0  # atno 10765 bound_to 10752
  141.1559  133.7711  156.9780 H   0  0  0  0  0  0  0  0  0  0  0  0  # atno 11005 bound_to 11000
  145.5607  141.0404  143.2228 LP  0  0  0  0  0  0  0  0  0  0  0  0  # atno 17320 bound_to 7965
  144.7535  139.7132  143.7263 LP  0  0  0  0  0  0  0  0  0  0  0  0  # atno 17321 bound_to 7965
  140.5362  144.0652  150.6071 LP  0  0  0  0  0  0  0  0  0  0  0  0  # atno 17342 bound_to 10162
  140.3659  143.2882  152.0333 LP  0  0  0  0  0  0  0  0  0  0  0  0  # atno 17343 bound_to 10162
  157.3412  131.0717  151.1786 LP  0  0  0  0  0  0  0  0  0  0  0  0  # atno 17370 bound_to 10713
  157.2634  130.6670  149.5985 LP  0  0  0  0  0  0  0  0  0  0  0  0  # atno 17371 bound_to 10713
  140.1085  134.9491  157.2030 LP  0  0  0  0  0  0  0  0  0  0  0  0  # atno 17394 bound_to 11000
  140.3225  134.2901  155.7243 LP  0  0  0  0  0  0  0  0  0  0  0  0  # atno 17395 bound_to 11000

$$$$
