AV-unprocessed.smi:775|AV-procd|sdf|3698|dock4
  -GOLD-   22720 1123D 1   1.00000     0.00000
 Structure written by MMmdl.
 38 39  0  0  0  0  0  0  0  0  1 V2000
  152.7048  144.7726  157.9864 C   0  0  0  0  0  0  0  0  0  0  0  0
  152.0057  143.4342  158.2655 C   0  0  1  0  0  0  0  0  0  0  0  0
  151.3152  143.4612  159.6500 C   0  0  0  0  0  0  0  0  0  0  0  0
  152.1897  143.0911  160.7499 N   0  0  0  0  0  0  0  0  0  0  0  0
  152.3966  143.7531  161.9425 C   0  0  0  0  0  0  0  0  0  0  0  0
  153.2912  143.0182  162.6665 C   0  0  0  0  0  0  0  0  0  0  0  0
  153.5645  141.9001  161.8303 C   0  0  0  0  0  0  0  0  0  0  0  0
  152.8958  141.9414  160.6898 N   0  0  0  0  0  0  0  0  0  0  0  0
  151.0421  143.2315  157.1862 N   0  0  0  0  0  0  0  0  0  0  0  0
  150.3067  141.9658  157.3087 C   0  0  0  0  0  0  0  0  0  0  0  0
  150.9870  140.8343  156.5267 C   0  0  0  0  0  0  0  0  0  0  0  0
  150.9080  140.8678  155.2977 O   0  0  0  0  0  0  0  0  0  0  0  0
  151.6595  139.8539  157.1824 N   0  0  0  0  0  0  0  0  0  0  0  0
  151.7527  139.7846  158.6508 C   0  0  0  0  0  0  0  0  0  0  0  0
  151.8192  138.3366  159.1547 C   0  0  0  0  0  0  0  0  0  0  0  0
  152.8343  137.5701  158.4549 N   0  0  0  0  0  0  0  0  0  0  0  0
  153.1231  137.7392  157.1591 C   0  0  0  0  0  0  0  0  0  0  0  0
  153.9505  137.0350  156.5849 O   0  0  0  0  0  0  0  0  0  0  0  0
  152.4089  138.8593  156.3851 C   0  0  0  0  0  0  0  0  0  0  0  0
  153.4673  144.9797  158.7379 H   0  0  0  0  0  0  0  0  0  0  0  0
  151.9982  145.6035  157.9951 H   0  0  0  0  0  0  0  0  0  0  0  0
  153.2011  144.7659  157.0151 H   0  0  0  0  0  0  0  0  0  0  0  0
  152.7753  142.6609  158.2401 H   0  0  0  0  0  0  0  0  0  0  0  0
  150.9548  144.4689  159.8603 H   0  0  0  0  0  0  0  0  0  0  0  0
  150.4338  142.8170  159.6505 H   0  0  0  0  0  0  0  0  0  0  0  0
  151.8997  144.6843  162.1715 H   0  0  0  0  0  0  0  0  0  0  0  0
  153.6860  143.2426  163.6462 H   0  0  0  0  0  0  0  0  0  0  0  0
  154.2211  141.0634  162.0181 H   0  0  0  0  0  0  0  0  0  0  0  0
  151.5390  143.2637  156.3074 H   0  0  0  0  0  0  0  0  0  0  0  0
  150.2638  141.6779  158.3602 H   0  0  0  0  0  0  0  0  0  0  0  0
  149.2738  142.0714  156.9831 H   0  0  0  0  0  0  0  0  0  0  0  0
  152.6394  140.3351  158.9684 H   0  0  0  0  0  0  0  0  0  0  0  0
  150.9004  140.2478  159.1433 H   0  0  0  0  0  0  0  0  0  0  0  0
  152.0283  138.3175  160.2244 H   0  0  0  0  0  0  0  0  0  0  0  0
  150.8556  137.8461  159.0107 H   0  0  0  0  0  0  0  0  0  0  0  0
  153.3152  136.8464  158.9694 H   0  0  0  0  0  0  0  0  0  0  0  0
  151.7274  138.3763  155.6828 H   0  0  0  0  0  0  0  0  0  0  0  0
  153.1591  139.3798  155.7870 H   0  0  0  0  0  0  0  0  0  0  0  0
  1  2  1  0  0  0  0
  1 20  1  0  0  0  0
  1 21  1  0  0  0  0
  1 22  1  0  0  0  0
  2  3  1  0  0  0  0
  2  9  1  0  0  0  0
  2 23  1  0  0  0  0
  3  4  1  0  0  0  0
  3 24  1  0  0  0  0
  3 25  1  0  0  0  0
  4  8  1  0  0  0  0
  4  5  1  0  0  0  0
  5  6  2  0  0  0  0
  5 26  1  0  0  0  0
  6  7  1  0  0  0  0
  6 27  1  0  0  0  0
  7  8  2  0  0  0  0
  7 28  1  0  0  0  0
  9 10  1  0  0  0  0
  9 29  1  0  0  0  0
 10 11  1  0  0  0  0
 10 30  1  0  0  0  0
 10 31  1  0  0  0  0
 11 12  2  0  0  0  0
 11 13  1  0  0  0  0
 13 19  1  0  0  0  0
 13 14  1  0  0  0  0
 14 15  1  0  0  0  0
 14 32  1  0  0  0  0
 14 33  1  0  0  0  0
 15 16  1  0  0  0  0
 15 34  1  0  0  0  0
 15 35  1  0  0  0  0
 16 17  1  0  0  0  0
 16 36  1  0  0  0  0
 17 18  2  0  0  0  0
 17 19  1  0  0  0  0
 19 37  1  0  0  0  0
 19 38  1  0  0  0  0
M  END
> <s_m_source_file>
AV-unprocessed.smi

> <i_m_source_file_index>
775

> <i_lp_mmshare_version>
43012

> <i_f3d_flags>
0

> <s_epik_input>
bjFbY0hdW2NIXVtjSF1uMVtDSDJdW0NAQEhdKFtDSDNdKVtOSF1bQ0gyXUMoPU8pTjJbQ0gyXVtDSDJdW05IXUMoPU8pW0NIMl0y

> <s_epik_cmdline>
J2VwaWtfcHl0aG9uJywgJy1waCcsICc3LjAnLCAnLXRuJywgJzgnLCAnLW1hJywgJzIwMCcsICctbWV0YWxfYmluZGluZycsICctaW1hZScsICc8aW5maWxlLm1hZT4nLCAnLW9tYWUnLCAnPG91dGZpbGUubWFlPic=

> <r_lp_tautomer_probability>
1

> <r_epik_Ionization_Penalty>
0.836058

> <r_epik_Ionization_Penalty_Charging>
0

> <r_epik_Ionization_Penalty_Neutral>
0.836058

> <r_epik_State_Penalty>
0.870309

> <r_epik_Charging_Adjusted_Penalty>
0.870309

> <i_epik_Tot_Q>
0

> <i_epik_Tot_abs_Q>
0

> <r_epik_Metal_State_Penalty>
0.870266

> <b_epik_Metal_Only>
0

> <s_lp_Force_Field>
OPLS_2005

> <r_lp_Energy>
25.6331

> <b_lp_Chiralities_Consistent>
1

> <s_lp_Variant>
AV-unprocessed.smi:775-4

> <Gold.Version>
5.8.1

> <Gold.Id.Protein>
6NUR|6NUR_protein|mol2

> <Gold.PLP.Fitness>
45.0126

> <Gold.PLP.PLP>
-42.0052

> <Gold.PLP.part.hbond>
-2.8398

> <Gold.PLP.part.metal>
0.0000

> <Gold.PLP.part.buried>
-6.0792

> <Gold.PLP.part.nonpolar>
-32.1715

> <Gold.PLP.part.repulsive>
0.1618

> <Gold.PLP.ligand.clash>
0.0000

> <Gold.PLP.ligand.torsion>
0.7427

> <Gold.PLP.Chemscore.Hbond>
1.4880

> <Gold.PLP.Chemscore.CHOScore>
0.0000

> <Gold.PLP.Chemscore.Metal>
0.0000

> <Gold.Chemscore.Hbonds>
donor molecule, donor type, donor heavy atom, donor atom, acceptor molecule, acceptor atom, score
      P1  H  7989  7998       L1    12  0.77
      P1  H 10752 10765       L1    18  0.65

> <Gold.PLP.Chemscore.Internal.Correction>
0.0288

> <Gold.Rescore>
     Score         DG    S(hbond)    S(metal)    S(lipo)     H(rot)  DE(clash)    DE(int)     intcor
     16.37     -16.98       1.86        0.00      91.58       2.12       0.04       0.57       ----

> <Gold.Chemscore.Fitness>
16.3671

> <Gold.Chemscore.DG>
-16.9781

> <Gold.Chemscore.ZeroCoef>
-5.4800

> <Gold.Chemscore.Hbond>
1.8623

> <Gold.Chemscore.Metal>
0.0000

> <Gold.Chemscore.Lipo>
91.5821

> <Gold.Chemscore.Internal_Hbond>
0.0000

> <Gold.Chemscore.DEClash>
0.0378

> <Gold.Chemscore.DEInternal>
0.5732

> <Gold.Chemscore.Rot>
2.1239

> <Gold.Chemscore.Internal.Correction>
   9.000000E+99

> <Gold.Chemscore.Hbonds>
donor molecule, donor type, donor heavy atom, donor atom, acceptor molecule, acceptor atom, score
      P1  H  7989  7998       L1    12  0.77
      P1  H 10752 10765       L1    18  0.61

> <Gold.Chemscore.Hbond.Weighted>
-6.2200

> <Gold.Chemscore.Metal.Weighted>
-0.0000

> <Gold.Chemscore.Lipo.Weighted>
-10.7151

> <Gold.Chemscore.Internal_Hbond.Weighted>
0.0000

> <Gold.Chemscore.DEClash.Weighted>
0.0378

> <Gold.Chemscore.DEInternal.Weighted>
0.5732

> <Gold.Chemscore.Rot.Weighted>
5.4371

> <Gold.Chemscore.Internal.Correction.Weighted>
   9.000000E+99

> <Gold.Protein.RotatedTorsions>
[ 6907 6896 6895 6894 ] final -108.23 input  -60.11 | X-H torsion
[ 7974 7965 7964 7962 ] final  -78.40 input  175.53 | X-H torsion
[ 8008 7997 7996 7995 ] final  156.72 input   59.86 | X-H torsion
[ 10167 10162 10161 10158 ] final  -32.81 input  -65.29 | X-H torsion
[ 10718 10713 10712 10709 ] final -143.85 input   66.30 | X-H torsion
[ 10763 10752 10751 10750 ] final -104.51 input  -60.55 | X-H torsion
[ 11005 11000 10999 10996 ] final  110.97 input  -57.11 | X-H torsion

> <Gold.Protein.ActiveResidues>
 VAL166  LYS551  ARG553  GLY616  TRP617  ASP618  TYR619  PRO620  LYS621  CYS622 
 ASP623  PHE694  ASN695  SER759  ASP760  ASP761  ALA762  ILE779  LEU786  VAL792 
 PHE793  MET794  SER795  GLU796  ALA797  LYS798  CYS799  TRP800  GLU811  SER814 

> <Gold.Protein.RotatedAtoms>
  150.7489  133.9709  159.3545 H   0  0  0  0  0  0  0  0  0  0  0  0  # atno 6907 bound_to 6896
  151.7642  135.0800  160.0359 H   0  0  0  0  0  0  0  0  0  0  0  0  # atno 6908 bound_to 6896
  152.3382  133.6000  159.5894 H   0  0  0  0  0  0  0  0  0  0  0  0  # atno 6909 bound_to 6896
  145.5870  140.9437  143.1313 H   0  0  0  0  0  0  0  0  0  0  0  0  # atno 7974 bound_to 7965
  156.2406  140.1904  156.6999 H   0  0  0  0  0  0  0  0  0  0  0  0  # atno 8008 bound_to 7997
  154.6189  140.0611  156.9617 H   0  0  0  0  0  0  0  0  0  0  0  0  # atno 8009 bound_to 7997
  155.1893  140.3283  155.4364 H   0  0  0  0  0  0  0  0  0  0  0  0  # atno 8010 bound_to 7997
  140.7215  143.3667  151.1858 H   0  0  0  0  0  0  0  0  0  0  0  0  # atno 10167 bound_to 10162
  156.3630  130.7748  151.1918 H   0  0  0  0  0  0  0  0  0  0  0  0  # atno 10718 bound_to 10713
  154.7883  135.4783  153.9995 H   0  0  0  0  0  0  0  0  0  0  0  0  # atno 10763 bound_to 10752
  153.1593  135.6805  153.8774 H   0  0  0  0  0  0  0  0  0  0  0  0  # atno 10764 bound_to 10752
  153.8393  135.3181  155.3403 H   0  0  0  0  0  0  0  0  0  0  0  0  # atno 10765 bound_to 10752
  139.8893  134.9497  156.6361 H   0  0  0  0  0  0  0  0  0  0  0  0  # atno 11005 bound_to 11000
  144.7368  139.7562  143.7326 LP  0  0  0  0  0  0  0  0  0  0  0  0  # atno 17320 bound_to 7965
  146.1675  139.4812  142.9949 LP  0  0  0  0  0  0  0  0  0  0  0  0  # atno 17321 bound_to 7965
  139.7230  143.9194  152.2992 LP  0  0  0  0  0  0  0  0  0  0  0  0  # atno 17342 bound_to 10162
  139.8957  144.6940  150.8721 LP  0  0  0  0  0  0  0  0  0  0  0  0  # atno 17343 bound_to 10162
  157.7475  131.0394  150.4551 LP  0  0  0  0  0  0  0  0  0  0  0  0  # atno 17370 bound_to 10713
  156.4765  130.4064  149.6487 LP  0  0  0  0  0  0  0  0  0  0  0  0  # atno 17371 bound_to 10713
  140.7629  133.8802  155.8432 LP  0  0  0  0  0  0  0  0  0  0  0  0  # atno 17394 bound_to 11000
  140.9907  134.1283  157.4411 LP  0  0  0  0  0  0  0  0  0  0  0  0  # atno 17395 bound_to 11000

$$$$
