AV-unprocessed.smi:2569|AV-procd|sdf|10103|dock4
  -GOLD-   2272014113D 1   1.00000     0.00000
 Structure written by MMmdl.
 39 41  0  0  0  0  0  0  0  0  1 V2000
  153.8649  142.7978  163.6511 C   0  0  0  0  0  0  0  0  0  0  0  0
  153.2801  142.8586  162.2509 C   0  0  0  0  0  0  0  0  0  0  0  0
  152.3496  143.8753  161.9382 C   0  0  0  0  0  0  0  0  0  0  0  0
  151.7822  143.9657  160.6483 C   0  0  0  0  0  0  0  0  0  0  0  0
  150.8689  144.8673  160.1291 N   0  0  0  0  0  0  0  0  0  0  0  0
  150.7378  144.4275  158.8810 C   0  0  0  0  0  0  0  0  0  0  0  0
  151.4604  143.3468  158.5291 N   0  0  0  0  0  0  0  0  0  0  0  0
  151.4779  142.6941  157.2322 C   0  0  0  0  0  0  0  0  0  0  0  0
  150.1195  142.0553  156.8729 C   0  0  1  0  0  0  0  0  0  0  0  0
  149.8410  142.2491  155.5002 O   0  0  0  0  0  0  0  0  0  0  0  0
  150.0504  140.5430  157.1623 C   0  0  0  0  0  0  0  0  0  0  0  0
  151.1789  139.8123  156.6099 N   0  0  0  0  0  0  0  0  0  0  0  0
  152.3617  139.7484  157.2704 N   0  0  0  0  0  0  0  0  0  0  0  0
  153.1607  139.0273  156.5377 N   0  0  0  0  0  0  0  0  0  0  0  0
  152.5349  138.6013  155.3810 N   0  0  0  0  0  0  0  0  0  0  0  0
  151.3158  139.1158  155.4741 C   0  0  0  0  0  0  0  0  0  0  0  0
  150.2270  138.9478  154.4662 C   0  0  0  0  0  0  0  0  0  0  0  0
  152.1723  143.0021  159.6729 C   0  0  0  0  0  0  0  0  0  0  0  0
  153.0970  141.9861  159.9718 C   0  0  0  0  0  0  0  0  0  0  0  0
  153.6567  141.9119  161.2645 C   0  0  0  0  0  0  0  0  0  0  0  0
  154.6581  140.8137  161.5758 C   0  0  0  0  0  0  0  0  0  0  0  0
  153.4768  143.5992  164.2804 H   0  0  0  0  0  0  0  0  0  0  0  0
  154.9501  142.8958  163.6171 H   0  0  0  0  0  0  0  0  0  0  0  0
  153.6169  141.8490  164.1272 H   0  0  0  0  0  0  0  0  0  0  0  0
  152.0633  144.5973  162.6887 H   0  0  0  0  0  0  0  0  0  0  0  0
  150.0784  144.9193  158.1807 H   0  0  0  0  0  0  0  0  0  0  0  0
  151.7686  143.4252  156.4766 H   0  0  0  0  0  0  0  0  0  0  0  0
  152.2641  141.9386  157.2512 H   0  0  0  0  0  0  0  0  0  0  0  0
  149.3341  142.5599  157.4364 H   0  0  0  0  0  0  0  0  0  0  0  0
  149.3760  143.0659  155.4001 H   0  0  0  0  0  0  0  0  0  0  0  0
  150.0187  140.3631  158.2374 H   0  0  0  0  0  0  0  0  0  0  0  0
  149.1294  140.1239  156.7533 H   0  0  0  0  0  0  0  0  0  0  0  0
  150.6281  138.5353  153.5399 H   0  0  0  0  0  0  0  0  0  0  0  0
  149.7630  139.9087  154.2432 H   0  0  0  0  0  0  0  0  0  0  0  0
  149.4657  138.2674  154.8477 H   0  0  0  0  0  0  0  0  0  0  0  0
  153.3753  141.2723  159.2105 H   0  0  0  0  0  0  0  0  0  0  0  0
  154.8257  140.1713  160.7107 H   0  0  0  0  0  0  0  0  0  0  0  0
  154.2983  140.1879  162.3927 H   0  0  0  0  0  0  0  0  0  0  0  0
  155.6181  141.2430  161.8639 H   0  0  0  0  0  0  0  0  0  0  0  0
  1  2  1  0  0  0  0
  1 22  1  0  0  0  0
  1 23  1  0  0  0  0
  1 24  1  0  0  0  0
  2 20  1  0  0  0  0
  2  3  2  0  0  0  0
  3  4  1  0  0  0  0
  3 25  1  0  0  0  0
  4 18  2  0  0  0  0
  4  5  1  0  0  0  0
  5  6  2  0  0  0  0
  6  7  1  0  0  0  0
  6 26  1  0  0  0  0
  7  8  1  0  0  0  0
  7 18  1  0  0  0  0
  8  9  1  0  0  0  0
  8 27  1  0  0  0  0
  8 28  1  0  0  0  0
  9 10  1  0  0  0  0
  9 11  1  0  0  0  0
  9 29  1  0  0  0  0
 10 30  1  0  0  0  0
 11 12  1  0  0  0  0
 11 31  1  0  0  0  0
 11 32  1  0  0  0  0
 12 16  1  0  0  0  0
 12 13  1  0  0  0  0
 13 14  2  0  0  0  0
 14 15  1  0  0  0  0
 15 16  2  0  0  0  0
 16 17  1  0  0  0  0
 17 33  1  0  0  0  0
 17 34  1  0  0  0  0
 17 35  1  0  0  0  0
 18 19  1  0  0  0  0
 19 20  2  0  0  0  0
 19 36  1  0  0  0  0
 20 21  1  0  0  0  0
 21 37  1  0  0  0  0
 21 38  1  0  0  0  0
 21 39  1  0  0  0  0
M  END
> <s_m_source_file>
AV-unprocessed.smi

> <i_m_source_file_index>
2569

> <i_lp_mmshare_version>
43012

> <i_f3d_flags>
0

> <s_epik_input>
W0NIM11jKFtjSF0xKWMoW0NIM10pW2NIXWMoYzEyKW4oW2NIXW4yKVtDSDJdW0NASF0oW09IXSlbQ0gyXW4zbm5uYzNbQ0gzXQ==

> <s_epik_cmdline>
J2VwaWtfcHl0aG9uJywgJy1waCcsICc3LjAnLCAnLXRuJywgJzgnLCAnLW1hJywgJzIwMCcsICctbWV0YWxfYmluZGluZycsICctaW1hZScsICc8aW5maWxlLm1hZT4nLCAnLW9tYWUnLCAnPG91dGZpbGUubWFlPic=

> <r_lp_tautomer_probability>
1

> <r_epik_Ionization_Penalty>
0.0946713

> <r_epik_Ionization_Penalty_Charging>
0

> <r_epik_Ionization_Penalty_Neutral>
0.0946713

> <r_epik_State_Penalty>
0.0848712

> <r_epik_Charging_Adjusted_Penalty>
0.0848712

> <i_epik_Tot_Q>
0

> <i_epik_Tot_abs_Q>
0

> <r_epik_Metal_State_Penalty>
0.0730911

> <b_epik_Metal_Only>
0

> <s_lp_Force_Field>
OPLS_2005

> <r_lp_Energy>
9.51249

> <b_lp_Chiralities_Consistent>
1

> <s_lp_Variant>
AV-unprocessed.smi:2569-2

> <Gold.Version>
5.8.1

> <Gold.Id.Protein>
6NUR|6NUR_protein|mol2

> <Gold.PLP.Fitness>
56.2363

> <Gold.PLP.PLP>
-48.9446

> <Gold.PLP.part.hbond>
-2.7119

> <Gold.PLP.part.metal>
0.0000

> <Gold.PLP.part.buried>
-5.1757

> <Gold.PLP.part.nonpolar>
-42.5546

> <Gold.PLP.part.repulsive>
0.1668

> <Gold.PLP.ligand.clash>
0.0000

> <Gold.PLP.ligand.torsion>
0.9514

> <Gold.PLP.Chemscore.Hbond>
2.0000

> <Gold.PLP.Chemscore.CHOScore>
1.0633

> <Gold.PLP.Chemscore.Metal>
0.0000

> <Gold.Chemscore.Hbonds>
donor molecule, donor type, donor heavy atom, donor atom, acceptor molecule, acceptor atom, score
      L1  H    10    30       P1  8028  1.00
      P1  H  7997  8009       L1    14  0.90
      L1  C     6    26       P1  8028  0.18
      L1  C     6    26       P1  8029  0.77

> <Gold.PLP.Chemscore.Internal.Correction>
0.0047

> <Gold.Rescore>
     Score         DG    S(hbond)    S(metal)    S(lipo)     H(rot)  DE(clash)    DE(int)     intcor
     16.48     -17.45       1.36        0.00     118.86       2.53       0.08       0.89       ----

> <Gold.Chemscore.Fitness>
16.4780

> <Gold.Chemscore.DG>
-17.4460

> <Gold.Chemscore.ZeroCoef>
-5.4800

> <Gold.Chemscore.Hbond>
1.3560

> <Gold.Chemscore.Metal>
0.0000

> <Gold.Chemscore.Lipo>
118.8562

> <Gold.Chemscore.Internal_Hbond>
0.0000

> <Gold.Chemscore.DEClash>
0.0777

> <Gold.Chemscore.DEInternal>
0.8903

> <Gold.Chemscore.Rot>
2.5270

> <Gold.Chemscore.Internal.Correction>
   9.000000E+99

> <Gold.Chemscore.Hbonds>
donor molecule, donor type, donor heavy atom, donor atom, acceptor molecule, acceptor atom, score
      L1  H    10    30       P1  8028  1.00
      P1  H  7997  8009       L1    14  0.17

> <Gold.Chemscore.Hbond.Weighted>
-4.5290

> <Gold.Chemscore.Metal.Weighted>
-0.0000

> <Gold.Chemscore.Lipo.Weighted>
-13.9062

> <Gold.Chemscore.Internal_Hbond.Weighted>
0.0000

> <Gold.Chemscore.DEClash.Weighted>
0.0777

> <Gold.Chemscore.DEInternal.Weighted>
0.8903

> <Gold.Chemscore.Rot.Weighted>
6.4691

> <Gold.Chemscore.Internal.Correction.Weighted>
   9.000000E+99

> <Gold.Protein.RotatedTorsions>
[ 6907 6896 6895 6894 ] final  -39.88 input  -60.11 | X-H torsion
[ 7974 7965 7964 7962 ] final   94.66 input  175.53 | X-H torsion
[ 8008 7997 7996 7995 ] final -164.77 input   59.86 | X-H torsion
[ 10167 10162 10161 10158 ] final  -88.70 input  -65.29 | X-H torsion
[ 10718 10713 10712 10709 ] final -136.80 input   66.30 | X-H torsion
[ 10763 10752 10751 10750 ] final -129.44 input  -60.55 | X-H torsion
[ 11005 11000 10999 10996 ] final -174.27 input  -57.11 | X-H torsion

> <Gold.Protein.ActiveResidues>
 VAL166  LYS551  ARG553  GLY616  TRP617  ASP618  TYR619  PRO620  LYS621  CYS622 
 ASP623  PHE694  ASN695  SER759  ASP760  ASP761  ALA762  ILE779  LEU786  VAL792 
 PHE793  MET794  SER795  GLU796  ALA797  LYS798  CYS799  TRP800  GLU811  SER814 

> <Gold.Protein.RotatedAtoms>
  150.9851  134.9198  159.7866 H   0  0  0  0  0  0  0  0  0  0  0  0  # atno 6907 bound_to 6896
  152.5234  134.3358  159.9209 H   0  0  0  0  0  0  0  0  0  0  0  0  # atno 6908 bound_to 6896
  151.3364  133.3938  159.2701 H   0  0  0  0  0  0  0  0  0  0  0  0  # atno 6909 bound_to 6896
  145.4626  139.2286  143.2979 H   0  0  0  0  0  0  0  0  0  0  0  0  # atno 7974 bound_to 7965
  155.8404  140.0947  157.1738 H   0  0  0  0  0  0  0  0  0  0  0  0  # atno 8008 bound_to 7997
  154.3982  140.1402  156.3783 H   0  0  0  0  0  0  0  0  0  0  0  0  # atno 8009 bound_to 7997
  155.8071  140.3451  155.5438 H   0  0  0  0  0  0  0  0  0  0  0  0  # atno 8010 bound_to 7997
  140.3721  143.2789  151.9487 H   0  0  0  0  0  0  0  0  0  0  0  0  # atno 10167 bound_to 10162
  156.2810  130.7321  151.1318 H   0  0  0  0  0  0  0  0  0  0  0  0  # atno 10718 bound_to 10713
  154.8757  135.3895  154.3920 H   0  0  0  0  0  0  0  0  0  0  0  0  # atno 10763 bound_to 10752
  153.4655  135.7029  153.6030 H   0  0  0  0  0  0  0  0  0  0  0  0  # atno 10764 bound_to 10752
  153.4510  135.3834  155.2252 H   0  0  0  0  0  0  0  0  0  0  0  0  # atno 10765 bound_to 10752
  140.4764  134.6117  157.4902 H   0  0  0  0  0  0  0  0  0  0  0  0  # atno 11005 bound_to 11000
  146.2442  140.5397  142.8921 LP  0  0  0  0  0  0  0  0  0  0  0  0  # atno 17320 bound_to 7965
  144.7993  140.6183  143.6489 LP  0  0  0  0  0  0  0  0  0  0  0  0  # atno 17321 bound_to 7965
  139.4803  144.5897  151.7793 LP  0  0  0  0  0  0  0  0  0  0  0  0  # atno 17342 bound_to 10162
  140.5022  144.1151  150.5974 LP  0  0  0  0  0  0  0  0  0  0  0  0  # atno 17343 bound_to 10162
  157.7314  131.0608  150.5678 LP  0  0  0  0  0  0  0  0  0  0  0  0  # atno 17370 bound_to 10713
  156.5784  130.4298  149.5988 LP  0  0  0  0  0  0  0  0  0  0  0  0  # atno 17371 bound_to 10713
  139.9853  134.7071  155.9784 LP  0  0  0  0  0  0  0  0  0  0  0  0  # atno 17394 bound_to 11000
  141.1552  133.6543  156.4140 LP  0  0  0  0  0  0  0  0  0  0  0  0  # atno 17395 bound_to 11000

$$$$
