AV-unprocessed.smi:2044|AV-procd|sdf|8299|dock10
  -GOLD-   2272010563D 1   1.00000     0.00000
 Structure written by MMmdl.
 39 40  0  0  0  0  0  0  0  0  1 V2000
  145.3743  131.0926  150.7567 C   0  0  0  0  0  0  0  0  0  0  0  0
  145.4382  132.5606  151.0071 C   0  0  0  0  0  0  0  0  0  0  0  0
  146.3395  133.3547  151.6590 C   0  0  0  0  0  0  0  0  0  0  0  0
  145.7834  134.6539  151.5159 C   0  0  0  0  0  0  0  0  0  0  0  0
  146.4313  135.7891  152.0673 N   0  0  0  0  0  0  0  0  0  0  0  0
  145.8617  136.8354  152.6898 C   0  0  0  0  0  0  0  0  0  0  0  0
  144.6537  136.9732  152.8860 O   0  0  0  0  0  0  0  0  0  0  0  0
  146.7811  137.7295  153.0816 N   0  0  0  0  0  0  0  0  0  0  0  0
  146.4918  138.9746  153.7887 C   0  0  0  0  0  0  0  0  0  0  0  0
  147.5715  140.0752  153.5745 C   0  0  1  0  0  0  0  0  0  0  0  0
  146.8820  141.4631  153.6006 C   0  0  0  0  0  0  0  0  0  0  0  0
  148.7035  139.9805  154.5266 N   0  0  0  0  0  0  0  0  0  0  0  0
  149.3848  141.2666  154.7169 C   0  0  0  0  0  0  0  0  0  0  0  0
  150.5835  141.1750  155.6774 C   0  0  0  0  0  0  0  0  0  0  0  0
  151.5034  140.2016  155.2040 O   0  0  0  0  0  0  0  0  0  0  0  0
  150.9049  138.9193  155.0803 C   0  0  0  0  0  0  0  0  0  0  0  0
  149.7095  138.9943  154.1147 C   0  0  0  0  0  0  0  0  0  0  0  0
  144.6464  134.6528  150.8370 N   0  0  0  0  0  0  0  0  0  0  0  0
  144.4198  133.3116  150.5071 O   0  0  0  0  0  0  0  0  0  0  0  0
  146.0200  130.5512  151.4484 H   0  0  0  0  0  0  0  0  0  0  0  0
  145.6958  130.8600  149.7414 H   0  0  0  0  0  0  0  0  0  0  0  0
  144.3574  130.7204  150.8835 H   0  0  0  0  0  0  0  0  0  0  0  0
  147.2483  133.0512  152.1572 H   0  0  0  0  0  0  0  0  0  0  0  0
  147.4362  135.8066  151.9765 H   0  0  0  0  0  0  0  0  0  0  0  0
  147.7513  137.5359  152.8816 H   0  0  0  0  0  0  0  0  0  0  0  0
  145.5208  139.3380  153.4514 H   0  0  0  0  0  0  0  0  0  0  0  0
  146.3734  138.7152  154.8397 H   0  0  0  0  0  0  0  0  0  0  0  0
  147.9720  139.9399  152.5686 H   0  0  0  0  0  0  0  0  0  0  0  0
  146.0176  141.5111  152.9394 H   0  0  0  0  0  0  0  0  0  0  0  0
  147.5426  142.2588  153.2590 H   0  0  0  0  0  0  0  0  0  0  0  0
  146.5405  141.7152  154.6053 H   0  0  0  0  0  0  0  0  0  0  0  0
  149.7227  141.6514  153.7534 H   0  0  0  0  0  0  0  0  0  0  0  0
  148.7013  142.0055  155.1313 H   0  0  0  0  0  0  0  0  0  0  0  0
  151.0898  142.1381  155.7429 H   0  0  0  0  0  0  0  0  0  0  0  0
  150.2534  140.9173  156.6849 H   0  0  0  0  0  0  0  0  0  0  0  0
  151.6483  138.2150  154.7068 H   0  0  0  0  0  0  0  0  0  0  0  0
  150.5879  138.5598  156.0607 H   0  0  0  0  0  0  0  0  0  0  0  0
  149.2781  137.9965  154.0725 H   0  0  0  0  0  0  0  0  0  0  0  0
  150.0686  139.2288  153.1114 H   0  0  0  0  0  0  0  0  0  0  0  0
  1  2  1  0  0  0  0
  1 20  1  0  0  0  0
  1 21  1  0  0  0  0
  1 22  1  0  0  0  0
  2 19  1  0  0  0  0
  2  3  2  0  0  0  0
  3  4  1  0  0  0  0
  3 23  1  0  0  0  0
  4  5  1  0  0  0  0
  4 18  2  0  0  0  0
  5  6  1  0  0  0  0
  5 24  1  0  0  0  0
  6  7  2  0  0  0  0
  6  8  1  0  0  0  0
  8  9  1  0  0  0  0
  8 25  1  0  0  0  0
  9 10  1  0  0  0  0
  9 26  1  0  0  0  0
  9 27  1  0  0  0  0
 10 11  1  0  0  0  0
 10 12  1  0  0  0  0
 10 28  1  0  0  0  0
 11 29  1  0  0  0  0
 11 30  1  0  0  0  0
 11 31  1  0  0  0  0
 12 17  1  0  0  0  0
 12 13  1  0  0  0  0
 13 14  1  0  0  0  0
 13 32  1  0  0  0  0
 13 33  1  0  0  0  0
 14 15  1  0  0  0  0
 14 34  1  0  0  0  0
 14 35  1  0  0  0  0
 15 16  1  0  0  0  0
 16 17  1  0  0  0  0
 16 36  1  0  0  0  0
 16 37  1  0  0  0  0
 17 38  1  0  0  0  0
 17 39  1  0  0  0  0
 18 19  1  0  0  0  0
M  END
> <s_m_source_file>
AV-unprocessed.smi

> <i_m_source_file_index>
2044

> <i_lp_mmshare_version>
43012

> <i_f3d_flags>
0

> <s_epik_input>
W0NIM11jMVtjSF1jKG5vMSlbTkhdQyg9TylbTkhdW0NIMl1bQ0BIXShbQ0gzXSlOMltDSDJdW0NIMl1PW0NIMl1bQ0gyXTI=

> <s_epik_cmdline>
J2VwaWtfcHl0aG9uJywgJy1waCcsICc3LjAnLCAnLXRuJywgJzgnLCAnLW1hJywgJzIwMCcsICctbWV0YWxfYmluZGluZycsICctaW1hZScsICc8aW5maWxlLm1hZT4nLCAnLW9tYWUnLCAnPG91dGZpbGUubWFlPic=

> <r_epik_Ionization_Penalty>
0.214073

> <r_epik_Ionization_Penalty_Charging>
0

> <r_epik_Ionization_Penalty_Neutral>
0.214073

> <r_epik_State_Penalty>
0.204211

> <r_epik_Charging_Adjusted_Penalty>
0.204211

> <i_epik_Tot_Q>
0

> <i_epik_Tot_abs_Q>
0

> <r_epik_Metal_State_Penalty>
0.217151

> <b_epik_Metal_Only>
0

> <s_lp_Force_Field>
OPLS_2005

> <r_lp_Energy>
26.3951

> <b_lp_Chiralities_Consistent>
1

> <s_lp_Variant>
AV-unprocessed.smi:2044-2

> <Gold.Version>
5.8.1

> <Gold.Id.Protein>
6NUR|6NUR_protein|mol2

> <Gold.PLP.Fitness>
36.2889

> <Gold.PLP.PLP>
-31.1997

> <Gold.PLP.part.hbond>
-3.0000

> <Gold.PLP.part.metal>
0.0000

> <Gold.PLP.part.buried>
-4.1617

> <Gold.PLP.part.nonpolar>
-23.9658

> <Gold.PLP.part.repulsive>
0.7186

> <Gold.PLP.ligand.clash>
0.0903

> <Gold.PLP.ligand.torsion>
1.4293

> <Gold.PLP.Chemscore.Hbond>
2.6700

> <Gold.PLP.Chemscore.CHOScore>
0.0000

> <Gold.PLP.Chemscore.Metal>
0.0000

> <Gold.Chemscore.Hbonds>
donor molecule, donor type, donor heavy atom, donor atom, acceptor molecule, acceptor atom, score
      L1  H     5    24       P1  7948  1.00
      L1  H     8    25       P1  7948  0.83
      P1  H  7989  7998       L1    15  0.79

> <Gold.PLP.Chemscore.Internal.Correction>
0.0282

> <Gold.Rescore>
     Score         DG    S(hbond)    S(metal)    S(lipo)     H(rot)  DE(clash)    DE(int)     intcor
     15.08     -16.64       2.03        0.00      71.92       1.58       0.01       1.56       ----

> <Gold.Chemscore.Fitness>
15.0769

> <Gold.Chemscore.DG>
-16.6439

> <Gold.Chemscore.ZeroCoef>
-5.4800

> <Gold.Chemscore.Hbond>
2.0306

> <Gold.Chemscore.Metal>
0.0000

> <Gold.Chemscore.Lipo>
71.9179

> <Gold.Chemscore.Internal_Hbond>
0.0000

> <Gold.Chemscore.DEClash>
0.0114

> <Gold.Chemscore.DEInternal>
1.5556

> <Gold.Chemscore.Rot>
1.5753

> <Gold.Chemscore.Internal.Correction>
   9.000000E+99

> <Gold.Chemscore.Hbonds>
donor molecule, donor type, donor heavy atom, donor atom, acceptor molecule, acceptor atom, score
      L1  H     5    24       P1  7948  0.95
      L1  H     8    25       P1  7948  0.77
      P1  H  7989  7998       L1    15  0.07

> <Gold.Chemscore.Hbond.Weighted>
-6.7824

> <Gold.Chemscore.Metal.Weighted>
-0.0000

> <Gold.Chemscore.Lipo.Weighted>
-8.4144

> <Gold.Chemscore.Internal_Hbond.Weighted>
0.0000

> <Gold.Chemscore.DEClash.Weighted>
0.0114

> <Gold.Chemscore.DEInternal.Weighted>
1.5556

> <Gold.Chemscore.Rot.Weighted>
4.0329

> <Gold.Chemscore.Internal.Correction.Weighted>
   9.000000E+99

> <Gold.Protein.RotatedTorsions>
[ 6907 6896 6895 6894 ] final  -85.46 input  -60.11 | X-H torsion
[ 7974 7965 7964 7962 ] final  -80.78 input  175.53 | X-H torsion
[ 8008 7997 7996 7995 ] final  156.83 input   59.86 | X-H torsion
[ 10167 10162 10161 10158 ] final   32.30 input  -65.29 | X-H torsion
[ 10718 10713 10712 10709 ] final   52.93 input   66.30 | X-H torsion
[ 10763 10752 10751 10750 ] final   63.77 input  -60.55 | X-H torsion
[ 11005 11000 10999 10996 ] final  -57.71 input  -57.11 | X-H torsion

> <Gold.Protein.ActiveResidues>
 VAL166  LYS551  ARG553  GLY616  TRP617  ASP618  TYR619  PRO620  LYS621  CYS622 
 ASP623  PHE694  ASN695  SER759  ASP760  ASP761  ALA762  ILE779  LEU786  VAL792 
 PHE793  MET794  SER795  GLU796  ALA797  LYS798  CYS799  TRP800  GLU811  SER814 

> <Gold.Protein.RotatedAtoms>
  150.6870  134.3201  159.4782 H   0  0  0  0  0  0  0  0  0  0  0  0  # atno 6907 bound_to 6896
  152.1077  134.9294  160.0577 H   0  0  0  0  0  0  0  0  0  0  0  0  # atno 6908 bound_to 6896
  152.0549  133.4001  159.4429 H   0  0  0  0  0  0  0  0  0  0  0  0  # atno 6909 bound_to 6896
  145.5553  140.9490  143.1476 H   0  0  0  0  0  0  0  0  0  0  0  0  # atno 7974 bound_to 7965
  156.2400  140.1902  156.7015 H   0  0  0  0  0  0  0  0  0  0  0  0  # atno 8008 bound_to 7997
  154.6178  140.0613  156.9604 H   0  0  0  0  0  0  0  0  0  0  0  0  # atno 8009 bound_to 7997
  155.1910  140.3284  155.4361 H   0  0  0  0  0  0  0  0  0  0  0  0  # atno 8010 bound_to 7997
  140.4511  144.1047  150.6192 H   0  0  0  0  0  0  0  0  0  0  0  0  # atno 10167 bound_to 10162
  157.5120  130.8507  149.8447 H   0  0  0  0  0  0  0  0  0  0  0  0  # atno 10718 bound_to 10713
  153.0030  135.5417  154.6404 H   0  0  0  0  0  0  0  0  0  0  0  0  # atno 10763 bound_to 10752
  154.5660  135.2838  155.0875 H   0  0  0  0  0  0  0  0  0  0  0  0  # atno 10764 bound_to 10752
  154.2059  135.6476  153.5153 H   0  0  0  0  0  0  0  0  0  0  0  0  # atno 10765 bound_to 10752
  141.1176  133.6611  156.4811 H   0  0  0  0  0  0  0  0  0  0  0  0  # atno 11005 bound_to 11000
  144.7509  139.7197  143.7273 LP  0  0  0  0  0  0  0  0  0  0  0  0  # atno 17320 bound_to 7965
  146.1888  139.5118  142.9818 LP  0  0  0  0  0  0  0  0  0  0  0  0  # atno 17321 bound_to 7965
  140.4206  143.2613  151.9719 LP  0  0  0  0  0  0  0  0  0  0  0  0  # atno 17342 bound_to 10162
  139.4797  144.5834  151.7895 LP  0  0  0  0  0  0  0  0  0  0  0  0  # atno 17343 bound_to 10162
  156.0295  130.3769  150.1727 LP  0  0  0  0  0  0  0  0  0  0  0  0  # atno 17370 bound_to 10713
  156.9916  130.9895  151.3413 LP  0  0  0  0  0  0  0  0  0  0  0  0  # atno 17371 bound_to 10713
  140.4600  134.6850  157.5081 LP  0  0  0  0  0  0  0  0  0  0  0  0  # atno 17394 bound_to 11000
  140.0110  134.6691  155.9381 LP  0  0  0  0  0  0  0  0  0  0  0  0  # atno 17395 bound_to 11000

$$$$
