AV-unprocessed.smi:2130|AV-procd|sdf|8685|dock4
  -GOLD-   2272011433D 1   1.00000     0.00000
 Structure written by MMmdl.
 32 33  0  0  0  0  0  0  0  0  1 V2000
  148.5622  140.8470  153.9632 C   0  0  0  0  0  0  0  0  0  0  0  0
  149.6556  139.9591  154.5316 C   0  0  0  0  0  0  0  0  0  0  0  0
  149.8304  138.6637  154.2497 C   0  0  0  0  0  0  0  0  0  0  0  0
  151.2167  137.9762  155.0602 S   0  0  0  0  0  0  0  0  0  0  0  0
  151.5707  139.5679  155.8226 C   0  0  0  0  0  0  0  0  0  0  0  0
  152.5225  139.7477  156.5808 O   0  0  0  0  0  0  0  0  0  0  0  0
  150.6097  140.4910  155.4107 N   0  0  0  0  0  0  0  0  0  0  0  0
  150.6063  141.8860  155.8708 C   0  0  0  0  0  0  0  0  0  0  0  0
  150.6650  142.0130  157.3986 C   0  0  0  0  0  0  0  0  0  0  0  0
  149.7967  141.5038  158.1087 O   0  0  0  0  0  0  0  0  0  0  0  0
  151.7160  142.6876  157.8900 N   0  0  0  0  0  0  0  0  0  0  0  0
  151.9886  142.9256  159.3041 C   0  0  2  0  0  0  0  0  0  0  0  0
  151.9952  144.4366  159.5884 C   0  0  0  0  0  0  0  0  0  0  0  0
  153.2879  142.2859  159.7560 C   0  0  0  0  0  0  0  0  0  0  0  0
  153.3404  140.8351  160.1707 C   0  0  0  0  0  0  0  0  0  0  0  0
  153.5186  141.9250  161.2040 C   0  0  0  0  0  0  0  0  0  0  0  0
  148.1127  140.3812  153.0859 H   0  0  0  0  0  0  0  0  0  0  0  0
  148.9518  141.8169  153.6541 H   0  0  0  0  0  0  0  0  0  0  0  0
  147.7770  141.0025  154.7033 H   0  0  0  0  0  0  0  0  0  0  0  0
  149.2195  138.0634  153.5916 H   0  0  0  0  0  0  0  0  0  0  0  0
  151.4281  142.4517  155.4331 H   0  0  0  0  0  0  0  0  0  0  0  0
  149.6991  142.3753  155.5116 H   0  0  0  0  0  0  0  0  0  0  0  0
  152.3815  143.0672  157.2321 H   0  0  0  0  0  0  0  0  0  0  0  0
  151.1852  142.4763  159.8916 H   0  0  0  0  0  0  0  0  0  0  0  0
  152.1594  144.6344  160.6480 H   0  0  0  0  0  0  0  0  0  0  0  0
  151.0454  144.8974  159.3151 H   0  0  0  0  0  0  0  0  0  0  0  0
  152.7835  144.9427  159.0302 H   0  0  0  0  0  0  0  0  0  0  0  0
  154.1619  142.6570  159.2231 H   0  0  0  0  0  0  0  0  0  0  0  0
  152.4062  140.2771  160.1862 H   0  0  0  0  0  0  0  0  0  0  0  0
  154.2208  140.2632  159.8842 H   0  0  0  0  0  0  0  0  0  0  0  0
  154.5176  142.0791  161.6065 H   0  0  0  0  0  0  0  0  0  0  0  0
  152.7027  142.0893  161.9050 H   0  0  0  0  0  0  0  0  0  0  0  0
  1  2  1  0  0  0  0
  1 17  1  0  0  0  0
  1 18  1  0  0  0  0
  1 19  1  0  0  0  0
  2  7  1  0  0  0  0
  2  3  2  0  0  0  0
  3  4  1  0  0  0  0
  3 20  1  0  0  0  0
  4  5  1  0  0  0  0
  5  6  2  0  0  0  0
  5  7  1  0  0  0  0
  7  8  1  0  0  0  0
  8  9  1  0  0  0  0
  8 21  1  0  0  0  0
  8 22  1  0  0  0  0
  9 10  2  0  0  0  0
  9 11  1  0  0  0  0
 11 12  1  0  0  0  0
 11 23  1  0  0  0  0
 12 13  1  0  0  0  0
 12 14  1  0  0  0  0
 12 24  1  0  0  0  0
 13 25  1  0  0  0  0
 13 26  1  0  0  0  0
 13 27  1  0  0  0  0
 14 16  1  0  0  0  0
 14 15  1  0  0  0  0
 14 28  1  0  0  0  0
 15 16  1  0  0  0  0
 15 29  1  0  0  0  0
 15 30  1  0  0  0  0
 16 31  1  0  0  0  0
 16 32  1  0  0  0  0
M  END
> <s_m_source_file>
AV-unprocessed.smi

> <i_m_source_file_index>
2130

> <i_lp_mmshare_version>
43012

> <i_f3d_flags>
0

> <s_epik_input>
W0NIM11jMVtjSF1zYyg9TyluMVtDSDJdQyg9TylbTkhdW0NASF0oW0NIM10pW0NIXTJbQ0gyXVtDSDJdMg==

> <s_epik_cmdline>
J2VwaWtfcHl0aG9uJywgJy1waCcsICc3LjAnLCAnLXRuJywgJzgnLCAnLW1hJywgJzIwMCcsICctbWV0YWxfYmluZGluZycsICctaW1hZScsICc8aW5maWxlLm1hZT4nLCAnLW9tYWUnLCAnPG91dGZpbGUubWFlPic=

> <r_lp_tautomer_probability>
1

> <r_epik_Ionization_Penalty>
1.32882e-06

> <r_epik_Ionization_Penalty_Charging>
1.22222e-06

> <r_epik_Ionization_Penalty_Neutral>
1.066e-07

> <r_epik_State_Penalty>
-0

> <r_epik_Charging_Adjusted_Penalty>
1.22222e-06

> <i_epik_Tot_Q>
0

> <i_epik_Tot_abs_Q>
0

> <r_epik_Metal_State_Penalty>
-0

> <b_epik_Metal_Only>
0

> <s_lp_Force_Field>
OPLS_2005

> <r_lp_Energy>
16.6118

> <b_lp_Chiralities_Consistent>
1

> <s_lp_Variant>
AV-unprocessed.smi:2130-1

> <Gold.Version>
5.8.1

> <Gold.Id.Protein>
6NUR|6NUR_protein|mol2

> <Gold.PLP.Fitness>
45.5490

> <Gold.PLP.PLP>
-39.6509

> <Gold.PLP.part.hbond>
-1.0000

> <Gold.PLP.part.metal>
0.0000

> <Gold.PLP.part.buried>
-1.9930

> <Gold.PLP.part.nonpolar>
-36.3700

> <Gold.PLP.part.repulsive>
0.0750

> <Gold.PLP.ligand.clash>
0.0000

> <Gold.PLP.ligand.torsion>
0.5890

> <Gold.PLP.Chemscore.Hbond>
1.0000

> <Gold.PLP.Chemscore.CHOScore>
1.0000

> <Gold.PLP.Chemscore.Metal>
0.0000

> <Gold.Chemscore.Hbonds>
donor molecule, donor type, donor heavy atom, donor atom, acceptor molecule, acceptor atom, score
      P1  H  7997  8009       L1     6  1.00
      L1  C     3    20       P1  7948  1.00

> <Gold.PLP.Chemscore.Internal.Correction>
1.0761

> <Gold.Rescore>
     Score         DG    S(hbond)    S(metal)    S(lipo)     H(rot)  DE(clash)    DE(int)     intcor
     14.63     -15.19       1.00        0.00      89.31       1.59       0.01       0.54       ----

> <Gold.Chemscore.Fitness>
14.6293

> <Gold.Chemscore.DG>
-15.1873

> <Gold.Chemscore.ZeroCoef>
-5.4800

> <Gold.Chemscore.Hbond>
0.9986

> <Gold.Chemscore.Metal>
0.0000

> <Gold.Chemscore.Lipo>
89.3090

> <Gold.Chemscore.Internal_Hbond>
0.0000

> <Gold.Chemscore.DEClash>
0.0149

> <Gold.Chemscore.DEInternal>
0.5431

> <Gold.Chemscore.Rot>
1.5926

> <Gold.Chemscore.Internal.Correction>
   9.000000E+99

> <Gold.Chemscore.Hbonds>
donor molecule, donor type, donor heavy atom, donor atom, acceptor molecule, acceptor atom, score
      P1  H  7997  8009       L1     6  0.96

> <Gold.Chemscore.Hbond.Weighted>
-3.3352

> <Gold.Chemscore.Metal.Weighted>
-0.0000

> <Gold.Chemscore.Lipo.Weighted>
-10.4492

> <Gold.Chemscore.Internal_Hbond.Weighted>
0.0000

> <Gold.Chemscore.DEClash.Weighted>
0.0149

> <Gold.Chemscore.DEInternal.Weighted>
0.5431

> <Gold.Chemscore.Rot.Weighted>
4.0771

> <Gold.Chemscore.Internal.Correction.Weighted>
   9.000000E+99

> <Gold.Protein.RotatedTorsions>
[ 6907 6896 6895 6894 ] final -139.19 input  -60.11 | X-H torsion
[ 7974 7965 7964 7962 ] final  163.61 input  175.53 | X-H torsion
[ 8008 7997 7996 7995 ] final -151.53 input   59.86 | X-H torsion
[ 10167 10162 10161 10158 ] final   83.21 input  -65.29 | X-H torsion
[ 10718 10713 10712 10709 ] final -106.12 input   66.30 | X-H torsion
[ 10763 10752 10751 10750 ] final  153.74 input  -60.55 | X-H torsion
[ 11005 11000 10999 10996 ] final   62.74 input  -57.11 | X-H torsion

> <Gold.Protein.ActiveResidues>
 VAL166  LYS551  ARG553  GLY616  TRP617  ASP618  TYR619  PRO620  LYS621  CYS622 
 ASP623  PHE694  ASN695  SER759  ASP760  ASP761  ALA762  ILE779  LEU786  VAL792 
 PHE793  MET794  SER795  GLU796  ALA797  LYS798  CYS799  TRP800  GLU811  SER814 

> <Gold.Protein.RotatedAtoms>
  151.0447  133.5676  159.2647 H   0  0  0  0  0  0  0  0  0  0  0  0  # atno 6907 bound_to 6896
  151.2709  135.0683  159.9143 H   0  0  0  0  0  0  0  0  0  0  0  0  # atno 6908 bound_to 6896
  152.5371  134.0177  159.8021 H   0  0  0  0  0  0  0  0  0  0  0  0  # atno 6909 bound_to 6896
  144.7582  139.8208  143.6342 H   0  0  0  0  0  0  0  0  0  0  0  0  # atno 7974 bound_to 7965
  155.6409  140.0701  157.2619 H   0  0  0  0  0  0  0  0  0  0  0  0  # atno 8008 bound_to 7997
  154.4184  140.1750  156.1621 H   0  0  0  0  0  0  0  0  0  0  0  0  # atno 8009 bound_to 7997
  155.9856  140.3350  155.6708 H   0  0  0  0  0  0  0  0  0  0  0  0  # atno 8010 bound_to 7997
  139.9207  144.6214  150.8443 H   0  0  0  0  0  0  0  0  0  0  0  0  # atno 10167 bound_to 10162
  156.0376  130.5597  150.7636 H   0  0  0  0  0  0  0  0  0  0  0  0  # atno 10718 bound_to 10713
  154.1411  135.2821  155.3160 H   0  0  0  0  0  0  0  0  0  0  0  0  # atno 10763 bound_to 10752
  154.6286  135.5443  153.7658 H   0  0  0  0  0  0  0  0  0  0  0  0  # atno 10764 bound_to 10752
  153.0250  135.6457  154.1558 H   0  0  0  0  0  0  0  0  0  0  0  0  # atno 10765 bound_to 10752
  140.0072  134.6352  155.9837 H   0  0  0  0  0  0  0  0  0  0  0  0  # atno 11005 bound_to 11000
  146.1616  139.4732  142.9985 LP  0  0  0  0  0  0  0  0  0  0  0  0  # atno 17320 bound_to 7965
  145.6708  141.0217  143.1658 LP  0  0  0  0  0  0  0  0  0  0  0  0  # atno 17321 bound_to 7965
  140.7663  143.3299  151.2433 LP  0  0  0  0  0  0  0  0  0  0  0  0  # atno 17342 bound_to 10162
  139.6864  143.9767  152.2836 LP  0  0  0  0  0  0  0  0  0  0  0  0  # atno 17343 bound_to 10162
  157.5149  131.0928  151.0152 LP  0  0  0  0  0  0  0  0  0  0  0  0  # atno 17370 bound_to 10713
  157.0497  130.5782  149.5368 LP  0  0  0  0  0  0  0  0  0  0  0  0  # atno 17371 bound_to 10713
  141.1685  133.6537  156.4566 LP  0  0  0  0  0  0  0  0  0  0  0  0  # atno 17394 bound_to 11000
  140.4620  134.6832  157.5090 LP  0  0  0  0  0  0  0  0  0  0  0  0  # atno 17395 bound_to 11000

$$$$
