AV-unprocessed.smi:1795|AV-procd|sdf|7249|dock8
  -GOLD-   22720 8503D 1   1.00000     0.00000
 Structure written by MMmdl.
 48 49  0  0  0  0  0  0  0  0  2 V2000
  148.9363  140.8704  154.6774 C   0  0  0  0  0  0  0  0  0  0  0  0
  149.5114  139.5052  154.2835 C   0  0  2  0  0  0  0  0  0  0  0  0
  148.6199  138.3416  154.7535 C   0  0  0  0  0  0  0  0  0  0  0  0
  149.2285  137.0276  154.4112 N   0  3  2  0  0  0  0  0  0  0  0  0
  148.3297  135.8740  154.7455 C   0  0  1  0  0  0  0  0  0  0  0  0
  149.1808  134.6159  155.0333 C   0  0  0  0  0  0  0  0  0  0  0  0
  147.3506  136.1611  155.9184 C   0  0  0  0  0  0  0  0  0  0  0  0
  147.9920  136.0647  157.2272 N   0  0  0  0  0  0  0  0  0  0  0  0
  147.4585  135.4890  158.3158 C   0  0  0  0  0  0  0  0  0  0  0  0
  146.3558  134.9407  158.3189 O   0  0  0  0  0  0  0  0  0  0  0  0
  148.3077  135.5418  159.5930 C   0  0  0  0  0  0  0  0  0  0  0  0
  147.6139  134.9792  160.7635 N   0  0  0  0  0  0  0  0  0  0  0  0
  147.2811  133.6105  160.7188 C   0  0  0  0  0  0  0  0  0  0  0  0
  146.6476  133.0006  161.7331 C   0  0  0  0  0  0  0  0  0  0  0  0
  146.3059  133.7858  162.8956 C   0  0  0  0  0  0  0  0  0  0  0  0
  146.6164  135.0964  162.9476 C   0  0  0  0  0  0  0  0  0  0  0  0
  147.3066  135.7679  161.8401 C   0  0  0  0  0  0  0  0  0  0  0  0
  147.5907  136.9660  161.8769 O   0  0  0  0  0  0  0  0  0  0  0  0
  150.6084  136.9644  154.9665 C   0  0  0  0  0  0  0  0  0  0  0  0
  151.4470  138.1728  154.5064 C   0  0  2  0  0  0  0  0  0  0  0  0
  152.8467  138.1758  155.1311 C   0  0  0  0  0  0  0  0  0  0  0  0
  150.7913  139.3747  154.8878 O   0  0  0  0  0  0  0  0  0  0  0  0
  147.9500  141.0229  154.2384 H   0  0  0  0  0  0  0  0  0  0  0  0
  149.5810  141.6793  154.3323 H   0  0  0  0  0  0  0  0  0  0  0  0
  148.8389  140.9618  155.7596 H   0  0  0  0  0  0  0  0  0  0  0  0
  149.6173  139.4739  153.1975 H   0  0  0  0  0  0  0  0  0  0  0  0
  148.4708  138.4006  155.8331 H   0  0  0  0  0  0  0  0  0  0  0  0
  147.6383  138.4488  154.2958 H   0  0  0  0  0  0  0  0  0  0  0  0
  147.7138  135.6729  153.8672 H   0  0  0  0  0  0  0  0  0  0  0  0
  148.5602  133.7313  155.1722 H   0  0  0  0  0  0  0  0  0  0  0  0
  149.7771  134.7449  155.9371 H   0  0  0  0  0  0  0  0  0  0  0  0
  149.8640  134.3725  154.2219 H   0  0  0  0  0  0  0  0  0  0  0  0
  146.8761  137.1355  155.7891 H   0  0  0  0  0  0  0  0  0  0  0  0
  146.5480  135.4242  155.9355 H   0  0  0  0  0  0  0  0  0  0  0  0
  148.9063  136.4840  157.3175 H   0  0  0  0  0  0  0  0  0  0  0  0
  149.2409  135.0106  159.4010 H   0  0  0  0  0  0  0  0  0  0  0  0
  148.6021  136.5727  159.8003 H   0  0  0  0  0  0  0  0  0  0  0  0
  147.5654  133.0953  159.8127 H   0  0  0  0  0  0  0  0  0  0  0  0
  146.3975  131.9513  161.6800 H   0  0  0  0  0  0  0  0  0  0  0  0
  145.7976  133.3199  163.7271 H   0  0  0  0  0  0  0  0  0  0  0  0
  146.3521  135.6678  163.8253 H   0  0  0  0  0  0  0  0  0  0  0  0
  150.5614  136.9274  156.0563 H   0  0  0  0  0  0  0  0  0  0  0  0
  151.1211  136.0646  154.6279 H   0  0  0  0  0  0  0  0  0  0  0  0
  151.5545  138.1525  153.4202 H   0  0  0  0  0  0  0  0  0  0  0  0
  153.4032  137.2801  154.8537 H   0  0  0  0  0  0  0  0  0  0  0  0
  152.7938  138.2133  156.2197 H   0  0  0  0  0  0  0  0  0  0  0  0
  153.4211  139.0399  154.7961 H   0  0  0  0  0  0  0  0  0  0  0  0
  149.3404  137.0087  153.4073 H   0  0  0  0  0  0  0  0  0  0  0  0
  1  2  1  0  0  0  0
  1 23  1  0  0  0  0
  1 24  1  0  0  0  0
  1 25  1  0  0  0  0
  2 22  1  0  0  0  0
  2  3  1  0  0  0  0
  2 26  1  0  0  0  0
  3  4  1  0  0  0  0
  3 27  1  0  0  0  0
  3 28  1  0  0  0  0
  4  5  1  0  0  0  0
  4 19  1  0  0  0  0
  4 48  1  0  0  0  0
  5  6  1  0  0  0  0
  5  7  1  0  0  0  0
  5 29  1  0  0  0  0
  6 30  1  0  0  0  0
  6 31  1  0  0  0  0
  6 32  1  0  0  0  0
  7  8  1  0  0  0  0
  7 33  1  0  0  0  0
  7 34  1  0  0  0  0
  8  9  1  0  0  0  0
  8 35  1  0  0  0  0
  9 10  2  0  0  0  0
  9 11  1  0  0  0  0
 11 12  1  0  0  0  0
 11 36  1  0  0  0  0
 11 37  1  0  0  0  0
 12 17  1  0  0  0  0
 12 13  1  0  0  0  0
 13 14  2  0  0  0  0
 13 38  1  0  0  0  0
 14 15  1  0  0  0  0
 14 39  1  0  0  0  0
 15 16  2  0  0  0  0
 15 40  1  0  0  0  0
 16 17  1  0  0  0  0
 16 41  1  0  0  0  0
 17 18  2  0  0  0  0
 19 20  1  0  0  0  0
 19 42  1  0  0  0  0
 19 43  1  0  0  0  0
 20 21  1  0  0  0  0
 20 22  1  0  0  0  0
 20 44  1  0  0  0  0
 21 45  1  0  0  0  0
 21 46  1  0  0  0  0
 21 47  1  0  0  0  0
M  CHG  1   4   1
M  END
> <s_m_source_file>
AV-unprocessed.smi

> <i_m_source_file_index>
1795

> <i_lp_mmshare_version>
43012

> <i_f3d_flags>
0

> <s_epik_input>
W0NIM11bQ0BASF0xW0NIMl1OKFtDSDJdW0NASF0oTzEpW0NIM10pW0NASF0oW0NIM10pW0NIMl1bTkhdQyg9TylbQ0gyXW4yW2NIXVtjSF1bY0hdW2NIXWMyPU8=

> <s_epik_cmdline>
J2VwaWtfcHl0aG9uJywgJy1waCcsICc3LjAnLCAnLXRuJywgJzgnLCAnLW1hJywgJzIwMCcsICctbWV0YWxfYmluZGluZycsICctaW1hZScsICc8aW5maWxlLm1hZT4nLCAnLW9tYWUnLCAnPG91dGZpbGUubWFlPic=

> <r_lp_tautomer_probability>
1

> <r_epik_Ionization_Penalty>
0.656654

> <r_epik_Ionization_Penalty_Charging>
0.656654

> <r_epik_Ionization_Penalty_Neutral>
8.90321e-08

> <r_epik_State_Penalty>
0.675641

> <r_epik_Charging_Adjusted_Penalty>
1.33229

> <i_epik_Tot_Q>
1

> <i_epik_Tot_abs_Q>
1

> <r_epik_Metal_State_Penalty>
0.675691

> <b_epik_Metal_Only>
0

> <s_lp_Force_Field>
OPLS_2005

> <r_lp_Energy>
27.2799

> <b_lp_Chiralities_Consistent>
1

> <s_lp_Variant>
AV-unprocessed.smi:1795-13

> <Gold.Version>
5.8.1

> <Gold.Id.Protein>
6NUR|6NUR_protein|mol2

> <Gold.PLP.Fitness>
46.3132

> <Gold.PLP.PLP>
-35.0396

> <Gold.PLP.part.hbond>
-4.0000

> <Gold.PLP.part.metal>
0.0000

> <Gold.PLP.part.buried>
1.2950

> <Gold.PLP.part.nonpolar>
-34.8505

> <Gold.PLP.part.repulsive>
0.1183

> <Gold.PLP.ligand.clash>
0.0308

> <Gold.PLP.ligand.torsion>
1.1657

> <Gold.PLP.Chemscore.Hbond>
4.5200

> <Gold.PLP.Chemscore.CHOScore>
0.0000

> <Gold.PLP.Chemscore.Metal>
0.0000

> <Gold.Chemscore.Hbonds>
donor molecule, donor type, donor heavy atom, donor atom, acceptor molecule, acceptor atom, score
      L1  H     4    48       P1  7948  1.98
      P1  H  6931  6943       L1    18  1.00
      P1  H  6934  6947       L1    18  0.25
      P1  H  7989  7998       L1    22  0.31

> <Gold.PLP.Chemscore.Internal.Correction>
0.0758

> <Gold.Rescore>
     Score         DG    S(hbond)    S(metal)    S(lipo)     H(rot)  DE(clash)    DE(int)     intcor
     15.39     -19.30       2.64        0.00      84.04       1.89       1.30       2.62       ----

> <Gold.Chemscore.Fitness>
15.3858

> <Gold.Chemscore.DG>
-19.3042

> <Gold.Chemscore.ZeroCoef>
-5.4800

> <Gold.Chemscore.Hbond>
2.6415

> <Gold.Chemscore.Metal>
0.0000

> <Gold.Chemscore.Lipo>
84.0364

> <Gold.Chemscore.Internal_Hbond>
0.0000

> <Gold.Chemscore.DEClash>
1.2994

> <Gold.Chemscore.DEInternal>
2.6190

> <Gold.Chemscore.Rot>
1.8870

> <Gold.Chemscore.Internal.Correction>
   9.000000E+99

> <Gold.Chemscore.Hbonds>
donor molecule, donor type, donor heavy atom, donor atom, acceptor molecule, acceptor atom, score
      L1  H     4    48       P1  7948  0.89
      P1  H  6931  6943       L1    18  0.97
      P1  H  6934  6947       L1    18  0.26
      P1  H  7989  7998       L1    22  0.01

> <Gold.Chemscore.Hbond.Weighted>
-8.8227

> <Gold.Chemscore.Metal.Weighted>
-0.0000

> <Gold.Chemscore.Lipo.Weighted>
-9.8323

> <Gold.Chemscore.Internal_Hbond.Weighted>
0.0000

> <Gold.Chemscore.DEClash.Weighted>
1.2994

> <Gold.Chemscore.DEInternal.Weighted>
2.6190

> <Gold.Chemscore.Rot.Weighted>
4.8308

> <Gold.Chemscore.Internal.Correction.Weighted>
   9.000000E+99

> <Gold.Protein.RotatedTorsions>
[ 6907 6896 6895 6894 ] final  140.02 input  -60.11 | X-H torsion
[ 7974 7965 7964 7962 ] final  -73.94 input  175.53 | X-H torsion
[ 8008 7997 7996 7995 ] final -102.73 input   59.86 | X-H torsion
[ 10167 10162 10161 10158 ] final   80.69 input  -65.29 | X-H torsion
[ 10718 10713 10712 10709 ] final    8.66 input   66.30 | X-H torsion
[ 10763 10752 10751 10750 ] final   53.47 input  -60.55 | X-H torsion
[ 11005 11000 10999 10996 ] final   18.58 input  -57.11 | X-H torsion

> <Gold.Protein.ActiveResidues>
 VAL166  LYS551  ARG553  GLY616  TRP617  ASP618  TYR619  PRO620  LYS621  CYS622 
 ASP623  PHE694  ASN695  SER759  ASP760  ASP761  ALA762  ILE779  LEU786  VAL792 
 PHE793  MET794  SER795  GLU796  ALA797  LYS798  CYS799  TRP800  GLU811  SER814 

> <Gold.Protein.RotatedAtoms>
  152.2480  133.5191  159.5308 H   0  0  0  0  0  0  0  0  0  0  0  0  # atno 6907 bound_to 6896
  150.7084  134.0999  159.3971 H   0  0  0  0  0  0  0  0  0  0  0  0  # atno 6908 bound_to 6896
  151.8919  135.0413  160.0549 H   0  0  0  0  0  0  0  0  0  0  0  0  # atno 6909 bound_to 6896
  145.6455  140.9298  143.1012 H   0  0  0  0  0  0  0  0  0  0  0  0  # atno 7974 bound_to 7965
  154.8608  140.0427  157.1664 H   0  0  0  0  0  0  0  0  0  0  0  0  # atno 8008 bound_to 7997
  154.8842  140.2977  155.5387 H   0  0  0  0  0  0  0  0  0  0  0  0  # atno 8009 bound_to 7997
  156.2998  140.2405  156.3849 H   0  0  0  0  0  0  0  0  0  0  0  0  # atno 8010 bound_to 7997
  139.9471  144.6051  150.8196 H   0  0  0  0  0  0  0  0  0  0  0  0  # atno 10167 bound_to 10162
  156.9548  130.5910  149.5658 H   0  0  0  0  0  0  0  0  0  0  0  0  # atno 10718 bound_to 10713
  152.9795  135.5777  154.4747 H   0  0  0  0  0  0  0  0  0  0  0  0  # atno 10763 bound_to 10752
  154.4305  135.2773  155.1918 H   0  0  0  0  0  0  0  0  0  0  0  0  # atno 10764 bound_to 10752
  154.3628  135.6185  153.5753 H   0  0  0  0  0  0  0  0  0  0  0  0  # atno 10765 bound_to 10752
  140.4232  134.1497  155.7674 H   0  0  0  0  0  0  0  0  0  0  0  0  # atno 11005 bound_to 11000
  144.7141  139.8260  143.7404 LP  0  0  0  0  0  0  0  0  0  0  0  0  # atno 17320 bound_to 7965
  146.1246  139.4270  143.0207 LP  0  0  0  0  0  0  0  0  0  0  0  0  # atno 17321 bound_to 7965
  140.7594  143.3128  151.2805 LP  0  0  0  0  0  0  0  0  0  0  0  0  # atno 17342 bound_to 10162
  139.6658  144.0108  152.2722 LP  0  0  0  0  0  0  0  0  0  0  0  0  # atno 17343 bound_to 10162
  156.0347  130.5436  150.8624 LP  0  0  0  0  0  0  0  0  0  0  0  0  # atno 17370 bound_to 10713
  157.5697  131.0946  150.9436 LP  0  0  0  0  0  0  0  0  0  0  0  0  # atno 17371 bound_to 10713
  141.1776  133.8482  157.1370 LP  0  0  0  0  0  0  0  0  0  0  0  0  # atno 17394 bound_to 11000
  140.0186  134.9956  157.0544 LP  0  0  0  0  0  0  0  0  0  0  0  0  # atno 17395 bound_to 11000

$$$$
