AV-unprocessed.smi:1014|AV-procd|sdf|4433|dock2
  -GOLD-   22720 2393D 1   1.00000     0.00000
 Structure written by MMmdl.
 33 33  0  0  0  0  0  0  0  0  1 V2000
  146.5172  142.6537  154.3128 C   0  0  0  0  0  0  0  0  0  0  0  0
  147.0592  141.2786  154.7271 C   0  0  0  0  0  0  0  0  0  0  0  0
  148.4966  141.0154  154.2306 C   0  0  1  0  0  0  0  0  0  0  0  0
  149.4416  141.9179  154.9153 N   0  0  0  0  0  0  0  0  0  0  0  0
  149.6102  141.6477  156.3386 C   0  0  0  0  0  0  0  0  0  0  0  0
  151.1057  141.4986  156.6514 C   0  0  0  0  0  0  0  0  0  0  0  0
  151.5100  142.3577  157.7472 N   0  0  0  0  0  0  0  0  0  0  0  0
  151.3780  143.7256  157.8585 C   0  0  0  0  0  0  0  0  0  0  0  0
  151.9051  144.0925  159.0645 C   0  0  0  0  0  0  0  0  0  0  0  0
  152.0078  145.4643  159.6662 C   0  0  0  0  0  0  0  0  0  0  0  0
  152.3421  142.8579  159.6235 C   0  0  0  0  0  0  0  0  0  0  0  0
  152.1052  141.8229  158.8342 N   0  0  0  0  0  0  0  0  0  0  0  0
  148.8593  139.5299  154.4022 C   0  0  0  0  0  0  0  0  0  0  0  0
  149.0516  138.8155  153.2906 N   0  0  0  0  0  0  0  0  0  0  0  0
  148.9826  139.0413  155.5239 O   0  0  0  0  0  0  0  0  0  0  0  0
  145.4938  142.7879  154.6634 H   0  0  0  0  0  0  0  0  0  0  0  0
  146.5139  142.7664  153.2286 H   0  0  0  0  0  0  0  0  0  0  0  0
  147.1183  143.4606  154.7323 H   0  0  0  0  0  0  0  0  0  0  0  0
  147.0116  141.1792  155.8126 H   0  0  0  0  0  0  0  0  0  0  0  0
  146.3855  140.5194  154.3264 H   0  0  0  0  0  0  0  0  0  0  0  0
  148.5268  141.2424  153.1631 H   0  0  0  0  0  0  0  0  0  0  0  0
  149.1949  142.8877  154.7771 H   0  0  0  0  0  0  0  0  0  0  0  0
  149.1909  142.4578  156.9363 H   0  0  0  0  0  0  0  0  0  0  0  0
  149.0810  140.7318  156.6057 H   0  0  0  0  0  0  0  0  0  0  0  0
  151.3391  140.4669  156.9185 H   0  0  0  0  0  0  0  0  0  0  0  0
  151.7087  141.7436  155.7754 H   0  0  0  0  0  0  0  0  0  0  0  0
  150.9251  144.3189  157.0777 H   0  0  0  0  0  0  0  0  0  0  0  0
  152.9200  145.9720  159.3529 H   0  0  0  0  0  0  0  0  0  0  0  0
  152.0173  145.4278  160.7556 H   0  0  0  0  0  0  0  0  0  0  0  0
  151.1699  146.0978  159.3745 H   0  0  0  0  0  0  0  0  0  0  0  0
  152.8220  142.6844  160.5752 H   0  0  0  0  0  0  0  0  0  0  0  0
  149.2901  137.8367  153.3560 H   0  0  0  0  0  0  0  0  0  0  0  0
  148.9564  139.2577  152.3881 H   0  0  0  0  0  0  0  0  0  0  0  0
  1  2  1  0  0  0  0
  1 16  1  0  0  0  0
  1 17  1  0  0  0  0
  1 18  1  0  0  0  0
  2  3  1  0  0  0  0
  2 19  1  0  0  0  0
  2 20  1  0  0  0  0
  3  4  1  0  0  0  0
  3 13  1  0  0  0  0
  3 21  1  0  0  0  0
  4  5  1  0  0  0  0
  4 22  1  0  0  0  0
  5  6  1  0  0  0  0
  5 23  1  0  0  0  0
  5 24  1  0  0  0  0
  6  7  1  0  0  0  0
  6 25  1  0  0  0  0
  6 26  1  0  0  0  0
  7 12  1  0  0  0  0
  7  8  1  0  0  0  0
  8  9  2  0  0  0  0
  8 27  1  0  0  0  0
  9 10  1  0  0  0  0
  9 11  1  0  0  0  0
 10 28  1  0  0  0  0
 10 29  1  0  0  0  0
 10 30  1  0  0  0  0
 11 12  2  0  0  0  0
 11 31  1  0  0  0  0
 13 14  1  0  0  0  0
 13 15  2  0  0  0  0
 14 32  1  0  0  0  0
 14 33  1  0  0  0  0
M  END
> <s_m_source_file>
AV-unprocessed.smi

> <i_m_source_file_index>
1014

> <i_lp_mmshare_version>
43012

> <i_f3d_flags>
0

> <s_epik_input>
W0NIM11bQ0gyXVtDQEBIXShDKD1PKVtOSDJdKVtOSF1bQ0gyXVtDSDJdbjFbY0hdYyhbQ0gzXSlbY0hdbjE=

> <s_epik_cmdline>
J2VwaWtfcHl0aG9uJywgJy1waCcsICc3LjAnLCAnLXRuJywgJzgnLCAnLW1hJywgJzIwMCcsICctbWV0YWxfYmluZGluZycsICctaW1hZScsICc8aW5maWxlLm1hZT4nLCAnLW9tYWUnLCAnPG91dGZpbGUubWFlPic=

> <r_lp_tautomer_probability>
1

> <r_epik_Ionization_Penalty>
0.767127

> <r_epik_Ionization_Penalty_Charging>
0

> <r_epik_Ionization_Penalty_Neutral>
0.767127

> <r_epik_State_Penalty>
0.793761

> <r_epik_Charging_Adjusted_Penalty>
0.793761

> <i_epik_Tot_Q>
0

> <i_epik_Tot_abs_Q>
0

> <r_epik_Metal_State_Penalty>
0.79201

> <b_epik_Metal_Only>
0

> <s_lp_Force_Field>
OPLS_2005

> <r_lp_Energy>
4.41015

> <b_lp_Chiralities_Consistent>
1

> <s_lp_Variant>
AV-unprocessed.smi:1014-4

> <Gold.Version>
5.8.1

> <Gold.Id.Protein>
6NUR|6NUR_protein|mol2

> <Gold.PLP.Fitness>
44.6673

> <Gold.PLP.PLP>
-36.8434

> <Gold.PLP.part.hbond>
-3.5363

> <Gold.PLP.part.metal>
0.0000

> <Gold.PLP.part.buried>
-3.9791

> <Gold.PLP.part.nonpolar>
-30.7211

> <Gold.PLP.part.repulsive>
0.1387

> <Gold.PLP.ligand.clash>
0.0000

> <Gold.PLP.ligand.torsion>
0.8685

> <Gold.PLP.Chemscore.Hbond>
2.1524

> <Gold.PLP.Chemscore.CHOScore>
1.0000

> <Gold.PLP.Chemscore.Metal>
0.0000

> <Gold.Chemscore.Hbonds>
donor molecule, donor type, donor heavy atom, donor atom, acceptor molecule, acceptor atom, score
      L1  H     4    22       P1  8028  0.94
      L1  H    14    32       P1  7948  0.34
      L1  H    14    33       P1  7957  1.00
      L1  C     8    27       P1  8028  1.00

> <Gold.PLP.Chemscore.Internal.Correction>
0.1037

> <Gold.Rescore>
     Score         DG    S(hbond)    S(metal)    S(lipo)     H(rot)  DE(clash)    DE(int)     intcor
     13.22     -15.43       2.09        0.00      80.27       2.51       0.01       2.19       ----

> <Gold.Chemscore.Fitness>
13.2240

> <Gold.Chemscore.DG>
-15.4311

> <Gold.Chemscore.ZeroCoef>
-5.4800

> <Gold.Chemscore.Hbond>
2.0912

> <Gold.Chemscore.Metal>
0.0000

> <Gold.Chemscore.Lipo>
80.2664

> <Gold.Chemscore.Internal_Hbond>
0.0000

> <Gold.Chemscore.DEClash>
0.0149

> <Gold.Chemscore.DEInternal>
2.1923

> <Gold.Chemscore.Rot>
2.5096

> <Gold.Chemscore.Internal.Correction>
   9.000000E+99

> <Gold.Chemscore.Hbonds>
donor molecule, donor type, donor heavy atom, donor atom, acceptor molecule, acceptor atom, score
      L1  H     4    22       P1  8028  0.84
      L1  H    14    32       P1  7948  0.33
      L1  H    14    33       P1  7957  0.92

> <Gold.Chemscore.Hbond.Weighted>
-6.9846

> <Gold.Chemscore.Metal.Weighted>
-0.0000

> <Gold.Chemscore.Lipo.Weighted>
-9.3912

> <Gold.Chemscore.Internal_Hbond.Weighted>
0.0000

> <Gold.Chemscore.DEClash.Weighted>
0.0149

> <Gold.Chemscore.DEInternal.Weighted>
2.1923

> <Gold.Chemscore.Rot.Weighted>
6.4246

> <Gold.Chemscore.Internal.Correction.Weighted>
   9.000000E+99

> <Gold.Protein.RotatedTorsions>
[ 6907 6896 6895 6894 ] final -177.71 input  -60.11 | X-H torsion
[ 7974 7965 7964 7962 ] final -132.09 input  175.53 | X-H torsion
[ 8008 7997 7996 7995 ] final -151.18 input   59.86 | X-H torsion
[ 10167 10162 10161 10158 ] final   57.01 input  -65.29 | X-H torsion
[ 10718 10713 10712 10709 ] final -119.33 input   66.30 | X-H torsion
[ 10763 10752 10751 10750 ] final  -53.39 input  -60.55 | X-H torsion
[ 11005 11000 10999 10996 ] final  137.50 input  -57.11 | X-H torsion

> <Gold.Protein.ActiveResidues>
 VAL166  LYS551  ARG553  GLY616  TRP617  ASP618  TYR619  PRO620  LYS621  CYS622 
 ASP623  PHE694  ASN695  SER759  ASP760  ASP761  ALA762  ILE779  LEU786  VAL792 
 PHE793  MET794  SER795  GLU796  ALA797  LYS798  CYS799  TRP800  GLU811  SER814 

> <Gold.Protein.RotatedAtoms>
  151.6254  133.3336  159.3096 H   0  0  0  0  0  0  0  0  0  0  0  0  # atno 6907 bound_to 6896
  150.8084  134.7227  159.6677 H   0  0  0  0  0  0  0  0  0  0  0  0  # atno 6908 bound_to 6896
  152.4180  134.6011  160.0052 H   0  0  0  0  0  0  0  0  0  0  0  0  # atno 6909 bound_to 6896
  144.9318  140.7137  143.4901 H   0  0  0  0  0  0  0  0  0  0  0  0  # atno 7974 bound_to 7965
  155.6353  140.0696  157.2636 H   0  0  0  0  0  0  0  0  0  0  0  0  # atno 8008 bound_to 7997
  154.4196  140.1760  156.1564 H   0  0  0  0  0  0  0  0  0  0  0  0  # atno 8009 bound_to 7997
  155.9900  140.3346  155.6747 H   0  0  0  0  0  0  0  0  0  0  0  0  # atno 8010 bound_to 7997
  140.2026  144.3972  150.6522 H   0  0  0  0  0  0  0  0  0  0  0  0  # atno 10167 bound_to 10162
  156.1173  130.6296  150.9403 H   0  0  0  0  0  0  0  0  0  0  0  0  # atno 10718 bound_to 10713
  154.1580  135.6479  153.4979 H   0  0  0  0  0  0  0  0  0  0  0  0  # atno 10763 bound_to 10752
  153.0118  135.5354  154.6740 H   0  0  0  0  0  0  0  0  0  0  0  0  # atno 10764 bound_to 10752
  154.6045  135.2947  155.0471 H   0  0  0  0  0  0  0  0  0  0  0  0  # atno 10765 bound_to 10752
  140.0118  134.9435  157.0294 H   0  0  0  0  0  0  0  0  0  0  0  0  # atno 11005 bound_to 11000
  145.3130  139.1812  143.4628 LP  0  0  0  0  0  0  0  0  0  0  0  0  # atno 17320 bound_to 7965
  146.3250  140.3138  142.8628 LP  0  0  0  0  0  0  0  0  0  0  0  0  # atno 17321 bound_to 7965
  140.6379  143.2198  151.6354 LP  0  0  0  0  0  0  0  0  0  0  0  0  # atno 17342 bound_to 10162
  139.5211  144.3203  152.0916 LP  0  0  0  0  0  0  0  0  0  0  0  0  # atno 17343 bound_to 10162
  157.6356  131.0916  150.8354 LP  0  0  0  0  0  0  0  0  0  0  0  0  # atno 17370 bound_to 10713
  156.8456  130.5063  149.5317 LP  0  0  0  0  0  0  0  0  0  0  0  0  # atno 17371 bound_to 10713
  140.4540  134.1552  155.7184 LP  0  0  0  0  0  0  0  0  0  0  0  0  # atno 17394 bound_to 11000
  141.1716  133.8597  157.1552 LP  0  0  0  0  0  0  0  0  0  0  0  0  # atno 17395 bound_to 11000

$$$$
