AV-unprocessed.smi:3141|AV-procd|sdf|11963|dock9
  -GOLD-   2272017363D 1   1.00000     0.00000
 Structure written by MMmdl.
 36 38  0  0  0  0  0  0  0  0  2 V2000
  146.8926  142.3860  159.7005 O   0  0  0  0  0  0  0  0  0  0  0  0
  147.4076  143.2693  159.0146 C   0  0  0  0  0  0  0  0  0  0  0  0
  147.2178  144.5808  159.2072 N   0  0  0  0  0  0  0  0  0  0  0  0
  146.4058  145.1561  160.2301 C   0  0  0  0  0  0  0  0  0  0  0  0
  146.2624  144.3915  161.5278 C   0  0  0  0  0  0  0  0  0  0  0  0
  145.1063  144.4589  160.5688 C   0  0  0  0  0  0  0  0  0  0  0  0
  148.2465  143.0335  157.9953 N   0  0  0  0  0  0  0  0  0  0  0  0
  148.6604  141.7104  157.5220 C   0  0  1  0  0  0  0  0  0  0  0  0
  147.8135  141.3092  156.2960 C   0  0  0  0  0  0  0  0  0  0  0  0
  148.7540  141.3029  155.0801 C   0  0  0  0  0  0  0  0  0  0  0  0
  150.0198  142.0315  155.5300 C   0  0  0  0  0  0  0  0  0  0  0  0
  150.1199  141.6748  157.0153 C   0  0  1  0  0  0  0  0  0  0  0  0
  151.0857  142.4721  157.7940 N   0  0  0  0  0  0  0  0  0  0  0  0
  151.5848  143.7241  157.5249 C   0  0  0  0  0  0  0  0  0  0  0  0
  152.4094  144.0518  158.5699 C   0  0  0  0  0  0  0  0  0  0  0  0
  152.3741  142.9947  159.4377 N   0  3  0  0  0  0  0  0  0  0  0  0
  151.5674  142.0388  158.9670 C   0  0  0  0  0  0  0  0  0  0  0  0
  147.6867  145.2249  158.5870 H   0  0  0  0  0  0  0  0  0  0  0  0
  146.4006  146.2420  160.3130 H   0  0  0  0  0  0  0  0  0  0  0  0
  146.7833  143.4403  161.6197 H   0  0  0  0  0  0  0  0  0  0  0  0
  146.1885  144.9716  162.4455 H   0  0  0  0  0  0  0  0  0  0  0  0
  144.2597  145.0837  160.8462 H   0  0  0  0  0  0  0  0  0  0  0  0
  144.8558  143.5525  160.0210 H   0  0  0  0  0  0  0  0  0  0  0  0
  148.6187  143.8285  157.4963 H   0  0  0  0  0  0  0  0  0  0  0  0
  148.5229  140.9784  158.3201 H   0  0  0  0  0  0  0  0  0  0  0  0
  147.3729  140.3210  156.4343 H   0  0  0  0  0  0  0  0  0  0  0  0
  146.9846  142.0011  156.1351 H   0  0  0  0  0  0  0  0  0  0  0  0
  149.0007  140.2735  154.8166 H   0  0  0  0  0  0  0  0  0  0  0  0
  148.3017  141.7653  154.2022 H   0  0  0  0  0  0  0  0  0  0  0  0
  150.9006  141.7302  154.9624 H   0  0  0  0  0  0  0  0  0  0  0  0
  149.8788  143.1037  155.3918 H   0  0  0  0  0  0  0  0  0  0  0  0
  150.4632  140.6396  157.0693 H   0  0  0  0  0  0  0  0  0  0  0  0
  151.3238  144.2835  156.6389 H   0  0  0  0  0  0  0  0  0  0  0  0
  152.9974  144.9380  158.7596 H   0  0  0  0  0  0  0  0  0  0  0  0
  151.3397  141.1036  159.4468 H   0  0  0  0  0  0  0  0  0  0  0  0
  152.8769  142.9446  160.3149 H   0  0  0  0  0  0  0  0  0  0  0  0
  1  2  2  0  0  0  0
  2  3  1  0  0  0  0
  2  7  1  0  0  0  0
  3  4  1  0  0  0  0
  3 18  1  0  0  0  0
  4  6  1  0  0  0  0
  4  5  1  0  0  0  0
  4 19  1  0  0  0  0
  5  6  1  0  0  0  0
  5 20  1  0  0  0  0
  5 21  1  0  0  0  0
  6 22  1  0  0  0  0
  6 23  1  0  0  0  0
  7  8  1  0  0  0  0
  7 24  1  0  0  0  0
  8 12  1  0  0  0  0
  8  9  1  0  0  0  0
  8 25  1  0  0  0  0
  9 10  1  0  0  0  0
  9 26  1  0  0  0  0
  9 27  1  0  0  0  0
 10 11  1  0  0  0  0
 10 28  1  0  0  0  0
 10 29  1  0  0  0  0
 11 12  1  0  0  0  0
 11 30  1  0  0  0  0
 11 31  1  0  0  0  0
 12 13  1  0  0  0  0
 12 32  1  0  0  0  0
 13 17  1  0  0  0  0
 13 14  1  0  0  0  0
 14 15  2  0  0  0  0
 14 33  1  0  0  0  0
 15 16  1  0  0  0  0
 15 34  1  0  0  0  0
 16 17  2  0  0  0  0
 16 36  1  0  0  0  0
 17 35  1  0  0  0  0
M  CHG  1  16   1
M  END
> <s_m_source_file>
AV-unprocessed.smi

> <i_m_source_file_index>
3141

> <i_lp_mmshare_version>
43012

> <i_f3d_flags>
0

> <s_epik_input>
W0NIMl0xW0NIMl1bQ0hdMVtOSF1DKD1PKVtOSF1bQ0BASF0yW0NIMl1bQ0gyXVtDSDJdW0NASF0ybjNbY0hdW2NIXW5bY0hdMw==

> <s_epik_cmdline>
J2VwaWtfcHl0aG9uJywgJy1waCcsICc3LjAnLCAnLXRuJywgJzgnLCAnLW1hJywgJzIwMCcsICctbWV0YWxfYmluZGluZycsICctaW1hZScsICc8aW5maWxlLm1hZT4nLCAnLW9tYWUnLCAnPG91dGZpbGUubWFlPic=

> <r_lp_tautomer_probability>
1

> <r_epik_Ionization_Penalty>
0.205063

> <r_epik_Ionization_Penalty_Charging>
0

> <r_epik_Ionization_Penalty_Neutral>
0.205063

> <r_epik_State_Penalty>
0.194948

> <r_epik_Charging_Adjusted_Penalty>
0.194948

> <i_epik_Tot_Q>
1

> <i_epik_Tot_abs_Q>
1

> <r_epik_Metal_State_Penalty>
0.500882

> <b_epik_Metal_Only>
0

> <s_lp_Force_Field>
OPLS_2005

> <r_lp_Energy>
36.92

> <b_lp_Chiralities_Consistent>
1

> <s_lp_Variant>
AV-unprocessed.smi:3141-2

> <Gold.Version>
5.8.1

> <Gold.Id.Protein>
6NUR|6NUR_protein|mol2

> <Gold.PLP.Fitness>
39.6066

> <Gold.PLP.PLP>
-31.2725

> <Gold.PLP.part.hbond>
-4.8381

> <Gold.PLP.part.metal>
0.0000

> <Gold.PLP.part.buried>
-2.3568

> <Gold.PLP.part.nonpolar>
-24.9155

> <Gold.PLP.part.repulsive>
0.2336

> <Gold.PLP.ligand.clash>
0.0000

> <Gold.PLP.ligand.torsion>
1.2353

> <Gold.PLP.Chemscore.Hbond>
2.6061

> <Gold.PLP.Chemscore.CHOScore>
0.9760

> <Gold.PLP.Chemscore.Metal>
0.0000

> <Gold.Chemscore.Hbonds>
donor molecule, donor type, donor heavy atom, donor atom, acceptor molecule, acceptor atom, score
      L1  H     3    18       P1  8029  0.93
      L1  H     7    24       P1  8028  0.38
      P1  H  6933  6944       L1     1  0.10
      P1  H  6934  6946       L1     1  0.91
      L1  C    14    33       P1  8028  0.72

> <Gold.PLP.Chemscore.Internal.Correction>
0.0586

> <Gold.Rescore>
     Score         DG    S(hbond)    S(metal)    S(lipo)     H(rot)  DE(clash)    DE(int)     intcor
     11.78     -15.90       2.04        0.00      65.85       1.61       0.22       3.90       ----

> <Gold.Chemscore.Fitness>
11.7785

> <Gold.Chemscore.DG>
-15.8958

> <Gold.Chemscore.ZeroCoef>
-5.4800

> <Gold.Chemscore.Hbond>
2.0449

> <Gold.Chemscore.Metal>
0.0000

> <Gold.Chemscore.Lipo>
65.8484

> <Gold.Chemscore.Internal_Hbond>
0.0000

> <Gold.Chemscore.DEClash>
0.2193

> <Gold.Chemscore.DEInternal>
3.8980

> <Gold.Chemscore.Rot>
1.6088

> <Gold.Chemscore.Internal.Correction>
   9.000000E+99

> <Gold.Chemscore.Hbonds>
donor molecule, donor type, donor heavy atom, donor atom, acceptor molecule, acceptor atom, score
      L1  H     3    18       P1  8029  0.86
      L1  H     7    24       P1  8028  0.01
      P1  H  6933  6944       L1     1  0.02
      P1  H  6934  6946       L1     1  0.90

> <Gold.Chemscore.Hbond.Weighted>
-6.8301

> <Gold.Chemscore.Metal.Weighted>
-0.0000

> <Gold.Chemscore.Lipo.Weighted>
-7.7043

> <Gold.Chemscore.Internal_Hbond.Weighted>
0.0000

> <Gold.Chemscore.DEClash.Weighted>
0.2193

> <Gold.Chemscore.DEInternal.Weighted>
3.8980

> <Gold.Chemscore.Rot.Weighted>
4.1186

> <Gold.Chemscore.Internal.Correction.Weighted>
   9.000000E+99

> <Gold.Protein.RotatedTorsions>
[ 6907 6896 6895 6894 ] final   87.31 input  -60.11 | X-H torsion
[ 7974 7965 7964 7962 ] final   41.36 input  175.53 | X-H torsion
[ 8008 7997 7996 7995 ] final   49.62 input   59.86 | X-H torsion
[ 10167 10162 10161 10158 ] final   11.19 input  -65.29 | X-H torsion
[ 10718 10713 10712 10709 ] final   67.40 input   66.30 | X-H torsion
[ 10763 10752 10751 10750 ] final    5.05 input  -60.55 | X-H torsion
[ 11005 11000 10999 10996 ] final  -57.35 input  -57.11 | X-H torsion

> <Gold.Protein.ActiveResidues>
 VAL166  LYS551  ARG553  GLY616  TRP617  ASP618  TYR619  PRO620  LYS621  CYS622 
 ASP623  PHE694  ASN695  SER759  ASP760  ASP761  ALA762  ILE779  LEU786  VAL792 
 PHE793  MET794  SER795  GLU796  ALA797  LYS798  CYS799  TRP800  GLU811  SER814 

> <Gold.Protein.RotatedAtoms>
  152.5409  134.2296  159.8819 H   0  0  0  0  0  0  0  0  0  0  0  0  # atno 6907 bound_to 6896
  151.2269  133.4465  159.2610 H   0  0  0  0  0  0  0  0  0  0  0  0  # atno 6908 bound_to 6896
  151.0752  134.9837  159.8384 H   0  0  0  0  0  0  0  0  0  0  0  0  # atno 6909 bound_to 6896
  146.0830  139.5425  142.9525 H   0  0  0  0  0  0  0  0  0  0  0  0  # atno 7974 bound_to 7965
  155.4052  140.3439  155.4259 H   0  0  0  0  0  0  0  0  0  0  0  0  # atno 8008 bound_to 7997
  156.1481  140.1562  156.8846 H   0  0  0  0  0  0  0  0  0  0  0  0  # atno 8009 bound_to 7997
  154.5028  140.0810  156.7814 H   0  0  0  0  0  0  0  0  0  0  0  0  # atno 8010 bound_to 7997
  140.6148  143.8332  150.7105 H   0  0  0  0  0  0  0  0  0  0  0  0  # atno 10167 bound_to 10162
  157.6228  130.9319  150.0237 H   0  0  0  0  0  0  0  0  0  0  0  0  # atno 10718 bound_to 10713
  153.2639  135.6926  153.7549 H   0  0  0  0  0  0  0  0  0  0  0  0  # atno 10763 bound_to 10752
  153.6598  135.3362  155.3125 H   0  0  0  0  0  0  0  0  0  0  0  0  # atno 10764 bound_to 10752
  154.8440  135.4474  154.1639 H   0  0  0  0  0  0  0  0  0  0  0  0  # atno 10765 bound_to 10752
  141.1161  133.6610  156.4757 H   0  0  0  0  0  0  0  0  0  0  0  0  # atno 11005 bound_to 11000
  145.6183  141.0327  143.1929 LP  0  0  0  0  0  0  0  0  0  0  0  0  # atno 17320 bound_to 7965
  144.7306  139.7738  143.7348 LP  0  0  0  0  0  0  0  0  0  0  0  0  # atno 17321 bound_to 7965
  140.1909  143.4037  152.1864 LP  0  0  0  0  0  0  0  0  0  0  0  0  # atno 17342 bound_to 10162
  139.5389  144.7237  151.4799 LP  0  0  0  0  0  0  0  0  0  0  0  0  # atno 17343 bound_to 10162
  156.1383  130.3642  149.9623 LP  0  0  0  0  0  0  0  0  0  0  0  0  # atno 17370 bound_to 10713
  156.7669  130.9172  151.3643 LP  0  0  0  0  0  0  0  0  0  0  0  0  # atno 17371 bound_to 10713
  140.4642  134.6813  157.5099 LP  0  0  0  0  0  0  0  0  0  0  0  0  # atno 17394 bound_to 11000
  140.0084  134.6728  155.9419 LP  0  0  0  0  0  0  0  0  0  0  0  0  # atno 17395 bound_to 11000

$$$$
