AV-unprocessed.smi:72|AV-procd|sdf|746|dock7
  -GOLD-   2262017 83D 1   1.00000     0.00000
 Structure written by MMmdl.
 29 30  0  0  0  0  0  0  0  0  1 V2000
  145.1491  133.4847  154.9820 N   0  0  0  0  0  0  0  0  0  0  0  0
  145.2725  134.7825  154.5325 C   0  0  0  0  0  0  0  0  0  0  0  0
  146.5758  135.2920  154.4491 N   0  0  0  0  0  0  0  0  0  0  0  0
  146.6942  136.5138  154.0353 C   0  0  0  0  0  0  0  0  0  0  0  0
  145.5314  137.3067  153.6791 N   0  0  0  0  0  0  0  0  0  0  0  0
  145.6749  138.7355  153.1947 C   0  0  1  0  0  0  0  0  0  0  0  0
  146.2445  139.5027  154.2138 O   0  0  0  0  0  0  0  0  0  0  0  0
  147.2186  140.3794  153.6604 C   0  0  1  0  0  0  0  0  0  0  0  0
  148.2060  140.8568  154.7399 C   0  0  0  0  0  0  0  0  0  0  0  0
  148.9097  141.9956  154.2918 O   0  0  0  0  0  0  0  0  0  0  0  0
  147.8013  139.5924  152.4771 C   0  0  1  0  0  0  0  0  0  0  0  0
  148.8145  138.6981  152.9065 O   0  0  0  0  0  0  0  0  0  0  0  0
  146.5694  138.8683  151.9421 C   0  0  1  0  0  0  0  0  0  0  0  0
  146.8777  137.6601  151.2684 O   0  0  0  0  0  0  0  0  0  0  0  0
  144.2390  136.7204  153.7721 C   0  0  0  0  0  0  0  0  0  0  0  0
  143.2396  137.3622  153.4485 O   0  0  0  0  0  0  0  0  0  0  0  0
  144.1660  135.4000  154.2320 N   0  0  0  0  0  0  0  0  0  0  0  0
  144.6643  139.1093  153.0254 H   0  0  0  0  0  0  0  0  0  0  0  0
  146.6763  141.2423  153.2688 H   0  0  0  0  0  0  0  0  0  0  0  0
  148.2333  140.2558  151.7270 H   0  0  0  0  0  0  0  0  0  0  0  0
  146.0463  139.5251  151.2459 H   0  0  0  0  0  0  0  0  0  0  0  0
  144.2621  133.0134  155.0826 H   0  0  0  0  0  0  0  0  0  0  0  0
  145.9367  132.9097  155.2432 H   0  0  0  0  0  0  0  0  0  0  0  0
  147.6560  137.0169  153.9277 H   0  0  0  0  0  0  0  0  0  0  0  0
  147.6608  141.1261  155.6449 H   0  0  0  0  0  0  0  0  0  0  0  0
  148.9105  140.0727  155.0179 H   0  0  0  0  0  0  0  0  0  0  0  0
  148.7568  142.7020  154.9008 H   0  0  0  0  0  0  0  0  0  0  0  0
  148.6522  137.8540  152.5133 H   0  0  0  0  0  0  0  0  0  0  0  0
  147.3701  137.1108  151.8593 H   0  0  0  0  0  0  0  0  0  0  0  0
  1  2  1  0  0  0  0
  1 22  1  0  0  0  0
  1 23  1  0  0  0  0
  2 17  2  0  0  0  0
  2  3  1  0  0  0  0
  3  4  2  0  0  0  0
  4  5  1  0  0  0  0
  4 24  1  0  0  0  0
  5  6  1  0  0  0  0
  5 15  1  0  0  0  0
  6 18  1  0  0  0  0
  6 13  1  0  0  0  0
  6  7  1  0  0  0  0
  7  8  1  0  0  0  0
  8 19  1  0  0  0  0
  8  9  1  0  0  0  0
  8 11  1  0  0  0  0
  9 10  1  0  0  0  0
  9 25  1  0  0  0  0
  9 26  1  0  0  0  0
 10 27  1  0  0  0  0
 11 20  1  0  0  0  0
 11 12  1  0  0  0  0
 11 13  1  0  0  0  0
 12 28  1  0  0  0  0
 13 21  1  0  0  0  0
 13 14  1  0  0  0  0
 14 29  1  0  0  0  0
 15 16  2  0  0  0  0
 15 17  1  0  0  0  0
M  END
> <s_m_source_file>
AV-unprocessed.smi

> <i_m_source_file_index>
72

> <i_lp_mmshare_version>
43012

> <i_f3d_flags>
0

> <s_epik_input>
W05IMl1jMW5bY0hdbihjKD1PKW4xKVtDQEBIXTJPW0NASF0oW0NIMl1bT0hdKVtDQEBIXShbT0hdKVtDQEhdMltPSF0=

> <s_epik_cmdline>
J2VwaWtfcHl0aG9uJywgJy1waCcsICc3LjAnLCAnLXRuJywgJzgnLCAnLW1hJywgJzIwMCcsICctbWV0YWxfYmluZGluZycsICctaW1hZScsICc8aW5maWxlLm1hZT4nLCAnLW9tYWUnLCAnPG91dGZpbGUubWFlPic=

> <r_lp_tautomer_probability>
4.77166e-05

> <r_epik_Ionization_Penalty>
1.3546

> <r_epik_Ionization_Penalty_Charging>
1.46833e-10

> <r_epik_Ionization_Penalty_Neutral>
1.3546

> <r_epik_State_Penalty>
3.51908

> <r_epik_Charging_Adjusted_Penalty>
3.51908

> <i_epik_Tot_Q>
0

> <i_epik_Tot_abs_Q>
0

> <r_epik_Metal_State_Penalty>
3.44088

> <b_epik_Metal_Only>
1

> <s_epik_Chemistry_Notes>
This compound contains an acetal/aminal-like group ( X-CH(R)-Y where X, Y are N, S, or O) that may be acid/base labile, releasing an aldehyde.

> <s_lp_Force_Field>
OPLS_2005

> <r_lp_Energy>
35.7585

> <b_lp_Chiralities_Consistent>
1

> <s_lp_Variant>
AV-unprocessed.smi:72-84

> <Gold.Version>
5.8.1

> <Gold.Id.Protein>
6NUR|6NUR_protein|mol2

> <Gold.PLP.Fitness>
30.0637

> <Gold.PLP.PLP>
-14.5737

> <Gold.PLP.part.hbond>
-6.3665

> <Gold.PLP.part.metal>
0.0000

> <Gold.PLP.part.buried>
5.1477

> <Gold.PLP.part.nonpolar>
-13.6665

> <Gold.PLP.part.repulsive>
0.3972

> <Gold.PLP.ligand.clash>
0.0000

> <Gold.PLP.ligand.torsion>
0.1526

> <Gold.PLP.Chemscore.Hbond>
4.6859

> <Gold.PLP.Chemscore.CHOScore>
0.5784

> <Gold.PLP.Chemscore.Metal>
0.0000

> <Gold.Chemscore.Hbonds>
donor molecule, donor type, donor heavy atom, donor atom, acceptor molecule, acceptor atom, score
      L1  H     1    22       P1 10957  0.98
      L1  H    10    27       P1  8028  0.71
      L1  H    12    28       P1  7948  1.00
      L1  H    14    29       P1  7948  0.72
      P1  H  7954  7966       L1    14  0.95
      P1  H  8011  8017       L1    10  0.24
      L1  C     4    24       P1  7948  0.60

> <Gold.PLP.Chemscore.Internal.Correction>
0.0023

> <Gold.Rescore>
     Score         DG    S(hbond)    S(metal)    S(lipo)     H(rot)  DE(clash)    DE(int)     intcor
      9.23     -12.71       4.17        0.00      31.52       4.06       3.26       0.22       ----

> <Gold.Chemscore.Fitness>
9.2341

> <Gold.Chemscore.DG>
-12.7147

> <Gold.Chemscore.ZeroCoef>
-5.4800

> <Gold.Chemscore.Hbond>
4.1738

> <Gold.Chemscore.Metal>
0.0000

> <Gold.Chemscore.Lipo>
31.5195

> <Gold.Chemscore.Internal_Hbond>
0.0000

> <Gold.Chemscore.DEClash>
3.2631

> <Gold.Chemscore.DEInternal>
0.2175

> <Gold.Chemscore.Rot>
4.0600

> <Gold.Chemscore.Internal.Correction>
   9.000000E+99

> <Gold.Chemscore.Hbonds>
donor molecule, donor type, donor heavy atom, donor atom, acceptor molecule, acceptor atom, score
      L1  H     1    22       P1 10957  0.92
      L1  H    10    27       P1  8028  0.70
      L1  H    12    28       P1  7948  0.99
      L1  H    14    29       P1  7948  0.72
      P1  H  7954  7966       L1    14  0.19
      P1  H  8011  8017       L1    10  0.23

> <Gold.Chemscore.Hbond.Weighted>
-13.9405

> <Gold.Chemscore.Metal.Weighted>
-0.0000

> <Gold.Chemscore.Lipo.Weighted>
-3.6878

> <Gold.Chemscore.Internal_Hbond.Weighted>
0.0000

> <Gold.Chemscore.DEClash.Weighted>
3.2631

> <Gold.Chemscore.DEInternal.Weighted>
0.2175

> <Gold.Chemscore.Rot.Weighted>
10.3936

> <Gold.Chemscore.Internal.Correction.Weighted>
   9.000000E+99

> <Gold.Protein.RotatedTorsions>
[ 6907 6896 6895 6894 ] final  -93.29 input  -60.11 | X-H torsion
[ 7974 7965 7964 7962 ] final  -44.68 input  175.53 | X-H torsion
[ 8008 7997 7996 7995 ] final  -32.63 input   59.86 | X-H torsion
[ 10167 10162 10161 10158 ] final   86.81 input  -65.29 | X-H torsion
[ 10718 10713 10712 10709 ] final -144.47 input   66.30 | X-H torsion
[ 10763 10752 10751 10750 ] final  -44.87 input  -60.55 | X-H torsion
[ 11005 11000 10999 10996 ] final   -0.98 input  -57.11 | X-H torsion

> <Gold.Protein.ActiveResidues>
 VAL166  LYS551  ARG553  GLY616  TRP617  ASP618  TYR619  PRO620  LYS621  CYS622 
 ASP623  PHE694  ASN695  SER759  ASP760  ASP761  ALA762  ILE779  LEU786  VAL792 
 PHE793  MET794  SER795  GLU796  ALA797  LYS798  CYS799  TRP800  GLU811  SER814 

> <Gold.Protein.RotatedAtoms>
  150.6920  134.1990  159.4314 H   0  0  0  0  0  0  0  0  0  0  0  0  # atno 6907 bound_to 6896
  151.9958  134.9953  160.0572 H   0  0  0  0  0  0  0  0  0  0  0  0  # atno 6908 bound_to 6896
  152.1625  133.4556  159.4905 H   0  0  0  0  0  0  0  0  0  0  0  0  # atno 6909 bound_to 6896
  145.9896  140.7195  142.9323 H   0  0  0  0  0  0  0  0  0  0  0  0  # atno 7974 bound_to 7965
  154.4174  140.1732  156.1759 H   0  0  0  0  0  0  0  0  0  0  0  0  # atno 8008 bound_to 7997
  155.9722  140.3384  155.6562 H   0  0  0  0  0  0  0  0  0  0  0  0  # atno 8009 bound_to 7997
  155.6610  140.0701  157.2545 H   0  0  0  0  0  0  0  0  0  0  0  0  # atno 8010 bound_to 7997
  139.8837  144.6425  150.8814 H   0  0  0  0  0  0  0  0  0  0  0  0  # atno 10167 bound_to 10162
  156.3705  130.7785  151.1965 H   0  0  0  0  0  0  0  0  0  0  0  0  # atno 10718 bound_to 10713
  154.0191  135.6671  153.4771 H   0  0  0  0  0  0  0  0  0  0  0  0  # atno 10763 bound_to 10752
  153.0588  135.5040  154.8040 H   0  0  0  0  0  0  0  0  0  0  0  0  # atno 10764 bound_to 10752
  154.6948  135.3068  154.9391 H   0  0  0  0  0  0  0  0  0  0  0  0  # atno 10765 bound_to 10752
  140.6423  133.9478  155.8333 H   0  0  0  0  0  0  0  0  0  0  0  0  # atno 11005 bound_to 11000
  144.6885  140.3047  143.7257 LP  0  0  0  0  0  0  0  0  0  0  0  0  # atno 17320 bound_to 7965
  145.7649  139.1837  143.2245 LP  0  0  0  0  0  0  0  0  0  0  0  0  # atno 17321 bound_to 7965
  140.7740  143.3565  151.1911 LP  0  0  0  0  0  0  0  0  0  0  0  0  # atno 17342 bound_to 10162
  139.7172  143.9281  152.2971 LP  0  0  0  0  0  0  0  0  0  0  0  0  # atno 17343 bound_to 10162
  157.7483  131.0373  150.4452 LP  0  0  0  0  0  0  0  0  0  0  0  0  # atno 17370 bound_to 10713
  156.4678  130.4046  149.6536 LP  0  0  0  0  0  0  0  0  0  0  0  0  # atno 17371 bound_to 10713
  141.0598  134.0363  157.3674 LP  0  0  0  0  0  0  0  0  0  0  0  0  # atno 17394 bound_to 11000
  139.9076  135.0183  156.7552 LP  0  0  0  0  0  0  0  0  0  0  0  0  # atno 17395 bound_to 11000

$$$$
