AV-unprocessed.smi:1856|AV-procd|sdf|7538|dock1
  -GOLD-   22720 9253D 1   1.00000     0.00000
 Structure written by MMmdl.
 45 46  0  0  0  0  0  0  0  0  2 V2000
  144.1454  144.9993  154.1865 C   0  0  0  0  0  0  0  0  0  0  0  0
  144.8307  143.6960  154.6107 C   0  0  0  0  0  0  0  0  0  0  0  0
  146.1932  143.4959  153.9211 C   0  0  0  0  0  0  0  0  0  0  0  0
  146.9043  142.2001  154.3251 C   0  0  0  0  0  0  0  0  0  0  0  0
  146.4616  141.1009  153.9897 O   0  0  0  0  0  0  0  0  0  0  0  0
  148.0144  142.3464  155.0659 N   0  0  0  0  0  0  0  0  0  0  0  0
  148.8497  141.2516  155.5549 C   0  0  1  0  0  0  0  0  0  0  0  0
  149.4992  140.5257  154.3698 C   0  0  0  0  0  0  0  0  0  0  0  0
  149.8985  141.7136  156.5262 C   0  0  0  0  0  0  0  0  0  0  0  0
  150.0973  142.9978  156.9429 N   0  3  0  0  0  0  0  0  0  0  0  0
  151.1520  143.0437  157.8540 C   0  0  0  0  0  0  0  0  0  0  0  0
  151.7083  144.1113  158.5515 C   0  0  0  0  0  0  0  0  0  0  0  0
  152.7844  143.8120  159.4128 C   0  0  0  0  0  0  0  0  0  0  0  0
  153.2683  142.4950  159.5531 C   0  0  0  0  0  0  0  0  0  0  0  0
  152.6969  141.4213  158.8385 C   0  0  0  0  0  0  0  0  0  0  0  0
  151.6320  141.7259  157.9910 C   0  0  0  0  0  0  0  0  0  0  0  0
  150.8364  140.9414  157.1489 N   0  0  0  0  0  0  0  0  0  0  0  0
  151.1037  139.4973  157.0585 C   0  0  0  0  0  0  0  0  0  0  0  0
  151.7625  139.0899  155.7268 C   0  0  2  0  0  0  0  0  0  0  0  0
  151.3792  137.6658  155.3071 C   0  0  0  0  0  0  0  0  0  0  0  0
  153.1691  139.1605  155.8391 O   0  0  0  0  0  0  0  0  0  0  0  0
  143.1842  145.1128  154.6883 H   0  0  0  0  0  0  0  0  0  0  0  0
  143.9635  145.0169  153.1116 H   0  0  0  0  0  0  0  0  0  0  0  0
  144.7568  145.8658  154.4389 H   0  0  0  0  0  0  0  0  0  0  0  0
  144.9587  143.7007  155.6941 H   0  0  0  0  0  0  0  0  0  0  0  0
  144.1720  142.8576  154.3798 H   0  0  0  0  0  0  0  0  0  0  0  0
  146.0592  143.4944  152.8387 H   0  0  0  0  0  0  0  0  0  0  0  0
  146.8497  144.3349  154.1554 H   0  0  0  0  0  0  0  0  0  0  0  0
  148.3117  143.2840  155.2944 H   0  0  0  0  0  0  0  0  0  0  0  0
  148.1939  140.5443  156.0645 H   0  0  0  0  0  0  0  0  0  0  0  0
  150.0748  139.6634  154.7080 H   0  0  0  0  0  0  0  0  0  0  0  0
  150.1753  141.1823  153.8210 H   0  0  0  0  0  0  0  0  0  0  0  0
  148.7456  140.1625  153.6702 H   0  0  0  0  0  0  0  0  0  0  0  0
  151.3389  145.1208  158.4459 H   0  0  0  0  0  0  0  0  0  0  0  0
  153.2478  144.6082  159.9777 H   0  0  0  0  0  0  0  0  0  0  0  0
  154.0943  142.3040  160.2228 H   0  0  0  0  0  0  0  0  0  0  0  0
  153.0735  140.4155  158.9544 H   0  0  0  0  0  0  0  0  0  0  0  0
  151.7395  139.2196  157.8998 H   0  0  0  0  0  0  0  0  0  0  0  0
  150.1633  138.9645  157.2043 H   0  0  0  0  0  0  0  0  0  0  0  0
  151.4571  139.7811  154.9409 H   0  0  0  0  0  0  0  0  0  0  0  0
  150.2999  137.5719  155.1847 H   0  0  0  0  0  0  0  0  0  0  0  0
  151.6944  136.9331  156.0511 H   0  0  0  0  0  0  0  0  0  0  0  0
  151.8431  137.3967  154.3574 H   0  0  0  0  0  0  0  0  0  0  0  0
  153.5457  138.3958  155.4305 H   0  0  0  0  0  0  0  0  0  0  0  0
  149.5385  143.7820  156.6322 H   0  0  0  0  0  0  0  0  0  0  0  0
  1  2  1  0  0  0  0
  1 22  1  0  0  0  0
  1 23  1  0  0  0  0
  1 24  1  0  0  0  0
  2  3  1  0  0  0  0
  2 25  1  0  0  0  0
  2 26  1  0  0  0  0
  3  4  1  0  0  0  0
  3 27  1  0  0  0  0
  3 28  1  0  0  0  0
  4  5  2  0  0  0  0
  4  6  1  0  0  0  0
  6  7  1  0  0  0  0
  6 29  1  0  0  0  0
  7  8  1  0  0  0  0
  7  9  1  0  0  0  0
  7 30  1  0  0  0  0
  8 31  1  0  0  0  0
  8 32  1  0  0  0  0
  8 33  1  0  0  0  0
  9 17  1  0  0  0  0
  9 10  2  0  0  0  0
 10 11  1  0  0  0  0
 10 45  1  0  0  0  0
 11 16  2  0  0  0  0
 11 12  1  0  0  0  0
 12 13  2  0  0  0  0
 12 34  1  0  0  0  0
 13 14  1  0  0  0  0
 13 35  1  0  0  0  0
 14 15  2  0  0  0  0
 14 36  1  0  0  0  0
 15 16  1  0  0  0  0
 15 37  1  0  0  0  0
 16 17  1  0  0  0  0
 17 18  1  0  0  0  0
 18 19  1  0  0  0  0
 18 38  1  0  0  0  0
 18 39  1  0  0  0  0
 19 20  1  0  0  0  0
 19 21  1  0  0  0  0
 19 40  1  0  0  0  0
 20 41  1  0  0  0  0
 20 42  1  0  0  0  0
 20 43  1  0  0  0  0
 21 44  1  0  0  0  0
M  CHG  1  10   1
M  END
> <s_m_source_file>
AV-unprocessed.smi

> <i_m_source_file_index>
1856

> <i_lp_mmshare_version>
43012

> <i_f3d_flags>
0

> <s_epik_input>
W0NIM11bQ0gyXVtDSDJdQyg9TylbTkhdW0NASF0oW0NIM10pYyhuMSluKFtDSDJdW0NASF0oW0NIM10pW09IXSljKGMxMilbY0hdW2NIXVtjSF1bY0hdMg==

> <s_epik_cmdline>
J2VwaWtfcHl0aG9uJywgJy1waCcsICc3LjAnLCAnLXRuJywgJzgnLCAnLW1hJywgJzIwMCcsICctbWV0YWxfYmluZGluZycsICctaW1hZScsICc8aW5maWxlLm1hZT4nLCAnLW9tYWUnLCAnPG91dGZpbGUubWFlPic=

> <r_epik_Ionization_Penalty>
0.945588

> <r_epik_Ionization_Penalty_Charging>
0.945588

> <r_epik_Ionization_Penalty_Neutral>
8.64698e-08

> <r_epik_State_Penalty>
0.989378

> <r_epik_Charging_Adjusted_Penalty>
1.93497

> <i_epik_Tot_Q>
1

> <i_epik_Tot_abs_Q>
1

> <r_epik_Metal_State_Penalty>
1.10045

> <b_epik_Metal_Only>
0

> <s_lp_Force_Field>
OPLS_2005

> <r_lp_Energy>
6.55933

> <b_lp_Chiralities_Consistent>
1

> <s_lp_Variant>
AV-unprocessed.smi:1856-6

> <Gold.Version>
5.8.1

> <Gold.Id.Protein>
6NUR|6NUR_protein|mol2

> <Gold.PLP.Fitness>
57.6991

> <Gold.PLP.PLP>
-46.9175

> <Gold.PLP.part.hbond>
-2.7969

> <Gold.PLP.part.metal>
0.0000

> <Gold.PLP.part.buried>
-6.3254

> <Gold.PLP.part.nonpolar>
-39.3113

> <Gold.PLP.part.repulsive>
0.3208

> <Gold.PLP.ligand.clash>
0.0000

> <Gold.PLP.ligand.torsion>
0.6558

> <Gold.PLP.Chemscore.Hbond>
4.0000

> <Gold.PLP.Chemscore.CHOScore>
0.0000

> <Gold.PLP.Chemscore.Metal>
0.0000

> <Gold.Chemscore.Hbonds>
donor molecule, donor type, donor heavy atom, donor atom, acceptor molecule, acceptor atom, score
      L1  H     6    29       P1  8028  1.00
      L1  H    10    45       P1  8028  1.82
      P1  H  7997  8009       L1    21  1.00

> <Gold.PLP.Chemscore.Internal.Correction>
0.0932

> <Gold.Rescore>
     Score         DG    S(hbond)    S(metal)    S(lipo)     H(rot)  DE(clash)    DE(int)     intcor
     20.27     -21.27       2.89        0.00     107.53       2.52       0.01       0.99       ----

> <Gold.Chemscore.Fitness>
20.2653

> <Gold.Chemscore.DG>
-21.2677

> <Gold.Chemscore.ZeroCoef>
-5.4800

> <Gold.Chemscore.Hbond>
2.8886

> <Gold.Chemscore.Metal>
0.0000

> <Gold.Chemscore.Lipo>
107.5289

> <Gold.Chemscore.Internal_Hbond>
0.0000

> <Gold.Chemscore.DEClash>
0.0089

> <Gold.Chemscore.DEInternal>
0.9935

> <Gold.Chemscore.Rot>
2.5161

> <Gold.Chemscore.Internal.Correction>
   9.000000E+99

> <Gold.Chemscore.Hbonds>
donor molecule, donor type, donor heavy atom, donor atom, acceptor molecule, acceptor atom, score
      L1  H     6    29       P1  8028  0.94
      L1  H    10    45       P1  8028  0.86
      P1  H  7997  8009       L1    21  0.38

> <Gold.Chemscore.Hbond.Weighted>
-9.6479

> <Gold.Chemscore.Metal.Weighted>
-0.0000

> <Gold.Chemscore.Lipo.Weighted>
-12.5809

> <Gold.Chemscore.Internal_Hbond.Weighted>
0.0000

> <Gold.Chemscore.DEClash.Weighted>
0.0089

> <Gold.Chemscore.DEInternal.Weighted>
0.9935

> <Gold.Chemscore.Rot.Weighted>
6.4412

> <Gold.Chemscore.Internal.Correction.Weighted>
   9.000000E+99

> <Gold.Protein.RotatedTorsions>
[ 6907 6896 6895 6894 ] final -105.47 input  -60.11 | X-H torsion
[ 7974 7965 7964 7962 ] final    4.44 input  175.53 | X-H torsion
[ 8008 7997 7996 7995 ] final -140.26 input   59.86 | X-H torsion
[ 10167 10162 10161 10158 ] final   90.04 input  -65.29 | X-H torsion
[ 10718 10713 10712 10709 ] final -130.64 input   66.30 | X-H torsion
[ 10763 10752 10751 10750 ] final   78.60 input  -60.55 | X-H torsion
[ 11005 11000 10999 10996 ] final   75.51 input  -57.11 | X-H torsion

> <Gold.Protein.ActiveResidues>
 VAL166  LYS551  ARG553  GLY616  TRP617  ASP618  TYR619  PRO620  LYS621  CYS622 
 ASP623  PHE694  ASN695  SER759  ASP760  ASP761  ALA762  ILE779  LEU786  VAL792 
 PHE793  MET794  SER795  GLU796  ALA797  LYS798  CYS799  TRP800  GLU811  SER814 

> <Gold.Protein.RotatedAtoms>
  150.7338  134.0122  159.3673 H   0  0  0  0  0  0  0  0  0  0  0  0  # atno 6907 bound_to 6896
  151.8082  135.0686  160.0419 H   0  0  0  0  0  0  0  0  0  0  0  0  # atno 6908 bound_to 6896
  152.3092  133.5698  159.5705 H   0  0  0  0  0  0  0  0  0  0  0  0  # atno 6909 bound_to 6896
  146.2444  140.0534  142.8373 H   0  0  0  0  0  0  0  0  0  0  0  0  # atno 7974 bound_to 7965
  155.4584  140.0544  157.2993 H   0  0  0  0  0  0  0  0  0  0  0  0  # atno 8008 bound_to 7997
  154.4748  140.2056  155.9861 H   0  0  0  0  0  0  0  0  0  0  0  0  # atno 8009 bound_to 7997
  156.1114  140.3203  155.8082 H   0  0  0  0  0  0  0  0  0  0  0  0  # atno 8010 bound_to 7997
  139.8512  144.6592  150.9167 H   0  0  0  0  0  0  0  0  0  0  0  0  # atno 10167 bound_to 10162
  156.2165  130.6951  151.0708 H   0  0  0  0  0  0  0  0  0  0  0  0  # atno 10718 bound_to 10713
  153.0887  135.4871  154.8647 H   0  0  0  0  0  0  0  0  0  0  0  0  # atno 10763 bound_to 10752
  154.7242  135.3046  154.9000 H   0  0  0  0  0  0  0  0  0  0  0  0  # atno 10764 bound_to 10752
  153.9655  135.6807  153.4799 H   0  0  0  0  0  0  0  0  0  0  0  0  # atno 10765 bound_to 10752
  139.9340  134.7523  156.1279 H   0  0  0  0  0  0  0  0  0  0  0  0  # atno 11005 bound_to 11000
  145.0964  140.9317  143.4739 LP  0  0  0  0  0  0  0  0  0  0  0  0  # atno 17320 bound_to 7965
  145.0718  139.3026  143.5828 LP  0  0  0  0  0  0  0  0  0  0  0  0  # atno 17321 bound_to 7965
  140.7787  143.3825  151.1451 LP  0  0  0  0  0  0  0  0  0  0  0  0  # atno 17342 bound_to 10162
  139.7463  143.8846  152.3064 LP  0  0  0  0  0  0  0  0  0  0  0  0  # atno 17343 bound_to 10162
  157.7066  131.0754  150.6647 LP  0  0  0  0  0  0  0  0  0  0  0  0  # atno 17370 bound_to 10713
  156.6708  130.4539  149.5658 LP  0  0  0  0  0  0  0  0  0  0  0  0  # atno 17371 bound_to 10713
  141.0945  133.6701  156.2614 LP  0  0  0  0  0  0  0  0  0  0  0  0  # atno 17394 bound_to 11000
  140.6124  134.5445  157.5535 LP  0  0  0  0  0  0  0  0  0  0  0  0  # atno 17395 bound_to 11000

$$$$
