AV-unprocessed.smi:1439|AV-procd|sdf|5872|dock10
  -GOLD-   22720 5553D 1   1.00000     0.00000
 Structure written by MMmdl.
 35 36  0  0  0  0  0  0  0  0  2 V2000
  145.0725  137.9992  151.8819 N   0  0  0  0  0  0  0  0  0  0  0  0
  146.3703  138.3115  151.9527 C   0  0  0  0  0  0  0  0  0  0  0  0
  147.0079  138.6683  150.9640 O   0  0  0  0  0  0  0  0  0  0  0  0
  147.0508  138.2419  153.3255 C   0  0  0  0  0  0  0  0  0  0  0  0
  147.3796  139.6098  153.8555 C   0  0  0  0  0  0  0  0  0  0  0  0
  146.5190  140.6697  153.9839 C   0  0  0  0  0  0  0  0  0  0  0  0
  147.3126  142.0671  154.6511 S   0  0  0  0  0  0  0  0  0  0  0  0
  148.8206  141.1554  154.7382 C   0  0  0  0  0  0  0  0  0  0  0  0
  149.9846  141.6399  155.1975 N   0  5  0  0  0  0  0  0  0  0  0  0
  150.9424  140.7824  155.6246 C   0  0  0  0  0  0  0  0  0  0  0  0
  151.4138  139.8032  155.0433 O   0  0  0  0  0  0  0  0  0  0  0  0
  151.4563  141.1447  157.0242 C   0  0  0  0  0  0  0  0  0  0  0  0
  150.3446  141.7157  157.9226 C   0  0  0  0  0  0  0  0  0  0  0  0
  150.8777  142.7055  158.9687 C   0  0  1  0  0  0  0  0  0  0  0  0
  152.0756  142.1833  159.7583 C   0  0  0  0  0  0  0  0  0  0  0  0
  152.6974  143.4715  160.2470 C   0  0  0  0  0  0  0  0  0  0  0  0
  152.4875  144.4003  159.0530 C   0  0  0  0  0  0  0  0  0  0  0  0
  151.3530  143.8979  158.3501 O   0  0  0  0  0  0  0  0  0  0  0  0
  148.6800  139.9093  154.2731 N   0  0  0  0  0  0  0  0  0  0  0  0
  144.6027  138.0067  150.9884 H   0  0  0  0  0  0  0  0  0  0  0  0
  144.5746  137.7285  152.7178 H   0  0  0  0  0  0  0  0  0  0  0  0
  146.3989  137.7134  154.0223 H   0  0  0  0  0  0  0  0  0  0  0  0
  147.9541  137.6382  153.2336 H   0  0  0  0  0  0  0  0  0  0  0  0
  145.4703  140.7128  153.7314 H   0  0  0  0  0  0  0  0  0  0  0  0
  151.8716  140.2432  157.4760 H   0  0  0  0  0  0  0  0  0  0  0  0
  152.2764  141.8632  156.9658 H   0  0  0  0  0  0  0  0  0  0  0  0
  149.6063  142.2234  157.3002 H   0  0  0  0  0  0  0  0  0  0  0  0
  149.8172  140.9047  158.4269 H   0  0  0  0  0  0  0  0  0  0  0  0
  150.0848  142.9794  159.6668 H   0  0  0  0  0  0  0  0  0  0  0  0
  151.7919  141.5100  160.5677 H   0  0  0  0  0  0  0  0  0  0  0  0
  152.7714  141.6582  159.1022 H   0  0  0  0  0  0  0  0  0  0  0  0
  152.1491  143.8441  161.1133 H   0  0  0  0  0  0  0  0  0  0  0  0
  153.7461  143.3646  160.5258 H   0  0  0  0  0  0  0  0  0  0  0  0
  152.3364  145.4355  159.3603 H   0  0  0  0  0  0  0  0  0  0  0  0
  153.3490  144.3680  158.3852 H   0  0  0  0  0  0  0  0  0  0  0  0
  1  2  1  0  0  0  0
  1 20  1  0  0  0  0
  1 21  1  0  0  0  0
  2  3  2  0  0  0  0
  2  4  1  0  0  0  0
  4  5  1  0  0  0  0
  4 22  1  0  0  0  0
  4 23  1  0  0  0  0
  5 19  1  0  0  0  0
  5  6  2  0  0  0  0
  6  7  1  0  0  0  0
  6 24  1  0  0  0  0
  7  8  1  0  0  0  0
  8  9  1  0  0  0  0
  8 19  2  0  0  0  0
  9 10  1  0  0  0  0
 10 11  2  0  0  0  0
 10 12  1  0  0  0  0
 12 13  1  0  0  0  0
 12 25  1  0  0  0  0
 12 26  1  0  0  0  0
 13 14  1  0  0  0  0
 13 27  1  0  0  0  0
 13 28  1  0  0  0  0
 14 18  1  0  0  0  0
 14 15  1  0  0  0  0
 14 29  1  0  0  0  0
 15 16  1  0  0  0  0
 15 30  1  0  0  0  0
 15 31  1  0  0  0  0
 16 17  1  0  0  0  0
 16 32  1  0  0  0  0
 16 33  1  0  0  0  0
 17 18  1  0  0  0  0
 17 34  1  0  0  0  0
 17 35  1  0  0  0  0
M  CHG  1   9  -1
M  END
> <s_m_source_file>
AV-unprocessed.smi

> <i_m_source_file_index>
1439

> <i_lp_mmshare_version>
43012

> <i_f3d_flags>
0

> <s_epik_input>
W05IMl1DKD1PKVtDSDJdYzFbY0hdc2MobjEpW05IXUMoPU8pW0NIMl1bQ0gyXVtDQEBIXTJbQ0gyXVtDSDJdW0NIMl1PMg==

> <s_epik_cmdline>
J2VwaWtfcHl0aG9uJywgJy1waCcsICc3LjAnLCAnLXRuJywgJzgnLCAnLW1hJywgJzIwMCcsICctbWV0YWxfYmluZGluZycsICctaW1hZScsICc8aW5maWxlLm1hZT4nLCAnLW9tYWUnLCAnPG91dGZpbGUubWFlPic=

> <r_lp_tautomer_probability>
1

> <r_epik_Ionization_Penalty>
4.85214

> <r_epik_Ionization_Penalty_Charging>
4.5239

> <r_epik_Ionization_Penalty_Neutral>
0.32824

> <r_epik_State_Penalty>
4.52362

> <r_epik_Charging_Adjusted_Penalty>
9.04752

> <i_epik_Tot_Q>
-1

> <i_epik_Tot_abs_Q>
1

> <r_epik_Metal_State_Penalty>
0.831335

> <b_epik_Metal_Only>
1

> <s_lp_Force_Field>
OPLS_2005

> <r_lp_Energy>
13.9468

> <b_lp_Chiralities_Consistent>
1

> <s_lp_Variant>
AV-unprocessed.smi:1439-4

> <Gold.Version>
5.8.1

> <Gold.Id.Protein>
6NUR|6NUR_protein|mol2

> <Gold.PLP.Fitness>
44.5145

> <Gold.PLP.PLP>
-35.9582

> <Gold.PLP.part.hbond>
-4.5207

> <Gold.PLP.part.metal>
0.0000

> <Gold.PLP.part.buried>
-4.7351

> <Gold.PLP.part.nonpolar>
-27.9996

> <Gold.PLP.part.repulsive>
1.0300

> <Gold.PLP.ligand.clash>
0.0079

> <Gold.PLP.ligand.torsion>
1.2842

> <Gold.PLP.Chemscore.Hbond>
2.6500

> <Gold.PLP.Chemscore.CHOScore>
1.0000

> <Gold.PLP.Chemscore.Metal>
0.0000

> <Gold.Chemscore.Hbonds>
donor molecule, donor type, donor heavy atom, donor atom, acceptor molecule, acceptor atom, score
      L1  H     1    20       P1 10171  0.93
      P1  H  7954  7966       L1     3  0.94
      P1  H  7989  7998       L1    11  0.45
      L1  C     6    24       P1 10175  1.00

> <Gold.PLP.Chemscore.Internal.Correction>
0.1825

> <Gold.Rescore>
     Score         DG    S(hbond)    S(metal)    S(lipo)     H(rot)  DE(clash)    DE(int)     intcor
     11.40     -14.58       2.05        0.00      74.09       2.51       0.36       2.82       ----

> <Gold.Chemscore.Fitness>
11.4019

> <Gold.Chemscore.DG>
-14.5813

> <Gold.Chemscore.ZeroCoef>
-5.4800

> <Gold.Chemscore.Hbond>
2.0536

> <Gold.Chemscore.Metal>
0.0000

> <Gold.Chemscore.Lipo>
74.0918

> <Gold.Chemscore.Internal_Hbond>
0.0000

> <Gold.Chemscore.DEClash>
0.3601

> <Gold.Chemscore.DEInternal>
2.8193

> <Gold.Chemscore.Rot>
2.5103

> <Gold.Chemscore.Internal.Correction>
   9.000000E+99

> <Gold.Chemscore.Hbonds>
donor molecule, donor type, donor heavy atom, donor atom, acceptor molecule, acceptor atom, score
      L1  H     1    20       P1 10171  0.88
      P1  H  7954  7966       L1     3  0.91
      P1  H  7989  7998       L1    11  0.02

> <Gold.Chemscore.Hbond.Weighted>
-6.8589

> <Gold.Chemscore.Metal.Weighted>
-0.0000

> <Gold.Chemscore.Lipo.Weighted>
-8.6687

> <Gold.Chemscore.Internal_Hbond.Weighted>
0.0000

> <Gold.Chemscore.DEClash.Weighted>
0.3601

> <Gold.Chemscore.DEInternal.Weighted>
2.8193

> <Gold.Chemscore.Rot.Weighted>
6.4264

> <Gold.Chemscore.Internal.Correction.Weighted>
   9.000000E+99

> <Gold.Protein.RotatedTorsions>
[ 6907 6896 6895 6894 ] final   -6.82 input  -60.11 | X-H torsion
[ 7974 7965 7964 7962 ] final   32.50 input  175.53 | X-H torsion
[ 8008 7997 7996 7995 ] final  160.65 input   59.86 | X-H torsion
[ 10167 10162 10161 10158 ] final   15.84 input  -65.29 | X-H torsion
[ 10718 10713 10712 10709 ] final -113.25 input   66.30 | X-H torsion
[ 10763 10752 10751 10750 ] final   65.08 input  -60.55 | X-H torsion
[ 11005 11000 10999 10996 ] final   41.79 input  -57.11 | X-H torsion

> <Gold.Protein.ActiveResidues>
 VAL166  LYS551  ARG553  GLY616  TRP617  ASP618  TYR619  PRO620  LYS621  CYS622 
 ASP623  PHE694  ASN695  SER759  ASP760  ASP761  ALA762  ILE779  LEU786  VAL792 
 PHE793  MET794  SER795  GLU796  ALA797  LYS798  CYS799  TRP800  GLU811  SER814 

> <Gold.Protein.RotatedAtoms>
  151.4594  135.1037  159.9720 H   0  0  0  0  0  0  0  0  0  0  0  0  # atno 6907 bound_to 6896
  152.4858  133.8366  159.7141 H   0  0  0  0  0  0  0  0  0  0  0  0  # atno 6908 bound_to 6896
  150.8967  133.7111  159.2917 H   0  0  0  0  0  0  0  0  0  0  0  0  # atno 6909 bound_to 6896
  146.1482  139.6518  142.9117 H   0  0  0  0  0  0  0  0  0  0  0  0  # atno 7974 bound_to 7965
  156.2158  140.1798  156.7592 H   0  0  0  0  0  0  0  0  0  0  0  0  # atno 8008 bound_to 7997
  154.5789  140.0669  156.9104 H   0  0  0  0  0  0  0  0  0  0  0  0  # atno 8009 bound_to 7997
  155.2538  140.3331  155.4282 H   0  0  0  0  0  0  0  0  0  0  0  0  # atno 8010 bound_to 7997
  140.5839  143.8928  150.6813 H   0  0  0  0  0  0  0  0  0  0  0  0  # atno 10167 bound_to 10162
  156.0755  130.5963  150.8618 H   0  0  0  0  0  0  0  0  0  0  0  0  # atno 10718 bound_to 10713
  153.0081  135.5370  154.6611 H   0  0  0  0  0  0  0  0  0  0  0  0  # atno 10763 bound_to 10752
  154.5819  135.2851  155.0726 H   0  0  0  0  0  0  0  0  0  0  0  0  # atno 10764 bound_to 10752
  154.1852  135.6509  153.5097 H   0  0  0  0  0  0  0  0  0  0  0  0  # atno 10765 bound_to 10752
  140.1801  134.4114  155.8205 H   0  0  0  0  0  0  0  0  0  0  0  0  # atno 11005 bound_to 11000
  145.4887  141.0438  143.2605 LP  0  0  0  0  0  0  0  0  0  0  0  0  # atno 17320 bound_to 7965
  144.7872  139.6403  143.7129 LP  0  0  0  0  0  0  0  0  0  0  0  0  # atno 17321 bound_to 7965
  140.2434  143.3647  152.1467 LP  0  0  0  0  0  0  0  0  0  0  0  0  # atno 17342 bound_to 10162
  139.5186  144.7008  151.5500 LP  0  0  0  0  0  0  0  0  0  0  0  0  # atno 17343 bound_to 10162
  157.5848  131.0945  150.9213 LP  0  0  0  0  0  0  0  0  0  0  0  0  # atno 17370 bound_to 10713
  156.9401  130.5381  149.5280 LP  0  0  0  0  0  0  0  0  0  0  0  0  # atno 17371 bound_to 10713
  141.2222  133.6996  156.7916 LP  0  0  0  0  0  0  0  0  0  0  0  0  # atno 17394 bound_to 11000
  140.2277  134.8709  157.3444 LP  0  0  0  0  0  0  0  0  0  0  0  0  # atno 17395 bound_to 11000

$$$$
