AV-unprocessed.smi:2340|AV-procd|sdf|9350|dock3
  -GOLD-   2272012573D 1   1.00000     0.00000
 Structure written by MMmdl.
 40 41  0  0  0  0  0  0  0  0  1 V2000
  145.2096  135.4064  151.4004 C   0  0  0  0  0  0  0  0  0  0  0  0
  145.7481  134.0461  151.7140 C   0  0  0  0  0  0  0  0  0  0  0  0
  145.0723  132.8536  151.6465 C   0  0  0  0  0  0  0  0  0  0  0  0
  146.0838  131.5077  152.0941 S   0  0  0  0  0  0  0  0  0  0  0  0
  147.4111  132.6328  152.3626 C   0  0  0  0  0  0  0  0  0  0  0  0
  148.7810  132.2001  152.7904 C   0  0  2  0  0  0  0  0  0  0  0  0
  148.8987  130.6727  152.8916 C   0  0  0  0  0  0  0  0  0  0  0  0
  149.2680  132.9268  154.0591 C   0  0  0  0  0  0  0  0  0  0  0  0
  149.4276  134.3587  153.8234 N   0  0  0  0  0  0  0  0  0  0  0  0
  149.9810  135.2260  154.6804 C   0  0  0  0  0  0  0  0  0  0  0  0
  150.4607  134.9142  155.7704 O   0  0  0  0  0  0  0  0  0  0  0  0
  149.9458  136.4783  154.2065 N   0  0  0  0  0  0  0  0  0  0  0  0
  150.4578  137.6487  154.9108 C   0  0  1  0  0  0  0  0  0  0  0  0
  151.9713  137.7391  154.8784 C   0  0  0  0  0  0  0  0  0  0  0  0
  152.2100  139.2331  155.0798 C   0  0  0  0  0  0  0  0  0  0  0  0
  151.0565  139.8967  154.5701 O   0  0  0  0  0  0  0  0  0  0  0  0
  150.0632  138.9459  154.2006 C   0  0  2  0  0  0  0  0  0  0  0  0
  148.6658  139.4594  154.5663 C   0  0  0  0  0  0  0  0  0  0  0  0
  147.0768  133.9046  152.1229 N   0  0  0  0  0  0  0  0  0  0  0  0
  144.1572  135.3635  151.1188 H   0  0  0  0  0  0  0  0  0  0  0  0
  145.7536  135.8634  150.5737 H   0  0  0  0  0  0  0  0  0  0  0  0
  145.2935  136.0712  152.2605 H   0  0  0  0  0  0  0  0  0  0  0  0
  144.0446  132.6855  151.3606 H   0  0  0  0  0  0  0  0  0  0  0  0
  149.4559  132.4998  151.9873 H   0  0  0  0  0  0  0  0  0  0  0  0
  148.6400  130.1961  151.9456 H   0  0  0  0  0  0  0  0  0  0  0  0
  148.2348  130.2738  153.6592 H   0  0  0  0  0  0  0  0  0  0  0  0
  149.9162  130.3739  153.1445 H   0  0  0  0  0  0  0  0  0  0  0  0
  148.5544  132.7533  154.8668 H   0  0  0  0  0  0  0  0  0  0  0  0
  150.2227  132.5162  154.3895 H   0  0  0  0  0  0  0  0  0  0  0  0
  149.0663  134.7184  152.9521 H   0  0  0  0  0  0  0  0  0  0  0  0
  149.5286  136.6362  153.3010 H   0  0  0  0  0  0  0  0  0  0  0  0
  150.1080  137.6670  155.9451 H   0  0  0  0  0  0  0  0  0  0  0  0
  152.4546  137.1249  155.6388 H   0  0  0  0  0  0  0  0  0  0  0  0
  152.3519  137.4343  153.9022 H   0  0  0  0  0  0  0  0  0  0  0  0
  152.2963  139.4637  156.1422 H   0  0  0  0  0  0  0  0  0  0  0  0
  153.1186  139.5767  154.5849 H   0  0  0  0  0  0  0  0  0  0  0  0
  150.1350  138.8112  153.1197 H   0  0  0  0  0  0  0  0  0  0  0  0
  147.8987  138.7331  154.2966 H   0  0  0  0  0  0  0  0  0  0  0  0
  148.4439  140.3897  154.0431 H   0  0  0  0  0  0  0  0  0  0  0  0
  148.5840  139.6517  155.6365 H   0  0  0  0  0  0  0  0  0  0  0  0
  1  2  1  0  0  0  0
  1 20  1  0  0  0  0
  1 21  1  0  0  0  0
  1 22  1  0  0  0  0
  2 19  1  0  0  0  0
  2  3  2  0  0  0  0
  3  4  1  0  0  0  0
  3 23  1  0  0  0  0
  4  5  1  0  0  0  0
  5  6  1  0  0  0  0
  5 19  2  0  0  0  0
  6  7  1  0  0  0  0
  6  8  1  0  0  0  0
  6 24  1  0  0  0  0
  7 25  1  0  0  0  0
  7 26  1  0  0  0  0
  7 27  1  0  0  0  0
  8  9  1  0  0  0  0
  8 28  1  0  0  0  0
  8 29  1  0  0  0  0
  9 10  1  0  0  0  0
  9 30  1  0  0  0  0
 10 11  2  0  0  0  0
 10 12  1  0  0  0  0
 12 13  1  0  0  0  0
 12 31  1  0  0  0  0
 13 17  1  0  0  0  0
 13 14  1  0  0  0  0
 13 32  1  0  0  0  0
 14 15  1  0  0  0  0
 14 33  1  0  0  0  0
 14 34  1  0  0  0  0
 15 16  1  0  0  0  0
 15 35  1  0  0  0  0
 15 36  1  0  0  0  0
 16 17  1  0  0  0  0
 17 18  1  0  0  0  0
 17 37  1  0  0  0  0
 18 38  1  0  0  0  0
 18 39  1  0  0  0  0
 18 40  1  0  0  0  0
M  END
> <s_m_source_file>
AV-unprocessed.smi

> <i_m_source_file_index>
2340

> <i_lp_mmshare_version>
43012

> <i_f3d_flags>
0

> <s_epik_input>
W0NIM11jMVtjSF1zYyhuMSlbQ0BIXShbQ0gzXSlbQ0gyXVtOSF1DKD1PKVtOSF1bQ0BASF0yW0NIMl1bQ0gyXU9bQ0BIXTJbQ0gzXQ==

> <s_epik_cmdline>
J2VwaWtfcHl0aG9uJywgJy1waCcsICc3LjAnLCAnLXRuJywgJzgnLCAnLW1hJywgJzIwMCcsICctbWV0YWxfYmluZGluZycsICctaW1hZScsICc8aW5maWxlLm1hZT4nLCAnLW9tYWUnLCAnPG91dGZpbGUubWFlPic=

> <r_epik_Ionization_Penalty>
0.00156622

> <r_epik_Ionization_Penalty_Charging>
0

> <r_epik_Ionization_Penalty_Neutral>
0.00156622

> <r_epik_State_Penalty>
0.00101902

> <r_epik_Charging_Adjusted_Penalty>
0.00101902

> <i_epik_Tot_Q>
0

> <i_epik_Tot_abs_Q>
0

> <r_epik_Metal_State_Penalty>
-0

> <b_epik_Metal_Only>
0

> <s_lp_Force_Field>
OPLS_2005

> <r_lp_Energy>
5.83327

> <b_lp_Chiralities_Consistent>
1

> <s_lp_Variant>
AV-unprocessed.smi:2340-7

> <Gold.Version>
5.8.1

> <Gold.Id.Protein>
6NUR|6NUR_protein|mol2

> <Gold.PLP.Fitness>
43.2989

> <Gold.PLP.PLP>
-35.3362

> <Gold.PLP.part.hbond>
-3.1950

> <Gold.PLP.part.metal>
0.0000

> <Gold.PLP.part.buried>
-5.1538

> <Gold.PLP.part.nonpolar>
-28.9943

> <Gold.PLP.part.repulsive>
1.6013

> <Gold.PLP.ligand.clash>
0.0000

> <Gold.PLP.ligand.torsion>
0.2627

> <Gold.PLP.Chemscore.Hbond>
2.7808

> <Gold.PLP.Chemscore.CHOScore>
0.0000

> <Gold.PLP.Chemscore.Metal>
0.0000

> <Gold.Chemscore.Hbonds>
donor molecule, donor type, donor heavy atom, donor atom, acceptor molecule, acceptor atom, score
      L1  H     9    30       P1  7948  0.45
      L1  H    12    31       P1  7948  1.00
      P1  H  7989  7998       L1    16  1.00

> <Gold.PLP.Chemscore.Internal.Correction>
0.1458

> <Gold.Rescore>
     Score         DG    S(hbond)    S(metal)    S(lipo)     H(rot)  DE(clash)    DE(int)     intcor
     17.19     -17.79       1.97        0.00      82.62       1.53       0.18       0.42       ----

> <Gold.Chemscore.Fitness>
17.1935

> <Gold.Chemscore.DG>
-17.7914

> <Gold.Chemscore.ZeroCoef>
-5.4800

> <Gold.Chemscore.Hbond>
1.9666

> <Gold.Chemscore.Metal>
0.0000

> <Gold.Chemscore.Lipo>
82.6190

> <Gold.Chemscore.Internal_Hbond>
0.0000

> <Gold.Chemscore.DEClash>
0.1761

> <Gold.Chemscore.DEInternal>
0.4218

> <Gold.Chemscore.Rot>
1.5325

> <Gold.Chemscore.Internal.Correction>
   9.000000E+99

> <Gold.Chemscore.Hbonds>
donor molecule, donor type, donor heavy atom, donor atom, acceptor molecule, acceptor atom, score
      L1  H     9    30       P1  7948  0.02
      L1  H    12    31       P1  7948  0.62
      P1  H  7989  7998       L1    16  0.37

> <Gold.Chemscore.Hbond.Weighted>
-6.5683

> <Gold.Chemscore.Metal.Weighted>
-0.0000

> <Gold.Chemscore.Lipo.Weighted>
-9.6664

> <Gold.Chemscore.Internal_Hbond.Weighted>
0.0000

> <Gold.Chemscore.DEClash.Weighted>
0.1761

> <Gold.Chemscore.DEInternal.Weighted>
0.4218

> <Gold.Chemscore.Rot.Weighted>
3.9233

> <Gold.Chemscore.Internal.Correction.Weighted>
   9.000000E+99

> <Gold.Protein.RotatedTorsions>
[ 6907 6896 6895 6894 ] final  -72.72 input  -60.11 | X-H torsion
[ 7974 7965 7964 7962 ] final  148.11 input  175.53 | X-H torsion
[ 8008 7997 7996 7995 ] final    0.41 input   59.86 | X-H torsion
[ 10167 10162 10161 10158 ] final -174.31 input  -65.29 | X-H torsion
[ 10718 10713 10712 10709 ] final  128.05 input   66.30 | X-H torsion
[ 10763 10752 10751 10750 ] final  -33.12 input  -60.55 | X-H torsion
[ 11005 11000 10999 10996 ] final  -89.25 input  -57.11 | X-H torsion

> <Gold.Protein.ActiveResidues>
 VAL166  LYS551  ARG553  GLY616  TRP617  ASP618  TYR619  PRO620  LYS621  CYS622 
 ASP623  PHE694  ASN695  SER759  ASP760  ASP761  ALA762  ILE779  LEU786  VAL792 
 PHE793  MET794  SER795  GLU796  ALA797  LYS798  CYS799  TRP800  GLU811  SER814 

> <Gold.Protein.RotatedAtoms>
  150.7158  134.5121  159.5612 H   0  0  0  0  0  0  0  0  0  0  0  0  # atno 6907 bound_to 6896
  152.2695  134.7945  160.0425 H   0  0  0  0  0  0  0  0  0  0  0  0  # atno 6908 bound_to 6896
  151.8629  133.3425  159.3746 H   0  0  0  0  0  0  0  0  0  0  0  0  # atno 6909 bound_to 6896
  144.8539  139.6113  143.5961 H   0  0  0  0  0  0  0  0  0  0  0  0  # atno 7974 bound_to 7965
  154.6678  140.2605  155.7040 H   0  0  0  0  0  0  0  0  0  0  0  0  # atno 8008 bound_to 7997
  156.2646  140.2835  156.1097 H   0  0  0  0  0  0  0  0  0  0  0  0  # atno 8009 bound_to 7997
  155.1213  140.0377  157.2741 H   0  0  0  0  0  0  0  0  0  0  0  0  # atno 8010 bound_to 7997
  139.5641  144.1798  152.1285 H   0  0  0  0  0  0  0  0  0  0  0  0  # atno 10167 bound_to 10162
  157.5279  131.1098  150.9055 H   0  0  0  0  0  0  0  0  0  0  0  0  # atno 10718 bound_to 10713
  153.8249  135.6871  153.4822 H   0  0  0  0  0  0  0  0  0  0  0  0  # atno 10763 bound_to 10752
  153.1546  135.4604  154.9684 H   0  0  0  0  0  0  0  0  0  0  0  0  # atno 10764 bound_to 10752
  154.7911  135.3302  154.7718 H   0  0  0  0  0  0  0  0  0  0  0  0  # atno 10765 bound_to 10752
  141.1588  133.7619  156.9568 H   0  0  0  0  0  0  0  0  0  0  0  0  # atno 11005 bound_to 11000
  146.2807  139.6870  142.9231 LP  0  0  0  0  0  0  0  0  0  0  0  0  # atno 17320 bound_to 7965
  145.4445  141.0424  143.2839 LP  0  0  0  0  0  0  0  0  0  0  0  0  # atno 17321 bound_to 7965
  140.1318  144.5282  150.6798 LP  0  0  0  0  0  0  0  0  0  0  0  0  # atno 17342 bound_to 10162
  140.6923  143.2383  151.5097 LP  0  0  0  0  0  0  0  0  0  0  0  0  # atno 17343 bound_to 10162
  156.9645  130.5467  149.5287 LP  0  0  0  0  0  0  0  0  0  0  0  0  # atno 17370 bound_to 10713
  156.0400  130.5484  150.8748 LP  0  0  0  0  0  0  0  0  0  0  0  0  # atno 17371 bound_to 10713
  140.1220  134.9411  157.2216 LP  0  0  0  0  0  0  0  0  0  0  0  0  # atno 17394 bound_to 11000
  140.3060  134.3077  155.7278 LP  0  0  0  0  0  0  0  0  0  0  0  0  # atno 17395 bound_to 11000

$$$$
