AV-unprocessed.smi:3188|AV-procd|sdf|12185|dock4
  -GOLD-   2272018 23D 1   1.00000     0.00000
 Structure written by MMmdl.
 40 41  0  0  0  0  0  0  0  0  2 V2000
  150.6046  144.9807  159.7994 C   0  0  0  0  0  0  0  0  0  0  0  0
  151.5166  143.7646  159.8360 C   0  0  0  0  0  0  0  0  0  0  0  0
  152.5193  143.7123  160.7336 C   0  0  0  0  0  0  0  0  0  0  0  0
  153.4414  142.5291  160.9147 C   0  0  0  0  0  0  0  0  0  0  0  0
  152.8153  141.2533  160.3472 C   0  0  0  0  0  0  0  0  0  0  0  0
  152.2915  141.4728  158.9187 C   0  0  1  0  0  0  0  0  0  0  0  0
  151.7628  140.1383  158.3580 C   0  0  0  0  0  0  0  0  0  0  0  0
  151.2319  142.6159  158.8447 C   0  0  2  0  0  0  0  0  0  0  0  0
  151.0822  143.1064  157.3800 C   0  0  0  0  0  0  0  0  0  0  0  0
  149.8930  142.5459  156.7081 N   0  3  0  0  0  0  0  0  0  0  0  0
  150.1687  141.3731  155.8546 C   0  0  0  0  0  0  0  0  0  0  0  0
  149.4697  141.4943  154.4913 C   0  0  0  0  0  0  0  0  0  0  0  0
  148.1659  140.8553  154.4958 N   0  0  0  0  0  0  0  0  0  0  0  0
  147.3146  140.6325  153.4337 C   0  0  0  0  0  0  0  0  0  0  0  0
  146.2343  140.0315  154.0142 C   0  0  0  0  0  0  0  0  0  0  0  0
  146.4687  139.9175  155.3833 N   0  0  0  0  0  0  0  0  0  0  0  0
  147.6344  140.4102  155.6596 N   0  0  0  0  0  0  0  0  0  0  0  0
  149.5580  144.6768  159.8300 H   0  0  0  0  0  0  0  0  0  0  0  0
  150.7772  145.5723  158.9006 H   0  0  0  0  0  0  0  0  0  0  0  0
  150.7806  145.6350  160.6541 H   0  0  0  0  0  0  0  0  0  0  0  0
  152.6955  144.5488  161.3946 H   0  0  0  0  0  0  0  0  0  0  0  0
  154.3912  142.7476  160.4258 H   0  0  0  0  0  0  0  0  0  0  0  0
  153.6497  142.3965  161.9767 H   0  0  0  0  0  0  0  0  0  0  0  0
  153.5535  140.4505  160.3653 H   0  0  0  0  0  0  0  0  0  0  0  0
  151.9949  140.9323  160.9911 H   0  0  0  0  0  0  0  0  0  0  0  0
  153.1492  141.7684  158.3123 H   0  0  0  0  0  0  0  0  0  0  0  0
  150.8901  139.7942  158.9138 H   0  0  0  0  0  0  0  0  0  0  0  0
  152.5225  139.3590  158.4275 H   0  0  0  0  0  0  0  0  0  0  0  0
  151.4805  140.2088  157.3089 H   0  0  0  0  0  0  0  0  0  0  0  0
  150.2778  142.1913  159.1614 H   0  0  0  0  0  0  0  0  0  0  0  0
  151.0343  144.1963  157.3641 H   0  0  0  0  0  0  0  0  0  0  0  0
  151.9453  142.8288  156.7774 H   0  0  0  0  0  0  0  0  0  0  0  0
  149.2094  142.2916  157.4068 H   0  0  0  0  0  0  0  0  0  0  0  0
  151.2451  141.2717  155.7074 H   0  0  0  0  0  0  0  0  0  0  0  0
  149.8299  140.4731  156.3689 H   0  0  0  0  0  0  0  0  0  0  0  0
  149.3309  142.5457  154.2369 H   0  0  0  0  0  0  0  0  0  0  0  0
  150.0844  141.0596  153.7012 H   0  0  0  0  0  0  0  0  0  0  0  0
  147.5378  140.9092  152.4137 H   0  0  0  0  0  0  0  0  0  0  0  0
  145.3168  139.6779  153.5671 H   0  0  0  0  0  0  0  0  0  0  0  0
  149.5000  143.2704  156.1235 H   0  0  0  0  0  0  0  0  0  0  0  0
  1  2  1  0  0  0  0
  1 18  1  0  0  0  0
  1 19  1  0  0  0  0
  1 20  1  0  0  0  0
  2  8  1  0  0  0  0
  2  3  2  0  0  0  0
  3  4  1  0  0  0  0
  3 21  1  0  0  0  0
  4  5  1  0  0  0  0
  4 22  1  0  0  0  0
  4 23  1  0  0  0  0
  5  6  1  0  0  0  0
  5 24  1  0  0  0  0
  5 25  1  0  0  0  0
  6  7  1  0  0  0  0
  6  8  1  0  0  0  0
  6 26  1  0  0  0  0
  7 27  1  0  0  0  0
  7 28  1  0  0  0  0
  7 29  1  0  0  0  0
  8  9  1  0  0  0  0
  8 30  1  0  0  0  0
  9 10  1  0  0  0  0
  9 31  1  0  0  0  0
  9 32  1  0  0  0  0
 10 11  1  0  0  0  0
 10 33  1  0  0  0  0
 10 40  1  0  0  0  0
 11 12  1  0  0  0  0
 11 34  1  0  0  0  0
 11 35  1  0  0  0  0
 12 13  1  0  0  0  0
 12 36  1  0  0  0  0
 12 37  1  0  0  0  0
 13 17  1  0  0  0  0
 13 14  1  0  0  0  0
 14 15  2  0  0  0  0
 14 38  1  0  0  0  0
 15 16  1  0  0  0  0
 15 39  1  0  0  0  0
 16 17  2  0  0  0  0
M  CHG  1  10   1
M  END
> <s_m_source_file>
AV-unprocessed.smi

> <i_m_source_file_index>
3188

> <i_lp_mmshare_version>
43012

> <i_f3d_flags>
0

> <s_epik_input>
W0NIM11DMT1bQ0hdW0NIMl1bQ0gyXVtDQEBIXShbQ0gzXSlbQ0BIXTFbQ0gyXVtOSF1bQ0gyXVtDSDJdbjJbY0hdW2NIXW5uMg==

> <s_epik_cmdline>
J2VwaWtfcHl0aG9uJywgJy1waCcsICc3LjAnLCAnLXRuJywgJzgnLCAnLW1hJywgJzIwMCcsICctbWV0YWxfYmluZGluZycsICctaW1hZScsICc8aW5maWxlLm1hZT4nLCAnLW9tYWUnLCAnPG91dGZpbGUubWFlPic=

> <r_lp_tautomer_probability>
1

> <r_epik_Ionization_Penalty>
0.007268

> <r_epik_Ionization_Penalty_Charging>
0.00726786

> <r_epik_Ionization_Penalty_Neutral>
1.34882e-07

> <r_epik_State_Penalty>
0.00542069

> <r_epik_Charging_Adjusted_Penalty>
0.0126886

> <i_epik_Tot_Q>
1

> <i_epik_Tot_abs_Q>
1

> <r_epik_Metal_State_Penalty>
-0

> <b_epik_Metal_Only>
0

> <s_lp_Force_Field>
OPLS_2005

> <r_lp_Energy>
14.3192

> <b_lp_Chiralities_Consistent>
1

> <s_lp_Variant>
AV-unprocessed.smi:3188-3

> <Gold.Version>
5.8.1

> <Gold.Id.Protein>
6NUR|6NUR_protein|mol2

> <Gold.PLP.Fitness>
42.8787

> <Gold.PLP.PLP>
-33.8191

> <Gold.PLP.part.hbond>
-1.0000

> <Gold.PLP.part.metal>
0.0000

> <Gold.PLP.part.buried>
-2.0426

> <Gold.PLP.part.nonpolar>
-30.7277

> <Gold.PLP.part.repulsive>
0.0898

> <Gold.PLP.ligand.clash>
0.0000

> <Gold.PLP.ligand.torsion>
1.4938

> <Gold.PLP.Chemscore.Hbond>
2.0000

> <Gold.PLP.Chemscore.CHOScore>
1.9915

> <Gold.PLP.Chemscore.Metal>
0.0000

> <Gold.Chemscore.Hbonds>
donor molecule, donor type, donor heavy atom, donor atom, acceptor molecule, acceptor atom, score
      L1  H    10    40       P1  8028  2.00
      L1  C    14    38       P1  7957  0.84
      L1  C    15    39       P1 10175  1.00

> <Gold.PLP.Chemscore.Internal.Correction>
0.0728

> <Gold.Rescore>
     Score         DG    S(hbond)    S(metal)    S(lipo)     H(rot)  DE(clash)    DE(int)     intcor
     15.45     -17.27       0.99        0.00     111.61       1.78       0.31       1.51       ----

> <Gold.Chemscore.Fitness>
15.4473

> <Gold.Chemscore.DG>
-17.2692

> <Gold.Chemscore.ZeroCoef>
-5.4800

> <Gold.Chemscore.Hbond>
0.9850

> <Gold.Chemscore.Metal>
0.0000

> <Gold.Chemscore.Lipo>
111.6083

> <Gold.Chemscore.Internal_Hbond>
0.0000

> <Gold.Chemscore.DEClash>
0.3120

> <Gold.Chemscore.DEInternal>
1.5099

> <Gold.Chemscore.Rot>
1.7809

> <Gold.Chemscore.Internal.Correction>
   9.000000E+99

> <Gold.Chemscore.Hbonds>
donor molecule, donor type, donor heavy atom, donor atom, acceptor molecule, acceptor atom, score
      L1  H    10    40       P1  8028  0.99

> <Gold.Chemscore.Hbond.Weighted>
-3.2901

> <Gold.Chemscore.Metal.Weighted>
-0.0000

> <Gold.Chemscore.Lipo.Weighted>
-13.0582

> <Gold.Chemscore.Internal_Hbond.Weighted>
0.0000

> <Gold.Chemscore.DEClash.Weighted>
0.3120

> <Gold.Chemscore.DEInternal.Weighted>
1.5099

> <Gold.Chemscore.Rot.Weighted>
4.5590

> <Gold.Chemscore.Internal.Correction.Weighted>
   9.000000E+99

> <Gold.Protein.RotatedTorsions>
[ 6907 6896 6895 6894 ] final  -75.70 input  -60.11 | X-H torsion
[ 7974 7965 7964 7962 ] final   51.25 input  175.53 | X-H torsion
[ 8008 7997 7996 7995 ] final   47.33 input   59.86 | X-H torsion
[ 10167 10162 10161 10158 ] final  -96.56 input  -65.29 | X-H torsion
[ 10718 10713 10712 10709 ] final  -94.47 input   66.30 | X-H torsion
[ 10763 10752 10751 10750 ] final  -32.86 input  -60.55 | X-H torsion
[ 11005 11000 10999 10996 ] final  139.22 input  -57.11 | X-H torsion

> <Gold.Protein.ActiveResidues>
 VAL166  LYS551  ARG553  GLY616  TRP617  ASP618  TYR619  PRO620  LYS621  CYS622 
 ASP623  PHE694  ASN695  SER759  ASP760  ASP761  ALA762  ILE779  LEU786  VAL792 
 PHE793  MET794  SER795  GLU796  ALA797  LYS798  CYS799  TRP800  GLU811  SER814 

> <Gold.Protein.RotatedAtoms>
  150.7050  134.4682  159.5412 H   0  0  0  0  0  0  0  0  0  0  0  0  # atno 6907 bound_to 6896
  152.2343  134.8288  160.0478 H   0  0  0  0  0  0  0  0  0  0  0  0  # atno 6908 bound_to 6896
  151.9093  133.3522  159.3895 H   0  0  0  0  0  0  0  0  0  0  0  0  # atno 6909 bound_to 6896
  145.9932  139.4361  143.0060 H   0  0  0  0  0  0  0  0  0  0  0  0  # atno 7974 bound_to 7965
  155.3672  140.3422  155.4242 H   0  0  0  0  0  0  0  0  0  0  0  0  # atno 8008 bound_to 7997
  156.1682  140.1623  156.8529 H   0  0  0  0  0  0  0  0  0  0  0  0  # atno 8009 bound_to 7997
  154.5206  140.0768  156.8147 H   0  0  0  0  0  0  0  0  0  0  0  0  # atno 8010 bound_to 7997
  140.2926  143.3212  152.0331 H   0  0  0  0  0  0  0  0  0  0  0  0  # atno 10167 bound_to 10162
  156.0027  130.5069  150.5931 H   0  0  0  0  0  0  0  0  0  0  0  0  # atno 10718 bound_to 10713
  153.8207  135.6874  153.4827 H   0  0  0  0  0  0  0  0  0  0  0  0  # atno 10763 bound_to 10752
  153.1571  135.4595  154.9718 H   0  0  0  0  0  0  0  0  0  0  0  0  # atno 10764 bound_to 10752
  154.7929  135.3308  154.7679 H   0  0  0  0  0  0  0  0  0  0  0  0  # atno 10765 bound_to 10752
  140.0239  134.9384  157.0529 H   0  0  0  0  0  0  0  0  0  0  0  0  # atno 11005 bound_to 11000
  145.7599  140.9939  143.1206 LP  0  0  0  0  0  0  0  0  0  0  0  0  # atno 17320 bound_to 7965
  144.6895  139.9317  143.7472 LP  0  0  0  0  0  0  0  0  0  0  0  0  # atno 17321 bound_to 7965
  139.4934  144.6514  151.6667 LP  0  0  0  0  0  0  0  0  0  0  0  0  # atno 17342 bound_to 10162
  140.5720  144.0093  150.6221 LP  0  0  0  0  0  0  0  0  0  0  0  0  # atno 17343 bound_to 10162
  157.3792  131.0778  151.1491 LP  0  0  0  0  0  0  0  0  0  0  0  0  # atno 17370 bound_to 10713
  157.2219  130.6485  149.5814 LP  0  0  0  0  0  0  0  0  0  0  0  0  # atno 17371 bound_to 10713
  140.4340  134.1751  155.7169 LP  0  0  0  0  0  0  0  0  0  0  0  0  # atno 17394 bound_to 11000
  141.1791  133.8452  157.1321 LP  0  0  0  0  0  0  0  0  0  0  0  0  # atno 17395 bound_to 11000

$$$$
