AV-unprocessed.smi:3058|AV-procd|sdf|11671|dock9
  -GOLD-   2272017 73D 1   1.00000     0.00000
 Structure written by MMmdl.
 38 40  0  0  0  0  0  0  0  0  1 V2000
  154.5192  140.4726  159.3279 O   0  0  0  0  0  0  0  0  0  0  0  0
  153.4113  141.0070  159.3935 C   0  0  0  0  0  0  0  0  0  0  0  0
  152.2644  140.3326  159.2198 N   0  0  0  0  0  0  0  0  0  0  0  0
  152.1636  138.9050  158.9421 C   0  0  0  0  0  0  0  0  0  0  0  0
  152.9075  138.5270  157.6511 C   0  0  0  0  0  0  0  0  0  0  0  0
  152.0246  138.6535  156.4254 C   0  0  0  0  0  0  0  0  0  0  0  0
  151.4888  137.5098  155.7979 C   0  0  0  0  0  0  0  0  0  0  0  0
  150.6713  137.6795  154.6637 C   0  0  0  0  0  0  0  0  0  0  0  0
  150.4235  138.9889  154.2052 C   0  0  0  0  0  0  0  0  0  0  0  0
  150.9303  140.0910  154.7989 N   0  0  0  0  0  0  0  0  0  0  0  0
  151.7135  139.9197  155.8856 C   0  0  0  0  0  0  0  0  0  0  0  0
  153.2729  142.5179  159.6523 C   0  0  2  0  0  0  0  0  0  0  0  0
  152.2141  142.8983  160.7171 C   0  0  0  0  0  0  0  0  0  0  0  0
  151.3439  143.9370  159.9841 C   0  0  2  0  0  0  0  0  0  0  0  0
  150.4680  143.2264  158.9356 C   0  0  0  0  0  0  0  0  0  0  0  0
  151.4805  142.8747  157.8303 C   0  0  0  0  0  0  0  0  0  0  0  0
  152.8199  143.3586  158.4290 C   0  0  1  0  0  0  0  0  0  0  0  0
  152.3719  144.6481  159.1112 C   0  0  0  0  0  0  0  0  0  0  0  0
  151.3980  140.8476  159.2816 H   0  0  0  0  0  0  0  0  0  0  0  0
  152.5452  138.3302  159.7880 H   0  0  0  0  0  0  0  0  0  0  0  0
  151.1064  138.6554  158.8480 H   0  0  0  0  0  0  0  0  0  0  0  0
  153.7825  139.1654  157.5228 H   0  0  0  0  0  0  0  0  0  0  0  0
  153.2807  137.5038  157.7138 H   0  0  0  0  0  0  0  0  0  0  0  0
  151.6982  136.5206  156.1782 H   0  0  0  0  0  0  0  0  0  0  0  0
  150.2436  136.8268  154.1574 H   0  0  0  0  0  0  0  0  0  0  0  0
  149.8008  139.1553  153.3387 H   0  0  0  0  0  0  0  0  0  0  0  0
  152.1018  140.8202  156.3386 H   0  0  0  0  0  0  0  0  0  0  0  0
  154.2415  142.8937  159.9884 H   0  0  0  0  0  0  0  0  0  0  0  0
  151.6209  142.0592  161.0832 H   0  0  0  0  0  0  0  0  0  0  0  0
  152.6989  143.3505  161.5833 H   0  0  0  0  0  0  0  0  0  0  0  0
  150.7810  144.5857  160.6558 H   0  0  0  0  0  0  0  0  0  0  0  0
  149.9739  142.3435  159.3423 H   0  0  0  0  0  0  0  0  0  0  0  0
  149.6970  143.8951  158.5509 H   0  0  0  0  0  0  0  0  0  0  0  0
  151.4695  141.8194  157.5615 H   0  0  0  0  0  0  0  0  0  0  0  0
  151.2515  143.4345  156.9225 H   0  0  0  0  0  0  0  0  0  0  0  0
  153.6045  143.4978  157.6846 H   0  0  0  0  0  0  0  0  0  0  0  0
  151.9300  145.3730  158.4251 H   0  0  0  0  0  0  0  0  0  0  0  0
  153.1630  145.1359  159.6835 H   0  0  0  0  0  0  0  0  0  0  0  0
  1  2  2  0  0  0  0
  2  3  1  0  0  0  0
  2 12  1  0  0  0  0
  3  4  1  0  0  0  0
  3 19  1  0  0  0  0
  4  5  1  0  0  0  0
  4 20  1  0  0  0  0
  4 21  1  0  0  0  0
  5  6  1  0  0  0  0
  5 22  1  0  0  0  0
  5 23  1  0  0  0  0
  6 11  1  0  0  0  0
  6  7  2  0  0  0  0
  7  8  1  0  0  0  0
  7 24  1  0  0  0  0
  8  9  2  0  0  0  0
  8 25  1  0  0  0  0
  9 10  1  0  0  0  0
  9 26  1  0  0  0  0
 10 11  2  0  0  0  0
 11 27  1  0  0  0  0
 12 17  1  0  0  0  0
 12 13  1  0  0  0  0
 12 28  1  0  0  0  0
 13 14  1  0  0  0  0
 13 29  1  0  0  0  0
 13 30  1  0  0  0  0
 14 18  1  0  0  0  0
 14 15  1  0  0  0  0
 14 31  1  0  0  0  0
 15 16  1  0  0  0  0
 15 32  1  0  0  0  0
 15 33  1  0  0  0  0
 16 17  1  0  0  0  0
 16 34  1  0  0  0  0
 16 35  1  0  0  0  0
 17 18  1  0  0  0  0
 17 36  1  0  0  0  0
 18 37  1  0  0  0  0
 18 38  1  0  0  0  0
M  END
> <s_m_source_file>
AV-unprocessed.smi

> <i_m_source_file_index>
3058

> <i_lp_mmshare_version>
43012

> <i_f3d_flags>
0

> <s_epik_input>
W0NIMl0xW0NIMl1bQ0BIXShbQ0gyXTIpW0NAQEhdKFtDSDJdW0NAQEhdMTIpQyg9TylbTkhdW0NIMl1bQ0gyXWMzW2NIXVtjSF1bY0hdbltjSF0z

> <s_epik_cmdline>
J2VwaWtfcHl0aG9uJywgJy1waCcsICc3LjAnLCAnLXRuJywgJzgnLCAnLW1hJywgJzIwMCcsICctbWV0YWxfYmluZGluZycsICctaW1hZScsICc8aW5maWxlLm1hZT4nLCAnLW9tYWUnLCAnPG91dGZpbGUubWFlPic=

> <r_epik_Ionization_Penalty>
0.0135821

> <r_epik_Ionization_Penalty_Charging>
0

> <r_epik_Ionization_Penalty_Neutral>
0.0135821

> <r_epik_State_Penalty>
0.0105782

> <r_epik_Charging_Adjusted_Penalty>
0.0105782

> <i_epik_Tot_Q>
0

> <i_epik_Tot_abs_Q>
0

> <r_epik_Metal_State_Penalty>
0.0103407

> <b_epik_Metal_Only>
0

> <s_lp_Force_Field>
OPLS_2005

> <r_lp_Energy>
46.6846

> <b_lp_Chiralities_Consistent>
1

> <s_lp_Variant>
AV-unprocessed.smi:3058-3

> <Gold.Version>
5.8.1

> <Gold.Id.Protein>
6NUR|6NUR_protein|mol2

> <Gold.PLP.Fitness>
44.8444

> <Gold.PLP.PLP>
-38.2997

> <Gold.PLP.part.hbond>
-2.0000

> <Gold.PLP.part.metal>
0.0000

> <Gold.PLP.part.buried>
-3.5189

> <Gold.PLP.part.nonpolar>
-31.9586

> <Gold.PLP.part.repulsive>
0.2058

> <Gold.PLP.ligand.clash>
0.0000

> <Gold.PLP.ligand.torsion>
0.6517

> <Gold.PLP.Chemscore.Hbond>
1.6115

> <Gold.PLP.Chemscore.CHOScore>
1.0000

> <Gold.PLP.Chemscore.Metal>
0.0000

> <Gold.Chemscore.Hbonds>
donor molecule, donor type, donor heavy atom, donor atom, acceptor molecule, acceptor atom, score
      P1  H  7989  7998       L1    10  1.00
      P1  H  7997  8009       L1     1  0.64
      L1  C     9    26       P1  7957  1.00

> <Gold.PLP.Chemscore.Internal.Correction>
0.0136

> <Gold.Rescore>
     Score         DG    S(hbond)    S(metal)    S(lipo)     H(rot)  DE(clash)    DE(int)     intcor
     17.61     -20.46       1.36        0.00     119.12       1.37       0.02       2.83       ----

> <Gold.Chemscore.Fitness>
17.6101

> <Gold.Chemscore.DG>
-20.4600

> <Gold.Chemscore.ZeroCoef>
-5.4800

> <Gold.Chemscore.Hbond>
1.3587

> <Gold.Chemscore.Metal>
0.0000

> <Gold.Chemscore.Lipo>
119.1200

> <Gold.Chemscore.Internal_Hbond>
0.0000

> <Gold.Chemscore.DEClash>
0.0247

> <Gold.Chemscore.DEInternal>
2.8252

> <Gold.Chemscore.Rot>
1.3653

> <Gold.Chemscore.Internal.Correction>
   9.000000E+99

> <Gold.Chemscore.Hbonds>
donor molecule, donor type, donor heavy atom, donor atom, acceptor molecule, acceptor atom, score
      P1  H  7989  7998       L1    10  0.28
      P1  H  7997  8009       L1     1  0.53

> <Gold.Chemscore.Hbond.Weighted>
-4.5381

> <Gold.Chemscore.Metal.Weighted>
-0.0000

> <Gold.Chemscore.Lipo.Weighted>
-13.9370

> <Gold.Chemscore.Internal_Hbond.Weighted>
0.0000

> <Gold.Chemscore.DEClash.Weighted>
0.0247

> <Gold.Chemscore.DEInternal.Weighted>
2.8252

> <Gold.Chemscore.Rot.Weighted>
3.4951

> <Gold.Chemscore.Internal.Correction.Weighted>
   9.000000E+99

> <Gold.Protein.RotatedTorsions>
[ 6907 6896 6895 6894 ] final  174.61 input  -60.11 | X-H torsion
[ 7974 7965 7964 7962 ] final   50.79 input  175.53 | X-H torsion
[ 8008 7997 7996 7995 ] final  120.26 input   59.86 | X-H torsion
[ 10167 10162 10161 10158 ] final -155.58 input  -65.29 | X-H torsion
[ 10718 10713 10712 10709 ] final  123.87 input   66.30 | X-H torsion
[ 10763 10752 10751 10750 ] final  104.39 input  -60.55 | X-H torsion
[ 11005 11000 10999 10996 ] final -110.78 input  -57.11 | X-H torsion

> <Gold.Protein.ActiveResidues>
 VAL166  LYS551  ARG553  GLY616  TRP617  ASP618  TYR619  PRO620  LYS621  CYS622 
 ASP623  PHE694  ASN695  SER759  ASP760  ASP761  ALA762  ILE779  LEU786  VAL792 
 PHE793  MET794  SER795  GLU796  ALA797  LYS798  CYS799  TRP800  GLU811  SER814 

> <Gold.Protein.RotatedAtoms>
  151.7495  133.3326  159.3387 H   0  0  0  0  0  0  0  0  0  0  0  0  # atno 6907 bound_to 6896
  150.7541  134.6205  159.6143 H   0  0  0  0  0  0  0  0  0  0  0  0  # atno 6908 bound_to 6896
  152.3478  134.7049  160.0297 H   0  0  0  0  0  0  0  0  0  0  0  0  # atno 6909 bound_to 6896
  145.9977  139.4406  143.0034 H   0  0  0  0  0  0  0  0  0  0  0  0  # atno 7974 bound_to 7965
  156.2634  140.2835  156.1121 H   0  0  0  0  0  0  0  0  0  0  0  0  # atno 8008 bound_to 7997
  155.1246  140.0393  157.2776 H   0  0  0  0  0  0  0  0  0  0  0  0  # atno 8009 bound_to 7997
  154.6645  140.2574  155.7079 H   0  0  0  0  0  0  0  0  0  0  0  0  # atno 8010 bound_to 7997
  139.6919  143.9406  152.2389 H   0  0  0  0  0  0  0  0  0  0  0  0  # atno 10167 bound_to 10162
  157.5630  131.1088  150.8504 H   0  0  0  0  0  0  0  0  0  0  0  0  # atno 10718 bound_to 10713
  153.3654  135.3944  155.1749 H   0  0  0  0  0  0  0  0  0  0  0  0  # atno 10763 bound_to 10752
  154.8686  135.3689  154.5046 H   0  0  0  0  0  0  0  0  0  0  0  0  # atno 10764 bound_to 10752
  153.5509  135.7083  153.5652 H   0  0  0  0  0  0  0  0  0  0  0  0  # atno 10765 bound_to 10752
  141.0772  133.9281  157.2365 H   0  0  0  0  0  0  0  0  0  0  0  0  # atno 11005 bound_to 11000
  145.7534  140.9963  143.1238 LP  0  0  0  0  0  0  0  0  0  0  0  0  # atno 17320 bound_to 7965
  144.6909  139.9242  143.7469 LP  0  0  0  0  0  0  0  0  0  0  0  0  # atno 17321 bound_to 7965
  139.9224  144.6791  150.8447 LP  0  0  0  0  0  0  0  0  0  0  0  0  # atno 17342 bound_to 10162
  140.7685  143.3365  151.2297 LP  0  0  0  0  0  0  0  0  0  0  0  0  # atno 17343 bound_to 10162
  156.8996  130.5242  149.5283 LP  0  0  0  0  0  0  0  0  0  0  0  0  # atno 17370 bound_to 10713
  156.0681  130.5720  150.9329 LP  0  0  0  0  0  0  0  0  0  0  0  0  # atno 17371 bound_to 10713
  139.9584  135.0160  156.9194 LP  0  0  0  0  0  0  0  0  0  0  0  0  # atno 17394 bound_to 11000
  140.5548  134.0592  155.7380 LP  0  0  0  0  0  0  0  0  0  0  0  0  # atno 17395 bound_to 11000

$$$$
