AV-unprocessed.smi:3194|AV-procd|sdf|12209|dock2
  -GOLD-   2272018 43D 1   1.00000     0.00000
 Structure written by MMmdl.
 28 28  0  0  0  0  0  0  0  0  1 V2000
  152.9325  137.6650  156.4035 C   0  0  0  0  0  0  0  0  0  0  0  0
  152.2526  138.5647  155.3603 C   0  0  1  0  0  0  0  0  0  0  0  0
  151.0066  137.9033  154.7391 C   0  0  0  0  0  0  0  0  0  0  0  0
  151.2494  136.5366  154.4804 O   0  0  0  0  0  0  0  0  0  0  0  0
  151.8946  139.8331  155.9885 N   0  0  0  0  0  0  0  0  0  0  0  0
  151.3445  139.9778  157.2061 C   0  0  0  0  0  0  0  0  0  0  0  0
  151.0922  139.0263  157.9462 O   0  0  0  0  0  0  0  0  0  0  0  0
  151.0224  141.4115  157.6541 C   0  0  0  0  0  0  0  0  0  0  0  0
  151.3006  142.2479  156.6515 F   0  0  0  0  0  0  0  0  0  0  0  0
  149.7159  141.5090  157.9146 F   0  0  0  0  0  0  0  0  0  0  0  0
  151.8373  141.7754  158.8923 C   0  0  0  0  0  0  0  0  0  0  0  0
  152.7415  140.8525  159.4659 C   0  0  0  0  0  0  0  0  0  0  0  0
  153.4586  141.2349  160.6158 C   0  0  0  0  0  0  0  0  0  0  0  0
  153.2475  142.5192  161.1521 C   0  0  0  0  0  0  0  0  0  0  0  0
  152.3229  143.3674  160.5121 C   0  0  0  0  0  0  0  0  0  0  0  0
  151.6301  143.0105  159.4096 N   0  0  0  0  0  0  0  0  0  0  0  0
  152.9769  138.7677  154.5689 H   0  0  0  0  0  0  0  0  0  0  0  0
  153.2571  136.7227  155.9617 H   0  0  0  0  0  0  0  0  0  0  0  0
  152.2576  137.4310  157.2275 H   0  0  0  0  0  0  0  0  0  0  0  0
  153.8147  138.1497  156.8230 H   0  0  0  0  0  0  0  0  0  0  0  0
  150.1402  138.0050  155.3936 H   0  0  0  0  0  0  0  0  0  0  0  0
  150.7503  138.3769  153.7908 H   0  0  0  0  0  0  0  0  0  0  0  0
  150.8834  136.3212  153.6361 H   0  0  0  0  0  0  0  0  0  0  0  0
  152.0631  140.6699  155.4486 H   0  0  0  0  0  0  0  0  0  0  0  0
  152.8817  139.8698  159.0404 H   0  0  0  0  0  0  0  0  0  0  0  0
  154.1570  140.5537  161.0792 H   0  0  0  0  0  0  0  0  0  0  0  0
  153.7801  142.8462  162.0330 H   0  0  0  0  0  0  0  0  0  0  0  0
  152.1340  144.3589  160.8961 H   0  0  0  0  0  0  0  0  0  0  0  0
  1  2  1  0  0  0  0
  1 18  1  0  0  0  0
  1 19  1  0  0  0  0
  1 20  1  0  0  0  0
  2 17  1  0  0  0  0
  2  3  1  0  0  0  0
  2  5  1  0  0  0  0
  3  4  1  0  0  0  0
  3 21  1  0  0  0  0
  3 22  1  0  0  0  0
  4 23  1  0  0  0  0
  5  6  1  0  0  0  0
  5 24  1  0  0  0  0
  6  7  2  0  0  0  0
  6  8  1  0  0  0  0
  8  9  1  0  0  0  0
  8 10  1  0  0  0  0
  8 11  1  0  0  0  0
 11 16  1  0  0  0  0
 11 12  2  0  0  0  0
 12 13  1  0  0  0  0
 12 25  1  0  0  0  0
 13 14  2  0  0  0  0
 13 26  1  0  0  0  0
 14 15  1  0  0  0  0
 14 27  1  0  0  0  0
 15 16  2  0  0  0  0
 15 28  1  0  0  0  0
M  END
> <s_m_source_file>
AV-unprocessed.smi

> <i_m_source_file_index>
3194

> <i_lp_mmshare_version>
43012

> <i_f3d_flags>
0

> <s_epik_input>
W09IXVtDSDJdW0NASF0oW0NIM10pW05IXUMoPU8pQyhGKShGKWMxW2NIXVtjSF1bY0hdW2NIXW4x

> <s_epik_cmdline>
J2VwaWtfcHl0aG9uJywgJy1waCcsICc3LjAnLCAnLXRuJywgJzgnLCAnLW1hJywgJzIwMCcsICctbWV0YWxfYmluZGluZycsICctaW1hZScsICc8aW5maWxlLm1hZT4nLCAnLW9tYWUnLCAnPG91dGZpbGUubWFlPic=

> <r_lp_tautomer_probability>
1

> <r_epik_Ionization_Penalty>
3.67967e-05

> <r_epik_Ionization_Penalty_Charging>
0

> <r_epik_Ionization_Penalty_Neutral>
3.67967e-05

> <r_epik_State_Penalty>
-0

> <r_epik_Charging_Adjusted_Penalty>
0

> <i_epik_Tot_Q>
0

> <i_epik_Tot_abs_Q>
0

> <r_epik_Metal_State_Penalty>
0.0311521

> <b_epik_Metal_Only>
0

> <s_lp_Force_Field>
OPLS_2005

> <r_lp_Energy>
9.58736

> <b_lp_Chiralities_Consistent>
1

> <s_lp_Variant>
AV-unprocessed.smi:3194-1

> <Gold.Version>
5.8.1

> <Gold.Id.Protein>
6NUR|6NUR_protein|mol2

> <Gold.PLP.Fitness>
39.9552

> <Gold.PLP.PLP>
-34.8219

> <Gold.PLP.part.hbond>
-2.0208

> <Gold.PLP.part.metal>
0.0000

> <Gold.PLP.part.buried>
-5.6099

> <Gold.PLP.part.nonpolar>
-27.6221

> <Gold.PLP.part.repulsive>
0.1727

> <Gold.PLP.ligand.clash>
0.0000

> <Gold.PLP.ligand.torsion>
0.4394

> <Gold.PLP.Chemscore.Hbond>
1.9920

> <Gold.PLP.Chemscore.CHOScore>
0.0000

> <Gold.PLP.Chemscore.Metal>
0.0000

> <Gold.Chemscore.Hbonds>
donor molecule, donor type, donor heavy atom, donor atom, acceptor molecule, acceptor atom, score
      L1  H     4    23       P1  7949  0.52
      P1  H 10752 10763       L1     4  0.85

> <Gold.PLP.Chemscore.Internal.Correction>
0.0360

> <Gold.Rescore>
     Score         DG    S(hbond)    S(metal)    S(lipo)     H(rot)  DE(clash)    DE(int)     intcor
     10.83     -14.09       1.75        0.00      78.15       2.50       0.13       3.12       ----

> <Gold.Chemscore.Fitness>
10.8300

> <Gold.Chemscore.DG>
-14.0876

> <Gold.Chemscore.ZeroCoef>
-5.4800

> <Gold.Chemscore.Hbond>
1.7534

> <Gold.Chemscore.Metal>
0.0000

> <Gold.Chemscore.Lipo>
78.1482

> <Gold.Chemscore.Internal_Hbond>
0.0000

> <Gold.Chemscore.DEClash>
0.1342

> <Gold.Chemscore.DEInternal>
3.1234

> <Gold.Chemscore.Rot>
2.4970

> <Gold.Chemscore.Internal.Correction>
   9.000000E+99

> <Gold.Chemscore.Hbonds>
donor molecule, donor type, donor heavy atom, donor atom, acceptor molecule, acceptor atom, score
      L1  H     4    23       P1  7949  0.08
      P1  H 10752 10763       L1     4  0.15

> <Gold.Chemscore.Hbond.Weighted>
-5.8564

> <Gold.Chemscore.Metal.Weighted>
-0.0000

> <Gold.Chemscore.Lipo.Weighted>
-9.1433

> <Gold.Chemscore.Internal_Hbond.Weighted>
0.0000

> <Gold.Chemscore.DEClash.Weighted>
0.1342

> <Gold.Chemscore.DEInternal.Weighted>
3.1234

> <Gold.Chemscore.Rot.Weighted>
6.3922

> <Gold.Chemscore.Internal.Correction.Weighted>
   9.000000E+99

> <Gold.Protein.RotatedTorsions>
[ 6907 6896 6895 6894 ] final -163.48 input  -60.11 | X-H torsion
[ 7974 7965 7964 7962 ] final  106.31 input  175.53 | X-H torsion
[ 8008 7997 7996 7995 ] final  -10.04 input   59.86 | X-H torsion
[ 10167 10162 10161 10158 ] final   96.24 input  -65.29 | X-H torsion
[ 10718 10713 10712 10709 ] final  -92.12 input   66.30 | X-H torsion
[ 10763 10752 10751 10750 ] final   37.94 input  -60.55 | X-H torsion
[ 11005 11000 10999 10996 ] final    3.94 input  -57.11 | X-H torsion

> <Gold.Protein.ActiveResidues>
 VAL166  LYS551  ARG553  GLY616  TRP617  ASP618  TYR619  PRO620  LYS621  CYS622 
 ASP623  PHE694  ASN695  SER759  ASP760  ASP761  ALA762  ILE779  LEU786  VAL792 
 PHE793  MET794  SER795  GLU796  ALA797  LYS798  CYS799  TRP800  GLU811  SER814 

> <Gold.Protein.RotatedAtoms>
  151.3968  133.3770  159.2727 H   0  0  0  0  0  0  0  0  0  0  0  0  # atno 6907 bound_to 6896
  150.9463  134.8869  159.7655 H   0  0  0  0  0  0  0  0  0  0  0  0  # atno 6908 bound_to 6896
  152.5093  134.3921  159.9439 H   0  0  0  0  0  0  0  0  0  0  0  0  # atno 6909 bound_to 6896
  145.3083  139.2548  143.3776 H   0  0  0  0  0  0  0  0  0  0  0  0  # atno 7974 bound_to 7965
  154.5591  140.2339  155.8363 H   0  0  0  0  0  0  0  0  0  0  0  0  # atno 8008 bound_to 7997
  156.2014  140.3051  155.9494 H   0  0  0  0  0  0  0  0  0  0  0  0  # atno 8009 bound_to 7997
  155.2923  140.0427  157.3014 H   0  0  0  0  0  0  0  0  0  0  0  0  # atno 8010 bound_to 7997
  139.7912  144.6851  150.9889 H   0  0  0  0  0  0  0  0  0  0  0  0  # atno 10167 bound_to 10162
  155.9999  130.4974  150.5577 H   0  0  0  0  0  0  0  0  0  0  0  0  # atno 10718 bound_to 10713
  153.0019  135.6263  154.2224 H   0  0  0  0  0  0  0  0  0  0  0  0  # atno 10763 bound_to 10752
  154.1967  135.2806  155.3006 H   0  0  0  0  0  0  0  0  0  0  0  0  # atno 10764 bound_to 10752
  154.5716  135.5675  153.7159 H   0  0  0  0  0  0  0  0  0  0  0  0  # atno 10765 bound_to 10752
  140.5875  133.9955  155.8074 H   0  0  0  0  0  0  0  0  0  0  0  0  # atno 11005 bound_to 11000
  146.3127  140.3614  142.8665 LP  0  0  0  0  0  0  0  0  0  0  0  0  # atno 17320 bound_to 7965
  144.9036  140.7673  143.5851 LP  0  0  0  0  0  0  0  0  0  0  0  0  # atno 17321 bound_to 7965
  140.7820  143.4378  151.0597 LP  0  0  0  0  0  0  0  0  0  0  0  0  # atno 17342 bound_to 10162
  139.8055  143.8024  152.3167 LP  0  0  0  0  0  0  0  0  0  0  0  0  # atno 17343 bound_to 10162
  157.3491  131.0730  151.1728 LP  0  0  0  0  0  0  0  0  0  0  0  0  # atno 17370 bound_to 10713
  157.2550  130.6632  149.5948 LP  0  0  0  0  0  0  0  0  0  0  0  0  # atno 17371 bound_to 10713
  141.0956  133.9848  157.3165 LP  0  0  0  0  0  0  0  0  0  0  0  0  # atno 17394 bound_to 11000
  139.9289  135.0201  156.8331 LP  0  0  0  0  0  0  0  0  0  0  0  0  # atno 17395 bound_to 11000

$$$$
