AV-unprocessed.smi:642|AV-procd|sdf|3152|dock5
  -GOLD-   22720 0 73D 1   1.00000     0.00000
 Structure written by MMmdl.
 49 51  0  0  0  0  0  0  0  0  1 V2000
  145.2581  137.5468  153.3641 O   0  0  0  0  0  0  0  0  0  0  0  0
  146.3742  137.1573  153.0200 C   0  0  0  0  0  0  0  0  0  0  0  0
  147.4914  137.9017  153.0450 N   0  0  0  0  0  0  0  0  0  0  0  0
  147.6275  139.2449  153.4932 C   0  0  0  0  0  0  0  0  0  0  0  0
  146.5415  140.1525  153.4791 C   0  0  0  0  0  0  0  0  0  0  0  0
  146.7535  141.4815  153.8870 C   0  0  0  0  0  0  0  0  0  0  0  0
  148.0485  141.8592  154.2836 C   0  0  0  0  0  0  0  0  0  0  0  0
  149.0956  141.0095  154.2910 N   0  0  0  0  0  0  0  0  0  0  0  0
  148.9000  139.7249  153.9040 C   0  0  0  0  0  0  0  0  0  0  0  0
  150.0080  138.8554  153.9534 N   0  0  0  0  0  0  0  0  0  0  0  0
  149.8448  137.7597  154.9027 C   0  0  0  0  0  0  0  0  0  0  0  0
  150.9678  136.7259  154.7116 C   0  0  0  0  0  0  0  0  0  0  0  0
  152.2352  137.3666  154.8282 O   0  0  0  0  0  0  0  0  0  0  0  0
  152.4146  138.3842  153.8471 C   0  0  0  0  0  0  0  0  0  0  0  0
  151.3329  139.4645  154.0201 C   0  0  0  0  0  0  0  0  0  0  0  0
  146.6324  135.9118  152.5958 N   0  0  0  0  0  0  0  0  0  0  0  0
  145.6610  134.8237  152.5040 C   0  0  0  0  0  0  0  0  0  0  0  0
  146.1471  133.6002  153.3138 C   0  0  0  0  0  0  0  0  0  0  0  0
  147.0847  132.6375  152.5653 C   0  0  0  0  0  0  0  0  0  0  0  0
  146.3205  131.5618  151.7726 C   0  0  0  0  0  0  0  0  0  0  0  0
  145.6203  132.0667  150.5009 C   0  0  0  0  0  0  0  0  0  0  0  0
  144.6376  133.2311  150.7184 C   0  0  0  0  0  0  0  0  0  0  0  0
  145.3520  134.5597  151.0157 C   0  0  0  0  0  0  0  0  0  0  0  0
  148.3552  137.4222  152.8371 H   0  0  0  0  0  0  0  0  0  0  0  0
  145.5591  139.8536  153.1457 H   0  0  0  0  0  0  0  0  0  0  0  0
  145.9441  142.1964  153.8874 H   0  0  0  0  0  0  0  0  0  0  0  0
  148.2505  142.8718  154.5996 H   0  0  0  0  0  0  0  0  0  0  0  0
  149.8752  138.1605  155.9168 H   0  0  0  0  0  0  0  0  0  0  0  0
  148.8744  137.2783  154.7811 H   0  0  0  0  0  0  0  0  0  0  0  0
  150.8930  135.9458  155.4694 H   0  0  0  0  0  0  0  0  0  0  0  0
  150.8829  136.2363  153.7400 H   0  0  0  0  0  0  0  0  0  0  0  0
  153.4056  138.8224  153.9662 H   0  0  0  0  0  0  0  0  0  0  0  0
  152.3750  137.9502  152.8467 H   0  0  0  0  0  0  0  0  0  0  0  0
  151.4330  140.2233  153.2428 H   0  0  0  0  0  0  0  0  0  0  0  0
  151.4623  139.9630  154.9818 H   0  0  0  0  0  0  0  0  0  0  0  0
  147.5823  135.6896  152.3362 H   0  0  0  0  0  0  0  0  0  0  0  0
  144.7290  135.1556  152.9655 H   0  0  0  0  0  0  0  0  0  0  0  0
  146.6462  133.9479  154.2195 H   0  0  0  0  0  0  0  0  0  0  0  0
  145.2818  133.0439  153.6760 H   0  0  0  0  0  0  0  0  0  0  0  0
  147.7809  133.1816  151.9259 H   0  0  0  0  0  0  0  0  0  0  0  0
  147.7005  132.1252  153.3054 H   0  0  0  0  0  0  0  0  0  0  0  0
  147.0225  130.7786  151.4844 H   0  0  0  0  0  0  0  0  0  0  0  0
  145.5917  131.0760  152.4224 H   0  0  0  0  0  0  0  0  0  0  0  0
  146.3689  132.3520  149.7607 H   0  0  0  0  0  0  0  0  0  0  0  0
  145.0765  131.2310  150.0594 H   0  0  0  0  0  0  0  0  0  0  0  0
  144.0649  133.3553  149.7987 H   0  0  0  0  0  0  0  0  0  0  0  0
  143.9079  132.9938  151.4932 H   0  0  0  0  0  0  0  0  0  0  0  0
  144.7289  135.3789  150.6545 H   0  0  0  0  0  0  0  0  0  0  0  0
  146.2659  134.6141  150.4222 H   0  0  0  0  0  0  0  0  0  0  0  0
  1  2  2  0  0  0  0
  2  3  1  0  0  0  0
  2 16  1  0  0  0  0
  3  4  1  0  0  0  0
  3 24  1  0  0  0  0
  4  9  1  0  0  0  0
  4  5  2  0  0  0  0
  5  6  1  0  0  0  0
  5 25  1  0  0  0  0
  6  7  2  0  0  0  0
  6 26  1  0  0  0  0
  7  8  1  0  0  0  0
  7 27  1  0  0  0  0
  8  9  2  0  0  0  0
  9 10  1  0  0  0  0
 10 15  1  0  0  0  0
 10 11  1  0  0  0  0
 11 12  1  0  0  0  0
 11 28  1  0  0  0  0
 11 29  1  0  0  0  0
 12 13  1  0  0  0  0
 12 30  1  0  0  0  0
 12 31  1  0  0  0  0
 13 14  1  0  0  0  0
 14 15  1  0  0  0  0
 14 32  1  0  0  0  0
 14 33  1  0  0  0  0
 15 34  1  0  0  0  0
 15 35  1  0  0  0  0
 16 17  1  0  0  0  0
 16 36  1  0  0  0  0
 17 23  1  0  0  0  0
 17 18  1  0  0  0  0
 17 37  1  0  0  0  0
 18 19  1  0  0  0  0
 18 38  1  0  0  0  0
 18 39  1  0  0  0  0
 19 20  1  0  0  0  0
 19 40  1  0  0  0  0
 19 41  1  0  0  0  0
 20 21  1  0  0  0  0
 20 42  1  0  0  0  0
 20 43  1  0  0  0  0
 21 22  1  0  0  0  0
 21 44  1  0  0  0  0
 21 45  1  0  0  0  0
 22 23  1  0  0  0  0
 22 46  1  0  0  0  0
 22 47  1  0  0  0  0
 23 48  1  0  0  0  0
 23 49  1  0  0  0  0
M  END
> <s_m_source_file>
AV-unprocessed.smi

> <i_m_source_file_index>
642

> <i_lp_mmshare_version>
43012

> <i_f3d_flags>
0

> <s_epik_input>
W0NIMl0xW0NIMl1bQ0gyXVtDSDJdW0NIMl1bQ0gyXVtDSF0xW05IXUMoPU8pW05IXWMyW2NIXVtjSF1bY0hdbmMyTjNbQ0gyXVtDSDJdT1tDSDJdW0NIMl0z

> <s_epik_cmdline>
J2VwaWtfcHl0aG9uJywgJy1waCcsICc3LjAnLCAnLXRuJywgJzgnLCAnLW1hJywgJzIwMCcsICctbWV0YWxfYmluZGluZycsICctaW1hZScsICc8aW5maWxlLm1hZT4nLCAnLW9tYWUnLCAnPG91dGZpbGUubWFlPic=

> <r_lp_tautomer_probability>
1

> <r_epik_Ionization_Penalty>
0.00218327

> <r_epik_Ionization_Penalty_Charging>
0

> <r_epik_Ionization_Penalty_Neutral>
0.00218327

> <r_epik_State_Penalty>
0.00146969

> <r_epik_Charging_Adjusted_Penalty>
0.00146969

> <i_epik_Tot_Q>
0

> <i_epik_Tot_abs_Q>
0

> <r_epik_Metal_State_Penalty>
-0

> <b_epik_Metal_Only>
0

> <s_lp_Force_Field>
OPLS_2005

> <r_lp_Energy>
33.5624

> <b_lp_Chiralities_Consistent>
1

> <s_lp_Variant>
AV-unprocessed.smi:642-1

> <Gold.Version>
5.8.1

> <Gold.Id.Protein>
6NUR|6NUR_protein|mol2

> <Gold.PLP.Fitness>
46.7507

> <Gold.PLP.PLP>
-35.8395

> <Gold.PLP.part.hbond>
-3.0000

> <Gold.PLP.part.metal>
0.0000

> <Gold.PLP.part.buried>
1.2423

> <Gold.PLP.part.nonpolar>
-34.2186

> <Gold.PLP.part.repulsive>
1.3930

> <Gold.PLP.ligand.clash>
0.0000

> <Gold.PLP.ligand.torsion>
0.4441

> <Gold.PLP.Chemscore.Hbond>
2.8560

> <Gold.PLP.Chemscore.CHOScore>
1.0000

> <Gold.PLP.Chemscore.Metal>
0.0000

> <Gold.Chemscore.Hbonds>
donor molecule, donor type, donor heavy atom, donor atom, acceptor molecule, acceptor atom, score
      L1  H     3    24       P1  7948  0.83
      L1  H    16    36       P1  7948  0.95
      P1  H 10752 10764       L1    13  0.19
      L1  C     7    27       P1  8028  1.00

> <Gold.PLP.Chemscore.Internal.Correction>
0.2313

> <Gold.Rescore>
     Score         DG    S(hbond)    S(metal)    S(lipo)     H(rot)  DE(clash)    DE(int)     intcor
     16.63     -19.75       1.91        0.00      93.19       1.18       0.54       2.57       ----

> <Gold.Chemscore.Fitness>
16.6340

> <Gold.Chemscore.DG>
-19.7453

> <Gold.Chemscore.ZeroCoef>
-5.4800

> <Gold.Chemscore.Hbond>
1.9103

> <Gold.Chemscore.Metal>
0.0000

> <Gold.Chemscore.Lipo>
93.1892

> <Gold.Chemscore.Internal_Hbond>
0.0000

> <Gold.Chemscore.DEClash>
0.5409

> <Gold.Chemscore.DEInternal>
2.5703

> <Gold.Chemscore.Rot>
1.1791

> <Gold.Chemscore.Internal.Correction>
   9.000000E+99

> <Gold.Chemscore.Hbonds>
donor molecule, donor type, donor heavy atom, donor atom, acceptor molecule, acceptor atom, score
      L1  H     3    24       P1  7948  0.81
      L1  H    16    36       P1  7948  0.85

> <Gold.Chemscore.Hbond.Weighted>
-6.3806

> <Gold.Chemscore.Metal.Weighted>
-0.0000

> <Gold.Chemscore.Lipo.Weighted>
-10.9031

> <Gold.Chemscore.Internal_Hbond.Weighted>
0.0000

> <Gold.Chemscore.DEClash.Weighted>
0.5409

> <Gold.Chemscore.DEInternal.Weighted>
2.5703

> <Gold.Chemscore.Rot.Weighted>
3.0184

> <Gold.Chemscore.Internal.Correction.Weighted>
   9.000000E+99

> <Gold.Protein.RotatedTorsions>
[ 6907 6896 6895 6894 ] final   -5.17 input  -60.11 | X-H torsion
[ 7974 7965 7964 7962 ] final    3.07 input  175.53 | X-H torsion
[ 8008 7997 7996 7995 ] final  -44.89 input   59.86 | X-H torsion
[ 10167 10162 10161 10158 ] final  -87.51 input  -65.29 | X-H torsion
[ 10718 10713 10712 10709 ] final -118.59 input   66.30 | X-H torsion
[ 10763 10752 10751 10750 ] final  -48.19 input  -60.55 | X-H torsion
[ 11005 11000 10999 10996 ] final   10.57 input  -57.11 | X-H torsion

> <Gold.Protein.ActiveResidues>
 VAL166  LYS551  ARG553  GLY616  TRP617  ASP618  TYR619  PRO620  LYS621  CYS622 
 ASP623  PHE694  ASN695  SER759  ASP760  ASP761  ALA762  ILE779  LEU786  VAL792 
 PHE793  MET794  SER795  GLU796  ALA797  LYS798  CYS799  TRP800  GLU811  SER814 

> <Gold.Protein.RotatedAtoms>
  151.4859  135.1055  159.9789 H   0  0  0  0  0  0  0  0  0  0  0  0  # atno 6907 bound_to 6896
  152.4761  133.8137  159.7027 H   0  0  0  0  0  0  0  0  0  0  0  0  # atno 6908 bound_to 6896
  150.8799  133.7324  159.2961 H   0  0  0  0  0  0  0  0  0  0  0  0  # atno 6909 bound_to 6896
  146.2445  140.0740  142.8361 H   0  0  0  0  0  0  0  0  0  0  0  0  # atno 7974 bound_to 7965
  154.3999  140.1410  156.3758 H   0  0  0  0  0  0  0  0  0  0  0  0  # atno 8008 bound_to 7997
  155.8050  140.3474  155.5404 H   0  0  0  0  0  0  0  0  0  0  0  0  # atno 8009 bound_to 7997
  155.8445  140.0932  157.1704 H   0  0  0  0  0  0  0  0  0  0  0  0  # atno 8010 bound_to 7997
  140.3837  143.2736  151.9351 H   0  0  0  0  0  0  0  0  0  0  0  0  # atno 10167 bound_to 10162
  156.1117  130.6254  150.9310 H   0  0  0  0  0  0  0  0  0  0  0  0  # atno 10718 bound_to 10713
  154.0737  135.6601  153.4828 H   0  0  0  0  0  0  0  0  0  0  0  0  # atno 10763 bound_to 10752
  153.0381  135.5163  154.7541 H   0  0  0  0  0  0  0  0  0  0  0  0  # atno 10764 bound_to 10752
  154.6615  135.3016  154.9828 H   0  0  0  0  0  0  0  0  0  0  0  0  # atno 10765 bound_to 10752
  140.5129  134.0634  155.7823 H   0  0  0  0  0  0  0  0  0  0  0  0  # atno 11005 bound_to 11000
  145.0791  140.9208  143.4836 LP  0  0  0  0  0  0  0  0  0  0  0  0  # atno 17320 bound_to 7965
  145.0890  139.2904  143.5745 LP  0  0  0  0  0  0  0  0  0  0  0  0  # atno 17321 bound_to 7965
  139.4793  144.5794  151.7958 LP  0  0  0  0  0  0  0  0  0  0  0  0  # atno 17342 bound_to 10162
  140.4911  144.1309  150.5950 LP  0  0  0  0  0  0  0  0  0  0  0  0  # atno 17343 bound_to 10162
  157.6299  131.0922  150.8462 LP  0  0  0  0  0  0  0  0  0  0  0  0  # atno 17370 bound_to 10713
  156.8572  130.5100  149.5307 LP  0  0  0  0  0  0  0  0  0  0  0  0  # atno 17371 bound_to 10713
  141.1376  133.9195  157.2400 LP  0  0  0  0  0  0  0  0  0  0  0  0  # atno 17394 bound_to 11000
  139.9648  135.0145  156.9359 LP  0  0  0  0  0  0  0  0  0  0  0  0  # atno 17395 bound_to 11000

$$$$
