AV-unprocessed.smi:290|AV-procd|sdf|2217|dock3
  -GOLD-   2262022 53D 1   1.00000     0.00000
 Structure written by MMmdl.
 59 62  0  0  0  0  0  0  0  0  2 V2000
  150.3786  137.9879  153.7153 C   0  0  0  0  0  0  0  0  0  0  0  0
  150.1263  139.1609  154.6764 C   0  0  2  0  0  0  0  0  0  0  0  0
  151.2992  139.9482  154.8248 O   0  0  0  0  0  0  0  0  0  0  0  0
  151.1213  140.7406  155.9843 C   0  0  0  0  0  0  0  0  0  0  0  0
  150.5432  139.7468  156.9844 C   0  0  0  0  0  0  0  0  0  0  0  0
  149.6908  138.8086  156.1240 C   0  0  2  0  0  0  0  0  0  0  0  0
  150.0260  137.4727  156.4640 O   0  0  0  0  0  0  0  0  0  0  0  0
  148.1749  139.0063  156.3716 C   0  0  0  0  0  0  0  0  0  0  0  0
  147.3352  138.1873  155.5101 N   0  0  0  0  0  0  0  0  0  0  0  0
  146.5911  137.0915  155.8851 C   0  0  0  0  0  0  0  0  0  0  0  0
  145.9223  136.5168  154.9234 N   0  0  0  0  0  0  0  0  0  0  0  0
  146.2247  137.2748  153.7982 C   0  0  0  0  0  0  0  0  0  0  0  0
  145.8499  137.2181  152.4250 C   0  0  0  0  0  0  0  0  0  0  0  0
  145.0239  136.2995  151.8772 N   0  0  0  0  0  0  0  0  0  0  0  0
  143.6420  136.3710  152.3491 C   0  0  0  0  0  0  0  0  0  0  0  0
  143.1248  134.9296  152.3982 C   0  0  0  0  0  0  0  0  0  0  0  0
  144.4192  134.1503  152.6479 C   0  0  1  0  0  0  0  0  0  0  0  0
  144.3884  132.6630  152.4857 N   0  3  1  0  0  0  0  0  0  0  0  0
  143.6980  132.2665  151.2332 C   0  0  0  0  0  0  0  0  0  0  0  0
  145.6951  131.9680  152.6598 C   0  0  0  0  0  0  0  0  0  0  0  0
  145.7243  130.5697  152.0161 C   0  0  0  0  0  0  0  0  0  0  0  0
  146.9818  129.9630  152.2249 O   0  0  0  0  0  0  0  0  0  0  0  0
  145.4658  134.9073  151.8081 C   0  0  1  0  0  0  0  0  0  0  0  0
  145.5863  134.4845  150.3343 C   0  0  0  0  0  0  0  0  0  0  0  0
  146.3275  138.1779  151.5960 N   0  0  0  0  0  0  0  0  0  0  0  0
  147.1438  139.1248  152.0684 C   0  0  0  0  0  0  0  0  0  0  0  0
  147.5908  139.2953  153.3142 N   0  0  0  0  0  0  0  0  0  0  0  0
  147.0998  138.3397  154.1544 C   0  0  0  0  0  0  0  0  0  0  0  0
  144.6934  134.3539  153.6845 H   0  0  0  0  0  0  0  0  0  0  0  0
  146.4496  134.7774  152.2594 H   0  0  0  0  0  0  0  0  0  0  0  0
  149.4883  137.3680  153.6075 H   0  0  0  0  0  0  0  0  0  0  0  0
  151.1940  137.3527  154.0627 H   0  0  0  0  0  0  0  0  0  0  0  0
  150.6479  138.3534  152.7243 H   0  0  0  0  0  0  0  0  0  0  0  0
  149.3825  139.8198  154.2269 H   0  0  0  0  0  0  0  0  0  0  0  0
  152.0600  141.1810  156.3211 H   0  0  0  0  0  0  0  0  0  0  0  0
  150.4145  141.5461  155.7775 H   0  0  0  0  0  0  0  0  0  0  0  0
  151.3667  139.2077  157.4562 H   0  0  0  0  0  0  0  0  0  0  0  0
  149.9819  140.2404  157.7786 H   0  0  0  0  0  0  0  0  0  0  0  0
  150.9145  137.4585  156.7851 H   0  0  0  0  0  0  0  0  0  0  0  0
  147.9251  138.7775  157.4085 H   0  0  0  0  0  0  0  0  0  0  0  0
  147.9050  140.0521  156.2187 H   0  0  0  0  0  0  0  0  0  0  0  0
  146.5648  136.7259  156.9013 H   0  0  0  0  0  0  0  0  0  0  0  0
  143.6061  136.8142  153.3461 H   0  0  0  0  0  0  0  0  0  0  0  0
  143.0365  136.9913  151.6876 H   0  0  0  0  0  0  0  0  0  0  0  0
  142.3761  134.7771  153.1759 H   0  0  0  0  0  0  0  0  0  0  0  0
  142.6721  134.6868  151.4375 H   0  0  0  0  0  0  0  0  0  0  0  0
  144.2574  132.6020  150.3590 H   0  0  0  0  0  0  0  0  0  0  0  0
  142.6996  132.7023  151.1853 H   0  0  0  0  0  0  0  0  0  0  0  0
  143.5690  131.1879  151.1618 H   0  0  0  0  0  0  0  0  0  0  0  0
  146.4918  132.5868  152.2444 H   0  0  0  0  0  0  0  0  0  0  0  0
  145.9280  131.8424  153.7152 H   0  0  0  0  0  0  0  0  0  0  0  0
  144.9346  129.9200  152.3905 H   0  0  0  0  0  0  0  0  0  0  0  0
  145.5671  130.6603  150.9409 H   0  0  0  0  0  0  0  0  0  0  0  0
  147.6169  130.3831  151.6641 H   0  0  0  0  0  0  0  0  0  0  0  0
  145.9012  133.4461  150.2400 H   0  0  0  0  0  0  0  0  0  0  0  0
  146.3331  135.0924  149.8229 H   0  0  0  0  0  0  0  0  0  0  0  0
  144.6466  134.6103  149.7965 H   0  0  0  0  0  0  0  0  0  0  0  0
  147.4883  139.8489  151.3445 H   0  0  0  0  0  0  0  0  0  0  0  0
  143.7993  132.3297  153.2358 H   0  0  0  0  0  0  0  0  0  0  0  0
  1  2  1  0  0  0  0
  1 31  1  0  0  0  0
  1 32  1  0  0  0  0
  1 33  1  0  0  0  0
  2  6  1  0  0  0  0
  2  3  1  0  0  0  0
  2 34  1  0  0  0  0
  3  4  1  0  0  0  0
  4  5  1  0  0  0  0
  4 35  1  0  0  0  0
  4 36  1  0  0  0  0
  5  6  1  0  0  0  0
  5 37  1  0  0  0  0
  5 38  1  0  0  0  0
  6  7  1  0  0  0  0
  6  8  1  0  0  0  0
  7 39  1  0  0  0  0
  8  9  1  0  0  0  0
  8 40  1  0  0  0  0
  8 41  1  0  0  0  0
  9 28  1  0  0  0  0
  9 10  1  0  0  0  0
 10 11  2  0  0  0  0
 10 42  1  0  0  0  0
 11 12  1  0  0  0  0
 12 28  2  0  0  0  0
 12 13  1  0  0  0  0
 13 14  1  0  0  0  0
 13 25  2  0  0  0  0
 14 23  1  0  0  0  0
 14 15  1  0  0  0  0
 15 16  1  0  0  0  0
 15 43  1  0  0  0  0
 15 44  1  0  0  0  0
 16 17  1  0  0  0  0
 16 45  1  0  0  0  0
 16 46  1  0  0  0  0
 17 29  1  0  0  0  0
 17 18  1  0  0  0  0
 17 23  1  0  0  0  0
 18 19  1  0  0  0  0
 18 20  1  0  0  0  0
 18 59  1  0  0  0  0
 19 47  1  0  0  0  0
 19 48  1  0  0  0  0
 19 49  1  0  0  0  0
 20 21  1  0  0  0  0
 20 50  1  0  0  0  0
 20 51  1  0  0  0  0
 21 22  1  0  0  0  0
 21 52  1  0  0  0  0
 21 53  1  0  0  0  0
 22 54  1  0  0  0  0
 23 30  1  0  0  0  0
 23 24  1  0  0  0  0
 24 55  1  0  0  0  0
 24 56  1  0  0  0  0
 24 57  1  0  0  0  0
 25 26  1  0  0  0  0
 26 27  2  0  0  0  0
 26 58  1  0  0  0  0
 27 28  1  0  0  0  0
M  CHG  1  18   1
M  END
> <s_m_source_file>
AV-unprocessed.smi

> <i_m_source_file_index>
290

> <i_lp_mmshare_version>
43012

> <i_f3d_flags>
0

> <s_epik_input>
W0NIMl0xW0NIMl1PW0NAQEhdKFtDSDNdKVtDQEBdMShbT0hdKVtDSDJdbihbY0hdbjIpYyhjMjMpbltjSF1uYzNONFtDSDJdW0NIMl1bQ0BIXShbQ0BIXTRbQ0gzXSlOKFtDSDNdKVtDSDJdW0NIMl1bT0hd

> <s_epik_cmdline>
J2VwaWtfcHl0aG9uJywgJy1waCcsICc3LjAnLCAnLXRuJywgJzgnLCAnLW1hJywgJzIwMCcsICctbWV0YWxfYmluZGluZycsICctaW1hZScsICc8aW5maWxlLm1hZT4nLCAnLW9tYWUnLCAnPG91dGZpbGUubWFlPic=

> <r_lp_tautomer_probability>
1

> <r_epik_Ionization_Penalty>
0.0036983

> <r_epik_Ionization_Penalty_Charging>
0.0032725

> <r_epik_Ionization_Penalty_Neutral>
0.000425798

> <r_epik_State_Penalty>
-0

> <r_epik_Charging_Adjusted_Penalty>
0.0032725

> <i_epik_Tot_Q>
1

> <i_epik_Tot_abs_Q>
1

> <r_epik_Metal_State_Penalty>
-0

> <b_epik_Metal_Only>
0

> <s_lp_Force_Field>
OPLS_2005

> <r_lp_Energy>
65.9865

> <b_lp_Chiralities_Consistent>
1

> <s_lp_Variant>
AV-unprocessed.smi:290-3

> <Gold.Version>
5.8.1

> <Gold.Id.Protein>
6NUR|6NUR_protein|mol2

> <Gold.PLP.Fitness>
45.4503

> <Gold.PLP.PLP>
-32.4285

> <Gold.PLP.part.hbond>
-2.9867

> <Gold.PLP.part.metal>
0.0000

> <Gold.PLP.part.buried>
-4.3801

> <Gold.PLP.part.nonpolar>
-26.7313

> <Gold.PLP.part.repulsive>
0.7784

> <Gold.PLP.ligand.clash>
0.0000

> <Gold.PLP.ligand.torsion>
0.6479

> <Gold.PLP.Chemscore.Hbond>
4.0000

> <Gold.PLP.Chemscore.CHOScore>
0.6454

> <Gold.PLP.Chemscore.Metal>
0.0000

> <Gold.Chemscore.Hbonds>
donor molecule, donor type, donor heavy atom, donor atom, acceptor molecule, acceptor atom, score
      L1  H    18    59       P1 10957  1.30
      L1  H    22    54       P1 10747  1.00
      P1  H  7989  7998       L1     3  1.00
      L1  C    26    58       P1  7957  0.74

> <Gold.PLP.Chemscore.Internal.Correction>
0.3816

> <Gold.Rescore>
     Score         DG    S(hbond)    S(metal)    S(lipo)     H(rot)  DE(clash)    DE(int)     intcor
     10.43     -11.75       2.24        0.00      69.94       3.67       0.31       1.02       ----

> <Gold.Chemscore.Fitness>
10.4283

> <Gold.Chemscore.DG>
-11.7507

> <Gold.Chemscore.ZeroCoef>
-5.4800

> <Gold.Chemscore.Hbond>
2.2372

> <Gold.Chemscore.Metal>
0.0000

> <Gold.Chemscore.Lipo>
69.9399

> <Gold.Chemscore.Internal_Hbond>
0.0000

> <Gold.Chemscore.DEClash>
0.3064

> <Gold.Chemscore.DEInternal>
1.0160

> <Gold.Chemscore.Rot>
3.6658

> <Gold.Chemscore.Internal.Correction>
   9.000000E+99

> <Gold.Chemscore.Hbonds>
donor molecule, donor type, donor heavy atom, donor atom, acceptor molecule, acceptor atom, score
      L1  H    18    59       P1 10957  0.06
      L1  H    22    54       P1 10747  0.97
      P1  H  7989  7998       L1     3  0.72

> <Gold.Chemscore.Hbond.Weighted>
-7.4722

> <Gold.Chemscore.Metal.Weighted>
-0.0000

> <Gold.Chemscore.Lipo.Weighted>
-8.1830

> <Gold.Chemscore.Internal_Hbond.Weighted>
0.0000

> <Gold.Chemscore.DEClash.Weighted>
0.3064

> <Gold.Chemscore.DEInternal.Weighted>
1.0160

> <Gold.Chemscore.Rot.Weighted>
9.3844

> <Gold.Chemscore.Internal.Correction.Weighted>
   9.000000E+99

> <Gold.Protein.RotatedTorsions>
[ 6907 6896 6895 6894 ] final   68.50 input  -60.11 | X-H torsion
[ 7974 7965 7964 7962 ] final   25.97 input  175.53 | X-H torsion
[ 8008 7997 7996 7995 ] final -159.21 input   59.86 | X-H torsion
[ 10167 10162 10161 10158 ] final -152.40 input  -65.29 | X-H torsion
[ 10718 10713 10712 10709 ] final  -30.28 input   66.30 | X-H torsion
[ 10763 10752 10751 10750 ] final -177.61 input  -60.55 | X-H torsion
[ 11005 11000 10999 10996 ] final   -6.48 input  -57.11 | X-H torsion

> <Gold.Protein.ActiveResidues>
 VAL166  LYS551  ARG553  GLY616  TRP617  ASP618  TYR619  PRO620  LYS621  CYS622 
 ASP623  PHE694  ASN695  SER759  ASP760  ASP761  ALA762  ILE779  LEU786  VAL792 
 PHE793  MET794  SER795  GLU796  ALA797  LYS798  CYS799  TRP800  GLU811  SER814 

> <Gold.Protein.RotatedAtoms>
  152.4625  134.5152  159.9765 H   0  0  0  0  0  0  0  0  0  0  0  0  # atno 6907 bound_to 6896
  151.5198  133.3463  159.2907 H   0  0  0  0  0  0  0  0  0  0  0  0  # atno 6908 bound_to 6896
  150.8594  134.7970  159.7133 H   0  0  0  0  0  0  0  0  0  0  0  0  # atno 6909 bound_to 6896
  146.1862  139.7393  142.8865 H   0  0  0  0  0  0  0  0  0  0  0  0  # atno 7974 bound_to 7965
  155.7592  140.0837  157.2163 H   0  0  0  0  0  0  0  0  0  0  0  0  # atno 8008 bound_to 7997
  154.4005  140.1546  156.2869 H   0  0  0  0  0  0  0  0  0  0  0  0  # atno 8009 bound_to 7997
  155.8856  140.3418  155.5921 H   0  0  0  0  0  0  0  0  0  0  0  0  # atno 8010 bound_to 7997
  139.7185  143.8995  152.2494 H   0  0  0  0  0  0  0  0  0  0  0  0  # atno 10167 bound_to 10162
  156.4018  130.4391  149.7317 H   0  0  0  0  0  0  0  0  0  0  0  0  # atno 10718 bound_to 10713
  154.5580  135.2818  155.0946 H   0  0  0  0  0  0  0  0  0  0  0  0  # atno 10763 bound_to 10752
  154.2366  135.6364  153.5197 H   0  0  0  0  0  0  0  0  0  0  0  0  # atno 10764 bound_to 10752
  153.0021  135.5550  154.6165 H   0  0  0  0  0  0  0  0  0  0  0  0  # atno 10765 bound_to 10752
  140.7024  133.8978  155.8693 H   0  0  0  0  0  0  0  0  0  0  0  0  # atno 11005 bound_to 11000
  145.3932  141.0375  143.3112 LP  0  0  0  0  0  0  0  0  0  0  0  0  # atno 17320 bound_to 7965
  144.8401  139.5486  143.6904 LP  0  0  0  0  0  0  0  0  0  0  0  0  # atno 17321 bound_to 7965
  139.8884  144.6979  150.8798 LP  0  0  0  0  0  0  0  0  0  0  0  0  # atno 17342 bound_to 10162
  140.7749  143.3605  151.1837 LP  0  0  0  0  0  0  0  0  0  0  0  0  # atno 17343 bound_to 10162
  156.4330  130.7824  151.2844 LP  0  0  0  0  0  0  0  0  0  0  0  0  # atno 17370 bound_to 10713
  157.7504  131.0148  150.3479 LP  0  0  0  0  0  0  0  0  0  0  0  0  # atno 17371 bound_to 10713
  141.0152  134.0965  157.4179 LP  0  0  0  0  0  0  0  0  0  0  0  0  # atno 17394 bound_to 11000
  139.8893  135.0104  156.6671 LP  0  0  0  0  0  0  0  0  0  0  0  0  # atno 17395 bound_to 11000

$$$$
