AV-unprocessed.smi:281|AV-procd|sdf|2107|dock2
  -GOLD-   2262021403D 1   1.00000     0.00000
 Structure written by MMmdl.
 55 59  0  0  0  0  0  0  0  0  1 V2000
  151.9410  138.6718  154.7768 C   0  0  0  0  0  0  0  0  0  0  0  0
  150.4424  138.7925  155.0701 C   0  0  2  0  0  0  0  0  0  0  0  0
  149.6469  137.6035  154.5054 C   0  0  0  0  0  0  0  0  0  0  0  0
  148.2219  137.8170  154.7190 N   0  0  0  0  0  0  0  0  0  0  0  0
  147.4336  136.7196  154.6012 C   0  0  0  0  0  0  0  0  0  0  0  0
  147.5816  135.6824  155.4683 N   0  0  0  0  0  0  0  0  0  0  0  0
  146.8135  134.5949  155.3567 C   0  0  0  0  0  0  0  0  0  0  0  0
  145.8558  134.3378  154.4641 N   0  0  0  0  0  0  0  0  0  0  0  0
  145.7049  135.3721  153.5881 C   0  0  0  0  0  0  0  0  0  0  0  0
  146.4460  136.5877  153.5845 C   0  0  0  0  0  0  0  0  0  0  0  0
  146.0287  137.3916  152.5302 N   0  0  0  0  0  0  0  0  0  0  0  0
  145.0912  136.6947  151.9487 C   0  0  0  0  0  0  0  0  0  0  0  0
  144.8260  135.4717  152.5230 N   0  0  0  0  0  0  0  0  0  0  0  0
  143.8461  134.4915  152.0792 C   0  0  0  0  0  0  0  0  0  0  0  0
  144.4689  133.1595  151.5979 C   0  0  2  0  0  0  0  0  0  0  0  0
  144.9964  132.4617  152.7128 O   0  0  0  0  0  0  0  0  0  0  0  0
  145.5916  133.3679  150.5890 C   0  0  0  0  0  0  0  0  0  0  0  0
  145.5278  132.1026  149.7450 C   0  0  0  0  0  0  0  0  0  0  0  0
  144.1341  131.8786  149.6195 O   0  0  0  0  0  0  0  0  0  0  0  0
  143.4991  132.2223  150.8476 C   0  0  0  0  0  0  0  0  0  0  0  0
  147.7356  139.0849  154.1826 C   0  0  0  0  0  0  0  0  0  0  0  0
  148.5846  140.2733  154.7042 C   0  0  1  0  0  0  0  0  0  0  0  0
  148.2562  141.5408  153.9256 C   0  0  0  0  0  0  0  0  0  0  0  0
  147.1286  142.1556  154.7377 C   0  0  0  0  0  0  0  0  0  0  0  0
  147.5389  141.9431  156.0770 O   0  0  0  0  0  0  0  0  0  0  0  0
  148.3026  140.7412  156.1626 C   0  0  1  0  0  0  0  0  0  0  0  0
  147.5841  139.7602  157.1054 C   0  0  0  0  0  0  0  0  0  0  0  0
  149.9702  140.0002  154.4754 O   0  0  0  0  0  0  0  0  0  0  0  0
  152.3554  137.7665  155.2208 H   0  0  0  0  0  0  0  0  0  0  0  0
  152.4870  139.5224  155.1854 H   0  0  0  0  0  0  0  0  0  0  0  0
  152.1318  138.6372  153.7038 H   0  0  0  0  0  0  0  0  0  0  0  0
  150.3093  138.8414  156.1514 H   0  0  0  0  0  0  0  0  0  0  0  0
  149.8295  137.5024  153.4348 H   0  0  0  0  0  0  0  0  0  0  0  0
  149.9884  136.6803  154.9724 H   0  0  0  0  0  0  0  0  0  0  0  0
  146.9936  133.8190  156.0861 H   0  0  0  0  0  0  0  0  0  0  0  0
  144.5681  137.0563  151.0757 H   0  0  0  0  0  0  0  0  0  0  0  0
  143.1553  134.3071  152.9030 H   0  0  0  0  0  0  0  0  0  0  0  0
  143.2534  134.9384  151.2799 H   0  0  0  0  0  0  0  0  0  0  0  0
  144.3130  132.3674  153.3586 H   0  0  0  0  0  0  0  0  0  0  0  0
  145.3751  134.2278  149.9539 H   0  0  0  0  0  0  0  0  0  0  0  0
  146.5687  133.5312  151.0455 H   0  0  0  0  0  0  0  0  0  0  0  0
  146.0065  132.2177  148.7723 H   0  0  0  0  0  0  0  0  0  0  0  0
  145.9911  131.2610  150.2624 H   0  0  0  0  0  0  0  0  0  0  0  0
  143.2720  131.3198  151.4173 H   0  0  0  0  0  0  0  0  0  0  0  0
  142.5522  132.7068  150.6116 H   0  0  0  0  0  0  0  0  0  0  0  0
  147.8013  139.0358  153.0945 H   0  0  0  0  0  0  0  0  0  0  0  0
  146.6830  139.2300  154.4287 H   0  0  0  0  0  0  0  0  0  0  0  0
  149.1101  142.2204  153.9323 H   0  0  0  0  0  0  0  0  0  0  0  0
  147.9848  141.3617  152.8846 H   0  0  0  0  0  0  0  0  0  0  0  0
  146.9819  143.2148  154.5262 H   0  0  0  0  0  0  0  0  0  0  0  0
  146.1872  141.6345  154.5580 H   0  0  0  0  0  0  0  0  0  0  0  0
  149.2472  141.0273  156.6268 H   0  0  0  0  0  0  0  0  0  0  0  0
  148.1568  138.8442  157.2469 H   0  0  0  0  0  0  0  0  0  0  0  0
  146.5964  139.4903  156.7321 H   0  0  0  0  0  0  0  0  0  0  0  0
  147.4465  140.2089  158.0893 H   0  0  0  0  0  0  0  0  0  0  0  0
  1  2  1  0  0  0  0
  1 29  1  0  0  0  0
  1 30  1  0  0  0  0
  1 31  1  0  0  0  0
  2 28  1  0  0  0  0
  2  3  1  0  0  0  0
  2 32  1  0  0  0  0
  3  4  1  0  0  0  0
  3 33  1  0  0  0  0
  3 34  1  0  0  0  0
  4  5  1  0  0  0  0
  4 21  1  0  0  0  0
  5 10  1  0  0  0  0
  5  6  2  0  0  0  0
  6  7  1  0  0  0  0
  7  8  2  0  0  0  0
  7 35  1  0  0  0  0
  8  9  1  0  0  0  0
  9 13  1  0  0  0  0
  9 10  2  0  0  0  0
 10 11  1  0  0  0  0
 11 12  2  0  0  0  0
 12 13  1  0  0  0  0
 12 36  1  0  0  0  0
 13 14  1  0  0  0  0
 14 15  1  0  0  0  0
 14 37  1  0  0  0  0
 14 38  1  0  0  0  0
 15 20  1  0  0  0  0
 15 16  1  0  0  0  0
 15 17  1  0  0  0  0
 16 39  1  0  0  0  0
 17 18  1  0  0  0  0
 17 40  1  0  0  0  0
 17 41  1  0  0  0  0
 18 19  1  0  0  0  0
 18 42  1  0  0  0  0
 18 43  1  0  0  0  0
 19 20  1  0  0  0  0
 20 44  1  0  0  0  0
 20 45  1  0  0  0  0
 21 22  1  0  0  0  0
 21 46  1  0  0  0  0
 21 47  1  0  0  0  0
 22 26  1  0  0  0  0
 22 23  1  0  0  0  0
 22 28  1  0  0  0  0
 23 24  1  0  0  0  0
 23 48  1  0  0  0  0
 23 49  1  0  0  0  0
 24 25  1  0  0  0  0
 24 50  1  0  0  0  0
 24 51  1  0  0  0  0
 25 26  1  0  0  0  0
 26 27  1  0  0  0  0
 26 52  1  0  0  0  0
 27 53  1  0  0  0  0
 27 54  1  0  0  0  0
 27 55  1  0  0  0  0
M  END
> <s_m_source_file>
AV-unprocessed.smi

> <i_m_source_file_index>
281

> <i_lp_mmshare_version>
43012

> <i_f3d_flags>
0

> <s_epik_input>
W0NIM11bQ0BASF0xT1tDSDJdW0NIMl1bQ0BAXTEyW0NIMl1OKFtDSDJdW0NASF0oTzIpW0NIM10pYyhuW2NIXW4zKWMoYzM0KW5bY0hdbjRbQ0gyXVtDQEBdNShbT0hdKVtDSDJdW0NIMl1PW0NIMl01

> <s_epik_cmdline>
J2VwaWtfcHl0aG9uJywgJy1waCcsICc3LjAnLCAnLXRuJywgJzgnLCAnLW1hJywgJzIwMCcsICctbWV0YWxfYmluZGluZycsICctaW1hZScsICc8aW5maWxlLm1hZT4nLCAnLW9tYWUnLCAnPG91dGZpbGUubWFlPic=

> <r_lp_tautomer_probability>
1

> <r_epik_Ionization_Penalty>
0.00571331

> <r_epik_Ionization_Penalty_Charging>
0

> <r_epik_Ionization_Penalty_Neutral>
0.00571331

> <r_epik_State_Penalty>
0.00399586

> <r_epik_Charging_Adjusted_Penalty>
0.00399586

> <i_epik_Tot_Q>
0

> <i_epik_Tot_abs_Q>
0

> <r_epik_Metal_State_Penalty>
-0

> <b_epik_Metal_Only>
0

> <s_lp_Force_Field>
OPLS_2005

> <r_lp_Energy>
55.2886

> <b_lp_Chiralities_Consistent>
1

> <s_lp_Variant>
AV-unprocessed.smi:281-7

> <Gold.Version>
5.8.1

> <Gold.Id.Protein>
6NUR|6NUR_protein|mol2

> <Gold.PLP.Fitness>
41.4968

> <Gold.PLP.PLP>
-32.3037

> <Gold.PLP.part.hbond>
-3.0000

> <Gold.PLP.part.metal>
0.0000

> <Gold.PLP.part.buried>
-2.5074

> <Gold.PLP.part.nonpolar>
-29.7442

> <Gold.PLP.part.repulsive>
2.0915

> <Gold.PLP.ligand.clash>
0.0000

> <Gold.PLP.ligand.torsion>
0.4688

> <Gold.PLP.Chemscore.Hbond>
2.2454

> <Gold.PLP.Chemscore.CHOScore>
1.0000

> <Gold.PLP.Chemscore.Metal>
0.0000

> <Gold.Chemscore.Hbonds>
donor molecule, donor type, donor heavy atom, donor atom, acceptor molecule, acceptor atom, score
      L1  H    16    39       P1 10957  0.38
      P1  H  7989  7998       L1    28  0.81
      P1  H 10785 10796       L1    19  0.48
      L1  C    12    36       P1 10171  1.00

> <Gold.PLP.Chemscore.Internal.Correction>
0.3945

> <Gold.Rescore>
     Score         DG    S(hbond)    S(metal)    S(lipo)     H(rot)  DE(clash)    DE(int)     intcor
     11.12     -14.04       1.24        0.00      83.70       2.09       1.16       1.75       ----

> <Gold.Chemscore.Fitness>
11.1244

> <Gold.Chemscore.DG>
-14.0417

> <Gold.Chemscore.ZeroCoef>
-5.4800

> <Gold.Chemscore.Hbond>
1.2355

> <Gold.Chemscore.Metal>
0.0000

> <Gold.Chemscore.Lipo>
83.6978

> <Gold.Chemscore.Internal_Hbond>
0.0000

> <Gold.Chemscore.DEClash>
1.1650

> <Gold.Chemscore.DEInternal>
1.7524

> <Gold.Chemscore.Rot>
2.0927

> <Gold.Chemscore.Internal.Correction>
   9.000000E+99

> <Gold.Chemscore.Hbonds>
donor molecule, donor type, donor heavy atom, donor atom, acceptor molecule, acceptor atom, score
      L1  H    16    39       P1 10957  0.06
      P1  H  7989  7998       L1    28  0.46
      P1  H 10785 10796       L1    19  0.38

> <Gold.Chemscore.Hbond.Weighted>
-4.1264

> <Gold.Chemscore.Metal.Weighted>
-0.0000

> <Gold.Chemscore.Lipo.Weighted>
-9.7926

> <Gold.Chemscore.Internal_Hbond.Weighted>
0.0000

> <Gold.Chemscore.DEClash.Weighted>
1.1650

> <Gold.Chemscore.DEInternal.Weighted>
1.7524

> <Gold.Chemscore.Rot.Weighted>
5.3573

> <Gold.Chemscore.Internal.Correction.Weighted>
   9.000000E+99

> <Gold.Protein.RotatedTorsions>
[ 6907 6896 6895 6894 ] final  127.15 input  -60.11 | X-H torsion
[ 7974 7965 7964 7962 ] final   -3.83 input  175.53 | X-H torsion
[ 8008 7997 7996 7995 ] final   45.69 input   59.86 | X-H torsion
[ 10167 10162 10161 10158 ] final  119.48 input  -65.29 | X-H torsion
[ 10718 10713 10712 10709 ] final -149.79 input   66.30 | X-H torsion
[ 10763 10752 10751 10750 ] final  116.68 input  -60.55 | X-H torsion
[ 11005 11000 10999 10996 ] final  -32.69 input  -57.11 | X-H torsion

> <Gold.Protein.ActiveResidues>
 VAL166  LYS551  ARG553  GLY616  TRP617  ASP618  TYR619  PRO620  LYS621  CYS622 
 ASP623  PHE694  ASN695  SER759  ASP760  ASP761  ALA762  ILE779  LEU786  VAL792 
 PHE793  MET794  SER795  GLU796  ALA797  LYS798  CYS799  TRP800  GLU811  SER814 

> <Gold.Protein.RotatedAtoms>
  152.3839  133.6583  159.6182 H   0  0  0  0  0  0  0  0  0  0  0  0  # atno 6907 bound_to 6896
  150.7762  133.9069  159.3366 H   0  0  0  0  0  0  0  0  0  0  0  0  # atno 6908 bound_to 6896
  151.6869  135.0954  160.0277 H   0  0  0  0  0  0  0  0  0  0  0  0  # atno 6909 bound_to 6896
  146.2383  140.1780  142.8332 H   0  0  0  0  0  0  0  0  0  0  0  0  # atno 7974 bound_to 7965
  155.3401  140.3407  155.4239 H   0  0  0  0  0  0  0  0  0  0  0  0  # atno 8008 bound_to 7997
  156.1817  140.1666  156.8297 H   0  0  0  0  0  0  0  0  0  0  0  0  # atno 8009 bound_to 7997
  154.5341  140.0739  156.8380 H   0  0  0  0  0  0  0  0  0  0  0  0  # atno 8010 bound_to 7997
  139.6043  144.7065  151.2989 H   0  0  0  0  0  0  0  0  0  0  0  0  # atno 10167 bound_to 10162
  156.4377  130.8106  151.2335 H   0  0  0  0  0  0  0  0  0  0  0  0  # atno 10718 bound_to 10713
  153.5408  135.3559  155.2717 H   0  0  0  0  0  0  0  0  0  0  0  0  # atno 10763 bound_to 10752
  154.8717  135.4090  154.3046 H   0  0  0  0  0  0  0  0  0  0  0  0  # atno 10764 bound_to 10752
  153.3752  135.7066  153.6675 H   0  0  0  0  0  0  0  0  0  0  0  0  # atno 10765 bound_to 10752
  140.9573  133.7185  156.1313 H   0  0  0  0  0  0  0  0  0  0  0  0  # atno 11005 bound_to 11000
  144.9957  140.8587  143.5312 LP  0  0  0  0  0  0  0  0  0  0  0  0  # atno 17320 bound_to 7965
  145.1792  139.2361  143.5301 LP  0  0  0  0  0  0  0  0  0  0  0  0  # atno 17321 bound_to 7965
  140.7273  143.6966  150.7878 LP  0  0  0  0  0  0  0  0  0  0  0  0  # atno 17342 bound_to 10162
  140.0549  143.5213  152.2656 LP  0  0  0  0  0  0  0  0  0  0  0  0  # atno 17343 bound_to 10162
  157.7507  131.0178  150.3600 LP  0  0  0  0  0  0  0  0  0  0  0  0  # atno 17370 bound_to 10713
  156.3951  130.3905  149.7001 LP  0  0  0  0  0  0  0  0  0  0  0  0  # atno 17371 bound_to 10713
  140.7518  134.4036  157.5540 LP  0  0  0  0  0  0  0  0  0  0  0  0  # atno 17394 bound_to 11000
  139.8866  134.8904  156.2574 LP  0  0  0  0  0  0  0  0  0  0  0  0  # atno 17395 bound_to 11000

$$$$
