AV-unprocessed.smi:1352|AV-procd|sdf|5529|dock5
  -GOLD-   22720 5123D 1   1.00000     0.00000
 Structure written by MMmdl.
 47 48  0  0  0  0  0  0  0  0  2 V2000
  144.5816  132.6401  149.5424 C   0  0  0  0  0  0  0  0  0  0  0  0
  145.2139  132.9538  150.9058 C   0  0  1  0  0  0  0  0  0  0  0  0
  145.8510  131.6990  151.5288 C   0  0  0  0  0  0  0  0  0  0  0  0
  146.5260  132.0301  152.8712 C   0  0  1  0  0  0  0  0  0  0  0  0
  147.1871  130.7885  153.4861 C   0  0  0  0  0  0  0  0  0  0  0  0
  147.5444  133.1739  152.6821 C   0  0  0  0  0  0  0  0  0  0  0  0
  146.9204  134.3871  152.0915 N   0  3  2  0  0  0  0  0  0  0  0  0
  146.0902  135.1568  153.0562 C   0  0  0  0  0  0  0  0  0  0  0  0
  146.8740  135.5457  154.3243 C   0  0  0  0  0  0  0  0  0  0  0  0
  147.6034  136.7953  154.1424 N   0  0  0  0  0  0  0  0  0  0  0  0
  147.3024  137.9559  154.7441 C   0  0  0  0  0  0  0  0  0  0  0  0
  146.3454  138.0870  155.5086 O   0  0  0  0  0  0  0  0  0  0  0  0
  148.2142  139.1449  154.4078 C   0  0  0  0  0  0  0  0  0  0  0  0
  149.5357  139.0698  155.0529 N   0  0  0  0  0  0  0  0  0  0  0  0
  150.3525  137.9714  154.7176 C   0  0  0  0  0  0  0  0  0  0  0  0
  151.5747  137.8074  155.2478 C   0  0  0  0  0  0  0  0  0  0  0  0
  152.0492  138.7954  156.1876 C   0  0  0  0  0  0  0  0  0  0  0  0
  151.2777  139.8518  156.5126 C   0  0  0  0  0  0  0  0  0  0  0  0
  149.9422  140.0366  155.9329 C   0  0  0  0  0  0  0  0  0  0  0  0
  149.2325  141.0013  156.2196 O   0  0  0  0  0  0  0  0  0  0  0  0
  146.2574  134.0874  150.7926 C   0  0  0  0  0  0  0  0  0  0  0  0
  145.3297  132.2980  148.8263 H   0  0  0  0  0  0  0  0  0  0  0  0
  144.0972  133.5218  149.1219 H   0  0  0  0  0  0  0  0  0  0  0  0
  143.8247  131.8602  149.6308 H   0  0  0  0  0  0  0  0  0  0  0  0
  144.4074  133.2839  151.5609 H   0  0  0  0  0  0  0  0  0  0  0  0
  145.0908  130.9304  151.6745 H   0  0  0  0  0  0  0  0  0  0  0  0
  146.5870  131.2794  150.8412 H   0  0  0  0  0  0  0  0  0  0  0  0
  145.7554  132.3635  153.5674 H   0  0  0  0  0  0  0  0  0  0  0  0
  147.9737  130.3962  152.8407 H   0  0  0  0  0  0  0  0  0  0  0  0
  146.4582  129.9927  153.6430 H   0  0  0  0  0  0  0  0  0  0  0  0
  147.6343  131.0197  154.4534 H   0  0  0  0  0  0  0  0  0  0  0  0
  148.0256  133.4234  153.6287 H   0  0  0  0  0  0  0  0  0  0  0  0
  148.3442  132.8443  152.0173 H   0  0  0  0  0  0  0  0  0  0  0  0
  145.6640  136.0411  152.5831 H   0  0  0  0  0  0  0  0  0  0  0  0
  145.2430  134.5389  153.3555 H   0  0  0  0  0  0  0  0  0  0  0  0
  146.2013  135.6292  155.1796 H   0  0  0  0  0  0  0  0  0  0  0  0
  147.6063  134.7806  154.5787 H   0  0  0  0  0  0  0  0  0  0  0  0
  148.4043  136.7737  153.5273 H   0  0  0  0  0  0  0  0  0  0  0  0
  148.3314  139.2163  153.3247 H   0  0  0  0  0  0  0  0  0  0  0  0
  147.6980  140.0605  154.6995 H   0  0  0  0  0  0  0  0  0  0  0  0
  149.9273  137.2812  154.0035 H   0  0  0  0  0  0  0  0  0  0  0  0
  152.1882  136.9607  154.9763 H   0  0  0  0  0  0  0  0  0  0  0  0
  153.0279  138.6879  156.6314 H   0  0  0  0  0  0  0  0  0  0  0  0
  151.6498  140.5814  157.2169 H   0  0  0  0  0  0  0  0  0  0  0  0
  147.0324  133.7940  150.0831 H   0  0  0  0  0  0  0  0  0  0  0  0
  145.8011  134.9851  150.3772 H   0  0  0  0  0  0  0  0  0  0  0  0
  147.6932  135.0006  151.8748 H   0  0  0  0  0  0  0  0  0  0  0  0
  1  2  1  0  0  0  0
  1 22  1  0  0  0  0
  1 23  1  0  0  0  0
  1 24  1  0  0  0  0
  2 21  1  0  0  0  0
  2  3  1  0  0  0  0
  2 25  1  0  0  0  0
  3  4  1  0  0  0  0
  3 26  1  0  0  0  0
  3 27  1  0  0  0  0
  4  5  1  0  0  0  0
  4  6  1  0  0  0  0
  4 28  1  0  0  0  0
  5 29  1  0  0  0  0
  5 30  1  0  0  0  0
  5 31  1  0  0  0  0
  6  7  1  0  0  0  0
  6 32  1  0  0  0  0
  6 33  1  0  0  0  0
  7  8  1  0  0  0  0
  7 21  1  0  0  0  0
  7 47  1  0  0  0  0
  8  9  1  0  0  0  0
  8 34  1  0  0  0  0
  8 35  1  0  0  0  0
  9 10  1  0  0  0  0
  9 36  1  0  0  0  0
  9 37  1  0  0  0  0
 10 11  1  0  0  0  0
 10 38  1  0  0  0  0
 11 12  2  0  0  0  0
 11 13  1  0  0  0  0
 13 14  1  0  0  0  0
 13 39  1  0  0  0  0
 13 40  1  0  0  0  0
 14 19  1  0  0  0  0
 14 15  1  0  0  0  0
 15 16  2  0  0  0  0
 15 41  1  0  0  0  0
 16 17  1  0  0  0  0
 16 42  1  0  0  0  0
 17 18  2  0  0  0  0
 17 43  1  0  0  0  0
 18 19  1  0  0  0  0
 18 44  1  0  0  0  0
 19 20  2  0  0  0  0
 21 45  1  0  0  0  0
 21 46  1  0  0  0  0
M  CHG  1   7   1
M  END
> <s_m_source_file>
AV-unprocessed.smi

> <i_m_source_file_index>
1352

> <i_lp_mmshare_version>
43012

> <i_f3d_flags>
0

> <s_epik_input>
W0NIM11bQ0BASF0xW0NIMl1bQ0BASF0oW0NIM10pW0NIMl1OKFtDSDJdMSlbQ0gyXVtDSDJdW05IXUMoPU8pW0NIMl1uMltjSF1bY0hdW2NIXVtjSF1jMj1P

> <s_epik_cmdline>
J2VwaWtfcHl0aG9uJywgJy1waCcsICc3LjAnLCAnLXRuJywgJzgnLCAnLW1hJywgJzIwMCcsICctbWV0YWxfYmluZGluZycsICctaW1hZScsICc8aW5maWxlLm1hZT4nLCAnLW9tYWUnLCAnPG91dGZpbGUubWFlPic=

> <r_lp_tautomer_probability>
1

> <r_epik_Ionization_Penalty>
0.00156146

> <r_epik_Ionization_Penalty_Charging>
0.00156138

> <r_epik_Ionization_Penalty_Neutral>
8.12891e-08

> <r_epik_State_Penalty>
0.00104868

> <r_epik_Charging_Adjusted_Penalty>
0.00261006

> <i_epik_Tot_Q>
1

> <i_epik_Tot_abs_Q>
1

> <r_epik_Metal_State_Penalty>
-0

> <b_epik_Metal_Only>
0

> <s_lp_Force_Field>
OPLS_2005

> <r_lp_Energy>
27.4422

> <b_lp_Chiralities_Consistent>
1

> <s_lp_Variant>
AV-unprocessed.smi:1352-2

> <Gold.Version>
5.8.1

> <Gold.Id.Protein>
6NUR|6NUR_protein|mol2

> <Gold.PLP.Fitness>
49.9481

> <Gold.PLP.PLP>
-38.5200

> <Gold.PLP.part.hbond>
-1.7388

> <Gold.PLP.part.metal>
0.0000

> <Gold.PLP.part.buried>
-2.5198

> <Gold.PLP.part.nonpolar>
-34.4518

> <Gold.PLP.part.repulsive>
0.1293

> <Gold.PLP.ligand.clash>
0.0000

> <Gold.PLP.ligand.torsion>
0.3763

> <Gold.PLP.Chemscore.Hbond>
2.9440

> <Gold.PLP.Chemscore.CHOScore>
1.0981

> <Gold.PLP.Chemscore.Metal>
0.0000

> <Gold.Chemscore.Hbonds>
donor molecule, donor type, donor heavy atom, donor atom, acceptor molecule, acceptor atom, score
      L1  H     7    47       P1  7948  2.00
      L1  H    10    38       P1  7948  0.86
      L1  C    15    41       P1  7948  0.97

> <Gold.PLP.Chemscore.Internal.Correction>
0.0544

> <Gold.Rescore>
     Score         DG    S(hbond)    S(metal)    S(lipo)     H(rot)  DE(clash)    DE(int)     intcor
     15.59     -16.21       1.71        0.00      83.07       1.83       0.01       0.61       ----

> <Gold.Chemscore.Fitness>
15.5889

> <Gold.Chemscore.DG>
-16.2129

> <Gold.Chemscore.ZeroCoef>
-5.4800

> <Gold.Chemscore.Hbond>
1.7083

> <Gold.Chemscore.Metal>
0.0000

> <Gold.Chemscore.Lipo>
83.0717

> <Gold.Chemscore.Internal_Hbond>
0.0000

> <Gold.Chemscore.DEClash>
0.0106

> <Gold.Chemscore.DEInternal>
0.6135

> <Gold.Chemscore.Rot>
1.8329

> <Gold.Chemscore.Internal.Correction>
   9.000000E+99

> <Gold.Chemscore.Hbonds>
donor molecule, donor type, donor heavy atom, donor atom, acceptor molecule, acceptor atom, score
      L1  H     7    47       P1  7948  0.74
      L1  H    10    38       P1  7948  0.85

> <Gold.Chemscore.Hbond.Weighted>
-5.7057

> <Gold.Chemscore.Metal.Weighted>
-0.0000

> <Gold.Chemscore.Lipo.Weighted>
-9.7194

> <Gold.Chemscore.Internal_Hbond.Weighted>
0.0000

> <Gold.Chemscore.DEClash.Weighted>
0.0106

> <Gold.Chemscore.DEInternal.Weighted>
0.6135

> <Gold.Chemscore.Rot.Weighted>
4.6922

> <Gold.Chemscore.Internal.Correction.Weighted>
   9.000000E+99

> <Gold.Protein.RotatedTorsions>
[ 6907 6896 6895 6894 ] final   30.91 input  -60.11 | X-H torsion
[ 7974 7965 7964 7962 ] final -169.13 input  175.53 | X-H torsion
[ 8008 7997 7996 7995 ] final   -6.50 input   59.86 | X-H torsion
[ 10167 10162 10161 10158 ] final -129.32 input  -65.29 | X-H torsion
[ 10718 10713 10712 10709 ] final  115.18 input   66.30 | X-H torsion
[ 10763 10752 10751 10750 ] final -159.88 input  -60.55 | X-H torsion
[ 11005 11000 10999 10996 ] final -144.67 input  -57.11 | X-H torsion

> <Gold.Protein.ActiveResidues>
 VAL166  LYS551  ARG553  GLY616  TRP617  ASP618  TYR619  PRO620  LYS621  CYS622 
 ASP623  PHE694  ASN695  SER759  ASP760  ASP761  ALA762  ILE779  LEU786  VAL792 
 PHE793  MET794  SER795  GLU796  ALA797  LYS798  CYS799  TRP800  GLU811  SER814 

> <Gold.Protein.RotatedAtoms>
  152.0527  134.9643  160.0574 H   0  0  0  0  0  0  0  0  0  0  0  0  # atno 6907 bound_to 6896
  152.1038  133.4259  159.4607 H   0  0  0  0  0  0  0  0  0  0  0  0  # atno 6908 bound_to 6896
  150.6840  134.2648  159.4607 H   0  0  0  0  0  0  0  0  0  0  0  0  # atno 6909 bound_to 6896
  144.7191  140.2267  143.6309 H   0  0  0  0  0  0  0  0  0  0  0  0  # atno 7974 bound_to 7965
  154.5932  140.2431  155.7893 H   0  0  0  0  0  0  0  0  0  0  0  0  # atno 8008 bound_to 7997
  156.2261  140.2982  156.0025 H   0  0  0  0  0  0  0  0  0  0  0  0  # atno 8009 bound_to 7997
  155.2338  140.0404  157.2956 H   0  0  0  0  0  0  0  0  0  0  0  0  # atno 8010 bound_to 7997
  139.9410  143.6163  152.2503 H   0  0  0  0  0  0  0  0  0  0  0  0  # atno 10167 bound_to 10162
  157.6237  131.1009  150.7292 H   0  0  0  0  0  0  0  0  0  0  0  0  # atno 10718 bound_to 10713
  154.7437  135.3075  154.8682 H   0  0  0  0  0  0  0  0  0  0  0  0  # atno 10763 bound_to 10752
  153.9489  135.6766  153.4748 H   0  0  0  0  0  0  0  0  0  0  0  0  # atno 10764 bound_to 10752
  153.1035  135.4900  154.8835 H   0  0  0  0  0  0  0  0  0  0  0  0  # atno 10765 bound_to 10752
  140.8000  134.2868  157.4982 H   0  0  0  0  0  0  0  0  0  0  0  0  # atno 11005 bound_to 11000
  145.8450  139.2148  143.1805 LP  0  0  0  0  0  0  0  0  0  0  0  0  # atno 17320 bound_to 7965
  146.0313  140.8255  142.9875 LP  0  0  0  0  0  0  0  0  0  0  0  0  # atno 17321 bound_to 7965
  139.6704  144.7661  151.1793 LP  0  0  0  0  0  0  0  0  0  0  0  0  # atno 17342 bound_to 10162
  140.7611  143.5873  150.8832 LP  0  0  0  0  0  0  0  0  0  0  0  0  # atno 17343 bound_to 10162
  156.7645  130.4809  149.5430 LP  0  0  0  0  0  0  0  0  0  0  0  0  # atno 17370 bound_to 10713
  156.1397  130.6236  151.0450 LP  0  0  0  0  0  0  0  0  0  0  0  0  # atno 17371 bound_to 10713
  139.8722  134.9424  156.3824 LP  0  0  0  0  0  0  0  0  0  0  0  0  # atno 17394 bound_to 11000
  140.9304  133.7583  156.0017 LP  0  0  0  0  0  0  0  0  0  0  0  0  # atno 17395 bound_to 11000

$$$$
