AV-unprocessed.smi:2942|AV-procd|sdf|11267|dock8
  -GOLD-   2272016163D 1   1.00000     0.00000
 Structure written by MMmdl.
 46 49  0  0  0  0  0  0  0  0  2 V2000
  149.1161  134.5620  158.6306 O   0  0  0  0  0  0  0  0  0  0  0  0
  148.0642  135.1998  158.6841 C   0  0  0  0  0  0  0  0  0  0  0  0
  147.4774  135.7027  157.5852 N   0  0  0  0  0  0  0  0  0  0  0  0
  147.9435  135.5081  156.2157 C   0  0  0  0  0  0  0  0  0  0  0  0
  148.1177  136.8316  155.4404 C   0  0  0  0  0  0  0  0  0  0  0  0
  149.5457  137.3519  155.4231 C   0  0  0  0  0  0  0  0  0  0  0  0
  150.1621  137.8865  156.5749 C   0  0  0  0  0  0  0  0  0  0  0  0
  151.4850  138.3687  156.4878 C   0  0  0  0  0  0  0  0  0  0  0  0
  152.1623  138.3090  155.2519 C   0  0  0  0  0  0  0  0  0  0  0  0
  151.4996  137.7646  154.1331 C   0  0  0  0  0  0  0  0  0  0  0  0
  150.2339  137.3098  154.2584 N   0  3  0  0  0  0  0  0  0  0  0  0
  147.3614  135.4053  160.0462 C   0  0  0  0  0  0  0  0  0  0  0  0
  147.0359  134.0156  160.6610 C   0  0  0  0  0  0  0  0  0  0  0  0
  146.3771  134.1812  162.0468 C   0  0  1  0  0  0  0  0  0  0  0  0
  147.3427  134.9285  162.9899 C   0  0  0  0  0  0  0  0  0  0  0  0
  147.6543  136.3199  162.3999 C   0  0  2  0  0  0  0  0  0  0  0  0
  146.3471  137.1268  162.2604 C   0  0  0  0  0  0  0  0  0  0  0  0
  145.3824  136.3745  161.3205 C   0  0  2  0  0  0  0  0  0  0  0  0
  145.0664  134.9821  161.9050 C   0  0  0  0  0  0  0  0  0  0  0  0
  146.0347  136.2147  159.9310 C   0  0  0  0  0  0  0  0  0  0  0  0
  148.3155  136.1579  161.0137 C   0  0  0  0  0  0  0  0  0  0  0  0
  146.6236  136.2286  157.7056 H   0  0  0  0  0  0  0  0  0  0  0  0
  148.9032  134.9939  156.2704 H   0  0  0  0  0  0  0  0  0  0  0  0
  147.2672  134.8400  155.6802 H   0  0  0  0  0  0  0  0  0  0  0  0
  147.7754  136.6996  154.4134 H   0  0  0  0  0  0  0  0  0  0  0  0
  147.4735  137.5993  155.8714 H   0  0  0  0  0  0  0  0  0  0  0  0
  149.6285  137.9303  157.5133 H   0  0  0  0  0  0  0  0  0  0  0  0
  151.9734  138.7819  157.3582 H   0  0  0  0  0  0  0  0  0  0  0  0
  153.1745  138.6759  155.1639 H   0  0  0  0  0  0  0  0  0  0  0  0
  151.9387  137.6810  153.1495 H   0  0  0  0  0  0  0  0  0  0  0  0
  146.3701  133.4554  160.0028 H   0  0  0  0  0  0  0  0  0  0  0  0
  147.9410  133.4142  160.7611 H   0  0  0  0  0  0  0  0  0  0  0  0
  146.1562  133.1974  162.4618 H   0  0  0  0  0  0  0  0  0  0  0  0
  146.9004  135.0285  163.9819 H   0  0  0  0  0  0  0  0  0  0  0  0
  148.2632  134.3579  163.1188 H   0  0  0  0  0  0  0  0  0  0  0  0
  148.3363  136.8494  163.0658 H   0  0  0  0  0  0  0  0  0  0  0  0
  145.8860  137.2712  163.2383 H   0  0  0  0  0  0  0  0  0  0  0  0
  146.5579  138.1226  161.8686 H   0  0  0  0  0  0  0  0  0  0  0  0
  144.4573  136.9434  161.2227 H   0  0  0  0  0  0  0  0  0  0  0  0
  144.3663  134.4505  161.2592 H   0  0  0  0  0  0  0  0  0  0  0  0
  144.5770  135.0812  162.8748 H   0  0  0  0  0  0  0  0  0  0  0  0
  146.2218  137.2018  159.5047 H   0  0  0  0  0  0  0  0  0  0  0  0
  145.3337  135.7145  159.2609 H   0  0  0  0  0  0  0  0  0  0  0  0
  149.2597  135.6220  161.1233 H   0  0  0  0  0  0  0  0  0  0  0  0
  148.5684  137.1394  160.6094 H   0  0  0  0  0  0  0  0  0  0  0  0
  149.7716  136.9222  153.4353 H   0  0  0  0  0  0  0  0  0  0  0  0
  1  2  2  0  0  0  0
  2  3  1  0  0  0  0
  2 12  1  0  0  0  0
  3  4  1  0  0  0  0
  3 22  1  0  0  0  0
  4  5  1  0  0  0  0
  4 23  1  0  0  0  0
  4 24  1  0  0  0  0
  5  6  1  0  0  0  0
  5 25  1  0  0  0  0
  5 26  1  0  0  0  0
  6 11  1  0  0  0  0
  6  7  2  0  0  0  0
  7  8  1  0  0  0  0
  7 27  1  0  0  0  0
  8  9  2  0  0  0  0
  8 28  1  0  0  0  0
  9 10  1  0  0  0  0
  9 29  1  0  0  0  0
 10 11  2  0  0  0  0
 10 30  1  0  0  0  0
 11 46  1  0  0  0  0
 12 20  1  0  0  0  0
 12 21  1  0  0  0  0
 12 13  1  0  0  0  0
 13 14  1  0  0  0  0
 13 31  1  0  0  0  0
 13 32  1  0  0  0  0
 14 19  1  0  0  0  0
 14 15  1  0  0  0  0
 14 33  1  0  0  0  0
 15 16  1  0  0  0  0
 15 34  1  0  0  0  0
 15 35  1  0  0  0  0
 16 17  1  0  0  0  0
 16 21  1  0  0  0  0
 16 36  1  0  0  0  0
 17 18  1  0  0  0  0
 17 37  1  0  0  0  0
 17 38  1  0  0  0  0
 18 19  1  0  0  0  0
 18 20  1  0  0  0  0
 18 39  1  0  0  0  0
 19 40  1  0  0  0  0
 19 41  1  0  0  0  0
 20 42  1  0  0  0  0
 20 43  1  0  0  0  0
 21 44  1  0  0  0  0
 21 45  1  0  0  0  0
M  CHG  1  11   1
M  END
> <s_m_source_file>
AV-unprocessed.smi

> <i_m_source_file_index>
2942

> <i_lp_mmshare_version>
43012

> <i_f3d_flags>
0

> <s_epik_input>
W0NIMl0xW0NASF0oW0NIMl0yKVtDSDJdW0NASF0oW0NIMl0zKVtDSDJdW0NAQEhdMVtDSDJdQzIzQyg9TylbTkhdW0NIMl1bQ0gyXWM0W2NIXVtjSF1bY0hdW2NIXW40

> <s_epik_cmdline>
J2VwaWtfcHl0aG9uJywgJy1waCcsICc3LjAnLCAnLXRuJywgJzgnLCAnLW1hJywgJzIwMCcsICctbWV0YWxfYmluZGluZycsICctaW1hZScsICc8aW5maWxlLm1hZT4nLCAnLW9tYWUnLCAnPG91dGZpbGUubWFlPic=

> <r_epik_Ionization_Penalty>
1.81477

> <r_epik_Ionization_Penalty_Charging>
1.81477

> <r_epik_Ionization_Penalty_Neutral>
2.68418e-08

> <r_epik_State_Penalty>
1.92951

> <r_epik_Charging_Adjusted_Penalty>
3.74429

> <i_epik_Tot_Q>
1

> <i_epik_Tot_abs_Q>
1

> <r_epik_Metal_State_Penalty>
1.95679

> <b_epik_Metal_Only>
0

> <s_lp_Force_Field>
OPLS_2005

> <r_lp_Energy>
40.8466

> <b_lp_Chiralities_Consistent>
1

> <s_lp_Variant>
AV-unprocessed.smi:2942-2

> <Gold.Version>
5.8.1

> <Gold.Id.Protein>
6NUR|6NUR_protein|mol2

> <Gold.PLP.Fitness>
41.5282

> <Gold.PLP.PLP>
-33.2994

> <Gold.PLP.part.hbond>
-2.0000

> <Gold.PLP.part.metal>
0.0000

> <Gold.PLP.part.buried>
-3.5652

> <Gold.PLP.part.nonpolar>
-26.9224

> <Gold.PLP.part.repulsive>
0.0422

> <Gold.PLP.ligand.clash>
0.0000

> <Gold.PLP.ligand.torsion>
0.3948

> <Gold.PLP.Chemscore.Hbond>
3.0000

> <Gold.PLP.Chemscore.CHOScore>
0.0000

> <Gold.PLP.Chemscore.Metal>
0.0000

> <Gold.Chemscore.Hbonds>
donor molecule, donor type, donor heavy atom, donor atom, acceptor molecule, acceptor atom, score
      L1  H    11    46       P1  7948  2.00
      P1  H  6896  6907       L1     1  1.00

> <Gold.PLP.Chemscore.Internal.Correction>
0.0183

> <Gold.Rescore>
     Score         DG    S(hbond)    S(metal)    S(lipo)     H(rot)  DE(clash)    DE(int)     intcor
     19.63     -20.23       1.96        0.00     100.97       1.41       0.27       0.33       ----

> <Gold.Chemscore.Fitness>
19.6335

> <Gold.Chemscore.DG>
-20.2267

> <Gold.Chemscore.ZeroCoef>
-5.4800

> <Gold.Chemscore.Hbond>
1.9622

> <Gold.Chemscore.Metal>
0.0000

> <Gold.Chemscore.Lipo>
100.9736

> <Gold.Chemscore.Internal_Hbond>
0.0000

> <Gold.Chemscore.DEClash>
0.2674

> <Gold.Chemscore.DEInternal>
0.3257

> <Gold.Chemscore.Rot>
1.4145

> <Gold.Chemscore.Internal.Correction>
   9.000000E+99

> <Gold.Chemscore.Hbonds>
donor molecule, donor type, donor heavy atom, donor atom, acceptor molecule, acceptor atom, score
      L1  H    11    46       P1  7948  0.50
      P1  H  6896  6907       L1     1  1.00

> <Gold.Chemscore.Hbond.Weighted>
-6.5538

> <Gold.Chemscore.Metal.Weighted>
-0.0000

> <Gold.Chemscore.Lipo.Weighted>
-11.8139

> <Gold.Chemscore.Internal_Hbond.Weighted>
0.0000

> <Gold.Chemscore.DEClash.Weighted>
0.2674

> <Gold.Chemscore.DEInternal.Weighted>
0.3257

> <Gold.Chemscore.Rot.Weighted>
3.6210

> <Gold.Chemscore.Internal.Correction.Weighted>
   9.000000E+99

> <Gold.Protein.RotatedTorsions>
[ 6907 6896 6895 6894 ] final  -96.01 input  -60.11 | X-H torsion
[ 7974 7965 7964 7962 ] final   78.95 input  175.53 | X-H torsion
[ 8008 7997 7996 7995 ] final  -72.86 input   59.86 | X-H torsion
[ 10167 10162 10161 10158 ] final -171.68 input  -65.29 | X-H torsion
[ 10718 10713 10712 10709 ] final  104.63 input   66.30 | X-H torsion
[ 10763 10752 10751 10750 ] final -131.33 input  -60.55 | X-H torsion
[ 11005 11000 10999 10996 ] final -176.55 input  -57.11 | X-H torsion

> <Gold.Protein.ActiveResidues>
 VAL166  LYS551  ARG553  GLY616  TRP617  ASP618  TYR619  PRO620  LYS621  CYS622 
 ASP623  PHE694  ASN695  SER759  ASP760  ASP761  ALA762  ILE779  LEU786  VAL792 
 PHE793  MET794  SER795  GLU796  ALA797  LYS798  CYS799  TRP800  GLU811  SER814 

> <Gold.Protein.RotatedAtoms>
  150.6978  134.1568  159.4161 H   0  0  0  0  0  0  0  0  0  0  0  0  # atno 6907 bound_to 6896
  151.9550  135.0149  160.0553 H   0  0  0  0  0  0  0  0  0  0  0  0  # atno 6908 bound_to 6896
  152.1977  133.4783  159.5079 H   0  0  0  0  0  0  0  0  0  0  0  0  # atno 6909 bound_to 6896
  145.6705  139.2495  143.1871 H   0  0  0  0  0  0  0  0  0  0  0  0  # atno 7974 bound_to 7965
  154.5200  140.0789  156.8153 H   0  0  0  0  0  0  0  0  0  0  0  0  # atno 8008 bound_to 7997
  155.3597  140.3417  155.4222 H   0  0  0  0  0  0  0  0  0  0  0  0  # atno 8009 bound_to 7997
  156.1670  140.1607  156.8501 H   0  0  0  0  0  0  0  0  0  0  0  0  # atno 8010 bound_to 7997
  139.5788  144.1470  152.1487 H   0  0  0  0  0  0  0  0  0  0  0  0  # atno 10167 bound_to 10162
  157.6734  131.0808  150.5735 H   0  0  0  0  0  0  0  0  0  0  0  0  # atno 10718 bound_to 10713
  154.8751  135.3833  154.4229 H   0  0  0  0  0  0  0  0  0  0  0  0  # atno 10763 bound_to 10752
  153.4931  135.7030  153.5878 H   0  0  0  0  0  0  0  0  0  0  0  0  # atno 10764 bound_to 10752
  153.4243  135.3894  155.2098 H   0  0  0  0  0  0  0  0  0  0  0  0  # atno 10765 bound_to 10752
  140.4508  134.6345  157.4800 H   0  0  0  0  0  0  0  0  0  0  0  0  # atno 11005 bound_to 11000
  146.1049  140.7499  142.9531 LP  0  0  0  0  0  0  0  0  0  0  0  0  # atno 17320 bound_to 7965
  144.7058  140.3847  143.7119 LP  0  0  0  0  0  0  0  0  0  0  0  0  # atno 17321 bound_to 7965
  140.1019  144.5532  150.6983 LP  0  0  0  0  0  0  0  0  0  0  0  0  # atno 17342 bound_to 10162
  140.7068  143.2474  151.4701 LP  0  0  0  0  0  0  0  0  0  0  0  0  # atno 17343 bound_to 10162
  156.6036  130.4361  149.5887 LP  0  0  0  0  0  0  0  0  0  0  0  0  # atno 17370 bound_to 10713
  156.2486  130.6894  151.1624 LP  0  0  0  0  0  0  0  0  0  0  0  0  # atno 17371 bound_to 10713
  140.0008  134.6840  155.9534 LP  0  0  0  0  0  0  0  0  0  0  0  0  # atno 17394 bound_to 11000
  141.1665  133.6537  156.4497 LP  0  0  0  0  0  0  0  0  0  0  0  0  # atno 17395 bound_to 11000

$$$$
