AV-unprocessed.smi:2706|AV-procd|sdf|10446|dock3
  -GOLD-   2272014483D 1   1.00000     0.00000
 Structure written by MMmdl.
 43 46  0  0  0  0  0  0  0  0  1 V2000
  153.6462  141.1586  160.5241 C   0  0  0  0  0  0  0  0  0  0  0  0
  153.1508  142.3652  161.1794 N   0  0  0  0  0  0  0  0  0  0  0  0
  153.4396  142.6004  162.5885 C   0  0  0  0  0  0  0  0  0  0  0  0
  152.3894  143.3010  160.4429 C   0  0  0  0  0  0  0  0  0  0  0  0
  152.2320  144.6382  160.8794 C   0  0  0  0  0  0  0  0  0  0  0  0
  151.4658  145.5226  160.0992 C   0  0  0  0  0  0  0  0  0  0  0  0
  150.8798  145.0520  158.9105 C   0  0  0  0  0  0  0  0  0  0  0  0
  151.0723  143.7061  158.5346 C   0  0  0  0  0  0  0  0  0  0  0  0
  150.4465  143.3191  157.3197 N   0  0  0  0  0  0  0  0  0  0  0  0
  150.5282  142.1352  156.6865 C   0  0  0  0  0  0  0  0  0  0  0  0
  151.1527  141.1536  157.0911 O   0  0  0  0  0  0  0  0  0  0  0  0
  149.8299  142.1488  155.5427 N   0  0  0  0  0  0  0  0  0  0  0  0
  149.6865  141.0479  154.6443 C   0  0  2  0  0  0  0  0  0  0  0  0
  148.3198  140.6469  154.1023 C   0  0  2  0  0  0  0  0  0  0  0  0
  146.9383  140.8706  154.7215 C   0  0  1  0  0  0  0  0  0  0  0  0
  146.1557  139.5471  154.5814 C   0  0  0  0  0  0  0  0  0  0  0  0
  146.8671  138.6301  155.6092 C   0  0  0  0  0  0  0  0  0  0  0  0
  147.9539  139.5622  156.1883 C   0  0  2  0  0  0  0  0  0  0  0  0
  147.1592  140.8673  156.2339 C   0  0  0  0  0  0  0  0  0  0  0  0
  149.0100  139.7592  155.0979 C   0  0  2  0  0  0  0  0  0  0  0  0
  151.8140  142.8658  159.2960 N   0  0  0  0  0  0  0  0  0  0  0  0
  152.8159  140.5513  160.1623 H   0  0  0  0  0  0  0  0  0  0  0  0
  154.2354  140.5466  161.2069 H   0  0  0  0  0  0  0  0  0  0  0  0
  154.2810  141.4156  159.6752 H   0  0  0  0  0  0  0  0  0  0  0  0
  152.5151  142.6876  163.1599 H   0  0  0  0  0  0  0  0  0  0  0  0
  154.0164  143.5173  162.7140 H   0  0  0  0  0  0  0  0  0  0  0  0
  154.0187  141.7821  163.0166 H   0  0  0  0  0  0  0  0  0  0  0  0
  152.6824  145.0017  161.7905 H   0  0  0  0  0  0  0  0  0  0  0  0
  151.3303  146.5486  160.4081 H   0  0  0  0  0  0  0  0  0  0  0  0
  150.2891  145.7192  158.2997 H   0  0  0  0  0  0  0  0  0  0  0  0
  149.8742  144.0254  156.8817 H   0  0  0  0  0  0  0  0  0  0  0  0
  149.3517  143.0008  155.2895 H   0  0  0  0  0  0  0  0  0  0  0  0
  150.5136  140.8997  153.9513 H   0  0  0  0  0  0  0  0  0  0  0  0
  148.3045  140.3255  153.0624 H   0  0  0  0  0  0  0  0  0  0  0  0
  146.4299  141.7475  154.3206 H   0  0  0  0  0  0  0  0  0  0  0  0
  145.1059  139.6814  154.8454 H   0  0  0  0  0  0  0  0  0  0  0  0
  146.1966  139.1460  153.5678 H   0  0  0  0  0  0  0  0  0  0  0  0
  146.1716  138.3076  156.3851 H   0  0  0  0  0  0  0  0  0  0  0  0
  147.2897  137.7367  155.1475 H   0  0  0  0  0  0  0  0  0  0  0  0
  148.3788  139.2354  157.1377 H   0  0  0  0  0  0  0  0  0  0  0  0
  147.6965  141.7259  156.6261 H   0  0  0  0  0  0  0  0  0  0  0  0
  146.2314  140.7878  156.8047 H   0  0  0  0  0  0  0  0  0  0  0  0
  149.4593  138.8386  154.7296 H   0  0  0  0  0  0  0  0  0  0  0  0
  1  2  1  0  0  0  0
  1 22  1  0  0  0  0
  1 23  1  0  0  0  0
  1 24  1  0  0  0  0
  2  3  1  0  0  0  0
  2  4  1  0  0  0  0
  3 25  1  0  0  0  0
  3 26  1  0  0  0  0
  3 27  1  0  0  0  0
  4 21  1  0  0  0  0
  4  5  2  0  0  0  0
  5  6  1  0  0  0  0
  5 28  1  0  0  0  0
  6  7  2  0  0  0  0
  6 29  1  0  0  0  0
  7  8  1  0  0  0  0
  7 30  1  0  0  0  0
  8  9  1  0  0  0  0
  8 21  2  0  0  0  0
  9 10  1  0  0  0  0
  9 31  1  0  0  0  0
 10 11  2  0  0  0  0
 10 12  1  0  0  0  0
 12 13  1  0  0  0  0
 12 32  1  0  0  0  0
 13 20  1  0  0  0  0
 13 14  1  0  0  0  0
 13 33  1  0  0  0  0
 14 20  1  0  0  0  0
 14 15  1  0  0  0  0
 14 34  1  0  0  0  0
 15 19  1  0  0  0  0
 15 16  1  0  0  0  0
 15 35  1  0  0  0  0
 16 17  1  0  0  0  0
 16 36  1  0  0  0  0
 16 37  1  0  0  0  0
 17 18  1  0  0  0  0
 17 38  1  0  0  0  0
 17 39  1  0  0  0  0
 18 19  1  0  0  0  0
 18 20  1  0  0  0  0
 18 40  1  0  0  0  0
 19 41  1  0  0  0  0
 19 42  1  0  0  0  0
 20 43  1  0  0  0  0
M  END
> <s_m_source_file>
AV-unprocessed.smi

> <i_m_source_file_index>
2706

> <i_lp_mmshare_version>
43012

> <i_f3d_flags>
0

> <s_epik_input>
W0NIM11OKFtDSDNdKWMxW2NIXVtjSF1bY0hdYyhuMSlbTkhdQyg9TylbTkhdW0NASF0yW0NAQEhdM1tDQEBIXShbQ0gyXTQpW0NIMl1bQ0gyXVtDQEBIXTRbQ0BIXTIz

> <s_epik_cmdline>
J2VwaWtfcHl0aG9uJywgJy1waCcsICc3LjAnLCAnLXRuJywgJzgnLCAnLW1hJywgJzIwMCcsICctbWV0YWxfYmluZGluZycsICctaW1hZScsICc8aW5maWxlLm1hZT4nLCAnLW9tYWUnLCAnPG91dGZpbGUubWFlPic=

> <r_lp_tautomer_probability>
1

> <r_epik_Ionization_Penalty>
0.0296788

> <r_epik_Ionization_Penalty_Charging>
0

> <r_epik_Ionization_Penalty_Neutral>
0.0296788

> <r_epik_State_Penalty>
0.0248512

> <r_epik_Charging_Adjusted_Penalty>
0.0248512

> <i_epik_Tot_Q>
0

> <i_epik_Tot_abs_Q>
0

> <r_epik_Metal_State_Penalty>
0.0237882

> <b_epik_Metal_Only>
0

> <s_lp_Force_Field>
OPLS_2005

> <r_lp_Energy>
83.6561

> <b_lp_Chiralities_Consistent>
1

> <s_lp_Variant>
AV-unprocessed.smi:2706-3

> <Gold.Version>
5.8.1

> <Gold.Id.Protein>
6NUR|6NUR_protein|mol2

> <Gold.PLP.Fitness>
48.9913

> <Gold.PLP.PLP>
-43.4176

> <Gold.PLP.part.hbond>
-2.0000

> <Gold.PLP.part.metal>
0.0000

> <Gold.PLP.part.buried>
-5.7576

> <Gold.PLP.part.nonpolar>
-35.9465

> <Gold.PLP.part.repulsive>
0.1995

> <Gold.PLP.ligand.clash>
0.0000

> <Gold.PLP.ligand.torsion>
0.2398

> <Gold.PLP.Chemscore.Hbond>
2.0000

> <Gold.PLP.Chemscore.CHOScore>
0.0000

> <Gold.PLP.Chemscore.Metal>
0.0000

> <Gold.Chemscore.Hbonds>
donor molecule, donor type, donor heavy atom, donor atom, acceptor molecule, acceptor atom, score
      L1  H     9    31       P1  8028  1.00
      L1  H    12    32       P1  8028  1.00

> <Gold.PLP.Chemscore.Internal.Correction>
0.0533

> <Gold.Rescore>
     Score         DG    S(hbond)    S(metal)    S(lipo)     H(rot)  DE(clash)    DE(int)     intcor
     17.39     -19.64       1.92        0.00      87.94       1.00       0.75       1.50       ----

> <Gold.Chemscore.Fitness>
17.3914

> <Gold.Chemscore.DG>
-19.6361

> <Gold.Chemscore.ZeroCoef>
-5.4800

> <Gold.Chemscore.Hbond>
1.9245

> <Gold.Chemscore.Metal>
0.0000

> <Gold.Chemscore.Lipo>
87.9354

> <Gold.Chemscore.Internal_Hbond>
0.0000

> <Gold.Chemscore.DEClash>
0.7452

> <Gold.Chemscore.DEInternal>
1.4995

> <Gold.Chemscore.Rot>
1.0000

> <Gold.Chemscore.Internal.Correction>
   9.000000E+99

> <Gold.Chemscore.Hbonds>
donor molecule, donor type, donor heavy atom, donor atom, acceptor molecule, acceptor atom, score
      L1  H     9    31       P1  8028  0.94
      L1  H    12    32       P1  8028  0.95

> <Gold.Chemscore.Hbond.Weighted>
-6.4277

> <Gold.Chemscore.Metal.Weighted>
-0.0000

> <Gold.Chemscore.Lipo.Weighted>
-10.2884

> <Gold.Chemscore.Internal_Hbond.Weighted>
0.0000

> <Gold.Chemscore.DEClash.Weighted>
0.7452

> <Gold.Chemscore.DEInternal.Weighted>
1.4995

> <Gold.Chemscore.Rot.Weighted>
2.5600

> <Gold.Chemscore.Internal.Correction.Weighted>
   9.000000E+99

> <Gold.Protein.RotatedTorsions>
[ 6907 6896 6895 6894 ] final  -77.23 input  -60.11 | X-H torsion
[ 7974 7965 7964 7962 ] final    7.11 input  175.53 | X-H torsion
[ 8008 7997 7996 7995 ] final   -8.15 input   59.86 | X-H torsion
[ 10167 10162 10161 10158 ] final -133.99 input  -65.29 | X-H torsion
[ 10718 10713 10712 10709 ] final  -22.10 input   66.30 | X-H torsion
[ 10763 10752 10751 10750 ] final  -64.42 input  -60.55 | X-H torsion
[ 11005 11000 10999 10996 ] final  173.27 input  -57.11 | X-H torsion

> <Gold.Protein.ActiveResidues>
 VAL166  LYS551  ARG553  GLY616  TRP617  ASP618  TYR619  PRO620  LYS621  CYS622 
 ASP623  PHE694  ASN695  SER759  ASP760  ASP761  ALA762  ILE779  LEU786  VAL792 
 PHE793  MET794  SER795  GLU796  ALA797  LYS798  CYS799  TRP800  GLU811  SER814 

> <Gold.Protein.RotatedAtoms>
  150.7004  134.4453  159.5310 H   0  0  0  0  0  0  0  0  0  0  0  0  # atno 6907 bound_to 6896
  152.2156  134.8458  160.0501 H   0  0  0  0  0  0  0  0  0  0  0  0  # atno 6908 bound_to 6896
  151.9328  133.3581  159.3974 H   0  0  0  0  0  0  0  0  0  0  0  0  # atno 6909 bound_to 6896
  146.2429  140.0133  142.8404 H   0  0  0  0  0  0  0  0  0  0  0  0  # atno 7974 bound_to 7965
  154.5769  140.2388  155.8109 H   0  0  0  0  0  0  0  0  0  0  0  0  # atno 8008 bound_to 7997
  156.2150  140.3015  155.9776 H   0  0  0  0  0  0  0  0  0  0  0  0  # atno 8009 bound_to 7997
  155.2610  140.0414  157.2988 H   0  0  0  0  0  0  0  0  0  0  0  0  # atno 8010 bound_to 7997
  139.8926  143.6704  152.2609 H   0  0  0  0  0  0  0  0  0  0  0  0  # atno 10167 bound_to 10162
  156.5091  130.4606  149.6658 H   0  0  0  0  0  0  0  0  0  0  0  0  # atno 10718 bound_to 10713
  154.3299  135.6179  153.5546 H   0  0  0  0  0  0  0  0  0  0  0  0  # atno 10763 bound_to 10752
  152.9812  135.5744  154.4974 H   0  0  0  0  0  0  0  0  0  0  0  0  # atno 10764 bound_to 10752
  154.4658  135.2857  155.1656 H   0  0  0  0  0  0  0  0  0  0  0  0  # atno 10765 bound_to 10752
  140.3387  134.7295  157.4186 H   0  0  0  0  0  0  0  0  0  0  0  0  # atno 11005 bound_to 11000
  145.1308  140.9516  143.4545 LP  0  0  0  0  0  0  0  0  0  0  0  0  # atno 17320 bound_to 7965
  145.0390  139.3276  143.5986 LP  0  0  0  0  0  0  0  0  0  0  0  0  # atno 17321 bound_to 7965
  139.7096  144.7622  151.1134 LP  0  0  0  0  0  0  0  0  0  0  0  0  # atno 17342 bound_to 10162
  140.7723  143.5348  150.9381 LP  0  0  0  0  0  0  0  0  0  0  0  0  # atno 17343 bound_to 10162
  156.3258  130.7305  151.2225 LP  0  0  0  0  0  0  0  0  0  0  0  0  # atno 17370 bound_to 10713
  157.7453  131.0443  150.4788 LP  0  0  0  0  0  0  0  0  0  0  0  0  # atno 17371 bound_to 10713
  140.0800  134.5745  155.8551 LP  0  0  0  0  0  0  0  0  0  0  0  0  # atno 17394 bound_to 11000
  141.2044  133.6639  156.6121 LP  0  0  0  0  0  0  0  0  0  0  0  0  # atno 17395 bound_to 11000

$$$$
