AV-unprocessed.smi:148|AV-procd|sdf|1220|dock6
  -GOLD-   2262018413D 1   1.00000     0.00000
 Structure written by MMmdl.
 63 67  0  0  0  0  0  0  0  0  1 V2000
  147.0828  143.1242  154.1430 O   0  0  0  0  0  0  0  0  0  0  0  0
  146.9374  142.1963  155.1980 C   0  0  0  0  0  0  0  0  0  0  0  0
  147.5344  140.8178  154.8242 C   0  0  2  0  0  0  0  0  0  0  0  0
  147.0122  139.6933  155.7569 C   0  0  0  0  0  0  0  0  0  0  0  0
  146.5489  138.5243  155.0304 N   0  0  0  0  0  0  0  0  0  0  0  0
  146.5242  138.3663  153.6630 C   0  0  0  0  0  0  0  0  0  0  0  0
  146.0692  137.2171  153.2435 N   0  0  0  0  0  0  0  0  0  0  0  0
  145.7564  136.5335  154.4114 C   0  0  0  0  0  0  0  0  0  0  0  0
  145.2183  135.2489  154.6873 C   0  0  0  0  0  0  0  0  0  0  0  0
  144.9115  134.3756  153.6981 N   0  0  0  0  0  0  0  0  0  0  0  0
  143.7400  134.8796  152.9779 C   0  0  0  0  0  0  0  0  0  0  0  0
  143.1963  133.8512  151.9794 C   0  0  0  0  0  0  0  0  0  0  0  0
  144.3055  133.4083  151.0223 C   0  0  0  0  0  0  0  0  0  0  0  0
  145.4821  132.8484  151.8298 C   0  0  0  0  0  0  0  0  0  0  0  0
  146.0211  133.8768  152.8606 C   0  0  2  0  0  0  0  0  0  0  0  0
  147.2270  133.3243  153.6916 C   0  0  2  0  0  0  0  0  0  0  0  0
  148.0806  134.4042  154.3841 C   0  0  0  0  0  0  0  0  0  0  0  0
  149.5010  133.8280  154.5068 C   0  0  0  0  0  0  0  0  0  0  0  0
  149.4451  132.4169  153.9146 C   0  0  0  0  0  0  0  0  0  0  0  0
  148.2573  132.4510  152.9538 C   0  0  1  0  0  0  0  0  0  0  0  0
  147.7868  131.1458  152.6904 O   0  0  0  0  0  0  0  0  0  0  0  0
  145.0563  134.8959  155.9908 N   0  0  0  0  0  0  0  0  0  0  0  0
  145.3782  135.7568  156.9612 C   0  0  0  0  0  0  0  0  0  0  0  0
  145.8777  136.9901  156.8522 N   0  0  0  0  0  0  0  0  0  0  0  0
  146.0556  137.3383  155.5453 C   0  0  0  0  0  0  0  0  0  0  0  0
  149.0853  140.8735  154.7282 C   0  0  1  0  0  0  0  0  0  0  0  0
  149.8368  141.3698  155.9636 C   0  0  0  0  0  0  0  0  0  0  0  0
  151.0743  140.4702  156.0350 C   0  0  0  0  0  0  0  0  0  0  0  0
  151.1298  139.8182  154.7746 O   0  0  0  0  0  0  0  0  0  0  0  0
  149.7918  139.5587  154.3863 C   0  0  0  0  0  0  0  0  0  0  0  0
  147.7682  143.7336  154.3712 H   0  0  0  0  0  0  0  0  0  0  0  0
  147.4091  142.5937  156.0970 H   0  0  0  0  0  0  0  0  0  0  0  0
  145.8708  142.1224  155.4066 H   0  0  0  0  0  0  0  0  0  0  0  0
  147.1729  140.5808  153.8222 H   0  0  0  0  0  0  0  0  0  0  0  0
  147.7893  139.3530  156.4387 H   0  0  0  0  0  0  0  0  0  0  0  0
  146.1940  140.0520  156.3806 H   0  0  0  0  0  0  0  0  0  0  0  0
  146.8574  139.1362  152.9820 H   0  0  0  0  0  0  0  0  0  0  0  0
  142.9499  135.1440  153.6825 H   0  0  0  0  0  0  0  0  0  0  0  0
  144.0112  135.7951  152.4496 H   0  0  0  0  0  0  0  0  0  0  0  0
  142.8034  132.9874  152.5173 H   0  0  0  0  0  0  0  0  0  0  0  0
  142.3630  134.2769  151.4199 H   0  0  0  0  0  0  0  0  0  0  0  0
  143.9276  132.6528  150.3331 H   0  0  0  0  0  0  0  0  0  0  0  0
  144.6367  134.2521  150.4157 H   0  0  0  0  0  0  0  0  0  0  0  0
  145.1387  131.9469  152.3360 H   0  0  0  0  0  0  0  0  0  0  0  0
  146.2632  132.5357  151.1390 H   0  0  0  0  0  0  0  0  0  0  0  0
  146.3882  134.7336  152.2934 H   0  0  0  0  0  0  0  0  0  0  0  0
  146.8460  132.7203  154.5150 H   0  0  0  0  0  0  0  0  0  0  0  0
  148.1194  135.3299  153.8125 H   0  0  0  0  0  0  0  0  0  0  0  0
  147.6667  134.6576  155.3608 H   0  0  0  0  0  0  0  0  0  0  0  0
  150.1967  134.4435  153.9350 H   0  0  0  0  0  0  0  0  0  0  0  0
  149.8509  133.8149  155.5394 H   0  0  0  0  0  0  0  0  0  0  0  0
  150.3755  132.1296  153.4240 H   0  0  0  0  0  0  0  0  0  0  0  0
  149.2580  131.6994  154.7155 H   0  0  0  0  0  0  0  0  0  0  0  0
  148.5797  132.9133  152.0220 H   0  0  0  0  0  0  0  0  0  0  0  0
  148.2886  130.7835  151.9764 H   0  0  0  0  0  0  0  0  0  0  0  0
  145.2131  135.4063  157.9694 H   0  0  0  0  0  0  0  0  0  0  0  0
  149.3465  141.5523  153.9152 H   0  0  0  0  0  0  0  0  0  0  0  0
  150.1172  142.4164  155.8388 H   0  0  0  0  0  0  0  0  0  0  0  0
  149.2607  141.2966  156.8846 H   0  0  0  0  0  0  0  0  0  0  0  0
  151.9892  141.0287  156.2335 H   0  0  0  0  0  0  0  0  0  0  0  0
  150.9562  139.7207  156.8189 H   0  0  0  0  0  0  0  0  0  0  0  0
  149.4204  138.7115  154.9613 H   0  0  0  0  0  0  0  0  0  0  0  0
  149.7236  139.3094  153.3272 H   0  0  0  0  0  0  0  0  0  0  0  0
  1  2  1  0  0  0  0
  1 31  1  0  0  0  0
  2  3  1  0  0  0  0
  2 32  1  0  0  0  0
  2 33  1  0  0  0  0
  3  4  1  0  0  0  0
  3 26  1  0  0  0  0
  3 34  1  0  0  0  0
  4  5  1  0  0  0  0
  4 35  1  0  0  0  0
  4 36  1  0  0  0  0
  5 25  1  0  0  0  0
  5  6  1  0  0  0  0
  6  7  2  0  0  0  0
  6 37  1  0  0  0  0
  7  8  1  0  0  0  0
  8 25  2  0  0  0  0
  8  9  1  0  0  0  0
  9 10  1  0  0  0  0
  9 22  2  0  0  0  0
 10 15  1  0  0  0  0
 10 11  1  0  0  0  0
 11 12  1  0  0  0  0
 11 38  1  0  0  0  0
 11 39  1  0  0  0  0
 12 13  1  0  0  0  0
 12 40  1  0  0  0  0
 12 41  1  0  0  0  0
 13 14  1  0  0  0  0
 13 42  1  0  0  0  0
 13 43  1  0  0  0  0
 14 15  1  0  0  0  0
 14 44  1  0  0  0  0
 14 45  1  0  0  0  0
 15 16  1  0  0  0  0
 15 46  1  0  0  0  0
 16 20  1  0  0  0  0
 16 17  1  0  0  0  0
 16 47  1  0  0  0  0
 17 18  1  0  0  0  0
 17 48  1  0  0  0  0
 17 49  1  0  0  0  0
 18 19  1  0  0  0  0
 18 50  1  0  0  0  0
 18 51  1  0  0  0  0
 19 20  1  0  0  0  0
 19 52  1  0  0  0  0
 19 53  1  0  0  0  0
 20 21  1  0  0  0  0
 20 54  1  0  0  0  0
 21 55  1  0  0  0  0
 22 23  1  0  0  0  0
 23 24  2  0  0  0  0
 23 56  1  0  0  0  0
 24 25  1  0  0  0  0
 26 30  1  0  0  0  0
 26 27  1  0  0  0  0
 26 57  1  0  0  0  0
 27 28  1  0  0  0  0
 27 58  1  0  0  0  0
 27 59  1  0  0  0  0
 28 29  1  0  0  0  0
 28 60  1  0  0  0  0
 28 61  1  0  0  0  0
 29 30  1  0  0  0  0
 30 62  1  0  0  0  0
 30 63  1  0  0  0  0
M  END
> <s_m_source_file>
AV-unprocessed.smi

> <i_m_source_file_index>
148

> <i_lp_mmshare_version>
43012

> <i_f3d_flags>
0

> <s_epik_input>
W0NIMl0xT1tDSDJdW0NIMl1bQ0BIXTFbQ0BIXShbQ0gyXVtPSF0pW0NIMl1uKFtjSF1uMiljKGMyMyluW2NIXW5jM040W0NIMl1bQ0gyXVtDSDJdW0NIMl1bQ0BIXTRbQ0BASF01W0NIMl1bQ0gyXVtDSDJdW0NASF01W09IXQ==

> <s_epik_cmdline>
J2VwaWtfcHl0aG9uJywgJy1waCcsICc3LjAnLCAnLXRuJywgJzgnLCAnLW1hJywgJzIwMCcsICctbWV0YWxfYmluZGluZycsICctaW1hZScsICc8aW5maWxlLm1hZT4nLCAnLW9tYWUnLCAnPG91dGZpbGUubWFlPic=

> <r_lp_tautomer_probability>
1

> <r_epik_Ionization_Penalty>
0.00556303

> <r_epik_Ionization_Penalty_Charging>
0

> <r_epik_Ionization_Penalty_Neutral>
0.00556303

> <r_epik_State_Penalty>
0.00401767

> <r_epik_Charging_Adjusted_Penalty>
0.00401767

> <i_epik_Tot_Q>
0

> <i_epik_Tot_abs_Q>
0

> <r_epik_Metal_State_Penalty>
-0

> <b_epik_Metal_Only>
0

> <s_lp_Force_Field>
OPLS_2005

> <r_lp_Energy>
68.7494

> <b_lp_Chiralities_Consistent>
1

> <s_lp_Variant>
AV-unprocessed.smi:148-19

> <Gold.Version>
5.8.1

> <Gold.Id.Protein>
6NUR|6NUR_protein|mol2

> <Gold.PLP.Fitness>
46.2119

> <Gold.PLP.PLP>
-39.4762

> <Gold.PLP.part.hbond>
-4.0000

> <Gold.PLP.part.metal>
0.0000

> <Gold.PLP.part.buried>
-3.7300

> <Gold.PLP.part.nonpolar>
-31.4436

> <Gold.PLP.part.repulsive>
0.3644

> <Gold.PLP.ligand.clash>
0.2823

> <Gold.PLP.ligand.torsion>
1.1808

> <Gold.PLP.Chemscore.Hbond>
3.0000

> <Gold.PLP.Chemscore.CHOScore>
0.0000

> <Gold.PLP.Chemscore.Metal>
0.0000

> <Gold.Chemscore.Hbonds>
donor molecule, donor type, donor heavy atom, donor atom, acceptor molecule, acceptor atom, score
      L1  H     1    31       P1  8028  1.00
      L1  H    21    55       P1 10747  1.00
      P1  H  7989  7998       L1    29  1.00

> <Gold.PLP.Chemscore.Internal.Correction>
0.3795

> <Gold.Rescore>
     Score         DG    S(hbond)    S(metal)    S(lipo)     H(rot)  DE(clash)    DE(int)     intcor
     10.40     -13.94       1.89        0.00      91.10       3.32       0.42       3.13       ----

> <Gold.Chemscore.Fitness>
10.3951

> <Gold.Chemscore.DG>
-13.9443

> <Gold.Chemscore.ZeroCoef>
-5.4800

> <Gold.Chemscore.Hbond>
1.8879

> <Gold.Chemscore.Metal>
0.0000

> <Gold.Chemscore.Lipo>
91.1017

> <Gold.Chemscore.Internal_Hbond>
0.0000

> <Gold.Chemscore.DEClash>
0.4241

> <Gold.Chemscore.DEInternal>
3.1252

> <Gold.Chemscore.Rot>
3.3203

> <Gold.Chemscore.Internal.Correction>
   9.000000E+99

> <Gold.Chemscore.Hbonds>
donor molecule, donor type, donor heavy atom, donor atom, acceptor molecule, acceptor atom, score
      L1  H     1    31       P1  8028  0.34
      L1  H    21    55       P1 10747  0.96
      P1  H  7989  7998       L1    29  0.26

> <Gold.Chemscore.Hbond.Weighted>
-6.3054

> <Gold.Chemscore.Metal.Weighted>
-0.0000

> <Gold.Chemscore.Lipo.Weighted>
-10.6589

> <Gold.Chemscore.Internal_Hbond.Weighted>
0.0000

> <Gold.Chemscore.DEClash.Weighted>
0.4241

> <Gold.Chemscore.DEInternal.Weighted>
3.1252

> <Gold.Chemscore.Rot.Weighted>
8.5000

> <Gold.Chemscore.Internal.Correction.Weighted>
   9.000000E+99

> <Gold.Protein.RotatedTorsions>
[ 6907 6896 6895 6894 ] final    7.64 input  -60.11 | X-H torsion
[ 7974 7965 7964 7962 ] final  -12.82 input  175.53 | X-H torsion
[ 8008 7997 7996 7995 ] final -163.01 input   59.86 | X-H torsion
[ 10167 10162 10161 10158 ] final -178.96 input  -65.29 | X-H torsion
[ 10718 10713 10712 10709 ] final  -12.72 input   66.30 | X-H torsion
[ 10763 10752 10751 10750 ] final -174.72 input  -60.55 | X-H torsion
[ 11005 11000 10999 10996 ] final   84.08 input  -57.11 | X-H torsion

> <Gold.Protein.ActiveResidues>
 VAL166  LYS551  ARG553  GLY616  TRP617  ASP618  TYR619  PRO620  LYS621  CYS622 
 ASP623  PHE694  ASN695  SER759  ASP760  ASP761  ALA762  ILE779  LEU786  VAL792 
 PHE793  MET794  SER795  GLU796  ALA797  LYS798  CYS799  TRP800  GLU811  SER814 

> <Gold.Protein.RotatedAtoms>
  151.6931  135.0943  160.0237 H   0  0  0  0  0  0  0  0  0  0  0  0  # atno 6907 bound_to 6896
  152.3766  133.6485  159.6137 H   0  0  0  0  0  0  0  0  0  0  0  0  # atno 6908 bound_to 6896
  150.7714  133.9099  159.3407 H   0  0  0  0  0  0  0  0  0  0  0  0  # atno 6909 bound_to 6896
  146.2138  140.3113  142.8383 H   0  0  0  0  0  0  0  0  0  0  0  0  # atno 7974 bound_to 7965
  155.8150  140.0911  157.1882 H   0  0  0  0  0  0  0  0  0  0  0  0  # atno 8008 bound_to 7997
  154.3979  140.1447  156.3492 H   0  0  0  0  0  0  0  0  0  0  0  0  # atno 8009 bound_to 7997
  155.8325  140.3442  155.5584 H   0  0  0  0  0  0  0  0  0  0  0  0  # atno 8010 bound_to 7997
  139.5408  144.2368  152.0891 H   0  0  0  0  0  0  0  0  0  0  0  0  # atno 10167 bound_to 10162
  156.6406  130.4927  149.6096 H   0  0  0  0  0  0  0  0  0  0  0  0  # atno 10718 bound_to 10713
  154.5929  135.2847  155.0617 H   0  0  0  0  0  0  0  0  0  0  0  0  # atno 10763 bound_to 10752
  154.1910  135.6440  153.5064 H   0  0  0  0  0  0  0  0  0  0  0  0  # atno 10764 bound_to 10752
  153.0128  135.5446  154.6621 H   0  0  0  0  0  0  0  0  0  0  0  0  # atno 10765 bound_to 10752
  139.9011  134.8191  156.2397 H   0  0  0  0  0  0  0  0  0  0  0  0  # atno 11005 bound_to 11000
  144.8986  140.7615  143.5881 LP  0  0  0  0  0  0  0  0  0  0  0  0  # atno 17320 bound_to 7965
  145.3038  139.1841  143.4675 LP  0  0  0  0  0  0  0  0  0  0  0  0  # atno 17321 bound_to 7965
  140.1846  144.4811  150.6510 LP  0  0  0  0  0  0  0  0  0  0  0  0  # atno 17342 bound_to 10162
  140.6637  143.2260  151.5794 LP  0  0  0  0  0  0  0  0  0  0  0  0  # atno 17343 bound_to 10162
  156.2162  130.6709  151.1321 LP  0  0  0  0  0  0  0  0  0  0  0  0  # atno 17370 bound_to 10713
  157.7172  131.0703  150.6280 LP  0  0  0  0  0  0  0  0  0  0  0  0  # atno 17371 bound_to 10713
  141.0293  133.6998  156.1402 LP  0  0  0  0  0  0  0  0  0  0  0  0  # atno 17394 bound_to 11000
  140.7120  134.4451  157.5581 LP  0  0  0  0  0  0  0  0  0  0  0  0  # atno 17395 bound_to 11000

$$$$
