AV-unprocessed.smi:198|AV-procd|sdf|1557|dock10
  -GOLD-   2262019433D 1   1.00000     0.00000
 Structure written by MMmdl.
 59 63  0  0  0  0  0  0  0  0  2 V2000
  147.4015  143.1373  157.7379 C   0  0  0  0  0  0  0  0  0  0  0  0
  148.8047  143.0000  157.2918 N   0  3  2  0  0  0  0  0  0  0  0  0
  149.0229  141.7710  156.4918 C   0  0  0  0  0  0  0  0  0  0  0  0
  150.4563  141.7272  155.9390 C   0  0  0  0  0  0  0  0  0  0  0  0
  151.5153  141.8198  157.0634 C   0  0  1  0  0  0  0  0  0  0  0  0
  151.2301  143.0828  157.9134 C   0  0  2  0  0  0  0  0  0  0  0  0
  152.2513  143.2113  159.0611 C   0  0  0  0  0  0  0  0  0  0  0  0
  152.3234  141.9237  159.8961 C   0  0  0  0  0  0  0  0  0  0  0  0
  152.5748  140.7047  158.9974 C   0  0  0  0  0  0  0  0  0  0  0  0
  151.5893  140.6257  157.9201 N   0  0  0  0  0  0  0  0  0  0  0  0
  151.6709  139.4372  157.2820 C   0  0  0  0  0  0  0  0  0  0  0  0
  152.8433  139.1479  156.6671 N   0  0  0  0  0  0  0  0  0  0  0  0
  152.9842  137.9908  156.0130 C   0  0  0  0  0  0  0  0  0  0  0  0
  152.0966  137.0062  155.8568 N   0  0  0  0  0  0  0  0  0  0  0  0
  150.9157  137.2960  156.4756 C   0  0  0  0  0  0  0  0  0  0  0  0
  150.6180  138.4827  157.2026 C   0  0  0  0  0  0  0  0  0  0  0  0
  149.3130  138.4352  157.6763 N   0  0  0  0  0  0  0  0  0  0  0  0
  148.8613  137.2888  157.2459 C   0  0  0  0  0  0  0  0  0  0  0  0
  149.7660  136.5277  156.5396 N   0  0  0  0  0  0  0  0  0  0  0  0
  149.5153  135.2600  155.9174 C   0  0  0  0  0  0  0  0  0  0  0  0
  149.2888  133.9996  156.7578 C   0  0  0  0  0  0  0  0  0  0  0  0
  150.0423  133.1498  155.7110 C   0  0  0  0  0  0  0  0  0  0  0  0
  151.0828  132.1766  156.2868 C   0  0  0  0  0  0  0  0  0  0  0  0
  151.7358  132.7259  157.4135 O   0  0  0  0  0  0  0  0  0  0  0  0
  149.1867  132.3535  154.7005 C   0  0  0  0  0  0  0  0  0  0  0  0
  148.4126  131.3350  155.3012 O   0  0  0  0  0  0  0  0  0  0  0  0
  150.6308  134.4869  155.2070 C   0  0  0  0  0  0  0  0  0  0  0  0
  149.7672  143.1093  158.4154 C   0  0  0  0  0  0  0  0  0  0  0  0
  147.1218  142.3218  158.4063 H   0  0  0  0  0  0  0  0  0  0  0  0
  146.7229  143.1278  156.8842 H   0  0  0  0  0  0  0  0  0  0  0  0
  147.2554  144.0796  158.2670 H   0  0  0  0  0  0  0  0  0  0  0  0
  148.8246  140.8903  157.1046 H   0  0  0  0  0  0  0  0  0  0  0  0
  148.3145  141.7458  155.6629 H   0  0  0  0  0  0  0  0  0  0  0  0
  150.5966  140.8365  155.3261 H   0  0  0  0  0  0  0  0  0  0  0  0
  150.5941  142.5682  155.2583 H   0  0  0  0  0  0  0  0  0  0  0  0
  152.4932  141.9440  156.5966 H   0  0  0  0  0  0  0  0  0  0  0  0
  151.3608  143.9539  157.2694 H   0  0  0  0  0  0  0  0  0  0  0  0
  153.2370  143.4164  158.6413 H   0  0  0  0  0  0  0  0  0  0  0  0
  152.0083  144.0622  159.6981 H   0  0  0  0  0  0  0  0  0  0  0  0
  153.1174  142.0063  160.6386 H   0  0  0  0  0  0  0  0  0  0  0  0
  151.3981  141.7848  160.4556 H   0  0  0  0  0  0  0  0  0  0  0  0
  153.5754  140.7676  158.5673 H   0  0  0  0  0  0  0  0  0  0  0  0
  152.5454  139.7954  159.5996 H   0  0  0  0  0  0  0  0  0  0  0  0
  153.9459  137.8300  155.5481 H   0  0  0  0  0  0  0  0  0  0  0  0
  147.8486  136.9640  157.4363 H   0  0  0  0  0  0  0  0  0  0  0  0
  148.6752  135.4260  155.2420 H   0  0  0  0  0  0  0  0  0  0  0  0
  149.8075  134.0402  157.7172 H   0  0  0  0  0  0  0  0  0  0  0  0
  148.2405  133.7330  156.8943 H   0  0  0  0  0  0  0  0  0  0  0  0
  150.6242  131.2284  156.5698 H   0  0  0  0  0  0  0  0  0  0  0  0
  151.8463  131.9393  155.5455 H   0  0  0  0  0  0  0  0  0  0  0  0
  152.6207  132.3952  157.4393 H   0  0  0  0  0  0  0  0  0  0  0  0
  148.5042  133.0164  154.1675 H   0  0  0  0  0  0  0  0  0  0  0  0
  149.8143  131.8801  153.9448 H   0  0  0  0  0  0  0  0  0  0  0  0
  147.4983  131.5374  155.1732 H   0  0  0  0  0  0  0  0  0  0  0  0
  150.6377  134.6060  154.1228 H   0  0  0  0  0  0  0  0  0  0  0  0
  151.6145  134.7055  155.6257 H   0  0  0  0  0  0  0  0  0  0  0  0
  149.5844  144.0402  158.9539 H   0  0  0  0  0  0  0  0  0  0  0  0
  149.5805  142.2969  159.1188 H   0  0  0  0  0  0  0  0  0  0  0  0
  148.9881  143.7808  156.6776 H   0  0  0  0  0  0  0  0  0  0  0  0
  1  2  1  0  0  0  0
  1 29  1  0  0  0  0
  1 30  1  0  0  0  0
  1 31  1  0  0  0  0
  2 28  1  0  0  0  0
  2  3  1  0  0  0  0
  2 59  1  0  0  0  0
  3  4  1  0  0  0  0
  3 32  1  0  0  0  0
  3 33  1  0  0  0  0
  4  5  1  0  0  0  0
  4 34  1  0  0  0  0
  4 35  1  0  0  0  0
  5 10  1  0  0  0  0
  5  6  1  0  0  0  0
  5 36  1  0  0  0  0
  6  7  1  0  0  0  0
  6 28  1  0  0  0  0
  6 37  1  0  0  0  0
  7  8  1  0  0  0  0
  7 38  1  0  0  0  0
  7 39  1  0  0  0  0
  8  9  1  0  0  0  0
  8 40  1  0  0  0  0
  8 41  1  0  0  0  0
  9 10  1  0  0  0  0
  9 42  1  0  0  0  0
  9 43  1  0  0  0  0
 10 11  1  0  0  0  0
 11 16  1  0  0  0  0
 11 12  2  0  0  0  0
 12 13  1  0  0  0  0
 13 14  2  0  0  0  0
 13 44  1  0  0  0  0
 14 15  1  0  0  0  0
 15 19  1  0  0  0  0
 15 16  2  0  0  0  0
 16 17  1  0  0  0  0
 17 18  2  0  0  0  0
 18 19  1  0  0  0  0
 18 45  1  0  0  0  0
 19 20  1  0  0  0  0
 20 27  1  0  0  0  0
 20 21  1  0  0  0  0
 20 46  1  0  0  0  0
 21 22  1  0  0  0  0
 21 47  1  0  0  0  0
 21 48  1  0  0  0  0
 22 23  1  0  0  0  0
 22 25  1  0  0  0  0
 22 27  1  0  0  0  0
 23 24  1  0  0  0  0
 23 49  1  0  0  0  0
 23 50  1  0  0  0  0
 24 51  1  0  0  0  0
 25 26  1  0  0  0  0
 25 52  1  0  0  0  0
 25 53  1  0  0  0  0
 26 54  1  0  0  0  0
 27 55  1  0  0  0  0
 27 56  1  0  0  0  0
 28 57  1  0  0  0  0
 28 58  1  0  0  0  0
M  CHG  1   2   1
M  END
> <s_m_source_file>
AV-unprocessed.smi

> <i_m_source_file_index>
198

> <i_lp_mmshare_version>
43012

> <i_f3d_flags>
0

> <s_epik_input>
W0NIMl0xW0NIMl1OKFtDSDNdKVtDSDJdW0NAQEhdKFtDQEhdMTIpW0NIMl1bQ0gyXVtDSDJdTjJjKG5bY0hdbjMpYyhjMzQpbltjSF1uNFtDSF0oW0NIMl01KVtDSDJdQzUoW0NIMl1bT0hdKVtDSDJdW09IXQ==

> <s_epik_cmdline>
J2VwaWtfcHl0aG9uJywgJy1waCcsICc3LjAnLCAnLXRuJywgJzgnLCAnLW1hJywgJzIwMCcsICctbWV0YWxfYmluZGluZycsICctaW1hZScsICc8aW5maWxlLm1hZT4nLCAnLW9tYWUnLCAnPG91dGZpbGUubWFlPic=

> <r_lp_tautomer_probability>
1

> <r_epik_Ionization_Penalty>
0.00239938

> <r_epik_Ionization_Penalty_Charging>
0.00138697

> <r_epik_Ionization_Penalty_Neutral>
0.00101241

> <r_epik_State_Penalty>
-0

> <r_epik_Charging_Adjusted_Penalty>
0.00138697

> <i_epik_Tot_Q>
1

> <i_epik_Tot_abs_Q>
1

> <r_epik_Metal_State_Penalty>
-0

> <b_epik_Metal_Only>
0

> <s_lp_Force_Field>
OPLS_2005

> <r_lp_Energy>
60.6867

> <b_lp_Chiralities_Consistent>
1

> <s_lp_Variant>
AV-unprocessed.smi:198-6

> <Gold.Version>
5.8.1

> <Gold.Id.Protein>
6NUR|6NUR_protein|mol2

> <Gold.PLP.Fitness>
50.3009

> <Gold.PLP.PLP>
-36.4744

> <Gold.PLP.part.hbond>
-4.4932

> <Gold.PLP.part.metal>
0.0000

> <Gold.PLP.part.buried>
-5.2485

> <Gold.PLP.part.nonpolar>
-26.7580

> <Gold.PLP.part.repulsive>
0.0739

> <Gold.PLP.ligand.clash>
0.0000

> <Gold.PLP.ligand.torsion>
0.4698

> <Gold.PLP.Chemscore.Hbond>
4.7216

> <Gold.PLP.Chemscore.CHOScore>
0.0000

> <Gold.PLP.Chemscore.Metal>
0.0000

> <Gold.Chemscore.Hbonds>
donor molecule, donor type, donor heavy atom, donor atom, acceptor molecule, acceptor atom, score
      L1  H     2    59       P1  8028  1.24
      P1  H  6896  6909       L1    24  0.17
      P1  H  7997  8009       L1    12  1.00
      P1  H 10752 10764       L1    14  0.99

> <Gold.PLP.Chemscore.Internal.Correction>
0.6014

> <Gold.Rescore>
     Score         DG    S(hbond)    S(metal)    S(lipo)     H(rot)  DE(clash)    DE(int)     intcor
     17.60     -20.16       3.37        0.00      96.64       3.08       1.06       1.49       ----

> <Gold.Chemscore.Fitness>
17.6045

> <Gold.Chemscore.DG>
-20.1565

> <Gold.Chemscore.ZeroCoef>
-5.4800

> <Gold.Chemscore.Hbond>
3.3681

> <Gold.Chemscore.Metal>
0.0000

> <Gold.Chemscore.Lipo>
96.6428

> <Gold.Chemscore.Internal_Hbond>
0.0000

> <Gold.Chemscore.DEClash>
1.0643

> <Gold.Chemscore.DEInternal>
1.4877

> <Gold.Chemscore.Rot>
3.0781

> <Gold.Chemscore.Internal.Correction>
   9.000000E+99

> <Gold.Chemscore.Hbonds>
donor molecule, donor type, donor heavy atom, donor atom, acceptor molecule, acceptor atom, score
      L1  H     2    59       P1  8028  0.44
      P1  H  7997  8009       L1    12  0.78
      P1  H 10752 10764       L1    14  0.50

> <Gold.Chemscore.Hbond.Weighted>
-11.2493

> <Gold.Chemscore.Metal.Weighted>
-0.0000

> <Gold.Chemscore.Lipo.Weighted>
-11.3072

> <Gold.Chemscore.Internal_Hbond.Weighted>
0.0000

> <Gold.Chemscore.DEClash.Weighted>
1.0643

> <Gold.Chemscore.DEInternal.Weighted>
1.4877

> <Gold.Chemscore.Rot.Weighted>
7.8800

> <Gold.Chemscore.Internal.Correction.Weighted>
   9.000000E+99

> <Gold.Protein.RotatedTorsions>
[ 6907 6896 6895 6894 ] final  -85.07 input  -60.11 | X-H torsion
[ 7974 7965 7964 7962 ] final   44.66 input  175.53 | X-H torsion
[ 8008 7997 7996 7995 ] final  174.51 input   59.86 | X-H torsion
[ 10167 10162 10161 10158 ] final -132.49 input  -65.29 | X-H torsion
[ 10718 10713 10712 10709 ] final   96.67 input   66.30 | X-H torsion
[ 10763 10752 10751 10750 ] final  -42.15 input  -60.55 | X-H torsion
[ 11005 11000 10999 10996 ] final   72.19 input  -57.11 | X-H torsion

> <Gold.Protein.ActiveResidues>
 VAL166  LYS551  ARG553  GLY616  TRP617  ASP618  TYR619  PRO620  LYS621  CYS622 
 ASP623  PHE694  ASN695  SER759  ASP760  ASP761  ALA762  ILE779  LEU786  VAL792 
 PHE793  MET794  SER795  GLU796  ALA797  LYS798  CYS799  TRP800  GLU811  SER814 

> <Gold.Protein.RotatedAtoms>
  150.6872  134.3261  159.4806 H   0  0  0  0  0  0  0  0  0  0  0  0  # atno 6907 bound_to 6896
  152.1131  134.9257  160.0575 H   0  0  0  0  0  0  0  0  0  0  0  0  # atno 6908 bound_to 6896
  152.0492  133.3977  159.4407 H   0  0  0  0  0  0  0  0  0  0  0  0  # atno 6909 bound_to 6896
  146.0549  139.5050  142.9695 H   0  0  0  0  0  0  0  0  0  0  0  0  # atno 7974 bound_to 7965
  156.0967  140.1432  156.9522 H   0  0  0  0  0  0  0  0  0  0  0  0  # atno 8008 bound_to 7997
  154.4676  140.0921  156.7106 H   0  0  0  0  0  0  0  0  0  0  0  0  # atno 8009 bound_to 7997
  155.4829  140.3445  155.4345 H   0  0  0  0  0  0  0  0  0  0  0  0  # atno 8010 bound_to 7997
  139.9081  143.6527  152.2581 H   0  0  0  0  0  0  0  0  0  0  0  0  # atno 10167 bound_to 10162
  157.6924  131.0585  150.4526 H   0  0  0  0  0  0  0  0  0  0  0  0  # atno 10718 bound_to 10713
  153.9744  135.6724  153.4748 H   0  0  0  0  0  0  0  0  0  0  0  0  # atno 10763 bound_to 10752
  153.0778  135.4939  154.8437 H   0  0  0  0  0  0  0  0  0  0  0  0  # atno 10764 bound_to 10752
  154.7201  135.3115  154.9022 H   0  0  0  0  0  0  0  0  0  0  0  0  # atno 10765 bound_to 10752
  139.9504  134.7238  156.0877 H   0  0  0  0  0  0  0  0  0  0  0  0  # atno 11005 bound_to 11000
  145.6661  141.0228  143.1683 LP  0  0  0  0  0  0  0  0  0  0  0  0  # atno 17320 bound_to 7965
  144.7142  139.8256  143.7404 LP  0  0  0  0  0  0  0  0  0  0  0  0  # atno 17321 bound_to 7965
  139.6967  144.7640  151.1344 LP  0  0  0  0  0  0  0  0  0  0  0  0  # atno 17342 bound_to 10162
  140.7692  143.5514  150.9200 LP  0  0  0  0  0  0  0  0  0  0  0  0  # atno 17343 bound_to 10162
  156.4876  130.4088  149.6425 LP  0  0  0  0  0  0  0  0  0  0  0  0  # atno 17370 bound_to 10713
  156.3447  130.7400  151.2351 LP  0  0  0  0  0  0  0  0  0  0  0  0  # atno 17371 bound_to 10713
  141.1165  133.6626  156.3107 LP  0  0  0  0  0  0  0  0  0  0  0  0  # atno 17394 bound_to 11000
  140.5733  134.5818  157.5463 LP  0  0  0  0  0  0  0  0  0  0  0  0  # atno 17395 bound_to 11000

$$$$
