AV-unprocessed.smi:2898|AV-procd|sdf|11142|dock10
  -GOLD-   2272016 23D 1   1.00000     0.00000
 Structure written by MMmdl.
 44 45  0  0  0  0  0  0  0  0  1 V2000
  152.3665  138.0627  157.0033 C   0  0  0  0  0  0  0  0  0  0  0  0
  151.4235  138.9231  156.2115 C   0  0  0  0  0  0  0  0  0  0  0  0
  151.8058  139.4011  155.0401 N   0  0  0  0  0  0  0  0  0  0  0  0
  150.7230  140.1417  154.5594 O   0  0  0  0  0  0  0  0  0  0  0  0
  149.7179  140.0793  155.4696 C   0  0  0  0  0  0  0  0  0  0  0  0
  148.4686  140.8149  155.1153 C   0  0  0  0  0  0  0  0  0  0  0  0
  150.0984  139.3250  156.5491 C   0  0  0  0  0  0  0  0  0  0  0  0
  149.3367  138.9657  157.8044 C   0  0  1  0  0  0  0  0  0  0  0  0
  147.9926  139.7124  157.8828 C   0  0  0  0  0  0  0  0  0  0  0  0
  149.1778  137.4345  157.9192 C   0  0  0  0  0  0  0  0  0  0  0  0
  148.7879  137.0132  159.2603 N   0  0  0  0  0  0  0  0  0  0  0  0
  148.6645  135.7381  159.6672 C   0  0  0  0  0  0  0  0  0  0  0  0
  148.8552  134.7851  158.9095 O   0  0  0  0  0  0  0  0  0  0  0  0
  148.2769  135.4846  161.1418 C   0  0  0  0  0  0  0  0  0  0  0  0
  149.1905  136.1883  162.0669 C   0  0  0  0  0  0  0  0  0  0  0  0
  149.9060  136.7396  162.7912 N   0  0  0  0  0  0  0  0  0  0  0  0
  146.8263  135.9759  161.3789 C   0  0  0  0  0  0  0  0  0  0  0  0
  146.3231  135.6462  162.7956 C   0  0  0  0  0  0  0  0  0  0  0  0
  146.4183  134.1392  163.0773 C   0  0  0  0  0  0  0  0  0  0  0  0
  147.8431  133.6150  162.8433 C   0  0  0  0  0  0  0  0  0  0  0  0
  148.3326  133.9620  161.4260 C   0  0  0  0  0  0  0  0  0  0  0  0
  151.9109  137.0998  157.2360 H   0  0  0  0  0  0  0  0  0  0  0  0
  152.6304  138.5412  157.9464 H   0  0  0  0  0  0  0  0  0  0  0  0
  153.2921  137.8678  156.4606 H   0  0  0  0  0  0  0  0  0  0  0  0
  147.5847  140.2693  155.4434 H   0  0  0  0  0  0  0  0  0  0  0  0
  148.3910  140.9556  154.0371 H   0  0  0  0  0  0  0  0  0  0  0  0
  148.4538  141.7980  155.5855 H   0  0  0  0  0  0  0  0  0  0  0  0
  149.9158  139.2945  158.6680 H   0  0  0  0  0  0  0  0  0  0  0  0
  148.1403  140.7894  157.7997 H   0  0  0  0  0  0  0  0  0  0  0  0
  147.4897  139.5290  158.8325 H   0  0  0  0  0  0  0  0  0  0  0  0
  147.3116  139.4069  157.0892 H   0  0  0  0  0  0  0  0  0  0  0  0
  148.4189  137.0789  157.2224 H   0  0  0  0  0  0  0  0  0  0  0  0
  150.1071  136.9360  157.6376 H   0  0  0  0  0  0  0  0  0  0  0  0
  148.6144  137.7456  159.9339 H   0  0  0  0  0  0  0  0  0  0  0  0
  146.7677  137.0536  161.2196 H   0  0  0  0  0  0  0  0  0  0  0  0
  146.1467  135.5247  160.6537 H   0  0  0  0  0  0  0  0  0  0  0  0
  146.9054  136.1957  163.5360 H   0  0  0  0  0  0  0  0  0  0  0  0
  145.2914  135.9797  162.9093 H   0  0  0  0  0  0  0  0  0  0  0  0
  146.1085  133.9316  164.1020 H   0  0  0  0  0  0  0  0  0  0  0  0
  145.7224  133.6042  162.4299 H   0  0  0  0  0  0  0  0  0  0  0  0
  148.5181  134.0400  163.5867 H   0  0  0  0  0  0  0  0  0  0  0  0
  147.8682  132.5349  162.9895 H   0  0  0  0  0  0  0  0  0  0  0  0
  147.7225  133.4162  160.7042 H   0  0  0  0  0  0  0  0  0  0  0  0
  149.3525  133.5962  161.2982 H   0  0  0  0  0  0  0  0  0  0  0  0
  1  2  1  0  0  0  0
  1 22  1  0  0  0  0
  1 23  1  0  0  0  0
  1 24  1  0  0  0  0
  2  7  1  0  0  0  0
  2  3  2  0  0  0  0
  3  4  1  0  0  0  0
  4  5  1  0  0  0  0
  5  6  1  0  0  0  0
  5  7  2  0  0  0  0
  6 25  1  0  0  0  0
  6 26  1  0  0  0  0
  6 27  1  0  0  0  0
  7  8  1  0  0  0  0
  8  9  1  0  0  0  0
  8 10  1  0  0  0  0
  8 28  1  0  0  0  0
  9 29  1  0  0  0  0
  9 30  1  0  0  0  0
  9 31  1  0  0  0  0
 10 11  1  0  0  0  0
 10 32  1  0  0  0  0
 10 33  1  0  0  0  0
 11 12  1  0  0  0  0
 11 34  1  0  0  0  0
 12 13  2  0  0  0  0
 12 14  1  0  0  0  0
 14 21  1  0  0  0  0
 14 15  1  0  0  0  0
 14 17  1  0  0  0  0
 15 16  3  0  0  0  0
 17 18  1  0  0  0  0
 17 35  1  0  0  0  0
 17 36  1  0  0  0  0
 18 19  1  0  0  0  0
 18 37  1  0  0  0  0
 18 38  1  0  0  0  0
 19 20  1  0  0  0  0
 19 39  1  0  0  0  0
 19 40  1  0  0  0  0
 20 21  1  0  0  0  0
 20 41  1  0  0  0  0
 20 42  1  0  0  0  0
 21 43  1  0  0  0  0
 21 44  1  0  0  0  0
M  END
> <s_m_source_file>
AV-unprocessed.smi

> <i_m_source_file_index>
2898

> <i_lp_mmshare_version>
43012

> <i_f3d_flags>
0

> <s_epik_input>
W0NIM11jMW5vYyhbQ0gzXSljMVtDQEhdKFtDSDNdKVtDSDJdW05IXUMoPU8pQzIoQyNOKVtDSDJdW0NIMl1bQ0gyXVtDSDJdW0NIMl0y

> <s_epik_cmdline>
J2VwaWtfcHl0aG9uJywgJy1waCcsICc3LjAnLCAnLXRuJywgJzgnLCAnLW1hJywgJzIwMCcsICctbWV0YWxfYmluZGluZycsICctaW1hZScsICc8aW5maWxlLm1hZT4nLCAnLW9tYWUnLCAnPG91dGZpbGUubWFlPic=

> <r_lp_tautomer_probability>
1

> <r_epik_Ionization_Penalty>
4.33734e-07

> <r_epik_Ionization_Penalty_Charging>
0

> <r_epik_Ionization_Penalty_Neutral>
4.33734e-07

> <r_epik_State_Penalty>
-0

> <r_epik_Charging_Adjusted_Penalty>
0

> <i_epik_Tot_Q>
0

> <i_epik_Tot_abs_Q>
0

> <r_epik_Metal_State_Penalty>
-0

> <b_epik_Metal_Only>
0

> <s_lp_Force_Field>
OPLS_2005

> <r_lp_Energy>
8.6026

> <b_lp_Chiralities_Consistent>
1

> <s_lp_Variant>
AV-unprocessed.smi:2898-2

> <Gold.Version>
5.8.1

> <Gold.Id.Protein>
6NUR|6NUR_protein|mol2

> <Gold.PLP.Fitness>
42.0649

> <Gold.PLP.PLP>
-31.3115

> <Gold.PLP.part.hbond>
-3.7219

> <Gold.PLP.part.metal>
0.0000

> <Gold.PLP.part.buried>
-4.5295

> <Gold.PLP.part.nonpolar>
-22.9152

> <Gold.PLP.part.repulsive>
0.2235

> <Gold.PLP.ligand.clash>
0.0000

> <Gold.PLP.ligand.torsion>
0.2565

> <Gold.PLP.Chemscore.Hbond>
3.7368

> <Gold.PLP.Chemscore.CHOScore>
0.0000

> <Gold.PLP.Chemscore.Metal>
0.0000

> <Gold.Chemscore.Hbonds>
donor molecule, donor type, donor heavy atom, donor atom, acceptor molecule, acceptor atom, score
      P1  H  6896  6909       L1    13  0.85
      P1  H  6931  6943       L1    16  0.02
      P1  H  7989  7998       L1     4  0.60

> <Gold.PLP.Chemscore.Internal.Correction>
0.0561

> <Gold.Rescore>
     Score         DG    S(hbond)    S(metal)    S(lipo)     H(rot)  DE(clash)    DE(int)     intcor
     17.25     -18.30       2.83        0.00      62.05       1.52       0.01       1.04       ----

> <Gold.Chemscore.Fitness>
17.2456

> <Gold.Chemscore.DG>
-18.2954

> <Gold.Chemscore.ZeroCoef>
-5.4800

> <Gold.Chemscore.Hbond>
2.8318

> <Gold.Chemscore.Metal>
0.0000

> <Gold.Chemscore.Lipo>
62.0457

> <Gold.Chemscore.Internal_Hbond>
0.0000

> <Gold.Chemscore.DEClash>
0.0089

> <Gold.Chemscore.DEInternal>
1.0408

> <Gold.Chemscore.Rot>
1.5243

> <Gold.Chemscore.Internal.Correction>
   9.000000E+99

> <Gold.Chemscore.Hbonds>
donor molecule, donor type, donor heavy atom, donor atom, acceptor molecule, acceptor atom, score
      P1  H  6896  6909       L1    13  0.15
      P1  H  7989  7998       L1     4  0.04

> <Gold.Chemscore.Hbond.Weighted>
-9.4583

> <Gold.Chemscore.Metal.Weighted>
-0.0000

> <Gold.Chemscore.Lipo.Weighted>
-7.2593

> <Gold.Chemscore.Internal_Hbond.Weighted>
0.0000

> <Gold.Chemscore.DEClash.Weighted>
0.0089

> <Gold.Chemscore.DEInternal.Weighted>
1.0408

> <Gold.Chemscore.Rot.Weighted>
3.9022

> <Gold.Chemscore.Internal.Correction.Weighted>
   9.000000E+99

> <Gold.Protein.RotatedTorsions>
[ 6907 6896 6895 6894 ] final   37.74 input  -60.11 | X-H torsion
[ 7974 7965 7964 7962 ] final  164.75 input  175.53 | X-H torsion
[ 8008 7997 7996 7995 ] final -176.92 input   59.86 | X-H torsion
[ 10167 10162 10161 10158 ] final  -43.06 input  -65.29 | X-H torsion
[ 10718 10713 10712 10709 ] final -151.87 input   66.30 | X-H torsion
[ 10763 10752 10751 10750 ] final   99.51 input  -60.55 | X-H torsion
[ 11005 11000 10999 10996 ] final  123.96 input  -57.11 | X-H torsion

> <Gold.Protein.ActiveResidues>
 VAL166  LYS551  ARG553  GLY616  TRP617  ASP618  TYR619  PRO620  LYS621  CYS622 
 ASP623  PHE694  ASN695  SER759  ASP760  ASP761  ALA762  ILE779  LEU786  VAL792 
 PHE793  MET794  SER795  GLU796  ALA797  LYS798  CYS799  TRP800  GLU811  SER814 

> <Gold.Protein.RotatedAtoms>
  152.1472  134.9017  160.0550 H   0  0  0  0  0  0  0  0  0  0  0  0  # atno 6907 bound_to 6896
  152.0062  133.3839  159.4210 H   0  0  0  0  0  0  0  0  0  0  0  0  # atno 6908 bound_to 6896
  150.6871  134.3702  159.5032 H   0  0  0  0  0  0  0  0  0  0  0  0  # atno 6909 bound_to 6896
  144.7532  139.8370  143.6359 H   0  0  0  0  0  0  0  0  0  0  0  0  # atno 7974 bound_to 7965
  156.0007  140.1220  157.0550 H   0  0  0  0  0  0  0  0  0  0  0  0  # atno 8008 bound_to 7997
  154.4241  140.1107  156.5762 H   0  0  0  0  0  0  0  0  0  0  0  0  # atno 8009 bound_to 7997
  155.6216  140.3472  155.4656 H   0  0  0  0  0  0  0  0  0  0  0  0  # atno 8010 bound_to 7997
  140.6947  143.3003  151.3298 H   0  0  0  0  0  0  0  0  0  0  0  0  # atno 10167 bound_to 10162
  156.4649  130.8231  151.2461 H   0  0  0  0  0  0  0  0  0  0  0  0  # atno 10718 bound_to 10713
  153.3024  135.4111  155.1264 H   0  0  0  0  0  0  0  0  0  0  0  0  # atno 10763 bound_to 10752
  154.8553  135.3544  154.5834 H   0  0  0  0  0  0  0  0  0  0  0  0  # atno 10764 bound_to 10752
  153.6260  135.7062  153.5351 H   0  0  0  0  0  0  0  0  0  0  0  0  # atno 10765 bound_to 10752
  139.9336  134.9640  156.8337 H   0  0  0  0  0  0  0  0  0  0  0  0  # atno 11005 bound_to 11000
  146.1509  139.4592  143.0049 LP  0  0  0  0  0  0  0  0  0  0  0  0  # atno 17320 bound_to 7965
  145.6871  141.0175  143.1575 LP  0  0  0  0  0  0  0  0  0  0  0  0  # atno 17321 bound_to 7965
  139.6389  144.0577  152.2538 LP  0  0  0  0  0  0  0  0  0  0  0  0  # atno 17342 bound_to 10162
  140.0076  144.6247  150.7675 LP  0  0  0  0  0  0  0  0  0  0  0  0  # atno 17343 bound_to 10162
  157.7495  131.0095  150.3270 LP  0  0  0  0  0  0  0  0  0  0  0  0  # atno 17370 bound_to 10713
  156.3678  130.3858  149.7199 LP  0  0  0  0  0  0  0  0  0  0  0  0  # atno 17371 bound_to 10713
  140.6135  134.0060  155.7587 LP  0  0  0  0  0  0  0  0  0  0  0  0  # atno 17394 bound_to 11000
  141.0938  133.9875  157.3193 LP  0  0  0  0  0  0  0  0  0  0  0  0  # atno 17395 bound_to 11000

$$$$
