AV-unprocessed.smi:148|AV-procd|sdf|1215|dock4
  -GOLD-   2262018393D 1   1.00000     0.00000
 Structure written by MMmdl.
 63 67  0  0  0  0  0  0  0  0  1 V2000
  149.8101  140.4266  153.5653 O   0  0  0  0  0  0  0  0  0  0  0  0
  149.0651  139.7849  154.5794 C   0  0  0  0  0  0  0  0  0  0  0  0
  149.9711  139.4347  155.7831 C   0  0  1  0  0  0  0  0  0  0  0  0
  150.5648  138.0136  155.6147 C   0  0  0  0  0  0  0  0  0  0  0  0
  150.2292  137.1142  156.7047 N   0  0  0  0  0  0  0  0  0  0  0  0
  150.9765  136.8702  157.8345 C   0  0  0  0  0  0  0  0  0  0  0  0
  150.4514  136.0206  158.6745 N   0  0  0  0  0  0  0  0  0  0  0  0
  149.2577  135.6406  158.0724 C   0  0  0  0  0  0  0  0  0  0  0  0
  148.1984  134.7565  158.4261 C   0  0  0  0  0  0  0  0  0  0  0  0
  148.1396  134.0299  159.5661 N   0  0  0  0  0  0  0  0  0  0  0  0
  148.4042  132.6240  159.2565 C   0  0  0  0  0  0  0  0  0  0  0  0
  148.5782  131.7859  160.5293 C   0  0  0  0  0  0  0  0  0  0  0  0
  147.3607  131.9485  161.4443 C   0  0  0  0  0  0  0  0  0  0  0  0
  147.1458  133.4340  161.7602 C   0  0  0  0  0  0  0  0  0  0  0  0
  146.9970  134.2786  160.4652 C   0  0  1  0  0  0  0  0  0  0  0  0
  146.7453  135.7942  160.7492 C   0  0  1  0  0  0  0  0  0  0  0  0
  145.3483  136.0864  161.3382 C   0  0  0  0  0  0  0  0  0  0  0  0
  145.5847  136.6443  162.7422 C   0  0  0  0  0  0  0  0  0  0  0  0
  146.9174  137.3754  162.6240 C   0  0  0  0  0  0  0  0  0  0  0  0
  147.7523  136.4717  161.7131 C   0  0  2  0  0  0  0  0  0  0  0  0
  148.7279  137.2280  161.0264 O   0  0  0  0  0  0  0  0  0  0  0  0
  147.1464  134.6541  157.5766 N   0  0  0  0  0  0  0  0  0  0  0  0
  147.1367  135.3511  156.4364 C   0  0  0  0  0  0  0  0  0  0  0  0
  148.0542  136.2004  155.9690 N   0  0  0  0  0  0  0  0  0  0  0  0
  149.1044  136.3192  156.8309 C   0  0  0  0  0  0  0  0  0  0  0  0
  151.0593  140.5067  156.0715 C   0  0  2  0  0  0  0  0  0  0  0  0
  152.0539  140.1609  157.1810 C   0  0  0  0  0  0  0  0  0  0  0  0
  152.1104  141.4243  158.0414 C   0  0  0  0  0  0  0  0  0  0  0  0
  151.6261  142.4511  157.1902 O   0  0  0  0  0  0  0  0  0  0  0  0
  150.5431  141.8963  156.4637 C   0  0  0  0  0  0  0  0  0  0  0  0
  149.5094  140.1132  152.7260 H   0  0  0  0  0  0  0  0  0  0  0  0
  148.2465  140.4392  154.8800 H   0  0  0  0  0  0  0  0  0  0  0  0
  148.6142  138.8957  154.1413 H   0  0  0  0  0  0  0  0  0  0  0  0
  149.3327  139.4149  156.6680 H   0  0  0  0  0  0  0  0  0  0  0  0
  150.2101  137.5576  154.6897 H   0  0  0  0  0  0  0  0  0  0  0  0
  151.6512  138.0672  155.5344 H   0  0  0  0  0  0  0  0  0  0  0  0
  151.9249  137.3523  158.0227 H   0  0  0  0  0  0  0  0  0  0  0  0
  147.5791  132.2248  158.6643 H   0  0  0  0  0  0  0  0  0  0  0  0
  149.3032  132.5381  158.6438 H   0  0  0  0  0  0  0  0  0  0  0  0
  148.7158  130.7361  160.2693 H   0  0  0  0  0  0  0  0  0  0  0  0
  149.4812  132.0989  161.0553 H   0  0  0  0  0  0  0  0  0  0  0  0
  146.4733  131.5400  160.9591 H   0  0  0  0  0  0  0  0  0  0  0  0
  147.5036  131.3837  162.3659 H   0  0  0  0  0  0  0  0  0  0  0  0
  146.2657  133.5328  162.3941 H   0  0  0  0  0  0  0  0  0  0  0  0
  147.9887  133.7802  162.3562 H   0  0  0  0  0  0  0  0  0  0  0  0
  146.1101  133.8998  159.9571 H   0  0  0  0  0  0  0  0  0  0  0  0
  146.7655  136.3315  159.8002 H   0  0  0  0  0  0  0  0  0  0  0  0
  144.8581  136.8505  160.7331 H   0  0  0  0  0  0  0  0  0  0  0  0
  144.6821  135.2237  161.3412 H   0  0  0  0  0  0  0  0  0  0  0  0
  144.7762  137.2948  163.0772 H   0  0  0  0  0  0  0  0  0  0  0  0
  145.6746  135.8254  163.4572 H   0  0  0  0  0  0  0  0  0  0  0  0
  146.7530  138.3461  162.1526 H   0  0  0  0  0  0  0  0  0  0  0  0
  147.3909  137.5504  163.5904 H   0  0  0  0  0  0  0  0  0  0  0  0
  148.2698  135.7371  162.3268 H   0  0  0  0  0  0  0  0  0  0  0  0
  149.4213  136.6456  160.7534 H   0  0  0  0  0  0  0  0  0  0  0  0
  146.2683  135.2102  155.8098 H   0  0  0  0  0  0  0  0  0  0  0  0
  151.6677  140.6375  155.1762 H   0  0  0  0  0  0  0  0  0  0  0  0
  151.7748  139.2891  157.7721 H   0  0  0  0  0  0  0  0  0  0  0  0
  153.0329  139.9519  156.7476 H   0  0  0  0  0  0  0  0  0  0  0  0
  151.4492  141.3315  158.9045 H   0  0  0  0  0  0  0  0  0  0  0  0
  153.1154  141.6432  158.4029 H   0  0  0  0  0  0  0  0  0  0  0  0
  150.2871  142.5082  155.5985 H   0  0  0  0  0  0  0  0  0  0  0  0
  149.6717  141.8481  157.1168 H   0  0  0  0  0  0  0  0  0  0  0  0
  1  2  1  0  0  0  0
  1 31  1  0  0  0  0
  2  3  1  0  0  0  0
  2 32  1  0  0  0  0
  2 33  1  0  0  0  0
  3  4  1  0  0  0  0
  3 26  1  0  0  0  0
  3 34  1  0  0  0  0
  4  5  1  0  0  0  0
  4 35  1  0  0  0  0
  4 36  1  0  0  0  0
  5 25  1  0  0  0  0
  5  6  1  0  0  0  0
  6  7  2  0  0  0  0
  6 37  1  0  0  0  0
  7  8  1  0  0  0  0
  8 25  2  0  0  0  0
  8  9  1  0  0  0  0
  9 10  1  0  0  0  0
  9 22  2  0  0  0  0
 10 15  1  0  0  0  0
 10 11  1  0  0  0  0
 11 12  1  0  0  0  0
 11 38  1  0  0  0  0
 11 39  1  0  0  0  0
 12 13  1  0  0  0  0
 12 40  1  0  0  0  0
 12 41  1  0  0  0  0
 13 14  1  0  0  0  0
 13 42  1  0  0  0  0
 13 43  1  0  0  0  0
 14 15  1  0  0  0  0
 14 44  1  0  0  0  0
 14 45  1  0  0  0  0
 15 16  1  0  0  0  0
 15 46  1  0  0  0  0
 16 20  1  0  0  0  0
 16 17  1  0  0  0  0
 16 47  1  0  0  0  0
 17 18  1  0  0  0  0
 17 48  1  0  0  0  0
 17 49  1  0  0  0  0
 18 19  1  0  0  0  0
 18 50  1  0  0  0  0
 18 51  1  0  0  0  0
 19 20  1  0  0  0  0
 19 52  1  0  0  0  0
 19 53  1  0  0  0  0
 20 21  1  0  0  0  0
 20 54  1  0  0  0  0
 21 55  1  0  0  0  0
 22 23  1  0  0  0  0
 23 24  2  0  0  0  0
 23 56  1  0  0  0  0
 24 25  1  0  0  0  0
 26 30  1  0  0  0  0
 26 27  1  0  0  0  0
 26 57  1  0  0  0  0
 27 28  1  0  0  0  0
 27 58  1  0  0  0  0
 27 59  1  0  0  0  0
 28 29  1  0  0  0  0
 28 60  1  0  0  0  0
 28 61  1  0  0  0  0
 29 30  1  0  0  0  0
 30 62  1  0  0  0  0
 30 63  1  0  0  0  0
M  END
> <s_m_source_file>
AV-unprocessed.smi

> <i_m_source_file_index>
148

> <i_lp_mmshare_version>
43012

> <i_f3d_flags>
0

> <s_epik_input>
W0NIMl0xT1tDSDJdW0NIMl1bQ0BIXTFbQ0BIXShbQ0gyXVtPSF0pW0NIMl1uKFtjSF1uMiljKGMyMyluW2NIXW5jM040W0NIMl1bQ0gyXVtDSDJdW0NIMl1bQ0BIXTRbQ0BASF01W0NIMl1bQ0gyXVtDSDJdW0NASF01W09IXQ==

> <s_epik_cmdline>
J2VwaWtfcHl0aG9uJywgJy1waCcsICc3LjAnLCAnLXRuJywgJzgnLCAnLW1hJywgJzIwMCcsICctbWV0YWxfYmluZGluZycsICctaW1hZScsICc8aW5maWxlLm1hZT4nLCAnLW9tYWUnLCAnPG91dGZpbGUubWFlPic=

> <r_lp_tautomer_probability>
1

> <r_epik_Ionization_Penalty>
0.00556303

> <r_epik_Ionization_Penalty_Charging>
0

> <r_epik_Ionization_Penalty_Neutral>
0.00556303

> <r_epik_State_Penalty>
0.00401767

> <r_epik_Charging_Adjusted_Penalty>
0.00401767

> <i_epik_Tot_Q>
0

> <i_epik_Tot_abs_Q>
0

> <r_epik_Metal_State_Penalty>
-0

> <b_epik_Metal_Only>
0

> <s_lp_Force_Field>
OPLS_2005

> <r_lp_Energy>
68.8828

> <b_lp_Chiralities_Consistent>
1

> <s_lp_Variant>
AV-unprocessed.smi:148-14

> <Gold.Version>
5.8.1

> <Gold.Id.Protein>
6NUR|6NUR_protein|mol2

> <Gold.PLP.Fitness>
43.5911

> <Gold.PLP.PLP>
-35.0019

> <Gold.PLP.part.hbond>
-4.9466

> <Gold.PLP.part.metal>
0.0000

> <Gold.PLP.part.buried>
-4.8430

> <Gold.PLP.part.nonpolar>
-26.1163

> <Gold.PLP.part.repulsive>
0.1190

> <Gold.PLP.ligand.clash>
0.0000

> <Gold.PLP.ligand.torsion>
1.8049

> <Gold.PLP.Chemscore.Hbond>
3.9503

> <Gold.PLP.Chemscore.CHOScore>
0.0000

> <Gold.PLP.Chemscore.Metal>
0.0000

> <Gold.Chemscore.Hbonds>
donor molecule, donor type, donor heavy atom, donor atom, acceptor molecule, acceptor atom, score
      L1  H     1    31       P1  7957  1.00
      P1  H  6896  6909       L1     7  0.88
      P1  H  6931  6943       L1    21  0.56
      P1  H  6934  6947       L1    21  0.04
      P1  H  7989  7998       L1     1  0.53

> <Gold.PLP.Chemscore.Internal.Correction>
0.3483

> <Gold.Rescore>
     Score         DG    S(hbond)    S(metal)    S(lipo)     H(rot)  DE(clash)    DE(int)     intcor
     15.47     -17.52       2.85        0.00      94.25       3.32       0.00       2.05       ----

> <Gold.Chemscore.Fitness>
15.4715

> <Gold.Chemscore.DG>
-17.5189

> <Gold.Chemscore.ZeroCoef>
-5.4800

> <Gold.Chemscore.Hbond>
2.8477

> <Gold.Chemscore.Metal>
0.0000

> <Gold.Chemscore.Lipo>
94.2514

> <Gold.Chemscore.Internal_Hbond>
0.0000

> <Gold.Chemscore.DEClash>
0.0000

> <Gold.Chemscore.DEInternal>
2.0474

> <Gold.Chemscore.Rot>
3.3203

> <Gold.Chemscore.Internal.Correction>
   9.000000E+99

> <Gold.Chemscore.Hbonds>
donor molecule, donor type, donor heavy atom, donor atom, acceptor molecule, acceptor atom, score
      L1  H     1    31       P1  7957  0.92
      P1  H  6896  6909       L1     7  0.34
      P1  H  6931  6943       L1    21  0.26
      P1  H  7989  7998       L1     1  0.40

> <Gold.Chemscore.Hbond.Weighted>
-9.5114

> <Gold.Chemscore.Metal.Weighted>
-0.0000

> <Gold.Chemscore.Lipo.Weighted>
-11.0274

> <Gold.Chemscore.Internal_Hbond.Weighted>
0.0000

> <Gold.Chemscore.DEClash.Weighted>
0.0000

> <Gold.Chemscore.DEInternal.Weighted>
2.0474

> <Gold.Chemscore.Rot.Weighted>
8.5000

> <Gold.Chemscore.Internal.Correction.Weighted>
   9.000000E+99

> <Gold.Protein.RotatedTorsions>
[ 6907 6896 6895 6894 ] final   62.27 input  -60.11 | X-H torsion
[ 7974 7965 7964 7962 ] final    3.28 input  175.53 | X-H torsion
[ 8008 7997 7996 7995 ] final -110.68 input   59.86 | X-H torsion
[ 10167 10162 10161 10158 ] final -133.99 input  -65.29 | X-H torsion
[ 10718 10713 10712 10709 ] final -127.17 input   66.30 | X-H torsion
[ 10763 10752 10751 10750 ] final   30.72 input  -60.55 | X-H torsion
[ 11005 11000 10999 10996 ] final -134.55 input  -57.11 | X-H torsion

> <Gold.Protein.ActiveResidues>
 VAL166  LYS551  ARG553  GLY616  TRP617  ASP618  TYR619  PRO620  LYS621  CYS622 
 ASP623  PHE694  ASN695  SER759  ASP760  ASP761  ALA762  ILE779  LEU786  VAL792 
 PHE793  MET794  SER795  GLU796  ALA797  LYS798  CYS799  TRP800  GLU811  SER814 

> <Gold.Protein.RotatedAtoms>
  152.4158  134.6043  160.0008 H   0  0  0  0  0  0  0  0  0  0  0  0  # atno 6907 bound_to 6896
  151.6207  133.3334  159.3095 H   0  0  0  0  0  0  0  0  0  0  0  0  # atno 6908 bound_to 6896
  150.8047  134.7204  159.6699 H   0  0  0  0  0  0  0  0  0  0  0  0  # atno 6909 bound_to 6896
  146.2445  140.0710  142.8362 H   0  0  0  0  0  0  0  0  0  0  0  0  # atno 7974 bound_to 7965
  154.9782  140.0396  157.2266 H   0  0  0  0  0  0  0  0  0  0  0  0  # atno 8008 bound_to 7997
  154.7738  140.2806  155.6094 H   0  0  0  0  0  0  0  0  0  0  0  0  # atno 8009 bound_to 7997
  156.2925  140.2605  156.2547 H   0  0  0  0  0  0  0  0  0  0  0  0  # atno 8010 bound_to 7997
  139.8926  143.6704  152.2609 H   0  0  0  0  0  0  0  0  0  0  0  0  # atno 10167 bound_to 10162
  156.1832  130.6746  151.0331 H   0  0  0  0  0  0  0  0  0  0  0  0  # atno 10718 bound_to 10713
  153.0356  135.6457  154.1088 H   0  0  0  0  0  0  0  0  0  0  0  0  # atno 10763 bound_to 10752
  154.0803  135.2874  155.3293 H   0  0  0  0  0  0  0  0  0  0  0  0  # atno 10764 bound_to 10752
  154.6534  135.5417  153.7994 H   0  0  0  0  0  0  0  0  0  0  0  0  # atno 10765 bound_to 10752
  140.8979  134.1728  157.4481 H   0  0  0  0  0  0  0  0  0  0  0  0  # atno 11005 bound_to 11000
  145.0816  140.9225  143.4822 LP  0  0  0  0  0  0  0  0  0  0  0  0  # atno 17320 bound_to 7965
  145.0864  139.2922  143.5757 LP  0  0  0  0  0  0  0  0  0  0  0  0  # atno 17321 bound_to 7965
  139.7096  144.7622  151.1135 LP  0  0  0  0  0  0  0  0  0  0  0  0  # atno 17342 bound_to 10162
  140.7723  143.5349  150.9380 LP  0  0  0  0  0  0  0  0  0  0  0  0  # atno 17343 bound_to 10162
  157.6882  131.0818  150.7184 LP  0  0  0  0  0  0  0  0  0  0  0  0  # atno 17370 bound_to 10713
  156.7241  130.4689  149.5515 LP  0  0  0  0  0  0  0  0  0  0  0  0  # atno 17371 bound_to 10713
  139.8738  134.9886  156.5419 LP  0  0  0  0  0  0  0  0  0  0  0  0  # atno 17394 bound_to 11000
  140.8266  133.8312  155.8945 LP  0  0  0  0  0  0  0  0  0  0  0  0  # atno 17395 bound_to 11000

$$$$
