AV-unprocessed.smi:1460|AV-procd|sdf|5929|dock6
  -GOLD-   22720 6 13D 1   1.00000     0.00000
 Structure written by MMmdl.
 41 42  0  0  0  0  0  0  0  0  1 V2000
  151.7479  144.2303  157.9850 C   0  0  0  0  0  0  0  0  0  0  0  0
  151.6669  142.7225  157.7121 C   0  0  1  0  0  0  0  0  0  0  0  0
  151.2122  141.9481  158.9683 C   0  0  0  0  0  0  0  0  0  0  0  0
  152.1992  141.9740  160.0335 N   0  0  0  0  0  0  0  0  0  0  0  0
  152.2767  142.8325  161.1104 C   0  0  0  0  0  0  0  0  0  0  0  0
  153.3598  142.4567  161.8519 C   0  0  0  0  0  0  0  0  0  0  0  0
  153.8908  141.3476  161.1357 C   0  0  0  0  0  0  0  0  0  0  0  0
  153.1966  141.0638  160.0457 N   0  0  0  0  0  0  0  0  0  0  0  0
  150.7486  142.4912  156.5974 N   0  0  0  0  0  0  0  0  0  0  0  0
  150.5312  141.3125  155.9917 C   0  0  0  0  0  0  0  0  0  0  0  0
  151.1173  140.2741  156.2996 O   0  0  0  0  0  0  0  0  0  0  0  0
  149.4744  141.3009  154.8807 C   0  0  0  0  0  0  0  0  0  0  0  0
  148.1314  141.8698  155.3957 C   0  0  0  0  0  0  0  0  0  0  0  0
  147.0277  141.7395  154.3302 C   0  0  0  0  0  0  0  0  0  0  0  0
  146.9043  140.3239  153.9438 N   0  0  0  0  0  0  0  0  0  0  0  0
  145.9047  139.4798  154.3040 C   0  0  0  0  0  0  0  0  0  0  0  0
  144.8566  140.0572  154.8998 N   0  0  0  0  0  0  0  0  0  0  0  0
  145.9137  138.2714  154.0749 O   0  0  0  0  0  0  0  0  0  0  0  0
  148.1275  139.8419  153.2904 C   0  0  0  0  0  0  0  0  0  0  0  0
  149.2850  139.8786  154.3042 C   0  0  0  0  0  0  0  0  0  0  0  0
  152.4479  144.4445  158.7931 H   0  0  0  0  0  0  0  0  0  0  0  0
  150.7770  144.6368  158.2698 H   0  0  0  0  0  0  0  0  0  0  0  0
  152.0908  144.7715  157.1025 H   0  0  0  0  0  0  0  0  0  0  0  0
  152.6711  142.3923  157.4393 H   0  0  0  0  0  0  0  0  0  0  0  0
  150.2865  142.3748  159.3574 H   0  0  0  0  0  0  0  0  0  0  0  0
  150.9931  140.9088  158.7197 H   0  0  0  0  0  0  0  0  0  0  0  0
  151.5575  143.6236  161.2622 H   0  0  0  0  0  0  0  0  0  0  0  0
  153.7173  142.9036  162.7675 H   0  0  0  0  0  0  0  0  0  0  0  0
  154.7544  140.7446  161.3735 H   0  0  0  0  0  0  0  0  0  0  0  0
  150.2215  143.2892  156.2734 H   0  0  0  0  0  0  0  0  0  0  0  0
  149.8179  141.9444  154.0687 H   0  0  0  0  0  0  0  0  0  0  0  0
  147.8180  141.3457  156.3002 H   0  0  0  0  0  0  0  0  0  0  0  0
  148.2518  142.9178  155.6734 H   0  0  0  0  0  0  0  0  0  0  0  0
  146.1031  142.1777  154.7055 H   0  0  0  0  0  0  0  0  0  0  0  0
  147.2894  142.3284  153.4499 H   0  0  0  0  0  0  0  0  0  0  0  0
  144.0737  139.4945  155.1981 H   0  0  0  0  0  0  0  0  0  0  0  0
  144.8553  141.0556  155.0495 H   0  0  0  0  0  0  0  0  0  0  0  0
  148.0184  138.8348  152.8852 H   0  0  0  0  0  0  0  0  0  0  0  0
  148.3565  140.4798  152.4353 H   0  0  0  0  0  0  0  0  0  0  0  0
  150.2051  139.5442  153.8231 H   0  0  0  0  0  0  0  0  0  0  0  0
  149.0791  139.1664  155.1050 H   0  0  0  0  0  0  0  0  0  0  0  0
  1  2  1  0  0  0  0
  1 21  1  0  0  0  0
  1 22  1  0  0  0  0
  1 23  1  0  0  0  0
  2  3  1  0  0  0  0
  2  9  1  0  0  0  0
  2 24  1  0  0  0  0
  3  4  1  0  0  0  0
  3 25  1  0  0  0  0
  3 26  1  0  0  0  0
  4  8  1  0  0  0  0
  4  5  1  0  0  0  0
  5  6  2  0  0  0  0
  5 27  1  0  0  0  0
  6  7  1  0  0  0  0
  6 28  1  0  0  0  0
  7  8  2  0  0  0  0
  7 29  1  0  0  0  0
  9 10  1  0  0  0  0
  9 30  1  0  0  0  0
 10 11  2  0  0  0  0
 10 12  1  0  0  0  0
 12 20  1  0  0  0  0
 12 13  1  0  0  0  0
 12 31  1  0  0  0  0
 13 14  1  0  0  0  0
 13 32  1  0  0  0  0
 13 33  1  0  0  0  0
 14 15  1  0  0  0  0
 14 34  1  0  0  0  0
 14 35  1  0  0  0  0
 15 16  1  0  0  0  0
 15 19  1  0  0  0  0
 16 17  1  0  0  0  0
 16 18  2  0  0  0  0
 17 36  1  0  0  0  0
 17 37  1  0  0  0  0
 19 20  1  0  0  0  0
 19 38  1  0  0  0  0
 19 39  1  0  0  0  0
 20 40  1  0  0  0  0
 20 41  1  0  0  0  0
M  END
> <s_m_source_file>
AV-unprocessed.smi

> <i_m_source_file_index>
1460

> <i_lp_mmshare_version>
43012

> <i_f3d_flags>
0

> <s_epik_input>
bjFbY0hdW2NIXVtjSF1uMVtDSDJdW0NAQEhdKFtDSDNdKVtOSF1DKD1PKVtDSF0yW0NIMl1bQ0gyXU4oQyg9TylbTkgyXSlbQ0gyXVtDSDJdMg==

> <s_epik_cmdline>
J2VwaWtfcHl0aG9uJywgJy1waCcsICc3LjAnLCAnLXRuJywgJzgnLCAnLW1hJywgJzIwMCcsICctbWV0YWxfYmluZGluZycsICctaW1hZScsICc8aW5maWxlLm1hZT4nLCAnLW9tYWUnLCAnPG91dGZpbGUubWFlPic=

> <r_lp_tautomer_probability>
1

> <r_epik_Ionization_Penalty>
0.000387527

> <r_epik_Ionization_Penalty_Charging>
0

> <r_epik_Ionization_Penalty_Neutral>
0.000387527

> <r_epik_State_Penalty>
-0

> <r_epik_Charging_Adjusted_Penalty>
0

> <i_epik_Tot_Q>
0

> <i_epik_Tot_abs_Q>
0

> <r_epik_Metal_State_Penalty>
-0

> <b_epik_Metal_Only>
0

> <s_lp_Force_Field>
OPLS_2005

> <r_lp_Energy>
25.9922

> <b_lp_Chiralities_Consistent>
1

> <s_lp_Variant>
AV-unprocessed.smi:1460-2

> <Gold.Version>
5.8.1

> <Gold.Id.Protein>
6NUR|6NUR_protein|mol2

> <Gold.PLP.Fitness>
40.3936

> <Gold.PLP.PLP>
-38.2726

> <Gold.PLP.part.hbond>
-2.0000

> <Gold.PLP.part.metal>
0.0000

> <Gold.PLP.part.buried>
0.8058

> <Gold.PLP.part.nonpolar>
-36.0780

> <Gold.PLP.part.repulsive>
0.1858

> <Gold.PLP.ligand.clash>
0.0000

> <Gold.PLP.ligand.torsion>
0.4716

> <Gold.PLP.Chemscore.Hbond>
1.0000

> <Gold.PLP.Chemscore.CHOScore>
0.0000

> <Gold.PLP.Chemscore.Metal>
0.0000

> <Gold.Chemscore.Hbonds>
donor molecule, donor type, donor heavy atom, donor atom, acceptor molecule, acceptor atom, score
      L1  H     9    30       P1  8028  0.96

> <Gold.PLP.Chemscore.Internal.Correction>
0.0641

> <Gold.Rescore>
     Score         DG    S(hbond)    S(metal)    S(lipo)     H(rot)  DE(clash)    DE(int)     intcor
     14.10     -15.07       1.00        0.00      93.36       1.82       0.40       0.57       ----

> <Gold.Chemscore.Fitness>
14.1033

> <Gold.Chemscore.DG>
-15.0720

> <Gold.Chemscore.ZeroCoef>
-5.4800

> <Gold.Chemscore.Hbond>
0.9970

> <Gold.Chemscore.Metal>
0.0000

> <Gold.Chemscore.Lipo>
93.3570

> <Gold.Chemscore.Internal_Hbond>
0.0000

> <Gold.Chemscore.DEClash>
0.3963

> <Gold.Chemscore.DEInternal>
0.5724

> <Gold.Chemscore.Rot>
1.8206

> <Gold.Chemscore.Internal.Correction>
   9.000000E+99

> <Gold.Chemscore.Hbonds>
donor molecule, donor type, donor heavy atom, donor atom, acceptor molecule, acceptor atom, score
      L1  H     9    30       P1  8028  0.91

> <Gold.Chemscore.Hbond.Weighted>
-3.3299

> <Gold.Chemscore.Metal.Weighted>
-0.0000

> <Gold.Chemscore.Lipo.Weighted>
-10.9228

> <Gold.Chemscore.Internal_Hbond.Weighted>
0.0000

> <Gold.Chemscore.DEClash.Weighted>
0.3963

> <Gold.Chemscore.DEInternal.Weighted>
0.5724

> <Gold.Chemscore.Rot.Weighted>
4.6607

> <Gold.Chemscore.Internal.Correction.Weighted>
   9.000000E+99

> <Gold.Protein.RotatedTorsions>
[ 6907 6896 6895 6894 ] final  165.53 input  -60.11 | X-H torsion
[ 7974 7965 7964 7962 ] final  -69.11 input  175.53 | X-H torsion
[ 8008 7997 7996 7995 ] final  123.83 input   59.86 | X-H torsion
[ 10167 10162 10161 10158 ] final -170.83 input  -65.29 | X-H torsion
[ 10718 10713 10712 10709 ] final -177.76 input   66.30 | X-H torsion
[ 10763 10752 10751 10750 ] final -130.85 input  -60.55 | X-H torsion
[ 11005 11000 10999 10996 ] final -142.74 input  -57.11 | X-H torsion

> <Gold.Protein.ActiveResidues>
 VAL166  LYS551  ARG553  GLY616  TRP617  ASP618  TYR619  PRO620  LYS621  CYS622 
 ASP623  PHE694  ASN695  SER759  ASP760  ASP761  ALA762  ILE779  LEU786  VAL792 
 PHE793  MET794  SER795  GLU796  ALA797  LYS798  CYS799  TRP800  GLU811  SER814 

> <Gold.Protein.RotatedAtoms>
  151.8930  133.3520  159.3804 H   0  0  0  0  0  0  0  0  0  0  0  0  # atno 6907 bound_to 6896
  150.7098  134.4904  159.5522 H   0  0  0  0  0  0  0  0  0  0  0  0  # atno 6908 bound_to 6896
  152.2478  134.8164  160.0501 H   0  0  0  0  0  0  0  0  0  0  0  0  # atno 6909 bound_to 6896
  145.7080  140.9090  143.0696 H   0  0  0  0  0  0  0  0  0  0  0  0  # atno 7974 bound_to 7965
  156.2780  140.2753  156.1691 H   0  0  0  0  0  0  0  0  0  0  0  0  # atno 8008 bound_to 7997
  155.0673  140.0387  157.2615 H   0  0  0  0  0  0  0  0  0  0  0  0  # atno 8009 bound_to 7997
  154.7068  140.2660  155.6672 H   0  0  0  0  0  0  0  0  0  0  0  0  # atno 8010 bound_to 7997
  139.5838  144.1363  152.1550 H   0  0  0  0  0  0  0  0  0  0  0  0  # atno 10167 bound_to 10162
  156.8342  130.9664  151.3104 H   0  0  0  0  0  0  0  0  0  0  0  0  # atno 10718 bound_to 10713
  154.8754  135.3849  154.4150 H   0  0  0  0  0  0  0  0  0  0  0  0  # atno 10763 bound_to 10752
  153.4860  135.7030  153.5916 H   0  0  0  0  0  0  0  0  0  0  0  0  # atno 10764 bound_to 10752
  153.4311  135.3878  155.2138 H   0  0  0  0  0  0  0  0  0  0  0  0  # atno 10765 bound_to 10752
  140.8195  134.2648  157.4906 H   0  0  0  0  0  0  0  0  0  0  0  0  # atno 11005 bound_to 11000
  144.6950  139.9036  143.7460 LP  0  0  0  0  0  0  0  0  0  0  0  0  # atno 17320 bound_to 7965
  146.0738  139.3727  143.0506 LP  0  0  0  0  0  0  0  0  0  0  0  0  # atno 17321 bound_to 7965
  140.0922  144.5611  150.7046 LP  0  0  0  0  0  0  0  0  0  0  0  0  # atno 17342 bound_to 10162
  140.7113  143.2507  151.4572 LP  0  0  0  0  0  0  0  0  0  0  0  0  # atno 17343 bound_to 10162
  157.6390  130.8790  149.9413 LP  0  0  0  0  0  0  0  0  0  0  0  0  # atno 17370 bound_to 10713
  156.0917  130.3663  150.0383 LP  0  0  0  0  0  0  0  0  0  0  0  0  # atno 17371 bound_to 10713
  139.8709  134.9527  156.4124 LP  0  0  0  0  0  0  0  0  0  0  0  0  # atno 17394 bound_to 11000
  140.9114  133.7709  155.9796 LP  0  0  0  0  0  0  0  0  0  0  0  0  # atno 17395 bound_to 11000

$$$$
