AV-unprocessed.smi:2572|AV-procd|sdf|10110|dock9
  -GOLD-   2272014123D 1   1.00000     0.00000
 Structure written by MMmdl.
 38 39  0  0  0  0  0  0  0  0  1 V2000
  150.1247  134.3544  155.0769 C   0  0  0  0  0  0  0  0  0  0  0  0
  149.3432  135.3668  155.7081 O   0  0  0  0  0  0  0  0  0  0  0  0
  149.6296  136.6785  155.3722 C   0  0  0  0  0  0  0  0  0  0  0  0
  148.6046  137.4592  154.7122 C   0  0  0  0  0  0  0  0  0  0  0  0
  148.8693  138.7416  154.3813 C   0  0  0  0  0  0  0  0  0  0  0  0
  150.1609  139.3622  154.6735 C   0  0  0  0  0  0  0  0  0  0  0  0
  150.4254  140.5303  154.3897 O   0  0  0  0  0  0  0  0  0  0  0  0
  151.0466  138.5259  155.2922 N   0  0  0  0  0  0  0  0  0  0  0  0
  152.3888  138.9835  155.6712 C   0  0  0  0  0  0  0  0  0  0  0  0
  152.5174  139.1976  157.1951 C   0  0  2  0  0  0  0  0  0  0  0  0
  151.6849  138.2659  157.8585 O   0  0  0  0  0  0  0  0  0  0  0  0
  152.0706  140.6115  157.6115 C   0  0  0  0  0  0  0  0  0  0  0  0
  152.4222  140.9618  159.0672 C   0  0  0  0  0  0  0  0  0  0  0  0
  152.2601  142.4429  159.3516 C   0  0  0  0  0  0  0  0  0  0  0  0
  151.9624  143.3378  158.3022 C   0  0  0  0  0  0  0  0  0  0  0  0
  151.8035  144.7120  158.5683 C   0  0  0  0  0  0  0  0  0  0  0  0
  151.9406  145.1955  159.8841 C   0  0  0  0  0  0  0  0  0  0  0  0
  152.2382  144.3048  160.9337 C   0  0  0  0  0  0  0  0  0  0  0  0
  152.3981  142.9308  160.6681 C   0  0  0  0  0  0  0  0  0  0  0  0
  150.7820  137.2100  155.6344 N   0  0  0  0  0  0  0  0  0  0  0  0
  149.7960  133.3782  155.4331 H   0  0  0  0  0  0  0  0  0  0  0  0
  151.1847  134.4489  155.3192 H   0  0  0  0  0  0  0  0  0  0  0  0
  150.0024  134.3633  153.9923 H   0  0  0  0  0  0  0  0  0  0  0  0
  147.6464  137.0122  154.4925 H   0  0  0  0  0  0  0  0  0  0  0  0
  148.1074  139.3268  153.8878 H   0  0  0  0  0  0  0  0  0  0  0  0
  153.0966  138.2148  155.3555 H   0  0  0  0  0  0  0  0  0  0  0  0
  152.6914  139.8778  155.1230 H   0  0  0  0  0  0  0  0  0  0  0  0
  153.5499  139.0431  157.5114 H   0  0  0  0  0  0  0  0  0  0  0  0
  150.7885  138.4293  157.6078 H   0  0  0  0  0  0  0  0  0  0  0  0
  152.5541  141.3403  156.9594 H   0  0  0  0  0  0  0  0  0  0  0  0
  150.9976  140.7257  157.4498 H   0  0  0  0  0  0  0  0  0  0  0  0
  151.7926  140.3990  159.7572 H   0  0  0  0  0  0  0  0  0  0  0  0
  153.4503  140.6692  159.2837 H   0  0  0  0  0  0  0  0  0  0  0  0
  151.8523  142.9725  157.2917 H   0  0  0  0  0  0  0  0  0  0  0  0
  151.5743  145.3946  157.7632 H   0  0  0  0  0  0  0  0  0  0  0  0
  151.8168  146.2490  160.0884 H   0  0  0  0  0  0  0  0  0  0  0  0
  152.3430  144.6750  161.9429 H   0  0  0  0  0  0  0  0  0  0  0  0
  152.6242  142.2522  161.4779 H   0  0  0  0  0  0  0  0  0  0  0  0
  1  2  1  0  0  0  0
  1 21  1  0  0  0  0
  1 22  1  0  0  0  0
  1 23  1  0  0  0  0
  2  3  1  0  0  0  0
  3 20  2  0  0  0  0
  3  4  1  0  0  0  0
  4  5  2  0  0  0  0
  4 24  1  0  0  0  0
  5  6  1  0  0  0  0
  5 25  1  0  0  0  0
  6  7  2  0  0  0  0
  6  8  1  0  0  0  0
  8  9  1  0  0  0  0
  8 20  1  0  0  0  0
  9 10  1  0  0  0  0
  9 26  1  0  0  0  0
  9 27  1  0  0  0  0
 10 11  1  0  0  0  0
 10 12  1  0  0  0  0
 10 28  1  0  0  0  0
 11 29  1  0  0  0  0
 12 13  1  0  0  0  0
 12 30  1  0  0  0  0
 12 31  1  0  0  0  0
 13 14  1  0  0  0  0
 13 32  1  0  0  0  0
 13 33  1  0  0  0  0
 14 19  1  0  0  0  0
 14 15  2  0  0  0  0
 15 16  1  0  0  0  0
 15 34  1  0  0  0  0
 16 17  2  0  0  0  0
 16 35  1  0  0  0  0
 17 18  1  0  0  0  0
 17 36  1  0  0  0  0
 18 19  2  0  0  0  0
 18 37  1  0  0  0  0
 19 38  1  0  0  0  0
M  END
> <s_m_source_file>
AV-unprocessed.smi

> <i_m_source_file_index>
2572

> <i_lp_mmshare_version>
43012

> <i_f3d_flags>
0

> <s_epik_input>
W0NIM11PYzFbY0hdW2NIXWMoPU8pbihuMSlbQ0gyXVtDQEhdKFtPSF0pW0NIMl1bQ0gyXWMyW2NIXVtjSF1bY0hdW2NIXVtjSF0y

> <s_epik_cmdline>
J2VwaWtfcHl0aG9uJywgJy1waCcsICc3LjAnLCAnLXRuJywgJzgnLCAnLW1hJywgJzIwMCcsICctbWV0YWxfYmluZGluZycsICctaW1hZScsICc8aW5maWxlLm1hZT4nLCAnLW9tYWUnLCAnPG91dGZpbGUubWFlPic=

> <r_lp_tautomer_probability>
1

> <r_epik_Ionization_Penalty>
8.48543e-06

> <r_epik_Ionization_Penalty_Charging>
6.90219e-06

> <r_epik_Ionization_Penalty_Neutral>
1.58323e-06

> <r_epik_State_Penalty>
-0

> <r_epik_Charging_Adjusted_Penalty>
6.90219e-06

> <i_epik_Tot_Q>
0

> <i_epik_Tot_abs_Q>
0

> <r_epik_Metal_State_Penalty>
-0

> <b_epik_Metal_Only>
0

> <s_lp_Force_Field>
OPLS_2005

> <r_lp_Energy>
29.9707

> <b_lp_Chiralities_Consistent>
1

> <s_lp_Variant>
AV-unprocessed.smi:2572-1

> <Gold.Version>
5.8.1

> <Gold.Id.Protein>
6NUR|6NUR_protein|mol2

> <Gold.PLP.Fitness>
42.4616

> <Gold.PLP.PLP>
-40.7975

> <Gold.PLP.part.hbond>
-0.8136

> <Gold.PLP.part.metal>
0.0000

> <Gold.PLP.part.buried>
-3.6644

> <Gold.PLP.part.nonpolar>
-35.8348

> <Gold.PLP.part.repulsive>
0.2606

> <Gold.PLP.ligand.clash>
0.0000

> <Gold.PLP.ligand.torsion>
0.6308

> <Gold.PLP.Chemscore.Hbond>
0.9600

> <Gold.PLP.Chemscore.CHOScore>
0.0000

> <Gold.PLP.Chemscore.Metal>
0.0000

> <Gold.Chemscore.Hbonds>
donor molecule, donor type, donor heavy atom, donor atom, acceptor molecule, acceptor atom, score
      P1  H  7989  7998       L1     7  0.94

> <Gold.PLP.Chemscore.Internal.Correction>
0.0456

> <Gold.Rescore>
     Score         DG    S(hbond)    S(metal)    S(lipo)     H(rot)  DE(clash)    DE(int)     intcor
     12.95     -15.21       0.96        0.00     110.99       2.52       0.04       2.23       ----

> <Gold.Chemscore.Fitness>
12.9500

> <Gold.Chemscore.DG>
-15.2134

> <Gold.Chemscore.ZeroCoef>
-5.4800

> <Gold.Chemscore.Hbond>
0.9588

> <Gold.Chemscore.Metal>
0.0000

> <Gold.Chemscore.Lipo>
110.9867

> <Gold.Chemscore.Internal_Hbond>
0.0000

> <Gold.Chemscore.DEClash>
0.0375

> <Gold.Chemscore.DEInternal>
2.2259

> <Gold.Chemscore.Rot>
2.5212

> <Gold.Chemscore.Internal.Correction>
   9.000000E+99

> <Gold.Chemscore.Hbonds>
donor molecule, donor type, donor heavy atom, donor atom, acceptor molecule, acceptor atom, score
      P1  H  7989  7998       L1     7  0.84

> <Gold.Chemscore.Hbond.Weighted>
-3.2023

> <Gold.Chemscore.Metal.Weighted>
-0.0000

> <Gold.Chemscore.Lipo.Weighted>
-12.9854

> <Gold.Chemscore.Internal_Hbond.Weighted>
0.0000

> <Gold.Chemscore.DEClash.Weighted>
0.0375

> <Gold.Chemscore.DEInternal.Weighted>
2.2259

> <Gold.Chemscore.Rot.Weighted>
6.4543

> <Gold.Chemscore.Internal.Correction.Weighted>
   9.000000E+99

> <Gold.Protein.RotatedTorsions>
[ 6907 6896 6895 6894 ] final  -38.39 input  -60.11 | X-H torsion
[ 7974 7965 7964 7962 ] final   38.18 input  175.53 | X-H torsion
[ 8008 7997 7996 7995 ] final   36.31 input   59.86 | X-H torsion
[ 10167 10162 10161 10158 ] final -179.69 input  -65.29 | X-H torsion
[ 10718 10713 10712 10709 ] final -170.36 input   66.30 | X-H torsion
[ 10763 10752 10751 10750 ] final  111.46 input  -60.55 | X-H torsion
[ 11005 11000 10999 10996 ] final   53.68 input  -57.11 | X-H torsion

> <Gold.Protein.ActiveResidues>
 VAL166  LYS551  ARG553  GLY616  TRP617  ASP618  TYR619  PRO620  LYS621  CYS622 
 ASP623  PHE694  ASN695  SER759  ASP760  ASP761  ALA762  ILE779  LEU786  VAL792 
 PHE793  MET794  SER795  GLU796  ALA797  LYS798  CYS799  TRP800  GLU811  SER814 

> <Gold.Protein.RotatedAtoms>
  151.0030  134.9337  159.7964 H   0  0  0  0  0  0  0  0  0  0  0  0  # atno 6907 bound_to 6896
  152.5283  134.3129  159.9130 H   0  0  0  0  0  0  0  0  0  0  0  0  # atno 6908 bound_to 6896
  151.3134  133.4029  159.2683 H   0  0  0  0  0  0  0  0  0  0  0  0  # atno 6909 bound_to 6896
  146.1082  139.5804  142.9370 H   0  0  0  0  0  0  0  0  0  0  0  0  # atno 7974 bound_to 7965
  155.1852  140.3303  155.4368 H   0  0  0  0  0  0  0  0  0  0  0  0  # atno 8008 bound_to 7997
  156.2462  140.1920  156.6899 H   0  0  0  0  0  0  0  0  0  0  0  0  # atno 8009 bound_to 7997
  154.6243  140.0591  156.9640 H   0  0  0  0  0  0  0  0  0  0  0  0  # atno 8010 bound_to 7997
  139.5375  144.2457  152.0825 H   0  0  0  0  0  0  0  0  0  0  0  0  # atno 10167 bound_to 10162
  156.7250  130.9284  151.3100 H   0  0  0  0  0  0  0  0  0  0  0  0  # atno 10718 bound_to 10713
  153.4636  135.3716  155.2352 H   0  0  0  0  0  0  0  0  0  0  0  0  # atno 10763 bound_to 10752
  154.8757  135.3914  154.3895 H   0  0  0  0  0  0  0  0  0  0  0  0  # atno 10764 bound_to 10752
  153.4472  135.7085  153.6196 H   0  0  0  0  0  0  0  0  0  0  0  0  # atno 10765 bound_to 10752
  140.0748  134.5420  155.9008 H   0  0  0  0  0  0  0  0  0  0  0  0  # atno 11005 bound_to 11000
  145.5718  141.0393  143.2170 LP  0  0  0  0  0  0  0  0  0  0  0  0  # atno 17320 bound_to 7965
  144.7488  139.7248  143.7281 LP  0  0  0  0  0  0  0  0  0  0  0  0  # atno 17321 bound_to 7965
  140.1929  144.4733  150.6469 LP  0  0  0  0  0  0  0  0  0  0  0  0  # atno 17342 bound_to 10162
  140.6589  143.2246  151.5904 LP  0  0  0  0  0  0  0  0  0  0  0  0  # atno 17343 bound_to 10162
  157.6882  130.9207  150.0443 LP  0  0  0  0  0  0  0  0  0  0  0  0  # atno 17370 bound_to 10713
  156.1568  130.3643  149.9357 LP  0  0  0  0  0  0  0  0  0  0  0  0  # atno 17371 bound_to 10713
  141.2025  133.6625  156.6011 LP  0  0  0  0  0  0  0  0  0  0  0  0  # atno 17394 bound_to 11000
  140.3574  134.7717  157.4510 LP  0  0  0  0  0  0  0  0  0  0  0  0  # atno 17395 bound_to 11000

$$$$
