AV-unprocessed.smi:1976|AV-procd|sdf|7984|dock5
  -GOLD-   2272010163D 1   1.00000     0.00000
 Structure written by MMmdl.
 45 47  0  0  0  0  0  0  0  0  2 V2000
  149.3790  141.6623  155.8813 O   0  0  0  0  0  0  0  0  0  0  0  0
  149.9950  140.6207  155.6531 C   0  0  0  0  0  0  0  0  0  0  0  0
  151.5080  140.5353  155.8968 C   0  0  0  0  0  0  0  0  0  0  0  0
  151.8939  140.9633  157.2516 N   0  0  0  0  0  0  0  0  0  0  0  0
  151.6959  142.3192  157.5790 C   0  0  0  0  0  0  0  0  0  0  0  0
  152.0096  142.8358  158.7828 C   0  0  0  0  0  0  0  0  0  0  0  0
  151.7219  144.2882  159.1308 C   0  0  0  0  0  0  0  0  0  0  0  0
  152.1034  144.5671  160.3775 F   0  0  0  0  0  0  0  0  0  0  0  0
  152.3880  145.0924  158.3035 F   0  0  0  0  0  0  0  0  0  0  0  0
  150.4217  144.5631  159.0192 F   0  0  0  0  0  0  0  0  0  0  0  0
  152.5463  141.9105  159.7616 C   0  0  0  0  0  0  0  0  0  0  0  0
  152.7289  140.6080  159.4691 C   0  0  0  0  0  0  0  0  0  0  0  0
  152.3956  140.0644  158.1507 C   0  0  0  0  0  0  0  0  0  0  0  0
  152.5543  138.8754  157.8715 O   0  0  0  0  0  0  0  0  0  0  0  0
  149.4098  139.5173  155.1639 N   0  0  0  0  0  0  0  0  0  0  0  0
  147.9850  139.3936  154.8654 C   0  0  1  0  0  0  0  0  0  0  0  0
  147.6058  139.8223  153.4321 C   0  0  0  0  0  0  0  0  0  0  0  0
  146.6043  138.7633  152.9598 C   0  0  0  0  0  0  0  0  0  0  0  0
  147.0624  137.5480  153.6436 N   0  3  2  0  0  0  0  0  0  0  0  0
  146.1865  136.3587  153.6320 C   0  0  0  0  0  0  0  0  0  0  0  0
  146.9571  135.1772  154.2607 C   0  0  0  0  0  0  0  0  0  0  0  0
  147.5391  135.5282  155.6494 C   0  0  0  0  0  0  0  0  0  0  0  0
  148.3403  136.8478  155.6179 C   0  0  0  0  0  0  0  0  0  0  0  0
  147.4580  137.9490  155.0047 C   0  0  1  0  0  0  0  0  0  0  0  0
  151.8556  139.5172  155.7105 H   0  0  0  0  0  0  0  0  0  0  0  0
  152.0076  141.1482  155.1454 H   0  0  0  0  0  0  0  0  0  0  0  0
  151.2574  142.9121  156.7893 H   0  0  0  0  0  0  0  0  0  0  0  0
  152.8097  142.2682  160.7460 H   0  0  0  0  0  0  0  0  0  0  0  0
  153.1324  139.9480  160.2231 H   0  0  0  0  0  0  0  0  0  0  0  0
  149.9871  138.7045  155.0032 H   0  0  0  0  0  0  0  0  0  0  0  0
  147.4386  140.0151  155.5777 H   0  0  0  0  0  0  0  0  0  0  0  0
  147.1951  140.8317  153.3917 H   0  0  0  0  0  0  0  0  0  0  0  0
  148.4841  139.7997  152.7851 H   0  0  0  0  0  0  0  0  0  0  0  0
  145.5950  139.0147  153.2901 H   0  0  0  0  0  0  0  0  0  0  0  0
  146.5960  138.6441  151.8761 H   0  0  0  0  0  0  0  0  0  0  0  0
  145.2681  136.5627  154.1845 H   0  0  0  0  0  0  0  0  0  0  0  0
  145.9020  136.1200  152.6066 H   0  0  0  0  0  0  0  0  0  0  0  0
  146.3066  134.3056  154.3373 H   0  0  0  0  0  0  0  0  0  0  0  0
  147.7739  134.8911  153.5967 H   0  0  0  0  0  0  0  0  0  0  0  0
  146.7224  135.6203  156.3667 H   0  0  0  0  0  0  0  0  0  0  0  0
  148.1705  134.7146  156.0075 H   0  0  0  0  0  0  0  0  0  0  0  0
  148.6478  137.1224  156.6277 H   0  0  0  0  0  0  0  0  0  0  0  0
  149.2506  136.7162  155.0312 H   0  0  0  0  0  0  0  0  0  0  0  0
  146.5454  138.0149  155.6015 H   0  0  0  0  0  0  0  0  0  0  0  0
  147.9147  137.2808  153.1720 H   0  0  0  0  0  0  0  0  0  0  0  0
  1  2  2  0  0  0  0
  2  3  1  0  0  0  0
  2 15  1  0  0  0  0
  3  4  1  0  0  0  0
  3 25  1  0  0  0  0
  3 26  1  0  0  0  0
  4 13  1  0  0  0  0
  4  5  1  0  0  0  0
  5  6  2  0  0  0  0
  5 27  1  0  0  0  0
  6  7  1  0  0  0  0
  6 11  1  0  0  0  0
  7  8  1  0  0  0  0
  7  9  1  0  0  0  0
  7 10  1  0  0  0  0
 11 12  2  0  0  0  0
 11 28  1  0  0  0  0
 12 13  1  0  0  0  0
 12 29  1  0  0  0  0
 13 14  2  0  0  0  0
 15 16  1  0  0  0  0
 15 30  1  0  0  0  0
 16 24  1  0  0  0  0
 16 17  1  0  0  0  0
 16 31  1  0  0  0  0
 17 18  1  0  0  0  0
 17 32  1  0  0  0  0
 17 33  1  0  0  0  0
 18 19  1  0  0  0  0
 18 34  1  0  0  0  0
 18 35  1  0  0  0  0
 19 24  1  0  0  0  0
 19 20  1  0  0  0  0
 19 45  1  0  0  0  0
 20 21  1  0  0  0  0
 20 36  1  0  0  0  0
 20 37  1  0  0  0  0
 21 22  1  0  0  0  0
 21 38  1  0  0  0  0
 21 39  1  0  0  0  0
 22 23  1  0  0  0  0
 22 40  1  0  0  0  0
 22 41  1  0  0  0  0
 23 24  1  0  0  0  0
 23 42  1  0  0  0  0
 23 43  1  0  0  0  0
 24 44  1  0  0  0  0
M  CHG  1  19   1
M  END
> <s_m_source_file>
AV-unprocessed.smi

> <i_m_source_file_index>
1976

> <i_lp_mmshare_version>
43012

> <i_f3d_flags>
0

> <s_epik_input>
W0NIMl0xW0NIMl1bQ0gyXVtDSDJdW0NASF0oTjEyKVtDQEBIXShbQ0gyXVtDSDJdMilbTkhdQyg9TylbQ0gyXW4zW2NIXWMoQyhGKShGKUYpW2NIXVtjSF1jMz1P

> <s_epik_cmdline>
J2VwaWtfcHl0aG9uJywgJy1waCcsICc3LjAnLCAnLXRuJywgJzgnLCAnLW1hJywgJzIwMCcsICctbWV0YWxfYmluZGluZycsICctaW1hZScsICc8aW5maWxlLm1hZT4nLCAnLW9tYWUnLCAnPG91dGZpbGUubWFlPic=

> <r_lp_tautomer_probability>
1

> <r_epik_Ionization_Penalty>
0.00171506

> <r_epik_Ionization_Penalty_Charging>
0.00171498

> <r_epik_Ionization_Penalty_Neutral>
7.81737e-08

> <r_epik_State_Penalty>
0.00115937

> <r_epik_Charging_Adjusted_Penalty>
0.00287436

> <i_epik_Tot_Q>
1

> <i_epik_Tot_abs_Q>
1

> <r_epik_Metal_State_Penalty>
-0

> <b_epik_Metal_Only>
0

> <s_lp_Force_Field>
OPLS_2005

> <r_lp_Energy>
52.9518

> <b_lp_Chiralities_Consistent>
1

> <s_lp_Variant>
AV-unprocessed.smi:1976-2

> <Gold.Version>
5.8.1

> <Gold.Id.Protein>
6NUR|6NUR_protein|mol2

> <Gold.PLP.Fitness>
44.1754

> <Gold.PLP.PLP>
-39.1163

> <Gold.PLP.part.hbond>
-1.0000

> <Gold.PLP.part.metal>
0.0000

> <Gold.PLP.part.buried>
-3.6667

> <Gold.PLP.part.nonpolar>
-33.6526

> <Gold.PLP.part.repulsive>
0.1683

> <Gold.PLP.ligand.clash>
0.0000

> <Gold.PLP.ligand.torsion>
0.5043

> <Gold.PLP.Chemscore.Hbond>
2.0000

> <Gold.PLP.Chemscore.CHOScore>
0.0000

> <Gold.PLP.Chemscore.Metal>
0.0000

> <Gold.Chemscore.Hbonds>
donor molecule, donor type, donor heavy atom, donor atom, acceptor molecule, acceptor atom, score
      L1  H    19    45       P1  7948  2.00

> <Gold.PLP.Chemscore.Internal.Correction>
0.0676

> <Gold.Rescore>
     Score         DG    S(hbond)    S(metal)    S(lipo)     H(rot)  DE(clash)    DE(int)     intcor
     11.88     -13.86       1.00        0.00      77.76       1.58       0.19       1.80       ----

> <Gold.Chemscore.Fitness>
11.8785

> <Gold.Chemscore.DG>
-13.8644

> <Gold.Chemscore.ZeroCoef>
-5.4800

> <Gold.Chemscore.Hbond>
0.9997

> <Gold.Chemscore.Metal>
0.0000

> <Gold.Chemscore.Lipo>
77.7594

> <Gold.Chemscore.Internal_Hbond>
0.0000

> <Gold.Chemscore.DEClash>
0.1908

> <Gold.Chemscore.DEInternal>
1.7951

> <Gold.Chemscore.Rot>
1.5830

> <Gold.Chemscore.Internal.Correction>
   9.000000E+99

> <Gold.Chemscore.Hbonds>
donor molecule, donor type, donor heavy atom, donor atom, acceptor molecule, acceptor atom, score
      L1  H    19    45       P1  7948  0.96

> <Gold.Chemscore.Hbond.Weighted>
-3.3390

> <Gold.Chemscore.Metal.Weighted>
-0.0000

> <Gold.Chemscore.Lipo.Weighted>
-9.0978

> <Gold.Chemscore.Internal_Hbond.Weighted>
0.0000

> <Gold.Chemscore.DEClash.Weighted>
0.1908

> <Gold.Chemscore.DEInternal.Weighted>
1.7951

> <Gold.Chemscore.Rot.Weighted>
4.0524

> <Gold.Chemscore.Internal.Correction.Weighted>
   9.000000E+99

> <Gold.Protein.RotatedTorsions>
[ 6907 6896 6895 6894 ] final   81.86 input  -60.11 | X-H torsion
[ 7974 7965 7964 7962 ] final   60.18 input  175.53 | X-H torsion
[ 8008 7997 7996 7995 ] final   65.72 input   59.86 | X-H torsion
[ 10167 10162 10161 10158 ] final -138.57 input  -65.29 | X-H torsion
[ 10718 10713 10712 10709 ] final   18.54 input   66.30 | X-H torsion
[ 10763 10752 10751 10750 ] final   33.85 input  -60.55 | X-H torsion
[ 11005 11000 10999 10996 ] final  103.66 input  -57.11 | X-H torsion

> <Gold.Protein.ActiveResidues>
 VAL166  LYS551  ARG553  GLY616  TRP617  ASP618  TYR619  PRO620  LYS621  CYS622 
 ASP623  PHE694  ASN695  SER759  ASP760  ASP761  ALA762  ILE779  LEU786  VAL792 
 PHE793  MET794  SER795  GLU796  ALA797  LYS798  CYS799  TRP800  GLU811  SER814 

> <Gold.Protein.RotatedAtoms>
  152.5281  134.3140  159.9123 H   0  0  0  0  0  0  0  0  0  0  0  0  # atno 6907 bound_to 6896
  151.3089  133.4083  159.2653 H   0  0  0  0  0  0  0  0  0  0  0  0  # atno 6908 bound_to 6896
  151.0055  134.9373  159.8035 H   0  0  0  0  0  0  0  0  0  0  0  0  # atno 6909 bound_to 6896
  145.8989  139.3566  143.0604 H   0  0  0  0  0  0  0  0  0  0  0  0  # atno 7974 bound_to 7965
  155.6662  140.3497  155.4801 H   0  0  0  0  0  0  0  0  0  0  0  0  # atno 8008 bound_to 7997
  155.9726  140.1159  157.0821 H   0  0  0  0  0  0  0  0  0  0  0  0  # atno 8009 bound_to 7997
  154.4170  140.1154  156.5314 H   0  0  0  0  0  0  0  0  0  0  0  0  # atno 8010 bound_to 7997
  139.8466  143.7253  152.2660 H   0  0  0  0  0  0  0  0  0  0  0  0  # atno 10167 bound_to 10162
  157.0978  130.6455  149.5864 H   0  0  0  0  0  0  0  0  0  0  0  0  # atno 10718 bound_to 10713
  153.0192  135.6376  154.1576 H   0  0  0  0  0  0  0  0  0  0  0  0  # atno 10763 bound_to 10752
  154.1312  135.2840  155.3186 H   0  0  0  0  0  0  0  0  0  0  0  0  # atno 10764 bound_to 10752
  154.6193  135.5530  153.7619 H   0  0  0  0  0  0  0  0  0  0  0  0  # atno 10765 bound_to 10752
  139.8785  134.9271  156.5244 H   0  0  0  0  0  0  0  0  0  0  0  0  # atno 11005 bound_to 11000
  145.8816  140.9359  143.0598 LP  0  0  0  0  0  0  0  0  0  0  0  0  # atno 17320 bound_to 7965
  144.6734  140.0787  143.7470 LP  0  0  0  0  0  0  0  0  0  0  0  0  # atno 17321 bound_to 7965
  139.7507  144.7535  151.0511 LP  0  0  0  0  0  0  0  0  0  0  0  0  # atno 17342 bound_to 10162
  140.7792  143.4864  150.9951 LP  0  0  0  0  0  0  0  0  0  0  0  0  # atno 17343 bound_to 10162
  155.9881  130.4923  150.7156 LP  0  0  0  0  0  0  0  0  0  0  0  0  # atno 17370 bound_to 10713
  157.4667  131.0889  151.0687 LP  0  0  0  0  0  0  0  0  0  0  0  0  # atno 17371 bound_to 10713
  140.8427  133.8192  155.9091 LP  0  0  0  0  0  0  0  0  0  0  0  0  # atno 17394 bound_to 11000
  140.9221  134.2128  157.4919 LP  0  0  0  0  0  0  0  0  0  0  0  0  # atno 17395 bound_to 11000

$$$$
