AV-unprocessed.smi:1740|AV-procd|sdf|7012|dock6
  -GOLD-   22720 8223D 1   1.00000     0.00000
 Structure written by MMmdl.
 51 53  0  0  0  0  0  0  0  0  3 V2000
  149.2127  127.9353  150.9602 N   0  5  0  0  0  0  0  0  0  0  0  0
  148.2104  127.6373  151.8116 C   0  0  0  0  0  0  0  0  0  0  0  0
  148.1241  126.6739  152.5694 O   0  0  0  0  0  0  0  0  0  0  0  0
  147.0814  128.6727  151.7684 C   0  0  0  0  0  0  0  0  0  0  0  0
  147.6050  130.0337  152.0509 N   0  3  2  0  0  0  0  0  0  0  0  0
  148.4589  130.0741  153.2647 C   0  0  0  0  0  0  0  0  0  0  0  0
  149.1077  131.4576  153.4408 C   0  0  0  0  0  0  0  0  0  0  0  0
  148.0472  132.5696  153.4891 C   0  0  1  0  0  0  0  0  0  0  0  0
  148.6983  133.8743  153.5646 N   0  0  0  0  0  0  0  0  0  0  0  0
  149.5586  134.2534  154.5204 C   0  0  0  0  0  0  0  0  0  0  0  0
  149.9184  133.5195  155.4409 O   0  0  0  0  0  0  0  0  0  0  0  0
  149.9751  135.5160  154.3260 N   0  0  0  0  0  0  0  0  0  0  0  0
  150.8761  136.2816  155.1204 C   0  0  0  0  0  0  0  0  0  0  0  0
  151.8706  135.6676  155.9211 C   0  0  0  0  0  0  0  0  0  0  0  0
  152.6884  136.4657  156.7395 C   0  0  0  0  0  0  0  0  0  0  0  0
  152.4728  137.8537  156.7428 C   0  0  0  0  0  0  0  0  0  0  0  0
  151.5225  138.4524  155.9980 N   0  0  0  0  0  0  0  0  0  0  0  0
  150.7357  137.6972  155.1924 C   0  0  0  0  0  0  0  0  0  0  0  0
  149.7692  138.3797  154.4193 N   0  0  0  0  0  0  0  0  0  0  0  0
  149.9200  139.8244  154.2712 C   0  0  0  0  0  0  0  0  0  0  0  0
  148.5056  140.4129  154.3017 C   0  0  0  0  0  0  0  0  0  0  0  0
  147.6168  139.2337  153.9193 C   0  0  0  0  0  0  0  0  0  0  0  0
  148.3523  138.0559  154.5518 C   0  0  0  0  0  0  0  0  0  0  0  0
  147.1497  132.4793  152.2410 C   0  0  0  0  0  0  0  0  0  0  0  0
  146.5436  131.0747  152.0911 C   0  0  0  0  0  0  0  0  0  0  0  0
  150.1807  127.8665  151.2968 H   0  0  0  0  0  0  0  0  0  0  0  0
  146.5750  128.6519  150.8019 H   0  0  0  0  0  0  0  0  0  0  0  0
  146.3384  128.3870  152.5149 H   0  0  0  0  0  0  0  0  0  0  0  0
  147.8597  129.8219  154.1411 H   0  0  0  0  0  0  0  0  0  0  0  0
  149.2429  129.3198  153.1871 H   0  0  0  0  0  0  0  0  0  0  0  0
  149.7052  131.4701  154.3531 H   0  0  0  0  0  0  0  0  0  0  0  0
  149.7988  131.6387  152.6160 H   0  0  0  0  0  0  0  0  0  0  0  0
  147.4354  132.4213  154.3813 H   0  0  0  0  0  0  0  0  0  0  0  0
  148.4659  134.5421  152.8440 H   0  0  0  0  0  0  0  0  0  0  0  0
  149.6722  135.9596  153.4712 H   0  0  0  0  0  0  0  0  0  0  0  0
  152.0053  134.5971  155.9409 H   0  0  0  0  0  0  0  0  0  0  0  0
  153.4538  136.0225  157.3591 H   0  0  0  0  0  0  0  0  0  0  0  0
  153.0744  138.5005  157.3638 H   0  0  0  0  0  0  0  0  0  0  0  0
  150.5480  140.2562  155.0521 H   0  0  0  0  0  0  0  0  0  0  0  0
  150.3880  140.0314  153.3085 H   0  0  0  0  0  0  0  0  0  0  0  0
  148.2647  140.7368  155.3151 H   0  0  0  0  0  0  0  0  0  0  0  0
  148.3881  141.2697  153.6378 H   0  0  0  0  0  0  0  0  0  0  0  0
  146.5914  139.3361  154.2748 H   0  0  0  0  0  0  0  0  0  0  0  0
  147.5926  139.1209  152.8344 H   0  0  0  0  0  0  0  0  0  0  0  0
  148.1123  137.1149  154.0561 H   0  0  0  0  0  0  0  0  0  0  0  0
  148.0663  137.9738  155.6010 H   0  0  0  0  0  0  0  0  0  0  0  0
  146.3490  133.2176  152.2970 H   0  0  0  0  0  0  0  0  0  0  0  0
  147.7291  132.7197  151.3482 H   0  0  0  0  0  0  0  0  0  0  0  0
  145.9472  131.0405  151.1790 H   0  0  0  0  0  0  0  0  0  0  0  0
  145.8639  130.8703  152.9197 H   0  0  0  0  0  0  0  0  0  0  0  0
  148.2071  130.2523  151.2689 H   0  0  0  0  0  0  0  0  0  0  0  0
  1  2  1  0  0  0  0
  1 26  1  0  0  0  0
  2  3  2  0  0  0  0
  2  4  1  0  0  0  0
  4  5  1  0  0  0  0
  4 27  1  0  0  0  0
  4 28  1  0  0  0  0
  5 25  1  0  0  0  0
  5  6  1  0  0  0  0
  5 51  1  0  0  0  0
  6  7  1  0  0  0  0
  6 29  1  0  0  0  0
  6 30  1  0  0  0  0
  7  8  1  0  0  0  0
  7 31  1  0  0  0  0
  7 32  1  0  0  0  0
  8  9  1  0  0  0  0
  8 24  1  0  0  0  0
  8 33  1  0  0  0  0
  9 10  1  0  0  0  0
  9 34  1  0  0  0  0
 10 11  2  0  0  0  0
 10 12  1  0  0  0  0
 12 13  1  0  0  0  0
 12 35  1  0  0  0  0
 13 18  1  0  0  0  0
 13 14  2  0  0  0  0
 14 15  1  0  0  0  0
 14 36  1  0  0  0  0
 15 16  2  0  0  0  0
 15 37  1  0  0  0  0
 16 17  1  0  0  0  0
 16 38  1  0  0  0  0
 17 18  2  0  0  0  0
 18 19  1  0  0  0  0
 19 23  1  0  0  0  0
 19 20  1  0  0  0  0
 20 21  1  0  0  0  0
 20 39  1  0  0  0  0
 20 40  1  0  0  0  0
 21 22  1  0  0  0  0
 21 41  1  0  0  0  0
 21 42  1  0  0  0  0
 22 23  1  0  0  0  0
 22 43  1  0  0  0  0
 22 44  1  0  0  0  0
 23 45  1  0  0  0  0
 23 46  1  0  0  0  0
 24 25  1  0  0  0  0
 24 47  1  0  0  0  0
 24 48  1  0  0  0  0
 25 49  1  0  0  0  0
 25 50  1  0  0  0  0
M  CHG  1   1  -1
M  CHG  1   5   1
M  END
> <s_m_source_file>
AV-unprocessed.smi

> <i_m_source_file_index>
1740

> <i_lp_mmshare_version>
43012

> <i_f3d_flags>
0

> <s_epik_input>
W05IMl1DKD1PKVtDSDJdTjFbQ0gyXVtDSDJdW0NIXShbQ0gyXVtDSDJdMSlbTkhdQyg9TylbTkhdYzJbY0hdW2NIXVtjSF1uYzJOM1tDSDJdW0NIMl1bQ0gyXVtDSDJdMw==

> <s_epik_cmdline>
J2VwaWtfcHl0aG9uJywgJy1waCcsICc3LjAnLCAnLXRuJywgJzgnLCAnLW1hJywgJzIwMCcsICctbWV0YWxfYmluZGluZycsICctaW1hZScsICc8aW5maWxlLm1hZT4nLCAnLW9tYWUnLCAnPG91dGZpbGUubWFlPic=

> <r_lp_tautomer_probability>
1

> <r_epik_Ionization_Penalty>
5.80652

> <r_epik_Ionization_Penalty_Charging>
5.7288

> <r_epik_Ionization_Penalty_Neutral>
0.0777157

> <r_epik_State_Penalty>
6.60246

> <r_epik_Charging_Adjusted_Penalty>
12.3313

> <i_epik_Tot_Q>
0

> <i_epik_Tot_abs_Q>
2

> <r_epik_Metal_State_Penalty>
2.64988

> <b_epik_Metal_Only>
1

> <s_lp_Force_Field>
OPLS_2005

> <r_lp_Energy>
35.8158

> <b_lp_Chiralities_Consistent>
1

> <s_lp_Variant>
AV-unprocessed.smi:1740-7

> <Gold.Version>
5.8.1

> <Gold.Id.Protein>
6NUR|6NUR_protein|mol2

> <Gold.PLP.Fitness>
45.3772

> <Gold.PLP.PLP>
-34.0273

> <Gold.PLP.part.hbond>
-4.9618

> <Gold.PLP.part.metal>
0.0000

> <Gold.PLP.part.buried>
-0.9592

> <Gold.PLP.part.nonpolar>
-28.3885

> <Gold.PLP.part.repulsive>
0.2941

> <Gold.PLP.ligand.clash>
0.0000

> <Gold.PLP.ligand.torsion>
0.4269

> <Gold.PLP.Chemscore.Hbond>
3.9588

> <Gold.PLP.Chemscore.CHOScore>
0.0000

> <Gold.PLP.Chemscore.Metal>
0.0000

> <Gold.Chemscore.Hbonds>
donor molecule, donor type, donor heavy atom, donor atom, acceptor molecule, acceptor atom, score
      L1  H     1    26       P1 10737  1.00
      L1  H     5    51       P1 10747  0.60
      L1  H     9    34       P1  7948  0.96
      L1  H    12    35       P1  7948  0.90

> <Gold.PLP.Chemscore.Internal.Correction>
0.3274

> <Gold.Rescore>
     Score         DG    S(hbond)    S(metal)    S(lipo)     H(rot)  DE(clash)    DE(int)     intcor
     15.29     -18.98       2.97        0.00      77.80       2.16       0.24       3.45       ----

> <Gold.Chemscore.Fitness>
15.2905

> <Gold.Chemscore.DG>
-18.9847

> <Gold.Chemscore.ZeroCoef>
-5.4800

> <Gold.Chemscore.Hbond>
2.9705

> <Gold.Chemscore.Metal>
0.0000

> <Gold.Chemscore.Lipo>
77.8041

> <Gold.Chemscore.Internal_Hbond>
0.0000

> <Gold.Chemscore.DEClash>
0.2397

> <Gold.Chemscore.DEInternal>
3.4546

> <Gold.Chemscore.Rot>
2.1562

> <Gold.Chemscore.Internal.Correction>
   9.000000E+99

> <Gold.Chemscore.Hbonds>
donor molecule, donor type, donor heavy atom, donor atom, acceptor molecule, acceptor atom, score
      L1  H     1    26       P1 10737  0.85
      L1  H     5    51       P1 10747  0.59
      L1  H     9    34       P1  7948  0.23
      L1  H    12    35       P1  7948  0.18

> <Gold.Chemscore.Hbond.Weighted>
-9.9214

> <Gold.Chemscore.Metal.Weighted>
-0.0000

> <Gold.Chemscore.Lipo.Weighted>
-9.1031

> <Gold.Chemscore.Internal_Hbond.Weighted>
0.0000

> <Gold.Chemscore.DEClash.Weighted>
0.2397

> <Gold.Chemscore.DEInternal.Weighted>
3.4546

> <Gold.Chemscore.Rot.Weighted>
5.5198

> <Gold.Chemscore.Internal.Correction.Weighted>
   9.000000E+99

> <Gold.Protein.RotatedTorsions>
[ 6907 6896 6895 6894 ] final -119.82 input  -60.11 | X-H torsion
[ 7974 7965 7964 7962 ] final  -93.90 input  175.53 | X-H torsion
[ 8008 7997 7996 7995 ] final -119.05 input   59.86 | X-H torsion
[ 10167 10162 10161 10158 ] final   92.77 input  -65.29 | X-H torsion
[ 10718 10713 10712 10709 ] final -160.08 input   66.30 | X-H torsion
[ 10763 10752 10751 10750 ] final    3.78 input  -60.55 | X-H torsion
[ 11005 11000 10999 10996 ] final  102.39 input  -57.11 | X-H torsion

> <Gold.Protein.ActiveResidues>
 VAL166  LYS551  ARG553  GLY616  TRP617  ASP618  TYR619  PRO620  LYS621  CYS622 
 ASP623  PHE694  ASN695  SER759  ASP760  ASP761  ALA762  ILE779  LEU786  VAL792 
 PHE793  MET794  SER795  GLU796  ALA797  LYS798  CYS799  TRP800  GLU811  SER814 

> <Gold.Protein.RotatedAtoms>
  150.8339  133.8046  159.3087 H   0  0  0  0  0  0  0  0  0  0  0  0  # atno 6907 bound_to 6896
  151.5768  135.1058  160.0017 H   0  0  0  0  0  0  0  0  0  0  0  0  # atno 6908 bound_to 6896
  152.4414  133.7413  159.6699 H   0  0  0  0  0  0  0  0  0  0  0  0  # atno 6909 bound_to 6896
  145.3804  140.9517  143.2397 H   0  0  0  0  0  0  0  0  0  0  0  0  # atno 7974 bound_to 7965
  155.1094  140.0397  157.2720 H   0  0  0  0  0  0  0  0  0  0  0  0  # atno 8008 bound_to 7997
  154.6697  140.2609  155.6995 H   0  0  0  0  0  0  0  0  0  0  0  0  # atno 8009 bound_to 7997
  156.2653  140.2800  156.1201 H   0  0  0  0  0  0  0  0  0  0  0  0  # atno 8010 bound_to 7997
  139.8245  144.6716  150.9477 H   0  0  0  0  0  0  0  0  0  0  0  0  # atno 10167 bound_to 10162
  156.5771  130.8713  151.2854 H   0  0  0  0  0  0  0  0  0  0  0  0  # atno 10718 bound_to 10713
  153.2792  135.6939  153.7402 H   0  0  0  0  0  0  0  0  0  0  0  0  # atno 10763 bound_to 10752
  153.6396  135.3395  155.3068 H   0  0  0  0  0  0  0  0  0  0  0  0  # atno 10764 bound_to 10752
  154.8489  135.4428  154.1840 H   0  0  0  0  0  0  0  0  0  0  0  0  # atno 10765 bound_to 10752
  139.8777  134.9222  156.5051 H   0  0  0  0  0  0  0  0  0  0  0  0  # atno 11005 bound_to 11000
  144.8512  139.5319  143.6855 LP  0  0  0  0  0  0  0  0  0  0  0  0  # atno 17320 bound_to 7965
  146.2845  139.6966  142.9205 LP  0  0  0  0  0  0  0  0  0  0  0  0  # atno 17321 bound_to 7965
  140.7811  143.4060  151.1070 LP  0  0  0  0  0  0  0  0  0  0  0  0  # atno 17342 bound_to 10162
  139.7718  143.8483  152.3122 LP  0  0  0  0  0  0  0  0  0  0  0  0  # atno 17343 bound_to 10162
  157.7335  130.9731  150.1981 LP  0  0  0  0  0  0  0  0  0  0  0  0  # atno 17370 bound_to 10713
  156.2664  130.3716  149.8077 LP  0  0  0  0  0  0  0  0  0  0  0  0  # atno 17371 bound_to 10713
  140.8561  133.8095  155.9217 LP  0  0  0  0  0  0  0  0  0  0  0  0  # atno 17394 bound_to 11000
  140.9096  134.2277  157.4994 LP  0  0  0  0  0  0  0  0  0  0  0  0  # atno 17395 bound_to 11000

$$$$
