AV-unprocessed.smi:889|AV-procd|sdf|4056|dock8
  -GOLD-   22720 1543D 1   1.00000     0.00000
 Structure written by MMmdl.
 43 44  0  0  0  0  0  0  0  0  1 V2000
  143.6616  143.4284  162.2982 C   0  0  0  0  0  0  0  0  0  0  0  0
  144.6949  143.2563  161.2376 C   0  0  0  0  0  0  0  0  0  0  0  0
  144.6894  143.4803  159.8905 C   0  0  0  0  0  0  0  0  0  0  0  0
  146.0008  143.1105  159.4815 C   0  0  0  0  0  0  0  0  0  0  0  0
  146.5943  143.1478  158.0987 C   0  0  0  0  0  0  0  0  0  0  0  0
  147.9149  142.3777  158.0643 C   0  0  0  0  0  0  0  0  0  0  0  0
  147.9279  141.1649  158.2744 O   0  0  0  0  0  0  0  0  0  0  0  0
  149.0158  143.0914  157.7876 N   0  0  0  0  0  0  0  0  0  0  0  0
  150.3617  142.5411  157.6784 C   0  0  0  0  0  0  0  0  0  0  0  0
  151.2913  143.0668  158.7918 C   0  0  0  0  0  0  0  0  0  0  0  0
  152.0730  141.8946  159.4315 C   0  0  0  0  0  0  0  0  0  0  0  0
  153.1222  142.2419  160.5178 C   0  0  0  0  0  0  0  0  0  0  0  0
  154.1957  141.1573  160.7055 C   0  0  0  0  0  0  0  0  0  0  0  0
  152.4255  142.5395  161.8544 C   0  0  0  0  0  0  0  0  0  0  0  0
  152.1789  144.2607  158.3687 C   0  0  0  0  0  0  0  0  0  0  0  0
  151.1262  145.2241  158.9091 C   0  0  0  0  0  0  0  0  0  0  0  0
  150.6345  144.0660  159.7731 C   0  0  0  0  0  0  0  0  0  0  0  0
  146.7343  142.6983  160.5040 N   0  0  0  0  0  0  0  0  0  0  0  0
  145.9073  142.7853  161.6293 O   0  0  0  0  0  0  0  0  0  0  0  0
  143.1990  144.4131  162.2297 H   0  0  0  0  0  0  0  0  0  0  0  0
  144.0976  143.3304  163.2927 H   0  0  0  0  0  0  0  0  0  0  0  0
  142.8770  142.6783  162.1976 H   0  0  0  0  0  0  0  0  0  0  0  0
  143.8734  143.8519  159.2888 H   0  0  0  0  0  0  0  0  0  0  0  0
  145.9016  142.7098  157.3793 H   0  0  0  0  0  0  0  0  0  0  0  0
  146.7678  144.1749  157.7733 H   0  0  0  0  0  0  0  0  0  0  0  0
  148.9141  144.0846  157.6351 H   0  0  0  0  0  0  0  0  0  0  0  0
  150.2797  141.4544  157.7249 H   0  0  0  0  0  0  0  0  0  0  0  0
  150.7778  142.7587  156.6940 H   0  0  0  0  0  0  0  0  0  0  0  0
  151.3657  141.1787  159.8521 H   0  0  0  0  0  0  0  0  0  0  0  0
  152.5817  141.3375  158.6434 H   0  0  0  0  0  0  0  0  0  0  0  0
  153.6311  143.1617  160.2293 H   0  0  0  0  0  0  0  0  0  0  0  0
  153.7469  140.1874  160.9217 H   0  0  0  0  0  0  0  0  0  0  0  0
  154.8631  141.4055  161.5311 H   0  0  0  0  0  0  0  0  0  0  0  0
  154.8186  141.0517  159.8185 H   0  0  0  0  0  0  0  0  0  0  0  0
  151.8935  141.6644  162.2287 H   0  0  0  0  0  0  0  0  0  0  0  0
  151.7029  143.3495  161.7498 H   0  0  0  0  0  0  0  0  0  0  0  0
  153.1455  142.8418  162.6154 H   0  0  0  0  0  0  0  0  0  0  0  0
  153.1152  144.3177  158.9268 H   0  0  0  0  0  0  0  0  0  0  0  0
  152.3581  144.3455  157.2962 H   0  0  0  0  0  0  0  0  0  0  0  0
  151.5250  146.0730  159.4652 H   0  0  0  0  0  0  0  0  0  0  0  0
  150.4011  145.5337  158.1552 H   0  0  0  0  0  0  0  0  0  0  0  0
  149.5489  143.9953  159.8453 H   0  0  0  0  0  0  0  0  0  0  0  0
  151.0956  144.0629  160.7624 H   0  0  0  0  0  0  0  0  0  0  0  0
  1  2  1  0  0  0  0
  1 20  1  0  0  0  0
  1 21  1  0  0  0  0
  1 22  1  0  0  0  0
  2 19  1  0  0  0  0
  2  3  2  0  0  0  0
  3  4  1  0  0  0  0
  3 23  1  0  0  0  0
  4  5  1  0  0  0  0
  4 18  2  0  0  0  0
  5  6  1  0  0  0  0
  5 24  1  0  0  0  0
  5 25  1  0  0  0  0
  6  7  2  0  0  0  0
  6  8  1  0  0  0  0
  8  9  1  0  0  0  0
  8 26  1  0  0  0  0
  9 10  1  0  0  0  0
  9 27  1  0  0  0  0
  9 28  1  0  0  0  0
 10 17  1  0  0  0  0
 10 11  1  0  0  0  0
 10 15  1  0  0  0  0
 11 12  1  0  0  0  0
 11 29  1  0  0  0  0
 11 30  1  0  0  0  0
 12 13  1  0  0  0  0
 12 14  1  0  0  0  0
 12 31  1  0  0  0  0
 13 32  1  0  0  0  0
 13 33  1  0  0  0  0
 13 34  1  0  0  0  0
 14 35  1  0  0  0  0
 14 36  1  0  0  0  0
 14 37  1  0  0  0  0
 15 16  1  0  0  0  0
 15 38  1  0  0  0  0
 15 39  1  0  0  0  0
 16 17  1  0  0  0  0
 16 40  1  0  0  0  0
 16 41  1  0  0  0  0
 17 42  1  0  0  0  0
 17 43  1  0  0  0  0
 18 19  1  0  0  0  0
M  END
> <s_m_source_file>
AV-unprocessed.smi

> <i_m_source_file_index>
889

> <i_lp_mmshare_version>
43012

> <i_f3d_flags>
0

> <s_epik_input>
W0NIM11jMVtjSF1jKG5vMSlbQ0gyXUMoPU8pW05IXVtDSDJdQzIoW0NIMl1bQ0hdKFtDSDNdKVtDSDNdKVtDSDJdW0NIMl1bQ0gyXTI=

> <s_epik_cmdline>
J2VwaWtfcHl0aG9uJywgJy1waCcsICc3LjAnLCAnLXRuJywgJzgnLCAnLW1hJywgJzIwMCcsICctbWV0YWxfYmluZGluZycsICctaW1hZScsICc8aW5maWxlLm1hZT4nLCAnLW9tYWUnLCAnPG91dGZpbGUubWFlPic=

> <r_lp_tautomer_probability>
1

> <r_epik_Ionization_Penalty>
7.05168e-08

> <r_epik_Ionization_Penalty_Charging>
0

> <r_epik_Ionization_Penalty_Neutral>
7.05168e-08

> <r_epik_State_Penalty>
-0

> <r_epik_Charging_Adjusted_Penalty>
0

> <i_epik_Tot_Q>
0

> <i_epik_Tot_abs_Q>
0

> <r_epik_Metal_State_Penalty>
-0

> <b_epik_Metal_Only>
0

> <s_lp_Force_Field>
OPLS_2005

> <r_lp_Energy>
19.2899

> <b_lp_Chiralities_Consistent>
1

> <s_lp_Variant>
AV-unprocessed.smi:889-1

> <Gold.Version>
5.8.1

> <Gold.Id.Protein>
6NUR|6NUR_protein|mol2

> <Gold.PLP.Fitness>
47.4321

> <Gold.PLP.PLP>
-44.4101

> <Gold.PLP.part.hbond>
-4.6696

> <Gold.PLP.part.metal>
0.0000

> <Gold.PLP.part.buried>
-4.9051

> <Gold.PLP.part.nonpolar>
-35.5558

> <Gold.PLP.part.repulsive>
0.1309

> <Gold.PLP.ligand.clash>
0.3327

> <Gold.PLP.ligand.torsion>
1.4019

> <Gold.PLP.Chemscore.Hbond>
1.9109

> <Gold.PLP.Chemscore.CHOScore>
0.0000

> <Gold.PLP.Chemscore.Metal>
0.0000

> <Gold.Chemscore.Hbonds>
donor molecule, donor type, donor heavy atom, donor atom, acceptor molecule, acceptor atom, score
      L1  H     8    26       P1  8028  0.13
      P1  H  6933  6944       L1    18  0.78
      P1  H  6934  6946       L1    18  0.53

> <Gold.PLP.Chemscore.Internal.Correction>
0.4257

> <Gold.Rescore>
     Score         DG    S(hbond)    S(metal)    S(lipo)     H(rot)  DE(clash)    DE(int)     intcor
     15.39     -18.46       1.13        0.00     115.66       1.68       0.42       2.65       ----

> <Gold.Chemscore.Fitness>
15.3881

> <Gold.Chemscore.DG>
-18.4586

> <Gold.Chemscore.ZeroCoef>
-5.4800

> <Gold.Chemscore.Hbond>
1.1254

> <Gold.Chemscore.Metal>
0.0000

> <Gold.Chemscore.Lipo>
115.6622

> <Gold.Chemscore.Internal_Hbond>
0.0000

> <Gold.Chemscore.DEClash>
0.4212

> <Gold.Chemscore.DEInternal>
2.6493

> <Gold.Chemscore.Rot>
1.6846

> <Gold.Chemscore.Internal.Correction>
   9.000000E+99

> <Gold.Chemscore.Hbonds>
donor molecule, donor type, donor heavy atom, donor atom, acceptor molecule, acceptor atom, score
      P1  H  6933  6944       L1    18  0.17
      P1  H  6934  6946       L1    18  0.03

> <Gold.Chemscore.Hbond.Weighted>
-3.7588

> <Gold.Chemscore.Metal.Weighted>
-0.0000

> <Gold.Chemscore.Lipo.Weighted>
-13.5325

> <Gold.Chemscore.Internal_Hbond.Weighted>
0.0000

> <Gold.Chemscore.DEClash.Weighted>
0.4212

> <Gold.Chemscore.DEInternal.Weighted>
2.6493

> <Gold.Chemscore.Rot.Weighted>
4.3127

> <Gold.Chemscore.Internal.Correction.Weighted>
   9.000000E+99

> <Gold.Protein.RotatedTorsions>
[ 6907 6896 6895 6894 ] final  -75.03 input  -60.11 | X-H torsion
[ 7974 7965 7964 7962 ] final -160.17 input  175.53 | X-H torsion
[ 8008 7997 7996 7995 ] final   93.80 input   59.86 | X-H torsion
[ 10167 10162 10161 10158 ] final  169.75 input  -65.29 | X-H torsion
[ 10718 10713 10712 10709 ] final -137.51 input   66.30 | X-H torsion
[ 10763 10752 10751 10750 ] final  -40.59 input  -60.55 | X-H torsion
[ 11005 11000 10999 10996 ] final  -87.51 input  -57.11 | X-H torsion

> <Gold.Protein.ActiveResidues>
 VAL166  LYS551  ARG553  GLY616  TRP617  ASP618  TYR619  PRO620  LYS621  CYS622 
 ASP623  PHE694  ASN695  SER759  ASP760  ASP761  ALA762  ILE779  LEU786  VAL792 
 PHE793  MET794  SER795  GLU796  ALA797  LYS798  CYS799  TRP800  GLU811  SER814 

> <Gold.Protein.RotatedAtoms>
  150.7073  134.4782  159.5457 H   0  0  0  0  0  0  0  0  0  0  0  0  # atno 6907 bound_to 6896
  152.2424  134.8212  160.0467 H   0  0  0  0  0  0  0  0  0  0  0  0  # atno 6908 bound_to 6896
  151.8988  133.3498  159.3860 H   0  0  0  0  0  0  0  0  0  0  0  0  # atno 6909 bound_to 6896
  144.7437  140.3580  143.6102 H   0  0  0  0  0  0  0  0  0  0  0  0  # atno 7974 bound_to 7965
  156.0508  140.3308  155.7349 H   0  0  0  0  0  0  0  0  0  0  0  0  # atno 8008 bound_to 7997
  155.5604  140.0618  157.2847 H   0  0  0  0  0  0  0  0  0  0  0  0  # atno 8009 bound_to 7997
  154.4435  140.1878  156.0765 H   0  0  0  0  0  0  0  0  0  0  0  0  # atno 8010 bound_to 7997
  139.5000  144.3671  151.9763 H   0  0  0  0  0  0  0  0  0  0  0  0  # atno 10167 bound_to 10162
  156.2889  130.7363  151.1383 H   0  0  0  0  0  0  0  0  0  0  0  0  # atno 10718 bound_to 10713
  153.9484  135.6753  153.4744 H   0  0  0  0  0  0  0  0  0  0  0  0  # atno 10763 bound_to 10752
  153.0896  135.4881  154.8662 H   0  0  0  0  0  0  0  0  0  0  0  0  # atno 10764 bound_to 10752
  154.7339  135.3144  154.8804 H   0  0  0  0  0  0  0  0  0  0  0  0  # atno 10765 bound_to 10752
  141.1616  133.7516  156.9317 H   0  0  0  0  0  0  0  0  0  0  0  0  # atno 11005 bound_to 11000
  145.7207  139.1709  143.2486 LP  0  0  0  0  0  0  0  0  0  0  0  0  # atno 17320 bound_to 7965
  146.1279  140.7224  142.9426 LP  0  0  0  0  0  0  0  0  0  0  0  0  # atno 17321 bound_to 7965
  140.3107  144.3541  150.6034 LP  0  0  0  0  0  0  0  0  0  0  0  0  # atno 17342 bound_to 10162
  140.5800  143.2173  151.7445 LP  0  0  0  0  0  0  0  0  0  0  0  0  # atno 17343 bound_to 10162
  157.7336  131.0589  150.5565 LP  0  0  0  0  0  0  0  0  0  0  0  0  # atno 17370 bound_to 10713
  156.5679  130.4272  149.6033 LP  0  0  0  0  0  0  0  0  0  0  0  0  # atno 17371 bound_to 10713
  140.1382  134.9311  157.2430 LP  0  0  0  0  0  0  0  0  0  0  0  0  # atno 17394 bound_to 11000
  140.2870  134.3285  155.7326 LP  0  0  0  0  0  0  0  0  0  0  0  0  # atno 17395 bound_to 11000

$$$$
