AV-unprocessed.smi:933|AV-procd|sdf|4203|dock3
  -GOLD-   22720 2113D 1   1.00000     0.00000
 Structure written by MMmdl.
 42 43  0  0  0  0  0  0  0  0  1 V2000
  144.3644  145.4790  157.4085 C   0  0  0  0  0  0  0  0  0  0  0  0
  144.3660  143.9616  157.1942 C   0  0  0  0  0  0  0  0  0  0  0  0
  145.1703  143.5542  156.0056 C   0  0  0  0  0  0  0  0  0  0  0  0
  146.2648  142.7930  156.0835 N   0  0  0  0  0  0  0  0  0  0  0  0
  146.8154  142.5083  154.8295 C   0  0  0  0  0  0  0  0  0  0  0  0
  148.0444  141.6519  154.7206 C   0  0  0  0  0  0  0  0  0  0  0  0
  148.5868  141.1809  156.0814 C   0  0  0  0  0  0  0  0  0  0  0  0
  149.4816  142.1697  156.6810 N   0  0  0  0  0  0  0  0  0  0  0  0
  150.6167  141.9357  157.3605 C   0  0  0  0  0  0  0  0  0  0  0  0
  151.0361  140.7965  157.5552 O   0  0  0  0  0  0  0  0  0  0  0  0
  151.2391  143.0419  157.8004 N   0  0  0  0  0  0  0  0  0  0  0  0
  152.4842  143.0637  158.5662 C   0  0  2  0  0  0  0  0  0  0  0  0
  152.5206  141.9092  159.5912 C   0  0  0  0  0  0  0  0  0  0  0  0
  152.7119  142.5517  160.9687 C   0  0  0  0  0  0  0  0  0  0  0  0
  152.2120  143.9846  160.8064 C   0  0  0  0  0  0  0  0  0  0  0  0
  152.6422  144.3636  159.3884 C   0  0  2  0  0  0  0  0  0  0  0  0
  151.9395  145.6181  158.8397 C   0  0  0  0  0  0  0  0  0  0  0  0
  146.1132  143.0693  153.7920 C   0  0  0  0  0  0  0  0  0  0  0  0
  144.7293  143.9667  154.3529 S   0  0  0  0  0  0  0  0  0  0  0  0
  143.7712  145.7477  158.2827 H   0  0  0  0  0  0  0  0  0  0  0  0
  143.9421  145.9972  156.5467 H   0  0  0  0  0  0  0  0  0  0  0  0
  145.3760  145.8556  157.5629 H   0  0  0  0  0  0  0  0  0  0  0  0
  144.7679  143.4616  158.0758 H   0  0  0  0  0  0  0  0  0  0  0  0
  143.3440  143.6019  157.0694 H   0  0  0  0  0  0  0  0  0  0  0  0
  147.8307  140.7777  154.1047 H   0  0  0  0  0  0  0  0  0  0  0  0
  148.8285  142.1956  154.1917 H   0  0  0  0  0  0  0  0  0  0  0  0
  147.7530  140.9885  156.7587 H   0  0  0  0  0  0  0  0  0  0  0  0
  149.1225  140.2390  155.9543 H   0  0  0  0  0  0  0  0  0  0  0  0
  149.2076  143.1360  156.5715 H   0  0  0  0  0  0  0  0  0  0  0  0
  150.8197  143.9357  157.5904 H   0  0  0  0  0  0  0  0  0  0  0  0
  153.3266  142.9833  157.8765 H   0  0  0  0  0  0  0  0  0  0  0  0
  151.5855  141.3469  159.5807 H   0  0  0  0  0  0  0  0  0  0  0  0
  153.3188  141.1999  159.3710 H   0  0  0  0  0  0  0  0  0  0  0  0
  152.1882  142.0125  161.7586 H   0  0  0  0  0  0  0  0  0  0  0  0
  153.7725  142.5630  161.2229 H   0  0  0  0  0  0  0  0  0  0  0  0
  151.1244  144.0078  160.8892 H   0  0  0  0  0  0  0  0  0  0  0  0
  152.6195  144.6565  161.5625 H   0  0  0  0  0  0  0  0  0  0  0  0
  153.7105  144.5829  159.4296 H   0  0  0  0  0  0  0  0  0  0  0  0
  150.8547  145.5080  158.8353 H   0  0  0  0  0  0  0  0  0  0  0  0
  152.2605  145.8313  157.8198 H   0  0  0  0  0  0  0  0  0  0  0  0
  152.1765  146.4908  159.4489 H   0  0  0  0  0  0  0  0  0  0  0  0
  146.3203  143.0020  152.7344 H   0  0  0  0  0  0  0  0  0  0  0  0
  1  2  1  0  0  0  0
  1 20  1  0  0  0  0
  1 21  1  0  0  0  0
  1 22  1  0  0  0  0
  2  3  1  0  0  0  0
  2 23  1  0  0  0  0
  2 24  1  0  0  0  0
  3 19  1  0  0  0  0
  3  4  2  0  0  0  0
  4  5  1  0  0  0  0
  5  6  1  0  0  0  0
  5 18  2  0  0  0  0
  6  7  1  0  0  0  0
  6 25  1  0  0  0  0
  6 26  1  0  0  0  0
  7  8  1  0  0  0  0
  7 27  1  0  0  0  0
  7 28  1  0  0  0  0
  8  9  1  0  0  0  0
  8 29  1  0  0  0  0
  9 10  2  0  0  0  0
  9 11  1  0  0  0  0
 11 12  1  0  0  0  0
 11 30  1  0  0  0  0
 12 16  1  0  0  0  0
 12 13  1  0  0  0  0
 12 31  1  0  0  0  0
 13 14  1  0  0  0  0
 13 32  1  0  0  0  0
 13 33  1  0  0  0  0
 14 15  1  0  0  0  0
 14 34  1  0  0  0  0
 14 35  1  0  0  0  0
 15 16  1  0  0  0  0
 15 36  1  0  0  0  0
 15 37  1  0  0  0  0
 16 17  1  0  0  0  0
 16 38  1  0  0  0  0
 17 39  1  0  0  0  0
 17 40  1  0  0  0  0
 17 41  1  0  0  0  0
 18 19  1  0  0  0  0
 18 42  1  0  0  0  0
M  END
> <s_m_source_file>
AV-unprocessed.smi

> <i_m_source_file_index>
933

> <i_lp_mmshare_version>
43012

> <i_f3d_flags>
0

> <s_epik_input>
W0NIM11bQ0gyXWMxbmMoW2NIXXMxKVtDSDJdW0NIMl1bTkhdQyg9TylbTkhdW0NAQEhdMltDSDJdW0NIMl1bQ0gyXVtDQEhdMltDSDNd

> <s_epik_cmdline>
J2VwaWtfcHl0aG9uJywgJy1waCcsICc3LjAnLCAnLXRuJywgJzgnLCAnLW1hJywgJzIwMCcsICctbWV0YWxfYmluZGluZycsICctaW1hZScsICc8aW5maWxlLm1hZT4nLCAnLW9tYWUnLCAnPG91dGZpbGUubWFlPic=

> <r_epik_Ionization_Penalty>
0.00203408

> <r_epik_Ionization_Penalty_Charging>
0

> <r_epik_Ionization_Penalty_Neutral>
0.00203408

> <r_epik_State_Penalty>
0.0013452

> <r_epik_Charging_Adjusted_Penalty>
0.0013452

> <i_epik_Tot_Q>
0

> <i_epik_Tot_abs_Q>
0

> <r_epik_Metal_State_Penalty>
-0

> <b_epik_Metal_Only>
0

> <s_lp_Force_Field>
OPLS_2005

> <r_lp_Energy>
20.7198

> <b_lp_Chiralities_Consistent>
1

> <s_lp_Variant>
AV-unprocessed.smi:933-3

> <Gold.Version>
5.8.1

> <Gold.Id.Protein>
6NUR|6NUR_protein|mol2

> <Gold.PLP.Fitness>
43.7110

> <Gold.PLP.PLP>
-41.9202

> <Gold.PLP.part.hbond>
-1.0000

> <Gold.PLP.part.metal>
0.0000

> <Gold.PLP.part.buried>
-5.3962

> <Gold.PLP.part.nonpolar>
-36.2035

> <Gold.PLP.part.repulsive>
0.2105

> <Gold.PLP.ligand.clash>
0.0000

> <Gold.PLP.ligand.torsion>
0.6305

> <Gold.PLP.Chemscore.Hbond>
1.0000

> <Gold.PLP.Chemscore.CHOScore>
0.0000

> <Gold.PLP.Chemscore.Metal>
0.0000

> <Gold.Chemscore.Hbonds>
donor molecule, donor type, donor heavy atom, donor atom, acceptor molecule, acceptor atom, score
      L1  H     8    29       P1  8028  1.00

> <Gold.PLP.Chemscore.Internal.Correction>
0.0517

> <Gold.Rescore>
     Score         DG    S(hbond)    S(metal)    S(lipo)     H(rot)  DE(clash)    DE(int)     intcor
     15.82     -17.51       1.00        0.00     108.21       1.55       0.14       1.54       ----

> <Gold.Chemscore.Fitness>
15.8208

> <Gold.Chemscore.DG>
-17.5090

> <Gold.Chemscore.ZeroCoef>
-5.4800

> <Gold.Chemscore.Hbond>
0.9977

> <Gold.Chemscore.Metal>
0.0000

> <Gold.Chemscore.Lipo>
108.2053

> <Gold.Chemscore.Internal_Hbond>
0.0000

> <Gold.Chemscore.DEClash>
0.1434

> <Gold.Chemscore.DEInternal>
1.5449

> <Gold.Chemscore.Rot>
1.5482

> <Gold.Chemscore.Internal.Correction>
   9.000000E+99

> <Gold.Chemscore.Hbonds>
donor molecule, donor type, donor heavy atom, donor atom, acceptor molecule, acceptor atom, score
      L1  H     8    29       P1  8028  0.98

> <Gold.Chemscore.Hbond.Weighted>
-3.3325

> <Gold.Chemscore.Metal.Weighted>
-0.0000

> <Gold.Chemscore.Lipo.Weighted>
-12.6600

> <Gold.Chemscore.Internal_Hbond.Weighted>
0.0000

> <Gold.Chemscore.DEClash.Weighted>
0.1434

> <Gold.Chemscore.DEInternal.Weighted>
1.5449

> <Gold.Chemscore.Rot.Weighted>
3.9635

> <Gold.Chemscore.Internal.Correction.Weighted>
   9.000000E+99

> <Gold.Protein.RotatedTorsions>
[ 6907 6896 6895 6894 ] final -131.25 input  -60.11 | X-H torsion
[ 7974 7965 7964 7962 ] final -145.76 input  175.53 | X-H torsion
[ 8008 7997 7996 7995 ] final  -15.65 input   59.86 | X-H torsion
[ 10167 10162 10161 10158 ] final -119.49 input  -65.29 | X-H torsion
[ 10718 10713 10712 10709 ] final   88.01 input   66.30 | X-H torsion
[ 10763 10752 10751 10750 ] final  -12.98 input  -60.55 | X-H torsion
[ 11005 11000 10999 10996 ] final   58.77 input  -57.11 | X-H torsion

> <Gold.Protein.ActiveResidues>
 VAL166  LYS551  ARG553  GLY616  TRP617  ASP618  TYR619  PRO620  LYS621  CYS622 
 ASP623  PHE694  ASN695  SER759  ASP760  ASP761  ALA762  ILE779  LEU786  VAL792 
 PHE793  MET794  SER795  GLU796  ALA797  LYS798  CYS799  TRP800  GLU811  SER814 

> <Gold.Protein.RotatedAtoms>
  150.9489  133.6572  159.2775 H   0  0  0  0  0  0  0  0  0  0  0  0  # atno 6907 bound_to 6896
  151.3935  135.0958  159.9543 H   0  0  0  0  0  0  0  0  0  0  0  0  # atno 6908 bound_to 6896
  152.5101  133.8998  159.7490 H   0  0  0  0  0  0  0  0  0  0  0  0  # atno 6909 bound_to 6896
  144.8205  140.5542  143.5581 H   0  0  0  0  0  0  0  0  0  0  0  0  # atno 7974 bound_to 7965
  154.5113  140.2190  155.9150 H   0  0  0  0  0  0  0  0  0  0  0  0  # atno 8008 bound_to 7997
  156.1556  140.3152  155.8686 H   0  0  0  0  0  0  0  0  0  0  0  0  # atno 8009 bound_to 7997
  155.3853  140.0475  157.3033 H   0  0  0  0  0  0  0  0  0  0  0  0  # atno 8010 bound_to 7997
  140.0460  143.5106  152.2106 H   0  0  0  0  0  0  0  0  0  0  0  0  # atno 10167 bound_to 10162
  157.6945  131.0278  150.3210 H   0  0  0  0  0  0  0  0  0  0  0  0  # atno 10718 bound_to 10713
  153.5065  135.7017  153.5803 H   0  0  0  0  0  0  0  0  0  0  0  0  # atno 10763 bound_to 10752
  153.3912  135.3895  155.1924 H   0  0  0  0  0  0  0  0  0  0  0  0  # atno 10764 bound_to 10752
  154.8706  135.3859  154.4541 H   0  0  0  0  0  0  0  0  0  0  0  0  # atno 10765 bound_to 10752
  140.0352  134.5953  155.9453 H   0  0  0  0  0  0  0  0  0  0  0  0  # atno 11005 bound_to 11000
  145.5116  139.1479  143.3602 LP  0  0  0  0  0  0  0  0  0  0  0  0  # atno 17320 bound_to 7965
  146.2510  140.5256  142.8893 LP  0  0  0  0  0  0  0  0  0  0  0  0  # atno 17321 bound_to 7965
  139.5983  144.7574  151.3233 LP  0  0  0  0  0  0  0  0  0  0  0  0  # atno 17342 bound_to 10162
  140.7238  143.7060  150.7807 LP  0  0  0  0  0  0  0  0  0  0  0  0  # atno 17343 bound_to 10162
  156.3697  130.3861  149.7185 LP  0  0  0  0  0  0  0  0  0  0  0  0  # atno 17370 bound_to 10713
  156.4603  130.7949  151.2969 LP  0  0  0  0  0  0  0  0  0  0  0  0  # atno 17371 bound_to 10713
  141.1853  133.6555  156.5194 LP  0  0  0  0  0  0  0  0  0  0  0  0  # atno 17394 bound_to 11000
  140.4159  134.7231  157.4862 LP  0  0  0  0  0  0  0  0  0  0  0  0  # atno 17395 bound_to 11000

$$$$
