AV-unprocessed.smi:2591|AV-procd|sdf|10156|dock7
  -GOLD-   2272014163D 1   1.00000     0.00000
 Structure written by MMmdl.
 35 36  0  0  0  0  0  0  0  0  2 V2000
  146.8776  138.9210  152.4619 C   0  0  0  0  0  0  0  0  0  0  0  0
  147.7782  138.4039  153.5143 N   0  3  2  0  0  0  0  0  0  0  0  0
  147.0548  137.6675  154.5750 C   0  0  0  0  0  0  0  0  0  0  0  0
  148.0479  137.1171  155.6110 C   0  0  0  0  0  0  0  0  0  0  0  0
  148.8168  138.1854  156.1503 O   0  0  0  0  0  0  0  0  0  0  0  0
  149.5903  138.8584  155.1593 C   0  0  2  0  0  0  0  0  0  0  0  0
  150.4550  139.9145  155.8621 C   0  0  0  0  0  0  0  0  0  0  0  0
  150.7326  140.9696  155.2903 O   0  0  0  0  0  0  0  0  0  0  0  0
  150.8784  139.5843  157.0973 N   0  0  0  0  0  0  0  0  0  0  0  0
  151.6805  140.3469  157.9872 C   0  0  0  0  0  0  0  0  0  0  0  0
  151.4073  141.7329  157.9995 C   0  0  0  0  0  0  0  0  0  0  0  0
  152.1481  142.5844  158.8478 C   0  0  0  0  0  0  0  0  0  0  0  0
  151.8662  144.0783  158.8952 C   0  0  0  0  0  0  0  0  0  0  0  0
  150.6580  144.3487  158.3998 F   0  0  0  0  0  0  0  0  0  0  0  0
  151.9161  144.5322  160.1481 F   0  0  0  0  0  0  0  0  0  0  0  0
  152.7816  144.7194  158.1698 F   0  0  0  0  0  0  0  0  0  0  0  0
  153.1420  142.0111  159.6664 C   0  0  0  0  0  0  0  0  0  0  0  0
  153.3511  140.6223  159.5910 C   0  0  0  0  0  0  0  0  0  0  0  0
  152.6441  139.8120  158.7765 N   0  0  0  0  0  0  0  0  0  0  0  0
  148.6386  139.4586  154.0974 C   0  0  0  0  0  0  0  0  0  0  0  0
  146.1812  139.6558  152.8680 H   0  0  0  0  0  0  0  0  0  0  0  0
  146.2996  138.1103  152.0175 H   0  0  0  0  0  0  0  0  0  0  0  0
  147.4510  139.3968  151.6656 H   0  0  0  0  0  0  0  0  0  0  0  0
  146.3386  138.3324  155.0605 H   0  0  0  0  0  0  0  0  0  0  0  0
  146.4855  136.8482  154.1340 H   0  0  0  0  0  0  0  0  0  0  0  0
  147.5105  136.6255  156.4220 H   0  0  0  0  0  0  0  0  0  0  0  0
  148.7046  136.3689  155.1644 H   0  0  0  0  0  0  0  0  0  0  0  0
  150.2656  138.1439  154.6844 H   0  0  0  0  0  0  0  0  0  0  0  0
  150.5904  138.6798  157.4407 H   0  0  0  0  0  0  0  0  0  0  0  0
  150.6319  142.1406  157.3671 H   0  0  0  0  0  0  0  0  0  0  0  0
  153.7308  142.6165  160.3395 H   0  0  0  0  0  0  0  0  0  0  0  0
  154.1045  140.1480  160.2023 H   0  0  0  0  0  0  0  0  0  0  0  0
  149.2146  139.9320  153.3008 H   0  0  0  0  0  0  0  0  0  0  0  0
  148.0077  140.2308  154.5423 H   0  0  0  0  0  0  0  0  0  0  0  0
  148.3942  137.7393  153.0676 H   0  0  0  0  0  0  0  0  0  0  0  0
  1  2  1  0  0  0  0
  1 21  1  0  0  0  0
  1 22  1  0  0  0  0
  1 23  1  0  0  0  0
  2 20  1  0  0  0  0
  2  3  1  0  0  0  0
  2 35  1  0  0  0  0
  3  4  1  0  0  0  0
  3 24  1  0  0  0  0
  3 25  1  0  0  0  0
  4  5  1  0  0  0  0
  4 26  1  0  0  0  0
  4 27  1  0  0  0  0
  5  6  1  0  0  0  0
  6  7  1  0  0  0  0
  6 20  1  0  0  0  0
  6 28  1  0  0  0  0
  7  8  2  0  0  0  0
  7  9  1  0  0  0  0
  9 10  1  0  0  0  0
  9 29  1  0  0  0  0
 10 19  1  0  0  0  0
 10 11  2  0  0  0  0
 11 12  1  0  0  0  0
 11 30  1  0  0  0  0
 12 13  1  0  0  0  0
 12 17  2  0  0  0  0
 13 14  1  0  0  0  0
 13 15  1  0  0  0  0
 13 16  1  0  0  0  0
 17 18  1  0  0  0  0
 17 31  1  0  0  0  0
 18 19  2  0  0  0  0
 18 32  1  0  0  0  0
 20 33  1  0  0  0  0
 20 34  1  0  0  0  0
M  CHG  1   2   1
M  END
> <s_m_source_file>
AV-unprocessed.smi

> <i_m_source_file_index>
2591

> <i_lp_mmshare_version>
43012

> <i_f3d_flags>
0

> <s_epik_input>
W0NIM11OMVtDSDJdW0NIMl1PW0NASF0oW0NIMl0xKUMoPU8pW05IXWMyW2NIXWMoQyhGKShGKUYpW2NIXVtjSF1uMg==

> <s_epik_cmdline>
J2VwaWtfcHl0aG9uJywgJy1waCcsICc3LjAnLCAnLXRuJywgJzgnLCAnLW1hJywgJzIwMCcsICctbWV0YWxfYmluZGluZycsICctaW1hZScsICc8aW5maWxlLm1hZT4nLCAnLW9tYWUnLCAnPG91dGZpbGUubWFlPic=

> <r_epik_Ionization_Penalty>
0.314028

> <r_epik_Ionization_Penalty_Charging>
0.314023

> <r_epik_Ionization_Penalty_Neutral>
5.2303e-06

> <r_epik_State_Penalty>
0.308208

> <r_epik_Charging_Adjusted_Penalty>
0.62223

> <i_epik_Tot_Q>
1

> <i_epik_Tot_abs_Q>
1

> <r_epik_Metal_State_Penalty>
0.308209

> <b_epik_Metal_Only>
0

> <s_lp_Force_Field>
OPLS_2005

> <r_lp_Energy>
17.9232

> <b_lp_Chiralities_Consistent>
1

> <s_lp_Variant>
AV-unprocessed.smi:2591-4

> <Gold.Version>
5.8.1

> <Gold.Id.Protein>
6NUR|6NUR_protein|mol2

> <Gold.PLP.Fitness>
44.0016

> <Gold.PLP.PLP>
-38.4482

> <Gold.PLP.part.hbond>
-2.0000

> <Gold.PLP.part.metal>
0.0000

> <Gold.PLP.part.buried>
-2.9069

> <Gold.PLP.part.nonpolar>
-33.8555

> <Gold.PLP.part.repulsive>
0.1331

> <Gold.PLP.ligand.clash>
0.0000

> <Gold.PLP.ligand.torsion>
1.8317

> <Gold.PLP.Chemscore.Hbond>
2.7360

> <Gold.PLP.Chemscore.CHOScore>
0.0000

> <Gold.PLP.Chemscore.Metal>
0.0000

> <Gold.Chemscore.Hbonds>
donor molecule, donor type, donor heavy atom, donor atom, acceptor molecule, acceptor atom, score
      L1  H     2    35       P1  7948  2.00
      P1  H  7989  7998       L1     8  0.74

> <Gold.PLP.Chemscore.Internal.Correction>
1.0088

> <Gold.Rescore>
     Score         DG    S(hbond)    S(metal)    S(lipo)     H(rot)  DE(clash)    DE(int)     intcor
     14.05     -17.30       1.88        0.00      69.28       1.00       0.15       3.09       ----

> <Gold.Chemscore.Fitness>
14.0520

> <Gold.Chemscore.DG>
-17.2958

> <Gold.Chemscore.ZeroCoef>
-5.4800

> <Gold.Chemscore.Hbond>
1.8774

> <Gold.Chemscore.Metal>
0.0000

> <Gold.Chemscore.Lipo>
69.2755

> <Gold.Chemscore.Internal_Hbond>
0.0000

> <Gold.Chemscore.DEClash>
0.1522

> <Gold.Chemscore.DEInternal>
3.0916

> <Gold.Chemscore.Rot>
1.0000

> <Gold.Chemscore.Internal.Correction>
   9.000000E+99

> <Gold.Chemscore.Hbonds>
donor molecule, donor type, donor heavy atom, donor atom, acceptor molecule, acceptor atom, score
      L1  H     2    35       P1  7948  0.96
      P1  H  7989  7998       L1     8  0.69

> <Gold.Chemscore.Hbond.Weighted>
-6.2706

> <Gold.Chemscore.Metal.Weighted>
-0.0000

> <Gold.Chemscore.Lipo.Weighted>
-8.1052

> <Gold.Chemscore.Internal_Hbond.Weighted>
0.0000

> <Gold.Chemscore.DEClash.Weighted>
0.1522

> <Gold.Chemscore.DEInternal.Weighted>
3.0916

> <Gold.Chemscore.Rot.Weighted>
2.5600

> <Gold.Chemscore.Internal.Correction.Weighted>
   9.000000E+99

> <Gold.Protein.RotatedTorsions>
[ 6907 6896 6895 6894 ] final    9.68 input  -60.11 | X-H torsion
[ 7974 7965 7964 7962 ] final  117.60 input  175.53 | X-H torsion
[ 8008 7997 7996 7995 ] final  -46.06 input   59.86 | X-H torsion
[ 10167 10162 10161 10158 ] final  -98.67 input  -65.29 | X-H torsion
[ 10718 10713 10712 10709 ] final   56.65 input   66.30 | X-H torsion
[ 10763 10752 10751 10750 ] final  -69.09 input  -60.55 | X-H torsion
[ 11005 11000 10999 10996 ] final  102.19 input  -57.11 | X-H torsion

> <Gold.Protein.ActiveResidues>
 VAL166  LYS551  ARG553  GLY616  TRP617  ASP618  TYR619  PRO620  LYS621  CYS622 
 ASP623  PHE694  ASN695  SER759  ASP760  ASP761  ALA762  ILE779  LEU786  VAL792 
 PHE793  MET794  SER795  GLU796  ALA797  LYS798  CYS799  TRP800  GLU811  SER814 

> <Gold.Protein.RotatedAtoms>
  151.7260  135.0884  160.0291 H   0  0  0  0  0  0  0  0  0  0  0  0  # atno 6907 bound_to 6896
  152.3571  133.6247  159.5996 H   0  0  0  0  0  0  0  0  0  0  0  0  # atno 6908 bound_to 6896
  150.7579  133.9398  159.3494 H   0  0  0  0  0  0  0  0  0  0  0  0  # atno 6909 bound_to 6896
  145.1654  139.3131  143.4495 H   0  0  0  0  0  0  0  0  0  0  0  0  # atno 7974 bound_to 7965
  154.4004  140.1381  156.3949 H   0  0  0  0  0  0  0  0  0  0  0  0  # atno 8008 bound_to 7997
  155.7879  140.3479  155.5313 H   0  0  0  0  0  0  0  0  0  0  0  0  # atno 8009 bound_to 7997
  155.8608  140.0956  157.1605 H   0  0  0  0  0  0  0  0  0  0  0  0  # atno 8010 bound_to 7997
  140.2705  143.3347  152.0539 H   0  0  0  0  0  0  0  0  0  0  0  0  # atno 10167 bound_to 10162
  157.5449  130.8723  149.8876 H   0  0  0  0  0  0  0  0  0  0  0  0  # atno 10718 bound_to 10713
  154.3984  135.6036  153.5883 H   0  0  0  0  0  0  0  0  0  0  0  0  # atno 10763 bound_to 10752
  152.9788  135.5900  154.4213 H   0  0  0  0  0  0  0  0  0  0  0  0  # atno 10764 bound_to 10752
  154.4008  135.2843  155.2076 H   0  0  0  0  0  0  0  0  0  0  0  0  # atno 10765 bound_to 10752
  139.8776  134.9214  156.5021 H   0  0  0  0  0  0  0  0  0  0  0  0  # atno 11005 bound_to 11000
  146.3476  140.1780  142.8589 LP  0  0  0  0  0  0  0  0  0  0  0  0  # atno 17320 bound_to 7965
  145.0287  140.8853  143.5122 LP  0  0  0  0  0  0  0  0  0  0  0  0  # atno 17321 bound_to 7965
  139.4990  144.6659  151.6356 LP  0  0  0  0  0  0  0  0  0  0  0  0  # atno 17342 bound_to 10162
  140.5894  143.9807  150.6315 LP  0  0  0  0  0  0  0  0  0  0  0  0  # atno 17343 bound_to 10162
  156.0527  130.3714  150.1163 LP  0  0  0  0  0  0  0  0  0  0  0  0  # atno 17370 bound_to 10713
  156.9340  130.9723  151.3528 LP  0  0  0  0  0  0  0  0  0  0  0  0  # atno 17371 bound_to 10713
  140.8582  133.8080  155.9238 LP  0  0  0  0  0  0  0  0  0  0  0  0  # atno 17394 bound_to 11000
  140.9076  134.2301  157.5005 LP  0  0  0  0  0  0  0  0  0  0  0  0  # atno 17395 bound_to 11000

$$$$
