AV-unprocessed.smi:1047|AV-procd|sdf|4572|dock10
  -GOLD-   22720 3 33D 1   1.00000     0.00000
 Structure written by MMmdl.
 56 58  0  0  0  0  0  0  0  0  2 V2000
  148.0443  133.7135  153.9941 C   0  0  0  0  0  0  0  0  0  0  0  0
  147.7459  135.0310  154.7238 C   0  0  0  0  0  0  0  0  0  0  0  0
  147.3367  136.1152  153.7965 N   0  3  1  0  0  0  0  0  0  0  0  0
  145.9563  135.9323  153.2893 C   0  0  0  0  0  0  0  0  0  0  0  0
  145.5961  137.0491  152.2963 C   0  0  0  0  0  0  0  0  0  0  0  0
  145.7613  138.3132  152.9251 O   0  0  0  0  0  0  0  0  0  0  0  0
  147.1082  138.5461  153.3247 C   0  0  1  0  0  0  0  0  0  0  0  0
  147.1917  139.9659  153.9042 C   0  0  0  0  0  0  0  0  0  0  0  0
  148.5621  140.4627  153.8637 N   0  0  0  0  0  0  0  0  0  0  0  0
  148.7762  141.6624  154.6700 C   0  0  0  0  0  0  0  0  0  0  0  0
  149.4801  141.3424  156.0013 C   0  0  2  0  0  0  0  0  0  0  0  0
  149.0897  142.2901  156.9765 O   0  0  0  0  0  0  0  0  0  0  0  0
  151.0156  141.2450  155.8888 C   0  0  0  0  0  0  0  0  0  0  0  0
  151.6377  140.8488  157.1390 N   0  0  0  0  0  0  0  0  0  0  0  0
  152.1346  139.6363  157.4493 C   0  0  0  0  0  0  0  0  0  0  0  0
  152.6623  139.4868  158.6608 N   0  0  0  0  0  0  0  0  0  0  0  0
  152.4915  140.7515  159.1977 C   0  0  0  0  0  0  0  0  0  0  0  0
  152.8416  141.2643  160.4659 C   0  0  0  0  0  0  0  0  0  0  0  0
  152.5687  142.6088  160.8046 C   0  0  0  0  0  0  0  0  0  0  0  0
  152.9654  143.1192  162.1787 C   0  0  0  0  0  0  0  0  0  0  0  0
  151.9345  143.4632  159.8672 C   0  0  0  0  0  0  0  0  0  0  0  0
  151.6353  144.9125  160.2075 C   0  0  0  0  0  0  0  0  0  0  0  0
  151.5747  142.9660  158.5972 C   0  0  0  0  0  0  0  0  0  0  0  0
  151.8537  141.6270  158.2710 C   0  0  0  0  0  0  0  0  0  0  0  0
  147.5014  137.4771  154.3631 C   0  0  0  0  0  0  0  0  0  0  0  0
  148.2553  132.9193  154.7104 H   0  0  0  0  0  0  0  0  0  0  0  0
  148.9109  133.7946  153.3388 H   0  0  0  0  0  0  0  0  0  0  0  0
  147.1931  133.3954  153.3913 H   0  0  0  0  0  0  0  0  0  0  0  0
  146.9362  134.8440  155.4306 H   0  0  0  0  0  0  0  0  0  0  0  0
  148.6062  135.3471  155.3156 H   0  0  0  0  0  0  0  0  0  0  0  0
  145.8649  134.9628  152.7981 H   0  0  0  0  0  0  0  0  0  0  0  0
  145.2558  135.9363  154.1260 H   0  0  0  0  0  0  0  0  0  0  0  0
  146.2145  136.9898  151.3992 H   0  0  0  0  0  0  0  0  0  0  0  0
  144.5593  136.9468  151.9757 H   0  0  0  0  0  0  0  0  0  0  0  0
  147.7713  138.4688  152.4603 H   0  0  0  0  0  0  0  0  0  0  0  0
  146.5248  140.6312  153.3542 H   0  0  0  0  0  0  0  0  0  0  0  0
  146.8443  139.9589  154.9381 H   0  0  0  0  0  0  0  0  0  0  0  0
  148.8274  140.6557  152.9026 H   0  0  0  0  0  0  0  0  0  0  0  0
  149.3685  142.3889  154.1120 H   0  0  0  0  0  0  0  0  0  0  0  0
  147.8178  142.1402  154.8766 H   0  0  0  0  0  0  0  0  0  0  0  0
  149.1046  140.3782  156.3466 H   0  0  0  0  0  0  0  0  0  0  0  0
  149.2719  143.1554  156.6426 H   0  0  0  0  0  0  0  0  0  0  0  0
  151.2902  140.5183  155.1232 H   0  0  0  0  0  0  0  0  0  0  0  0
  151.4453  142.1983  155.5801 H   0  0  0  0  0  0  0  0  0  0  0  0
  152.1050  138.8160  156.7467 H   0  0  0  0  0  0  0  0  0  0  0  0
  153.3250  140.6133  161.1794 H   0  0  0  0  0  0  0  0  0  0  0  0
  153.7100  143.9103  162.0904 H   0  0  0  0  0  0  0  0  0  0  0  0
  153.3923  142.3242  162.7907 H   0  0  0  0  0  0  0  0  0  0  0  0
  152.0979  143.5165  162.7056 H   0  0  0  0  0  0  0  0  0  0  0  0
  151.1773  145.4325  159.3657 H   0  0  0  0  0  0  0  0  0  0  0  0
  152.5525  145.4414  160.4672 H   0  0  0  0  0  0  0  0  0  0  0  0
  150.9488  144.9726  161.0522 H   0  0  0  0  0  0  0  0  0  0  0  0
  151.0878  143.6047  157.8751 H   0  0  0  0  0  0  0  0  0  0  0  0
  146.8861  137.5778  155.2589 H   0  0  0  0  0  0  0  0  0  0  0  0
  148.5359  137.6353  154.6665 H   0  0  0  0  0  0  0  0  0  0  0  0
  147.9445  136.0537  152.9920 H   0  0  0  0  0  0  0  0  0  0  0  0
  1  2  1  0  0  0  0
  1 26  1  0  0  0  0
  1 27  1  0  0  0  0
  1 28  1  0  0  0  0
  2  3  1  0  0  0  0
  2 29  1  0  0  0  0
  2 30  1  0  0  0  0
  3 25  1  0  0  0  0
  3  4  1  0  0  0  0
  3 56  1  0  0  0  0
  4  5  1  0  0  0  0
  4 31  1  0  0  0  0
  4 32  1  0  0  0  0
  5  6  1  0  0  0  0
  5 33  1  0  0  0  0
  5 34  1  0  0  0  0
  6  7  1  0  0  0  0
  7  8  1  0  0  0  0
  7 25  1  0  0  0  0
  7 35  1  0  0  0  0
  8  9  1  0  0  0  0
  8 36  1  0  0  0  0
  8 37  1  0  0  0  0
  9 10  1  0  0  0  0
  9 38  1  0  0  0  0
 10 11  1  0  0  0  0
 10 39  1  0  0  0  0
 10 40  1  0  0  0  0
 11 12  1  0  0  0  0
 11 13  1  0  0  0  0
 11 41  1  0  0  0  0
 12 42  1  0  0  0  0
 13 14  1  0  0  0  0
 13 43  1  0  0  0  0
 13 44  1  0  0  0  0
 14 24  1  0  0  0  0
 14 15  1  0  0  0  0
 15 16  2  0  0  0  0
 15 45  1  0  0  0  0
 16 17  1  0  0  0  0
 17 24  2  0  0  0  0
 17 18  1  0  0  0  0
 18 19  2  0  0  0  0
 18 46  1  0  0  0  0
 19 20  1  0  0  0  0
 19 21  1  0  0  0  0
 20 47  1  0  0  0  0
 20 48  1  0  0  0  0
 20 49  1  0  0  0  0
 21 22  1  0  0  0  0
 21 23  2  0  0  0  0
 22 50  1  0  0  0  0
 22 51  1  0  0  0  0
 22 52  1  0  0  0  0
 23 24  1  0  0  0  0
 23 53  1  0  0  0  0
 25 54  1  0  0  0  0
 25 55  1  0  0  0  0
M  CHG  1   3   1
M  END
> <s_m_source_file>
AV-unprocessed.smi

> <i_m_source_file_index>
1047

> <i_lp_mmshare_version>
43012

> <i_f3d_flags>
0

> <s_epik_input>
W0NIM11bQ0gyXU4xW0NIMl1bQ0gyXU9bQ0BIXShbQ0gyXTEpW0NIMl1bTkhdW0NIMl1bQ0BIXShbT0hdKVtDSDJdbihbY0hdbjIpYyhjMjMpW2NIXWMoW0NIM10pYyhbY0hdMylbQ0gzXQ==

> <s_epik_cmdline>
J2VwaWtfcHl0aG9uJywgJy1waCcsICc3LjAnLCAnLXRuJywgJzgnLCAnLW1hJywgJzIwMCcsICctbWV0YWxfYmluZGluZycsICctaW1hZScsICc8aW5maWxlLm1hZT4nLCAnLW9tYWUnLCAnPG91dGZpbGUubWFlPic=

> <r_epik_Ionization_Penalty>
1.19246

> <r_epik_Ionization_Penalty_Charging>
0.210041

> <r_epik_Ionization_Penalty_Neutral>
0.982415

> <r_epik_State_Penalty>
1.57595

> <r_epik_Charging_Adjusted_Penalty>
1.78599

> <i_epik_Tot_Q>
1

> <i_epik_Tot_abs_Q>
1

> <r_epik_Metal_State_Penalty>
1.46172

> <b_epik_Metal_Only>
0

> <s_lp_Force_Field>
OPLS_2005

> <r_lp_Energy>
30.4626

> <b_lp_Chiralities_Consistent>
1

> <s_lp_Variant>
AV-unprocessed.smi:1047-13

> <Gold.Version>
5.8.1

> <Gold.Id.Protein>
6NUR|6NUR_protein|mol2

> <Gold.PLP.Fitness>
55.4507

> <Gold.PLP.PLP>
-45.7157

> <Gold.PLP.part.hbond>
-3.0000

> <Gold.PLP.part.metal>
0.0000

> <Gold.PLP.part.buried>
-5.4464

> <Gold.PLP.part.nonpolar>
-37.9616

> <Gold.PLP.part.repulsive>
0.8084

> <Gold.PLP.ligand.clash>
0.0000

> <Gold.PLP.ligand.torsion>
1.2273

> <Gold.PLP.Chemscore.Hbond>
4.0000

> <Gold.PLP.Chemscore.CHOScore>
0.0000

> <Gold.PLP.Chemscore.Metal>
0.0000

> <Gold.Chemscore.Hbonds>
donor molecule, donor type, donor heavy atom, donor atom, acceptor molecule, acceptor atom, score
      L1  H     3    56       P1  7948  1.95
      L1  H     9    38       P1  7957  1.00
      L1  H    12    42       P1  8028  1.00

> <Gold.PLP.Chemscore.Internal.Correction>
0.1897

> <Gold.Rescore>
     Score         DG    S(hbond)    S(metal)    S(lipo)     H(rot)  DE(clash)    DE(int)     intcor
     22.38     -23.71       2.97        0.00     128.39       2.62       0.15       1.18       ----

> <Gold.Chemscore.Fitness>
22.3779

> <Gold.Chemscore.DG>
-23.7125

> <Gold.Chemscore.ZeroCoef>
-5.4800

> <Gold.Chemscore.Hbond>
2.9703

> <Gold.Chemscore.Metal>
0.0000

> <Gold.Chemscore.Lipo>
128.3874

> <Gold.Chemscore.Internal_Hbond>
0.0000

> <Gold.Chemscore.DEClash>
0.1548

> <Gold.Chemscore.DEInternal>
1.1798

> <Gold.Chemscore.Rot>
2.6209

> <Gold.Chemscore.Internal.Correction>
   9.000000E+99

> <Gold.Chemscore.Hbonds>
donor molecule, donor type, donor heavy atom, donor atom, acceptor molecule, acceptor atom, score
      L1  H     3    56       P1  7948  0.92
      L1  H     9    38       P1  7957  0.92
      L1  H    12    42       P1  8028  0.98

> <Gold.Chemscore.Hbond.Weighted>
-9.9208

> <Gold.Chemscore.Metal.Weighted>
-0.0000

> <Gold.Chemscore.Lipo.Weighted>
-15.0213

> <Gold.Chemscore.Internal_Hbond.Weighted>
0.0000

> <Gold.Chemscore.DEClash.Weighted>
0.1548

> <Gold.Chemscore.DEInternal.Weighted>
1.1798

> <Gold.Chemscore.Rot.Weighted>
6.7096

> <Gold.Chemscore.Internal.Correction.Weighted>
   9.000000E+99

> <Gold.Protein.RotatedTorsions>
[ 6907 6896 6895 6894 ] final  -89.64 input  -60.11 | X-H torsion
[ 7974 7965 7964 7962 ] final  173.44 input  175.53 | X-H torsion
[ 8008 7997 7996 7995 ] final   36.59 input   59.86 | X-H torsion
[ 10167 10162 10161 10158 ] final    2.83 input  -65.29 | X-H torsion
[ 10718 10713 10712 10709 ] final  -91.38 input   66.30 | X-H torsion
[ 10763 10752 10751 10750 ] final  -48.28 input  -60.55 | X-H torsion
[ 11005 11000 10999 10996 ] final -118.49 input  -57.11 | X-H torsion

> <Gold.Protein.ActiveResidues>
 VAL166  LYS551  ARG553  GLY616  TRP617  ASP618  TYR619  PRO620  LYS621  CYS622 
 ASP623  PHE694  ASN695  SER759  ASP760  ASP761  ALA762  ILE779  LEU786  VAL792 
 PHE793  MET794  SER795  GLU796  ALA797  LYS798  CYS799  TRP800  GLU811  SER814 

> <Gold.Protein.RotatedAtoms>
  150.6875  134.2556  159.4528 H   0  0  0  0  0  0  0  0  0  0  0  0  # atno 6907 bound_to 6896
  152.0490  134.9663  160.0584 H   0  0  0  0  0  0  0  0  0  0  0  0  # atno 6908 bound_to 6896
  152.1134  133.4278  159.4679 H   0  0  0  0  0  0  0  0  0  0  0  0  # atno 6909 bound_to 6896
  144.7244  139.9648  143.6435 H   0  0  0  0  0  0  0  0  0  0  0  0  # atno 7974 bound_to 7965
  155.1899  140.3307  155.4360 H   0  0  0  0  0  0  0  0  0  0  0  0  # atno 8008 bound_to 7997
  156.2446  140.1912  156.6942 H   0  0  0  0  0  0  0  0  0  0  0  0  # atno 8009 bound_to 7997
  154.6213  140.0595  156.9604 H   0  0  0  0  0  0  0  0  0  0  0  0  # atno 8010 bound_to 7997
  140.6616  143.7290  150.7748 H   0  0  0  0  0  0  0  0  0  0  0  0  # atno 10167 bound_to 10162
  155.9993  130.4946  150.5465 H   0  0  0  0  0  0  0  0  0  0  0  0  # atno 10718 bound_to 10713
  154.0751  135.6599  153.4830 H   0  0  0  0  0  0  0  0  0  0  0  0  # atno 10763 bound_to 10752
  153.0376  135.5166  154.7529 H   0  0  0  0  0  0  0  0  0  0  0  0  # atno 10764 bound_to 10752
  154.6606  135.3014  154.9838 H   0  0  0  0  0  0  0  0  0  0  0  0  # atno 10765 bound_to 10752
  141.0282  134.0022  157.3183 H   0  0  0  0  0  0  0  0  0  0  0  0  # atno 11005 bound_to 11000
  146.0609  139.3602  143.0582 LP  0  0  0  0  0  0  0  0  0  0  0  0  # atno 17320 bound_to 7965
  145.8094  140.9733  143.0957 LP  0  0  0  0  0  0  0  0  0  0  0  0  # atno 17321 bound_to 7965
  140.0959  143.4833  152.2452 LP  0  0  0  0  0  0  0  0  0  0  0  0  # atno 17342 bound_to 10162
  139.5851  144.7527  151.3540 LP  0  0  0  0  0  0  0  0  0  0  0  0  # atno 17343 bound_to 10162
  157.3394  131.0714  151.1799 LP  0  0  0  0  0  0  0  0  0  0  0  0  # atno 17370 bound_to 10713
  157.2653  130.6678  149.5993 LP  0  0  0  0  0  0  0  0  0  0  0  0  # atno 17371 bound_to 10713
  139.9190  135.0199  156.7992 LP  0  0  0  0  0  0  0  0  0  0  0  0  # atno 17394 bound_to 11000
  140.6454  133.9780  155.7728 LP  0  0  0  0  0  0  0  0  0  0  0  0  # atno 17395 bound_to 11000

$$$$
