AV-unprocessed.smi:3244|AV-procd|sdf|12400|dock6
  -GOLD-   2272018273D 1   1.00000     0.00000
 Structure written by MMmdl.
 40 41  0  0  0  0  0  0  0  0  1 V2000
  147.4636  138.8569  153.8484 C   0  0  0  0  0  0  0  0  0  0  0  0
  147.7328  140.3306  153.5022 C   0  0  0  0  0  0  0  0  0  0  0  0
  148.1481  141.1078  154.6822 N   0  0  0  0  0  0  0  0  0  0  0  0
  149.3243  140.8281  155.3024 C   0  0  0  0  0  0  0  0  0  0  0  0
  150.1550  140.0550  154.8234 O   0  0  0  0  0  0  0  0  0  0  0  0
  149.6537  141.4770  156.6542 C   0  0  0  0  0  0  0  0  0  0  0  0
  150.5719  142.6130  156.5031 N   0  0  0  0  0  0  0  0  0  0  0  0
  151.2012  143.0173  157.7566 C   0  0  2  0  0  0  0  0  0  0  0  0
  152.2432  144.1181  157.4941 C   0  0  0  0  0  0  0  0  0  0  0  0
  151.8528  141.7785  158.4045 C   0  0  0  0  0  0  0  0  0  0  0  0
  152.3826  142.0568  159.7296 N   0  0  0  0  0  0  0  0  0  0  0  0
  152.0396  143.0771  160.5919 C   0  0  0  0  0  0  0  0  0  0  0  0
  152.7995  142.9317  161.7171 C   0  0  0  0  0  0  0  0  0  0  0  0
  153.5923  141.7825  161.4430 C   0  0  0  0  0  0  0  0  0  0  0  0
  153.3430  141.2631  160.2517 N   0  0  0  0  0  0  0  0  0  0  0  0
  147.1350  141.9731  155.2308 C   0  0  0  0  0  0  0  0  0  0  0  0
  145.6697  141.7516  154.9001 C   0  0  0  0  0  0  0  0  0  0  0  0
  146.3916  142.9401  154.3284 C   0  0  0  0  0  0  0  0  0  0  0  0
  147.1271  138.3098  152.9677 H   0  0  0  0  0  0  0  0  0  0  0  0
  146.6877  138.7684  154.6096 H   0  0  0  0  0  0  0  0  0  0  0  0
  148.3576  138.3575  154.2223 H   0  0  0  0  0  0  0  0  0  0  0  0
  148.4961  140.3961  152.7250 H   0  0  0  0  0  0  0  0  0  0  0  0
  146.8326  140.7452  153.0510 H   0  0  0  0  0  0  0  0  0  0  0  0
  148.7257  141.8200  157.1123 H   0  0  0  0  0  0  0  0  0  0  0  0
  150.0688  140.7324  157.3316 H   0  0  0  0  0  0  0  0  0  0  0  0
  150.1256  143.4068  156.0660 H   0  0  0  0  0  0  0  0  0  0  0  0
  150.4441  143.4000  158.4433 H   0  0  0  0  0  0  0  0  0  0  0  0
  152.7568  144.3932  158.4157 H   0  0  0  0  0  0  0  0  0  0  0  0
  151.7858  145.0260  157.1014 H   0  0  0  0  0  0  0  0  0  0  0  0
  153.0000  143.7885  156.7810 H   0  0  0  0  0  0  0  0  0  0  0  0
  151.1411  140.9529  158.4646 H   0  0  0  0  0  0  0  0  0  0  0  0
  152.6805  141.4275  157.7872 H   0  0  0  0  0  0  0  0  0  0  0  0
  151.2877  143.8095  160.3377 H   0  0  0  0  0  0  0  0  0  0  0  0
  152.7903  143.5515  162.6012 H   0  0  0  0  0  0  0  0  0  0  0  0
  154.3360  141.3136  162.0700 H   0  0  0  0  0  0  0  0  0  0  0  0
  147.3307  142.3211  156.2427 H   0  0  0  0  0  0  0  0  0  0  0  0
  145.3984  140.9665  154.1970 H   0  0  0  0  0  0  0  0  0  0  0  0
  144.9456  141.9375  155.6908 H   0  0  0  0  0  0  0  0  0  0  0  0
  146.1519  143.9203  154.7345 H   0  0  0  0  0  0  0  0  0  0  0  0
  146.6026  142.9181  153.2609 H   0  0  0  0  0  0  0  0  0  0  0  0
  1  2  1  0  0  0  0
  1 19  1  0  0  0  0
  1 20  1  0  0  0  0
  1 21  1  0  0  0  0
  2  3  1  0  0  0  0
  2 22  1  0  0  0  0
  2 23  1  0  0  0  0
  3  4  1  0  0  0  0
  3 16  1  0  0  0  0
  4  5  2  0  0  0  0
  4  6  1  0  0  0  0
  6  7  1  0  0  0  0
  6 24  1  0  0  0  0
  6 25  1  0  0  0  0
  7  8  1  0  0  0  0
  7 26  1  0  0  0  0
  8  9  1  0  0  0  0
  8 10  1  0  0  0  0
  8 27  1  0  0  0  0
  9 28  1  0  0  0  0
  9 29  1  0  0  0  0
  9 30  1  0  0  0  0
 10 11  1  0  0  0  0
 10 31  1  0  0  0  0
 10 32  1  0  0  0  0
 11 15  1  0  0  0  0
 11 12  1  0  0  0  0
 12 13  2  0  0  0  0
 12 33  1  0  0  0  0
 13 14  1  0  0  0  0
 13 34  1  0  0  0  0
 14 15  2  0  0  0  0
 14 35  1  0  0  0  0
 16 18  1  0  0  0  0
 16 17  1  0  0  0  0
 16 36  1  0  0  0  0
 17 18  1  0  0  0  0
 17 37  1  0  0  0  0
 17 38  1  0  0  0  0
 18 39  1  0  0  0  0
 18 40  1  0  0  0  0
M  END
> <s_m_source_file>
AV-unprocessed.smi

> <i_m_source_file_index>
3244

> <i_lp_mmshare_version>
43012

> <i_f3d_flags>
0

> <s_epik_input>
W0NIMl0xW0NIMl1bQ0hdMU4oW0NIMl1bQ0gzXSlDKD1PKVtDSDJdW05IXVtDQEhdKFtDSDNdKVtDSDJdbjJbY0hdW2NIXVtjSF1uMg==

> <s_epik_cmdline>
J2VwaWtfcHl0aG9uJywgJy1waCcsICc3LjAnLCAnLXRuJywgJzgnLCAnLW1hJywgJzIwMCcsICctbWV0YWxfYmluZGluZycsICctaW1hZScsICc8aW5maWxlLm1hZT4nLCAnLW9tYWUnLCAnPG91dGZpbGUubWFlPic=

> <r_lp_tautomer_probability>
1

> <r_epik_Ionization_Penalty>
1.02506

> <r_epik_Ionization_Penalty_Charging>
0

> <r_epik_Ionization_Penalty_Neutral>
1.02506

> <r_epik_State_Penalty>
1.07563

> <r_epik_Charging_Adjusted_Penalty>
1.07563

> <i_epik_Tot_Q>
0

> <i_epik_Tot_abs_Q>
0

> <r_epik_Metal_State_Penalty>
1.07558

> <b_epik_Metal_Only>
0

> <s_lp_Force_Field>
OPLS_2005

> <r_lp_Energy>
34.7243

> <b_lp_Chiralities_Consistent>
1

> <s_lp_Variant>
AV-unprocessed.smi:3244-3

> <Gold.Version>
5.8.1

> <Gold.Id.Protein>
6NUR|6NUR_protein|mol2

> <Gold.PLP.Fitness>
46.9868

> <Gold.PLP.PLP>
-43.4526

> <Gold.PLP.part.hbond>
-2.0000

> <Gold.PLP.part.metal>
0.0000

> <Gold.PLP.part.buried>
-3.2545

> <Gold.PLP.part.nonpolar>
-37.4666

> <Gold.PLP.part.repulsive>
0.1155

> <Gold.PLP.ligand.clash>
0.0000

> <Gold.PLP.ligand.torsion>
1.3019

> <Gold.PLP.Chemscore.Hbond>
1.9120

> <Gold.PLP.Chemscore.CHOScore>
0.0000

> <Gold.PLP.Chemscore.Metal>
0.0000

> <Gold.Chemscore.Hbonds>
donor molecule, donor type, donor heavy atom, donor atom, acceptor molecule, acceptor atom, score
      L1  H     7    26       P1  8028  1.00
      P1  H  7989  7998       L1     5  0.71

> <Gold.PLP.Chemscore.Internal.Correction>
0.4020

> <Gold.Rescore>
     Score         DG    S(hbond)    S(metal)    S(lipo)     H(rot)  DE(clash)    DE(int)     intcor
     17.66     -18.52       1.92        0.00      99.38       1.95       0.02       0.84       ----

> <Gold.Chemscore.Fitness>
17.6633

> <Gold.Chemscore.DG>
-18.5204

> <Gold.Chemscore.ZeroCoef>
-5.4800

> <Gold.Chemscore.Hbond>
1.9215

> <Gold.Chemscore.Metal>
0.0000

> <Gold.Chemscore.Lipo>
99.3786

> <Gold.Chemscore.Internal_Hbond>
0.0000

> <Gold.Chemscore.DEClash>
0.0170

> <Gold.Chemscore.DEInternal>
0.8401

> <Gold.Chemscore.Rot>
1.9550

> <Gold.Chemscore.Internal.Correction>
   9.000000E+99

> <Gold.Chemscore.Hbonds>
donor molecule, donor type, donor heavy atom, donor atom, acceptor molecule, acceptor atom, score
      L1  H     7    26       P1  8028  1.00
      P1  H  7989  7998       L1     5  0.66

> <Gold.Chemscore.Hbond.Weighted>
-6.4178

> <Gold.Chemscore.Metal.Weighted>
-0.0000

> <Gold.Chemscore.Lipo.Weighted>
-11.6273

> <Gold.Chemscore.Internal_Hbond.Weighted>
0.0000

> <Gold.Chemscore.DEClash.Weighted>
0.0170

> <Gold.Chemscore.DEInternal.Weighted>
0.8401

> <Gold.Chemscore.Rot.Weighted>
5.0047

> <Gold.Chemscore.Internal.Correction.Weighted>
   9.000000E+99

> <Gold.Protein.RotatedTorsions>
[ 6907 6896 6895 6894 ] final   31.33 input  -60.11 | X-H torsion
[ 7974 7965 7964 7962 ] final  -36.46 input  175.53 | X-H torsion
[ 8008 7997 7996 7995 ] final   24.37 input   59.86 | X-H torsion
[ 10167 10162 10161 10158 ] final -154.89 input  -65.29 | X-H torsion
[ 10718 10713 10712 10709 ] final  134.06 input   66.30 | X-H torsion
[ 10763 10752 10751 10750 ] final  158.67 input  -60.55 | X-H torsion
[ 11005 11000 10999 10996 ] final   -5.64 input  -57.11 | X-H torsion

> <Gold.Protein.ActiveResidues>
 VAL166  LYS551  ARG553  GLY616  TRP617  ASP618  TYR619  PRO620  LYS621  CYS622 
 ASP623  PHE694  ASN695  SER759  ASP760  ASP761  ALA762  ILE779  LEU786  VAL792 
 PHE793  MET794  SER795  GLU796  ALA797  LYS798  CYS799  TRP800  GLU811  SER814 

> <Gold.Protein.RotatedAtoms>
  152.0588  134.9607  160.0574 H   0  0  0  0  0  0  0  0  0  0  0  0  # atno 6907 bound_to 6896
  152.0979  133.4229  159.4582 H   0  0  0  0  0  0  0  0  0  0  0  0  # atno 6908 bound_to 6896
  150.6838  134.2714  159.4633 H   0  0  0  0  0  0  0  0  0  0  0  0  # atno 6909 bound_to 6896
  146.0660  140.6280  142.8975 H   0  0  0  0  0  0  0  0  0  0  0  0  # atno 7974 bound_to 7965
  154.9952  140.3118  155.4890 H   0  0  0  0  0  0  0  0  0  0  0  0  # atno 8008 bound_to 7997
  156.2933  140.2242  156.4999 H   0  0  0  0  0  0  0  0  0  0  0  0  # atno 8009 bound_to 7997
  154.7667  140.0455  157.1006 H   0  0  0  0  0  0  0  0  0  0  0  0  # atno 8010 bound_to 7997
  139.6976  143.9317  152.2414 H   0  0  0  0  0  0  0  0  0  0  0  0  # atno 10167 bound_to 10162
  157.4711  131.1080  150.9802 H   0  0  0  0  0  0  0  0  0  0  0  0  # atno 10718 bound_to 10713
  154.2197  135.2782  155.2929 H   0  0  0  0  0  0  0  0  0  0  0  0  # atno 10763 bound_to 10752
  154.5712  135.5618  153.7100 H   0  0  0  0  0  0  0  0  0  0  0  0  # atno 10764 bound_to 10752
  153.0044  135.6321  154.2337 H   0  0  0  0  0  0  0  0  0  0  0  0  # atno 10765 bound_to 10752
  140.6934  133.9052  155.8633 H   0  0  0  0  0  0  0  0  0  0  0  0  # atno 11005 bound_to 11000
  144.7202  140.4349  143.7013 LP  0  0  0  0  0  0  0  0  0  0  0  0  # atno 17320 bound_to 7965
  145.6477  139.1560  143.2880 LP  0  0  0  0  0  0  0  0  0  0  0  0  # atno 17321 bound_to 7965
  139.9150  144.6834  150.8521 LP  0  0  0  0  0  0  0  0  0  0  0  0  # atno 17342 bound_to 10162
  140.7700  143.3416  151.2197 LP  0  0  0  0  0  0  0  0  0  0  0  0  # atno 17343 bound_to 10162
  157.0566  130.5809  149.5379 LP  0  0  0  0  0  0  0  0  0  0  0  0  # atno 17370 bound_to 10713
  156.0074  130.5162  150.7875 LP  0  0  0  0  0  0  0  0  0  0  0  0  # atno 17371 bound_to 10713
  141.0223  134.0872  157.4107 LP  0  0  0  0  0  0  0  0  0  0  0  0  # atno 17394 bound_to 11000
  139.8917  135.0120  156.6805 LP  0  0  0  0  0  0  0  0  0  0  0  0  # atno 17395 bound_to 11000

$$$$
