AV-unprocessed.smi:1703|AV-procd|sdf|6869|dock6
  -GOLD-   22720 8 63D 1   1.00000     0.00000
 Structure written by MMmdl.
 49 51  0  0  0  0  0  0  0  0  2 V2000
  156.9605  138.0574  158.2259 C   0  0  0  0  0  0  0  0  0  0  0  0
  155.9330  136.9170  158.1536 C   0  0  2  0  0  0  0  0  0  0  0  0
  154.9743  137.0256  156.9497 C   0  0  0  0  0  0  0  0  0  0  0  0
  153.9447  138.0482  157.1262 N   0  0  0  0  0  0  0  0  0  0  0  0
  153.0102  138.0993  156.0008 C   0  0  0  0  0  0  0  0  0  0  0  0
  152.1807  139.3964  155.8677 C   0  0  1  0  0  0  0  0  0  0  0  0
  151.3874  139.2759  154.7064 O   0  0  0  0  0  0  0  0  0  0  0  0
  151.2124  139.6646  157.0412 C   0  0  0  0  0  0  0  0  0  0  0  0
  150.9156  141.0892  157.2558 N   0  0  0  0  0  0  0  0  0  0  0  0
  149.9957  141.9076  156.6649 C   0  0  0  0  0  0  0  0  0  0  0  0
  148.9975  141.5370  155.6153 C   0  0  0  0  0  0  0  0  0  0  0  0
  149.1733  142.2572  154.4140 O   0  0  0  0  0  0  0  0  0  0  0  0
  150.1510  143.1467  157.2123 N   0  3  0  0  0  0  0  0  0  0  0  0
  151.1670  143.1195  158.1672 C   0  0  0  0  0  0  0  0  0  0  0  0
  151.6744  144.1230  158.9865 C   0  0  0  0  0  0  0  0  0  0  0  0
  152.7145  143.7558  159.8655 C   0  0  0  0  0  0  0  0  0  0  0  0
  153.2123  142.4369  159.9039 C   0  0  0  0  0  0  0  0  0  0  0  0
  152.6920  141.4293  159.0649 C   0  0  0  0  0  0  0  0  0  0  0  0
  151.6610  141.8001  158.2025 C   0  0  0  0  0  0  0  0  0  0  0  0
  153.2398  137.8001  158.3767 C   0  0  0  0  0  0  0  0  0  0  0  0
  154.1967  137.7884  159.5808 C   0  0  1  0  0  0  0  0  0  0  0  0
  153.4712  137.4670  160.8912 C   0  0  0  0  0  0  0  0  0  0  0  0
  155.1985  136.7948  159.3725 O   0  0  0  0  0  0  0  0  0  0  0  0
  157.5649  138.0963  157.3194 H   0  0  0  0  0  0  0  0  0  0  0  0
  157.6366  137.9181  159.0692 H   0  0  0  0  0  0  0  0  0  0  0  0
  156.4816  139.0276  158.3428 H   0  0  0  0  0  0  0  0  0  0  0  0
  156.4985  135.9915  158.0431 H   0  0  0  0  0  0  0  0  0  0  0  0
  155.5588  137.2188  156.0512 H   0  0  0  0  0  0  0  0  0  0  0  0
  154.4953  136.0565  156.8003 H   0  0  0  0  0  0  0  0  0  0  0  0
  153.5700  137.9351  155.0783 H   0  0  0  0  0  0  0  0  0  0  0  0
  152.3132  137.2629  156.0675 H   0  0  0  0  0  0  0  0  0  0  0  0
  152.8274  140.2582  155.7112 H   0  0  0  0  0  0  0  0  0  0  0  0
  151.2928  138.3585  154.5001 H   0  0  0  0  0  0  0  0  0  0  0  0
  150.2659  139.1447  156.8855 H   0  0  0  0  0  0  0  0  0  0  0  0
  151.6225  139.2667  157.9699 H   0  0  0  0  0  0  0  0  0  0  0  0
  149.0772  140.4699  155.4082 H   0  0  0  0  0  0  0  0  0  0  0  0
  147.9883  141.7224  155.9810 H   0  0  0  0  0  0  0  0  0  0  0  0
  149.2559  143.1753  154.6239 H   0  0  0  0  0  0  0  0  0  0  0  0
  151.2930  145.1332  158.9594 H   0  0  0  0  0  0  0  0  0  0  0  0
  153.1385  144.5006  160.5234 H   0  0  0  0  0  0  0  0  0  0  0  0
  154.0105  142.1927  160.5899 H   0  0  0  0  0  0  0  0  0  0  0  0
  153.0799  140.4221  159.1007 H   0  0  0  0  0  0  0  0  0  0  0  0
  152.4825  138.5696  158.5310 H   0  0  0  0  0  0  0  0  0  0  0  0
  152.7093  136.8480  158.3202 H   0  0  0  0  0  0  0  0  0  0  0  0
  154.6670  138.7670  159.6815 H   0  0  0  0  0  0  0  0  0  0  0  0
  152.6995  138.2070  161.1041 H   0  0  0  0  0  0  0  0  0  0  0  0
  154.1672  137.4615  161.7304 H   0  0  0  0  0  0  0  0  0  0  0  0
  152.9933  136.4878  160.8483 H   0  0  0  0  0  0  0  0  0  0  0  0
  149.5897  143.9478  156.9534 H   0  0  0  0  0  0  0  0  0  0  0  0
  1  2  1  0  0  0  0
  1 24  1  0  0  0  0
  1 25  1  0  0  0  0
  1 26  1  0  0  0  0
  2 23  1  0  0  0  0
  2  3  1  0  0  0  0
  2 27  1  0  0  0  0
  3  4  1  0  0  0  0
  3 28  1  0  0  0  0
  3 29  1  0  0  0  0
  4  5  1  0  0  0  0
  4 20  1  0  0  0  0
  5  6  1  0  0  0  0
  5 30  1  0  0  0  0
  5 31  1  0  0  0  0
  6  7  1  0  0  0  0
  6  8  1  0  0  0  0
  6 32  1  0  0  0  0
  7 33  1  0  0  0  0
  8  9  1  0  0  0  0
  8 34  1  0  0  0  0
  8 35  1  0  0  0  0
  9 19  1  0  0  0  0
  9 10  1  0  0  0  0
 10 11  1  0  0  0  0
 10 13  2  0  0  0  0
 11 12  1  0  0  0  0
 11 36  1  0  0  0  0
 11 37  1  0  0  0  0
 12 38  1  0  0  0  0
 13 14  1  0  0  0  0
 13 49  1  0  0  0  0
 14 19  2  0  0  0  0
 14 15  1  0  0  0  0
 15 16  2  0  0  0  0
 15 39  1  0  0  0  0
 16 17  1  0  0  0  0
 16 40  1  0  0  0  0
 17 18  2  0  0  0  0
 17 41  1  0  0  0  0
 18 19  1  0  0  0  0
 18 42  1  0  0  0  0
 20 21  1  0  0  0  0
 20 43  1  0  0  0  0
 20 44  1  0  0  0  0
 21 22  1  0  0  0  0
 21 23  1  0  0  0  0
 21 45  1  0  0  0  0
 22 46  1  0  0  0  0
 22 47  1  0  0  0  0
 22 48  1  0  0  0  0
M  CHG  1  13   1
M  END
> <s_m_source_file>
AV-unprocessed.smi

> <i_m_source_file_index>
1703

> <i_lp_mmshare_version>
43012

> <i_f3d_flags>
0

> <s_epik_input>
W0NIM11bQ0BASF0xW0NIMl1OKFtDSDJdW0NASF0oTzEpW0NIM10pW0NIMl1bQ0BIXShbT0hdKVtDSDJdbihjKG4yKVtDSDJdW09IXSljKGMyMylbY0hdW2NIXVtjSF1bY0hdMw==

> <s_epik_cmdline>
J2VwaWtfcHl0aG9uJywgJy1waCcsICc3LjAnLCAnLXRuJywgJzgnLCAnLW1hJywgJzIwMCcsICctbWV0YWxfYmluZGluZycsICctaW1hZScsICc8aW5maWxlLm1hZT4nLCAnLW9tYWUnLCAnPG91dGZpbGUubWFlPic=

> <r_epik_Ionization_Penalty>
1.7682

> <r_epik_Ionization_Penalty_Charging>
1.55298

> <r_epik_Ionization_Penalty_Neutral>
0.215215

> <r_epik_State_Penalty>
1.83821

> <r_epik_Charging_Adjusted_Penalty>
3.39119

> <i_epik_Tot_Q>
1

> <i_epik_Tot_abs_Q>
1

> <r_epik_Metal_State_Penalty>
5.89206

> <b_epik_Metal_Only>
0

> <s_lp_Force_Field>
OPLS_2005

> <r_lp_Energy>
30.0096

> <b_lp_Chiralities_Consistent>
1

> <s_lp_Variant>
AV-unprocessed.smi:1703-17

> <Gold.Version>
5.8.1

> <Gold.Id.Protein>
6NUR|6NUR_protein|mol2

> <Gold.PLP.Fitness>
52.9274

> <Gold.PLP.PLP>
-40.1902

> <Gold.PLP.part.hbond>
-5.1014

> <Gold.PLP.part.metal>
0.0000

> <Gold.PLP.part.buried>
-3.0793

> <Gold.PLP.part.nonpolar>
-31.9678

> <Gold.PLP.part.repulsive>
0.0000

> <Gold.PLP.ligand.clash>
0.0000

> <Gold.PLP.ligand.torsion>
0.8299

> <Gold.PLP.Chemscore.Hbond>
4.7955

> <Gold.PLP.Chemscore.CHOScore>
0.0000

> <Gold.PLP.Chemscore.Metal>
0.0000

> <Gold.Chemscore.Hbonds>
donor molecule, donor type, donor heavy atom, donor atom, acceptor molecule, acceptor atom, score
      L1  H    12    38       P1  8028  1.00
      L1  H    13    49       P1  8028  1.79
      P1  H  7989  7998       L1     7  1.00
      P1  H  7997  8009       L1     4  0.54
      P1  H  8011  8017       L1    12  0.13

> <Gold.PLP.Chemscore.Internal.Correction>
0.0105

> <Gold.Rescore>
     Score         DG    S(hbond)    S(metal)    S(lipo)     H(rot)  DE(clash)    DE(int)     intcor
     19.52     -20.65       2.83        0.00     113.42       2.96       0.18       0.95       ----

> <Gold.Chemscore.Fitness>
19.5150

> <Gold.Chemscore.DG>
-20.6483

> <Gold.Chemscore.ZeroCoef>
-5.4800

> <Gold.Chemscore.Hbond>
2.8337

> <Gold.Chemscore.Metal>
0.0000

> <Gold.Chemscore.Lipo>
113.4173

> <Gold.Chemscore.Internal_Hbond>
0.0000

> <Gold.Chemscore.DEClash>
0.1834

> <Gold.Chemscore.DEInternal>
0.9499

> <Gold.Chemscore.Rot>
2.9555

> <Gold.Chemscore.Internal.Correction>
   9.000000E+99

> <Gold.Chemscore.Hbonds>
donor molecule, donor type, donor heavy atom, donor atom, acceptor molecule, acceptor atom, score
      L1  H    12    38       P1  8028  0.98
      L1  H    13    49       P1  8028  0.72
      P1  H  7989  7998       L1     7  0.75
      P1  H  7997  8009       L1     4  0.10
      P1  H  8011  8017       L1    12  0.02

> <Gold.Chemscore.Hbond.Weighted>
-9.4645

> <Gold.Chemscore.Metal.Weighted>
-0.0000

> <Gold.Chemscore.Lipo.Weighted>
-13.2698

> <Gold.Chemscore.Internal_Hbond.Weighted>
0.0000

> <Gold.Chemscore.DEClash.Weighted>
0.1834

> <Gold.Chemscore.DEInternal.Weighted>
0.9499

> <Gold.Chemscore.Rot.Weighted>
7.5660

> <Gold.Chemscore.Internal.Correction.Weighted>
   9.000000E+99

> <Gold.Protein.RotatedTorsions>
[ 6907 6896 6895 6894 ] final   18.30 input  -60.11 | X-H torsion
[ 7974 7965 7964 7962 ] final  151.27 input  175.53 | X-H torsion
[ 8008 7997 7996 7995 ] final  145.38 input   59.86 | X-H torsion
[ 10167 10162 10161 10158 ] final   39.39 input  -65.29 | X-H torsion
[ 10718 10713 10712 10709 ] final   83.67 input   66.30 | X-H torsion
[ 10763 10752 10751 10750 ] final -163.69 input  -60.55 | X-H torsion
[ 11005 11000 10999 10996 ] final   25.87 input  -57.11 | X-H torsion

> <Gold.Protein.ActiveResidues>
 VAL166  LYS551  ARG553  GLY616  TRP617  ASP618  TYR619  PRO620  LYS621  CYS622 
 ASP623  PHE694  ASN695  SER759  ASP760  ASP761  ALA762  ILE779  LEU786  VAL792 
 PHE793  MET794  SER795  GLU796  ALA797  LYS798  CYS799  TRP800  GLU811  SER814 

> <Gold.Protein.RotatedAtoms>
  151.8631  135.0517  160.0471 H   0  0  0  0  0  0  0  0  0  0  0  0  # atno 6907 bound_to 6896
  152.2647  133.5324  159.5411 H   0  0  0  0  0  0  0  0  0  0  0  0  # atno 6908 bound_to 6896
  150.7129  134.0697  159.3902 H   0  0  0  0  0  0  0  0  0  0  0  0  # atno 6909 bound_to 6896
  144.8304  139.6516  143.6061 H   0  0  0  0  0  0  0  0  0  0  0  0  # atno 7974 bound_to 7965
  156.2884  140.2210  156.5206 H   0  0  0  0  0  0  0  0  0  0  0  0  # atno 8008 bound_to 7997
  154.7531  140.0479  157.0932 H   0  0  0  0  0  0  0  0  0  0  0  0  # atno 8009 bound_to 7997
  155.0084  140.3110  155.4842 H   0  0  0  0  0  0  0  0  0  0  0  0  # atno 8010 bound_to 7997
  140.3844  144.1937  150.6130 H   0  0  0  0  0  0  0  0  0  0  0  0  # atno 10167 bound_to 10162
  157.6883  131.0101  150.2558 H   0  0  0  0  0  0  0  0  0  0  0  0  # atno 10718 bound_to 10713
  154.7099  135.3004  154.9213 H   0  0  0  0  0  0  0  0  0  0  0  0  # atno 10763 bound_to 10752
  154.0118  135.6694  153.4770 H   0  0  0  0  0  0  0  0  0  0  0  0  # atno 10764 bound_to 10752
  153.0747  135.5041  154.8291 H   0  0  0  0  0  0  0  0  0  0  0  0  # atno 10765 bound_to 10752
  140.3432  134.2310  155.7687 H   0  0  0  0  0  0  0  0  0  0  0  0  # atno 11005 bound_to 11000
  146.2607  139.6404  142.9364 LP  0  0  0  0  0  0  0  0  0  0  0  0  # atno 17320 bound_to 7965
  145.4908  141.0438  143.2594 LP  0  0  0  0  0  0  0  0  0  0  0  0  # atno 17321 bound_to 7965
  140.4904  143.2349  151.8826 LP  0  0  0  0  0  0  0  0  0  0  0  0  # atno 17342 bound_to 10162
  139.4793  144.5172  151.8852 LP  0  0  0  0  0  0  0  0  0  0  0  0  # atno 17343 bound_to 10162
  156.3147  130.3777  149.7630 LP  0  0  0  0  0  0  0  0  0  0  0  0  # atno 17370 bound_to 10713
  156.5219  130.8219  151.3206 LP  0  0  0  0  0  0  0  0  0  0  0  0  # atno 17371 bound_to 10713
  141.2033  133.7916  157.0348 LP  0  0  0  0  0  0  0  0  0  0  0  0  # atno 17394 bound_to 11000
  140.0764  134.9673  157.1552 LP  0  0  0  0  0  0  0  0  0  0  0  0  # atno 17395 bound_to 11000

$$$$
