AV-unprocessed.smi:1571|AV-procd|sdf|6326|dock6
  -GOLD-   22720 6533D 1   1.00000     0.00000
 Structure written by MMmdl.
 37 38  0  0  0  0  0  0  0  0  1 V2000
  145.3338  139.3072  155.2157 C   0  0  0  0  0  0  0  0  0  0  0  0
  144.9144  140.7027  155.5793 C   0  0  0  0  0  0  0  0  0  0  0  0
  143.7945  140.8805  156.2592 N   0  0  0  0  0  0  0  0  0  0  0  0
  143.6699  142.2611  156.4387 O   0  0  0  0  0  0  0  0  0  0  0  0
  144.7329  142.8684  155.8539 C   0  0  0  0  0  0  0  0  0  0  0  0
  144.7732  144.3570  155.9358 C   0  0  0  0  0  0  0  0  0  0  0  0
  145.5644  141.9383  155.2916 C   0  0  0  0  0  0  0  0  0  0  0  0
  146.8560  142.1612  154.5418 C   0  0  0  0  0  0  0  0  0  0  0  0
  148.0260  141.3985  155.1762 C   0  0  0  0  0  0  0  0  0  0  0  0
  147.9106  140.2206  155.5186 O   0  0  0  0  0  0  0  0  0  0  0  0
  149.1602  142.1011  155.3213 N   0  0  0  0  0  0  0  0  0  0  0  0
  150.4159  141.6078  155.8818 C   0  0  0  0  0  0  0  0  0  0  0  0
  150.6710  140.1744  155.3769 C   0  0  0  0  0  0  0  0  0  0  0  0
  152.0214  139.6094  155.8397 C   0  0  0  0  0  0  0  0  0  0  0  0
  152.1114  139.5610  157.6769 S   0  0  0  0  0  0  0  0  0  0  0  0
  151.0256  138.6945  158.1609 O   0  0  0  0  0  0  0  0  0  0  0  0
  153.5012  139.3035  158.0826 O   0  0  0  0  0  0  0  0  0  0  0  0
  151.6769  141.2998  158.0929 C   0  0  0  0  0  0  0  0  0  0  0  0
  150.3593  141.7063  157.4187 C   0  0  0  0  0  0  0  0  0  0  0  0
  146.2515  139.3036  154.6281 H   0  0  0  0  0  0  0  0  0  0  0  0
  144.5647  138.8091  154.6251 H   0  0  0  0  0  0  0  0  0  0  0  0
  145.5100  138.7062  156.1080 H   0  0  0  0  0  0  0  0  0  0  0  0
  145.6480  144.7566  155.4233 H   0  0  0  0  0  0  0  0  0  0  0  0
  144.8110  144.6853  156.9746 H   0  0  0  0  0  0  0  0  0  0  0  0
  143.8867  144.7919  155.4743 H   0  0  0  0  0  0  0  0  0  0  0  0
  146.7634  141.8423  153.5032 H   0  0  0  0  0  0  0  0  0  0  0  0
  147.1109  143.2207  154.5067 H   0  0  0  0  0  0  0  0  0  0  0  0
  149.1551  143.0620  155.0106 H   0  0  0  0  0  0  0  0  0  0  0  0
  151.2422  142.2329  155.5386 H   0  0  0  0  0  0  0  0  0  0  0  0
  149.8675  139.5151  155.7077 H   0  0  0  0  0  0  0  0  0  0  0  0
  150.6439  140.1638  154.2865 H   0  0  0  0  0  0  0  0  0  0  0  0
  152.1716  138.5973  155.4640 H   0  0  0  0  0  0  0  0  0  0  0  0
  152.8439  140.2239  155.4737 H   0  0  0  0  0  0  0  0  0  0  0  0
  151.6034  141.3830  159.1773 H   0  0  0  0  0  0  0  0  0  0  0  0
  152.4939  141.9435  157.7662 H   0  0  0  0  0  0  0  0  0  0  0  0
  150.1211  142.7306  157.7077 H   0  0  0  0  0  0  0  0  0  0  0  0
  149.5476  141.0859  157.8010 H   0  0  0  0  0  0  0  0  0  0  0  0
  1  2  1  0  0  0  0
  1 20  1  0  0  0  0
  1 21  1  0  0  0  0
  1 22  1  0  0  0  0
  2  7  1  0  0  0  0
  2  3  2  0  0  0  0
  3  4  1  0  0  0  0
  4  5  1  0  0  0  0
  5  6  1  0  0  0  0
  5  7  2  0  0  0  0
  6 23  1  0  0  0  0
  6 24  1  0  0  0  0
  6 25  1  0  0  0  0
  7  8  1  0  0  0  0
  8  9  1  0  0  0  0
  8 26  1  0  0  0  0
  8 27  1  0  0  0  0
  9 10  2  0  0  0  0
  9 11  1  0  0  0  0
 11 12  1  0  0  0  0
 11 28  1  0  0  0  0
 12 19  1  0  0  0  0
 12 13  1  0  0  0  0
 12 29  1  0  0  0  0
 13 14  1  0  0  0  0
 13 30  1  0  0  0  0
 13 31  1  0  0  0  0
 14 15  1  0  0  0  0
 14 32  1  0  0  0  0
 14 33  1  0  0  0  0
 15 16  2  0  0  0  0
 15 17  2  0  0  0  0
 15 18  1  0  0  0  0
 18 19  1  0  0  0  0
 18 34  1  0  0  0  0
 18 35  1  0  0  0  0
 19 36  1  0  0  0  0
 19 37  1  0  0  0  0
M  END
> <s_m_source_file>
AV-unprocessed.smi

> <i_m_source_file_index>
1571

> <i_lp_mmshare_version>
43012

> <i_f3d_flags>
0

> <s_epik_input>
W0NIM11jMW5vYyhbQ0gzXSljMVtDSDJdQyg9TylbTkhdW0NIXShbQ0gyXVtDSDJdMilbQ0gyXVtDSDJdUzIoPU8pPU8=

> <s_epik_cmdline>
J2VwaWtfcHl0aG9uJywgJy1waCcsICc3LjAnLCAnLXRuJywgJzgnLCAnLW1hJywgJzIwMCcsICctbWV0YWxfYmluZGluZycsICctaW1hZScsICc8aW5maWxlLm1hZT4nLCAnLW9tYWUnLCAnPG91dGZpbGUubWFlPic=

> <r_lp_tautomer_probability>
1

> <r_epik_Ionization_Penalty>
4.0065e-08

> <r_epik_Ionization_Penalty_Charging>
0

> <r_epik_Ionization_Penalty_Neutral>
4.0065e-08

> <r_epik_State_Penalty>
-0

> <r_epik_Charging_Adjusted_Penalty>
0

> <i_epik_Tot_Q>
0

> <i_epik_Tot_abs_Q>
0

> <r_epik_Metal_State_Penalty>
-0

> <b_epik_Metal_Only>
0

> <s_lp_Force_Field>
OPLS_2005

> <r_lp_Energy>
-11.0004

> <b_lp_Chiralities_Consistent>
1

> <s_lp_Variant>
AV-unprocessed.smi:1571-1

> <Gold.Version>
5.8.1

> <Gold.Id.Protein>
6NUR|6NUR_protein|mol2

> <Gold.PLP.Fitness>
31.0121

> <Gold.PLP.PLP>
-26.4815

> <Gold.PLP.part.hbond>
-2.0000

> <Gold.PLP.part.metal>
0.0000

> <Gold.PLP.part.buried>
-4.1015

> <Gold.PLP.part.nonpolar>
-21.0772

> <Gold.PLP.part.repulsive>
0.3551

> <Gold.PLP.ligand.clash>
0.0000

> <Gold.PLP.ligand.torsion>
0.4875

> <Gold.PLP.Chemscore.Hbond>
1.8320

> <Gold.PLP.Chemscore.CHOScore>
0.0000

> <Gold.PLP.Chemscore.Metal>
0.0000

> <Gold.Chemscore.Hbonds>
donor molecule, donor type, donor heavy atom, donor atom, acceptor molecule, acceptor atom, score
      L1  H    11    28       P1  8028  0.82
      P1  H  7997  8009       L1    17  1.00

> <Gold.PLP.Chemscore.Internal.Correction>
0.0096

> <Gold.Rescore>
     Score         DG    S(hbond)    S(metal)    S(lipo)     H(rot)  DE(clash)    DE(int)     intcor
     10.72     -13.87       1.92        0.00      48.81       1.46       0.05       3.10       ----

> <Gold.Chemscore.Fitness>
10.7231

> <Gold.Chemscore.DG>
-13.8717

> <Gold.Chemscore.ZeroCoef>
-5.4800

> <Gold.Chemscore.Hbond>
1.9217

> <Gold.Chemscore.Metal>
0.0000

> <Gold.Chemscore.Lipo>
48.8137

> <Gold.Chemscore.Internal_Hbond>
0.0000

> <Gold.Chemscore.DEClash>
0.0462

> <Gold.Chemscore.DEInternal>
3.1024

> <Gold.Chemscore.Rot>
1.4601

> <Gold.Chemscore.Internal.Correction>
   9.000000E+99

> <Gold.Chemscore.Hbonds>
donor molecule, donor type, donor heavy atom, donor atom, acceptor molecule, acceptor atom, score
      L1  H    11    28       P1  8028  0.81
      P1  H  7997  8009       L1    17  0.43

> <Gold.Chemscore.Hbond.Weighted>
-6.4183

> <Gold.Chemscore.Metal.Weighted>
-0.0000

> <Gold.Chemscore.Lipo.Weighted>
-5.7112

> <Gold.Chemscore.Internal_Hbond.Weighted>
0.0000

> <Gold.Chemscore.DEClash.Weighted>
0.0462

> <Gold.Chemscore.DEInternal.Weighted>
3.1024

> <Gold.Chemscore.Rot.Weighted>
3.7379

> <Gold.Chemscore.Internal.Correction.Weighted>
   9.000000E+99

> <Gold.Protein.RotatedTorsions>
[ 6907 6896 6895 6894 ] final   80.30 input  -60.11 | X-H torsion
[ 7974 7965 7964 7962 ] final  129.00 input  175.53 | X-H torsion
[ 8008 7997 7996 7995 ] final  170.93 input   59.86 | X-H torsion
[ 10167 10162 10161 10158 ] final  115.05 input  -65.29 | X-H torsion
[ 10718 10713 10712 10709 ] final   -6.38 input   66.30 | X-H torsion
[ 10763 10752 10751 10750 ] final  -64.31 input  -60.55 | X-H torsion
[ 11005 11000 10999 10996 ] final   93.79 input  -57.11 | X-H torsion

> <Gold.Protein.ActiveResidues>
 VAL166  LYS551  ARG553  GLY616  TRP617  ASP618  TYR619  PRO620  LYS621  CYS622 
 ASP623  PHE694  ASN695  SER759  ASP760  ASP761  ALA762  ILE779  LEU786  VAL792 
 PHE793  MET794  SER795  GLU796  ALA797  LYS798  CYS799  TRP800  GLU811  SER814 

> <Gold.Protein.RotatedAtoms>
  152.5230  134.3378  159.9205 H   0  0  0  0  0  0  0  0  0  0  0  0  # atno 6907 bound_to 6896
  151.3328  133.3987  159.2672 H   0  0  0  0  0  0  0  0  0  0  0  0  # atno 6908 bound_to 6896
  150.9867  134.9228  159.7933 H   0  0  0  0  0  0  0  0  0  0  0  0  # atno 6909 bound_to 6896
  145.0334  139.4026  143.5138 H   0  0  0  0  0  0  0  0  0  0  0  0  # atno 7974 bound_to 7965
  156.1319  140.1525  156.9052 H   0  0  0  0  0  0  0  0  0  0  0  0  # atno 8008 bound_to 7997
  154.4916  140.0850  156.7646 H   0  0  0  0  0  0  0  0  0  0  0  0  # atno 8009 bound_to 7997
  155.4240  140.3424  155.4276 H   0  0  0  0  0  0  0  0  0  0  0  0  # atno 8010 bound_to 7997
  139.6345  144.7118  151.2364 H   0  0  0  0  0  0  0  0  0  0  0  0  # atno 10167 bound_to 10162
  156.7327  130.5185  149.5842 H   0  0  0  0  0  0  0  0  0  0  0  0  # atno 10718 bound_to 10713
  154.3281  135.6182  153.5539 H   0  0  0  0  0  0  0  0  0  0  0  0  # atno 10763 bound_to 10752
  152.9814  135.5740  154.4993 H   0  0  0  0  0  0  0  0  0  0  0  0  # atno 10764 bound_to 10752
  154.4674  135.2858  155.1645 H   0  0  0  0  0  0  0  0  0  0  0  0  # atno 10765 bound_to 10752
  139.8806  134.8809  156.3769 H   0  0  0  0  0  0  0  0  0  0  0  0  # atno 11005 bound_to 11000
  146.3501  139.9896  142.8687 LP  0  0  0  0  0  0  0  0  0  0  0  0  # atno 17320 bound_to 7965
  145.1741  140.9735  143.4304 LP  0  0  0  0  0  0  0  0  0  0  0  0  # atno 17321 bound_to 7965
  140.7457  143.6421  150.8325 LP  0  0  0  0  0  0  0  0  0  0  0  0  # atno 17342 bound_to 10162
  140.0051  143.5703  152.2861 LP  0  0  0  0  0  0  0  0  0  0  0  0  # atno 17343 bound_to 10162
  156.1518  130.6315  151.0605 LP  0  0  0  0  0  0  0  0  0  0  0  0  # atno 17370 bound_to 10713
  157.6852  131.0827  150.7262 LP  0  0  0  0  0  0  0  0  0  0  0  0  # atno 17371 bound_to 10713
  140.9426  133.7504  156.0166 LP  0  0  0  0  0  0  0  0  0  0  0  0  # atno 17394 bound_to 11000
  140.8202  134.3298  157.5384 LP  0  0  0  0  0  0  0  0  0  0  0  0  # atno 17395 bound_to 11000

$$$$
