AV-unprocessed.smi:3255|AV-procd|sdf|12459|dock9
  -GOLD-   2272018353D 1   1.00000     0.00000
 Structure written by MMmdl.
 39 40  0  0  0  0  0  0  0  0  2 V2000
  150.9774  135.2461  156.2072 C   0  0  0  0  0  0  0  0  0  0  0  0
  149.9904  136.2290  155.5614 C   0  0  2  0  0  0  0  0  0  0  0  0
  149.3302  135.5671  154.4368 N   0  0  0  0  0  0  0  0  0  0  0  0
  148.5802  134.4590  154.5164 C   0  0  0  0  0  0  0  0  0  0  0  0
  148.3622  133.8438  155.5605 O   0  0  0  0  0  0  0  0  0  0  0  0
  148.0701  134.1147  153.3253 N   0  0  0  0  0  0  0  0  0  0  0  0
  147.1797  132.9810  153.0908 C   0  0  0  0  0  0  0  0  0  0  0  0
  146.7407  132.8766  151.6168 C   0  0  0  0  0  0  0  0  0  0  0  0
  145.6829  133.8279  151.2602 N   0  0  0  0  0  0  0  0  0  0  0  0
  145.7521  135.1972  151.2889 C   0  0  0  0  0  0  0  0  0  0  0  0
  144.5241  135.6594  150.8910 C   0  0  0  0  0  0  0  0  0  0  0  0
  143.7611  134.5538  150.6268 N   0  3  0  0  0  0  0  0  0  0  0  0
  144.4697  133.4412  150.8448 C   0  0  0  0  0  0  0  0  0  0  0  0
  150.6926  137.5220  155.0965 C   0  0  1  0  0  0  0  0  0  0  0  0
  151.1879  138.4366  156.2163 C   0  0  0  0  0  0  0  0  0  0  0  0
  152.2269  139.2820  155.5093 C   0  0  0  0  0  0  0  0  0  0  0  0
  152.7409  138.3617  154.3988 C   0  0  0  0  0  0  0  0  0  0  0  0
  151.8959  137.2145  154.4073 O   0  0  0  0  0  0  0  0  0  0  0  0
  151.4648  135.6915  157.0749 H   0  0  0  0  0  0  0  0  0  0  0  0
  151.7573  134.9463  155.5063 H   0  0  0  0  0  0  0  0  0  0  0  0
  150.4681  134.3434  156.5461 H   0  0  0  0  0  0  0  0  0  0  0  0
  149.2495  136.4929  156.3180 H   0  0  0  0  0  0  0  0  0  0  0  0
  149.4465  135.9968  153.5308 H   0  0  0  0  0  0  0  0  0  0  0  0
  148.3082  134.6810  152.5239 H   0  0  0  0  0  0  0  0  0  0  0  0
  147.7238  132.0769  153.3654 H   0  0  0  0  0  0  0  0  0  0  0  0
  146.3124  133.0215  153.7521 H   0  0  0  0  0  0  0  0  0  0  0  0
  147.5885  133.0425  150.9506 H   0  0  0  0  0  0  0  0  0  0  0  0
  146.3648  131.8746  151.4070 H   0  0  0  0  0  0  0  0  0  0  0  0
  146.6429  135.7279  151.5924 H   0  0  0  0  0  0  0  0  0  0  0  0
  144.1461  136.6653  150.7805 H   0  0  0  0  0  0  0  0  0  0  0  0
  144.1240  132.4300  150.7247 H   0  0  0  0  0  0  0  0  0  0  0  0
  150.0422  138.0884  154.4270 H   0  0  0  0  0  0  0  0  0  0  0  0
  150.3919  139.0328  156.6622 H   0  0  0  0  0  0  0  0  0  0  0  0
  151.6605  137.8501  157.0057 H   0  0  0  0  0  0  0  0  0  0  0  0
  151.7584  140.1651  155.0730 H   0  0  0  0  0  0  0  0  0  0  0  0
  153.0184  139.6165  156.1806 H   0  0  0  0  0  0  0  0  0  0  0  0
  152.6924  138.8567  153.4283 H   0  0  0  0  0  0  0  0  0  0  0  0
  153.7729  138.0554  154.5719 H   0  0  0  0  0  0  0  0  0  0  0  0
  142.7982  134.5727  150.3154 H   0  0  0  0  0  0  0  0  0  0  0  0
  1  2  1  0  0  0  0
  1 19  1  0  0  0  0
  1 20  1  0  0  0  0
  1 21  1  0  0  0  0
  2  3  1  0  0  0  0
  2 14  1  0  0  0  0
  2 22  1  0  0  0  0
  3  4  1  0  0  0  0
  3 23  1  0  0  0  0
  4  5  2  0  0  0  0
  4  6  1  0  0  0  0
  6  7  1  0  0  0  0
  6 24  1  0  0  0  0
  7  8  1  0  0  0  0
  7 25  1  0  0  0  0
  7 26  1  0  0  0  0
  8  9  1  0  0  0  0
  8 27  1  0  0  0  0
  8 28  1  0  0  0  0
  9 13  1  0  0  0  0
  9 10  1  0  0  0  0
 10 11  2  0  0  0  0
 10 29  1  0  0  0  0
 11 12  1  0  0  0  0
 11 30  1  0  0  0  0
 12 13  2  0  0  0  0
 12 39  1  0  0  0  0
 13 31  1  0  0  0  0
 14 18  1  0  0  0  0
 14 15  1  0  0  0  0
 14 32  1  0  0  0  0
 15 16  1  0  0  0  0
 15 33  1  0  0  0  0
 15 34  1  0  0  0  0
 16 17  1  0  0  0  0
 16 35  1  0  0  0  0
 16 36  1  0  0  0  0
 17 18  1  0  0  0  0
 17 37  1  0  0  0  0
 17 38  1  0  0  0  0
M  CHG  1  12   1
M  END
> <s_m_source_file>
AV-unprocessed.smi

> <i_m_source_file_index>
3255

> <i_lp_mmshare_version>
43012

> <i_f3d_flags>
0

> <s_epik_input>
TzFbQ0gyXVtDSDJdW0NIMl1bQ0BIXTFbQ0BIXShbQ0gzXSlbTkhdQyg9TylbTkhdW0NIMl1bQ0gyXW4yW2NIXVtjSF1uW2NIXTI=

> <s_epik_cmdline>
J2VwaWtfcHl0aG9uJywgJy1waCcsICc3LjAnLCAnLXRuJywgJzgnLCAnLW1hJywgJzIwMCcsICctbWV0YWxfYmluZGluZycsICctaW1hZScsICc8aW5maWxlLm1hZT4nLCAnLW9tYWUnLCAnPG91dGZpbGUubWFlPic=

> <r_lp_tautomer_probability>
1

> <r_epik_Ionization_Penalty>
0.256241

> <r_epik_Ionization_Penalty_Charging>
0

> <r_epik_Ionization_Penalty_Neutral>
0.256241

> <r_epik_State_Penalty>
0.247735

> <r_epik_Charging_Adjusted_Penalty>
0.247735

> <i_epik_Tot_Q>
1

> <i_epik_Tot_abs_Q>
1

> <r_epik_Metal_State_Penalty>
0.537184

> <b_epik_Metal_Only>
0

> <s_lp_Force_Field>
OPLS_2005

> <r_lp_Energy>
17.3031

> <b_lp_Chiralities_Consistent>
1

> <s_lp_Variant>
AV-unprocessed.smi:3255-3

> <Gold.Version>
5.8.1

> <Gold.Id.Protein>
6NUR|6NUR_protein|mol2

> <Gold.PLP.Fitness>
48.8410

> <Gold.PLP.PLP>
-31.3502

> <Gold.PLP.part.hbond>
-4.0000

> <Gold.PLP.part.metal>
0.0000

> <Gold.PLP.part.buried>
-3.7806

> <Gold.PLP.part.nonpolar>
-23.1326

> <Gold.PLP.part.repulsive>
0.2176

> <Gold.PLP.ligand.clash>
0.0000

> <Gold.PLP.ligand.torsion>
0.2588

> <Gold.PLP.Chemscore.Hbond>
4.9920

> <Gold.PLP.Chemscore.CHOScore>
1.0000

> <Gold.PLP.Chemscore.Metal>
0.0000

> <Gold.Chemscore.Hbonds>
donor molecule, donor type, donor heavy atom, donor atom, acceptor molecule, acceptor atom, score
      L1  H     3    23       P1  7948  1.00
      L1  H     6    24       P1  7948  1.00
      L1  H    12    39       P1 10186  2.00
      P1  H 10752 10763       L1    18  1.00
      L1  C    10    29       P1  7948  1.00

> <Gold.PLP.Chemscore.Internal.Correction>
0.0324

> <Gold.Rescore>
     Score         DG    S(hbond)    S(metal)    S(lipo)     H(rot)  DE(clash)    DE(int)     intcor
     13.65     -14.70       2.49        0.00      57.27       2.26       0.05       1.00       ----

> <Gold.Chemscore.Fitness>
13.6538

> <Gold.Chemscore.DG>
-14.7039

> <Gold.Chemscore.ZeroCoef>
-5.4800

> <Gold.Chemscore.Hbond>
2.4909

> <Gold.Chemscore.Metal>
0.0000

> <Gold.Chemscore.Lipo>
57.2660

> <Gold.Chemscore.Internal_Hbond>
0.0000

> <Gold.Chemscore.DEClash>
0.0504

> <Gold.Chemscore.DEInternal>
0.9997

> <Gold.Chemscore.Rot>
2.2640

> <Gold.Chemscore.Internal.Correction>
   9.000000E+99

> <Gold.Chemscore.Hbonds>
donor molecule, donor type, donor heavy atom, donor atom, acceptor molecule, acceptor atom, score
      L1  H     3    23       P1  7948  0.48
      L1  H     6    24       P1  7948  0.28
      L1  H    12    39       P1 10186  0.55
      P1  H 10752 10763       L1    18  0.66

> <Gold.Chemscore.Hbond.Weighted>
-8.3196

> <Gold.Chemscore.Metal.Weighted>
-0.0000

> <Gold.Chemscore.Lipo.Weighted>
-6.7001

> <Gold.Chemscore.Internal_Hbond.Weighted>
0.0000

> <Gold.Chemscore.DEClash.Weighted>
0.0504

> <Gold.Chemscore.DEInternal.Weighted>
0.9997

> <Gold.Chemscore.Rot.Weighted>
5.7958

> <Gold.Chemscore.Internal.Correction.Weighted>
   9.000000E+99

> <Gold.Protein.RotatedTorsions>
[ 6907 6896 6895 6894 ] final -114.38 input  -60.11 | X-H torsion
[ 7974 7965 7964 7962 ] final  -15.24 input  175.53 | X-H torsion
[ 8008 7997 7996 7995 ] final -159.17 input   59.86 | X-H torsion
[ 10167 10162 10161 10158 ] final   92.00 input  -65.29 | X-H torsion
[ 10718 10713 10712 10709 ] final  107.54 input   66.30 | X-H torsion
[ 10763 10752 10751 10750 ] final   43.44 input  -60.55 | X-H torsion
[ 11005 11000 10999 10996 ] final  169.61 input  -57.11 | X-H torsion

> <Gold.Protein.ActiveResidues>
 VAL166  LYS551  ARG553  GLY616  TRP617  ASP618  TYR619  PRO620  LYS621  CYS622 
 ASP623  PHE694  ASN695  SER759  ASP760  ASP761  ALA762  ILE779  LEU786  VAL792 
 PHE793  MET794  SER795  GLU796  ALA797  LYS798  CYS799  TRP800  GLU811  SER814 

> <Gold.Protein.RotatedAtoms>
  150.7898  133.8809  159.3285 H   0  0  0  0  0  0  0  0  0  0  0  0  # atno 6907 bound_to 6896
  151.6650  135.0982  160.0196 H   0  0  0  0  0  0  0  0  0  0  0  0  # atno 6908 bound_to 6896
  152.3970  133.6722  159.6319 H   0  0  0  0  0  0  0  0  0  0  0  0  # atno 6909 bound_to 6896
  146.2040  140.3464  142.8413 H   0  0  0  0  0  0  0  0  0  0  0  0  # atno 7974 bound_to 7965
  155.7585  140.0836  157.2167 H   0  0  0  0  0  0  0  0  0  0  0  0  # atno 8008 bound_to 7997
  154.4005  140.1547  156.2862 H   0  0  0  0  0  0  0  0  0  0  0  0  # atno 8009 bound_to 7997
  155.8862  140.3418  155.5926 H   0  0  0  0  0  0  0  0  0  0  0  0  # atno 8010 bound_to 7997
  139.8320  144.6683  150.9388 H   0  0  0  0  0  0  0  0  0  0  0  0  # atno 10167 bound_to 10162
  157.6624  131.0875  150.6172 H   0  0  0  0  0  0  0  0  0  0  0  0  # atno 10718 bound_to 10713
  152.9860  135.6101  154.3113 H   0  0  0  0  0  0  0  0  0  0  0  0  # atno 10763 bound_to 10752
  154.2828  135.2776  155.2691 H   0  0  0  0  0  0  0  0  0  0  0  0  # atno 10764 bound_to 10752
  154.5022  135.5863  153.6597 H   0  0  0  0  0  0  0  0  0  0  0  0  # atno 10765 bound_to 10752
  140.2995  134.7607  157.3905 H   0  0  0  0  0  0  0  0  0  0  0  0  # atno 11005 bound_to 11000
  144.8749  140.7323  143.6023 LP  0  0  0  0  0  0  0  0  0  0  0  0  # atno 17320 bound_to 7965
  145.3384  139.1739  143.4499 LP  0  0  0  0  0  0  0  0  0  0  0  0  # atno 17321 bound_to 7965
  140.7806  143.3992  151.1177 LP  0  0  0  0  0  0  0  0  0  0  0  0  # atno 17342 bound_to 10162
  139.7645  143.8585  152.3107 LP  0  0  0  0  0  0  0  0  0  0  0  0  # atno 17343 bound_to 10162
  156.6474  130.4475  149.5731 LP  0  0  0  0  0  0  0  0  0  0  0  0  # atno 17370 bound_to 10713
  156.2163  130.6710  151.1322 LP  0  0  0  0  0  0  0  0  0  0  0  0  # atno 17371 bound_to 10713
  140.1122  134.5331  155.8256 LP  0  0  0  0  0  0  0  0  0  0  0  0  # atno 17394 bound_to 11000
  141.2131  133.6728  156.6710 LP  0  0  0  0  0  0  0  0  0  0  0  0  # atno 17395 bound_to 11000

$$$$
